=
 OpenBabel11122413303D

 31 35  0  0  1  0  0  0  0  0999 V2000
  160.9600  204.5340  144.9200 C   0  0  0  0  0  0  0  0  0  0  0  0
  160.4010  205.2540  148.6110 C   0  0  2  0  0  3  0  0  0  0  0  0
  160.8140  203.9990  149.3680 C   0  0  0  0  0  0  0  0  0  0  0  0
  161.3130  201.6170  149.4180 C   0  0  0  0  0  0  0  0  0  0  0  0
  160.9810  205.3200  147.2170 C   0  0  0  0  0  0  0  0  0  0  0  0
  162.0780  205.3210  144.6350 C   0  0  0  0  0  3  0  0  0  0  0  0
  160.9650  202.7690  148.7070 C   0  0  0  0  0  3  0  0  0  0  0  0
  162.2290  206.8190  149.3590 C   0  0  2  0  0  3  0  0  0  0  0  0
  160.4070  203.7660  143.9510 F   0  0  0  0  0  0  0  0  0  0  0  0
  160.7890  205.2430  151.4640 O   0  0  0  0  0  0  0  0  0  0  0  0
  161.4830  200.3270  148.7020 C   0  0  0  0  0  1  0  0  0  0  0  0
  162.6710  207.0930  147.9220 C   0  0  0  0  0  2  0  0  0  0  0  0
  160.7220  206.5370  149.4050 C   0  0  2  0  0  3  0  0  0  0  0  0
  160.4140  204.5360  146.2050 C   0  0  0  0  0  3  0  0  0  0  0  0
  161.5010  201.6800  150.8000 C   0  0  0  0  0  3  0  0  0  0  0  0
  162.1100  206.1200  146.9250 C   0  0  0  0  0  0  0  0  0  0  0  0
  162.6430  206.1180  145.6320 C   0  0  0  0  0  3  0  0  0  0  0  0
  160.2150  206.3910  150.8410 C   0  0  0  0  0  2  0  0  0  0  0  0
  160.9710  204.0450  150.7690 C   0  0  0  0  0  0  0  0  0  0  0  0
  161.3290  202.8920  151.4740 C   0  0  0  0  0  3  0  0  0  0  0  0
  161.4730  209.5150  148.8220 O   0  0  0  0  0  0  0  0  0  0  0  0
  162.1420  209.2950  149.8680 C   0  0  0  0  0  0  0  0  0  0  0  0
  162.5590  207.9680  150.1930 N   0  0  0  0  0  2  0  0  0  0  0  0
  160.2620  211.3090  152.4590 C   0  0  1  0  0  3  0  0  0  0  0  0
  162.4110  210.0240  152.2580 C   0  0  0  0  0  2  0  0  0  0  0  0
  161.8480  212.1590  149.0560 C   0  0  0  0  0  1  0  0  0  0  0  0
  158.9330  211.2310  152.8700 O   0  0  0  0  0  1  0  0  0  0  0  0
  160.9520  209.9710  152.7160 C   0  0  0  0  0  2  0  0  0  0  0  0
  161.7680  211.7370  150.5130 C   0  0  2  0  0  3  0  0  0  0  0  0
  162.5270  210.4240  150.7840 C   0  0  2  0  0  3  0  0  0  0  0  0
  160.3150  211.6590  150.9760 C   0  0  0  0  0  2  0  0  0  0  0  0
  1 14  1  0  0  0  0
  2  5  1  6  0  0  0
  2  3  1  0  0  0  0
  2 13  1  0  0  0  0
  3 19  1  0  0  0  0
  4 15  2  0  0  0  0
  6  1  2  0  0  0  0
  6 17  1  0  0  0  0
  7  3  2  0  0  0  0
  7  4  1  0  0  0  0
  8 13  1  0  0  0  0
  8 23  1  1  0  0  0
  9  1  1  0  0  0  0
 11  4  1  0  0  0  0
 12  8  1  0  0  0  0
 13 18  1  1  0  0  0
 14  5  2  0  0  0  0
 15 20  1  0  0  0  0
 16  5  1  0  0  0  0
 16 12  1  0  0  0  0
 17 16  2  0  0  0  0
 18 10  1  0  0  0  0
 19 10  1  0  0  0  0
 19 20  2  0  0  0  0
 21 22  2  0  0  0  0
 22 23  1  0  0  0  0
 24 28  1  0  0  0  0
 24 27  1  6  0  0  0
 25 28  1  0  0  0  0
 29 26  1  6  0  0  0
 29 30  1  0  0  0  0
 29 31  1  0  0  0  0
 30 22  1  6  0  0  0
 30 25  1  0  0  0  0
 31 24  1  0  0  0  0
M  END
>  <MODEL>
1

>  <REMARK>
 VINA RESULT:      -6.3      0.000      0.000
  Name = 
  2 active torsions:
  status: ('A' for Active; 'I' for Inactive)
    1  A    between atoms: C_5  and  C_30
    2  A    between atoms: C_10  and  N_16
                            x       y       z     vdW  Elec       q    Type
                         _______ _______ _______ _____ _____    ______ ____

>  <TORSDO>
F 2

$$$$
=
 OpenBabel11122413303D

 31 35  0  0  1  0  0  0  0  0999 V2000
  160.8800  206.2220  146.4080 C   0  0  0  0  0  0  0  0  0  0  0  0
  160.2210  204.9310  149.9230 C   0  0  2  0  0  3  0  0  0  0  0  0
  160.6930  203.4840  149.9520 C   0  0  0  0  0  0  0  0  0  0  0  0
  161.3260  201.4330  148.8030 C   0  0  0  0  0  0  0  0  0  0  0  0
  160.8190  205.7240  148.7840 C   0  0  0  0  0  0  0  0  0  0  0  0
  161.9560  207.0890  146.6120 C   0  0  0  0  0  3  0  0  0  0  0  0
  160.9240  202.7710  148.7630 C   0  0  0  0  0  3  0  0  0  0  0  0
  161.9450  205.9660  151.4420 C   0  0  2  0  0  3  0  0  0  0  0  0
  160.3890  206.0350  145.1600 F   0  0  0  0  0  0  0  0  0  0  0  0
  160.5630  203.4800  152.3860 O   0  0  0  0  0  0  0  0  0  0  0  0
  161.5810  200.6980  147.5370 C   0  0  0  0  0  1  0  0  0  0  0  0
  162.3940  206.9550  150.3660 C   0  0  0  0  0  2  0  0  0  0  0  0
  160.4560  205.6400  151.2730 C   0  0  2  0  0  3  0  0  0  0  0  0
  160.3140  205.5450  147.4900 C   0  0  0  0  0  3  0  0  0  0  0  0
  161.4880  200.7890  150.0310 C   0  0  0  0  0  3  0  0  0  0  0  0
  161.9050  206.6060  148.9890 C   0  0  0  0  0  0  0  0  0  0  0  0
  162.4590  207.2860  147.9000 C   0  0  0  0  0  3  0  0  0  0  0  0
  159.9340  204.7600  152.4110 C   0  0  0  0  0  2  0  0  0  0  0  0
  160.8240  202.8130  151.1860 C   0  0  0  0  0  0  0  0  0  0  0  0
  161.2360  201.4780  151.2200 C   0  0  0  0  0  3  0  0  0  0  0  0
  160.4810  208.1190  152.6060 O   0  0  0  0  0  0  0  0  0  0  0  0
  161.4180  207.6170  153.2850 C   0  0  0  0  0  0  0  0  0  0  0  0
  162.1950  206.5400  152.7580 N   0  0  0  0  0  2  0  0  0  0  0  0
  159.4890  209.6590  155.8180 C   0  0  1  0  0  3  0  0  0  0  0  0
  160.8400  207.5430  155.7300 C   0  0  0  0  0  2  0  0  0  0  0  0
  162.6200  210.3280  153.6790 C   0  0  0  0  0  1  0  0  0  0  0  0
  158.1980  210.1790  155.7610 O   0  0  0  0  0  1  0  0  0  0  0  0
  159.4320  208.1390  155.6860 C   0  0  0  0  0  2  0  0  0  0  0  0
  161.7440  209.6880  154.7420 C   0  0  2  0  0  3  0  0  0  0  0  0
  161.7440  208.1500  154.6520 C   0  0  2  0  0  3  0  0  0  0  0  0
  160.3290  210.2590  154.6950 C   0  0  0  0  0  2  0  0  0  0  0  0
  1  6  2  0  0  0  0
  1 14  1  0  0  0  0
  2  5  1  6  0  0  0
  2  3  1  0  0  0  0
  2 13  1  0  0  0  0
  3 19  1  0  0  0  0
  4 15  2  0  0  0  0
  5 16  1  0  0  0  0
  6 17  1  0  0  0  0
  7  4  1  0  0  0  0
  7  3  2  0  0  0  0
  8 23  1  1  0  0  0
  9  1  1  0  0  0  0
 10 18  1  0  0  0  0
 11  4  1  0  0  0  0
 12  8  1  0  0  0  0
 13  8  1  0  0  0  0
 13 18  1  1  0  0  0
 14  5  2  0  0  0  0
 15 20  1  0  0  0  0
 16 12  1  0  0  0  0
 17 16  2  0  0  0  0
 19 20  2  0  0  0  0
 19 10  1  0  0  0  0
 21 22  2  0  0  0  0
 23 22  1  0  0  0  0
 24 27  1  6  0  0  0
 28 25  1  0  0  0  0
 28 24  1  0  0  0  0
 29 26  1  6  0  0  0
 30 22  1  6  0  0  0
 30 29  1  0  0  0  0
 30 25  1  0  0  0  0
 31 29  1  0  0  0  0
 31 24  1  0  0  0  0
M  END
>  <MODEL>
2

>  <REMARK>
 VINA RESULT:      -6.3      2.194      2.864
  Name = 
  2 active torsions:
  status: ('A' for Active; 'I' for Inactive)
    1  A    between atoms: C_5  and  C_30
    2  A    between atoms: C_10  and  N_16
                            x       y       z     vdW  Elec       q    Type
                         _______ _______ _______ _____ _____    ______ ____

>  <TORSDO>
F 2

$$$$
=
 OpenBabel11122413303D

 31 35  0  0  1  0  0  0  0  0999 V2000
  160.9970  204.0650  145.2850 C   0  0  0  0  0  0  0  0  0  0  0  0
  160.4530  205.6300  148.7070 C   0  0  2  0  0  3  0  0  0  0  0  0
  160.8160  204.5680  149.7350 C   0  0  0  0  0  0  0  0  0  0  0  0
  161.2250  202.2440  150.3340 C   0  0  0  0  0  0  0  0  0  0  0  0
  161.0390  205.3550  147.3420 C   0  0  0  0  0  0  0  0  0  0  0  0
  162.1440  204.7250  144.8410 C   0  0  0  0  0  3  0  0  0  0  0  0
  160.9230  203.2140  149.3750 C   0  0  0  0  0  3  0  0  0  0  0  0
  162.3360  207.2580  149.1000 C   0  0  2  0  0  3  0  0  0  0  0  0
  160.4190  203.1160  144.5100 F   0  0  0  0  0  0  0  0  0  0  0  0
  160.8310  206.2580  151.4910 O   0  0  0  0  0  0  0  0  0  0  0  0
  161.3490  200.8190  149.9340 C   0  0  0  0  0  1  0  0  0  0  0  0
  162.7930  207.1800  147.6430 C   0  0  0  0  0  2  0  0  0  0  0  0
  160.8200  207.0490  149.1910 C   0  0  2  0  0  3  0  0  0  0  0  0
  160.4470  204.3800  146.5290 C   0  0  0  0  0  3  0  0  0  0  0  0
  161.4100  202.6150  151.6670 C   0  0  0  0  0  3  0  0  0  0  0  0
  162.1990  206.0260  146.8880 C   0  0  0  0  0  0  0  0  0  0  0  0
  162.7360  205.7080  145.6360 C   0  0  0  0  0  3  0  0  0  0  0  0
  160.3020  207.2530  150.6160 C   0  0  0  0  0  2  0  0  0  0  0  0
  160.9700  204.9270  151.0910 C   0  0  0  0  0  0  0  0  0  0  0  0
  161.2820  203.9540  152.0450 C   0  0  0  0  0  3  0  0  0  0  0  0
  161.4260  209.7810  148.1330 O   0  0  0  0  0  0  0  0  0  0  0  0
  162.2080  209.7840  149.1230 C   0  0  0  0  0  0  0  0  0  0  0  0
  162.7060  208.5550  149.6520 N   0  0  0  0  0  2  0  0  0  0  0  0
  160.4690  213.0780  149.7780 C   0  0  1  0  0  3  0  0  0  0  0  0
  161.8440  211.3860  151.0250 C   0  0  0  0  0  2  0  0  0  0  0  0
  163.3920  212.0100  147.5110 C   0  0  0  0  0  1  0  0  0  0  0  0
  159.1690  213.4840  149.4860 O   0  0  0  0  0  1  0  0  0  0  0  0
  160.4270  211.8630  150.7010 C   0  0  0  0  0  2  0  0  0  0  0  0
  162.6220  212.2810  148.7920 C   0  0  2  0  0  3  0  0  0  0  0  0
  162.6410  211.0780  149.7530 C   0  0  2  0  0  3  0  0  0  0  0  0
  161.1980  212.7370  148.4820 C   0  0  0  0  0  2  0  0  0  0  0  0
  1 14  1  0  0  0  0
  2  5  1  6  0  0  0
  2 13  1  0  0  0  0
  2  3  1  0  0  0  0
  3 19  1  0  0  0  0
  4 15  2  0  0  0  0
  6  1  2  0  0  0  0
  6 17  1  0  0  0  0
  7  3  2  0  0  0  0
  7  4  1  0  0  0  0
  8 13  1  0  0  0  0
  8 23  1  6  0  0  0
  9  1  1  0  0  0  0
 11  4  1  0  0  0  0
 12  8  1  0  0  0  0
 13 18  1  1  0  0  0
 14  5  2  0  0  0  0
 15 20  1  0  0  0  0
 16  5  1  0  0  0  0
 16 12  1  0  0  0  0
 17 16  2  0  0  0  0
 18 10  1  0  0  0  0
 19 10  1  0  0  0  0
 19 20  2  0  0  0  0
 21 22  2  0  0  0  0
 22 23  1  0  0  0  0
 24 27  1  6  0  0  0
 24 28  1  0  0  0  0
 28 25  1  0  0  0  0
 29 26  1  6  0  0  0
 29 30  1  0  0  0  0
 30 22  1  6  0  0  0
 30 25  1  0  0  0  0
 31 29  1  0  0  0  0
 31 24  1  0  0  0  0
M  END
>  <MODEL>
3

>  <REMARK>
 VINA RESULT:      -5.8      1.191      1.520
  Name = 
  2 active torsions:
  status: ('A' for Active; 'I' for Inactive)
    1  A    between atoms: C_5  and  C_30
    2  A    between atoms: C_10  and  N_16
                            x       y       z     vdW  Elec       q    Type
                         _______ _______ _______ _____ _____    ______ ____

>  <TORSDO>
F 2

$$$$
=
 OpenBabel11122413303D

 31 35  0  0  1  0  0  0  0  0999 V2000
  162.0150  206.5600  147.4320 C   0  0  0  0  0  0  0  0  0  0  0  0
  162.4230  209.2000  150.1380 C   0  0  2  0  0  3  0  0  0  0  0  0
  161.7880  210.4750  149.6020 C   0  0  0  0  0  0  0  0  0  0  0  0
  160.9560  211.8170  147.7490 C   0  0  0  0  0  0  0  0  0  0  0  0
  161.9520  207.9580  149.4170 C   0  0  0  0  0  0  0  0  0  0  0  0
  161.0410  205.7250  147.9840 C   0  0  0  0  0  3  0  0  0  0  0  0
  161.5100  210.6290  148.2340 C   0  0  0  0  0  3  0  0  0  0  0  0
  160.7870  208.6550  151.9760 C   0  0  2  0  0  3  0  0  0  0  0  0
  162.5180  206.2950  146.2030 F   0  0  0  0  0  0  0  0  0  0  0  0
  161.8470  211.4540  151.8330 O   0  0  0  0  0  0  0  0  0  0  0  0
  160.6550  211.9580  146.3020 C   0  0  0  0  0  1  0  0  0  0  0  0
  160.4850  207.2770  151.3870 C   0  0  0  0  0  2  0  0  0  0  0  0
  162.2330  209.0590  151.6630 C   0  0  2  0  0  3  0  0  0  0  0  0
  162.4700  207.6690  148.1470 C   0  0  0  0  0  3  0  0  0  0  0  0
  160.6880  212.8700  148.6250 C   0  0  0  0  0  3  0  0  0  0  0  0
  160.9690  207.1090  149.9750 C   0  0  0  0  0  0  0  0  0  0  0  0
  160.5280  205.9940  149.2540 C   0  0  0  0  0  3  0  0  0  0  0  0
  162.6180  210.3710  152.3500 C   0  0  0  0  0  2  0  0  0  0  0  0
  161.5460  211.5580  150.4730 C   0  0  0  0  0  0  0  0  0  0  0  0
  160.9830  212.7410  149.9850 C   0  0  0  0  0  3  0  0  0  0  0  0
  159.3080  210.5870  153.4620 O   0  0  0  0  0  0  0  0  0  0  0  0
  159.8100  209.6210  154.0990 C   0  0  0  0  0  0  0  0  0  0  0  0
  160.5670  208.6210  153.4160 N   0  0  0  0  0  2  0  0  0  0  0  0
  162.1190  210.1450  157.0480 C   0  0  1  0  0  3  0  0  0  0  0  0
  159.8340  210.8590  156.2860 C   0  0  0  0  0  2  0  0  0  0  0  0
  160.3370  207.0690  155.5690 C   0  0  0  0  0  1  0  0  0  0  0  0
  163.4630  210.5090  157.0870 O   0  0  0  0  0  1  0  0  0  0  0  0
  161.3140  211.2420  156.3560 C   0  0  0  0  0  2  0  0  0  0  0  0
  160.5000  208.4210  156.2440 C   0  0  2  0  0  3  0  0  0  0  0  0
  159.6320  209.5110  155.5880 C   0  0  2  0  0  3  0  0  0  0  0  0
  161.9720  208.8240  156.3000 C   0  0  0  0  0  2  0  0  0  0  0  0
  1  6  2  0  0  0  0
  1 14  1  0  0  0  0
  2  5  1  6  0  0  0
  2 13  1  0  0  0  0
  3  2  1  0  0  0  0
  3 19  1  0  0  0  0
  4  7  1  0  0  0  0
  4 15  2  0  0  0  0
  5 16  1  0  0  0  0
  6 17  1  0  0  0  0
  7  3  2  0  0  0  0
  8 23  1  1  0  0  0
  9  1  1  0  0  0  0
 10 18  1  0  0  0  0
 11  4  1  0  0  0  0
 12  8  1  0  0  0  0
 13  8  1  0  0  0  0
 13 18  1  1  0  0  0
 14  5  2  0  0  0  0
 15 20  1  0  0  0  0
 16 12  1  0  0  0  0
 17 16  2  0  0  0  0
 19 10  1  0  0  0  0
 20 19  2  0  0  0  0
 21 22  2  0  0  0  0
 23 22  1  0  0  0  0
 24 27  1  6  0  0  0
 25 28  1  0  0  0  0
 28 24  1  0  0  0  0
 29 26  1  6  0  0  0
 29 31  1  0  0  0  0
 30 22  1  6  0  0  0
 30 29  1  0  0  0  0
 30 25  1  0  0  0  0
 31 24  1  0  0  0  0
M  END
>  <MODEL>
4

>  <REMARK>
 VINA RESULT:      -5.6      2.744      6.287
  Name = 
  2 active torsions:
  status: ('A' for Active; 'I' for Inactive)
    1  A    between atoms: C_5  and  C_30
    2  A    between atoms: C_10  and  N_16
                            x       y       z     vdW  Elec       q    Type
                         _______ _______ _______ _____ _____    ______ ____

>  <TORSDO>
F 2

$$$$
=
 OpenBabel11122413303D

 31 35  0  0  1  0  0  0  0  0999 V2000
  162.0830  213.1490  147.9010 C   0  0  0  0  0  0  0  0  0  0  0  0
  159.6770  214.0580  150.7010 C   0  0  2  0  0  3  0  0  0  0  0  0
  158.2790  214.0400  150.0990 C   0  0  0  0  0  0  0  0  0  0  0  0
  156.7990  214.0820  148.1670 C   0  0  0  0  0  0  0  0  0  0  0  0
  160.6840  213.2850  149.8810 C   0  0  0  0  0  0  0  0  0  0  0  0
  162.4750  211.8570  148.2610 C   0  0  0  0  0  3  0  0  0  0  0  0
  158.0870  214.0670  148.7070 C   0  0  0  0  0  3  0  0  0  0  0  0
  159.5050  212.0590  152.2260 C   0  0  2  0  0  3  0  0  0  0  0  0
  162.5630  213.7110  146.7660 F   0  0  0  0  0  0  0  0  0  0  0  0
  157.3050  214.0920  152.3320 O   0  0  0  0  0  0  0  0  0  0  0  0
  156.6130  214.0970  146.6930 C   0  0  0  0  0  1  0  0  0  0  0  0
  160.6950  211.3680  151.5610 C   0  0  0  0  0  2  0  0  0  0  0  0
  159.6780  213.5820  152.1690 C   0  0  2  0  0  3  0  0  0  0  0  0
  161.1930  213.8590  148.7090 C   0  0  0  0  0  3  0  0  0  0  0  0
  155.6880  214.0850  149.0120 C   0  0  0  0  0  3  0  0  0  0  0  0
  161.0860  211.9790  150.2460 C   0  0  0  0  0  0  0  0  0  0  0  0
  161.9850  211.2800  149.4340 C   0  0  0  0  0  3  0  0  0  0  0  0
  158.5760  214.3090  152.9430 C   0  0  0  0  0  2  0  0  0  0  0  0
  157.1500  214.0780  150.9440 C   0  0  0  0  0  0  0  0  0  0  0  0
  155.8630  214.0830  150.3980 C   0  0  0  0  0  3  0  0  0  0  0  0
  160.1150  209.4340  153.1570 O   0  0  0  0  0  0  0  0  0  0  0  0
  159.7260  210.2790  154.0100 C   0  0  0  0  0  0  0  0  0  0  0  0
  159.3980  211.6100  153.6090 N   0  0  0  0  0  2  0  0  0  0  0  0
  162.0730  210.3820  156.9730 C   0  0  1  0  0  3  0  0  0  0  0  0
  159.7430  211.1100  156.3810 C   0  0  0  0  0  2  0  0  0  0  0  0
  160.3980  207.5350  154.9950 C   0  0  0  0  0  1  0  0  0  0  0  0
  163.4010  210.7970  157.0570 O   0  0  0  0  0  1  0  0  0  0  0  0
  161.2060  211.5440  156.4980 C   0  0  0  0  0  2  0  0  0  0  0  0
  160.5160  208.7520  155.8970 C   0  0  2  0  0  3  0  0  0  0  0  0
  159.5860  209.8990  155.4570 C   0  0  2  0  0  3  0  0  0  0  0  0
  161.9690  209.2090  156.0040 C   0  0  0  0  0  2  0  0  0  0  0  0
  1  6  2  0  0  0  0
  1 14  1  0  0  0  0
  2  5  1  6  0  0  0
  2 13  1  0  0  0  0
  3  2  1  0  0  0  0
  3 19  1  0  0  0  0
  4  7  1  0  0  0  0
  4 15  2  0  0  0  0
  5 16  1  0  0  0  0
  6 17  1  0  0  0  0
  7  3  2  0  0  0  0
  8 23  1  1  0  0  0
  9  1  1  0  0  0  0
 10 18  1  0  0  0  0
 11  4  1  0  0  0  0
 12  8  1  0  0  0  0
 13  8  1  0  0  0  0
 13 18  1  1  0  0  0
 14  5  2  0  0  0  0
 15 20  1  0  0  0  0
 16 12  1  0  0  0  0
 17 16  2  0  0  0  0
 19 10  1  0  0  0  0
 20 19  2  0  0  0  0
 21 22  2  0  0  0  0
 23 22  1  0  0  0  0
 24 27  1  6  0  0  0
 25 28  1  0  0  0  0
 28 24  1  0  0  0  0
 29 26  1  6  0  0  0
 29 31  1  0  0  0  0
 30 22  1  6  0  0  0
 30 29  1  0  0  0  0
 30 25  1  0  0  0  0
 31 24  1  0  0  0  0
M  END
>  <MODEL>
5

>  <REMARK>
 VINA RESULT:      -5.2      5.720      8.674
  Name = 
  2 active torsions:
  status: ('A' for Active; 'I' for Inactive)
    1  A    between atoms: C_5  and  C_30
    2  A    between atoms: C_10  and  N_16
                            x       y       z     vdW  Elec       q    Type
                         _______ _______ _______ _____ _____    ______ ____

>  <TORSDO>
F 2

$$$$
=
 OpenBabel11122413303D

 31 35  0  0  1  0  0  0  0  0999 V2000
  160.7330  201.5590  148.7770 C   0  0  0  0  0  0  0  0  0  0  0  0
  162.3060  204.8340  149.9010 C   0  0  2  0  0  3  0  0  0  0  0  0
  161.7930  205.9110  148.9550 C   0  0  0  0  0  0  0  0  0  0  0  0
  160.7610  206.5750  146.8540 C   0  0  0  0  0  0  0  0  0  0  0  0
  161.4470  203.5910  149.9010 C   0  0  0  0  0  0  0  0  0  0  0  0
  159.8030  201.3190  149.7910 C   0  0  0  0  0  3  0  0  0  0  0  0
  161.1990  205.5770  147.7270 C   0  0  0  0  0  3  0  0  0  0  0  0
  161.1390  205.5430  152.0190 C   0  0  2  0  0  3  0  0  0  0  0  0
  160.8390  200.6980  147.7370 F   0  0  0  0  0  0  0  0  0  0  0  0
  162.6120  207.6400  150.4650 O   0  0  0  0  0  0  0  0  0  0  0  0
  160.1210  206.2050  145.5650 C   0  0  0  0  0  1  0  0  0  0  0  0
  160.4500  204.1870  152.1700 C   0  0  0  0  0  2  0  0  0  0  0  0
  162.5000  205.3710  151.3340 C   0  0  2  0  0  3  0  0  0  0  0  0
  161.5520  202.6890  148.8340 C   0  0  0  0  0  3  0  0  0  0  0  0
  160.9260  207.9200  147.1910 C   0  0  0  0  0  3  0  0  0  0  0  0
  160.5080  203.3430  150.9290 C   0  0  0  0  0  0  0  0  0  0  0  0
  159.6990  202.2030  150.8670 C   0  0  0  0  0  3  0  0  0  0  0  0
  163.2830  206.6850  151.2860 C   0  0  0  0  0  2  0  0  0  0  0  0
  161.9880  207.2720  149.2710 C   0  0  0  0  0  0  0  0  0  0  0  0
  161.5400  208.2670  148.3970 C   0  0  0  0  0  3  0  0  0  0  0  0
  160.4720  208.2330  152.6880 O   0  0  0  0  0  0  0  0  0  0  0  0
  160.9420  207.5040  153.6040 C   0  0  0  0  0  0  0  0  0  0  0  0
  161.3030  206.1490  153.3340 N   0  0  0  0  0  2  0  0  0  0  0  0
  159.0030  209.9310  155.7610 C   0  0  1  0  0  3  0  0  0  0  0  0
  160.0120  207.6380  155.9350 C   0  0  0  0  0  2  0  0  0  0  0  0
  162.4750  210.0250  154.1000 C   0  0  0  0  0  1  0  0  0  0  0  0
  157.8280  210.6330  155.4960 O   0  0  0  0  0  1  0  0  0  0  0  0
  158.7330  208.4320  155.6640 C   0  0  0  0  0  2  0  0  0  0  0  0
  161.3670  209.5740  155.0370 C   0  0  2  0  0  3  0  0  0  0  0  0
  161.1450  208.0510  154.9900 C   0  0  2  0  0  3  0  0  0  0  0  0
  160.0780  210.3440  154.7610 C   0  0  0  0  0  2  0  0  0  0  0  0
  1 14  2  0  0  0  0
  1  6  1  0  0  0  0
  2  3  1  6  0  0  0
  2  5  1  0  0  0  0
  2 13  1  0  0  0  0
  3 19  1  0  0  0  0
  4 15  2  0  0  0  0
  4  7  1  0  0  0  0
  5 16  2  0  0  0  0
  6 17  2  0  0  0  0
  7  3  2  0  0  0  0
  8 12  1  0  0  0  0
  8 23  1  1  0  0  0
  9  1  1  0  0  0  0
 10 18  1  0  0  0  0
 11  4  1  0  0  0  0
 13 18  1  6  0  0  0
 13  8  1  0  0  0  0
 14  5  1  0  0  0  0
 15 20  1  0  0  0  0
 16 12  1  0  0  0  0
 17 16  1  0  0  0  0
 19 10  1  0  0  0  0
 20 19  2  0  0  0  0
 21 22  2  0  0  0  0
 23 22  1  0  0  0  0
 24 27  1  6  0  0  0
 28 24  1  0  0  0  0
 28 25  1  0  0  0  0
 29 26  1  6  0  0  0
 30 22  1  6  0  0  0
 30 29  1  0  0  0  0
 30 25  1  0  0  0  0
 31 29  1  0  0  0  0
 31 24  1  0  0  0  0
M  END
>  <MODEL>
6

>  <REMARK>
 VINA RESULT:      -5.1      2.418      4.675
  Name = 
  2 active torsions:
  status: ('A' for Active; 'I' for Inactive)
    1  A    between atoms: C_5  and  C_30
    2  A    between atoms: C_10  and  N_16
                            x       y       z     vdW  Elec       q    Type
                         _______ _______ _______ _____ _____    ______ ____

>  <TORSDO>
F 2

$$$$
=
 OpenBabel11122413303D

 31 35  0  0  1  0  0  0  0  0999 V2000
  161.8680  203.8860  152.0110 C   0  0  0  0  0  0  0  0  0  0  0  0
  162.5760  207.5870  151.4980 C   0  0  2  0  0  3  0  0  0  0  0  0
  162.0750  207.9380  150.1040 C   0  0  0  0  0  0  0  0  0  0  0  0
  161.3750  207.2730  147.8690 C   0  0  0  0  0  0  0  0  0  0  0  0
  161.9710  206.3130  152.0400 C   0  0  0  0  0  0  0  0  0  0  0  0
  160.8150  203.9150  152.9280 C   0  0  0  0  0  3  0  0  0  0  0  0
  161.8040  206.9370  149.1560 C   0  0  0  0  0  3  0  0  0  0  0  0
  160.9070  208.8730  152.8810 C   0  0  2  0  0  3  0  0  0  0  0  0
  162.3290  202.7010  151.5460 F   0  0  0  0  0  0  0  0  0  0  0  0
  162.2570  210.3120  150.6250 O   0  0  0  0  0  0  0  0  0  0  0  0
  161.0780  206.2010  146.8840 C   0  0  0  0  0  1  0  0  0  0  0  0
  160.4560  207.6150  153.6230 C   0  0  0  0  0  2  0  0  0  0  0  0
  162.3850  208.7540  152.4890 C   0  0  2  0  0  3  0  0  0  0  0  0
  162.4430  205.0800  151.5710 C   0  0  0  0  0  3  0  0  0  0  0  0
  161.2270  208.6130  147.5110 C   0  0  0  0  0  3  0  0  0  0  0  0
  160.9070  206.3390  152.9720 C   0  0  0  0  0  0  0  0  0  0  0  0
  160.3450  205.1370  153.4130 C   0  0  0  0  0  3  0  0  0  0  0  0
  162.9130  210.0470  151.8640 C   0  0  0  0  0  2  0  0  0  0  0  0
  161.9570  209.2900  149.7200 C   0  0  0  0  0  0  0  0  0  0  0  0
  161.5180  209.6210  148.4350 C   0  0  0  0  0  3  0  0  0  0  0  0
  159.0290  210.9600  152.3860 O   0  0  0  0  0  0  0  0  0  0  0  0
  159.7330  211.0450  153.4290 C   0  0  0  0  0  0  0  0  0  0  0  0
  160.6980  210.0360  153.7330 N   0  0  0  0  0  2  0  0  0  0  0  0
  157.0660  212.0800  155.9020 C   0  0  1  0  0  3  0  0  0  0  0  0
  159.5570  211.7710  155.8280 C   0  0  0  0  0  2  0  0  0  0  0  0
  158.3570  213.5670  152.5940 C   0  0  0  0  0  1  0  0  0  0  0  0
  155.8600  211.4670  156.2360 O   0  0  0  0  0  1  0  0  0  0  0  0
  158.2200  211.1270  156.2010 C   0  0  0  0  0  2  0  0  0  0  0  0
  158.3750  213.1170  154.0450 C   0  0  2  0  0  3  0  0  0  0  0  0
  159.5820  212.2140  154.3620 C   0  0  2  0  0  3  0  0  0  0  0  0
  157.0540  212.4530  154.4230 C   0  0  0  0  0  2  0  0  0  0  0  0
  1  6  1  0  0  0  0
  2  3  1  6  0  0  0
  2  5  1  0  0  0  0
  2 13  1  0  0  0  0
  4  7  1  0  0  0  0
  5 16  2  0  0  0  0
  6 17  2  0  0  0  0
  7  3  2  0  0  0  0
  8 12  1  0  0  0  0
  8 23  1  1  0  0  0
  9  1  1  0  0  0  0
 10 18  1  0  0  0  0
 11  4  1  0  0  0  0
 13 18  1  6  0  0  0
 13  8  1  0  0  0  0
 14  1  2  0  0  0  0
 14  5  1  0  0  0  0
 15  4  2  0  0  0  0
 15 20  1  0  0  0  0
 16 17  1  0  0  0  0
 16 12  1  0  0  0  0
 19  3  1  0  0  0  0
 19 10  1  0  0  0  0
 20 19  2  0  0  0  0
 21 22  2  0  0  0  0
 22 23  1  0  0  0  0
 24 28  1  0  0  0  0
 24 27  1  6  0  0  0
 25 28  1  0  0  0  0
 29 26  1  6  0  0  0
 29 30  1  0  0  0  0
 29 31  1  0  0  0  0
 30 22  1  6  0  0  0
 30 25  1  0  0  0  0
 31 24  1  0  0  0  0
M  END
>  <MODEL>
7

>  <REMARK>
 VINA RESULT:      -4.5      2.867      5.664
  Name = 
  2 active torsions:
  status: ('A' for Active; 'I' for Inactive)
    1  A    between atoms: C_5  and  C_30
    2  A    between atoms: C_10  and  N_16
                            x       y       z     vdW  Elec       q    Type
                         _______ _______ _______ _____ _____    ______ ____

>  <TORSDO>
F 2

$$$$
=
 OpenBabel11122413303D

 31 35  0  0  1  0  0  0  0  0999 V2000
  162.3030  213.0320  148.0650 C   0  0  0  0  0  0  0  0  0  0  0  0
  159.6010  214.1090  150.5130 C   0  0  2  0  0  3  0  0  0  0  0  0
  158.2970  214.1590  149.7290 C   0  0  0  0  0  0  0  0  0  0  0  0
  157.0910  214.2570  147.6170 C   0  0  0  0  0  0  0  0  0  0  0  0
  160.6630  213.2710  149.8400 C   0  0  0  0  0  0  0  0  0  0  0  0
  162.5710  211.7260  148.4820 C   0  0  0  0  0  3  0  0  0  0  0  0
  158.2940  214.1790  148.3250 C   0  0  0  0  0  3  0  0  0  0  0  0
  159.1160  212.1440  152.0140 C   0  0  2  0  0  3  0  0  0  0  0  0
  162.9610  213.5510  147.0010 F   0  0  0  0  0  0  0  0  0  0  0  0
  157.0380  214.2950  151.8120 O   0  0  0  0  0  0  0  0  0  0  0  0
  157.1050  214.2610  146.1310 C   0  0  0  0  0  1  0  0  0  0  0  0
  160.3430  211.3790  151.5180 C   0  0  0  0  0  2  0  0  0  0  0  0
  159.3800  213.6540  151.9710 C   0  0  2  0  0  3  0  0  0  0  0  0
  161.3550  213.8000  148.7430 C   0  0  0  0  0  3  0  0  0  0  0  0
  155.8800  214.3310  148.3060 C   0  0  0  0  0  3  0  0  0  0  0  0
  160.9390  211.9500  150.2630 C   0  0  0  0  0  0  0  0  0  0  0  0
  161.8980  211.1930  149.5830 C   0  0  0  0  0  3  0  0  0  0  0  0
  158.2270  214.4500  152.5860 C   0  0  0  0  0  2  0  0  0  0  0  0
  157.0690  214.2710  150.4160 C   0  0  0  0  0  0  0  0  0  0  0  0
  155.8690  214.3390  149.7030 C   0  0  0  0  0  3  0  0  0  0  0  0
  161.0310  211.4630  154.0130 O   0  0  0  0  0  0  0  0  0  0  0  0
  159.8110  211.3980  154.3290 C   0  0  0  0  0  0  0  0  0  0  0  0
  158.8000  211.7200  153.3720 N   0  0  0  0  0  2  0  0  0  0  0  0
  156.7490  212.0380  156.4530 C   0  0  1  0  0  3  0  0  0  0  0  0
  158.1400  210.0950  155.6800 C   0  0  0  0  0  2  0  0  0  0  0  0
  160.4560  213.0310  156.7520 C   0  0  0  0  0  1  0  0  0  0  0  0
  155.6060  212.7890  156.1840 O   0  0  0  0  0  1  0  0  0  0  0  0
  156.8820  210.9260  155.4160 C   0  0  0  0  0  2  0  0  0  0  0  0
  159.2320  212.1320  156.7040 C   0  0  2  0  0  3  0  0  0  0  0  0
  159.3980  210.9690  155.7090 C   0  0  2  0  0  3  0  0  0  0  0  0
  157.9730  212.9470  156.4200 C   0  0  0  0  0  2  0  0  0  0  0  0
  1  6  2  0  0  0  0
  1 14  1  0  0  0  0
  2  3  1  6  0  0  0
  2 13  1  0  0  0  0
  3 19  1  0  0  0  0
  4 15  2  0  0  0  0
  4  7  1  0  0  0  0
  5 16  1  0  0  0  0
  5  2  1  0  0  0  0
  6 17  1  0  0  0  0
  7  3  2  0  0  0  0
  8 23  1  1  0  0  0
  9  1  1  0  0  0  0
 10 18  1  0  0  0  0
 11  4  1  0  0  0  0
 12  8  1  0  0  0  0
 13  8  1  0  0  0  0
 13 18  1  6  0  0  0
 14  5  2  0  0  0  0
 15 20  1  0  0  0  0
 16 12  1  0  0  0  0
 17 16  2  0  0  0  0
 19 10  1  0  0  0  0
 20 19  2  0  0  0  0
 21 22  2  0  0  0  0
 23 22  1  0  0  0  0
 24 27  1  6  0  0  0
 25 30  1  0  0  0  0
 28 25  1  0  0  0  0
 28 24  1  0  0  0  0
 29 26  1  6  0  0  0
 30 22  1  6  0  0  0
 30 29  1  0  0  0  0
 31 24  1  0  0  0  0
 31 29  1  0  0  0  0
M  END
>  <MODEL>
8

>  <REMARK>
 VINA RESULT:      -4.4      6.292      8.816
  Name = 
  2 active torsions:
  status: ('A' for Active; 'I' for Inactive)
    1  A    between atoms: C_5  and  C_30
    2  A    between atoms: C_10  and  N_16
                            x       y       z     vdW  Elec       q    Type
                         _______ _______ _______ _____ _____    ______ ____

>  <TORSDO>
F 2

$$$$
=
 OpenBabel11122413303D

 31 35  0  0  1  0  0  0  0  0999 V2000
  161.6960  203.0890  151.9450 C   0  0  0  0  0  0  0  0  0  0  0  0
  162.4030  206.6410  150.7850 C   0  0  2  0  0  3  0  0  0  0  0  0
  161.8910  206.7430  149.3550 C   0  0  0  0  0  0  0  0  0  0  0  0
  161.1720  205.6980  147.2770 C   0  0  0  0  0  0  0  0  0  0  0  0
  161.8010  205.4820  151.5460 C   0  0  0  0  0  0  0  0  0  0  0  0
  160.6510  203.2800  152.8510 C   0  0  0  0  0  3  0  0  0  0  0  0
  161.6110  205.5920  148.6000 C   0  0  0  0  0  3  0  0  0  0  0  0
  160.7460  208.1530  151.9350 C   0  0  2  0  0  3  0  0  0  0  0  0
  162.1530  201.8390  151.6910 F   0  0  0  0  0  0  0  0  0  0  0  0
  162.0780  209.1710  149.4500 O   0  0  0  0  0  0  0  0  0  0  0  0
  160.8660  204.4710  146.4970 C   0  0  0  0  0  1  0  0  0  0  0  0
  160.3000  207.0450  152.8890 C   0  0  0  0  0  2  0  0  0  0  0  0
  162.2200  207.9640  151.5580 C   0  0  2  0  0  3  0  0  0  0  0  0
  162.2690  204.1860  151.2980 C   0  0  0  0  0  3  0  0  0  0  0  0
  161.0220  206.9560  146.6910 C   0  0  0  0  0  3  0  0  0  0  0  0
  160.7450  205.6740  152.4680 C   0  0  0  0  0  0  0  0  0  0  0  0
  160.1850  204.5690  153.1180 C   0  0  0  0  0  3  0  0  0  0  0  0
  162.7440  209.1260  150.7110 C   0  0  0  0  0  2  0  0  0  0  0  0
  161.7700  208.0070  148.7410 C   0  0  0  0  0  0  0  0  0  0  0  0
  161.3210  208.1080  147.4210 C   0  0  0  0  0  3  0  0  0  0  0  0
  161.4440  208.7940  154.6240 O   0  0  0  0  0  0  0  0  0  0  0  0
  160.9230  209.7050  153.9240 C   0  0  0  0  0  0  0  0  0  0  0  0
  160.5440  209.4480  152.5710 N   0  0  0  0  0  2  0  0  0  0  0  0
  157.8530  211.4560  155.2710 C   0  0  1  0  0  3  0  0  0  0  0  0
  160.2230  210.9960  155.9640 C   0  0  0  0  0  2  0  0  0  0  0  0
  160.1230  212.0260  152.2140 C   0  0  0  0  0  1  0  0  0  0  0  0
  156.5370  211.0110  155.3800 O   0  0  0  0  0  1  0  0  0  0  0  0
  158.7680  210.5390  156.0790 C   0  0  0  0  0  2  0  0  0  0  0  0
  159.7130  211.9390  153.6740 C   0  0  2  0  0  3  0  0  0  0  0  0
  160.6780  211.0700  154.5030 C   0  0  2  0  0  3  0  0  0  0  0  0
  158.2680  211.4620  153.8040 C   0  0  0  0  0  2  0  0  0  0  0  0
  1  6  1  0  0  0  0
  2  3  1  6  0  0  0
  2  5  1  0  0  0  0
  2 13  1  0  0  0  0
  4  7  1  0  0  0  0
  5 16  2  0  0  0  0
  6 17  2  0  0  0  0
  7  3  2  0  0  0  0
  8 23  1  1  0  0  0
  8 12  1  0  0  0  0
  9  1  1  0  0  0  0
 10 18  1  0  0  0  0
 11  4  1  0  0  0  0
 13 18  1  6  0  0  0
 13  8  1  0  0  0  0
 14  5  1  0  0  0  0
 14  1  2  0  0  0  0
 15  4  2  0  0  0  0
 15 20  1  0  0  0  0
 16 12  1  0  0  0  0
 16 17  1  0  0  0  0
 19  3  1  0  0  0  0
 19 10  1  0  0  0  0
 20 19  2  0  0  0  0
 22 21  2  0  0  0  0
 23 22  1  0  0  0  0
 24 27  1  6  0  0  0
 24 28  1  0  0  0  0
 25 28  1  0  0  0  0
 29 26  1  6  0  0  0
 29 31  1  0  0  0  0
 29 30  1  0  0  0  0
 30 22  1  6  0  0  0
 30 25  1  0  0  0  0
 31 24  1  0  0  0  0
M  END
>  <MODEL>
9

>  <REMARK>
 VINA RESULT:      -4.2      2.593      5.038
  Name = 
  2 active torsions:
  status: ('A' for Active; 'I' for Inactive)
    1  A    between atoms: C_5  and  C_30
    2  A    between atoms: C_10  and  N_16
                            x       y       z     vdW  Elec       q    Type
                         _______ _______ _______ _____ _____    ______ ____

>  <TORSDO>
F 2

$$$$
