=
 OpenBabel11122414033D

 28 32  0  0  1  0  0  0  0  0999 V2000
  161.1030  208.8590  155.9680 C   0  0  0  0  0  0  0  0  0  0  0  0
  159.2480  212.4030  157.2610 O   0  0  0  0  0  0  0  0  0  0  0  0
  162.6910  210.5020  151.4110 C   0  0  0  0  0  2  0  0  0  0  0  0
  162.8850  210.7810  156.9560 C   0  0  0  0  0  3  0  0  0  0  0  0
  160.4690  211.4220  151.6510 N   0  0  0  0  0  0  0  0  0  0  0  0
  160.2060  207.8000  155.4100 C   0  0  0  0  0  2  0  0  0  0  0  0
  159.5670  214.4530  155.9690 O   0  0  0  0  0  0  0  0  0  0  0  0
  158.9300  213.0920  155.9640 S   0  0  0  0  0  0  0  0  0  0  0  0
  156.9210  213.6890  154.4830 C   0  0  2  0  0  3  0  0  0  0  0  0
  159.5940  212.1540  154.5790 C   0  0  2  0  0  3  0  0  0  0  0  0
  160.8210  205.8150  152.2970 N   0  0  0  0  0  1  0  0  0  0  0  0
  159.6750  210.0180  153.4090 C   0  0  1  0  0  3  0  0  0  0  0  0
  157.0350  212.2450  153.3980 S   0  0  0  0  0  0  0  0  0  0  0  0
  157.2150  213.2740  155.8410 N   0  0  0  0  0  2  0  0  0  0  0  0
  160.8500  207.0290  153.0360 C   0  0  0  0  0  0  0  0  0  0  0  0
  160.8880  210.2230  155.6740 C   0  0  0  0  0  0  0  0  0  0  0  0
  161.4590  210.4420  151.9040 C   0  0  0  0  0  0  0  0  0  0  0  0
  155.5140  214.2450  154.4240 C   0  0  0  0  0  1  0  0  0  0  0  0
  160.9000  208.1530  152.3800 N   0  0  0  0  0  0  0  0  0  0  0  0
  161.8030  211.1730  156.1660 C   0  0  0  0  0  3  0  0  0  0  0  0
  162.1880  208.4760  156.7650 C   0  0  0  0  0  3  0  0  0  0  0  0
  163.0750  209.4330  157.2610 C   0  0  0  0  0  3  0  0  0  0  0  0
  160.9290  206.9500  154.4690 N   0  0  0  0  0  2  0  0  0  0  0  0
  159.2770  211.1330  152.4230 C   0  0  1  0  0  3  0  0  0  0  0  0
  161.0470  209.4840  152.9540 C   0  0  2  0  0  3  0  0  0  0  0  0
  158.8570  212.3340  153.2530 C   0  0  2  0  0  3  0  0  0  0  0  0
  160.5030  212.3710  150.5490 C   0  0  0  0  0  1  0  0  0  0  0  0
  159.7050  210.6530  154.8140 C   0  0  1  0  0  3  0  0  0  0  0  0
  1 21  1  0  0  0  0
  3 17  2  0  0  0  0
  4 22  1  0  0  0  0
  5 17  1  0  0  0  0
  5 24  1  0  0  0  0
  6  1  1  0  0  0  0
  8  7  2  0  0  0  0
  8  2  2  0  0  0  0
  9 18  1  1  0  0  0
  9 14  1  0  0  0  0
 10 28  1  0  0  0  0
 10  8  1  1  0  0  0
 11 15  1  0  0  0  0
 12 28  1  0  0  0  0
 13  9  1  0  0  0  0
 14  8  1  0  0  0  0
 15 23  1  0  0  0  0
 16  1  2  0  0  0  0
 16 20  1  0  0  0  0
 17 25  1  0  0  0  0
 19 25  1  0  0  0  0
 19 15  2  0  0  0  0
 20  4  2  0  0  0  0
 21 22  2  0  0  0  0
 23  6  1  0  0  0  0
 24 26  1  0  0  0  0
 24 12  1  0  0  0  0
 25 12  1  0  0  0  0
 26 13  1  0  0  0  0
 26 10  1  0  0  0  0
 27  5  1  0  0  0  0
 28 16  1  0  0  0  0
M  END
>  <MODEL>
1

>  <REMARK>
 VINA RESULT:      -4.1      0.000      0.000
  Name = 
  0 active torsions:
  status: ('A' for Active; 'I' for Inactive)
                            x       y       z     vdW  Elec       q    Type
                         _______ _______ _______ _____ _____    ______ ____

>  <TORSDO>
F 0

$$$$
=
 OpenBabel11122414033D

 28 32  0  0  1  0  0  0  0  0999 V2000
  161.5610  208.8340  156.1100 C   0  0  0  0  0  0  0  0  0  0  0  0
  162.0030  206.4600  152.6690 O   0  0  0  0  0  0  0  0  0  0  0  0
  157.5240  211.5540  154.5900 C   0  0  0  0  0  2  0  0  0  0  0  0
  159.7830  206.6730  155.9830 C   0  0  0  0  0  3  0  0  0  0  0  0
  158.9370  211.4120  152.6340 N   0  0  0  0  0  0  0  0  0  0  0  0
  162.4670  210.0180  156.2270 C   0  0  0  0  0  2  0  0  0  0  0  0
  160.2540  206.5020  150.9610 O   0  0  0  0  0  0  0  0  0  0  0  0
  161.3480  207.3020  151.6090 S   0  0  0  0  0  0  0  0  0  0  0  0
  161.9540  208.7270  149.5630 C   0  0  2  0  0  3  0  0  0  0  0  0
  160.6220  208.7760  152.3450 C   0  0  2  0  0  3  0  0  0  0  0  0
  161.4550  213.4700  157.2610 N   0  0  0  0  0  1  0  0  0  0  0  0
  160.9760  210.7730  153.6950 C   0  0  1  0  0  3  0  0  0  0  0  0
  162.0130  210.3130  150.4330 S   0  0  0  0  0  0  0  0  0  0  0  0
  162.5320  207.7070  150.4170 N   0  0  0  0  0  2  0  0  0  0  0  0
  161.2300  212.2550  156.5570 C   0  0  0  0  0  0  0  0  0  0  0  0
  160.9840  208.4790  154.8700 C   0  0  0  0  0  0  0  0  0  0  0  0
  158.7250  211.4430  154.0340 C   0  0  0  0  0  0  0  0  0  0  0  0
  162.7640  208.8290  148.2880 C   0  0  0  0  0  1  0  0  0  0  0  0
  160.3920  212.2620  155.5610 N   0  0  0  0  0  0  0  0  0  0  0  0
  160.0820  207.4000  154.8290 C   0  0  0  0  0  3  0  0  0  0  0  0
  161.2580  208.0960  157.2610 C   0  0  0  0  0  3  0  0  0  0  0  0
  160.3750  207.0170  157.1980 C   0  0  0  0  0  3  0  0  0  0  0  0
  161.8590  211.0600  157.0480 N   0  0  0  0  0  2  0  0  0  0  0  0
  160.3360  211.1650  152.3500 C   0  0  1  0  0  3  0  0  0  0  0  0
  159.9490  211.1050  154.7950 C   0  0  2  0  0  3  0  0  0  0  0  0
  160.5040  209.9820  151.4130 C   0  0  2  0  0  3  0  0  0  0  0  0
  157.9850  211.8850  151.6410 C   0  0  0  0  0  1  0  0  0  0  0  0
  161.3120  209.2700  153.6100 C   0  0  1  0  0  3  0  0  0  0  0  0
  1  6  1  0  0  0  0
  1 21  1  0  0  0  0
  4 22  1  0  0  0  0
  5 17  1  0  0  0  0
  6 23  1  0  0  0  0
  7  8  2  0  0  0  0
  8  2  2  0  0  0  0
  9 18  1  6  0  0  0
  9 14  1  0  0  0  0
  9 13  1  0  0  0  0
 10  8  1  6  0  0  0
 10 28  1  0  0  0  0
 12 25  1  0  0  0  0
 13 26  1  0  0  0  0
 14  8  1  0  0  0  0
 15 23  1  0  0  0  0
 15 11  1  0  0  0  0
 16  1  2  0  0  0  0
 17  3  2  0  0  0  0
 17 25  1  0  0  0  0
 19 15  2  0  0  0  0
 20 16  1  0  0  0  0
 20  4  2  0  0  0  0
 22 21  2  0  0  0  0
 24  5  1  0  0  0  0
 24 12  1  0  0  0  0
 25 19  1  0  0  0  0
 26 10  1  0  0  0  0
 26 24  1  0  0  0  0
 27  5  1  0  0  0  0
 28 12  1  0  0  0  0
 28 16  1  0  0  0  0
M  END
>  <MODEL>
2

>  <REMARK>
 VINA RESULT:      -3.6      3.461      5.635
  Name = 
  0 active torsions:
  status: ('A' for Active; 'I' for Inactive)
                            x       y       z     vdW  Elec       q    Type
                         _______ _______ _______ _____ _____    ______ ____

>  <TORSDO>
F 0

$$$$
=
 OpenBabel11122414033D

 28 32  0  0  1  0  0  0  0  0999 V2000
  158.1250  212.1250  152.9390 C   0  0  0  0  0  0  0  0  0  0  0  0
  160.4820  209.4320  150.7330 O   0  0  0  0  0  0  0  0  0  0  0  0
  161.2140  212.6540  156.9600 C   0  0  0  0  0  2  0  0  0  0  0  0
  160.2250  213.3370  151.5360 C   0  0  0  0  0  3  0  0  0  0  0  0
  161.2930  210.2960  156.4360 N   0  0  0  0  0  0  0  0  0  0  0  0
  156.9980  211.5370  153.7280 C   0  0  0  0  0  2  0  0  0  0  0  0
  162.7710  208.9800  151.4630 O   0  0  0  0  0  0  0  0  0  0  0  0
  161.3190  208.7860  151.8010 S   0  0  0  0  0  0  0  0  0  0  0  0
  161.5760  206.5470  153.0280 C   0  0  2  0  0  3  0  0  0  0  0  0
  160.9960  209.5540  153.3970 C   0  0  2  0  0  3  0  0  0  0  0  0
  156.1060  212.3920  157.2610 N   0  0  0  0  0  1  0  0  0  0  0  0
  159.3370  210.1530  155.0780 C   0  0  1  0  0  3  0  0  0  0  0  0
  160.5420  206.9780  154.4500 S   0  0  0  0  0  0  0  0  0  0  0  0
  160.9680  207.0940  151.8300 N   0  0  0  0  0  2  0  0  0  0  0  0
  157.0560  212.1300  156.2350 C   0  0  0  0  0  0  0  0  0  0  0  0
  159.3780  211.4780  152.8670 C   0  0  0  0  0  0  0  0  0  0  0  0
  160.6500  211.5570  156.4680 C   0  0  0  0  0  0  0  0  0  0  0  0
  161.6510  205.0400  152.9060 C   0  0  0  0  0  1  0  0  0  0  0  0
  158.2580  211.7690  156.5820 N   0  0  0  0  0  0  0  0  0  0  0  0
  160.4250  212.1100  152.1720 C   0  0  0  0  0  3  0  0  0  0  0  0
  157.9310  213.3530  152.2950 C   0  0  0  0  0  3  0  0  0  0  0  0
  158.9760  213.9560  151.5920 C   0  0  0  0  0  3  0  0  0  0  0  0
  156.6700  212.3790  154.8730 N   0  0  0  0  0  2  0  0  0  0  0  0
  160.4660  209.3360  155.7340 C   0  0  1  0  0  3  0  0  0  0  0  0
  159.3910  211.5670  155.6890 C   0  0  2  0  0  3  0  0  0  0  0  0
  161.2390  208.6620  154.6140 C   0  0  2  0  0  3  0  0  0  0  0  0
  162.4350  209.9260  157.2580 C   0  0  0  0  0  1  0  0  0  0  0  0
  159.5980  210.1370  153.5580 C   0  0  1  0  0  3  0  0  0  0  0  0
  1  6  1  0  0  0  0
  2  8  2  0  0  0  0
  4 22  2  0  0  0  0
  4 20  1  0  0  0  0
  5 17  1  0  0  0  0
  5 27  1  0  0  0  0
  6 23  1  0  0  0  0
  7  8  2  0  0  0  0
  8 14  1  0  0  0  0
  9 18  1  6  0  0  0
  9 13  1  0  0  0  0
 10  8  1  6  0  0  0
 10 28  1  0  0  0  0
 10 26  1  0  0  0  0
 12 25  1  0  0  0  0
 12 24  1  0  0  0  0
 13 26  1  0  0  0  0
 14  9  1  0  0  0  0
 15 19  2  0  0  0  0
 15 11  1  0  0  0  0
 16  1  1  0  0  0  0
 16 28  1  0  0  0  0
 17  3  2  0  0  0  0
 20 16  2  0  0  0  0
 21  1  2  0  0  0  0
 22 21  1  0  0  0  0
 23 15  1  0  0  0  0
 24  5  1  0  0  0  0
 25 17  1  0  0  0  0
 25 19  1  0  0  0  0
 26 24  1  0  0  0  0
 28 12  1  0  0  0  0
M  END
>  <MODEL>
3

>  <REMARK>
 VINA RESULT:      -3.6      3.013      6.428
  Name = 
  0 active torsions:
  status: ('A' for Active; 'I' for Inactive)
                            x       y       z     vdW  Elec       q    Type
                         _______ _______ _______ _____ _____    ______ ____

>  <TORSDO>
F 0

$$$$
