=
 OpenBabel11122412553D

 32 38  0  0  1  0  0  0  0  0999 V2000
  160.6880  209.3120  157.1860 C   0  0  1  0  0  3  0  0  0  0  0  0
  160.9400  207.0840  152.3920 C   0  0  0  0  0  0  0  0  0  0  0  0
  162.0020  210.9270  149.5850 C   0  0  0  0  0  3  0  0  0  0  0  0
  162.1280  210.0920  148.4750 C   0  0  0  0  0  3  0  0  0  0  0  0
  160.8510  204.7340  151.3820 C   0  0  0  0  0  0  0  0  0  0  0  0
  160.9990  203.9510  150.1570 C   0  0  0  0  0  0  0  0  0  0  0  0
  161.0740  207.4310  154.8790 C   0  0  1  0  0  3  0  0  0  0  0  0
  161.0330  209.3480  153.3720 N   0  0  0  0  0  2  0  0  0  0  0  0
  161.3880  203.4950  147.9680 C   0  0  0  0  0  0  0  0  0  0  0  0
  160.9640  209.8510  155.7810 C   0  0  2  0  0  3  0  0  0  0  0  0
  161.6720  210.3880  150.8300 C   0  0  0  0  0  3  0  0  0  0  0  0
  161.1310  208.4760  152.2330 C   0  0  0  0  0  0  0  0  0  0  0  0
  161.4640  209.0080  150.9800 C   0  0  0  0  0  0  0  0  0  0  0  0
  161.3890  206.7710  149.9940 C   0  0  0  0  0  0  0  0  0  0  0  0
  161.1270  202.3690  148.5560 N   0  0  0  0  0  0  0  0  0  0  0  0
  160.0820  207.8890  157.2120 C   0  0  0  0  0  2  0  0  0  0  0  0
  160.5760  208.8610  154.6660 C   0  0  2  0  0  3  0  0  0  0  0  0
  160.8790  202.6480  149.9450 C   0  0  0  0  0  2  0  0  0  0  0  0
  160.6890  206.8590  156.2440 C   0  0  0  0  0  2  0  0  0  0  0  0
  162.1160  209.3750  156.6630 C   0  0  1  0  0  3  0  0  0  0  0  0
  161.9240  208.7170  148.6110 C   0  0  0  0  0  3  0  0  0  0  0  0
  161.5920  208.1570  149.8570 C   0  0  0  0  0  0  0  0  0  0  0  0
  161.5230  205.8890  148.7940 C   0  0  0  0  0  2  0  0  0  0  0  0
  160.5480  206.5530  153.7530 C   0  0  0  0  0  2  0  0  0  0  0  0
  160.5650  204.1600  152.4670 O   0  0  0  0  0  0  0  0  0  0  0  0
  161.6990  203.6110  146.5180 C   0  0  0  0  0  1  0  0  0  0  0  0
  161.0570  206.2190  151.2740 C   0  0  0  0  0  0  0  0  0  0  0  0
  161.3310  204.5820  148.9210 C   0  0  0  0  0  0  0  0  0  0  0  0
  162.8150  210.5800  157.2610 C   0  0  0  0  0  2  0  0  0  0  0  0
  163.8620  211.0720  156.3250 C   0  0  0  0  0  0  0  0  0  0  0  0
  164.9290  211.8200  156.8060 O   0  0  0  0  0  1  0  0  0  0  0  0
  163.7640  210.8380  155.0920 O   0  0  0  0  0  0  0  0  0  0  0  0
  1 16  1  6  0  0  0
  2 24  1  0  0  0  0
  3 11  2  0  0  0  0
  4 21  2  0  0  0  0
  4  3  1  0  0  0  0
  5 25  2  0  0  0  0
  6  5  1  0  0  0  0
  7 24  1  6  0  0  0
  7 19  1  0  0  0  0
  8 17  1  0  0  0  0
  9 15  2  0  0  0  0
  9 28  1  0  0  0  0
 10 20  1  0  0  0  0
 10  1  1  0  0  0  0
 11 13  1  0  0  0  0
 12  2  1  0  0  0  0
 12  8  1  0  0  0  0
 13 12  2  0  0  0  0
 14 27  1  0  0  0  0
 15 18  1  0  0  0  0
 17  7  1  0  0  0  0
 17 10  1  0  0  0  0
 18  6  1  0  0  0  0
 19 16  1  0  0  0  0
 20  1  1  0  0  0  0
 20 29  1  0  0  0  0
 21 22  1  0  0  0  0
 22 14  2  0  0  0  0
 22 13  1  0  0  0  0
 23 28  1  0  0  0  0
 23 14  1  0  0  0  0
 26  9  1  0  0  0  0
 27  5  1  0  0  0  0
 27  2  2  0  0  0  0
 28  6  2  0  0  0  0
 30 31  1  0  0  0  0
 30 29  1  0  0  0  0
 32 30  2  0  0  0  0
M  END
>  <MODEL>
1

>  <REMARK>
 VINA RESULT:     -10.3      0.000      0.000
  Name = 
  2 active torsions:
  status: ('A' for Active; 'I' for Inactive)
    1  A    between atoms: C_20  and  C_29
    2  A    between atoms: C_29  and  C_30
                            x       y       z     vdW  Elec       q    Type
                         _______ _______ _______ _____ _____    ______ ____

>  <TORSDO>
F 2

$$$$
=
 OpenBabel11122412553D

 32 38  0  0  1  0  0  0  0  0999 V2000
  161.7090  202.9460  146.7660 C   0  0  1  0  0  3  0  0  0  0  0  0
  161.4370  206.3560  150.8050 C   0  0  0  0  0  0  0  0  0  0  0  0
  162.2930  210.5980  148.5580 C   0  0  0  0  0  3  0  0  0  0  0  0
  162.0530  211.2850  149.7470 C   0  0  0  0  0  3  0  0  0  0  0  0
  160.8320  206.3120  153.2910 C   0  0  0  0  0  0  0  0  0  0  0  0
  160.6080  207.1260  154.4830 C   0  0  0  0  0  0  0  0  0  0  0  0
  161.0430  204.3570  149.3300 C   0  0  1  0  0  3  0  0  0  0  0  0
  162.0120  206.3940  148.4040 N   0  0  0  0  0  2  0  0  0  0  0  0
  160.4340  208.9810  155.7800 C   0  0  0  0  0  0  0  0  0  0  0  0
  161.8730  204.4630  146.8840 C   0  0  2  0  0  3  0  0  0  0  0  0
  162.2040  209.2050  148.5280 C   0  0  0  0  0  3  0  0  0  0  0  0
  161.7890  207.0850  149.6450 C   0  0  0  0  0  0  0  0  0  0  0  0
  161.8730  208.4830  149.6850 C   0  0  0  0  0  0  0  0  0  0  0  0
  161.2930  208.4650  152.0600 C   0  0  0  0  0  0  0  0  0  0  0  0
  160.1750  207.9580  156.5340 N   0  0  0  0  0  0  0  0  0  0  0  0
  161.7490  202.1960  148.1190 C   0  0  0  0  0  2  0  0  0  0  0  0
  162.0500  204.9410  148.3380 C   0  0  2  0  0  3  0  0  0  0  0  0
  160.2830  206.7770  155.7200 C   0  0  0  0  0  2  0  0  0  0  0  0
  160.9730  202.8300  149.2860 C   0  0  0  0  0  2  0  0  0  0  0  0
  160.5030  203.8570  146.5900 C   0  0  1  0  0  3  0  0  0  0  0  0
  161.7230  210.5790  150.9060 C   0  0  0  0  0  3  0  0  0  0  0  0
  161.6270  209.1770  150.8930 C   0  0  0  0  0  0  0  0  0  0  0  0
  161.0420  209.2160  153.3290 C   0  0  0  0  0  2  0  0  0  0  0  0
  161.3890  204.8450  150.7290 C   0  0  0  0  0  2  0  0  0  0  0  0
  160.7150  205.0590  153.3520 O   0  0  0  0  0  0  0  0  0  0  0  0
  160.4220  210.3860  156.2700 C   0  0  0  0  0  1  0  0  0  0  0  0
  161.1950  207.0360  152.0250 C   0  0  0  0  0  0  0  0  0  0  0  0
  160.7270  208.5470  154.4320 C   0  0  0  0  0  0  0  0  0  0  0  0
  160.2000  204.0070  145.1120 C   0  0  0  0  0  2  0  0  0  0  0  0
  160.5690  205.3750  144.6580 C   0  0  0  0  0  0  0  0  0  0  0  0
  161.5050  205.5420  143.6450 O   0  0  0  0  0  0  0  0  0  0  0  0
  160.0580  206.3810  145.2130 O   0  0  0  0  0  1  0  0  0  0  0  0
  1 10  1  0  0  0  0
  1 16  1  1  0  0  0
  2 27  1  0  0  0  0
  3  4  1  0  0  0  0
  4 21  2  0  0  0  0
  5 25  2  0  0  0  0
  5  6  1  0  0  0  0
  6 18  1  0  0  0  0
  7 19  1  1  0  0  0
  7 24  1  0  0  0  0
  8 12  1  0  0  0  0
  9 26  1  0  0  0  0
  9 15  2  0  0  0  0
 10 17  1  0  0  0  0
 11  3  2  0  0  0  0
 11 13  1  0  0  0  0
 12 13  1  0  0  0  0
 12  2  2  0  0  0  0
 13 22  2  0  0  0  0
 14 23  1  0  0  0  0
 16 19  1  0  0  0  0
 17  8  1  0  0  0  0
 17  7  1  0  0  0  0
 18 15  1  0  0  0  0
 20  1  1  0  0  0  0
 20 10  1  0  0  0  0
 22 21  1  0  0  0  0
 22 14  1  0  0  0  0
 23 28  1  0  0  0  0
 24  2  1  0  0  0  0
 27 14  2  0  0  0  0
 27  5  1  0  0  0  0
 28  6  2  0  0  0  0
 28  9  1  0  0  0  0
 29 20  1  0  0  0  0
 30 29  1  0  0  0  0
 30 32  1  0  0  0  0
 31 30  2  0  0  0  0
M  END
>  <MODEL>
2

>  <REMARK>
 VINA RESULT:      -9.4      2.477      7.896
  Name = 
  2 active torsions:
  status: ('A' for Active; 'I' for Inactive)
    1  A    between atoms: C_20  and  C_29
    2  A    between atoms: C_29  and  C_30
                            x       y       z     vdW  Elec       q    Type
                         _______ _______ _______ _____ _____    ______ ____

>  <TORSDO>
F 2

$$$$
=
 OpenBabel11122412553D

 32 38  0  0  1  0  0  0  0  0999 V2000
  161.7790  213.4350  148.8260 C   0  0  1  0  0  3  0  0  0  0  0  0
  161.5780  208.2150  149.6740 C   0  0  0  0  0  0  0  0  0  0  0  0
  160.9700  208.0360  154.5090 C   0  0  0  0  0  3  0  0  0  0  0  0
  160.8300  206.6490  154.4470 C   0  0  0  0  0  3  0  0  0  0  0  0
  161.5220  206.0660  148.2860 C   0  0  0  0  0  0  0  0  0  0  0  0
  161.3690  204.6140  148.3340 C   0  0  0  0  0  0  0  0  0  0  0  0
  161.3520  210.4740  148.5920 C   0  0  1  0  0  3  0  0  0  0  0  0
  161.6230  210.2920  151.0080 N   0  0  0  0  0  2  0  0  0  0  0  0
  161.0500  202.5450  149.2100 C   0  0  0  0  0  0  0  0  0  0  0  0
  161.6170  212.5720  150.0790 C   0  0  2  0  0  3  0  0  0  0  0  0
  161.1950  208.7660  153.3400 C   0  0  0  0  0  3  0  0  0  0  0  0
  161.5090  208.8610  150.9300 C   0  0  0  0  0  0  0  0  0  0  0  0
  161.2810  208.1190  152.0980 C   0  0  0  0  0  0  0  0  0  0  0  0
  161.2210  206.0540  150.7910 C   0  0  0  0  0  0  0  0  0  0  0  0
  161.1890  202.4030  147.9290 N   0  0  0  0  0  0  0  0  0  0  0  0
  162.2650  212.6600  147.5790 C   0  0  0  0  0  2  0  0  0  0  0  0
  161.9750  211.0920  149.8440 C   0  0  2  0  0  3  0  0  0  0  0  0
  161.3920  203.7100  147.3640 C   0  0  0  0  0  3  0  0  0  0  0  0
  161.6230  211.2860  147.3240 C   0  0  0  0  0  2  0  0  0  0  0  0
  160.3890  213.0450  149.3050 C   0  0  1  0  0  3  0  0  0  0  0  0
  160.9140  205.9940  153.2180 C   0  0  0  0  0  3  0  0  0  0  0  0
  161.1380  206.7140  152.0310 C   0  0  0  0  0  0  0  0  0  0  0  0
  161.0720  204.5660  150.7410 C   0  0  0  0  0  3  0  0  0  0  0  0
  161.8590  209.0470  148.4420 C   0  0  0  0  0  2  0  0  0  0  0  0
  161.7070  206.6450  147.1820 O   0  0  0  0  0  0  0  0  0  0  0  0
  160.8210  201.4070  150.1420 C   0  0  0  0  0  1  0  0  0  0  0  0
  161.4440  206.8060  149.5920 C   0  0  0  0  0  0  0  0  0  0  0  0
  161.1500  203.9410  149.5730 C   0  0  0  0  0  0  0  0  0  0  0  0
  159.7630  214.2180  150.0340 C   0  0  0  0  0  2  0  0  0  0  0  0
  158.7200  213.7270  150.9760 C   0  0  0  0  0  0  0  0  0  0  0  0
  159.0010  213.6250  152.3330 O   0  0  0  0  0  1  0  0  0  0  0  0
  157.5940  213.3750  150.5390 O   0  0  0  0  0  0  0  0  0  0  0  0
  1 16  1  6  0  0  0
  1 20  1  0  0  0  0
  1 10  1  0  0  0  0
  2 12  1  0  0  0  0
  4  3  1  0  0  0  0
  5  6  1  0  0  0  0
  5 27  1  0  0  0  0
  6 28  1  0  0  0  0
  7 19  1  6  0  0  0
  7 17  1  0  0  0  0
  9 28  1  0  0  0  0
  9 26  1  0  0  0  0
 11  3  2  0  0  0  0
 12  8  1  0  0  0  0
 12 13  2  0  0  0  0
 13 11  1  0  0  0  0
 14 22  2  0  0  0  0
 15  9  2  0  0  0  0
 17 10  1  0  0  0  0
 17  8  1  0  0  0  0
 18 15  1  0  0  0  0
 18  6  2  0  0  0  0
 19 16  1  0  0  0  0
 20 29  1  0  0  0  0
 20 10  1  0  0  0  0
 21  4  2  0  0  0  0
 22 13  1  0  0  0  0
 22 21  1  0  0  0  0
 23 14  1  0  0  0  0
 24  7  1  0  0  0  0
 24  2  1  0  0  0  0
 25  5  2  0  0  0  0
 27  2  2  0  0  0  0
 27 14  1  0  0  0  0
 28 23  2  0  0  0  0
 29 30  1  0  0  0  0
 30 31  1  0  0  0  0
 32 30  2  0  0  0  0
M  END
>  <MODEL>
3

>  <REMARK>
 VINA RESULT:      -9.4      2.617      5.689
  Name = 
  2 active torsions:
  status: ('A' for Active; 'I' for Inactive)
    1  A    between atoms: C_20  and  C_29
    2  A    between atoms: C_29  and  C_30
                            x       y       z     vdW  Elec       q    Type
                         _______ _______ _______ _____ _____    ______ ____

>  <TORSDO>
F 2

$$$$
=
 OpenBabel11122412553D

 32 38  0  0  1  0  0  0  0  0999 V2000
  161.4450  209.9310  154.4630 C   0  0  1  0  0  3  0  0  0  0  0  0
  161.3090  206.7040  150.2710 C   0  0  0  0  0  0  0  0  0  0  0  0
  160.9430  202.3380  152.4120 C   0  0  0  0  0  3  0  0  0  0  0  0
  160.8060  201.7300  151.1640 C   0  0  0  0  0  3  0  0  0  0  0  0
  161.1940  206.9050  147.7220 C   0  0  0  0  0  0  0  0  0  0  0  0
  161.0500  206.1680  146.4690 C   0  0  0  0  0  0  0  0  0  0  0  0
  161.0200  208.7150  151.7530 C   0  0  1  0  0  3  0  0  0  0  0  0
  161.4110  206.5160  152.7300 N   0  0  0  0  0  2  0  0  0  0  0  0
  160.7830  204.4030  145.0670 C   0  0  0  0  0  0  0  0  0  0  0  0
  161.3490  208.4130  154.2980 C   0  0  2  0  0  3  0  0  0  0  0  0
  161.1060  203.7220  152.4970 C   0  0  0  0  0  3  0  0  0  0  0  0
  161.3000  205.9020  151.4350 C   0  0  0  0  0  0  0  0  0  0  0  0
  161.1330  204.5130  151.3380 C   0  0  0  0  0  0  0  0  0  0  0  0
  161.0170  204.6820  148.9020 C   0  0  0  0  0  0  0  0  0  0  0  0
  160.8590  205.4690  144.3330 N   0  0  0  0  0  0  0  0  0  0  0  0
  161.8720  210.6830  153.1810 C   0  0  0  0  0  2  0  0  0  0  0  0
  161.7020  207.9350  152.8770 C   0  0  2  0  0  3  0  0  0  0  0  0
  161.0280  206.5940  145.2130 C   0  0  0  0  0  3  0  0  0  0  0  0
  161.2230  210.2270  151.8620 C   0  0  0  0  0  2  0  0  0  0  0  0
  160.0820  209.2610  154.3730 C   0  0  1  0  0  3  0  0  0  0  0  0
  160.8310  202.5050  150.0040 C   0  0  0  0  0  3  0  0  0  0  0  0
  160.9930  203.9000  150.0720 C   0  0  0  0  0  0  0  0  0  0  0  0
  160.8730  204.0140  147.5710 C   0  0  0  0  0  3  0  0  0  0  0  0
  161.5240  208.1950  150.4140 C   0  0  0  0  0  2  0  0  0  0  0  0
  161.3210  208.1580  147.7060 O   0  0  0  0  0  0  0  0  0  0  0  0
  160.6050  203.0340  144.5110 C   0  0  0  0  0  1  0  0  0  0  0  0
  161.1770  206.1030  148.9930 C   0  0  0  0  0  0  0  0  0  0  0  0
  160.8950  204.7500  146.4670 C   0  0  0  0  0  0  0  0  0  0  0  0
  159.4880  209.1460  155.7630 C   0  0  0  0  0  2  0  0  0  0  0  0
  158.9550  210.4670  156.1950 C   0  0  0  0  0  0  0  0  0  0  0  0
  158.0110  211.1240  155.4150 O   0  0  0  0  0  0  0  0  0  0  0  0
  159.3820  211.0030  157.2500 O   0  0  0  0  0  1  0  0  0  0  0  0
  1 16  1  6  0  0  0
  2 24  1  0  0  0  0
  2 12  1  0  0  0  0
  3 11  2  0  0  0  0
  4  3  1  0  0  0  0
  5 27  1  0  0  0  0
  6  5  1  0  0  0  0
  7 24  1  6  0  0  0
  7 19  1  0  0  0  0
  7 17  1  0  0  0  0
  8 17  1  0  0  0  0
  9 28  1  0  0  0  0
 10 20  1  0  0  0  0
 10  1  1  0  0  0  0
 12  8  1  0  0  0  0
 13 12  2  0  0  0  0
 13 11  1  0  0  0  0
 14 27  1  0  0  0  0
 14 22  2  0  0  0  0
 15  9  2  0  0  0  0
 15 18  1  0  0  0  0
 17 10  1  0  0  0  0
 18  6  2  0  0  0  0
 19 16  1  0  0  0  0
 20  1  1  0  0  0  0
 20 29  1  0  0  0  0
 21 22  1  0  0  0  0
 21  4  2  0  0  0  0
 22 13  1  0  0  0  0
 23 14  1  0  0  0  0
 25  5  2  0  0  0  0
 26  9  1  0  0  0  0
 27  2  2  0  0  0  0
 28  6  1  0  0  0  0
 28 23  2  0  0  0  0
 29 30  1  0  0  0  0
 30 32  1  0  0  0  0
 31 30  2  0  0  0  0
M  END
>  <MODEL>
4

>  <REMARK>
 VINA RESULT:      -8.2      2.528      4.729
  Name = 
  2 active torsions:
  status: ('A' for Active; 'I' for Inactive)
    1  A    between atoms: C_20  and  C_29
    2  A    between atoms: C_29  and  C_30
                            x       y       z     vdW  Elec       q    Type
                         _______ _______ _______ _____ _____    ______ ____

>  <TORSDO>
F 2

$$$$
=
 OpenBabel11122412553D

 32 38  0  0  1  0  0  0  0  0999 V2000
  161.1870  201.5900  149.1630 C   0  0  1  0  0  3  0  0  0  0  0  0
  161.2600  206.1480  151.8520 C   0  0  0  0  0  0  0  0  0  0  0  0
  162.0920  209.3690  148.2880 C   0  0  0  0  0  3  0  0  0  0  0  0
  161.9450  210.4200  149.1930 C   0  0  0  0  0  3  0  0  0  0  0  0
  160.8090  206.9530  154.2390 C   0  0  0  0  0  0  0  0  0  0  0  0
  160.6820  208.1230  155.1030 C   0  0  0  0  0  0  0  0  0  0  0  0
  160.7200  203.7960  151.1440 C   0  0  1  0  0  3  0  0  0  0  0  0
  161.6860  205.3670  149.5490 N   0  0  0  0  0  2  0  0  0  0  0  0
  160.6400  210.3070  155.7200 C   0  0  0  0  0  0  0  0  0  0  0  0
  161.4000  203.0520  148.7630 C   0  0  2  0  0  3  0  0  0  0  0  0
  161.9630  208.0500  148.7250 C   0  0  0  0  0  3  0  0  0  0  0  0
  161.5590  206.4370  150.5010 C   0  0  0  0  0  0  0  0  0  0  0  0
  161.6850  207.7660  150.0710 C   0  0  0  0  0  0  0  0  0  0  0  0
  161.2520  208.5570  152.3430 C   0  0  0  0  0  0  0  0  0  0  0  0
  160.3990  209.6020  156.7820 N   0  0  0  0  0  0  0  0  0  0  0  0
  161.2900  201.3260  150.6830 C   0  0  0  0  0  2  0  0  0  0  0  0
  161.6800  203.9730  149.9660 C   0  0  2  0  0  3  0  0  0  0  0  0
  160.4240  208.2160  156.4010 C   0  0  0  0  0  2  0  0  0  0  0  0
  160.6050  202.3440  151.6110 C   0  0  0  0  0  2  0  0  0  0  0  0
  159.9980  202.4480  148.7540 C   0  0  1  0  0  3  0  0  0  0  0  0
  161.6680  210.1510  150.5340 C   0  0  0  0  0  3  0  0  0  0  0  0
  161.5330  208.8280  150.9910 C   0  0  0  0  0  0  0  0  0  0  0  0
  161.1010  209.6940  153.3030 C   0  0  0  0  0  2  0  0  0  0  0  0
  161.1660  204.7000  152.2830 C   0  0  0  0  0  2  0  0  0  0  0  0
  160.6610  205.7960  154.7180 O   0  0  0  0  0  0  0  0  0  0  0  0
  160.6970  211.7940  155.7170 C   0  0  0  0  0  1  0  0  0  0  0  0
  161.1130  207.2020  152.7880 C   0  0  0  0  0  0  0  0  0  0  0  0
  160.8370  209.4410  154.5790 C   0  0  0  0  0  0  0  0  0  0  0  0
  159.6080  202.1170  147.3270 C   0  0  0  0  0  2  0  0  0  0  0  0
  160.8270  201.8120  146.5290 C   0  0  0  0  0  0  0  0  0  0  0  0
  161.4870  202.8290  145.8520 O   0  0  0  0  0  0  0  0  0  0  0  0
  161.2410  200.6270  146.4420 O   0  0  0  0  0  1  0  0  0  0  0  0
  1 16  1  1  0  0  0
  2 24  1  0  0  0  0
  2 27  1  0  0  0  0
  3 11  2  0  0  0  0
  3  4  1  0  0  0  0
  4 21  2  0  0  0  0
  5 25  2  0  0  0  0
  5  6  1  0  0  0  0
  6 18  1  0  0  0  0
  7 19  1  1  0  0  0
  7 24  1  0  0  0  0
  8 17  1  0  0  0  0
  8 12  1  0  0  0  0
  9 15  2  0  0  0  0
 10  1  1  0  0  0  0
 10 17  1  0  0  0  0
 11 13  1  0  0  0  0
 12  2  2  0  0  0  0
 13 12  1  0  0  0  0
 13 22  2  0  0  0  0
 14 27  2  0  0  0  0
 14 23  1  0  0  0  0
 16 19  1  0  0  0  0
 17  7  1  0  0  0  0
 18 15  1  0  0  0  0
 20 10  1  0  0  0  0
 20  1  1  0  0  0  0
 21 22  1  0  0  0  0
 22 14  1  0  0  0  0
 23 28  1  0  0  0  0
 26  9  1  0  0  0  0
 27  5  1  0  0  0  0
 28  6  2  0  0  0  0
 28  9  1  0  0  0  0
 29 20  1  0  0  0  0
 30 29  1  0  0  0  0
 31 30  2  0  0  0  0
 32 30  1  0  0  0  0
M  END
>  <MODEL>
5

>  <REMARK>
 VINA RESULT:      -7.8      2.295      7.900
  Name = 
  2 active torsions:
  status: ('A' for Active; 'I' for Inactive)
    1  A    between atoms: C_20  and  C_29
    2  A    between atoms: C_29  and  C_30
                            x       y       z     vdW  Elec       q    Type
                         _______ _______ _______ _____ _____    ______ ____

>  <TORSDO>
F 2

$$$$
=
 OpenBabel11122412553D

 32 38  0  0  1  0  0  0  0  0999 V2000
  161.7750  204.9130  146.8370 C   0  0  1  0  0  3  0  0  0  0  0  0
  161.3470  208.2750  150.9020 C   0  0  0  0  0  0  0  0  0  0  0  0
  161.6610  212.5830  148.6400 C   0  0  0  0  0  3  0  0  0  0  0  0
  161.4080  213.2420  149.8430 C   0  0  0  0  0  3  0  0  0  0  0  0
  160.8660  208.1690  153.4130 C   0  0  0  0  0  0  0  0  0  0  0  0
  160.6160  208.9560  154.6180 C   0  0  0  0  0  0  0  0  0  0  0  0
  161.0890  206.2480  149.4360 C   0  0  1  0  0  3  0  0  0  0  0  0
  161.8020  208.3730  148.4770 N   0  0  0  0  0  2  0  0  0  0  0  0
  160.3150  210.7820  155.9320 C   0  0  0  0  0  0  0  0  0  0  0  0
  161.7900  206.4380  146.9560 C   0  0  2  0  0  3  0  0  0  0  0  0
  161.7130  211.1890  148.6060 C   0  0  0  0  0  3  0  0  0  0  0  0
  161.5680  209.0370  149.7310 C   0  0  0  0  0  0  0  0  0  0  0  0
  161.5120  210.4370  149.7740 C   0  0  0  0  0  0  0  0  0  0  0  0
  161.0480  210.3580  152.1730 C   0  0  0  0  0  0  0  0  0  0  0  0
  160.1960  209.7370  156.6910 N   0  0  0  0  0  0  0  0  0  0  0  0
  161.9540  204.1700  148.1820 C   0  0  0  0  0  2  0  0  0  0  0  0
  161.9850  206.9310  148.4020 C   0  0  2  0  0  3  0  0  0  0  0  0
  160.3850  208.5740  155.8670 C   0  0  0  0  0  2  0  0  0  0  0  0
  161.1730  204.7210  149.3870 C   0  0  0  0  0  2  0  0  0  0  0  0
  160.4760  205.6960  146.7220 C   0  0  1  0  0  3  0  0  0  0  0  0
  161.2060  212.5060  151.0110 C   0  0  0  0  0  3  0  0  0  0  0  0
  161.2530  211.1010  150.9960 C   0  0  0  0  0  0  0  0  0  0  0  0
  160.7810  211.0790  153.4570 C   0  0  0  0  0  2  0  0  0  0  0  0
  161.4490  206.7680  150.8200 C   0  0  0  0  0  2  0  0  0  0  0  0
  160.8800  206.9100  153.4730 O   0  0  0  0  0  0  0  0  0  0  0  0
  160.1830  212.1780  156.4290 C   0  0  0  0  0  1  0  0  0  0  0  0
  161.0940  208.9270  152.1350 C   0  0  0  0  0  0  0  0  0  0  0  0
  160.5880  210.3810  154.5690 C   0  0  0  0  0  0  0  0  0  0  0  0
  160.0910  205.8150  145.2610 C   0  0  0  0  0  2  0  0  0  0  0  0
  160.7800  204.7590  144.4700 C   0  0  0  0  0  0  0  0  0  0  0  0
  160.4920  203.4200  144.7000 O   0  0  0  0  0  1  0  0  0  0  0  0
  161.6470  205.0780  143.6160 O   0  0  0  0  0  0  0  0  0  0  0  0
  1 10  1  0  0  0  0
  1 16  1  1  0  0  0
  2 27  1  0  0  0  0
  3  4  1  0  0  0  0
  4 21  2  0  0  0  0
  5 25  2  0  0  0  0
  5  6  1  0  0  0  0
  6 18  1  0  0  0  0
  7 19  1  1  0  0  0
  7 24  1  0  0  0  0
  8 12  1  0  0  0  0
  9 26  1  0  0  0  0
  9 15  2  0  0  0  0
 10 17  1  0  0  0  0
 11  3  2  0  0  0  0
 11 13  1  0  0  0  0
 12 13  1  0  0  0  0
 12  2  2  0  0  0  0
 13 22  2  0  0  0  0
 14 23  1  0  0  0  0
 16 19  1  0  0  0  0
 17  8  1  0  0  0  0
 17  7  1  0  0  0  0
 18 15  1  0  0  0  0
 20  1  1  0  0  0  0
 20 10  1  0  0  0  0
 22 21  1  0  0  0  0
 22 14  1  0  0  0  0
 23 28  1  0  0  0  0
 24  2  1  0  0  0  0
 27 14  2  0  0  0  0
 27  5  1  0  0  0  0
 28  6  2  0  0  0  0
 28  9  1  0  0  0  0
 29 20  1  0  0  0  0
 30 31  1  0  0  0  0
 30 29  1  0  0  0  0
 32 30  2  0  0  0  0
M  END
>  <MODEL>
6

>  <REMARK>
 VINA RESULT:      -7.4      2.834      8.150
  Name = 
  2 active torsions:
  status: ('A' for Active; 'I' for Inactive)
    1  A    between atoms: C_20  and  C_29
    2  A    between atoms: C_29  and  C_30
                            x       y       z     vdW  Elec       q    Type
                         _______ _______ _______ _____ _____    ______ ____

>  <TORSDO>
F 2

$$$$
