=
 OpenBabel11122413583D

 37 42  0  0  1  0  0  0  0  0999 V2000
  160.6350  206.1440  150.2970 C   0  0  1  0  0  3  0  0  0  0  0  0
  160.4100  209.0370  152.3380 C   0  0  0  0  0  2  0  0  0  0  0  0
  161.0340  205.2660  147.8400 C   0  0  2  0  0  3  0  0  0  0  0  0
  161.4320  207.3610  150.7320 C   0  0  2  0  0  3  0  0  0  0  0  0
  160.4540  206.3570  148.7870 C   0  0  2  0  0  3  0  0  0  0  0  0
  161.2800  207.7840  152.2110 C   0  0  2  0  0  3  0  0  0  0  0  0
  161.7730  204.1600  148.5950 C   0  0  0  0  0  2  0  0  0  0  0  0
  160.9750  207.7620  148.5120 C   0  0  0  0  0  2  0  0  0  0  0  0
  161.1260  204.4420  152.0820 C   0  0  0  0  0  2  0  0  0  0  0  0
  161.0860  203.8390  149.7690 O   0  0  0  0  0  0  0  0  0  0  0  0
  162.5530  210.2220  152.0700 O   0  0  0  0  0  0  0  0  0  0  0  0
  161.1500  210.3700  152.1000 C   0  0  1  0  0  3  0  0  0  0  0  0
  161.4180  204.8740  150.6510 C   0  0  1  0  0  3  0  0  0  0  0  0
  161.1050  208.4410  149.8020 N   0  0  2  0  0  0  0  0  0  0  0  0
  160.8360  206.6730  153.1880 C   0  0  1  0  0  3  0  0  0  0  0  0
  161.9470  210.5510  150.8350 C   0  0  2  0  0  3  0  0  0  0  0  0
  162.2230  209.4010  149.8490 C   0  0  2  0  0  3  0  0  0  0  0  0
  161.7110  205.4270  153.0840 C   0  0  0  0  0  2  0  0  0  0  0  0
  159.8730  206.6710  155.4990 C   0  0  0  0  0  3  0  0  0  0  0  0
  160.8370  207.1580  154.6090 C   0  0  0  0  0  0  0  0  0  0  0  0
  161.7810  208.0970  155.0540 C   0  0  0  0  0  3  0  0  0  0  0  0
  162.6910  209.4730  156.8120 O   0  0  0  0  0  1  0  0  0  0  0  0
  160.7830  208.0600  157.2610 C   0  0  0  0  0  3  0  0  0  0  0  0
  161.7530  208.5450  156.3760 C   0  0  0  0  0  0  0  0  0  0  0  0
  159.8460  207.1200  156.8230 C   0  0  0  0  0  3  0  0  0  0  0  0
  162.5570  210.0340  148.4800 C   0  0  0  0  0  2  0  0  0  0  0  0
  162.1920  211.4550  148.3840 N   0  0  0  0  0  0  0  0  0  0  0  0
  162.9710  213.7100  147.8950 C   0  0  0  0  0  1  0  0  0  0  0  0
  163.3320  212.2350  147.9140 C   0  0  0  0  0  2  0  0  0  0  0  0
  161.1050  211.6210  147.4280 C   0  0  0  0  0  2  0  0  0  0  0  0
  160.0980  212.5160  147.9860 N   0  0  0  0  0  2  0  0  0  0  0  0
  159.1250  212.6370  147.0520 O   0  0  0  0  0  1  0  0  0  0  0  0
  161.9000  205.8120  146.8700 O   0  0  0  0  0  0  0  0  0  0  0  0
  161.3470  205.5790  145.5930 C   0  0  0  0  0  0  0  0  0  0  0  0
  162.2680  205.8650  144.5930 F   0  0  0  0  0  0  0  0  0  0  0  0
  160.9180  204.2650  145.4690 F   0  0  0  0  0  0  0  0  0  0  0  0
  160.2550  206.4110  145.4340 F   0  0  0  0  0  0  0  0  0  0  0  0
  1 13  1  0  0  0  0
  1  4  1  0  0  0  0
  3  7  1  0  0  0  0
  3  5  1  0  0  0  0
  4  6  1  0  0  0  0
  5  1  1  0  0  0  0
  6  2  1  0  0  0  0
  6 15  1  0  0  0  0
  7 10  1  0  0  0  0
  8  5  1  0  0  0  0
  8 14  1  0  0  0  0
  9 18  1  0  0  0  0
 10 13  1  0  0  0  0
 11 12  1  0  0  0  0
 12  2  1  0  0  0  0
 13  9  1  0  0  0  0
 14 17  1  0  0  0  0
 14  4  1  0  0  0  0
 15 20  1  0  0  0  0
 16 11  1  0  0  0  0
 16 12  1  0  0  0  0
 17 16  1  0  0  0  0
 18 15  1  0  0  0  0
 19 25  1  0  0  0  0
 20 21  1  0  0  0  0
 20 19  2  0  0  0  0
 21 24  2  0  0  0  0
 24 22  1  0  0  0  0
 24 23  1  0  0  0  0
 25 23  2  0  0  0  0
 26 17  1  0  0  0  0
 27 26  1  0  0  0  0
 28 29  1  0  0  0  0
 29 27  1  0  0  0  0
 30 31  1  0  0  0  0
 30 27  1  0  0  0  0
 32 31  1  0  0  0  0
 33  3  1  0  0  0  0
 34 33  1  0  0  0  0
 35 34  1  0  0  0  0
 36 34  1  0  0  0  0
 37 34  1  0  0  0  0
M  END
>  <MODEL>
1

>  <REMARK>
 VINA RESULT:      -8.3      0.000      0.000
  Name = 
  8 active torsions:
  status: ('A' for Active; 'I' for Inactive)
    1  A    between atoms: C_1  and  N_4
    2  A    between atoms: C_1  and  C_27
    3  A    between atoms: C_2  and  O_22
    4  A    between atoms: N_4  and  C_12
    5  A    between atoms: N_4  and  C_37
    6  A    between atoms: C_6  and  O_22
    7  A    between atoms: N_8  and  C_12
    8  A    between atoms: C_23  and  C_30
                            x       y       z     vdW  Elec       q    Type
                         _______ _______ _______ _____ _____    ______ ____

>  <TORSDO>
F 8

$$$$
=
 OpenBabel11122413583D

 37 42  0  0  1  0  0  0  0  0999 V2000
  160.4450  205.0980  151.3890 C   0  0  1  0  0  3  0  0  0  0  0  0
  160.5740  208.6290  151.0760 C   0  0  0  0  0  2  0  0  0  0  0  0
  160.5670  202.8120  150.0750 C   0  0  2  0  0  3  0  0  0  0  0  0
  161.3470  206.2200  150.9060 C   0  0  2  0  0  3  0  0  0  0  0  0
  160.1390  204.3090  150.1070 C   0  0  2  0  0  3  0  0  0  0  0  0
  161.3550  207.5060  151.7620 C   0  0  2  0  0  3  0  0  0  0  0  0
  161.3060  202.3810  151.3420 C   0  0  0  0  0  2  0  0  0  0  0  0
  160.7140  205.1460  148.9700 C   0  0  0  0  0  2  0  0  0  0  0  0
  160.9970  204.9000  153.8340 C   0  0  0  0  0  2  0  0  0  0  0  0
  160.7120  202.9610  152.4650 O   0  0  0  0  0  0  0  0  0  0  0  0
  162.7480  209.1380  150.0350 O   0  0  0  0  0  0  0  0  0  0  0  0
  161.3640  209.4130  150.0070 C   0  0  1  0  0  3  0  0  0  0  0  0
  161.1820  204.2800  152.4560 C   0  0  1  0  0  3  0  0  0  0  0  0
  160.9990  206.4760  149.5090 N   0  0  2  0  0  0  0  0  0  0  0  0
  160.9380  207.3360  153.2400 C   0  0  1  0  0  3  0  0  0  0  0  0
  162.0520  208.6560  148.9010 C   0  0  2  0  0  3  0  0  0  0  0  0
  162.1700  207.1210  148.8870 C   0  0  2  0  0  3  0  0  0  0  0  0
  161.7260  206.2320  153.9400 C   0  0  0  0  0  2  0  0  0  0  0  0
  162.0170  209.5710  153.5630 C   0  0  0  0  0  3  0  0  0  0  0  0
  161.0960  208.6160  154.0070 C   0  0  0  0  0  0  0  0  0  0  0  0
  160.3430  208.8640  155.1660 C   0  0  0  0  0  3  0  0  0  0  0  0
  159.7690  210.2970  157.0190 O   0  0  0  0  0  1  0  0  0  0  0  0
  161.4460  211.0050  155.4290 C   0  0  0  0  0  3  0  0  0  0  0  0
  160.5180  210.0560  155.8730 C   0  0  0  0  0  0  0  0  0  0  0  0
  162.1920  210.7640  154.2720 C   0  0  0  0  0  3  0  0  0  0  0  0
  162.4140  206.6890  147.4240 C   0  0  0  0  0  2  0  0  0  0  0  0
  161.3780  205.7900  146.8950 N   0  0  0  0  0  0  0  0  0  0  0  0
  160.7180  205.6940  144.5520 C   0  0  0  0  0  1  0  0  0  0  0  0
  160.6100  206.4680  145.8550 C   0  0  0  0  0  2  0  0  0  0  0  0
  162.0020  204.6140  146.3020 C   0  0  0  0  0  2  0  0  0  0  0  0
  163.4510  204.7170  146.4250 N   0  0  0  0  0  2  0  0  0  0  0  0
  163.9780  204.1030  145.3400 O   0  0  0  0  0  1  0  0  0  0  0  0
  161.3710  202.5150  148.9550 O   0  0  0  0  0  0  0  0  0  0  0  0
  160.7690  201.4600  148.2370 C   0  0  0  0  0  0  0  0  0  0  0  0
  160.6560  201.7770  146.8900 F   0  0  0  0  0  0  0  0  0  0  0  0
  161.4910  200.2850  148.3810 F   0  0  0  0  0  0  0  0  0  0  0  0
  159.4990  201.2570  148.7470 F   0  0  0  0  0  0  0  0  0  0  0  0
  1 13  1  0  0  0  0
  2  6  1  0  0  0  0
  3  5  1  0  0  0  0
  3  7  1  0  0  0  0
  4  1  1  0  0  0  0
  4  6  1  0  0  0  0
  5  1  1  0  0  0  0
  6 15  1  0  0  0  0
  7 10  1  0  0  0  0
  8 14  1  0  0  0  0
  8  5  1  0  0  0  0
  9 18  1  0  0  0  0
 12 11  1  0  0  0  0
 12  2  1  0  0  0  0
 13 10  1  0  0  0  0
 13  9  1  0  0  0  0
 14  4  1  0  0  0  0
 15 18  1  0  0  0  0
 15 20  1  0  0  0  0
 16 12  1  0  0  0  0
 16 11  1  0  0  0  0
 17 16  1  0  0  0  0
 17 14  1  0  0  0  0
 19 20  2  0  0  0  0
 19 25  1  0  0  0  0
 20 21  1  0  0  0  0
 21 24  2  0  0  0  0
 23 24  1  0  0  0  0
 24 22  1  0  0  0  0
 25 23  2  0  0  0  0
 26 17  1  0  0  0  0
 27 26  1  0  0  0  0
 28 29  1  0  0  0  0
 29 27  1  0  0  0  0
 30 31  1  0  0  0  0
 30 27  1  0  0  0  0
 32 31  1  0  0  0  0
 33  3  1  0  0  0  0
 34 36  1  0  0  0  0
 34 37  1  0  0  0  0
 34 33  1  0  0  0  0
 35 34  1  0  0  0  0
M  END
>  <MODEL>
2

>  <REMARK>
 VINA RESULT:      -5.9      2.799      4.300
  Name = 
  8 active torsions:
  status: ('A' for Active; 'I' for Inactive)
    1  A    between atoms: C_1  and  N_4
    2  A    between atoms: C_1  and  C_27
    3  A    between atoms: C_2  and  O_22
    4  A    between atoms: N_4  and  C_12
    5  A    between atoms: N_4  and  C_37
    6  A    between atoms: C_6  and  O_22
    7  A    between atoms: N_8  and  C_12
    8  A    between atoms: C_23  and  C_30
                            x       y       z     vdW  Elec       q    Type
                         _______ _______ _______ _____ _____    ______ ____

>  <TORSDO>
F 8

$$$$
=
 OpenBabel11122413583D

 37 42  0  0  1  0  0  0  0  0999 V2000
  160.5730  204.8170  151.0750 C   0  0  1  0  0  3  0  0  0  0  0  0
  160.6400  208.2270  150.0980 C   0  0  0  0  0  2  0  0  0  0  0  0
  160.8150  202.3290  150.2300 C   0  0  2  0  0  3  0  0  0  0  0  0
  161.4740  205.8550  150.4290 C   0  0  2  0  0  3  0  0  0  0  0  0
  160.3530  203.7900  149.9550 C   0  0  2  0  0  3  0  0  0  0  0  0
  161.4080  207.2800  151.0240 C   0  0  2  0  0  3  0  0  0  0  0  0
  161.4960  202.1690  151.5900 C   0  0  0  0  0  2  0  0  0  0  0  0
  160.9690  204.4130  148.7080 C   0  0  0  0  0  2  0  0  0  0  0  0
  160.9990  205.1050  153.5360 C   0  0  0  0  0  2  0  0  0  0  0  0
  160.8300  202.9330  152.5520 O   0  0  0  0  0  0  0  0  0  0  0  0
  162.8540  208.5970  149.0850 O   0  0  0  0  0  0  0  0  0  0  0  0
  161.4690  208.8180  148.9380 C   0  0  1  0  0  3  0  0  0  0  0  0
  161.2710  204.2410  152.3130 C   0  0  1  0  0  3  0  0  0  0  0  0
  161.1960  205.8300  148.9940 N   0  0  2  0  0  0  0  0  0  0  0  0
  160.9180  207.3800  152.4850 C   0  0  1  0  0  3  0  0  0  0  0  0
  162.2300  207.8870  148.0320 C   0  0  2  0  0  3  0  0  0  0  0  0
  162.3830  206.3820  148.3180 C   0  0  2  0  0  3  0  0  0  0  0  0
  161.6920  206.4550  153.4200 C   0  0  0  0  0  2  0  0  0  0  0  0
  161.6420  209.0300  154.2220 C   0  0  0  0  0  3  0  0  0  0  0  0
  161.0060  208.7870  153.0000 C   0  0  0  0  0  0  0  0  0  0  0  0
  160.4540  209.8590  152.2800 C   0  0  0  0  0  3  0  0  0  0  0  0
  159.9880  212.2150  152.0700 O   0  0  0  0  0  1  0  0  0  0  0  0
  161.1660  211.3950  154.0130 C   0  0  0  0  0  3  0  0  0  0  0  0
  160.5350  211.1580  152.7870 C   0  0  0  0  0  0  0  0  0  0  0  0
  161.7230  210.3310  154.7290 C   0  0  0  0  0  3  0  0  0  0  0  0
  162.7140  205.6870  146.9770 C   0  0  0  0  0  2  0  0  0  0  0  0
  161.5420  205.0950  146.3160 N   0  0  0  0  0  0  0  0  0  0  0  0
  161.1790  205.8810  144.0400 C   0  0  0  0  0  1  0  0  0  0  0  0
  160.8600  206.1000  145.5080 C   0  0  0  0  0  2  0  0  0  0  0  0
  161.9680  204.0180  145.4320 C   0  0  0  0  0  2  0  0  0  0  0  0
  161.2840  202.7840  145.8020 N   0  0  0  0  0  2  0  0  0  0  0  0
  160.3180  202.5830  144.8760 O   0  0  0  0  0  1  0  0  0  0  0  0
  161.6840  201.8500  149.2270 O   0  0  0  0  0  0  0  0  0  0  0  0
  161.0760  200.7440  148.5960 C   0  0  0  0  0  0  0  0  0  0  0  0
  159.9260  201.1290  147.9190 F   0  0  0  0  0  0  0  0  0  0  0  0
  161.9520  200.1290  147.7150 F   0  0  0  0  0  0  0  0  0  0  0  0
  160.7230  199.8280  149.5710 F   0  0  0  0  0  0  0  0  0  0  0  0
  1 13  1  0  0  0  0
  2  6  1  0  0  0  0
  3  7  1  0  0  0  0
  4  6  1  0  0  0  0
  4  1  1  0  0  0  0
  5  3  1  0  0  0  0
  5  1  1  0  0  0  0
  6 15  1  0  0  0  0
  7 10  1  0  0  0  0
  8 14  1  0  0  0  0
  8  5  1  0  0  0  0
 12 11  1  0  0  0  0
 12  2  1  0  0  0  0
 13 10  1  0  0  0  0
 13  9  1  0  0  0  0
 14  4  1  0  0  0  0
 15 20  1  0  0  0  0
 15 18  1  0  0  0  0
 16 17  1  0  0  0  0
 16 12  1  0  0  0  0
 16 11  1  0  0  0  0
 17 14  1  0  0  0  0
 18  9  1  0  0  0  0
 19 25  1  0  0  0  0
 20 19  2  0  0  0  0
 21 24  2  0  0  0  0
 21 20  1  0  0  0  0
 22 24  1  0  0  0  0
 23 25  2  0  0  0  0
 24 23  1  0  0  0  0
 26 17  1  0  0  0  0
 27 26  1  0  0  0  0
 28 29  1  0  0  0  0
 29 27  1  0  0  0  0
 30 31  1  0  0  0  0
 30 27  1  0  0  0  0
 32 31  1  0  0  0  0
 33  3  1  0  0  0  0
 34 33  1  0  0  0  0
 34 37  1  0  0  0  0
 35 34  1  0  0  0  0
 36 34  1  0  0  0  0
M  END
>  <MODEL>
3

>  <REMARK>
 VINA RESULT:      -5.8      3.236      4.939
  Name = 
  8 active torsions:
  status: ('A' for Active; 'I' for Inactive)
    1  A    between atoms: C_1  and  N_4
    2  A    between atoms: C_1  and  C_27
    3  A    between atoms: C_2  and  O_22
    4  A    between atoms: N_4  and  C_12
    5  A    between atoms: N_4  and  C_37
    6  A    between atoms: C_6  and  O_22
    7  A    between atoms: N_8  and  C_12
    8  A    between atoms: C_23  and  C_30
                            x       y       z     vdW  Elec       q    Type
                         _______ _______ _______ _____ _____    ______ ____

>  <TORSDO>
F 8

$$$$
=
 OpenBabel11122413583D

 37 42  0  0  1  0  0  0  0  0999 V2000
  161.2020  212.2460  150.4340 C   0  0  1  0  0  3  0  0  0  0  0  0
  162.2650  209.5960  152.5410 C   0  0  0  0  0  2  0  0  0  0  0  0
  161.0410  213.0800  147.9360 C   0  0  2  0  0  3  0  0  0  0  0  0
  160.9950  210.7610  150.6800 C   0  0  2  0  0  3  0  0  0  0  0  0
  161.8200  212.2920  149.0300 C   0  0  2  0  0  3  0  0  0  0  0  0
  160.9670  210.3120  152.1590 C   0  0  2  0  0  3  0  0  0  0  0  0
  159.7120  213.6390  148.4440 C   0  0  0  0  0  2  0  0  0  0  0  0
  162.1060  210.8400  148.6660 C   0  0  0  0  0  2  0  0  0  0  0  0
  159.5530  213.3420  151.9850 C   0  0  0  0  0  2  0  0  0  0  0  0
  159.8600  214.1220  149.7460 O   0  0  0  0  0  0  0  0  0  0  0  0
  161.0710  207.5890  151.7580 O   0  0  0  0  0  0  0  0  0  0  0  0
  162.3240  208.1030  152.1540 C   0  0  1  0  0  3  0  0  0  0  0  0
  159.8530  212.9690  150.5400 C   0  0  1  0  0  3  0  0  0  0  0  0
  162.0050  210.0540  149.8960 N   0  0  2  0  0  0  0  0  0  0  0  0
  160.5850  211.3980  153.1880 C   0  0  1  0  0  3  0  0  0  0  0  0
  162.0380  207.7020  150.7310 C   0  0  2  0  0  3  0  0  0  0  0  0
  161.4980  208.6870  149.6770 C   0  0  2  0  0  3  0  0  0  0  0  0
  159.2800  212.1040  152.8270 C   0  0  0  0  0  2  0  0  0  0  0  0
  160.7870  211.6350  155.6720 C   0  0  0  0  0  3  0  0  0  0  0  0
  160.4710  210.8290  154.5720 C   0  0  0  0  0  0  0  0  0  0  0  0
  160.0620  209.5020  154.7790 C   0  0  0  0  0  3  0  0  0  0  0  0
  159.5720  207.6760  156.2740 O   0  0  0  0  0  1  0  0  0  0  0  0
  160.3020  209.7980  157.1710 C   0  0  0  0  0  3  0  0  0  0  0  0
  159.9790  208.9890  156.0750 C   0  0  0  0  0  0  0  0  0  0  0  0
  160.7020  211.1210  156.9700 C   0  0  0  0  0  3  0  0  0  0  0  0
  161.8430  208.1100  148.2860 C   0  0  0  0  0  2  0  0  0  0  0  0
  161.8760  206.6410  148.2490 N   0  0  0  0  0  0  0  0  0  0  0  0
  160.6980  204.7840  149.2960 C   0  0  0  0  0  1  0  0  0  0  0  0
  160.5550  206.1010  148.5540 C   0  0  0  0  0  2  0  0  0  0  0  0
  162.2520  206.1900  146.9150 C   0  0  0  0  0  2  0  0  0  0  0  0
  161.0860  206.2270  146.0410 N   0  0  0  0  0  2  0  0  0  0  0  0
  161.3720  205.4410  144.9770 O   0  0  0  0  0  1  0  0  0  0  0  0
  160.7970  212.2960  146.7900 O   0  0  0  0  0  0  0  0  0  0  0  0
  161.3240  212.9670  145.6660 C   0  0  0  0  0  0  0  0  0  0  0  0
  160.9550  212.3310  144.4880 F   0  0  0  0  0  0  0  0  0  0  0  0
  160.9040  214.2890  145.6330 F   0  0  0  0  0  0  0  0  0  0  0  0
  162.7040  212.9510  145.7580 F   0  0  0  0  0  0  0  0  0  0  0  0
  1 13  1  0  0  0  0
  1  4  1  0  0  0  0
  3  7  1  0  0  0  0
  3  5  1  0  0  0  0
  4  6  1  0  0  0  0
  5  1  1  0  0  0  0
  6  2  1  0  0  0  0
  6 15  1  0  0  0  0
  7 10  1  0  0  0  0
  8  5  1  0  0  0  0
  8 14  1  0  0  0  0
  9 18  1  0  0  0  0
 10 13  1  0  0  0  0
 11 12  1  0  0  0  0
 12  2  1  0  0  0  0
 13  9  1  0  0  0  0
 14  4  1  0  0  0  0
 15 20  1  0  0  0  0
 16 11  1  0  0  0  0
 16 12  1  0  0  0  0
 17 14  1  0  0  0  0
 17 16  1  0  0  0  0
 18 15  1  0  0  0  0
 19 25  1  0  0  0  0
 20 21  1  0  0  0  0
 20 19  2  0  0  0  0
 21 24  2  0  0  0  0
 24 22  1  0  0  0  0
 24 23  1  0  0  0  0
 25 23  2  0  0  0  0
 26 17  1  0  0  0  0
 27 26  1  0  0  0  0
 27 29  1  0  0  0  0
 29 28  1  0  0  0  0
 30 27  1  0  0  0  0
 31 30  1  0  0  0  0
 32 31  1  0  0  0  0
 33  3  1  0  0  0  0
 34 37  1  0  0  0  0
 34 33  1  0  0  0  0
 35 34  1  0  0  0  0
 36 34  1  0  0  0  0
M  END
>  <MODEL>
4

>  <REMARK>
 VINA RESULT:      -5.8      2.934      5.903
  Name = 
  8 active torsions:
  status: ('A' for Active; 'I' for Inactive)
    1  A    between atoms: C_1  and  N_4
    2  A    between atoms: C_1  and  C_27
    3  A    between atoms: C_2  and  O_22
    4  A    between atoms: N_4  and  C_12
    5  A    between atoms: N_4  and  C_37
    6  A    between atoms: C_6  and  O_22
    7  A    between atoms: N_8  and  C_12
    8  A    between atoms: C_23  and  C_30
                            x       y       z     vdW  Elec       q    Type
                         _______ _______ _______ _____ _____    ______ ____

>  <TORSDO>
F 8

$$$$
=
 OpenBabel11122413583D

 37 42  0  0  1  0  0  0  0  0999 V2000
  161.8080  206.9450  152.4590 C   0  0  1  0  0  3  0  0  0  0  0  0
  162.6560  206.5980  149.0310 C   0  0  0  0  0  2  0  0  0  0  0  0
  161.5440  208.6560  154.4500 C   0  0  2  0  0  3  0  0  0  0  0  0
  161.4070  207.4290  151.0760 C   0  0  2  0  0  3  0  0  0  0  0  0
  162.2950  208.2230  153.1560 C   0  0  2  0  0  3  0  0  0  0  0  0
  161.4490  206.3760  149.9460 C   0  0  2  0  0  3  0  0  0  0  0  0
  160.3650  207.7430  154.7840 C   0  0  0  0  0  2  0  0  0  0  0  0
  162.3280  209.2910  152.0690 C   0  0  0  0  0  2  0  0  0  0  0  0
  160.4900  204.8240  152.7530 C   0  0  0  0  0  2  0  0  0  0  0  0
  160.7020  206.4110  154.5290 O   0  0  0  0  0  0  0  0  0  0  0  0
  161.1110  208.0680  147.7990 O   0  0  0  0  0  0  0  0  0  0  0  0
  162.4570  207.6700  147.9380 C   0  0  1  0  0  3  0  0  0  0  0  0
  160.5970  206.2930  153.1380 C   0  0  1  0  0  3  0  0  0  0  0  0
  162.2250  208.6040  150.7810 N   0  0  2  0  0  0  0  0  0  0  0  0
  161.3290  204.9020  150.3910 C   0  0  1  0  0  3  0  0  0  0  0  0
  161.9850  209.0430  148.3350 C   0  0  2  0  0  3  0  0  0  0  0  0
  161.5030  209.3830  149.7580 C   0  0  2  0  0  3  0  0  0  0  0  0
  160.1150  204.6660  151.2870 C   0  0  0  0  0  2  0  0  0  0  0  0
  160.9190  202.6330  149.4170 C   0  0  0  0  0  3  0  0  0  0  0  0
  161.2590  203.9750  149.2130 C   0  0  0  0  0  0  0  0  0  0  0  0
  161.5380  204.4300  147.9150 C   0  0  0  0  0  3  0  0  0  0  0  0
  161.7580  204.0020  145.5520 O   0  0  0  0  0  1  0  0  0  0  0  0
  161.1480  202.2020  147.0460 C   0  0  0  0  0  3  0  0  0  0  0  0
  161.4820  203.5450  146.8350 C   0  0  0  0  0  0  0  0  0  0  0  0
  160.8620  201.7470  148.3360 C   0  0  0  0  0  3  0  0  0  0  0  0
  161.6300  210.9130  149.9370 C   0  0  0  0  0  2  0  0  0  0  0  0
  161.5490  211.6610  148.6740 N   0  0  0  0  0  0  0  0  0  0  0  0
  160.3530  213.0550  150.2750 C   0  0  0  0  0  1  0  0  0  0  0  0
  160.6030  212.7650  148.8050 C   0  0  0  0  0  2  0  0  0  0  0  0
  162.8540  212.2210  148.3500 C   0  0  0  0  0  2  0  0  0  0  0  0
  162.6830  213.4140  147.5290 N   0  0  0  0  0  2  0  0  0  0  0  0
  162.7970  213.0190  146.2400 O   0  0  0  0  0  1  0  0  0  0  0  0
  161.0830  209.9870  154.3750 O   0  0  0  0  0  0  0  0  0  0  0  0
  161.6790  210.7290  155.4160 C   0  0  0  0  0  0  0  0  0  0  0  0
  161.0640  211.9650  155.5620 F   0  0  0  0  0  0  0  0  0  0  0  0
  161.6230  210.0360  156.6170 F   0  0  0  0  0  0  0  0  0  0  0  0
  163.0080  210.9360  155.0960 F   0  0  0  0  0  0  0  0  0  0  0  0
  1 13  1  0  0  0  0
  1  5  1  0  0  0  0
  2  6  1  0  0  0  0
  3  7  1  0  0  0  0
  4  1  1  0  0  0  0
  5  3  1  0  0  0  0
  6 15  1  0  0  0  0
  6  4  1  0  0  0  0
  8  5  1  0  0  0  0
  9 13  1  0  0  0  0
 10  7  1  0  0  0  0
 11 12  1  0  0  0  0
 11 16  1  0  0  0  0
 12 16  1  0  0  0  0
 12  2  1  0  0  0  0
 13 10  1  0  0  0  0
 14  4  1  0  0  0  0
 14  8  1  0  0  0  0
 15 18  1  0  0  0  0
 16 17  1  0  0  0  0
 17 26  1  0  0  0  0
 17 14  1  0  0  0  0
 18  9  1  0  0  0  0
 20 19  1  0  0  0  0
 20 15  1  0  0  0  0
 21 20  2  0  0  0  0
 22 24  1  0  0  0  0
 23 25  1  0  0  0  0
 24 23  2  0  0  0  0
 24 21  1  0  0  0  0
 25 19  2  0  0  0  0
 27 29  1  0  0  0  0
 27 26  1  0  0  0  0
 29 28  1  0  0  0  0
 30 27  1  0  0  0  0
 31 30  1  0  0  0  0
 32 31  1  0  0  0  0
 33  3  1  0  0  0  0
 33 34  1  0  0  0  0
 34 35  1  0  0  0  0
 34 36  1  0  0  0  0
 37 34  1  0  0  0  0
M  END
>  <MODEL>
5

>  <REMARK>
 VINA RESULT:      -5.7      3.736      6.713
  Name = 
  8 active torsions:
  status: ('A' for Active; 'I' for Inactive)
    1  A    between atoms: C_1  and  N_4
    2  A    between atoms: C_1  and  C_27
    3  A    between atoms: C_2  and  O_22
    4  A    between atoms: N_4  and  C_12
    5  A    between atoms: N_4  and  C_37
    6  A    between atoms: C_6  and  O_22
    7  A    between atoms: N_8  and  C_12
    8  A    between atoms: C_23  and  C_30
                            x       y       z     vdW  Elec       q    Type
                         _______ _______ _______ _____ _____    ______ ____

>  <TORSDO>
F 8

$$$$
=
 OpenBabel11122413583D

 37 42  0  0  1  0  0  0  0  0999 V2000
  161.8930  207.1360  151.9330 C   0  0  1  0  0  3  0  0  0  0  0  0
  162.7000  208.4780  148.7500 C   0  0  0  0  0  2  0  0  0  0  0  0
  161.4960  207.7130  154.4770 C   0  0  2  0  0  3  0  0  0  0  0  0
  161.4160  208.1540  150.9120 C   0  0  2  0  0  3  0  0  0  0  0  0
  162.2600  207.9970  153.1500 C   0  0  2  0  0  3  0  0  0  0  0  0
  161.5410  207.7430  149.4280 C   0  0  2  0  0  3  0  0  0  0  0  0
  160.4230  206.6350  154.3240 C   0  0  0  0  0  2  0  0  0  0  0  0
  162.1610  209.4400  152.6700 C   0  0  0  0  0  2  0  0  0  0  0  0
  160.8060  204.9940  151.1910 C   0  0  0  0  0  2  0  0  0  0  0  0
  160.8900  205.6080  153.4990 O   0  0  0  0  0  0  0  0  0  0  0  0
  160.9870  210.1850  148.2800 O   0  0  0  0  0  0  0  0  0  0  0  0
  162.3700  209.9040  148.2610 C   0  0  1  0  0  3  0  0  0  0  0  0
  160.7690  206.1280  152.2050 C   0  0  1  0  0  3  0  0  0  0  0  0
  162.1020  209.4100  151.2090 N   0  0  2  0  0  0  0  0  0  0  0  0
  161.5820  206.2250  149.1490 C   0  0  1  0  0  3  0  0  0  0  0  0
  161.7670  210.8900  149.2260 C   0  0  2  0  0  3  0  0  0  0  0  0
  161.2830  210.4930  150.6330 C   0  0  2  0  0  3  0  0  0  0  0  0
  160.4180  205.4850  149.8030 C   0  0  0  0  0  2  0  0  0  0  0  0
  160.5520  206.4410  146.8780 C   0  0  0  0  0  3  0  0  0  0  0  0
  161.5840  205.9350  147.6760 C   0  0  0  0  0  0  0  0  0  0  0  0
  162.5960  205.1580  147.0910 C   0  0  0  0  0  3  0  0  0  0  0  0
  163.5740  204.1210  145.1460 O   0  0  0  0  0  1  0  0  0  0  0  0
  161.5300  205.3920  144.9280 C   0  0  0  0  0  3  0  0  0  0  0  0
  162.5680  204.8890  145.7200 C   0  0  0  0  0  0  0  0  0  0  0  0
  160.5240  206.1720  145.5060 C   0  0  0  0  0  3  0  0  0  0  0  0
  161.2550  211.7760  151.4930 C   0  0  0  0  0  2  0  0  0  0  0  0
  159.9000  212.2040  151.8690 N   0  0  0  0  0  0  0  0  0  0  0  0
  158.6800  211.3350  153.7900 C   0  0  0  0  0  1  0  0  0  0  0  0
  159.7800  212.2710  153.3220 C   0  0  0  0  0  2  0  0  0  0  0  0
  159.6360  213.5320  151.3320 C   0  0  0  0  0  2  0  0  0  0  0  0
  158.7030  213.4300  150.2160 N   0  0  0  0  0  2  0  0  0  0  0  0
  159.4230  213.6290  149.0880 O   0  0  0  0  0  1  0  0  0  0  0  0
  160.8980  208.8780  155.0030 O   0  0  0  0  0  0  0  0  0  0  0  0
  161.5550  209.2150  156.2060 C   0  0  0  0  0  0  0  0  0  0  0  0
  160.6640  209.7490  157.1270 F   0  0  0  0  0  0  0  0  0  0  0  0
  162.1870  208.1090  156.7550 F   0  0  0  0  0  0  0  0  0  0  0  0
  162.5160  210.1700  155.9230 F   0  0  0  0  0  0  0  0  0  0  0  0
  1 13  1  0  0  0  0
  1  5  1  0  0  0  0
  2  6  1  0  0  0  0
  3 33  1  0  0  0  0
  4 14  1  0  0  0  0
  4  1  1  0  0  0  0
  5  3  1  0  0  0  0
  6  4  1  0  0  0  0
  7  3  1  0  0  0  0
  8  5  1  0  0  0  0
  9 13  1  0  0  0  0
 10  7  1  0  0  0  0
 11 16  1  0  0  0  0
 12 11  1  0  0  0  0
 12  2  1  0  0  0  0
 12 16  1  0  0  0  0
 13 10  1  0  0  0  0
 14  8  1  0  0  0  0
 15  6  1  0  0  0  0
 15 18  1  0  0  0  0
 16 17  1  0  0  0  0
 17 14  1  0  0  0  0
 17 26  1  0  0  0  0
 18  9  1  0  0  0  0
 19 20  1  0  0  0  0
 20 15  1  0  0  0  0
 21 20  2  0  0  0  0
 22 24  1  0  0  0  0
 23 25  1  0  0  0  0
 23 24  2  0  0  0  0
 24 21  1  0  0  0  0
 25 19  2  0  0  0  0
 26 27  1  0  0  0  0
 27 29  1  0  0  0  0
 29 28  1  0  0  0  0
 30 27  1  0  0  0  0
 31 30  1  0  0  0  0
 32 31  1  0  0  0  0
 33 34  1  0  0  0  0
 34 36  1  0  0  0  0
 34 35  1  0  0  0  0
 37 34  1  0  0  0  0
M  END
>  <MODEL>
6

>  <REMARK>
 VINA RESULT:      -5.7      3.866      7.092
  Name = 
  8 active torsions:
  status: ('A' for Active; 'I' for Inactive)
    1  A    between atoms: C_1  and  N_4
    2  A    between atoms: C_1  and  C_27
    3  A    between atoms: C_2  and  O_22
    4  A    between atoms: N_4  and  C_12
    5  A    between atoms: N_4  and  C_37
    6  A    between atoms: C_6  and  O_22
    7  A    between atoms: N_8  and  C_12
    8  A    between atoms: C_23  and  C_30
                            x       y       z     vdW  Elec       q    Type
                         _______ _______ _______ _____ _____    ______ ____

>  <TORSDO>
F 8

$$$$
=
 OpenBabel11122413583D

 37 42  0  0  1  0  0  0  0  0999 V2000
  160.6780  204.2190  150.6060 C   0  0  1  0  0  3  0  0  0  0  0  0
  160.7570  207.6560  149.7310 C   0  0  0  0  0  2  0  0  0  0  0  0
  160.8490  201.7550  149.6770 C   0  0  2  0  0  3  0  0  0  0  0  0
  161.5680  205.2640  149.9570 C   0  0  2  0  0  3  0  0  0  0  0  0
  160.3990  203.2300  149.4650 C   0  0  2  0  0  3  0  0  0  0  0  0
  161.5480  206.6710  150.5960 C   0  0  2  0  0  3  0  0  0  0  0  0
  161.5810  201.5440  151.0030 C   0  0  0  0  0  2  0  0  0  0  0  0
  160.9730  203.8830  148.2140 C   0  0  0  0  0  2  0  0  0  0  0  0
  161.2060  204.4250  153.0560 C   0  0  0  0  0  2  0  0  0  0  0  0
  160.9660  202.2870  152.0140 O   0  0  0  0  0  0  0  0  0  0  0  0
  162.9350  208.0270  148.6410 O   0  0  0  0  0  0  0  0  0  0  0  0
  161.5480  208.2710  148.5570 C   0  0  1  0  0  3  0  0  0  0  0  0
  161.4160  203.5950  151.7970 C   0  0  1  0  0  3  0  0  0  0  0  0
  161.2330  205.2870  148.5340 N   0  0  2  0  0  0  0  0  0  0  0  0
  161.1170  206.7330  152.0780 C   0  0  1  0  0  3  0  0  0  0  0  0
  162.2590  207.3590  147.5930 C   0  0  2  0  0  3  0  0  0  0  0  0
  162.4010  205.8430  147.8270 C   0  0  2  0  0  3  0  0  0  0  0  0
  161.9140  205.7680  152.9530 C   0  0  0  0  0  2  0  0  0  0  0  0
  162.1000  209.0330  152.0000 C   0  0  0  0  0  3  0  0  0  0  0  0
  161.2470  208.1220  152.6310 C   0  0  0  0  0  0  0  0  0  0  0  0
  160.5350  208.5160  153.7760 C   0  0  0  0  0  3  0  0  0  0  0  0
  159.9770  210.1940  155.4140 O   0  0  0  0  0  1  0  0  0  0  0  0
  161.5440  210.7150  153.6500 C   0  0  0  0  0  3  0  0  0  0  0  0
  160.6850  209.8090  154.2820 C   0  0  0  0  0  0  0  0  0  0  0  0
  162.2490  210.3280  152.5070 C   0  0  0  0  0  3  0  0  0  0  0  0
  162.6670  205.1860  146.4540 C   0  0  0  0  0  2  0  0  0  0  0  0
  161.8750  205.7660  145.3600 N   0  0  0  0  0  0  0  0  0  0  0  0
  161.6170  205.8280  142.9390 C   0  0  0  0  0  1  0  0  0  0  0  0
  162.5810  205.6120  144.0920 C   0  0  0  0  0  2  0  0  0  0  0  0
  160.5990  205.0710  145.2540 C   0  0  0  0  0  2  0  0  0  0  0  0
  160.8310  203.6790  144.8860 N   0  0  0  0  0  2  0  0  0  0  0  0
  159.6620  203.2080  144.3930 O   0  0  0  0  0  1  0  0  0  0  0  0
  161.6710  201.2950  148.6260 O   0  0  0  0  0  0  0  0  0  0  0  0
  160.8650  200.6050  147.6960 C   0  0  0  0  0  0  0  0  0  0  0  0
  161.3220  199.3060  147.5110 F   0  0  0  0  0  0  0  0  0  0  0  0
  159.5400  200.5780  148.1070 F   0  0  0  0  0  0  0  0  0  0  0  0
  160.9320  201.2690  146.4850 F   0  0  0  0  0  0  0  0  0  0  0  0
  1 13  1  0  0  0  0
  2  6  1  0  0  0  0
  3  7  1  0  0  0  0
  4  6  1  0  0  0  0
  4  1  1  0  0  0  0
  5  3  1  0  0  0  0
  5  1  1  0  0  0  0
  6 15  1  0  0  0  0
  7 10  1  0  0  0  0
  8 14  1  0  0  0  0
  8  5  1  0  0  0  0
 12 11  1  0  0  0  0
 12  2  1  0  0  0  0
 13 10  1  0  0  0  0
 13  9  1  0  0  0  0
 14  4  1  0  0  0  0
 15 20  1  0  0  0  0
 15 18  1  0  0  0  0
 16 17  1  0  0  0  0
 16 12  1  0  0  0  0
 16 11  1  0  0  0  0
 17 14  1  0  0  0  0
 18  9  1  0  0  0  0
 19 25  2  0  0  0  0
 19 20  1  0  0  0  0
 20 21  2  0  0  0  0
 21 24  1  0  0  0  0
 23 24  2  0  0  0  0
 24 22  1  0  0  0  0
 25 23  1  0  0  0  0
 26 17  1  0  0  0  0
 27 26  1  0  0  0  0
 28 29  1  0  0  0  0
 29 27  1  0  0  0  0
 30 27  1  0  0  0  0
 31 30  1  0  0  0  0
 32 31  1  0  0  0  0
 33  3  1  0  0  0  0
 34 36  1  0  0  0  0
 34 33  1  0  0  0  0
 35 34  1  0  0  0  0
 37 34  1  0  0  0  0
M  END
>  <MODEL>
7

>  <REMARK>
 VINA RESULT:      -5.7      3.220      4.876
  Name = 
  8 active torsions:
  status: ('A' for Active; 'I' for Inactive)
    1  A    between atoms: C_1  and  N_4
    2  A    between atoms: C_1  and  C_27
    3  A    between atoms: C_2  and  O_22
    4  A    between atoms: N_4  and  C_12
    5  A    between atoms: N_4  and  C_37
    6  A    between atoms: C_6  and  O_22
    7  A    between atoms: N_8  and  C_12
    8  A    between atoms: C_23  and  C_30
                            x       y       z     vdW  Elec       q    Type
                         _______ _______ _______ _____ _____    ______ ____

>  <TORSDO>
F 8

$$$$
=
 OpenBabel11122413583D

 37 42  0  0  1  0  0  0  0  0999 V2000
  161.8590  207.8710  153.0200 C   0  0  1  0  0  3  0  0  0  0  0  0
  162.7120  206.9020  149.7150 C   0  0  0  0  0  2  0  0  0  0  0  0
  161.5960  209.9180  154.6650 C   0  0  2  0  0  3  0  0  0  0  0  0
  161.4620  208.0960  151.5720 C   0  0  2  0  0  3  0  0  0  0  0  0
  162.3480  209.2540  153.4740 C   0  0  2  0  0  3  0  0  0  0  0  0
  161.5020  206.8540  150.6520 C   0  0  2  0  0  3  0  0  0  0  0  0
  160.4130  209.0830  155.1570 C   0  0  0  0  0  2  0  0  0  0  0  0
  162.3860  210.1050  152.2100 C   0  0  0  0  0  2  0  0  0  0  0  0
  160.5340  205.8430  153.6940 C   0  0  0  0  0  2  0  0  0  0  0  0
  160.7470  207.7260  155.1510 O   0  0  0  0  0  0  0  0  0  0  0  0
  161.1730  208.1270  148.2330 O   0  0  0  0  0  0  0  0  0  0  0  0
  162.5170  207.7570  148.4450 C   0  0  1  0  0  3  0  0  0  0  0  0
  160.6450  207.3570  153.8040 C   0  0  1  0  0  3  0  0  0  0  0  0
  162.2830  209.1950  151.0690 N   0  0  2  0  0  0  0  0  0  0  0  0
  161.3770  205.4860  151.3590 C   0  0  1  0  0  3  0  0  0  0  0  0
  162.0480  209.1810  148.5840 C   0  0  2  0  0  3  0  0  0  0  0  0
  161.5650  209.7760  149.9200 C   0  0  2  0  0  3  0  0  0  0  0  0
  160.1610  205.4200  152.2800 C   0  0  0  0  0  2  0  0  0  0  0  0
  161.1450  203.0500  150.8340 C   0  0  0  0  0  3  0  0  0  0  0  0
  161.3070  204.3600  150.3700 C   0  0  0  0  0  0  0  0  0  0  0  0
  161.4100  204.5990  148.9900 C   0  0  0  0  0  3  0  0  0  0  0  0
  161.4590  203.7760  146.7240 O   0  0  0  0  0  1  0  0  0  0  0  0
  161.2030  202.2240  148.5590 C   0  0  0  0  0  3  0  0  0  0  0  0
  161.3580  203.5330  148.0890 C   0  0  0  0  0  0  0  0  0  0  0  0
  161.0930  201.9830  149.9310 C   0  0  0  0  0  3  0  0  0  0  0  0
  161.6950  211.3120  149.8160 C   0  0  0  0  0  2  0  0  0  0  0  0
  161.5670  211.8230  148.4440 N   0  0  0  0  0  0  0  0  0  0  0  0
  160.2870  213.4100  149.7760 C   0  0  0  0  0  1  0  0  0  0  0  0
  160.5330  212.8510  148.3860 C   0  0  0  0  0  2  0  0  0  0  0  0
  162.8260  212.4240  148.0220 C   0  0  0  0  0  2  0  0  0  0  0  0
  162.5580  213.5340  147.1160 N   0  0  0  0  0  2  0  0  0  0  0  0
  162.8280  213.0900  145.8660 O   0  0  0  0  0  1  0  0  0  0  0  0
  161.1380  211.2130  154.3480 O   0  0  0  0  0  0  0  0  0  0  0  0
  160.5700  211.7850  155.5050 C   0  0  0  0  0  0  0  0  0  0  0  0
  159.3790  211.1550  155.8380 F   0  0  0  0  0  0  0  0  0  0  0  0
  161.4490  211.7170  156.5770 F   0  0  0  0  0  0  0  0  0  0  0  0
  160.3020  213.1170  155.2460 F   0  0  0  0  0  0  0  0  0  0  0  0
  1  5  1  0  0  0  0
  1 13  1  0  0  0  0
  2  6  1  0  0  0  0
  3  7  1  0  0  0  0
  4  1  1  0  0  0  0
  5  3  1  0  0  0  0
  6 15  1  0  0  0  0
  6  4  1  0  0  0  0
  8  5  1  0  0  0  0
  9 13  1  0  0  0  0
 10  7  1  0  0  0  0
 11 12  1  0  0  0  0
 11 16  1  0  0  0  0
 12 16  1  0  0  0  0
 12  2  1  0  0  0  0
 13 10  1  0  0  0  0
 14  4  1  0  0  0  0
 14  8  1  0  0  0  0
 15 18  1  0  0  0  0
 16 17  1  0  0  0  0
 17 14  1  0  0  0  0
 18  9  1  0  0  0  0
 20 19  1  0  0  0  0
 20 15  1  0  0  0  0
 21 20  2  0  0  0  0
 22 24  1  0  0  0  0
 23 25  1  0  0  0  0
 24 23  2  0  0  0  0
 24 21  1  0  0  0  0
 25 19  2  0  0  0  0
 26 17  1  0  0  0  0
 27 26  1  0  0  0  0
 29 27  1  0  0  0  0
 29 28  1  0  0  0  0
 30 27  1  0  0  0  0
 31 30  1  0  0  0  0
 32 31  1  0  0  0  0
 33  3  1  0  0  0  0
 33 34  1  0  0  0  0
 34 35  1  0  0  0  0
 34 36  1  0  0  0  0
 37 34  1  0  0  0  0
M  END
>  <MODEL>
8

>  <REMARK>
 VINA RESULT:      -5.4      3.916      6.654
  Name = 
  8 active torsions:
  status: ('A' for Active; 'I' for Inactive)
    1  A    between atoms: C_1  and  N_4
    2  A    between atoms: C_1  and  C_27
    3  A    between atoms: C_2  and  O_22
    4  A    between atoms: N_4  and  C_12
    5  A    between atoms: N_4  and  C_37
    6  A    between atoms: C_6  and  O_22
    7  A    between atoms: N_8  and  C_12
    8  A    between atoms: C_23  and  C_30
                            x       y       z     vdW  Elec       q    Type
                         _______ _______ _______ _____ _____    ______ ____

>  <TORSDO>
F 8

$$$$
=
 OpenBabel11122413583D

 37 42  0  0  1  0  0  0  0  0999 V2000
  161.6280  209.7470  152.3270 C   0  0  1  0  0  3  0  0  0  0  0  0
  160.8920  212.9320  150.9470 C   0  0  0  0  0  2  0  0  0  0  0  0
  161.2010  208.1340  154.3710 C   0  0  2  0  0  3  0  0  0  0  0  0
  160.4630  210.6110  151.8750 C   0  0  2  0  0  3  0  0  0  0  0  0
  161.3870  209.5840  153.8340 C   0  0  2  0  0  3  0  0  0  0  0  0
  160.6930  211.4540  150.6000 C   0  0  2  0  0  3  0  0  0  0  0  0
  161.2230  207.0840  153.2600 C   0  0  0  0  0  2  0  0  0  0  0  0
  160.2330  210.5230  154.1630 C   0  0  0  0  0  2  0  0  0  0  0  0
  162.3430  208.5650  150.2250 C   0  0  0  0  0  2  0  0  0  0  0  0
  162.1970  207.4080  152.3120 O   0  0  0  0  0  0  0  0  0  0  0  0
  158.4390  213.0310  150.7430 O   0  0  0  0  0  0  0  0  0  0  0  0
  159.5900  213.7310  151.1640 C   0  0  1  0  0  3  0  0  0  0  0  0
  161.6080  208.4240  151.5510 C   0  0  1  0  0  3  0  0  0  0  0  0
  160.0630  211.4230  153.0230 N   0  0  2  0  0  0  0  0  0  0  0  0
  161.7840  210.9380  149.6360 C   0  0  1  0  0  3  0  0  0  0  0  0
  158.5660  213.2150  152.1400 C   0  0  2  0  0  3  0  0  0  0  0  0
  158.6630  211.8250  152.7960 C   0  0  2  0  0  3  0  0  0  0  0  0
  161.5820  209.4700  149.2670 C   0  0  0  0  0  2  0  0  0  0  0  0
  163.0080  212.4680  148.0790 C   0  0  0  0  0  3  0  0  0  0  0  0
  161.8410  211.7570  148.3800 C   0  0  0  0  0  0  0  0  0  0  0  0
  160.7410  211.8290  147.5110 C   0  0  0  0  0  3  0  0  0  0  0  0
  159.7210  212.6780  145.4970 O   0  0  0  0  0  1  0  0  0  0  0  0
  161.9790  213.3250  146.0620 C   0  0  0  0  0  3  0  0  0  0  0  0
  160.8120  212.6110  146.3560 C   0  0  0  0  0  0  0  0  0  0  0  0
  163.0790  213.2500  146.9220 C   0  0  0  0  0  3  0  0  0  0  0  0
  157.8100  211.8600  154.0840 C   0  0  0  0  0  2  0  0  0  0  0  0
  157.3820  213.2130  154.4690 N   0  0  0  0  0  0  0  0  0  0  0  0
  155.5300  213.0240  156.0400 C   0  0  0  0  0  1  0  0  0  0  0  0
  155.9290  213.2630  154.5940 C   0  0  0  0  0  2  0  0  0  0  0  0
  157.9580  213.5630  155.7610 C   0  0  0  0  0  2  0  0  0  0  0  0
  159.3260  214.0330  155.5730 N   0  0  0  0  0  2  0  0  0  0  0  0
  160.1100  213.2830  156.3820 O   0  0  0  0  0  1  0  0  0  0  0  0
  160.0080  207.9910  155.1090 O   0  0  0  0  0  0  0  0  0  0  0  0
  160.3400  207.7990  156.4670 C   0  0  0  0  0  0  0  0  0  0  0  0
  159.7220  206.6640  156.9740 F   0  0  0  0  0  0  0  0  0  0  0  0
  161.7130  207.6970  156.6340 F   0  0  0  0  0  0  0  0  0  0  0  0
  159.8950  208.8960  157.1820 F   0  0  0  0  0  0  0  0  0  0  0  0
  1  5  1  0  0  0  0
  2 12  1  0  0  0  0
  3 33  1  0  0  0  0
  4  1  1  0  0  0  0
  4 14  1  0  0  0  0
  5  8  1  0  0  0  0
  5  3  1  0  0  0  0
  6  2  1  0  0  0  0
  6  4  1  0  0  0  0
  7  3  1  0  0  0  0
  9 13  1  0  0  0  0
 10  7  1  0  0  0  0
 11 12  1  0  0  0  0
 11 16  1  0  0  0  0
 12 16  1  0  0  0  0
 13 10  1  0  0  0  0
 13  1  1  0  0  0  0
 14  8  1  0  0  0  0
 15  6  1  0  0  0  0
 16 17  1  0  0  0  0
 17 14  1  0  0  0  0
 17 26  1  0  0  0  0
 18 15  1  0  0  0  0
 18  9  1  0  0  0  0
 19 20  1  0  0  0  0
 20 15  1  0  0  0  0
 21 20  2  0  0  0  0
 22 24  1  0  0  0  0
 23 24  2  0  0  0  0
 23 25  1  0  0  0  0
 24 21  1  0  0  0  0
 25 19  2  0  0  0  0
 26 27  1  0  0  0  0
 27 29  1  0  0  0  0
 27 30  1  0  0  0  0
 29 28  1  0  0  0  0
 31 30  1  0  0  0  0
 31 32  1  0  0  0  0
 33 34  1  0  0  0  0
 34 36  1  0  0  0  0
 34 35  1  0  0  0  0
 34 37  1  0  0  0  0
M  END
>  <MODEL>
9

>  <REMARK>
 VINA RESULT:      -5.3      4.696      8.162
  Name = 
  8 active torsions:
  status: ('A' for Active; 'I' for Inactive)
    1  A    between atoms: C_1  and  N_4
    2  A    between atoms: C_1  and  C_27
    3  A    between atoms: C_2  and  O_22
    4  A    between atoms: N_4  and  C_12
    5  A    between atoms: N_4  and  C_37
    6  A    between atoms: C_6  and  O_22
    7  A    between atoms: N_8  and  C_12
    8  A    between atoms: C_23  and  C_30
                            x       y       z     vdW  Elec       q    Type
                         _______ _______ _______ _____ _____    ______ ____

>  <TORSDO>
F 8

$$$$
