=
 OpenBabel11122412443D

 30 35  0  0  1  0  0  0  0  0999 V2000
  161.6170  208.0470  151.5860 C   0  0  0  0  0  0  0  0  0  0  0  0
  161.1730  208.9460  153.8760 C   0  0  0  0  0  0  0  0  0  0  0  0
  160.7550  204.1480  152.8730 N   0  0  0  0  0  2  0  0  0  0  0  0
  161.6010  206.9470  150.6760 C   0  0  0  0  0  0  0  0  0  0  0  0
  162.1970  209.3560  151.1240 C   0  0  0  0  0  2  0  0  0  0  0  0
  162.6300  208.7110  147.6700 O   0  0  0  0  0  0  0  0  0  0  0  0
  161.6720  204.8490  148.2620 C   0  0  1  0  0  3  0  0  0  0  0  0
  162.1350  208.5260  148.8160 C   0  0  0  0  0  0  0  0  0  0  0  0
  160.8340  204.1470  149.2780 C   0  0  1  0  0  3  0  0  0  0  0  0
  160.9900  203.3390  151.6870 C   0  0  2  0  0  3  0  0  0  0  0  0
  161.8040  209.6910  149.6980 C   0  0  2  0  0  3  0  0  0  0  0  0
  161.7970  207.1940  149.2500 N   0  0  0  0  0  0  0  0  0  0  0  0
  160.7890  208.7150  155.2000 C   0  0  0  0  0  3  0  0  0  0  0  0
  160.8550  202.7340  148.7710 C   0  0  0  0  0  2  0  0  0  0  0  0
  161.4650  204.2320  147.0190 O   0  0  0  0  0  0  0  0  0  0  0  0
  161.4570  210.2240  153.5210 F   0  0  0  0  0  0  0  0  0  0  0  0
  160.9620  205.5030  152.5230 C   0  0  0  0  0  0  0  0  0  0  0  0
  160.4610  207.4310  155.6310 C   0  0  0  0  0  3  0  0  0  0  0  0
  161.2290  207.8730  152.9480 C   0  0  0  0  0  0  0  0  0  0  0  0
  161.3270  205.6640  151.2110 C   0  0  0  0  0  0  0  0  0  0  0  0
  162.0190  202.2710  151.9950 C   0  0  0  0  0  1  0  0  0  0  0  0
  161.5360  204.3020  150.6140 C   0  0  2  0  0  3  0  0  0  0  0  0
  161.2230  202.8770  147.3090 C   0  0  0  0  0  2  0  0  0  0  0  0
  160.5720  206.7290  147.3110 O   0  0  0  0  0  0  0  0  0  0  0  0
  160.5100  206.3640  154.7380 C   0  0  0  0  0  3  0  0  0  0  0  0
  160.8840  206.5750  153.4060 C   0  0  0  0  0  0  0  0  0  0  0  0
  161.3150  206.2930  148.2340 C   0  0  0  0  0  0  0  0  0  0  0  0
  162.5120  210.9680  149.2550 C   0  0  0  0  0  2  0  0  0  0  0  0
  161.2170  211.9190  147.6670 O   0  0  0  0  0  1  0  0  0  0  0  0
  161.5430  212.0160  148.9780 N   0  0  0  0  0  2  0  0  0  0  0  0
  1 19  1  0  0  0  0
  2 13  1  0  0  0  0
  4 20  1  0  0  0  0
  4  1  2  0  0  0  0
  5  1  1  0  0  0  0
  6  8  2  0  0  0  0
  7 15  1  6  0  0  0
  7  9  1  0  0  0  0
  8 12  1  0  0  0  0
  8 11  1  0  0  0  0
  9 14  1  6  0  0  0
  9 22  1  0  0  0  0
 10 21  1  1  0  0  0
 10  3  1  0  0  0  0
 11 28  1  6  0  0  0
 11  5  1  0  0  0  0
 12  4  1  0  0  0  0
 13 18  2  0  0  0  0
 15 23  1  0  0  0  0
 16  2  1  0  0  0  0
 17  3  1  0  0  0  0
 17 26  1  0  0  0  0
 19 26  1  0  0  0  0
 19  2  2  0  0  0  0
 20 17  2  0  0  0  0
 22 20  1  1  0  0  0
 22 10  1  0  0  0  0
 23 14  1  0  0  0  0
 24 27  2  0  0  0  0
 25 18  1  0  0  0  0
 26 25  2  0  0  0  0
 27  7  1  0  0  0  0
 27 12  1  0  0  0  0
 29 30  1  0  0  0  0
 30 28  1  0  0  0  0
M  END
>  <MODEL>
1

>  <REMARK>
 VINA RESULT:      -9.4      0.000      0.000
  Name = 
  2 active torsions:
  status: ('A' for Active; 'I' for Inactive)
    1  A    between atoms: C_11  and  C_28
    2  A    between atoms: C_28  and  N_30
                            x       y       z     vdW  Elec       q    Type
                         _______ _______ _______ _____ _____    ______ ____

>  <TORSDO>
F 2

$$$$
=
 OpenBabel11122412443D

 30 35  0  0  1  0  0  0  0  0999 V2000
  161.3210  207.5870  151.2080 C   0  0  0  0  0  0  0  0  0  0  0  0
  161.8640  210.0260  151.1390 C   0  0  0  0  0  0  0  0  0  0  0  0
  161.5830  207.3380  147.0280 N   0  0  0  0  0  2  0  0  0  0  0  0
  161.1870  206.3410  150.5240 C   0  0  0  0  0  0  0  0  0  0  0  0
  160.9470  207.6540  152.6630 C   0  0  0  0  0  2  0  0  0  0  0  0
  160.4670  204.2230  153.3890 O   0  0  0  0  0  0  0  0  0  0  0  0
  160.8370  203.3360  149.4820 C   0  0  1  0  0  3  0  0  0  0  0  0
  160.9150  205.2020  152.7310 C   0  0  0  0  0  0  0  0  0  0  0  0
  161.5500  203.9940  148.3470 C   0  0  1  0  0  3  0  0  0  0  0  0
  161.2470  205.9510  146.7490 C   0  0  2  0  0  3  0  0  0  0  0  0
  161.4030  206.4310  153.4350 C   0  0  2  0  0  3  0  0  0  0  0  0
  161.0470  205.1110  151.2990 N   0  0  0  0  0  0  0  0  0  0  0  0
  162.1930  211.1590  150.3890 C   0  0  0  0  0  3  0  0  0  0  0  0
  161.3280  203.0110  147.2340 C   0  0  0  0  0  2  0  0  0  0  0  0
  160.9670  201.9470  149.3380 O   0  0  0  0  0  0  0  0  0  0  0  0
  161.7750  210.1700  152.4840 F   0  0  0  0  0  0  0  0  0  0  0  0
  161.5820  207.5110  148.4330 C   0  0  0  0  0  0  0  0  0  0  0  0
  162.3230  211.0830  149.0050 C   0  0  0  0  0  3  0  0  0  0  0  0
  161.6620  208.7760  150.4970 C   0  0  0  0  0  0  0  0  0  0  0  0
  161.2620  206.3630  149.1100 C   0  0  0  0  0  0  0  0  0  0  0  0
  160.0670  205.8940  145.7990 C   0  0  0  0  0  1  0  0  0  0  0  0
  160.8620  205.3230  148.1030 C   0  0  2  0  0  3  0  0  0  0  0  0
  161.0030  201.7160  147.9500 C   0  0  0  0  0  2  0  0  0  0  0  0
  162.2150  203.0850  151.4030 O   0  0  0  0  0  0  0  0  0  0  0  0
  162.1280  209.8670  148.3550 C   0  0  0  0  0  3  0  0  0  0  0  0
  161.8060  208.7180  149.0860 C   0  0  0  0  0  0  0  0  0  0  0  0
  161.4040  203.8170  150.7710 C   0  0  0  0  0  0  0  0  0  0  0  0
  160.8960  206.5110  154.8720 C   0  0  0  0  0  2  0  0  0  0  0  0
  161.7010  208.1660  156.1830 O   0  0  0  0  0  1  0  0  0  0  0  0
  160.7310  207.8980  155.2760 N   0  0  0  0  0  2  0  0  0  0  0  0
  1  5  1  0  0  0  0
  2 16  1  0  0  0  0
  3 17  1  0  0  0  0
  4  1  1  0  0  0  0
  4 12  1  0  0  0  0
  5 11  1  0  0  0  0
  7 15  1  6  0  0  0
  7 27  1  0  0  0  0
  8  6  2  0  0  0  0
  8 11  1  0  0  0  0
  9 14  1  6  0  0  0
  9  7  1  0  0  0  0
 10 21  1  6  0  0  0
 10  3  1  0  0  0  0
 10 22  1  0  0  0  0
 11 28  1  1  0  0  0
 12  8  1  0  0  0  0
 13  2  2  0  0  0  0
 14 23  1  0  0  0  0
 17 26  2  0  0  0  0
 17 20  1  0  0  0  0
 18 13  1  0  0  0  0
 19  2  1  0  0  0  0
 19  1  2  0  0  0  0
 20  4  2  0  0  0  0
 22  9  1  0  0  0  0
 22 20  1  1  0  0  0
 23 15  1  0  0  0  0
 25 18  2  0  0  0  0
 25 26  1  0  0  0  0
 26 19  1  0  0  0  0
 27 12  1  0  0  0  0
 27 24  2  0  0  0  0
 28 30  1  0  0  0  0
 30 29  1  0  0  0  0
M  END
>  <MODEL>
2

>  <REMARK>
 VINA RESULT:      -9.1      2.767      4.987
  Name = 
  2 active torsions:
  status: ('A' for Active; 'I' for Inactive)
    1  A    between atoms: C_11  and  C_28
    2  A    between atoms: C_28  and  N_30
                            x       y       z     vdW  Elec       q    Type
                         _______ _______ _______ _____ _____    ______ ____

>  <TORSDO>
F 2

$$$$
=
 OpenBabel11122412443D

 30 35  0  0  1  0  0  0  0  0999 V2000
  160.9680  204.7970  149.0170 C   0  0  0  0  0  0  0  0  0  0  0  0
  160.9750  202.2970  149.0360 C   0  0  0  0  0  0  0  0  0  0  0  0
  161.3140  204.8990  153.1970 N   0  0  0  0  0  2  0  0  0  0  0  0
  161.1100  206.0280  149.7240 C   0  0  0  0  0  0  0  0  0  0  0  0
  160.5750  204.8410  147.5660 C   0  0  0  0  0  2  0  0  0  0  0  0
  160.8370  208.3090  146.9080 O   0  0  0  0  0  0  0  0  0  0  0  0
  161.4240  209.0160  150.8240 C   0  0  1  0  0  3  0  0  0  0  0  0
  161.0690  207.2430  147.5430 C   0  0  0  0  0  0  0  0  0  0  0  0
  161.9890  208.1980  151.9380 C   0  0  1  0  0  3  0  0  0  0  0  0
  161.2870  206.3200  153.5050 C   0  0  2  0  0  3  0  0  0  0  0  0
  161.2760  205.9530  146.8100 C   0  0  2  0  0  3  0  0  0  0  0  0
  161.2320  207.2750  148.9740 N   0  0  0  0  0  0  0  0  0  0  0  0
  161.0590  201.1040  149.7600 C   0  0  0  0  0  3  0  0  0  0  0  0
  161.9930  209.1830  153.0710 C   0  0  0  0  0  2  0  0  0  0  0  0
  161.8510  210.3420  150.9920 O   0  0  0  0  0  0  0  0  0  0  0  0
  160.8450  202.2030  147.6890 F   0  0  0  0  0  0  0  0  0  0  0  0
  161.2640  204.7580  151.7890 C   0  0  0  0  0  0  0  0  0  0  0  0
  161.2150  201.1230  151.1440 C   0  0  0  0  0  3  0  0  0  0  0  0
  161.0510  203.5480  149.7020 C   0  0  0  0  0  0  0  0  0  0  0  0
  161.1920  205.9620  151.1370 C   0  0  0  0  0  0  0  0  0  0  0  0
  160.1550  206.6090  154.4710 C   0  0  0  0  0  1  0  0  0  0  0  0
  161.0340  207.0430  152.1670 C   0  0  2  0  0  3  0  0  0  0  0  0
  161.9480  210.5320  152.3830 C   0  0  0  0  0  2  0  0  0  0  0  0
  162.8060  209.0050  148.8910 O   0  0  0  0  0  0  0  0  0  0  0  0
  161.2920  202.3390  151.8180 C   0  0  0  0  0  3  0  0  0  0  0  0
  161.2180  203.5450  151.1120 C   0  0  0  0  0  0  0  0  0  0  0  0
  161.8630  208.4510  149.5200 C   0  0  0  0  0  0  0  0  0  0  0  0
  160.7510  206.0130  145.3780 C   0  0  0  0  0  2  0  0  0  0  0  0
  160.3570  204.0400  144.3490 O   0  0  0  0  0  1  0  0  0  0  0  0
  161.3360  204.9480  144.5780 N   0  0  0  0  0  2  0  0  0  0  0  0
  1 19  2  0  0  0  0
  1  4  1  0  0  0  0
  2 19  1  0  0  0  0
  2 13  2  0  0  0  0
  3 10  1  0  0  0  0
  4 20  2  0  0  0  0
  5  1  1  0  0  0  0
  6  8  2  0  0  0  0
  7 27  1  6  0  0  0
  7 15  1  0  0  0  0
  7  9  1  0  0  0  0
  8 12  1  0  0  0  0
  9 22  1  0  0  0  0
  9 14  1  1  0  0  0
 10 21  1  1  0  0  0
 11 28  1  6  0  0  0
 11  8  1  0  0  0  0
 11  5  1  0  0  0  0
 12 27  1  0  0  0  0
 12  4  1  0  0  0  0
 13 18  1  0  0  0  0
 15 23  1  0  0  0  0
 16  2  1  0  0  0  0
 17  3  1  0  0  0  0
 18 25  2  0  0  0  0
 19 26  1  0  0  0  0
 20 17  1  0  0  0  0
 22 20  1  6  0  0  0
 22 10  1  0  0  0  0
 23 14  1  0  0  0  0
 24 27  2  0  0  0  0
 26 17  2  0  0  0  0
 26 25  1  0  0  0  0
 29 30  1  0  0  0  0
 30 28  1  0  0  0  0
M  END
>  <MODEL>
3

>  <REMARK>
 VINA RESULT:      -7.9      2.501      5.706
  Name = 
  2 active torsions:
  status: ('A' for Active; 'I' for Inactive)
    1  A    between atoms: C_11  and  C_28
    2  A    between atoms: C_28  and  N_30
                            x       y       z     vdW  Elec       q    Type
                         _______ _______ _______ _____ _____    ______ ____

>  <TORSDO>
F 2

$$$$
=
 OpenBabel11122412443D

 30 35  0  0  1  0  0  0  0  0999 V2000
  161.2060  203.7810  147.8990 C   0  0  0  0  0  0  0  0  0  0  0  0
  160.9030  204.0660  145.4340 C   0  0  0  0  0  0  0  0  0  0  0  0
  161.2310  207.9400  148.4480 N   0  0  0  0  0  2  0  0  0  0  0  0
  161.2720  204.3610  149.2010 C   0  0  0  0  0  0  0  0  0  0  0  0
  161.4770  202.3080  147.7520 C   0  0  0  0  0  2  0  0  0  0  0  0
  161.5750  201.3060  151.1460 O   0  0  0  0  0  0  0  0  0  0  0  0
  161.4110  205.1570  152.2970 C   0  0  1  0  0  3  0  0  0  0  0  0
  161.2720  202.0660  150.1850 C   0  0  0  0  0  0  0  0  0  0  0  0
  160.8500  206.3900  151.6690 C   0  0  1  0  0  3  0  0  0  0  0  0
  161.4540  208.0930  149.8770 C   0  0  2  0  0  3  0  0  0  0  0  0
  160.8520  201.4910  148.8660 C   0  0  2  0  0  3  0  0  0  0  0  0
  161.2370  203.4930  150.3750 N   0  0  0  0  0  0  0  0  0  0  0  0
  160.7390  204.9170  144.3380 C   0  0  0  0  0  3  0  0  0  0  0  0
  161.0590  207.4090  152.7510 C   0  0  0  0  0  2  0  0  0  0  0  0
  161.1620  205.2130  153.6770 O   0  0  0  0  0  0  0  0  0  0  0  0
  160.9060  202.7310  145.1950 F   0  0  0  0  0  0  0  0  0  0  0  0
  161.1440  206.5560  148.1670 C   0  0  0  0  0  0  0  0  0  0  0  0
  160.7050  206.2990  144.5100 C   0  0  0  0  0  3  0  0  0  0  0  0
  161.0330  204.5990  146.7440 C   0  0  0  0  0  0  0  0  0  0  0  0
  161.3040  205.7760  149.2830 C   0  0  0  0  0  0  0  0  0  0  0  0
  162.6890  208.9380  150.1120 C   0  0  0  0  0  1  0  0  0  0  0  0
  161.6760  206.6700  150.4300 C   0  0  2  0  0  3  0  0  0  0  0  0
  161.2060  206.5790  154.0110 C   0  0  0  0  0  2  0  0  0  0  0  0
  159.8790  203.3410  152.2750 O   0  0  0  0  0  0  0  0  0  0  0  0
  160.8310  206.8440  145.7850 C   0  0  0  0  0  3  0  0  0  0  0  0
  160.9880  206.0090  146.8970 C   0  0  0  0  0  0  0  0  0  0  0  0
  160.7990  203.9560  151.6690 C   0  0  0  0  0  0  0  0  0  0  0  0
  161.2570  200.0270  148.7200 C   0  0  0  0  0  2  0  0  0  0  0  0
  161.2060  199.4510  146.5360 O   0  0  0  0  0  1  0  0  0  0  0  0
  162.0540  199.8390  147.5190 N   0  0  0  0  0  2  0  0  0  0  0  0
  1  4  1  0  0  0  0
  2 19  1  0  0  0  0
  3 10  1  0  0  0  0
  4 20  2  0  0  0  0
  4 12  1  0  0  0  0
  5  1  1  0  0  0  0
  5 11  1  0  0  0  0
  7 27  1  6  0  0  0
  7 15  1  0  0  0  0
  8 12  1  0  0  0  0
  8  6  2  0  0  0  0
  9  7  1  0  0  0  0
  9 14  1  1  0  0  0
 10 21  1  6  0  0  0
 10 22  1  0  0  0  0
 11 28  1  1  0  0  0
 11  8  1  0  0  0  0
 12 27  1  0  0  0  0
 13 18  1  0  0  0  0
 13  2  2  0  0  0  0
 14 23  1  0  0  0  0
 15 23  1  0  0  0  0
 16  2  1  0  0  0  0
 17  3  1  0  0  0  0
 17 20  1  0  0  0  0
 18 25  2  0  0  0  0
 19 26  1  0  0  0  0
 19  1  2  0  0  0  0
 22 20  1  6  0  0  0
 22  9  1  0  0  0  0
 25 26  1  0  0  0  0
 26 17  2  0  0  0  0
 27 24  2  0  0  0  0
 29 30  1  0  0  0  0
 30 28  1  0  0  0  0
M  END
>  <MODEL>
4

>  <REMARK>
 VINA RESULT:      -7.4      3.564      7.616
  Name = 
  2 active torsions:
  status: ('A' for Active; 'I' for Inactive)
    1  A    between atoms: C_11  and  C_28
    2  A    between atoms: C_28  and  N_30
                            x       y       z     vdW  Elec       q    Type
                         _______ _______ _______ _____ _____    ______ ____

>  <TORSDO>
F 2

$$$$
=
 OpenBabel11122412443D

 30 35  0  0  1  0  0  0  0  0999 V2000
  160.5740  211.6430  151.4420 C   0  0  0  0  0  0  0  0  0  0  0  0
  161.0530  213.5220  149.8640 C   0  0  0  0  0  0  0  0  0  0  0  0
  162.3310  208.8900  148.8080 N   0  0  0  0  0  2  0  0  0  0  0  0
  160.7220  210.2660  151.7900 C   0  0  0  0  0  0  0  0  0  0  0  0
  159.6990  212.5130  152.3020 C   0  0  0  0  0  2  0  0  0  0  0  0
  159.0630  210.3400  155.0230 O   0  0  0  0  0  0  0  0  0  0  0  0
  160.8370  207.3230  153.0390 C   0  0  1  0  0  3  0  0  0  0  0  0
  159.6970  210.7570  154.0140 C   0  0  0  0  0  0  0  0  0  0  0  0
  161.8970  207.2720  151.9890 C   0  0  1  0  0  3  0  0  0  0  0  0
  162.1490  207.6130  149.4800 C   0  0  2  0  0  3  0  0  0  0  0  0
  159.8720  212.2260  153.7810 C   0  0  2  0  0  3  0  0  0  0  0  0
  160.3400  209.8210  153.1270 N   0  0  0  0  0  0  0  0  0  0  0  0
  161.6050  213.9620  148.6580 C   0  0  0  0  0  3  0  0  0  0  0  0
  162.1130  205.7950  151.8410 C   0  0  0  0  0  2  0  0  0  0  0  0
  161.0410  206.2510  153.9220 O   0  0  0  0  0  0  0  0  0  0  0  0
  160.4810  214.4530  150.6680 F   0  0  0  0  0  0  0  0  0  0  0  0
  161.8200  209.9030  149.6540 C   0  0  0  0  0  0  0  0  0  0  0  0
  162.2270  213.0660  147.7920 C   0  0  0  0  0  3  0  0  0  0  0  0
  161.1220  212.1510  150.2270 C   0  0  0  0  0  0  0  0  0  0  0  0
  161.3020  209.4090  150.8230 C   0  0  0  0  0  0  0  0  0  0  0  0
  161.3930  206.6640  148.5720 C   0  0  0  0  0  1  0  0  0  0  0  0
  161.3150  207.9090  150.7420 C   0  0  2  0  0  3  0  0  0  0  0  0
  161.5800  205.2160  153.1360 C   0  0  0  0  0  2  0  0  0  0  0  0
  161.4340  208.7120  154.8740 O   0  0  0  0  0  0  0  0  0  0  0  0
  162.3070  211.7170  148.1280 C   0  0  0  0  0  3  0  0  0  0  0  0
  161.7680  211.2560  149.3340 C   0  0  0  0  0  0  0  0  0  0  0  0
  160.8910  208.6360  153.7370 C   0  0  0  0  0  0  0  0  0  0  0  0
  158.8790  213.0590  154.5860 C   0  0  0  0  0  2  0  0  0  0  0  0
  156.6900  212.5920  154.2810 O   0  0  0  0  0  1  0  0  0  0  0  0
  157.6980  213.3520  153.7900 N   0  0  0  0  0  2  0  0  0  0  0  0
  1  4  1  0  0  0  0
  1  5  1  0  0  0  0
  2 19  1  0  0  0  0
  2 16  1  0  0  0  0
  3 10  1  0  0  0  0
  3 17  1  0  0  0  0
  4 12  1  0  0  0  0
  5 11  1  0  0  0  0
  7 27  1  1  0  0  0
  7 15  1  0  0  0  0
  8  6  2  0  0  0  0
  9 14  1  6  0  0  0
  9  7  1  0  0  0  0
 10 21  1  6  0  0  0
 10 22  1  0  0  0  0
 11  8  1  0  0  0  0
 11 28  1  1  0  0  0
 12 27  1  0  0  0  0
 12  8  1  0  0  0  0
 13  2  2  0  0  0  0
 14 23  1  0  0  0  0
 17 20  1  0  0  0  0
 18 25  2  0  0  0  0
 18 13  1  0  0  0  0
 19  1  2  0  0  0  0
 20  4  2  0  0  0  0
 22 20  1  1  0  0  0
 22  9  1  0  0  0  0
 23 15  1  0  0  0  0
 25 26  1  0  0  0  0
 26 17  2  0  0  0  0
 26 19  1  0  0  0  0
 27 24  2  0  0  0  0
 30 29  1  0  0  0  0
 30 28  1  0  0  0  0
M  END
>  <MODEL>
5

>  <REMARK>
 VINA RESULT:      -6.7      3.767      6.153
  Name = 
  2 active torsions:
  status: ('A' for Active; 'I' for Inactive)
    1  A    between atoms: C_11  and  C_28
    2  A    between atoms: C_28  and  N_30
                            x       y       z     vdW  Elec       q    Type
                         _______ _______ _______ _____ _____    ______ ____

>  <TORSDO>
F 2

$$$$
