=
 OpenBabel11122413583D

 37 41  0  0  1  0  0  0  0  0999 V2000
  161.9260  205.4440  151.0740 C   0  0  1  0  0  3  0  0  0  0  0  0
  161.6790  205.2800  147.3750 O   0  0  0  0  0  0  0  0  0  0  0  0
  161.9130  207.2640  152.8550 C   0  0  2  0  0  3  0  0  0  0  0  0
  161.5310  205.9780  149.7480 C   0  0  2  0  0  3  0  0  0  0  0  0
  162.6570  206.6270  151.6710 C   0  0  2  0  0  3  0  0  0  0  0  0
  161.6860  204.8430  148.7190 C   0  0  1  0  0  3  0  0  0  0  0  0
  161.4840  206.2000  153.8760 C   0  0  0  0  0  2  0  0  0  0  0  0
  162.9070  207.5830  150.6640 O   0  0  0  0  0  0  0  0  0  0  0  0
  160.3050  203.7200  151.3590 C   0  0  0  0  0  2  0  0  0  0  0  0
  161.1070  204.8630  153.2280 C   0  0  0  0  0  2  0  0  0  0  0  0
  160.0190  206.9190  147.6560 O   0  0  0  0  0  0  0  0  0  0  0  0
  160.3860  205.7240  147.0080 C   0  0  0  0  0  2  0  0  0  0  0  0
  160.7290  205.0390  151.8280 N   0  0  1  0  0  0  0  0  0  0  0  0
  162.4200  207.1070  149.4700 N   0  0  2  0  0  0  0  0  0  0  0  0
  160.7740  203.7030  148.9450 N   0  0  0  0  0  0  0  0  0  0  0  0
  161.0730  207.8270  147.4910 C   0  0  0  0  0  2  0  0  0  0  0  0
  161.6520  208.2110  148.8570 C   0  0  2  0  0  3  0  0  0  0  0  0
  159.7090  203.7910  149.9520 C   0  0  0  0  0  2  0  0  0  0  0  0
  161.5940  201.3660  148.9830 C   0  0  0  0  0  3  0  0  0  0  0  0
  161.0170  202.4420  148.2870 C   0  0  0  0  0  0  0  0  0  0  0  0
  160.6820  202.2650  146.9330 C   0  0  0  0  0  3  0  0  0  0  0  0
  160.5870  200.8880  144.9890 F   0  0  0  0  0  0  0  0  0  0  0  0
  161.4890  199.9840  147.0000 C   0  0  0  0  0  3  0  0  0  0  0  0
  160.9160  201.0440  146.2930 C   0  0  0  0  0  0  0  0  0  0  0  0
  161.8290  200.1450  148.3450 C   0  0  0  0  0  3  0  0  0  0  0  0
  162.5630  209.4410  148.6700 C   0  0  0  0  0  2  0  0  0  0  0  0
  161.8910  210.7400  148.8390 N   0  0  0  0  0  0  0  0  0  0  0  0
  160.8220  212.2150  150.4530 C   0  0  0  0  0  1  0  0  0  0  0  0
  161.8370  211.1070  150.2480 C   0  0  0  0  0  2  0  0  0  0  0  0
  162.6140  211.7820  148.1210 C   0  0  0  0  0  2  0  0  0  0  0  0
  161.6930  212.4660  147.1270 C   0  0  0  0  0  2  0  0  0  0  0  0
  160.4740  211.8150  147.0850 F   0  0  0  0  0  0  0  0  0  0  0  0
  160.7840  207.9730  152.4070 O   0  0  0  0  0  0  0  0  0  0  0  0
  160.6880  209.1640  153.1540 C   0  0  0  0  0  0  0  0  0  0  0  0
  160.2550  208.9030  154.4460 F   0  0  0  0  0  0  0  0  0  0  0  0
  161.9060  209.8240  153.1940 F   0  0  0  0  0  0  0  0  0  0  0  0
  159.7620  209.9910  152.5480 F   0  0  0  0  0  0  0  0  0  0  0  0
  1  5  1  0  0  0  0
  1 13  1  0  0  0  0
  2  6  1  0  0  0  0
  3  7  1  0  0  0  0
  4  1  1  0  0  0  0
  5  3  1  0  0  0  0
  6 15  1  0  0  0  0
  6  4  1  0  0  0  0
  8  5  1  0  0  0  0
  9 13  1  0  0  0  0
 10  7  1  0  0  0  0
 12  2  1  0  0  0  0
 12 11  1  0  0  0  0
 13 10  1  0  0  0  0
 14  4  1  0  0  0  0
 14  8  1  0  0  0  0
 15 18  1  0  0  0  0
 16 11  1  0  0  0  0
 16 17  1  0  0  0  0
 17 14  1  0  0  0  0
 18  9  1  0  0  0  0
 20 15  1  0  0  0  0
 20 19  2  0  0  0  0
 21 20  1  0  0  0  0
 22 24  1  0  0  0  0
 23 25  2  0  0  0  0
 24 21  2  0  0  0  0
 24 23  1  0  0  0  0
 25 19  1  0  0  0  0
 26 27  1  0  0  0  0
 26 17  1  0  0  0  0
 27 29  1  0  0  0  0
 29 28  1  0  0  0  0
 30 27  1  0  0  0  0
 31 30  1  0  0  0  0
 32 31  1  0  0  0  0
 33  3  1  0  0  0  0
 33 34  1  0  0  0  0
 34 36  1  0  0  0  0
 34 35  1  0  0  0  0
 37 34  1  0  0  0  0
M  END
>  <MODEL>
1

>  <REMARK>
 VINA RESULT:      -5.0      0.000      0.000
  Name = 
  8 active torsions:
  status: ('A' for Active; 'I' for Inactive)
    1  A    between atoms: C_1  and  N_4
    2  A    between atoms: C_1  and  C_27
    3  A    between atoms: C_2  and  O_22
    4  A    between atoms: N_4  and  C_12
    5  A    between atoms: N_4  and  C_37
    6  A    between atoms: C_6  and  O_22
    7  A    between atoms: C_8  and  C_12
    8  A    between atoms: N_23  and  C_30
                            x       y       z     vdW  Elec       q    Type
                         _______ _______ _______ _____ _____    ______ ____

>  <TORSDO>
F 8

$$$$
=
 OpenBabel11122413583D

 37 41  0  0  1  0  0  0  0  0999 V2000
  160.3670  205.1480  151.2340 C   0  0  1  0  0  3  0  0  0  0  0  0
  161.1550  208.6800  150.4200 O   0  0  0  0  0  0  0  0  0  0  0  0
  160.3600  202.9180  150.0040 C   0  0  2  0  0  3  0  0  0  0  0  0
  161.0330  206.2060  150.4370 C   0  0  2  0  0  3  0  0  0  0  0  0
  159.7260  204.3100  150.1490 C   0  0  2  0  0  3  0  0  0  0  0  0
  160.8800  207.5350  151.2000 C   0  0  1  0  0  3  0  0  0  0  0  0
  160.4730  202.2170  151.3650 C   0  0  0  0  0  2  0  0  0  0  0  0
  159.7710  205.0100  148.9250 O   0  0  0  0  0  0  0  0  0  0  0  0
  161.6660  205.2120  153.2310 C   0  0  0  0  0  2  0  0  0  0  0  0
  160.7530  203.1870  152.5200 C   0  0  0  0  0  2  0  0  0  0  0  0
  162.9660  207.7520  149.2450 O   0  0  0  0  0  0  0  0  0  0  0  0
  162.5390  208.7590  150.1320 C   0  0  0  0  0  2  0  0  0  0  0  0
  161.3640  204.4230  152.0370 N   0  0  1  0  0  0  0  0  0  0  0  0
  160.3640  206.2320  149.1350 N   0  0  2  0  0  0  0  0  0  0  0  0
  161.5780  207.5590  152.5030 N   0  0  0  0  0  0  0  0  0  0  0  0
  162.0880  207.7530  148.1530 C   0  0  0  0  0  2  0  0  0  0  0  0
  161.3650  206.4050  148.0610 C   0  0  2  0  0  3  0  0  0  0  0  0
  162.4760  206.4630  152.8850 C   0  0  0  0  0  2  0  0  0  0  0  0
  161.5220  209.9370  153.1950 C   0  0  0  0  0  3  0  0  0  0  0  0
  161.2640  208.5830  153.4700 C   0  0  0  0  0  0  0  0  0  0  0  0
  160.6920  208.2450  154.7100 C   0  0  0  0  0  3  0  0  0  0  0  0
  159.8350  208.8940  156.8380 F   0  0  0  0  0  0  0  0  0  0  0  0
  160.6490  210.5760  155.3590 C   0  0  0  0  0  3  0  0  0  0  0  0
  160.3870  209.2350  155.6480 C   0  0  0  0  0  0  0  0  0  0  0  0
  161.2180  210.9270  154.1330 C   0  0  0  0  0  3  0  0  0  0  0  0
  160.6760  206.3170  146.6840 C   0  0  0  0  0  2  0  0  0  0  0  0
  161.1880  205.2560  145.8030 N   0  0  0  0  0  0  0  0  0  0  0  0
  160.0130  203.4940  144.6040 C   0  0  0  0  0  1  0  0  0  0  0  0
  160.2440  204.9880  144.7260 C   0  0  0  0  0  2  0  0  0  0  0  0
  162.4580  205.6570  145.2100 C   0  0  0  0  0  2  0  0  0  0  0  0
  163.4860  204.5530  145.3810 C   0  0  0  0  0  2  0  0  0  0  0  0
  164.2000  204.7480  146.5490 F   0  0  0  0  0  0  0  0  0  0  0  0
  161.6330  203.0120  149.4130 O   0  0  0  0  0  0  0  0  0  0  0  0
  161.6450  202.2000  148.2620 C   0  0  0  0  0  0  0  0  0  0  0  0
  162.3820  202.7930  147.2480 F   0  0  0  0  0  0  0  0  0  0  0  0
  162.1630  200.9460  148.5450 F   0  0  0  0  0  0  0  0  0  0  0  0
  160.3450  202.0460  147.8180 F   0  0  0  0  0  0  0  0  0  0  0  0
  1 13  1  0  0  0  0
  2  6  1  0  0  0  0
  3  5  1  0  0  0  0
  3  7  1  0  0  0  0
  4  6  1  0  0  0  0
  4  1  1  0  0  0  0
  5  1  1  0  0  0  0
  6 15  1  0  0  0  0
  7 10  1  0  0  0  0
  8 14  1  0  0  0  0
  8  5  1  0  0  0  0
 11 12  1  0  0  0  0
 12  2  1  0  0  0  0
 13 10  1  0  0  0  0
 13  9  1  0  0  0  0
 14  4  1  0  0  0  0
 15 18  1  0  0  0  0
 15 20  1  0  0  0  0
 16 11  1  0  0  0  0
 17 16  1  0  0  0  0
 17 14  1  0  0  0  0
 18  9  1  0  0  0  0
 19 20  2  0  0  0  0
 19 25  1  0  0  0  0
 20 21  1  0  0  0  0
 21 24  2  0  0  0  0
 23 24  1  0  0  0  0
 24 22  1  0  0  0  0
 25 23  2  0  0  0  0
 26 17  1  0  0  0  0
 27 26  1  0  0  0  0
 28 29  1  0  0  0  0
 29 27  1  0  0  0  0
 30 31  1  0  0  0  0
 30 27  1  0  0  0  0
 31 32  1  0  0  0  0
 33  3  1  0  0  0  0
 34 36  1  0  0  0  0
 34 33  1  0  0  0  0
 35 34  1  0  0  0  0
 37 34  1  0  0  0  0
M  END
>  <MODEL>
2

>  <REMARK>
 VINA RESULT:      -4.5      2.680      7.327
  Name = 
  8 active torsions:
  status: ('A' for Active; 'I' for Inactive)
    1  A    between atoms: C_1  and  N_4
    2  A    between atoms: C_1  and  C_27
    3  A    between atoms: C_2  and  O_22
    4  A    between atoms: N_4  and  C_12
    5  A    between atoms: N_4  and  C_37
    6  A    between atoms: C_6  and  O_22
    7  A    between atoms: C_8  and  C_12
    8  A    between atoms: N_23  and  C_30
                            x       y       z     vdW  Elec       q    Type
                         _______ _______ _______ _____ _____    ______ ____

>  <TORSDO>
F 8

$$$$
=
 OpenBabel11122413583D

 37 41  0  0  1  0  0  0  0  0999 V2000
  161.8530  211.2090  150.4530 C   0  0  1  0  0  3  0  0  0  0  0  0
  162.0300  207.8270  151.9670 O   0  0  0  0  0  0  0  0  0  0  0  0
  161.4700  212.1840  148.1310 C   0  0  2  0  0  3  0  0  0  0  0  0
  161.5560  209.7560  150.4880 C   0  0  2  0  0  3  0  0  0  0  0  0
  162.3970  211.3720  149.0500 C   0  0  2  0  0  3  0  0  0  0  0  0
  161.9320  209.2340  151.8870 C   0  0  1  0  0  3  0  0  0  0  0  0
  161.0360  213.4950  148.8020 C   0  0  0  0  0  2  0  0  0  0  0  0
  162.6620  210.1020  148.4970 O   0  0  0  0  0  0  0  0  0  0  0  0
  160.3850  212.0040  152.1530 C   0  0  0  0  0  2  0  0  0  0  0  0
  160.8640  213.3660  150.3200 C   0  0  0  0  0  2  0  0  0  0  0  0
  160.1990  207.3690  150.5680 O   0  0  0  0  0  0  0  0  0  0  0  0
  160.7480  207.2370  151.8580 C   0  0  0  0  0  2  0  0  0  0  0  0
  160.6250  211.9780  150.7100 N   0  0  1  0  0  0  0  0  0  0  0  0
  162.3580  209.1400  149.4290 N   0  0  2  0  0  0  0  0  0  0  0  0
  161.1140  209.8050  152.9770 N   0  0  0  0  0  0  0  0  0  0  0  0
  161.1720  206.9500  149.6510 C   0  0  0  0  0  2  0  0  0  0  0  0
  161.5580  208.1120  148.7300 C   0  0  2  0  0  3  0  0  0  0  0  0
  159.9420  210.6350  152.6710 C   0  0  0  0  0  2  0  0  0  0  0  0
  162.3820  210.6490  154.9310 C   0  0  0  0  0  3  0  0  0  0  0  0
  161.5490  209.6780  154.3470 C   0  0  0  0  0  0  0  0  0  0  0  0
  161.1470  208.5800  155.1270 C   0  0  0  0  0  3  0  0  0  0  0  0
  161.1700  207.3920  157.1940 F   0  0  0  0  0  0  0  0  0  0  0  0
  162.3930  209.4290  157.0200 C   0  0  0  0  0  3  0  0  0  0  0  0
  161.5670  208.4560  156.4550 C   0  0  0  0  0  0  0  0  0  0  0  0
  162.8020  210.5250  156.2580 C   0  0  0  0  0  3  0  0  0  0  0  0
  162.3610  207.5430  147.5420 C   0  0  0  0  0  2  0  0  0  0  0  0
  161.8030  206.3190  146.9480 N   0  0  0  0  0  0  0  0  0  0  0  0
  160.3220  205.8980  145.0630 C   0  0  0  0  0  1  0  0  0  0  0  0
  160.4710  206.5720  146.4130 C   0  0  0  0  0  2  0  0  0  0  0  0
  162.6520  205.8490  145.8600 C   0  0  0  0  0  2  0  0  0  0  0  0
  163.3650  204.5720  146.2670 C   0  0  0  0  0  2  0  0  0  0  0  0
  162.6080  203.8840  147.1980 F   0  0  0  0  0  0  0  0  0  0  0  0
  160.3340  211.4320  147.7840 O   0  0  0  0  0  0  0  0  0  0  0  0
  159.6490  212.1160  146.7600 C   0  0  0  0  0  0  0  0  0  0  0  0
  158.3170  212.3030  147.0970 F   0  0  0  0  0  0  0  0  0  0  0  0
  160.2420  213.3420  146.5000 F   0  0  0  0  0  0  0  0  0  0  0  0
  159.7010  211.3530  145.6100 F   0  0  0  0  0  0  0  0  0  0  0  0
  1  4  1  0  0  0  0
  1 13  1  0  0  0  0
  3  7  1  0  0  0  0
  3  5  1  0  0  0  0
  4  6  1  0  0  0  0
  5  1  1  0  0  0  0
  6  2  1  0  0  0  0
  6 15  1  0  0  0  0
  7 10  1  0  0  0  0
  8  5  1  0  0  0  0
  8 14  1  0  0  0  0
  9 18  1  0  0  0  0
 10 13  1  0  0  0  0
 11 12  1  0  0  0  0
 12  2  1  0  0  0  0
 13  9  1  0  0  0  0
 14  4  1  0  0  0  0
 15 20  1  0  0  0  0
 16 11  1  0  0  0  0
 17 14  1  0  0  0  0
 17 16  1  0  0  0  0
 18 15  1  0  0  0  0
 19 25  1  0  0  0  0
 20 19  2  0  0  0  0
 20 21  1  0  0  0  0
 21 24  2  0  0  0  0
 24 23  1  0  0  0  0
 24 22  1  0  0  0  0
 25 23  2  0  0  0  0
 26 17  1  0  0  0  0
 27 26  1  0  0  0  0
 28 29  1  0  0  0  0
 29 27  1  0  0  0  0
 30 31  1  0  0  0  0
 30 27  1  0  0  0  0
 31 32  1  0  0  0  0
 33  3  1  0  0  0  0
 34 35  1  0  0  0  0
 34 33  1  0  0  0  0
 36 34  1  0  0  0  0
 37 34  1  0  0  0  0
M  END
>  <MODEL>
3

>  <REMARK>
 VINA RESULT:      -4.3      3.044      7.756
  Name = 
  8 active torsions:
  status: ('A' for Active; 'I' for Inactive)
    1  A    between atoms: C_1  and  N_4
    2  A    between atoms: C_1  and  C_27
    3  A    between atoms: C_2  and  O_22
    4  A    between atoms: N_4  and  C_12
    5  A    between atoms: N_4  and  C_37
    6  A    between atoms: C_6  and  O_22
    7  A    between atoms: C_8  and  C_12
    8  A    between atoms: N_23  and  C_30
                            x       y       z     vdW  Elec       q    Type
                         _______ _______ _______ _____ _____    ______ ____

>  <TORSDO>
F 8

$$$$
=
 OpenBabel11122413583D

 37 41  0  0  1  0  0  0  0  0999 V2000
  160.3550  205.1320  151.1470 C   0  0  1  0  0  3  0  0  0  0  0  0
  161.1780  208.6610  150.3520 O   0  0  0  0  0  0  0  0  0  0  0  0
  160.3240  202.9090  149.9040 C   0  0  2  0  0  3  0  0  0  0  0  0
  161.0310  206.1890  150.3550 C   0  0  2  0  0  3  0  0  0  0  0  0
  159.7040  204.3070  150.0580 C   0  0  2  0  0  3  0  0  0  0  0  0
  160.8920  207.5150  151.1260 C   0  0  1  0  0  3  0  0  0  0  0  0
  160.4320  202.2000  151.2610 C   0  0  0  0  0  2  0  0  0  0  0  0
  159.7540  205.0140  148.8380 O   0  0  0  0  0  0  0  0  0  0  0  0
  161.6570  205.1720  153.1420 C   0  0  0  0  0  2  0  0  0  0  0  0
  160.7240  203.1600  152.4200 C   0  0  0  0  0  2  0  0  0  0  0  0
  162.9770  207.7220  149.1690 O   0  0  0  0  0  0  0  0  0  0  0  0
  162.5610  208.7280  150.0620 C   0  0  0  0  0  2  0  0  0  0  0  0
  161.3470  204.3920  151.9440 N   0  0  1  0  0  0  0  0  0  0  0  0
  160.3600  206.2290  149.0540 N   0  0  2  0  0  0  0  0  0  0  0  0
  161.5920  207.5240  152.4280 N   0  0  0  0  0  0  0  0  0  0  0  0
  162.0980  207.7380  148.0790 C   0  0  0  0  0  2  0  0  0  0  0  0
  161.3610  206.3980  147.9790 C   0  0  2  0  0  3  0  0  0  0  0  0
  162.4790  206.4160  152.8020 C   0  0  0  0  0  2  0  0  0  0  0  0
  161.1920  208.2300  154.7680 C   0  0  0  0  0  3  0  0  0  0  0  0
  161.2900  208.5450  153.4020 C   0  0  0  0  0  0  0  0  0  0  0  0
  161.0860  209.8780  153.0020 C   0  0  0  0  0  3  0  0  0  0  0  0
  160.6010  212.1480  153.5440 F   0  0  0  0  0  0  0  0  0  0  0  0
  160.7020  210.5390  155.2980 C   0  0  0  0  0  3  0  0  0  0  0  0
  160.7940  210.8680  153.9440 C   0  0  0  0  0  0  0  0  0  0  0  0
  160.9000  209.2190  155.7110 C   0  0  0  0  0  3  0  0  0  0  0  0
  160.6700  206.3250  146.6040 C   0  0  0  0  0  2  0  0  0  0  0  0
  161.4680  205.6900  145.5420 N   0  0  0  0  0  0  0  0  0  0  0  0
  163.6980  204.7200  145.6190 C   0  0  0  0  0  1  0  0  0  0  0  0
  162.2610  204.5960  146.0860 C   0  0  0  0  0  2  0  0  0  0  0  0
  160.5970  205.1540  144.5040 C   0  0  0  0  0  2  0  0  0  0  0  0
  160.3320  203.6800  144.7540 C   0  0  0  0  0  2  0  0  0  0  0  0
  159.2120  203.2750  144.0530 F   0  0  0  0  0  0  0  0  0  0  0  0
  161.5970  202.9950  149.3120 O   0  0  0  0  0  0  0  0  0  0  0  0
  161.6620  202.0470  148.2710 C   0  0  0  0  0  0  0  0  0  0  0  0
  160.4290  201.9070  147.6530 F   0  0  0  0  0  0  0  0  0  0  0  0
  162.6170  202.4070  147.3320 F   0  0  0  0  0  0  0  0  0  0  0  0
  162.0170  200.8260  148.8100 F   0  0  0  0  0  0  0  0  0  0  0  0
  1 13  1  0  0  0  0
  2  6  1  0  0  0  0
  3  5  1  0  0  0  0
  3  7  1  0  0  0  0
  4  6  1  0  0  0  0
  4  1  1  0  0  0  0
  5  1  1  0  0  0  0
  6 15  1  0  0  0  0
  7 10  1  0  0  0  0
  8 14  1  0  0  0  0
  8  5  1  0  0  0  0
 11 12  1  0  0  0  0
 12  2  1  0  0  0  0
 13 10  1  0  0  0  0
 13  9  1  0  0  0  0
 14  4  1  0  0  0  0
 15 18  1  0  0  0  0
 15 20  1  0  0  0  0
 16 11  1  0  0  0  0
 17 16  1  0  0  0  0
 17 14  1  0  0  0  0
 18  9  1  0  0  0  0
 19 25  1  0  0  0  0
 20 19  2  0  0  0  0
 21 20  1  0  0  0  0
 21 24  2  0  0  0  0
 22 24  1  0  0  0  0
 23 25  2  0  0  0  0
 24 23  1  0  0  0  0
 26 17  1  0  0  0  0
 27 29  1  0  0  0  0
 27 26  1  0  0  0  0
 28 29  1  0  0  0  0
 30 31  1  0  0  0  0
 30 27  1  0  0  0  0
 32 31  1  0  0  0  0
 33  3  1  0  0  0  0
 34 37  1  0  0  0  0
 34 33  1  0  0  0  0
 35 34  1  0  0  0  0
 36 34  1  0  0  0  0
M  END
>  <MODEL>
4

>  <REMARK>
 VINA RESULT:      -3.8      2.442      7.311
  Name = 
  8 active torsions:
  status: ('A' for Active; 'I' for Inactive)
    1  A    between atoms: C_1  and  N_4
    2  A    between atoms: C_1  and  C_27
    3  A    between atoms: C_2  and  O_22
    4  A    between atoms: N_4  and  C_12
    5  A    between atoms: N_4  and  C_37
    6  A    between atoms: C_6  and  O_22
    7  A    between atoms: C_8  and  C_12
    8  A    between atoms: N_23  and  C_30
                            x       y       z     vdW  Elec       q    Type
                         _______ _______ _______ _____ _____    ______ ____

>  <TORSDO>
F 8

$$$$
=
 OpenBabel11122413583D

 37 41  0  0  1  0  0  0  0  0999 V2000
  162.3040  208.9760  151.2170 C   0  0  1  0  0  3  0  0  0  0  0  0
  161.6390  207.5880  154.5930 O   0  0  0  0  0  0  0  0  0  0  0  0
  162.2300  208.1300  148.8160 C   0  0  2  0  0  3  0  0  0  0  0  0
  161.6740  208.0120  152.1530 C   0  0  2  0  0  3  0  0  0  0  0  0
  162.9130  208.0460  150.1900 C   0  0  2  0  0  3  0  0  0  0  0  0
  161.8750  208.5470  153.5830 C   0  0  1  0  0  3  0  0  0  0  0  0
  162.0930  209.5880  148.3530 C   0  0  0  0  0  2  0  0  0  0  0  0
  162.8910  206.7240  150.6800 O   0  0  0  0  0  0  0  0  0  0  0  0
  161.0100  210.9290  151.6560 C   0  0  0  0  0  2  0  0  0  0  0  0
  161.8490  210.5650  149.5100 C   0  0  0  0  0  2  0  0  0  0  0  0
  159.7960  206.5730  153.5480 O   0  0  0  0  0  0  0  0  0  0  0  0
  160.2590  207.2840  154.6720 C   0  0  0  0  0  2  0  0  0  0  0  0
  161.2820  209.8830  150.6700 N   0  0  1  0  0  0  0  0  0  0  0  0
  162.3420  206.7270  151.9400 N   0  0  2  0  0  0  0  0  0  0  0  0
  161.1800  209.8240  153.8460 N   0  0  0  0  0  0  0  0  0  0  0  0
  160.6720  205.5000  153.3380 C   0  0  0  0  0  2  0  0  0  0  0  0
  161.3460  205.6340  151.9690 C   0  0  2  0  0  3  0  0  0  0  0  0
  160.2450  210.3780  152.8600 C   0  0  0  0  0  2  0  0  0  0  0  0
  160.6020  211.4910  155.5850 C   0  0  0  0  0  3  0  0  0  0  0  0
  161.5320  210.6120  155.0030 C   0  0  0  0  0  0  0  0  0  0  0  0
  162.8130  210.5140  155.5730 C   0  0  0  0  0  3  0  0  0  0  0  0
  164.3940  211.1700  157.2330 F   0  0  0  0  0  0  0  0  0  0  0  0
  162.2190  212.1440  157.2610 C   0  0  0  0  0  3  0  0  0  0  0  0
  163.1550  211.2760  156.6950 C   0  0  0  0  0  0  0  0  0  0  0  0
  160.9430  212.2530  156.7050 C   0  0  0  0  0  3  0  0  0  0  0  0
  162.0300  204.2950  151.6310 C   0  0  0  0  0  2  0  0  0  0  0  0
  161.1090  203.1690  151.4050 N   0  0  0  0  0  0  0  0  0  0  0  0
  161.2820  203.5770  149.0120 C   0  0  0  0  0  1  0  0  0  0  0  0
  160.3410  203.3760  150.1850 C   0  0  0  0  0  2  0  0  0  0  0  0
  161.8520  201.9230  151.2730 C   0  0  0  0  0  2  0  0  0  0  0  0
  160.9940  200.8730  150.5900 C   0  0  0  0  0  2  0  0  0  0  0  0
  161.5520  200.5240  149.3740 F   0  0  0  0  0  0  0  0  0  0  0  0
  160.9600  207.5260  148.8570 O   0  0  0  0  0  0  0  0  0  0  0  0
  160.8540  206.6520  147.7560 C   0  0  0  0  0  0  0  0  0  0  0  0
  160.6440  207.3610  146.5830 F   0  0  0  0  0  0  0  0  0  0  0  0
  161.9910  205.8690  147.6330 F   0  0  0  0  0  0  0  0  0  0  0  0
  159.7700  205.8200  147.9580 F   0  0  0  0  0  0  0  0  0  0  0  0
  1  4  1  0  0  0  0
  2 12  1  0  0  0  0
  3 33  1  0  0  0  0
  3  5  1  0  0  0  0
  4  6  1  0  0  0  0
  5  8  1  0  0  0  0
  5  1  1  0  0  0  0
  6 15  1  0  0  0  0
  6  2  1  0  0  0  0
  7  3  1  0  0  0  0
  7 10  1  0  0  0  0
  8 14  1  0  0  0  0
  9 18  1  0  0  0  0
 10 13  1  0  0  0  0
 11 12  1  0  0  0  0
 13  1  1  0  0  0  0
 13  9  1  0  0  0  0
 14 17  1  0  0  0  0
 14  4  1  0  0  0  0
 15 20  1  0  0  0  0
 16 11  1  0  0  0  0
 17 16  1  0  0  0  0
 18 15  1  0  0  0  0
 19 25  1  0  0  0  0
 20 21  1  0  0  0  0
 20 19  2  0  0  0  0
 21 24  2  0  0  0  0
 24 22  1  0  0  0  0
 24 23  1  0  0  0  0
 25 23  2  0  0  0  0
 26 17  1  0  0  0  0
 27 26  1  0  0  0  0
 28 29  1  0  0  0  0
 29 27  1  0  0  0  0
 30 27  1  0  0  0  0
 31 30  1  0  0  0  0
 32 31  1  0  0  0  0
 34 37  1  0  0  0  0
 34 33  1  0  0  0  0
 35 34  1  0  0  0  0
 36 34  1  0  0  0  0
M  END
>  <MODEL>
5

>  <REMARK>
 VINA RESULT:      -3.3      2.971      8.652
  Name = 
  8 active torsions:
  status: ('A' for Active; 'I' for Inactive)
    1  A    between atoms: C_1  and  N_4
    2  A    between atoms: C_1  and  C_27
    3  A    between atoms: C_2  and  O_22
    4  A    between atoms: N_4  and  C_12
    5  A    between atoms: N_4  and  C_37
    6  A    between atoms: C_6  and  O_22
    7  A    between atoms: C_8  and  C_12
    8  A    between atoms: N_23  and  C_30
                            x       y       z     vdW  Elec       q    Type
                         _______ _______ _______ _____ _____    ______ ____

>  <TORSDO>
F 8

$$$$
=
 OpenBabel11122413583D

 37 41  0  0  1  0  0  0  0  0999 V2000
  160.6620  206.8430  151.3990 C   0  0  1  0  0  3  0  0  0  0  0  0
  161.3270  208.5480  148.1710 O   0  0  0  0  0  0  0  0  0  0  0  0
  160.7320  204.4570  152.2840 C   0  0  2  0  0  3  0  0  0  0  0  0
  161.2900  206.9440  150.0590 C   0  0  2  0  0  3  0  0  0  0  0  0
  160.0500  205.4600  151.3420 C   0  0  2  0  0  3  0  0  0  0  0  0
  161.0920  208.3860  149.5540 C   0  0  1  0  0  3  0  0  0  0  0  0
  160.8710  205.0330  153.7000 C   0  0  0  0  0  2  0  0  0  0  0  0
  160.0690  204.9910  150.0120 O   0  0  0  0  0  0  0  0  0  0  0  0
  161.9600  208.4270  152.6180 C   0  0  0  0  0  2  0  0  0  0  0  0
  161.1180  206.5460  153.7120 C   0  0  0  0  0  2  0  0  0  0  0  0
  163.1670  207.0920  148.0580 O   0  0  0  0  0  0  0  0  0  0  0  0
  162.7060  208.4120  147.8860 C   0  0  0  0  0  2  0  0  0  0  0  0
  161.6850  207.0000  152.4450 N   0  0  1  0  0  0  0  0  0  0  0  0
  160.6200  205.9600  149.2070 N   0  0  2  0  0  0  0  0  0  0  0  0
  161.7900  209.4040  150.3680 N   0  0  0  0  0  0  0  0  0  0  0  0
  162.2890  206.2460  147.3680 C   0  0  0  0  0  2  0  0  0  0  0  0
  161.6130  205.2810  148.3480 C   0  0  2  0  0  3  0  0  0  0  0  0
  162.7260  208.9980  151.4230 C   0  0  0  0  0  2  0  0  0  0  0  0
  161.9000  211.5520  149.1380 C   0  0  0  0  0  3  0  0  0  0  0  0
  161.4420  210.7980  150.2330 C   0  0  0  0  0  0  0  0  0  0  0  0
  160.6350  211.4300  151.1960 C   0  0  0  0  0  3  0  0  0  0  0  0
  159.5180  213.3760  152.0020 F   0  0  0  0  0  0  0  0  0  0  0  0
  160.7590  213.5150  149.9720 C   0  0  0  0  0  3  0  0  0  0  0  0
  160.2960  212.7810  151.0660 C   0  0  0  0  0  0  0  0  0  0  0  0
  161.5620  212.9020  149.0090 C   0  0  0  0  0  3  0  0  0  0  0  0
  160.9260  204.1660  147.5350 C   0  0  0  0  0  2  0  0  0  0  0  0
  161.7880  203.5020  146.5440 N   0  0  0  0  0  0  0  0  0  0  0  0
  160.8310  201.4150  147.3510 C   0  0  0  0  0  1  0  0  0  0  0  0
  161.2050  202.2330  146.1300 C   0  0  0  0  0  2  0  0  0  0  0  0
  161.9450  204.3410  145.3630 C   0  0  0  0  0  2  0  0  0  0  0  0
  160.6150  204.4850  144.6440 C   0  0  0  0  0  2  0  0  0  0  0  0
  160.0800  205.7370  144.8840 F   0  0  0  0  0  0  0  0  0  0  0  0
  162.0000  204.0990  151.7930 O   0  0  0  0  0  0  0  0  0  0  0  0
  161.9760  202.7260  151.4730 C   0  0  0  0  0  0  0  0  0  0  0  0
  161.9480  202.5400  150.0990 F   0  0  0  0  0  0  0  0  0  0  0  0
  163.0750  202.0730  152.0110 F   0  0  0  0  0  0  0  0  0  0  0  0
  160.8320  202.1690  152.0090 F   0  0  0  0  0  0  0  0  0  0  0  0
  1 13  1  0  0  0  0
  2  6  1  0  0  0  0
  3  7  1  0  0  0  0
  4  1  1  0  0  0  0
  5  1  1  0  0  0  0
  5  3  1  0  0  0  0
  6  4  1  0  0  0  0
  6 15  1  0  0  0  0
  7 10  1  0  0  0  0
  8  5  1  0  0  0  0
 12 11  1  0  0  0  0
 12  2  1  0  0  0  0
 13  9  1  0  0  0  0
 13 10  1  0  0  0  0
 14  8  1  0  0  0  0
 14  4  1  0  0  0  0
 15 18  1  0  0  0  0
 16 11  1  0  0  0  0
 16 17  1  0  0  0  0
 17 14  1  0  0  0  0
 18  9  1  0  0  0  0
 19 20  1  0  0  0  0
 20 15  1  0  0  0  0
 20 21  2  0  0  0  0
 23 24  2  0  0  0  0
 24 21  1  0  0  0  0
 24 22  1  0  0  0  0
 25 19  2  0  0  0  0
 25 23  1  0  0  0  0
 26 17  1  0  0  0  0
 27 26  1  0  0  0  0
 29 27  1  0  0  0  0
 29 28  1  0  0  0  0
 30 27  1  0  0  0  0
 31 32  1  0  0  0  0
 31 30  1  0  0  0  0
 33  3  1  0  0  0  0
 34 33  1  0  0  0  0
 34 37  1  0  0  0  0
 34 36  1  0  0  0  0
 35 34  1  0  0  0  0
M  END
>  <MODEL>
6

>  <REMARK>
 VINA RESULT:      -3.0      2.769      7.270
  Name = 
  8 active torsions:
  status: ('A' for Active; 'I' for Inactive)
    1  A    between atoms: C_1  and  N_4
    2  A    between atoms: C_1  and  C_27
    3  A    between atoms: C_2  and  O_22
    4  A    between atoms: N_4  and  C_12
    5  A    between atoms: N_4  and  C_37
    6  A    between atoms: C_6  and  O_22
    7  A    between atoms: C_8  and  C_12
    8  A    between atoms: N_23  and  C_30
                            x       y       z     vdW  Elec       q    Type
                         _______ _______ _______ _____ _____    ______ ____

>  <TORSDO>
F 8

$$$$
=
 OpenBabel11122413583D

 37 41  0  0  1  0  0  0  0  0999 V2000
  160.7390  206.1620  150.6160 C   0  0  1  0  0  3  0  0  0  0  0  0
  161.2330  209.4970  152.1650 O   0  0  0  0  0  0  0  0  0  0  0  0
  161.0750  205.1150  148.3180 C   0  0  2  0  0  3  0  0  0  0  0  0
  161.3640  207.5040  150.6980 C   0  0  2  0  0  3  0  0  0  0  0  0
  160.2910  206.1250  149.1700 C   0  0  2  0  0  3  0  0  0  0  0  0
  161.0050  208.1060  152.0700 C   0  0  1  0  0  3  0  0  0  0  0  0
  161.1330  203.7420  149.0010 C   0  0  0  0  0  2  0  0  0  0  0  0
  160.3760  207.4200  148.6180 O   0  0  0  0  0  0  0  0  0  0  0  0
  161.8340  205.0510  152.4170 C   0  0  0  0  0  2  0  0  0  0  0  0
  161.2040  203.8330  150.5300 C   0  0  0  0  0  2  0  0  0  0  0  0
  163.2300  209.5080  150.9270 O   0  0  0  0  0  0  0  0  0  0  0  0
  162.6210  209.7700  152.1700 C   0  0  0  0  0  2  0  0  0  0  0  0
  161.7270  205.1270  150.9600 N   0  0  1  0  0  0  0  0  0  0  0  0
  160.8190  208.2880  149.5880 N   0  0  2  0  0  0  0  0  0  0  0  0
  161.5730  207.3630  153.2140 N   0  0  0  0  0  0  0  0  0  0  0  0
  162.4610  210.1390  149.9410 C   0  0  0  0  0  2  0  0  0  0  0  0
  161.8920  209.0980  148.9720 C   0  0  2  0  0  3  0  0  0  0  0  0
  162.5400  206.2800  152.9920 C   0  0  0  0  0  2  0  0  0  0  0  0
  161.5800  208.6320  155.3410 C   0  0  0  0  0  3  0  0  0  0  0  0
  161.0680  207.5920  154.5460 C   0  0  0  0  0  0  0  0  0  0  0  0
  160.0500  206.7790  155.0760 C   0  0  0  0  0  3  0  0  0  0  0  0
  158.5770  206.2090  156.8620 F   0  0  0  0  0  0  0  0  0  0  0  0
  160.0780  208.0380  157.1420 C   0  0  0  0  0  3  0  0  0  0  0  0
  159.5590  207.0010  156.3660 C   0  0  0  0  0  0  0  0  0  0  0  0
  161.0900  208.8540  156.6310 C   0  0  0  0  0  3  0  0  0  0  0  0
  161.3460  209.8340  147.7330 C   0  0  0  0  0  2  0  0  0  0  0  0
  161.3360  211.3020  147.8390 N   0  0  0  0  0  0  0  0  0  0  0  0
  162.7350  213.2540  148.2310 C   0  0  0  0  0  1  0  0  0  0  0  0
  162.6860  211.8320  147.7070 C   0  0  0  0  0  2  0  0  0  0  0  0
  160.5100  211.8810  146.7880 C   0  0  0  0  0  2  0  0  0  0  0  0
  159.4270  212.7550  147.3950 C   0  0  0  0  0  2  0  0  0  0  0  0
  159.6910  212.9720  148.7350 F   0  0  0  0  0  0  0  0  0  0  0  0
  162.3810  205.5800  148.0770 O   0  0  0  0  0  0  0  0  0  0  0  0
  162.6750  205.3780  146.7130 C   0  0  0  0  0  0  0  0  0  0  0  0
  161.8310  204.4250  146.1630 F   0  0  0  0  0  0  0  0  0  0  0  0
  162.5670  206.5640  146.0030 F   0  0  0  0  0  0  0  0  0  0  0  0
  163.9730  204.9200  146.6060 F   0  0  0  0  0  0  0  0  0  0  0  0
  1  4  1  0  0  0  0
  1 13  1  0  0  0  0
  2 12  1  0  0  0  0
  3  7  1  0  0  0  0
  3  5  1  0  0  0  0
  4  6  1  0  0  0  0
  5  1  1  0  0  0  0
  6  2  1  0  0  0  0
  6 15  1  0  0  0  0
  7 10  1  0  0  0  0
  8  5  1  0  0  0  0
  8 14  1  0  0  0  0
  9 18  1  0  0  0  0
 10 13  1  0  0  0  0
 11 12  1  0  0  0  0
 13  9  1  0  0  0  0
 14  4  1  0  0  0  0
 15 20  1  0  0  0  0
 16 11  1  0  0  0  0
 17 14  1  0  0  0  0
 17 16  1  0  0  0  0
 18 15  1  0  0  0  0
 19 25  1  0  0  0  0
 20 21  1  0  0  0  0
 20 19  2  0  0  0  0
 21 24  2  0  0  0  0
 24 22  1  0  0  0  0
 24 23  1  0  0  0  0
 25 23  2  0  0  0  0
 26 27  1  0  0  0  0
 26 17  1  0  0  0  0
 29 27  1  0  0  0  0
 29 28  1  0  0  0  0
 30 31  1  0  0  0  0
 30 27  1  0  0  0  0
 31 32  1  0  0  0  0
 33  3  1  0  0  0  0
 34 33  1  0  0  0  0
 35 34  1  0  0  0  0
 36 34  1  0  0  0  0
 37 34  1  0  0  0  0
M  END
>  <MODEL>
7

>  <REMARK>
 VINA RESULT:      -2.9      2.408      6.456
  Name = 
  8 active torsions:
  status: ('A' for Active; 'I' for Inactive)
    1  A    between atoms: C_1  and  N_4
    2  A    between atoms: C_1  and  C_27
    3  A    between atoms: C_2  and  O_22
    4  A    between atoms: N_4  and  C_12
    5  A    between atoms: N_4  and  C_37
    6  A    between atoms: C_6  and  O_22
    7  A    between atoms: C_8  and  C_12
    8  A    between atoms: N_23  and  C_30
                            x       y       z     vdW  Elec       q    Type
                         _______ _______ _______ _____ _____    ______ ____

>  <TORSDO>
F 8

$$$$
=
 OpenBabel11122413583D

 37 41  0  0  1  0  0  0  0  0999 V2000
  161.9390  205.7400  151.2090 C   0  0  1  0  0  3  0  0  0  0  0  0
  162.6630  208.2160  148.5430 O   0  0  0  0  0  0  0  0  0  0  0  0
  161.3500  205.8010  153.6860 C   0  0  2  0  0  3  0  0  0  0  0  0
  161.8640  207.0900  150.6000 C   0  0  2  0  0  3  0  0  0  0  0  0
  162.4130  206.0670  152.6090 C   0  0  2  0  0  3  0  0  0  0  0  0
  162.3530  206.9760  149.1440 C   0  0  1  0  0  3  0  0  0  0  0  0
  160.7430  204.3990  153.5310 C   0  0  0  0  0  2  0  0  0  0  0  0
  162.8500  207.4070  152.6580 O   0  0  0  0  0  0  0  0  0  0  0  0
  160.4160  204.5420  149.8230 C   0  0  0  0  0  2  0  0  0  0  0  0
  160.6340  203.9500  152.0690 C   0  0  0  0  0  2  0  0  0  0  0  0
  160.8830  209.4110  149.5050 O   0  0  0  0  0  0  0  0  0  0  0  0
  161.4820  208.9610  148.3120 C   0  0  0  0  0  2  0  0  0  0  0  0
  160.6170  205.0950  151.1620 N   0  0  1  0  0  0  0  0  0  0  0  0
  162.7190  207.9620  151.4070 N   0  0  2  0  0  0  0  0  0  0  0  0
  161.4900  206.1350  148.2880 N   0  0  0  0  0  0  0  0  0  0  0  0
  161.8820  210.0250  150.2710 C   0  0  0  0  0  2  0  0  0  0  0  0
  162.0640  209.2740  151.5940 C   0  0  2  0  0  3  0  0  0  0  0  0
  160.1980  205.6470  148.7880 C   0  0  0  0  0  2  0  0  0  0  0  0
  163.1320  204.8670  146.9360 C   0  0  0  0  0  3  0  0  0  0  0  0
  161.9760  205.6630  147.0150 C   0  0  0  0  0  0  0  0  0  0  0  0
  161.3020  205.9910  145.8250 C   0  0  0  0  0  3  0  0  0  0  0  0
  161.1120  205.8580  143.4520 F   0  0  0  0  0  0  0  0  0  0  0  0
  162.9220  204.7430  144.5290 C   0  0  0  0  0  3  0  0  0  0  0  0
  161.7720  205.5340  144.5900 C   0  0  0  0  0  0  0  0  0  0  0  0
  163.6030  204.4100  145.7020 C   0  0  0  0  0  3  0  0  0  0  0  0
  162.9090  210.1510  152.5380 C   0  0  0  0  0  2  0  0  0  0  0  0
  162.1420  210.8700  153.5680 N   0  0  0  0  0  0  0  0  0  0  0  0
  160.1150  212.0500  152.9160 C   0  0  0  0  0  1  0  0  0  0  0  0
  160.7110  210.7200  153.3350 C   0  0  0  0  0  2  0  0  0  0  0  0
  162.4480  210.3420  154.8910 C   0  0  0  0  0  2  0  0  0  0  0  0
  161.6760  211.1070  155.9510 C   0  0  0  0  0  2  0  0  0  0  0  0
  161.0650  210.2230  156.8210 F   0  0  0  0  0  0  0  0  0  0  0  0
  160.3300  206.7670  153.6250 O   0  0  0  0  0  0  0  0  0  0  0  0
  160.1940  207.3450  154.9030 C   0  0  0  0  0  0  0  0  0  0  0  0
  161.4100  207.3620  155.5690 F   0  0  0  0  0  0  0  0  0  0  0  0
  159.6920  208.6350  154.8130 F   0  0  0  0  0  0  0  0  0  0  0  0
  159.3090  206.5820  155.6390 F   0  0  0  0  0  0  0  0  0  0  0  0
  1  5  1  0  0  0  0
  2  6  1  0  0  0  0
  4  1  1  0  0  0  0
  4 14  1  0  0  0  0
  5  8  1  0  0  0  0
  5  3  1  0  0  0  0
  6  4  1  0  0  0  0
  7  3  1  0  0  0  0
  9 13  1  0  0  0  0
 10  7  1  0  0  0  0
 11 16  1  0  0  0  0
 12  2  1  0  0  0  0
 12 11  1  0  0  0  0
 13  1  1  0  0  0  0
 13 10  1  0  0  0  0
 14 17  1  0  0  0  0
 14  8  1  0  0  0  0
 15 18  1  0  0  0  0
 15  6  1  0  0  0  0
 16 17  1  0  0  0  0
 17 26  1  0  0  0  0
 18  9  1  0  0  0  0
 19 20  1  0  0  0  0
 20 15  1  0  0  0  0
 21 20  2  0  0  0  0
 22 24  1  0  0  0  0
 23 24  2  0  0  0  0
 23 25  1  0  0  0  0
 24 21  1  0  0  0  0
 25 19  2  0  0  0  0
 26 27  1  0  0  0  0
 27 30  1  0  0  0  0
 28 29  1  0  0  0  0
 29 27  1  0  0  0  0
 30 31  1  0  0  0  0
 31 32  1  0  0  0  0
 33  3  1  0  0  0  0
 33 34  1  0  0  0  0
 34 35  1  0  0  0  0
 34 37  1  0  0  0  0
 36 34  1  0  0  0  0
M  END
>  <MODEL>
8

>  <REMARK>
 VINA RESULT:      -2.7      2.824      3.967
  Name = 
  8 active torsions:
  status: ('A' for Active; 'I' for Inactive)
    1  A    between atoms: C_1  and  N_4
    2  A    between atoms: C_1  and  C_27
    3  A    between atoms: C_2  and  O_22
    4  A    between atoms: N_4  and  C_12
    5  A    between atoms: N_4  and  C_37
    6  A    between atoms: C_6  and  O_22
    7  A    between atoms: C_8  and  C_12
    8  A    between atoms: N_23  and  C_30
                            x       y       z     vdW  Elec       q    Type
                         _______ _______ _______ _____ _____    ______ ____

>  <TORSDO>
F 8

$$$$
=
 OpenBabel11122413583D

 37 41  0  0  1  0  0  0  0  0999 V2000
  161.1830  207.9260  149.8730 C   0  0  1  0  0  3  0  0  0  0  0  0
  160.7790  204.3360  150.7180 O   0  0  0  0  0  0  0  0  0  0  0  0
  161.6020  210.0950  151.1420 C   0  0  2  0  0  3  0  0  0  0  0  0
  161.3730  206.7410  150.7450 C   0  0  2  0  0  3  0  0  0  0  0  0
  160.6320  208.9380  150.8550 C   0  0  2  0  0  3  0  0  0  0  0  0
  160.9800  205.4930  149.9330 C   0  0  1  0  0  3  0  0  0  0  0  0
  162.1420  210.7010  149.8390 C   0  0  0  0  0  2  0  0  0  0  0  0
  160.2650  208.2840  152.0500 O   0  0  0  0  0  0  0  0  0  0  0  0
  162.7300  207.4450  148.1270 C   0  0  0  0  0  2  0  0  0  0  0  0
  162.3260  209.6640  148.7240 C   0  0  0  0  0  2  0  0  0  0  0  0
  162.5510  204.7370  152.2090 O   0  0  0  0  0  0  0  0  0  0  0  0
  162.0120  203.8730  151.2360 C   0  0  0  0  0  2  0  0  0  0  0  0
  162.4680  208.3170  149.2720 N   0  0  1  0  0  0  0  0  0  0  0  0
  160.5120  206.9390  151.9130 N   0  0  2  0  0  0  0  0  0  0  0  0
  161.8530  205.2390  148.7680 N   0  0  0  0  0  0  0  0  0  0  0  0
  161.5360  205.0130  153.1340 C   0  0  0  0  0  2  0  0  0  0  0  0
  161.2230  206.5130  153.1370 C   0  0  2  0  0  3  0  0  0  0  0  0
  163.0780  206.0240  148.5730 C   0  0  0  0  0  2  0  0  0  0  0  0
  161.1990  202.9690  148.0240 C   0  0  0  0  0  3  0  0  0  0  0  0
  161.4300  204.3250  147.7350 C   0  0  0  0  0  0  0  0  0  0  0  0
  161.2410  204.7740  146.4160 C   0  0  0  0  0  3  0  0  0  0  0  0
  160.6520  204.3370  144.1470 F   0  0  0  0  0  0  0  0  0  0  0  0
  160.6050  202.5460  145.7180 C   0  0  0  0  0  3  0  0  0  0  0  0
  160.8310  203.8890  145.4130 C   0  0  0  0  0  0  0  0  0  0  0  0
  160.7890  202.0840  147.0230 C   0  0  0  0  0  3  0  0  0  0  0  0
  160.3630  206.8270  154.3770 C   0  0  0  0  0  2  0  0  0  0  0  0
  160.7970  208.0030  155.1500 N   0  0  0  0  0  0  0  0  0  0  0  0
  159.4310  210.0170  155.1220 C   0  0  0  0  0  1  0  0  0  0  0  0
  159.6520  208.6600  155.7640 C   0  0  0  0  0  2  0  0  0  0  0  0
  161.7190  207.6040  156.2060 C   0  0  0  0  0  2  0  0  0  0  0  0
  161.8060  208.6930  157.2610 C   0  0  0  0  0  2  0  0  0  0  0  0
  163.0710  209.2520  157.2610 F   0  0  0  0  0  0  0  0  0  0  0  0
  162.6750  209.6540  151.9390 O   0  0  0  0  0  0  0  0  0  0  0  0
  162.6360  210.3610  153.1580 C   0  0  0  0  0  0  0  0  0  0  0  0
  163.8270  211.0370  153.3740 F   0  0  0  0  0  0  0  0  0  0  0  0
  161.5790  211.2580  153.1770 F   0  0  0  0  0  0  0  0  0  0  0  0
  162.4600  209.4550  154.1860 F   0  0  0  0  0  0  0  0  0  0  0  0
  1  4  1  0  0  0  0
  1  5  1  0  0  0  0
  2 12  1  0  0  0  0
  3 33  1  0  0  0  0
  4 14  1  0  0  0  0
  5  3  1  0  0  0  0
  5  8  1  0  0  0  0
  6  2  1  0  0  0  0
  6  4  1  0  0  0  0
  7  3  1  0  0  0  0
  9 18  1  0  0  0  0
  9 13  1  0  0  0  0
 10 13  1  0  0  0  0
 10  7  1  0  0  0  0
 11 16  1  0  0  0  0
 12 11  1  0  0  0  0
 13  1  1  0  0  0  0
 14  8  1  0  0  0  0
 14 17  1  0  0  0  0
 15  6  1  0  0  0  0
 16 17  1  0  0  0  0
 17 26  1  0  0  0  0
 18 15  1  0  0  0  0
 20 19  1  0  0  0  0
 20 15  1  0  0  0  0
 21 20  2  0  0  0  0
 22 24  1  0  0  0  0
 23 25  1  0  0  0  0
 24 23  2  0  0  0  0
 24 21  1  0  0  0  0
 25 19  2  0  0  0  0
 26 27  1  0  0  0  0
 27 29  1  0  0  0  0
 27 30  1  0  0  0  0
 28 29  1  0  0  0  0
 30 31  1  0  0  0  0
 31 32  1  0  0  0  0
 33 34  1  0  0  0  0
 34 36  1  0  0  0  0
 34 35  1  0  0  0  0
 34 37  1  0  0  0  0
M  END
>  <MODEL>
9

>  <REMARK>
 VINA RESULT:      -2.7      2.201      4.961
  Name = 
  8 active torsions:
  status: ('A' for Active; 'I' for Inactive)
    1  A    between atoms: C_1  and  N_4
    2  A    between atoms: C_1  and  C_27
    3  A    between atoms: C_2  and  O_22
    4  A    between atoms: N_4  and  C_12
    5  A    between atoms: N_4  and  C_37
    6  A    between atoms: C_6  and  O_22
    7  A    between atoms: C_8  and  C_12
    8  A    between atoms: N_23  and  C_30
                            x       y       z     vdW  Elec       q    Type
                         _______ _______ _______ _____ _____    ______ ____

>  <TORSDO>
F 8

$$$$
