=
 OpenBabel11122414363D

 34 40  0  0  1  0  0  0  0  0999 V2000
  160.9600  204.2690  151.3190 C   0  0  0  0  0  0  0  0  0  0  0  0
  160.9680  206.2710  153.0290 C   0  0  0  0  0  3  0  0  0  0  0  0
  160.2410  201.9330  145.2100 C   0  0  0  0  0  0  0  0  0  0  0  0
  160.9870  202.5360  149.6060 C   0  0  0  0  0  0  0  0  0  0  0  0
  161.0410  203.1980  147.2550 C   0  0  0  0  0  0  0  0  0  0  0  0
  161.2800  204.1920  144.9110 C   0  0  0  0  0  1  0  0  0  0  0  0
  159.2090  202.3030  144.5870 O   0  0  0  0  0  0  0  0  0  0  0  0
  161.7950  200.0720  146.5040 S   0  0  0  0  0  0  0  0  0  0  0  0
  160.9860  206.6250  150.7260 C   0  0  0  0  0  0  0  0  0  0  0  0
  162.1790  209.2330  149.4010 C   0  0  0  0  0  2  0  0  0  0  0  0
  161.0450  204.5010  147.6590 N   0  0  0  0  0  0  0  0  0  0  0  0
  160.8540  200.6830  147.9320 C   0  0  0  0  0  2  0  0  0  0  0  0
  161.0090  206.2740  149.3290 N   0  0  0  0  0  0  0  0  0  0  0  0
  160.9980  207.7820  152.7920 C   0  0  0  0  0  3  0  0  0  0  0  0
  161.0160  202.1610  148.2430 C   0  0  0  0  0  0  0  0  0  0  0  0
  160.4690  200.5490  145.4420 N   0  0  0  0  0  2  0  0  0  0  0  0
  162.3070  208.7220  150.8340 C   0  0  2  0  0  3  0  0  0  0  0  0
  160.9880  203.8970  149.9610 C   0  0  0  0  0  0  0  0  0  0  0  0
  161.2080  202.9320  145.7690 C   0  0  2  0  0  3  0  0  0  0  0  0
  161.0110  204.8780  148.9620 C   0  0  0  0  0  0  0  0  0  0  0  0
  160.9250  201.9900  151.9720 C   0  0  0  0  0  3  0  0  0  0  0  0
  162.3070  208.1180  148.3750 C   0  0  0  0  0  2  0  0  0  0  0  0
  160.9530  201.5810  150.6350 C   0  0  0  0  0  3  0  0  0  0  0  0
  161.0230  207.3070  148.2990 C   0  0  0  0  0  2  0  0  0  0  0  0
  161.0210  208.0070  151.2720 C   0  0  1  0  0  3  0  0  0  0  0  0
  160.9300  203.3130  152.2850 N   0  0  0  0  0  0  0  0  0  0  0  0
  160.9640  205.7010  151.6650 C   0  0  0  0  0  0  0  0  0  0  0  0
  162.5670  209.8140  151.6690 O   0  0  0  0  0  0  0  0  0  0  0  0
  161.6010  210.7210  151.3730 N   0  0  0  0  0  2  0  0  0  0  0  0
  160.1580  211.8620  154.4620 N   0  0  0  0  0  0  0  0  0  0  0  0
  159.8600  212.2270  152.1830 C   0  0  0  0  0  3  0  0  0  0  0  0
  160.8320  211.3580  152.3950 C   0  0  0  0  0  0  0  0  0  0  0  0
  159.3410  212.6280  153.5260 C   0  0  0  0  0  3  0  0  0  0  0  0
  161.0060  211.1400  153.8110 C   0  0  0  0  0  2  0  0  0  0  0  0
  1 27  1  0  0  0  0
  1 26  1  0  0  0  0
  3 16  1  0  0  0  0
  3 19  1  0  0  0  0
  4 18  1  0  0  0  0
  4 23  2  0  0  0  0
  5 11  1  0  0  0  0
  5 15  2  0  0  0  0
  7  3  2  0  0  0  0
  8 12  1  0  0  0  0
  9 25  1  0  0  0  0
  9 27  2  0  0  0  0
 10 17  1  0  0  0  0
 11 20  2  0  0  0  0
 12 15  1  0  0  0  0
 13  9  1  0  0  0  0
 14  2  2  0  0  0  0
 15  4  1  0  0  0  0
 16  8  1  0  0  0  0
 17 25  1  0  0  0  0
 17 28  1  1  0  0  0
 18  1  2  0  0  0  0
 19  6  1  6  0  0  0
 19  5  1  0  0  0  0
 20 13  1  0  0  0  0
 20 18  1  0  0  0  0
 21 26  2  0  0  0  0
 22 10  1  0  0  0  0
 23 21  1  0  0  0  0
 24 22  1  0  0  0  0
 24 13  1  0  0  0  0
 25 14  1  1  0  0  0
 27  2  1  0  0  0  0
 29 28  1  0  0  0  0
 29 32  1  0  0  0  0
 31 32  2  0  0  0  0
 31 33  1  0  0  0  0
 32 34  1  0  0  0  0
 33 30  2  0  0  0  0
 34 30  1  0  0  0  0
M  END
>  <MODEL>
1

>  <REMARK>
 VINA RESULT:      -9.7      0.000      0.000
  Name = 
  3 active torsions:
  status: ('A' for Active; 'I' for Inactive)
    1  A    between atoms: C_17  and  O_28
    2  A    between atoms: O_28  and  N_29
    3  A    between atoms: N_29  and  C_32
                            x       y       z     vdW  Elec       q    Type
                         _______ _______ _______ _____ _____    ______ ____

>  <TORSDO>
F 3

$$$$
=
 OpenBabel11122414363D

 34 40  0  0  1  0  0  0  0  0999 V2000
  161.6270  208.4770  149.4210 C   0  0  0  0  0  0  0  0  0  0  0  0
  161.5660  207.1360  147.1550 C   0  0  0  0  0  3  0  0  0  0  0  0
  160.0880  209.0680  155.7900 C   0  0  0  0  0  0  0  0  0  0  0  0
  161.6590  209.5600  151.6030 C   0  0  0  0  0  0  0  0  0  0  0  0
  161.0220  208.2670  153.5750 C   0  0  0  0  0  0  0  0  0  0  0  0
  160.4860  206.6180  155.4550 C   0  0  0  0  0  1  0  0  0  0  0  0
  158.8850  208.8520  156.0980 O   0  0  0  0  0  0  0  0  0  0  0  0
  162.2800  210.6870  155.4360 S   0  0  0  0  0  0  0  0  0  0  0  0
  160.9770  206.1490  149.1820 C   0  0  0  0  0  0  0  0  0  0  0  0
  161.2060  203.0410  149.7050 C   0  0  0  0  0  2  0  0  0  0  0  0
  160.8200  207.1920  152.7610 N   0  0  0  0  0  0  0  0  0  0  0  0
  161.5760  210.8110  153.7670 C   0  0  0  0  0  2  0  0  0  0  0  0
  160.7600  206.0620  150.6030 N   0  0  0  0  0  0  0  0  0  0  0  0
  161.1940  205.6800  146.8710 C   0  0  0  0  0  3  0  0  0  0  0  0
  161.4610  209.5040  153.0020 C   0  0  0  0  0  0  0  0  0  0  0  0
  160.6740  210.3330  156.0740 N   0  0  0  0  0  2  0  0  0  0  0  0
  161.7710  203.8810  148.5630 C   0  0  2  0  0  3  0  0  0  0  0  0
  161.4290  208.4200  150.8140 C   0  0  0  0  0  0  0  0  0  0  0  0
  160.9020  208.0360  155.0720 C   0  0  2  0  0  3  0  0  0  0  0  0
  160.9980  207.2310  151.4160 C   0  0  0  0  0  0  0  0  0  0  0  0
  162.2650  210.7550  149.5770 C   0  0  0  0  0  3  0  0  0  0  0  0
  161.3490  203.7280  151.0550 C   0  0  0  0  0  2  0  0  0  0  0  0
  162.0800  210.7370  150.9630 C   0  0  0  0  0  3  0  0  0  0  0  0
  160.3020  204.8190  151.2160 C   0  0  0  0  0  2  0  0  0  0  0  0
  160.8180  205.0320  148.2130 C   0  0  1  0  0  3  0  0  0  0  0  0
  162.0370  209.6360  148.8400 N   0  0  0  0  0  0  0  0  0  0  0  0
  161.3810  207.2670  148.6170 C   0  0  0  0  0  0  0  0  0  0  0  0
  161.9570  203.0480  147.4540 O   0  0  0  0  0  0  0  0  0  0  0  0
  161.0030  202.0900  147.5690 N   0  0  0  0  0  2  0  0  0  0  0  0
  160.1360  200.1430  144.6750 N   0  0  0  0  0  0  0  0  0  0  0  0
  161.3270  199.8520  146.6520 C   0  0  0  0  0  3  0  0  0  0  0  0
  160.8350  201.0750  146.5770 C   0  0  0  0  0  0  0  0  0  0  0  0
  160.9070  199.1420  145.4060 C   0  0  0  0  0  2  0  0  0  0  0  0
  160.0980  201.2430  145.3480 C   0  0  0  0  0  3  0  0  0  0  0  0
  1 18  1  0  0  0  0
  2 27  1  0  0  0  0
  3 16  1  0  0  0  0
  3  7  2  0  0  0  0
  4 15  1  0  0  0  0
  5 19  1  0  0  0  0
  8 16  1  0  0  0  0
  9 13  1  0  0  0  0
 10 22  1  0  0  0  0
 11  5  1  0  0  0  0
 12  8  1  0  0  0  0
 13 24  1  0  0  0  0
 13 20  1  0  0  0  0
 14  2  2  0  0  0  0
 15  5  2  0  0  0  0
 15 12  1  0  0  0  0
 17 28  1  6  0  0  0
 17 10  1  0  0  0  0
 18 20  1  0  0  0  0
 18  4  2  0  0  0  0
 19  6  1  6  0  0  0
 19  3  1  0  0  0  0
 20 11  2  0  0  0  0
 21 23  2  0  0  0  0
 22 24  1  0  0  0  0
 23  4  1  0  0  0  0
 25 14  1  6  0  0  0
 25 17  1  0  0  0  0
 25  9  1  0  0  0  0
 26  1  2  0  0  0  0
 26 21  1  0  0  0  0
 27  9  2  0  0  0  0
 27  1  1  0  0  0  0
 28 29  1  0  0  0  0
 30 34  2  0  0  0  0
 30 33  1  0  0  0  0
 32 31  2  0  0  0  0
 32 29  1  0  0  0  0
 33 31  1  0  0  0  0
 34 32  1  0  0  0  0
M  END
>  <MODEL>
2

>  <REMARK>
 VINA RESULT:      -8.7      3.152      9.342
  Name = 
  3 active torsions:
  status: ('A' for Active; 'I' for Inactive)
    1  A    between atoms: C_17  and  O_28
    2  A    between atoms: O_28  and  N_29
    3  A    between atoms: N_29  and  C_32
                            x       y       z     vdW  Elec       q    Type
                         _______ _______ _______ _____ _____    ______ ____

>  <TORSDO>
F 3

$$$$
=
 OpenBabel11122414363D

 34 40  0  0  1  0  0  0  0  0999 V2000
  161.0200  204.5860  151.2270 C   0  0  0  0  0  0  0  0  0  0  0  0
  161.0060  206.7700  152.6980 C   0  0  0  0  0  3  0  0  0  0  0  0
  160.3010  201.5580  145.4300 C   0  0  0  0  0  0  0  0  0  0  0  0
  161.0640  202.6700  149.7230 C   0  0  0  0  0  0  0  0  0  0  0  0
  161.0930  203.0600  147.3110 C   0  0  0  0  0  0  0  0  0  0  0  0
  161.3020  203.7830  144.8680 C   0  0  0  0  0  1  0  0  0  0  0  0
  159.2590  201.8380  144.7780 O   0  0  0  0  0  0  0  0  0  0  0  0
  161.8920  199.8810  146.9150 S   0  0  0  0  0  0  0  0  0  0  0  0
  161.0040  206.8590  150.3690 C   0  0  0  0  0  0  0  0  0  0  0  0
  162.1460  209.3170  148.7460 C   0  0  0  0  0  2  0  0  0  0  0  0
  161.0790  204.4000  147.5640 N   0  0  0  0  0  0  0  0  0  0  0  0
  160.9510  200.6360  148.2720 C   0  0  0  0  0  2  0  0  0  0  0  0
  161.0240  206.3520  149.0210 N   0  0  0  0  0  0  0  0  0  0  0  0
  161.0100  208.2440  152.2900 C   0  0  0  0  0  3  0  0  0  0  0  0
  161.0910  202.1420  148.4110 C   0  0  0  0  0  0  0  0  0  0  0  0
  160.5530  200.2120  145.8170 N   0  0  0  0  0  2  0  0  0  0  0  0
  162.2910  208.9750  150.2270 C   0  0  2  0  0  3  0  0  0  0  0  0
  161.0450  204.0620  149.9200 C   0  0  0  0  0  0  0  0  0  0  0  0
  161.2550  202.6280  145.8640 C   0  0  2  0  0  3  0  0  0  0  0  0
  161.0460  204.9230  148.8160 C   0  0  0  0  0  0  0  0  0  0  0  0
  161.0250  202.3960  152.1360 C   0  0  0  0  0  3  0  0  0  0  0  0
  162.2870  208.0940  147.8530 C   0  0  0  0  0  2  0  0  0  0  0  0
  161.0520  201.8380  150.8540 C   0  0  0  0  0  3  0  0  0  0  0  0
  161.0150  207.2600  147.8800 C   0  0  0  0  0  2  0  0  0  0  0  0
  161.0200  208.2950  150.7540 C   0  0  1  0  0  3  0  0  0  0  0  0
  161.0110  203.7460  152.2960 N   0  0  0  0  0  0  0  0  0  0  0  0
  161.0020  206.0480  151.4070 C   0  0  0  0  0  0  0  0  0  0  0  0
  162.5390  210.1590  150.9300 O   0  0  0  0  0  0  0  0  0  0  0  0
  161.4660  210.9510  150.6740 N   0  0  0  0  0  2  0  0  0  0  0  0
  162.3470  213.3100  148.1080 N   0  0  0  0  0  0  0  0  0  0  0  0
  160.7320  213.0950  149.7700 C   0  0  0  0  0  3  0  0  0  0  0  0
  161.5500  212.0580  149.7750 C   0  0  0  0  0  0  0  0  0  0  0  0
  161.1910  214.0000  148.6720 C   0  0  0  0  0  3  0  0  0  0  0  0
  162.5460  212.2040  148.7410 C   0  0  0  0  0  2  0  0  0  0  0  0
  1 27  1  0  0  0  0
  1 26  1  0  0  0  0
  3 16  1  0  0  0  0
  3 19  1  0  0  0  0
  4 18  1  0  0  0  0
  4 23  2  0  0  0  0
  5 11  1  0  0  0  0
  5 15  2  0  0  0  0
  7  3  2  0  0  0  0
  8 12  1  0  0  0  0
  9 25  1  0  0  0  0
  9 27  2  0  0  0  0
 10 17  1  0  0  0  0
 11 20  2  0  0  0  0
 12 15  1  0  0  0  0
 13  9  1  0  0  0  0
 14  2  2  0  0  0  0
 15  4  1  0  0  0  0
 16  8  1  0  0  0  0
 17 25  1  0  0  0  0
 17 28  1  1  0  0  0
 18  1  2  0  0  0  0
 19  6  1  6  0  0  0
 19  5  1  0  0  0  0
 20 13  1  0  0  0  0
 20 18  1  0  0  0  0
 21 26  2  0  0  0  0
 22 24  1  0  0  0  0
 22 10  1  0  0  0  0
 23 21  1  0  0  0  0
 24 13  1  0  0  0  0
 25 14  1  1  0  0  0
 27  2  1  0  0  0  0
 29 28  1  0  0  0  0
 30 33  2  0  0  0  0
 30 34  1  0  0  0  0
 31 32  2  0  0  0  0
 32 29  1  0  0  0  0
 33 31  1  0  0  0  0
 34 32  1  0  0  0  0
M  END
>  <MODEL>
3

>  <REMARK>
 VINA RESULT:      -7.8      1.394      1.931
  Name = 
  3 active torsions:
  status: ('A' for Active; 'I' for Inactive)
    1  A    between atoms: C_17  and  O_28
    2  A    between atoms: O_28  and  N_29
    3  A    between atoms: N_29  and  C_32
                            x       y       z     vdW  Elec       q    Type
                         _______ _______ _______ _____ _____    ______ ____

>  <TORSDO>
F 3

$$$$
=
 OpenBabel11122414363D

 34 40  0  0  1  0  0  0  0  0999 V2000
  161.6730  207.6660  148.3570 C   0  0  0  0  0  0  0  0  0  0  0  0
  162.0460  210.2710  148.4570 C   0  0  0  0  0  3  0  0  0  0  0  0
  161.5200  201.7680  151.2680 C   0  0  0  0  0  0  0  0  0  0  0  0
  161.2920  205.2620  148.4410 C   0  0  0  0  0  0  0  0  0  0  0  0
  161.0670  204.1750  150.6180 C   0  0  0  0  0  0  0  0  0  0  0  0
  160.6940  203.3620  153.0140 C   0  0  0  0  0  1  0  0  0  0  0  0
  162.5150  201.4690  151.9810 O   0  0  0  0  0  0  0  0  0  0  0  0
  159.9220  201.5060  149.0470 S   0  0  0  0  0  0  0  0  0  0  0  0
  161.8290  208.9870  150.3900 C   0  0  0  0  0  0  0  0  0  0  0  0
  160.7840  210.1710  153.1270 C   0  0  0  0  0  2  0  0  0  0  0  0
  161.2390  205.3940  151.2050 N   0  0  0  0  0  0  0  0  0  0  0  0
  161.0610  202.7720  148.4160 C   0  0  0  0  0  2  0  0  0  0  0  0
  161.6280  207.7990  151.1790 N   0  0  0  0  0  0  0  0  0  0  0  0
  162.1480  211.2160  149.6560 C   0  0  0  0  0  3  0  0  0  0  0  0
  161.0850  204.0790  149.1890 C   0  0  0  0  0  0  0  0  0  0  0  0
  161.1740  200.9490  150.1570 N   0  0  0  0  0  2  0  0  0  0  0  0
  160.7510  210.7770  151.7260 C   0  0  2  0  0  3  0  0  0  0  0  0
  161.4680  206.4890  149.1030 C   0  0  0  0  0  0  0  0  0  0  0  0
  160.7220  203.0090  151.5290 C   0  0  2  0  0  3  0  0  0  0  0  0
  161.4450  206.5380  150.5020 C   0  0  0  0  0  0  0  0  0  0  0  0
  161.5380  206.4400  146.3320 C   0  0  0  0  0  3  0  0  0  0  0  0
  160.4360  208.6900  153.1240 C   0  0  0  0  0  2  0  0  0  0  0  0
  161.3320  205.2510  147.0380 C   0  0  0  0  0  3  0  0  0  0  0  0
  161.6160  207.8620  152.6370 C   0  0  0  0  0  2  0  0  0  0  0  0
  161.9930  210.3640  150.9260 C   0  0  1  0  0  3  0  0  0  0  0  0
  161.7020  207.6140  146.9990 N   0  0  0  0  0  0  0  0  0  0  0  0
  161.8520  208.9410  149.0740 C   0  0  0  0  0  0  0  0  0  0  0  0
  160.6910  212.1700  151.8510 O   0  0  0  0  0  0  0  0  0  0  0  0
  159.6020  212.4080  152.6250 N   0  0  0  0  0  2  0  0  0  0  0  0
  156.4890  214.1460  152.1650 N   0  0  0  0  0  0  0  0  0  0  0  0
  158.2470  213.3840  150.8460 C   0  0  0  0  0  3  0  0  0  0  0  0
  158.4570  213.0950  152.1170 C   0  0  0  0  0  0  0  0  0  0  0  0
  156.9370  214.0990  150.7770 C   0  0  0  0  0  3  0  0  0  0  0  0
  157.3600  213.5730  152.9240 C   0  0  0  0  0  2  0  0  0  0  0  0
  1 27  1  0  0  0  0
  1 18  1  0  0  0  0
  2 27  1  0  0  0  0
  2 14  2  0  0  0  0
  3 19  1  0  0  0  0
  3  7  2  0  0  0  0
  4 18  2  0  0  0  0
  4 15  1  0  0  0  0
  5 11  1  0  0  0  0
  5 19  1  0  0  0  0
  8 16  1  0  0  0  0
  9 25  1  0  0  0  0
  9 13  1  0  0  0  0
 12  8  1  0  0  0  0
 12 15  1  0  0  0  0
 13 24  1  0  0  0  0
 15  5  2  0  0  0  0
 16  3  1  0  0  0  0
 17 28  1  1  0  0  0
 17 10  1  0  0  0  0
 18 20  1  0  0  0  0
 19  6  1  1  0  0  0
 20 13  1  0  0  0  0
 20 11  2  0  0  0  0
 21 26  1  0  0  0  0
 21 23  2  0  0  0  0
 22 10  1  0  0  0  0
 23  4  1  0  0  0  0
 24 22  1  0  0  0  0
 25 14  1  6  0  0  0
 25 17  1  0  0  0  0
 26  1  2  0  0  0  0
 27  9  2  0  0  0  0
 28 29  1  0  0  0  0
 30 34  1  0  0  0  0
 31 32  2  0  0  0  0
 32 29  1  0  0  0  0
 32 34  1  0  0  0  0
 33 31  1  0  0  0  0
 33 30  2  0  0  0  0
M  END
>  <MODEL>
4

>  <REMARK>
 VINA RESULT:      -7.6      2.444      4.545
  Name = 
  3 active torsions:
  status: ('A' for Active; 'I' for Inactive)
    1  A    between atoms: C_17  and  O_28
    2  A    between atoms: O_28  and  N_29
    3  A    between atoms: N_29  and  C_32
                            x       y       z     vdW  Elec       q    Type
                         _______ _______ _______ _____ _____    ______ ____

>  <TORSDO>
F 3

$$$$
=
 OpenBabel11122414363D

 34 40  0  0  1  0  0  0  0  0999 V2000
  161.5610  206.7390  147.9530 C   0  0  0  0  0  0  0  0  0  0  0  0
  161.9540  208.9730  149.2910 C   0  0  0  0  0  3  0  0  0  0  0  0
  161.5240  200.1680  147.6270 C   0  0  0  0  0  0  0  0  0  0  0  0
  161.1710  204.5900  146.8740 C   0  0  0  0  0  0  0  0  0  0  0  0
  161.0520  202.5780  148.2540 C   0  0  0  0  0  0  0  0  0  0  0  0
  160.7980  200.6950  149.9650 C   0  0  0  0  0  1  0  0  0  0  0  0
  162.5520  199.5800  148.0560 O   0  0  0  0  0  0  0  0  0  0  0  0
  159.8120  200.9880  145.6390 S   0  0  0  0  0  0  0  0  0  0  0  0
  161.8300  206.9070  150.3620 C   0  0  0  0  0  0  0  0  0  0  0  0
  160.9330  206.5880  153.3750 C   0  0  0  0  0  2  0  0  0  0  0  0
  161.2610  203.3610  149.3510 N   0  0  0  0  0  0  0  0  0  0  0  0
  160.9250  202.4230  145.6510 C   0  0  0  0  0  2  0  0  0  0  0  0
  161.6630  205.4820  150.4810 N   0  0  0  0  0  0  0  0  0  0  0  0
  162.1230  209.2170  150.7920 C   0  0  0  0  0  3  0  0  0  0  0  0
  160.9960  203.1900  146.9600 C   0  0  0  0  0  0  0  0  0  0  0  0
  161.1170  199.9860  146.2760 N   0  0  0  0  0  2  0  0  0  0  0  0
  160.8320  207.7990  152.4500 C   0  0  2  0  0  3  0  0  0  0  0  0
  161.3880  205.3440  148.0400 C   0  0  0  0  0  0  0  0  0  0  0  0
  160.7480  201.1090  148.4970 C   0  0  2  0  0  3  0  0  0  0  0  0
  161.4370  204.7050  149.2850 C   0  0  0  0  0  0  0  0  0  0  0  0
  161.3160  206.6510  145.5970 C   0  0  0  0  0  3  0  0  0  0  0  0
  160.5780  205.2890  152.6680 C   0  0  0  0  0  2  0  0  0  0  0  0
  161.1390  205.2650  145.6420 C   0  0  0  0  0  3  0  0  0  0  0  0
  161.7260  204.8270  151.7840 C   0  0  0  0  0  2  0  0  0  0  0  0
  162.0290  207.8530  151.4920 C   0  0  1  0  0  3  0  0  0  0  0  0
  161.5210  207.3550  146.7410 N   0  0  0  0  0  0  0  0  0  0  0  0
  161.7850  207.5070  149.1900 C   0  0  0  0  0  0  0  0  0  0  0  0
  160.7870  208.9540  153.2400 O   0  0  0  0  0  0  0  0  0  0  0  0
  160.8820  208.5090  154.5190 N   0  0  0  0  0  2  0  0  0  0  0  0
  162.0190  210.5370  157.2610 N   0  0  0  0  0  0  0  0  0  0  0  0
  160.0230  210.1170  156.1400 C   0  0  0  0  0  3  0  0  0  0  0  0
  161.0100  209.4110  155.6190 C   0  0  0  0  0  0  0  0  0  0  0  0
  160.6090  210.9140  157.2610 C   0  0  0  0  0  2  0  0  0  0  0  0
  162.2410  209.6800  156.3230 C   0  0  0  0  0  3  0  0  0  0  0  0
  1 18  1  0  0  0  0
  1 27  1  0  0  0  0
  2 14  2  0  0  0  0
  3  7  2  0  0  0  0
  3 19  1  0  0  0  0
  4 15  2  0  0  0  0
  4 18  1  0  0  0  0
  5 19  1  0  0  0  0
  5 11  2  0  0  0  0
  8 12  1  0  0  0  0
  8 16  1  0  0  0  0
  9 13  1  0  0  0  0
  9 25  1  0  0  0  0
 12 15  1  0  0  0  0
 13 24  1  0  0  0  0
 15  5  1  0  0  0  0
 16  3  1  0  0  0  0
 17 28  1  1  0  0  0
 17 10  1  0  0  0  0
 18 20  2  0  0  0  0
 19  6  1  1  0  0  0
 20 11  1  0  0  0  0
 20 13  1  0  0  0  0
 21 23  2  0  0  0  0
 21 26  1  0  0  0  0
 22 10  1  0  0  0  0
 23  4  1  0  0  0  0
 24 22  1  0  0  0  0
 25 14  1  6  0  0  0
 25 17  1  0  0  0  0
 26  1  2  0  0  0  0
 27  2  1  0  0  0  0
 27  9  2  0  0  0  0
 28 29  1  0  0  0  0
 29 32  1  0  0  0  0
 30 33  1  0  0  0  0
 31 33  1  0  0  0  0
 32 31  2  0  0  0  0
 32 34  1  0  0  0  0
 34 30  2  0  0  0  0
M  END
>  <MODEL>
5

>  <REMARK>
 VINA RESULT:      -7.1      2.117      3.902
  Name = 
  3 active torsions:
  status: ('A' for Active; 'I' for Inactive)
    1  A    between atoms: C_17  and  O_28
    2  A    between atoms: O_28  and  N_29
    3  A    between atoms: N_29  and  C_32
                            x       y       z     vdW  Elec       q    Type
                         _______ _______ _______ _____ _____    ______ ____

>  <TORSDO>
F 3

$$$$
=
 OpenBabel11122414363D

 34 40  0  0  1  0  0  0  0  0999 V2000
  160.8960  205.0980  152.5060 C   0  0  0  0  0  0  0  0  0  0  0  0
  160.6150  206.1670  154.8960 C   0  0  0  0  0  3  0  0  0  0  0  0
  160.9200  205.6140  145.9470 C   0  0  0  0  0  0  0  0  0  0  0  0
  161.1960  204.2730  150.2330 C   0  0  0  0  0  0  0  0  0  0  0  0
  161.4380  205.8850  148.4130 C   0  0  0  0  0  0  0  0  0  0  0  0
  161.8440  207.7950  146.7620 C   0  0  0  0  0  1  0  0  0  0  0  0
  159.9330  206.2020  145.4280 O   0  0  0  0  0  0  0  0  0  0  0  0
  162.4510  203.3980  146.4900 S   0  0  0  0  0  0  0  0  0  0  0  0
  160.8360  207.4790  152.9830 C   0  0  0  0  0  0  0  0  0  0  0  0
  161.9900  210.4200  153.0440 C   0  0  0  0  0  2  0  0  0  0  0  0
  161.3240  206.8860  149.3310 N   0  0  0  0  0  0  0  0  0  0  0  0
  161.3410  203.3210  147.9250 C   0  0  0  0  0  2  0  0  0  0  0  0
  161.0160  207.7660  151.5820 N   0  0  0  0  0  0  0  0  0  0  0  0
  160.5760  207.6330  155.3310 C   0  0  0  0  0  3  0  0  0  0  0  0
  161.3810  204.5220  148.8530 C   0  0  0  0  0  0  0  0  0  0  0  0
  161.2090  204.2680  145.5900 N   0  0  0  0  0  2  0  0  0  0  0  0
  162.0090  209.3420  154.1250 C   0  0  2  0  0  3  0  0  0  0  0  0
  161.0790  205.3480  151.1320 C   0  0  0  0  0  0  0  0  0  0  0  0
  161.7660  206.2870  146.9840 C   0  0  2  0  0  3  0  0  0  0  0  0
  161.1390  206.6640  150.6580 C   0  0  0  0  0  0  0  0  0  0  0  0
  160.9370  202.7600  152.1140 C   0  0  0  0  0  3  0  0  0  0  0  0
  162.2870  209.8570  151.6620 C   0  0  0  0  0  2  0  0  0  0  0  0
  161.1210  202.9670  150.7440 C   0  0  0  0  0  3  0  0  0  0  0  0
  161.0670  209.1420  151.1010 C   0  0  0  0  0  2  0  0  0  0  0  0
  160.7330  208.4920  154.0660 C   0  0  1  0  0  3  0  0  0  0  0  0
  160.8300  203.8180  152.9610 N   0  0  0  0  0  0  0  0  0  0  0  0
  160.7790  206.2410  153.4280 C   0  0  0  0  0  0  0  0  0  0  0  0
  162.1190  209.9710  155.3710 O   0  0  0  0  0  0  0  0  0  0  0  0
  161.5640  211.1970  155.1970 N   0  0  0  0  0  2  0  0  0  0  0  0
  158.7960  212.9710  156.6510 N   0  0  0  0  0  0  0  0  0  0  0  0
  159.6930  210.8250  156.7180 C   0  0  0  0  0  3  0  0  0  0  0  0
  160.4020  211.6040  155.9220 C   0  0  0  0  0  0  0  0  0  0  0  0
  158.5800  211.6620  157.2600 C   0  0  0  0  0  2  0  0  0  0  0  0
  159.8360  212.9310  155.8890 C   0  0  0  0  0  3  0  0  0  0  0  0
  1 26  1  0  0  0  0
  1 27  1  0  0  0  0
  2 14  2  0  0  0  0
  3 19  1  0  0  0  0
  4 23  2  0  0  0  0
  4 18  1  0  0  0  0
  5 15  2  0  0  0  0
  5 11  1  0  0  0  0
  7  3  2  0  0  0  0
  8 12  1  0  0  0  0
  9 27  2  0  0  0  0
  9 25  1  0  0  0  0
 10 17  1  0  0  0  0
 11 20  2  0  0  0  0
 12 15  1  0  0  0  0
 13  9  1  0  0  0  0
 15  4  1  0  0  0  0
 16  3  1  0  0  0  0
 16  8  1  0  0  0  0
 17 28  1  1  0  0  0
 18  1  2  0  0  0  0
 19  6  1  1  0  0  0
 19  5  1  0  0  0  0
 20 18  1  0  0  0  0
 20 13  1  0  0  0  0
 21 26  2  0  0  0  0
 22 10  1  0  0  0  0
 23 21  1  0  0  0  0
 24 13  1  0  0  0  0
 24 22  1  0  0  0  0
 25 17  1  0  0  0  0
 25 14  1  1  0  0  0
 27  2  1  0  0  0  0
 29 28  1  0  0  0  0
 29 32  1  0  0  0  0
 30 33  1  0  0  0  0
 31 33  1  0  0  0  0
 32 31  2  0  0  0  0
 34 32  1  0  0  0  0
 34 30  2  0  0  0  0
M  END
>  <MODEL>
6

>  <REMARK>
 VINA RESULT:      -7.0      2.032      3.058
  Name = 
  3 active torsions:
  status: ('A' for Active; 'I' for Inactive)
    1  A    between atoms: C_17  and  O_28
    2  A    between atoms: O_28  and  N_29
    3  A    between atoms: N_29  and  C_32
                            x       y       z     vdW  Elec       q    Type
                         _______ _______ _______ _____ _____    ______ ____

>  <TORSDO>
F 3

$$$$
