=
 OpenBabel11122414413D

 34 42  0  0  1  0  0  0  0  0999 V2000
  161.7220  209.5560  151.2510 C   0  0  2  0  0  3  0  0  0  0  0  0
  161.7610  210.9330  153.2170 O   0  0  0  0  0  0  0  0  0  0  0  0
  161.2880  203.6960  147.9880 C   0  0  2  0  0  3  0  0  0  0  0  0
  161.2780  208.0200  149.3850 C   0  0  1  0  0  3  0  0  0  0  0  0
  161.4160  205.4460  149.8760 C   0  0  2  0  0  3  0  0  0  0  0  0
  161.1380  203.1060  150.3030 O   0  0  0  0  0  1  0  0  0  0  0  0
  162.6720  204.1990  147.5990 C   0  0  0  0  0  2  0  0  0  0  0  0
  161.2680  206.2940  147.4080 C   0  0  1  0  0  3  0  0  0  0  0  0
  162.1450  208.6750  153.5990 C   0  0  2  0  0  3  0  0  0  0  0  0
  159.9860  207.8490  155.7980 C   0  0  0  0  0  2  0  0  0  0  0  0
  160.8570  205.8730  151.2270 C   0  0  0  0  0  2  0  0  0  0  0  0
  160.0440  206.4210  148.0980 O   0  0  0  0  0  0  0  0  0  0  0  0
  161.1780  207.5860  153.0930 C   0  0  1  0  0  3  0  0  0  0  0  0
  161.9380  210.7910  154.5280 O   0  0  0  0  0  0  0  0  0  0  0  0
  161.2140  206.5790  148.8690 C   0  0  2  0  0  0  0  0  0  0  0  0
  161.4400  204.8240  146.9590 C   0  0  2  0  0  3  0  0  0  0  0  0
  160.2080  209.2420  155.2160 C   0  0  2  0  0  3  0  0  0  0  0  0
  162.0090  208.1430  150.7320 C   0  0  2  0  0  3  0  0  0  0  0  0
  160.8300  204.1210  149.3960 C   0  0  2  0  0  3  0  0  0  0  0  0
  161.7070  207.0250  151.7710 C   0  0  2  0  0  3  0  0  0  0  0  0
  161.5160  210.2080  148.8570 C   0  0  0  0  0  2  0  0  0  0  0  0
  159.8380  206.8120  154.6880 C   0  0  0  0  0  2  0  0  0  0  0  0
  161.8700  208.9000  148.4580 O   0  0  0  0  0  0  0  0  0  0  0  0
  161.0670  206.5790  154.0580 O   0  0  0  0  0  0  0  0  0  0  0  0
  161.6830  209.4410  154.8190 C   0  0  1  0  0  3  0  0  0  0  0  0
  162.1650  210.5730  150.2020 C   0  0  0  0  0  2  0  0  0  0  0  0
  162.3570  209.8120  152.6210 C   0  0  1  0  0  3  0  0  0  0  0  0
  159.8430  210.1940  156.1710 O   0  0  0  0  0  0  0  0  0  0  0  0
  158.5400  210.5690  155.8240 C   0  0  0  0  0  2  0  0  0  0  0  0
  158.3610  213.8070  154.1830 C   0  0  0  0  0  2  0  0  0  0  0  0
  157.2520  211.7000  154.1260 O   0  0  0  0  0  0  0  0  0  0  0  0
  158.5540  211.5170  154.6340 C   0  0  1  0  0  3  0  0  0  0  0  0
  157.0510  213.0860  153.9920 C   0  0  0  0  0  2  0  0  0  0  0  0
  159.1490  212.8520  155.0100 C   0  0  0  0  0  2  0  0  0  0  0  0
  1 26  1  6  0  0  0
  1 27  1  0  0  0  0
  2 14  1  0  0  0  0
  3  7  1  1  0  0  0
  3 19  1  0  0  0  0
  4 23  1  6  0  0  0
  4 18  1  0  0  0  0
  5 11  1  1  0  0  0
  8 12  1  6  0  0  0
  8 15  1  0  0  0  0
  9 25  1  0  0  0  0
 11 20  1  0  0  0  0
 12 15  1  0  0  0  0
 13  9  1  0  0  0  0
 13 24  1  0  0  0  0
 14 25  1  0  0  0  0
 15  4  1  0  0  0  0
 15  5  1  0  0  0  0
 16  8  1  0  0  0  0
 16  7  1  0  0  0  0
 16  3  1  0  0  0  0
 17 10  1  0  0  0  0
 17 28  1  0  0  0  0
 18  1  1  0  0  0  0
 18 20  1  0  0  0  0
 19  5  1  0  0  0  0
 19  6  1  0  0  0  0
 20 13  1  0  0  0  0
 21 26  1  0  0  0  0
 22 10  1  0  0  0  0
 23 21  1  0  0  0  0
 24 22  1  0  0  0  0
 25 17  1  0  0  0  0
 27  2  1  0  0  0  0
 27  9  1  0  0  0  0
 29 28  1  0  0  0  0
 30 34  1  0  0  0  0
 31 32  1  0  0  0  0
 32 34  1  0  0  0  0
 32 29  1  0  0  0  0
 33 31  1  0  0  0  0
 33 30  1  0  0  0  0
M  END
>  <MODEL>
1

>  <REMARK>
 VINA RESULT:      -7.3      0.000      0.000
  Name = 
  3 active torsions:
  status: ('A' for Active; 'I' for Inactive)
    1  A    between atoms: C_17  and  O_28
    2  A    between atoms: O_28  and  C_29
    3  A    between atoms: C_29  and  C_32
                            x       y       z     vdW  Elec       q    Type
                         _______ _______ _______ _____ _____    ______ ____

>  <TORSDO>
F 3

$$$$
=
 OpenBabel11122414413D

 34 42  0  0  1  0  0  0  0  0999 V2000
  161.1980  205.2120  151.3500 C   0  0  2  0  0  3  0  0  0  0  0  0
  161.2170  206.6120  153.2990 O   0  0  0  0  0  0  0  0  0  0  0  0
  160.9280  204.0740  144.7320 C   0  0  2  0  0  3  0  0  0  0  0  0
  161.5430  204.0120  149.2340 C   0  0  1  0  0  3  0  0  0  0  0  0
  160.9290  205.2700  147.0140 C   0  0  2  0  0  3  0  0  0  0  0  0
  160.7680  206.4520  144.9380 O   0  0  0  0  0  1  0  0  0  0  0  0
  159.6900  203.3550  145.2500 C   0  0  0  0  0  2  0  0  0  0  0  0
  161.4380  202.7080  146.9580 C   0  0  1  0  0  3  0  0  0  0  0  0
  160.4240  207.6340  151.3700 C   0  0  2  0  0  3  0  0  0  0  0  0
  162.2060  210.2620  151.0570 C   0  0  0  0  0  2  0  0  0  0  0  0
  161.4290  206.4800  147.7940 C   0  0  0  0  0  2  0  0  0  0  0  0
  162.5990  203.4860  147.1500 O   0  0  0  0  0  0  0  0  0  0  0  0
  161.2350  207.6410  150.0590 C   0  0  1  0  0  3  0  0  0  0  0  0
  160.9010  207.8620  153.6300 O   0  0  0  0  0  0  0  0  0  0  0  0
  161.4090  203.9940  147.7070 C   0  0  2  0  0  0  0  0  0  0  0  0
  161.0620  202.7290  145.4590 C   0  0  2  0  0  3  0  0  0  0  0  0
  162.2760  209.2420  152.1900 C   0  0  2  0  0  3  0  0  0  0  0  0
  160.7250  205.1330  149.8950 C   0  0  2  0  0  3  0  0  0  0  0  0
  161.3230  205.3230  145.5400 C   0  0  2  0  0  3  0  0  0  0  0  0
  160.7390  206.5050  149.1610 C   0  0  2  0  0  3  0  0  0  0  0  0
  161.7270  202.7880  151.1290 C   0  0  0  0  0  2  0  0  0  0  0  0
  162.2760  209.5700  149.6980 C   0  0  0  0  0  2  0  0  0  0  0  0
  161.1930  202.7800  149.8200 O   0  0  0  0  0  0  0  0  0  0  0  0
  161.0870  208.8810  149.4290 O   0  0  0  0  0  0  0  0  0  0  0  0
  160.8970  208.5990  152.4340 C   0  0  1  0  0  3  0  0  0  0  0  0
  161.0300  203.8420  152.0050 C   0  0  0  0  0  2  0  0  0  0  0  0
  160.4960  206.3260  152.1310 C   0  0  1  0  0  3  0  0  0  0  0  0
  162.7090  209.8860  153.3520 O   0  0  0  0  0  0  0  0  0  0  0  0
  161.6460  210.7220  153.7160 C   0  0  0  0  0  2  0  0  0  0  0  0
  162.5620  210.0320  157.1640 C   0  0  0  0  0  2  0  0  0  0  0  0
  160.5980  210.2170  155.8290 O   0  0  0  0  0  0  0  0  0  0  0  0
  161.6350  210.9510  155.2190 C   0  0  1  0  0  3  0  0  0  0  0  0
  161.1630  209.5250  156.9160 C   0  0  0  0  0  2  0  0  0  0  0  0
  162.9600  210.5730  155.8360 C   0  0  0  0  0  2  0  0  0  0  0  0
  1 26  1  1  0  0  0
  1 27  1  0  0  0  0
  2 14  1  0  0  0  0
  3  7  1  1  0  0  0
  3 16  1  0  0  0  0
  3 19  1  0  0  0  0
  4 23  1  1  0  0  0
  4 18  1  0  0  0  0
  5 15  1  0  0  0  0
  5 11  1  1  0  0  0
  6 19  1  0  0  0  0
  7 16  1  0  0  0  0
  8 12  1  6  0  0  0
  8 15  1  0  0  0  0
  9 27  1  0  0  0  0
  9 25  1  0  0  0  0
 10 17  1  0  0  0  0
 11 20  1  0  0  0  0
 12 15  1  0  0  0  0
 13  9  1  0  0  0  0
 15  4  1  0  0  0  0
 16  8  1  0  0  0  0
 17 25  1  0  0  0  0
 17 28  1  0  0  0  0
 18  1  1  0  0  0  0
 19  5  1  0  0  0  0
 20 18  1  0  0  0  0
 20 13  1  0  0  0  0
 21 26  1  0  0  0  0
 22 10  1  0  0  0  0
 23 21  1  0  0  0  0
 24 22  1  0  0  0  0
 24 13  1  0  0  0  0
 25 14  1  0  0  0  0
 27  2  1  0  0  0  0
 28 29  1  0  0  0  0
 29 32  1  0  0  0  0
 31 33  1  0  0  0  0
 32 31  1  0  0  0  0
 32 34  1  0  0  0  0
 33 30  1  0  0  0  0
 34 30  1  0  0  0  0
M  END
>  <MODEL>
2

>  <REMARK>
 VINA RESULT:      -6.8      2.060      4.507
  Name = 
  3 active torsions:
  status: ('A' for Active; 'I' for Inactive)
    1  A    between atoms: C_17  and  O_28
    2  A    between atoms: O_28  and  C_29
    3  A    between atoms: C_29  and  C_32
                            x       y       z     vdW  Elec       q    Type
                         _______ _______ _______ _____ _____    ______ ____

>  <TORSDO>
F 3

$$$$
=
 OpenBabel11122414413D

 34 42  0  0  1  0  0  0  0  0999 V2000
  161.4830  207.3170  148.6540 C   0  0  2  0  0  3  0  0  0  0  0  0
  161.7340  209.6170  149.2950 O   0  0  0  0  0  0  0  0  0  0  0  0
  161.1130  200.7160  149.8590 C   0  0  2  0  0  3  0  0  0  0  0  0
  160.8720  204.9680  148.2740 C   0  0  1  0  0  3  0  0  0  0  0  0
  161.3940  203.2550  150.1930 C   0  0  2  0  0  3  0  0  0  0  0  0
  161.4710  201.6990  152.0110 O   0  0  0  0  0  1  0  0  0  0  0  0
  162.3310  200.8270  148.9520 C   0  0  0  0  0  2  0  0  0  0  0  0
  160.6870  202.3870  147.8320 C   0  0  1  0  0  3  0  0  0  0  0  0
  162.4390  208.0770  150.8840 C   0  0  2  0  0  3  0  0  0  0  0  0
  160.8440  208.8610  153.5340 C   0  0  0  0  0  2  0  0  0  0  0  0
  161.0550  204.4470  151.0810 C   0  0  0  0  0  2  0  0  0  0  0  0
  159.6090  202.9520  148.5460 O   0  0  0  0  0  0  0  0  0  0  0  0
  161.5250  206.9380  151.3780 C   0  0  1  0  0  3  0  0  0  0  0  0
  162.1710  210.3170  150.3390 O   0  0  0  0  0  0  0  0  0  0  0  0
  160.8770  203.5210  148.7790 C   0  0  2  0  0  0  0  0  0  0  0  0
  160.9370  200.9530  148.3530 C   0  0  2  0  0  3  0  0  0  0  0  0
  160.7910  209.5830  152.1890 C   0  0  2  0  0  3  0  0  0  0  0  0
  161.8260  205.8810  149.0620 C   0  0  2  0  0  3  0  0  0  0  0  0
  160.8830  201.9370  150.7680 C   0  0  2  0  0  3  0  0  0  0  0  0
  161.8560  205.6620  150.6020 C   0  0  2  0  0  3  0  0  0  0  0  0
  160.7540  206.3440  146.4810 C   0  0  0  0  0  2  0  0  0  0  0  0
  160.6090  207.3640  153.3570 C   0  0  0  0  0  2  0  0  0  0  0  0
  161.1740  205.0620  146.9010 O   0  0  0  0  0  0  0  0  0  0  0  0
  161.7150  206.7540  152.7520 O   0  0  0  0  0  0  0  0  0  0  0  0
  162.1320  209.4490  151.4430 C   0  0  1  0  0  3  0  0  0  0  0  0
  161.6000  207.4470  147.1370 C   0  0  0  0  0  2  0  0  0  0  0  0
  162.3310  208.3520  149.3990 C   0  0  1  0  0  3  0  0  0  0  0  0
  160.5070  210.9330  152.4110 O   0  0  0  0  0  0  0  0  0  0  0  0
  160.6370  211.1030  153.7950 C   0  0  0  0  0  2  0  0  0  0  0  0
  157.2840  212.3640  154.4080 C   0  0  0  0  0  2  0  0  0  0  0  0
  159.2890  213.0460  153.3190 O   0  0  0  0  0  0  0  0  0  0  0  0
  159.6090  212.0990  154.3110 C   0  0  1  0  0  3  0  0  0  0  0  0
  157.8850  213.1120  153.2450 C   0  0  0  0  0  2  0  0  0  0  0  0
  158.3550  211.3940  154.7700 C   0  0  0  0  0  2  0  0  0  0  0  0
  1 26  1  6  0  0  0
  1 18  1  0  0  0  0
  1 27  1  0  0  0  0
  2 27  1  0  0  0  0
  2 14  1  0  0  0  0
  3  7  1  6  0  0  0
  3 19  1  0  0  0  0
  4 23  1  6  0  0  0
  4 15  1  0  0  0  0
  4 18  1  0  0  0  0
  5 19  1  0  0  0  0
  5 11  1  1  0  0  0
  8 16  1  0  0  0  0
  8 12  1  1  0  0  0
  8 15  1  0  0  0  0
  9 13  1  0  0  0  0
  9 25  1  0  0  0  0
 12 15  1  0  0  0  0
 13 24  1  0  0  0  0
 14 25  1  0  0  0  0
 15  5  1  0  0  0  0
 16  7  1  0  0  0  0
 16  3  1  0  0  0  0
 17 28  1  0  0  0  0
 17 10  1  0  0  0  0
 18 20  1  0  0  0  0
 19  6  1  0  0  0  0
 20 11  1  0  0  0  0
 20 13  1  0  0  0  0
 21 23  1  0  0  0  0
 21 26  1  0  0  0  0
 22 10  1  0  0  0  0
 24 22  1  0  0  0  0
 25 17  1  0  0  0  0
 27  9  1  0  0  0  0
 28 29  1  0  0  0  0
 29 32  1  0  0  0  0
 30 34  1  0  0  0  0
 31 32  1  0  0  0  0
 32 34  1  0  0  0  0
 33 31  1  0  0  0  0
 33 30  1  0  0  0  0
M  END
>  <MODEL>
3

>  <REMARK>
 VINA RESULT:      -6.7      1.689      3.079
  Name = 
  3 active torsions:
  status: ('A' for Active; 'I' for Inactive)
    1  A    between atoms: C_17  and  O_28
    2  A    between atoms: O_28  and  C_29
    3  A    between atoms: C_29  and  C_32
                            x       y       z     vdW  Elec       q    Type
                         _______ _______ _______ _____ _____    ______ ____

>  <TORSDO>
F 3

$$$$
=
 OpenBabel11122414413D

 34 42  0  0  1  0  0  0  0  0999 V2000
  160.6930  207.1080  154.2280 C   0  0  2  0  0  3  0  0  0  0  0  0
  161.6220  205.1820  153.1370 O   0  0  0  0  0  0  0  0  0  0  0  0
  158.9760  213.5960  154.6070 C   0  0  2  0  0  3  0  0  0  0  0  0
  159.4640  209.0940  154.9920 C   0  0  1  0  0  3  0  0  0  0  0  0
  159.9300  211.3590  153.7520 C   0  0  2  0  0  3  0  0  0  0  0  0
  159.9920  213.3690  152.4520 O   0  0  0  0  0  1  0  0  0  0  0  0
  159.9750  213.4420  155.7460 C   0  0  0  0  0  2  0  0  0  0  0  0
  158.5690  211.3540  155.9830 C   0  0  1  0  0  3  0  0  0  0  0  0
  162.2370  207.2210  152.2110 C   0  0  2  0  0  3  0  0  0  0  0  0
  161.4520  206.9790  149.1280 C   0  0  0  0  0  2  0  0  0  0  0  0
  160.0790  210.4400  152.5450 C   0  0  0  0  0  2  0  0  0  0  0  0
  157.8290  210.8410  154.8970 O   0  0  0  0  0  0  0  0  0  0  0  0
  161.1920  208.2730  151.7860 C   0  0  1  0  0  3  0  0  0  0  0  0
  162.4180  204.9100  152.1070 O   0  0  0  0  0  0  0  0  0  0  0  0
  159.2180  210.6020  154.8740 C   0  0  2  0  0  0  0  0  0  0  0  0
  158.5620  212.8980  155.9100 C   0  0  2  0  0  3  0  0  0  0  0  0
  161.3050  205.8970  150.1950 C   0  0  2  0  0  3  0  0  0  0  0  0
  160.7500  208.6390  154.2850 C   0  0  2  0  0  3  0  0  0  0  0  0
  159.2400  212.6750  153.4010 C   0  0  2  0  0  3  0  0  0  0  0  0
  161.0370  209.3020  152.9070 C   0  0  2  0  0  3  0  0  0  0  0  0
  159.3230  207.2540  156.3030 C   0  0  0  0  0  2  0  0  0  0  0  0
  160.8280  208.2910  149.5940 C   0  0  0  0  0  2  0  0  0  0  0  0
  159.4950  208.6560  156.3310 O   0  0  0  0  0  0  0  0  0  0  0  0
  161.6060  208.8830  150.5970 O   0  0  0  0  0  0  0  0  0  0  0  0
  162.3930  206.0430  151.2760 C   0  0  1  0  0  3  0  0  0  0  0  0
  160.5280  206.5610  155.6440 C   0  0  0  0  0  2  0  0  0  0  0  0
  161.9000  206.5070  153.5030 C   0  0  1  0  0  3  0  0  0  0  0  0
  161.4100  204.6440  149.5850 O   0  0  0  0  0  0  0  0  0  0  0  0
  161.2610  204.8970  148.2170 C   0  0  0  0  0  2  0  0  0  0  0  0
  161.0320  202.3940  145.5920 C   0  0  0  0  0  2  0  0  0  0  0  0
  161.2890  202.4990  147.9580 O   0  0  0  0  0  0  0  0  0  0  0  0
  161.7400  203.7100  147.3960 C   0  0  1  0  0  3  0  0  0  0  0  0
  160.7130  201.7480  146.9170 C   0  0  0  0  0  2  0  0  0  0  0  0
  161.2720  203.8150  145.9650 C   0  0  0  0  0  2  0  0  0  0  0  0
  1 18  1  0  0  0  0
  1 26  1  1  0  0  0
  2 27  1  0  0  0  0
  3  7  1  1  0  0  0
  3 16  1  0  0  0  0
  4 23  1  1  0  0  0
  5 11  1  6  0  0  0
  5 15  1  0  0  0  0
  6 19  1  0  0  0  0
  7 16  1  0  0  0  0
  8 12  1  6  0  0  0
  9 27  1  0  0  0  0
 10 22  1  0  0  0  0
 10 17  1  0  0  0  0
 11 20  1  0  0  0  0
 13  9  1  0  0  0  0
 13 20  1  0  0  0  0
 14  2  1  0  0  0  0
 15 12  1  0  0  0  0
 15  4  1  0  0  0  0
 15  8  1  0  0  0  0
 16  8  1  0  0  0  0
 17 25  1  0  0  0  0
 18  4  1  0  0  0  0
 19  5  1  0  0  0  0
 19  3  1  0  0  0  0
 20 18  1  0  0  0  0
 21 23  1  0  0  0  0
 22 24  1  0  0  0  0
 24 13  1  0  0  0  0
 25 14  1  0  0  0  0
 25  9  1  0  0  0  0
 26 21  1  0  0  0  0
 27  1  1  0  0  0  0
 28 17  1  0  0  0  0
 29 28  1  0  0  0  0
 30 34  1  0  0  0  0
 30 33  1  0  0  0  0
 32 31  1  0  0  0  0
 32 29  1  0  0  0  0
 33 31  1  0  0  0  0
 34 32  1  0  0  0  0
M  END
>  <MODEL>
4

>  <REMARK>
 VINA RESULT:      -6.7      1.631      8.550
  Name = 
  3 active torsions:
  status: ('A' for Active; 'I' for Inactive)
    1  A    between atoms: C_17  and  O_28
    2  A    between atoms: O_28  and  C_29
    3  A    between atoms: C_29  and  C_32
                            x       y       z     vdW  Elec       q    Type
                         _______ _______ _______ _____ _____    ______ ____

>  <TORSDO>
F 3

$$$$
=
 OpenBabel11122414413D

 34 42  0  0  1  0  0  0  0  0999 V2000
  161.4860  207.4420  148.8680 C   0  0  2  0  0  3  0  0  0  0  0  0
  161.7340  209.7160  149.5940 O   0  0  0  0  0  0  0  0  0  0  0  0
  161.1160  200.8000  149.8290 C   0  0  2  0  0  3  0  0  0  0  0  0
  160.8780  205.1080  148.4000 C   0  0  1  0  0  3  0  0  0  0  0  0
  161.3940  203.3260  150.2570 C   0  0  2  0  0  3  0  0  0  0  0  0
  161.4660  201.7040  152.0170 O   0  0  0  0  0  1  0  0  0  0  0  0
  162.3370  200.9450  148.9310 C   0  0  0  0  0  2  0  0  0  0  0  0
  160.6950  202.5450  147.8630 C   0  0  1  0  0  3  0  0  0  0  0  0
  162.4340  208.1200  151.1280 C   0  0  2  0  0  3  0  0  0  0  0  0
  160.8300  208.8060  153.7990 C   0  0  0  0  0  2  0  0  0  0  0  0
  161.0520  204.4840  151.1860 C   0  0  0  0  0  2  0  0  0  0  0  0
  159.6150  203.0820  148.5940 O   0  0  0  0  0  0  0  0  0  0  0  0
  161.5190  206.9630  151.5760 C   0  0  1  0  0  3  0  0  0  0  0  0
  162.1670  210.3780  150.6640 O   0  0  0  0  0  0  0  0  0  0  0  0
  160.8820  203.6430  148.8510 C   0  0  2  0  0  0  0  0  0  0  0  0
  160.9450  201.0930  148.3320 C   0  0  2  0  0  3  0  0  0  0  0  0
  160.7810  209.5760  152.4810 C   0  0  2  0  0  3  0  0  0  0  0  0
  161.8280  205.9910  149.2240 C   0  0  2  0  0  3  0  0  0  0  0  0
  160.8820  201.9870  150.7820 C   0  0  2  0  0  3  0  0  0  0  0  0
  161.8530  205.7160  150.7550 C   0  0  2  0  0  3  0  0  0  0  0  0
  160.7650  206.5480  146.6580 C   0  0  0  0  0  2  0  0  0  0  0  0
  160.5960  207.3160  153.5670 C   0  0  0  0  0  2  0  0  0  0  0  0
  161.1840  205.2520  147.0330 O   0  0  0  0  0  0  0  0  0  0  0  0
  161.7050  206.7290  152.9430 O   0  0  0  0  0  0  0  0  0  0  0  0
  162.1250  209.4700  151.7350 C   0  0  1  0  0  3  0  0  0  0  0  0
  161.6080  207.6270  147.3570 C   0  0  0  0  0  2  0  0  0  0  0  0
  162.3310  208.4490  149.6530 C   0  0  1  0  0  3  0  0  0  0  0  0
  160.4960  210.9160  152.7520 O   0  0  0  0  0  0  0  0  0  0  0  0
  159.0980  210.9890  152.7670 C   0  0  0  0  0  2  0  0  0  0  0  0
  159.4450  212.4800  156.0630 C   0  0  0  0  0  2  0  0  0  0  0  0
  158.1530  210.7990  154.9770 O   0  0  0  0  0  0  0  0  0  0  0  0
  158.6120  211.7160  154.0110 C   0  0  1  0  0  3  0  0  0  0  0  0
  158.7650  211.1420  156.1980 C   0  0  0  0  0  2  0  0  0  0  0  0
  159.7050  212.5750  154.5990 C   0  0  0  0  0  2  0  0  0  0  0  0
  1 26  1  6  0  0  0
  1 18  1  0  0  0  0
  1 27  1  0  0  0  0
  2 27  1  0  0  0  0
  2 14  1  0  0  0  0
  3  7  1  6  0  0  0
  3 19  1  0  0  0  0
  4 23  1  6  0  0  0
  4 15  1  0  0  0  0
  4 18  1  0  0  0  0
  5 19  1  0  0  0  0
  5 11  1  1  0  0  0
  8 16  1  0  0  0  0
  8 12  1  1  0  0  0
  8 15  1  0  0  0  0
  9 13  1  0  0  0  0
  9 25  1  0  0  0  0
 12 15  1  0  0  0  0
 13 24  1  0  0  0  0
 14 25  1  0  0  0  0
 15  5  1  0  0  0  0
 16  7  1  0  0  0  0
 16  3  1  0  0  0  0
 17 28  1  0  0  0  0
 17 10  1  0  0  0  0
 18 20  1  0  0  0  0
 19  6  1  0  0  0  0
 20 11  1  0  0  0  0
 20 13  1  0  0  0  0
 21 23  1  0  0  0  0
 21 26  1  0  0  0  0
 22 10  1  0  0  0  0
 24 22  1  0  0  0  0
 25 17  1  0  0  0  0
 27  9  1  0  0  0  0
 28 29  1  0  0  0  0
 29 32  1  0  0  0  0
 30 33  1  0  0  0  0
 31 33  1  0  0  0  0
 32 34  1  0  0  0  0
 32 31  1  0  0  0  0
 34 30  1  0  0  0  0
M  END
>  <MODEL>
5

>  <REMARK>
 VINA RESULT:      -6.6      1.629      2.946
  Name = 
  3 active torsions:
  status: ('A' for Active; 'I' for Inactive)
    1  A    between atoms: C_17  and  O_28
    2  A    between atoms: O_28  and  C_29
    3  A    between atoms: C_29  and  C_32
                            x       y       z     vdW  Elec       q    Type
                         _______ _______ _______ _____ _____    ______ ____

>  <TORSDO>
F 3

$$$$
=
 OpenBabel11122414413D

 34 42  0  0  1  0  0  0  0  0999 V2000
  161.6610  208.4030  149.6790 C   0  0  2  0  0  3  0  0  0  0  0  0
  161.6600  207.0930  147.6670 O   0  0  0  0  0  0  0  0  0  0  0  0
  160.6310  209.3860  156.2480 C   0  0  2  0  0  3  0  0  0  0  0  0
  161.9380  209.4270  151.8950 C   0  0  1  0  0  3  0  0  0  0  0  0
  160.7120  208.2880  153.9180 C   0  0  2  0  0  3  0  0  0  0  0  0
  159.9630  207.1200  155.8680 O   0  0  0  0  0  1  0  0  0  0  0  0
  159.6870  210.3920  155.6020 C   0  0  0  0  0  2  0  0  0  0  0  0
  161.7820  210.6540  154.2100 C   0  0  1  0  0  3  0  0  0  0  0  0
  160.3640  206.2340  149.3920 C   0  0  2  0  0  3  0  0  0  0  0  0
  161.4220  203.2510  149.7920 C   0  0  0  0  0  2  0  0  0  0  0  0
  161.0360  207.0160  153.1430 C   0  0  0  0  0  2  0  0  0  0  0  0
  162.7490  209.6290  154.1400 O   0  0  0  0  0  0  0  0  0  0  0  0
  160.9370  205.9990  150.8040 C   0  0  1  0  0  3  0  0  0  0  0  0
  161.1210  205.9640  147.2150 O   0  0  0  0  0  0  0  0  0  0  0  0
  161.5750  209.4330  153.3840 C   0  0  2  0  0  0  0  0  0  0  0  0
  161.1820  210.6810  155.6350 C   0  0  2  0  0  3  0  0  0  0  0  0
  161.9010  204.2570  148.7480 C   0  0  2  0  0  3  0  0  0  0  0  0
  160.9970  208.5500  151.0530 C   0  0  2  0  0  3  0  0  0  0  0  0
  160.8500  208.1020  155.4270 C   0  0  2  0  0  3  0  0  0  0  0  0
  160.5810  207.1940  151.6910 C   0  0  2  0  0  3  0  0  0  0  0  0
  162.6910  210.6250  150.1290 C   0  0  0  0  0  2  0  0  0  0  0  0
  161.4360  203.8680  151.1880 C   0  0  0  0  0  2  0  0  0  0  0  0
  161.9760  210.7230  151.3440 O   0  0  0  0  0  0  0  0  0  0  0  0
  160.4110  204.8120  151.3250 O   0  0  0  0  0  0  0  0  0  0  0  0
  160.7620  205.2150  148.3480 C   0  0  1  0  0  3  0  0  0  0  0  0
  161.9160  209.7910  149.0960 C   0  0  0  0  0  2  0  0  0  0  0  0
  160.8520  207.5090  148.7350 C   0  0  1  0  0  3  0  0  0  0  0  0
  162.3490  203.5610  147.6220 O   0  0  0  0  0  0  0  0  0  0  0  0
  161.4120  202.5380  147.4360 C   0  0  0  0  0  2  0  0  0  0  0  0
  159.6900  202.6520  144.2380 C   0  0  0  0  0  2  0  0  0  0  0  0
  160.5290  201.0340  145.7710 O   0  0  0  0  0  0  0  0  0  0  0  0
  161.2290  202.2420  145.9560 C   0  0  1  0  0  3  0  0  0  0  0  0
  159.4920  201.2910  144.8550 C   0  0  0  0  0  2  0  0  0  0  0  0
  160.4990  203.3680  145.2630 C   0  0  0  0  0  2  0  0  0  0  0  0
  1 26  1  6  0  0  0
  1 18  1  0  0  0  0
  2 27  1  0  0  0  0
  3  7  1  6  0  0  0
  4 23  1  6  0  0  0
  4 15  1  0  0  0  0
  5 11  1  6  0  0  0
  5 19  1  0  0  0  0
  7 16  1  0  0  0  0
  8 12  1  1  0  0  0
  8 16  1  0  0  0  0
  9 13  1  0  0  0  0
 10 22  1  0  0  0  0
 13 24  1  0  0  0  0
 13 20  1  0  0  0  0
 14  2  1  0  0  0  0
 14 25  1  0  0  0  0
 15  5  1  0  0  0  0
 15 12  1  0  0  0  0
 15  8  1  0  0  0  0
 16  3  1  0  0  0  0
 17 10  1  0  0  0  0
 18 20  1  0  0  0  0
 18  4  1  0  0  0  0
 19  6  1  0  0  0  0
 19  3  1  0  0  0  0
 20 11  1  0  0  0  0
 21 23  1  0  0  0  0
 22 24  1  0  0  0  0
 25 17  1  0  0  0  0
 25  9  1  0  0  0  0
 26 21  1  0  0  0  0
 27  9  1  0  0  0  0
 27  1  1  0  0  0  0
 28 17  1  0  0  0  0
 29 28  1  0  0  0  0
 30 33  1  0  0  0  0
 30 34  1  0  0  0  0
 31 32  1  0  0  0  0
 32 29  1  0  0  0  0
 33 31  1  0  0  0  0
 34 32  1  0  0  0  0
M  END
>  <MODEL>
6

>  <REMARK>
 VINA RESULT:      -6.2      1.962      8.237
  Name = 
  3 active torsions:
  status: ('A' for Active; 'I' for Inactive)
    1  A    between atoms: C_17  and  O_28
    2  A    between atoms: O_28  and  C_29
    3  A    between atoms: C_29  and  C_32
                            x       y       z     vdW  Elec       q    Type
                         _______ _______ _______ _____ _____    ______ ____

>  <TORSDO>
F 3

$$$$
=
 OpenBabel11122414413D

 34 42  0  0  1  0  0  0  0  0999 V2000
  161.5800  208.1850  148.6100 C   0  0  2  0  0  3  0  0  0  0  0  0
  161.7830  210.5590  148.3160 O   0  0  0  0  0  0  0  0  0  0  0  0
  161.0350  202.5740  152.2700 C   0  0  2  0  0  3  0  0  0  0  0  0
  160.9930  205.8560  149.1260 C   0  0  1  0  0  3  0  0  0  0  0  0
  161.3010  205.0490  151.6040 C   0  0  2  0  0  3  0  0  0  0  0  0
  161.1780  204.3330  153.8860 O   0  0  0  0  0  1  0  0  0  0  0  0
  162.3410  202.3620  151.5160 C   0  0  0  0  0  2  0  0  0  0  0  0
  160.8330  203.3030  149.7180 C   0  0  1  0  0  3  0  0  0  0  0  0
  162.3090  209.7880  150.4430 C   0  0  2  0  0  3  0  0  0  0  0  0
  160.4560  211.4950  152.4020 C   0  0  0  0  0  2  0  0  0  0  0  0
  160.8820  206.4820  151.9140 C   0  0  0  0  0  2  0  0  0  0  0  0
  159.6920  204.0660  150.0430 O   0  0  0  0  0  0  0  0  0  0  0  0
  161.3390  208.9050  151.2530 C   0  0  1  0  0  3  0  0  0  0  0  0
  162.1160  211.6250  149.0380 O   0  0  0  0  0  0  0  0  0  0  0  0
  160.9340  204.7230  150.1570 C   0  0  2  0  0  0  0  0  0  0  0  0
  161.0170  202.1970  150.7820 C   0  0  2  0  0  3  0  0  0  0  0  0
  160.5470  211.6300  150.8840 C   0  0  2  0  0  3  0  0  0  0  0  0
  161.8680  207.0350  149.5810 C   0  0  2  0  0  3  0  0  0  0  0  0
  160.7230  204.0460  152.5990 C   0  0  2  0  0  3  0  0  0  0  0  0
  161.7380  207.4380  151.0780 C   0  0  2  0  0  3  0  0  0  0  0  0
  161.0710  206.4140  146.9340 C   0  0  0  0  0  2  0  0  0  0  0  0
  160.2280  210.0410  152.8060 C   0  0  0  0  0  2  0  0  0  0  0  0
  161.4350  205.4140  147.8630 O   0  0  0  0  0  0  0  0  0  0  0  0
  161.3860  209.2800  152.6000 O   0  0  0  0  0  0  0  0  0  0  0  0
  161.9570  211.2590  150.3850 C   0  0  1  0  0  3  0  0  0  0  0  0
  161.8540  207.7140  147.1820 C   0  0  0  0  0  2  0  0  0  0  0  0
  162.3560  209.4560  148.9660 C   0  0  1  0  0  3  0  0  0  0  0  0
  160.2530  212.9490  150.5290 O   0  0  0  0  0  0  0  0  0  0  0  0
  158.9000  213.1130  150.8490 C   0  0  0  0  0  2  0  0  0  0  0  0
  157.0900  213.3310  147.7050 C   0  0  0  0  0  2  0  0  0  0  0  0
  159.0620  214.2120  148.7080 O   0  0  0  0  0  0  0  0  0  0  0  0
  158.1660  213.8280  149.7250 C   0  0  1  0  0  3  0  0  0  0  0  0
  158.5110  213.7830  147.4860 C   0  0  0  0  0  2  0  0  0  0  0  0
  157.0780  212.9570  149.1470 C   0  0  0  0  0  2  0  0  0  0  0  0
  1 26  1  6  0  0  0
  1 27  1  0  0  0  0
  1 18  1  0  0  0  0
  2 27  1  0  0  0  0
  2 14  1  0  0  0  0
  3  7  1  6  0  0  0
  3 19  1  0  0  0  0
  4 23  1  6  0  0  0
  4 18  1  0  0  0  0
  4 15  1  0  0  0  0
  5 11  1  1  0  0  0
  5 19  1  0  0  0  0
  8 12  1  1  0  0  0
  8 15  1  0  0  0  0
  8 16  1  0  0  0  0
  9 13  1  0  0  0  0
 10 22  1  0  0  0  0
 12 15  1  0  0  0  0
 13 24  1  0  0  0  0
 14 25  1  0  0  0  0
 15  5  1  0  0  0  0
 16  7  1  0  0  0  0
 16  3  1  0  0  0  0
 17 10  1  0  0  0  0
 18 20  1  0  0  0  0
 19  6  1  0  0  0  0
 20 13  1  0  0  0  0
 20 11  1  0  0  0  0
 21 26  1  0  0  0  0
 21 23  1  0  0  0  0
 24 22  1  0  0  0  0
 25  9  1  0  0  0  0
 25 17  1  0  0  0  0
 27  9  1  0  0  0  0
 28 29  1  0  0  0  0
 28 17  1  0  0  0  0
 30 34  1  0  0  0  0
 31 32  1  0  0  0  0
 32 29  1  0  0  0  0
 33 30  1  0  0  0  0
 33 31  1  0  0  0  0
 34 32  1  0  0  0  0
M  END
>  <MODEL>
7

>  <REMARK>
 VINA RESULT:      -5.7      2.677      4.309
  Name = 
  3 active torsions:
  status: ('A' for Active; 'I' for Inactive)
    1  A    between atoms: C_17  and  O_28
    2  A    between atoms: O_28  and  C_29
    3  A    between atoms: C_29  and  C_32
                            x       y       z     vdW  Elec       q    Type
                         _______ _______ _______ _____ _____    ______ ____

>  <TORSDO>
F 3

$$$$
=
 OpenBabel11122414413D

 34 42  0  0  1  0  0  0  0  0999 V2000
  160.7560  207.7250  153.8650 C   0  0  2  0  0  3  0  0  0  0  0  0
  161.8860  206.0250  152.6010 O   0  0  0  0  0  0  0  0  0  0  0  0
  158.5570  213.9810  154.9610 C   0  0  2  0  0  3  0  0  0  0  0  0
  159.3430  209.5080  154.7920 C   0  0  1  0  0  3  0  0  0  0  0  0
  159.7200  211.9440  153.8920 C   0  0  2  0  0  3  0  0  0  0  0  0
  159.7160  214.1100  152.8710 O   0  0  0  0  0  1  0  0  0  0  0  0
  159.4930  213.7390  156.1370 C   0  0  0  0  0  2  0  0  0  0  0  0
  158.2290  211.5530  156.0020 C   0  0  1  0  0  3  0  0  0  0  0  0
  162.4080  208.2050  151.9920 C   0  0  2  0  0  3  0  0  0  0  0  0
  161.8330  208.3290  148.8570 C   0  0  0  0  0  2  0  0  0  0  0  0
  160.0080  211.2070  152.5900 C   0  0  0  0  0  2  0  0  0  0  0  0
  157.5950  211.1450  154.8100 O   0  0  0  0  0  0  0  0  0  0  0  0
  161.3190  209.2350  151.6360 C   0  0  1  0  0  3  0  0  0  0  0  0
  162.7620  205.9450  151.6020 O   0  0  0  0  0  0  0  0  0  0  0  0
  158.9970  210.9990  154.8530 C   0  0  2  0  0  0  0  0  0  0  0  0
  158.1160  213.0900  156.1300 C   0  0  2  0  0  3  0  0  0  0  0  0
  161.7000  207.1060  149.7610 C   0  0  2  0  0  3  0  0  0  0  0  0
  160.7000  209.2340  154.1240 C   0  0  2  0  0  3  0  0  0  0  0  0
  158.9600  213.2490  153.6670 C   0  0  2  0  0  3  0  0  0  0  0  0
  161.0220  210.0930  152.8670 C   0  0  2  0  0  3  0  0  0  0  0  0
  159.2560  207.5030  155.8400 C   0  0  0  0  0  2  0  0  0  0  0  0
  161.0890  209.5240  149.4440 C   0  0  0  0  0  2  0  0  0  0  0  0
  159.3230  208.8970  156.0620 O   0  0  0  0  0  0  0  0  0  0  0  0
  161.7590  210.0250  150.5680 O   0  0  0  0  0  0  0  0  0  0  0  0
  162.7060  207.1740  150.9260 C   0  0  1  0  0  3  0  0  0  0  0  0
  160.5450  206.9830  155.1830 C   0  0  0  0  0  2  0  0  0  0  0  0
  162.0460  207.3030  153.1550 C   0  0  1  0  0  3  0  0  0  0  0  0
  161.9310  205.9560  149.0040 O   0  0  0  0  0  0  0  0  0  0  0  0
  161.9800  206.4030  147.6780 C   0  0  0  0  0  2  0  0  0  0  0  0
  161.4160  204.0000  145.0110 C   0  0  0  0  0  2  0  0  0  0  0  0
  160.7410  206.2020  145.6190 O   0  0  0  0  0  0  0  0  0  0  0  0
  161.1380  205.5100  146.7800 C   0  0  1  0  0  3  0  0  0  0  0  0
  161.0430  205.3760  144.5200 C   0  0  0  0  0  2  0  0  0  0  0  0
  161.8920  204.2590  146.3980 C   0  0  0  0  0  2  0  0  0  0  0  0
  1 18  1  0  0  0  0
  1 26  1  1  0  0  0
  2 27  1  0  0  0  0
  3 16  1  0  0  0  0
  3  7  1  1  0  0  0
  4 15  1  0  0  0  0
  4 23  1  1  0  0  0
  5 11  1  6  0  0  0
  5 15  1  0  0  0  0
  6 19  1  0  0  0  0
  8 12  1  6  0  0  0
  8 16  1  0  0  0  0
  9 27  1  0  0  0  0
 10 22  1  0  0  0  0
 10 17  1  0  0  0  0
 11 20  1  0  0  0  0
 12 15  1  0  0  0  0
 13  9  1  0  0  0  0
 13 20  1  0  0  0  0
 14  2  1  0  0  0  0
 15  8  1  0  0  0  0
 16  7  1  0  0  0  0
 17 25  1  0  0  0  0
 18  4  1  0  0  0  0
 19  5  1  0  0  0  0
 19  3  1  0  0  0  0
 20 18  1  0  0  0  0
 21 23  1  0  0  0  0
 22 24  1  0  0  0  0
 24 13  1  0  0  0  0
 25 14  1  0  0  0  0
 25  9  1  0  0  0  0
 26 21  1  0  0  0  0
 27  1  1  0  0  0  0
 28 17  1  0  0  0  0
 29 28  1  0  0  0  0
 30 34  1  0  0  0  0
 31 32  1  0  0  0  0
 32 29  1  0  0  0  0
 33 30  1  0  0  0  0
 33 31  1  0  0  0  0
 34 32  1  0  0  0  0
M  END
>  <MODEL>
8

>  <REMARK>
 VINA RESULT:      -5.6      1.678      8.488
  Name = 
  3 active torsions:
  status: ('A' for Active; 'I' for Inactive)
    1  A    between atoms: C_17  and  O_28
    2  A    between atoms: O_28  and  C_29
    3  A    between atoms: C_29  and  C_32
                            x       y       z     vdW  Elec       q    Type
                         _______ _______ _______ _____ _____    ______ ____

>  <TORSDO>
F 3

$$$$
=
 OpenBabel11122414413D

 34 42  0  0  1  0  0  0  0  0999 V2000
  161.6180  209.3890  150.4680 C   0  0  2  0  0  3  0  0  0  0  0  0
  161.6900  210.4890  148.3360 O   0  0  0  0  0  0  0  0  0  0  0  0
  160.4530  209.1030  157.0810 C   0  0  2  0  0  3  0  0  0  0  0  0
  161.1080  208.3690  152.6440 C   0  0  1  0  0  3  0  0  0  0  0  0
  160.6930  209.9840  154.6720 C   0  0  2  0  0  3  0  0  0  0  0  0
  159.9240  211.3570  156.4760 O   0  0  0  0  0  1  0  0  0  0  0  0
  161.9430  208.8040  156.9860 C   0  0  0  0  0  2  0  0  0  0  0  0
  160.9980  207.4230  155.0900 C   0  0  1  0  0  3  0  0  0  0  0  0
  161.5870  211.9140  150.1670 C   0  0  2  0  0  3  0  0  0  0  0  0
  159.0690  213.7870  149.5930 C   0  0  0  0  0  2  0  0  0  0  0  0
  160.0720  210.8610  153.5910 C   0  0  0  0  0  2  0  0  0  0  0  0
  159.7500  207.7300  154.5110 O   0  0  0  0  0  0  0  0  0  0  0  0
  160.4960  211.7770  151.2460 C   0  0  1  0  0  3  0  0  0  0  0  0
  161.6830  211.7290  147.8550 O   0  0  0  0  0  0  0  0  0  0  0  0
  160.8300  208.5570  154.1400 C   0  0  2  0  0  0  0  0  0  0  0  0
  160.9370  207.7260  156.6050 C   0  0  2  0  0  3  0  0  0  0  0  0
  159.6200  212.6940  148.6810 C   0  0  2  0  0  3  0  0  0  0  0  0
  161.6870  209.6280  151.9800 C   0  0  2  0  0  3  0  0  0  0  0  0
  159.9230  210.0500  155.9880 C   0  0  2  0  0  3  0  0  0  0  0  0
  161.0580  210.9800  152.4260 C   0  0  2  0  0  3  0  0  0  0  0  0
  161.8200  206.9680  151.0160 C   0  0  0  0  0  2  0  0  0  0  0  0
  158.8560  213.2580  151.0080 C   0  0  0  0  0  2  0  0  0  0  0  0
  161.9620  207.2790  152.3870 O   0  0  0  0  0  0  0  0  0  0  0  0
  160.0830  213.0510  151.6520 O   0  0  0  0  0  0  0  0  0  0  0  0
  161.1420  212.5430  148.8650 C   0  0  1  0  0  3  0  0  0  0  0  0
  162.3660  208.1010  150.1320 C   0  0  0  0  0  2  0  0  0  0  0  0
  162.1260  210.5900  149.6650 C   0  0  1  0  0  3  0  0  0  0  0  0
  159.3360  213.0270  147.3540 O   0  0  0  0  0  0  0  0  0  0  0  0
  159.9300  214.2800  147.1640 C   0  0  0  0  0  2  0  0  0  0  0  0
  161.3740  212.9610  144.1010 C   0  0  0  0  0  2  0  0  0  0  0  0
  161.9580  214.4470  145.8690 O   0  0  0  0  0  0  0  0  0  0  0  0
  160.5540  214.3740  145.7800 C   0  0  1  0  0  3  0  0  0  0  0  0
  162.4810  213.4900  144.9780 C   0  0  0  0  0  2  0  0  0  0  0  0
  160.1560  213.1950  144.9250 C   0  0  0  0  0  2  0  0  0  0  0  0
  1 26  1  1  0  0  0
  1 18  1  0  0  0  0
  2 27  1  0  0  0  0
  3  7  1  6  0  0  0
  4 23  1  1  0  0  0
  4 15  1  0  0  0  0
  5 11  1  6  0  0  0
  5 19  1  0  0  0  0
  8 12  1  6  0  0  0
  8 16  1  0  0  0  0
  9 13  1  0  0  0  0
 10 22  1  0  0  0  0
 13 24  1  0  0  0  0
 13 20  1  0  0  0  0
 14  2  1  0  0  0  0
 14 25  1  0  0  0  0
 15 12  1  0  0  0  0
 15  5  1  0  0  0  0
 15  8  1  0  0  0  0
 16  7  1  0  0  0  0
 16  3  1  0  0  0  0
 17 25  1  0  0  0  0
 17 10  1  0  0  0  0
 18 20  1  0  0  0  0
 18  4  1  0  0  0  0
 19  6  1  0  0  0  0
 19  3  1  0  0  0  0
 20 11  1  0  0  0  0
 21 23  1  0  0  0  0
 22 24  1  0  0  0  0
 25  9  1  0  0  0  0
 26 21  1  0  0  0  0
 27  9  1  0  0  0  0
 27  1  1  0  0  0  0
 28 17  1  0  0  0  0
 29 28  1  0  0  0  0
 30 34  1  0  0  0  0
 30 33  1  0  0  0  0
 32 31  1  0  0  0  0
 32 29  1  0  0  0  0
 33 31  1  0  0  0  0
 34 32  1  0  0  0  0
M  END
>  <MODEL>
9

>  <REMARK>
 VINA RESULT:      -5.5      2.990      7.447
  Name = 
  3 active torsions:
  status: ('A' for Active; 'I' for Inactive)
    1  A    between atoms: C_17  and  O_28
    2  A    between atoms: O_28  and  C_29
    3  A    between atoms: C_29  and  C_32
                            x       y       z     vdW  Elec       q    Type
                         _______ _______ _______ _____ _____    ______ ____

>  <TORSDO>
F 3

$$$$
