=
 OpenBabel11122413323D

 37 43  0  0  1  0  0  0  0  0999 V2000
  158.5950  211.8290  151.9140 C   0  0  0  0  0  2  0  0  0  0  0  0
  161.2660  207.8530  150.8080 C   0  0  0  0  0  0  0  0  0  0  0  0
  160.5570  209.2070  154.7560 C   0  0  0  0  0  0  0  0  0  0  0  0
  158.2470  212.9140  150.9700 N   0  0  0  0  0  0  0  0  0  0  0  0
  159.9240  212.8190  155.3150 O   0  0  0  0  0  0  0  0  0  0  0  0
  160.9340  207.3540  153.3010 C   0  0  0  0  0  0  0  0  0  0  0  0
  160.4560  210.6420  154.6070 C   0  0  0  0  0  0  0  0  0  0  0  0
  157.5590  214.2170  153.0400 C   0  0  0  0  0  0  0  0  0  0  0  0
  160.6980  208.7000  153.4920 C   0  0  0  0  0  0  0  0  0  0  0  0
  159.9520  211.4750  155.5670 C   0  0  0  0  0  0  0  0  0  0  0  0
  160.9110  206.5040  154.4160 C   0  0  0  0  0  3  0  0  0  0  0  0
  158.0930  214.2410  151.6130 C   0  0  0  0  0  2  0  0  0  0  0  0
  160.6930  209.6850  152.4810 N   0  0  0  0  0  0  0  0  0  0  0  0
  160.8180  207.3300  149.4750 C   0  0  0  0  0  1  0  0  0  0  0  0
  160.2030  208.9750  157.0890 O   0  0  0  0  0  0  0  0  0  0  0  0
  160.7910  207.0250  155.7150 C   0  0  0  0  0  3  0  0  0  0  0  0
  160.5900  209.2620  151.0540 C   0  0  0  0  0  2  0  0  0  0  0  0
  158.5290  214.4530  154.1870 C   0  0  0  0  0  2  0  0  0  0  0  0
  159.3930  213.2610  154.1160 C   0  0  1  0  0  3  0  0  0  0  0  0
  160.5570  208.4030  155.8580 C   0  0  0  0  0  0  0  0  0  0  0  0
  160.8770  210.9680  153.2010 C   0  0  1  0  0  3  0  0  0  0  0  0
  160.9900  206.7650  151.8980 C   0  0  0  0  0  2  0  0  0  0  0  0
  159.0020  211.0900  156.6040 C   0  0  0  0  0  0  0  0  0  0  0  0
  162.7490  208.0410  150.6920 C   0  0  0  0  0  1  0  0  0  0  0  0
  160.3110  213.3490  153.0840 O   0  0  0  0  0  0  0  0  0  0  0  0
  156.4710  213.8180  153.2370 O   0  0  0  0  0  0  0  0  0  0  0  0
  160.0760  212.0860  152.5070 C   0  0  2  0  0  3  0  0  0  0  0  0
  159.1350  209.9090  157.2610 C   0  0  0  0  0  3  0  0  0  0  0  0
  157.4820  212.9440  157.0680 N   0  0  0  0  0  0  0  0  0  0  0  0
  157.6570  211.6820  156.7270 C   0  0  0  0  0  0  0  0  0  0  0  0
  156.5260  210.8110  156.5730 C   0  0  0  0  0  3  0  0  0  0  0  0
  154.0880  210.5470  156.7210 O   0  0  0  0  0  1  0  0  0  0  0  0
  155.0850  212.6930  157.1200 C   0  0  0  0  0  3  0  0  0  0  0  0
  155.2610  211.3620  156.8020 C   0  0  0  0  0  0  0  0  0  0  0  0
  156.2570  213.4920  157.2480 C   0  0  0  0  0  3  0  0  0  0  0  0
  156.5780  213.7100  149.3840 C   0  0  0  0  0  1  0  0  0  0  0  0
  156.9730  212.5920  150.3510 C   0  0  0  0  0  2  0  0  0  0  0  0
  2 17  1  0  0  0  0
  2 22  1  0  0  0  0
  3 20  1  0  0  0  0
  4 12  1  0  0  0  0
  4  1  1  0  0  0  0
  5 10  1  0  0  0  0
  6  9  1  0  0  0  0
  6 11  2  0  0  0  0
  7  3  1  0  0  0  0
  7 10  2  0  0  0  0
  8 26  2  0  0  0  0
  8 18  1  0  0  0  0
  9  3  2  0  0  0  0
 10 23  1  0  0  0  0
 11 16  1  0  0  0  0
 12  8  1  0  0  0  0
 13 21  1  0  0  0  0
 13  9  1  0  0  0  0
 14  2  1  0  0  0  0
 15 28  1  0  0  0  0
 16 20  2  0  0  0  0
 17 13  1  0  0  0  0
 19 18  1  1  0  0  0
 19  5  1  0  0  0  0
 20 15  1  0  0  0  0
 21  7  1  1  0  0  0
 22  6  1  0  0  0  0
 23 30  1  0  0  0  0
 23 28  2  0  0  0  0
 24  2  1  0  0  0  0
 25 19  1  0  0  0  0
 27  1  1  1  0  0  0
 27 25  1  0  0  0  0
 27 21  1  0  0  0  0
 29 35  1  0  0  0  0
 30 29  2  0  0  0  0
 31 30  1  0  0  0  0
 31 34  2  0  0  0  0
 32 34  1  0  0  0  0
 33 35  2  0  0  0  0
 34 33  1  0  0  0  0
 36 37  1  0  0  0  0
 37  4  1  0  0  0  0
M  END
>  <MODEL>
1

>  <REMARK>
 VINA RESULT:      -3.1      0.000      0.000
  Name = 
  2 active torsions:
  status: ('A' for Active; 'I' for Inactive)
    1  A    between atoms: N_4  and  C_37
    2  A    between atoms: C_23  and  C_30
                            x       y       z     vdW  Elec       q    Type
                         _______ _______ _______ _____ _____    ______ ____

>  <TORSDO>
F 2

$$$$
=
 OpenBabel11122413323D

 37 43  0  0  1  0  0  0  0  0999 V2000
  160.9010  210.8200  150.5320 C   0  0  0  0  0  2  0  0  0  0  0  0
  159.4920  210.2960  155.2120 C   0  0  0  0  0  0  0  0  0  0  0  0
  157.8120  213.1110  152.5340 C   0  0  0  0  0  0  0  0  0  0  0  0
  162.1720  210.3220  149.9610 N   0  0  0  0  0  0  0  0  0  0  0  0
  159.8980  214.3830  149.7420 O   0  0  0  0  0  0  0  0  0  0  0  0
  157.4830  211.6700  154.4060 C   0  0  0  0  0  0  0  0  0  0  0  0
  158.9160  213.4480  151.6620 C   0  0  0  0  0  0  0  0  0  0  0  0
  161.6280  211.8110  147.9750 C   0  0  0  0  0  0  0  0  0  0  0  0
  158.2710  212.1310  153.3730 C   0  0  0  0  0  0  0  0  0  0  0  0
  158.7740  214.1050  150.4720 C   0  0  0  0  0  0  0  0  0  0  0  0
  156.1670  212.1420  154.5080 C   0  0  0  0  0  3  0  0  0  0  0  0
  162.6900  211.1450  148.8420 C   0  0  0  0  0  2  0  0  0  0  0  0
  159.6130  211.7630  153.1340 N   0  0  0  0  0  0  0  0  0  0  0  0
  159.8090  208.8970  155.6540 C   0  0  0  0  0  1  0  0  0  0  0  0
  156.0890  214.4530  151.6100 O   0  0  0  0  0  0  0  0  0  0  0  0
  155.7010  213.1650  153.6650 C   0  0  0  0  0  3  0  0  0  0  0  0
  160.1630  210.5470  153.8010 C   0  0  0  0  0  2  0  0  0  0  0  0
  161.3720  213.3000  148.1470 C   0  0  0  0  0  2  0  0  0  0  0  0
  160.8070  213.3650  149.5070 C   0  0  1  0  0  3  0  0  0  0  0  0
  156.5440  213.6050  152.6310 C   0  0  0  0  0  0  0  0  0  0  0  0
  160.1500  212.8330  152.2610 C   0  0  1  0  0  3  0  0  0  0  0  0
  157.9440  210.5110  155.2790 C   0  0  0  0  0  2  0  0  0  0  0  0
  157.5700  214.1130  149.6490 C   0  0  0  0  0  0  0  0  0  0  0  0
  160.1390  211.1960  156.2220 C   0  0  0  0  0  1  0  0  0  0  0  0
  161.7830  213.2380  150.4790 O   0  0  0  0  0  0  0  0  0  0  0  0
  160.8950  211.1370  147.3510 O   0  0  0  0  0  0  0  0  0  0  0  0
  161.1560  212.2420  151.2540 C   0  0  2  0  0  3  0  0  0  0  0  0
  156.3440  214.2420  150.2190 C   0  0  0  0  0  3  0  0  0  0  0  0
  157.0250  212.3850  148.0130 N   0  0  0  0  0  0  0  0  0  0  0  0
  157.5260  213.5760  148.2770 C   0  0  0  0  0  0  0  0  0  0  0  0
  158.1510  214.3460  147.2370 C   0  0  0  0  0  3  0  0  0  0  0  0
  158.8510  214.4510  144.8850 O   0  0  0  0  0  1  0  0  0  0  0  0
  157.6370  212.5430  145.6860 C   0  0  0  0  0  3  0  0  0  0  0  0
  158.1990  213.7730  145.9620 C   0  0  0  0  0  0  0  0  0  0  0  0
  157.0320  211.8460  146.7700 C   0  0  0  0  0  3  0  0  0  0  0  0
  162.0370  207.9690  150.5750 C   0  0  0  0  0  1  0  0  0  0  0  0
  161.9470  208.9870  149.4370 C   0  0  0  0  0  2  0  0  0  0  0  0
  2 22  1  0  0  0  0
  2 14  1  0  0  0  0
  2 24  1  0  0  0  0
  3 20  2  0  0  0  0
  3  9  1  0  0  0  0
  4  1  1  0  0  0  0
  5 10  1  0  0  0  0
  6 11  1  0  0  0  0
  6 22  1  0  0  0  0
  7  3  1  0  0  0  0
  8 18  1  0  0  0  0
  8 12  1  0  0  0  0
  9  6  2  0  0  0  0
 10  7  2  0  0  0  0
 12  4  1  0  0  0  0
 13  9  1  0  0  0  0
 13 17  1  0  0  0  0
 15 20  1  0  0  0  0
 16 11  2  0  0  0  0
 17  2  1  0  0  0  0
 19 18  1  6  0  0  0
 19  5  1  0  0  0  0
 19 25  1  0  0  0  0
 20 16  1  0  0  0  0
 21  7  1  6  0  0  0
 21 13  1  0  0  0  0
 23 28  2  0  0  0  0
 23 10  1  0  0  0  0
 25 27  1  0  0  0  0
 26  8  2  0  0  0  0
 27  1  1  6  0  0  0
 27 21  1  0  0  0  0
 28 15  1  0  0  0  0
 29 30  1  0  0  0  0
 30 23  1  0  0  0  0
 31 30  2  0  0  0  0
 32 34  1  0  0  0  0
 33 34  2  0  0  0  0
 33 35  1  0  0  0  0
 34 31  1  0  0  0  0
 35 29  2  0  0  0  0
 37  4  1  0  0  0  0
 37 36  1  0  0  0  0
M  END
>  <MODEL>
2

>  <REMARK>
 VINA RESULT:      -1.6      2.924      7.180
  Name = 
  2 active torsions:
  status: ('A' for Active; 'I' for Inactive)
    1  A    between atoms: N_4  and  C_37
    2  A    between atoms: C_23  and  C_30
                            x       y       z     vdW  Elec       q    Type
                         _______ _______ _______ _____ _____    ______ ____

>  <TORSDO>
F 2

$$$$
=
 OpenBabel11122413323D

 37 43  0  0  1  0  0  0  0  0999 V2000
  160.2400  211.4200  147.7420 C   0  0  0  0  0  2  0  0  0  0  0  0
  162.1280  206.8850  147.9210 C   0  0  0  0  0  0  0  0  0  0  0  0
  161.1530  209.1810  151.3410 C   0  0  0  0  0  0  0  0  0  0  0  0
  160.2760  212.3150  146.5640 N   0  0  0  0  0  0  0  0  0  0  0  0
  161.2350  212.8810  151.0870 O   0  0  0  0  0  0  0  0  0  0  0  0
  161.3330  207.0170  150.3550 C   0  0  0  0  0  0  0  0  0  0  0  0
  161.3860  210.5430  150.9110 C   0  0  0  0  0  0  0  0  0  0  0  0
  159.5860  214.1450  148.1870 C   0  0  0  0  0  0  0  0  0  0  0  0
  161.3670  208.3910  150.2430 C   0  0  0  0  0  0  0  0  0  0  0  0
  160.9370  211.6430  151.5860 C   0  0  0  0  0  0  0  0  0  0  0  0
  160.9650  206.4520  151.5840 C   0  0  0  0  0  3  0  0  0  0  0  0
  160.3170  213.7570  146.9070 C   0  0  0  0  0  2  0  0  0  0  0  0
  161.7220  209.1140  149.0840 N   0  0  0  0  0  0  0  0  0  0  0  0
  161.7790  206.1700  146.6480 C   0  0  0  0  0  1  0  0  0  0  0  0
  160.4180  209.5370  153.5670 O   0  0  0  0  0  0  0  0  0  0  0  0
  160.7700  207.2590  152.7170 C   0  0  0  0  0  3  0  0  0  0  0  0
  161.7420  208.4120  147.7670 C   0  0  0  0  0  2  0  0  0  0  0  0
  160.4050  214.4500  149.4320 C   0  0  0  0  0  2  0  0  0  0  0  0
  160.9940  213.1350  149.7480 C   0  0  1  0  0  3  0  0  0  0  0  0
  160.8190  208.6540  152.5530 C   0  0  0  0  0  0  0  0  0  0  0  0
  162.0690  210.4690  149.5730 C   0  0  1  0  0  3  0  0  0  0  0  0
  161.4680  206.1320  149.1230 C   0  0  0  0  0  2  0  0  0  0  0  0
  159.7840  211.6740  152.4790 C   0  0  0  0  0  0  0  0  0  0  0  0
  163.6170  206.7730  148.0530 C   0  0  0  0  0  1  0  0  0  0  0  0
  162.0510  212.8280  148.9100 O   0  0  0  0  0  0  0  0  0  0  0  0
  158.4210  214.0000  148.2460 O   0  0  0  0  0  0  0  0  0  0  0  0
  161.6370  211.5320  148.5440 C   0  0  2  0  0  3  0  0  0  0  0  0
  159.5620  210.6620  153.3570 C   0  0  0  0  0  3  0  0  0  0  0  0
  158.3140  212.9830  151.0350 N   0  0  0  0  0  0  0  0  0  0  0  0
  158.5940  212.5100  152.2340 C   0  0  0  0  0  0  0  0  0  0  0  0
  157.8010  212.8930  153.3670 C   0  0  0  0  0  3  0  0  0  0  0  0
  155.9370  214.2480  154.2180 O   0  0  0  0  0  1  0  0  0  0  0  0
  156.4310  214.2350  151.8710 C   0  0  0  0  0  3  0  0  0  0  0  0
  156.7420  213.7770  153.1350 C   0  0  0  0  0  0  0  0  0  0  0  0
  157.2630  213.8040  150.7990 C   0  0  0  0  0  3  0  0  0  0  0  0
  159.2680  212.6380  144.3690 C   0  0  0  0  0  1  0  0  0  0  0  0
  159.0680  212.0990  145.7870 C   0  0  0  0  0  2  0  0  0  0  0  0
  2 24  1  0  0  0  0
  2 22  1  0  0  0  0
  3 20  1  0  0  0  0
  4 12  1  0  0  0  0
  4  1  1  0  0  0  0
  5 10  1  0  0  0  0
  6 11  2  0  0  0  0
  7  3  1  0  0  0  0
  7 10  2  0  0  0  0
  8 26  2  0  0  0  0
  8 18  1  0  0  0  0
  9  6  1  0  0  0  0
  9  3  2  0  0  0  0
 10 23  1  0  0  0  0
 11 16  1  0  0  0  0
 12  8  1  0  0  0  0
 13 21  1  0  0  0  0
 13  9  1  0  0  0  0
 14  2  1  0  0  0  0
 17  2  1  0  0  0  0
 17 13  1  0  0  0  0
 19 18  1  1  0  0  0
 19  5  1  0  0  0  0
 20 16  2  0  0  0  0
 20 15  1  0  0  0  0
 21  7  1  1  0  0  0
 22  6  1  0  0  0  0
 23 28  2  0  0  0  0
 25 19  1  0  0  0  0
 27  1  1  1  0  0  0
 27 25  1  0  0  0  0
 27 21  1  0  0  0  0
 28 15  1  0  0  0  0
 29 30  1  0  0  0  0
 30 23  1  0  0  0  0
 30 31  2  0  0  0  0
 33 34  2  0  0  0  0
 34 31  1  0  0  0  0
 34 32  1  0  0  0  0
 35 29  2  0  0  0  0
 35 33  1  0  0  0  0
 36 37  1  0  0  0  0
 37  4  1  0  0  0  0
M  END
>  <MODEL>
3

>  <REMARK>
 VINA RESULT:      -1.6      2.810      4.364
  Name = 
  2 active torsions:
  status: ('A' for Active; 'I' for Inactive)
    1  A    between atoms: N_4  and  C_37
    2  A    between atoms: C_23  and  C_30
                            x       y       z     vdW  Elec       q    Type
                         _______ _______ _______ _____ _____    ______ ____

>  <TORSDO>
F 2

$$$$
=
 OpenBabel11122413323D

 37 43  0  0  1  0  0  0  0  0999 V2000
  160.9620  208.9710  150.7300 C   0  0  0  0  0  2  0  0  0  0  0  0
  159.8650  208.7560  155.5160 C   0  0  0  0  0  0  0  0  0  0  0  0
  159.3950  212.2220  153.1320 C   0  0  0  0  0  0  0  0  0  0  0  0
  161.8260  208.0110  150.0070 N   0  0  0  0  0  0  0  0  0  0  0  0
  161.5870  212.6610  150.1720 O   0  0  0  0  0  0  0  0  0  0  0  0
  158.6170  210.9310  154.9810 C   0  0  0  0  0  0  0  0  0  0  0  0
  160.4560  212.1070  152.1560 C   0  0  0  0  0  0  0  0  0  0  0  0
  161.8370  209.7380  148.1420 C   0  0  0  0  0  0  0  0  0  0  0  0
  159.4380  211.0780  153.8830 C   0  0  0  0  0  0  0  0  0  0  0  0
  160.5220  212.8500  151.0110 C   0  0  0  0  0  0  0  0  0  0  0  0
  157.6620  211.9230  155.2420 C   0  0  0  0  0  3  0  0  0  0  0  0
  162.5600  208.6080  148.8650 C   0  0  0  0  0  2  0  0  0  0  0  0
  160.4510  210.1780  153.4870 N   0  0  0  0  0  0  0  0  0  0  0  0
  159.5620  207.3300  155.8750 C   0  0  0  0  0  1  0  0  0  0  0  0
  158.3780  214.2510  152.4470 O   0  0  0  0  0  0  0  0  0  0  0  0
  157.6310  213.1090  154.4890 C   0  0  0  0  0  3  0  0  0  0  0  0
  160.4560  208.7950  154.0490 C   0  0  0  0  0  2  0  0  0  0  0  0
  162.2860  211.1700  148.3900 C   0  0  0  0  0  2  0  0  0  0  0  0
  161.9250  211.3700  149.8050 C   0  0  1  0  0  3  0  0  0  0  0  0
  158.4920  213.2130  153.3830 C   0  0  0  0  0  0  0  0  0  0  0  0
  161.3330  210.9670  152.5950 C   0  0  1  0  0  3  0  0  0  0  0  0
  158.5850  209.6230  155.7600 C   0  0  0  0  0  2  0  0  0  0  0  0
  159.3830  213.4500  150.3260 C   0  0  0  0  0  0  0  0  0  0  0  0
  160.9260  209.1990  156.4780 C   0  0  0  0  0  1  0  0  0  0  0  0
  162.8200  210.7510  150.6600 O   0  0  0  0  0  0  0  0  0  0  0  0
  160.8310  209.5060  147.5810 O   0  0  0  0  0  0  0  0  0  0  0  0
  161.8830  210.0750  151.4660 C   0  0  2  0  0  3  0  0  0  0  0  0
  158.3950  214.0590  151.0310 C   0  0  0  0  0  3  0  0  0  0  0  0
  157.8010  212.5950  148.6740 N   0  0  0  0  0  0  0  0  0  0  0  0
  158.9900  213.0960  148.9490 C   0  0  0  0  0  0  0  0  0  0  0  0
  159.9850  213.2070  147.9200 C   0  0  0  0  0  3  0  0  0  0  0  0
  160.5840  212.7900  145.5750 O   0  0  0  0  0  1  0  0  0  0  0  0
  158.3730  212.2770  146.3530 C   0  0  0  0  0  3  0  0  0  0  0  0
  159.6320  212.7620  146.6420 C   0  0  0  0  0  0  0  0  0  0  0  0
  157.4420  212.2040  147.4280 C   0  0  0  0  0  3  0  0  0  0  0  0
  161.0300  205.7420  150.3970 C   0  0  0  0  0  1  0  0  0  0  0  0
  160.9880  206.9560  149.4670 C   0  0  0  0  0  2  0  0  0  0  0  0
  2 22  1  0  0  0  0
  2 14  1  0  0  0  0
  2 24  1  0  0  0  0
  3 20  2  0  0  0  0
  3  9  1  0  0  0  0
  4  1  1  0  0  0  0
  5 10  1  0  0  0  0
  6 11  1  0  0  0  0
  6 22  1  0  0  0  0
  7  3  1  0  0  0  0
  8 18  1  0  0  0  0
  8 12  1  0  0  0  0
  9  6  2  0  0  0  0
 10  7  2  0  0  0  0
 12  4  1  0  0  0  0
 13  9  1  0  0  0  0
 13 17  1  0  0  0  0
 15 20  1  0  0  0  0
 16 11  2  0  0  0  0
 17  2  1  0  0  0  0
 19 18  1  6  0  0  0
 19  5  1  0  0  0  0
 19 25  1  0  0  0  0
 20 16  1  0  0  0  0
 21  7  1  6  0  0  0
 21 13  1  0  0  0  0
 23 10  1  0  0  0  0
 23 28  2  0  0  0  0
 25 27  1  0  0  0  0
 26  8  2  0  0  0  0
 27  1  1  6  0  0  0
 27 21  1  0  0  0  0
 28 15  1  0  0  0  0
 29 30  1  0  0  0  0
 30 23  1  0  0  0  0
 31 30  2  0  0  0  0
 32 34  1  0  0  0  0
 33 34  2  0  0  0  0
 33 35  1  0  0  0  0
 34 31  1  0  0  0  0
 35 29  2  0  0  0  0
 37  4  1  0  0  0  0
 37 36  1  0  0  0  0
M  END
>  <MODEL>
4

>  <REMARK>
 VINA RESULT:      -1.0      2.744      6.908
  Name = 
  2 active torsions:
  status: ('A' for Active; 'I' for Inactive)
    1  A    between atoms: N_4  and  C_37
    2  A    between atoms: C_23  and  C_30
                            x       y       z     vdW  Elec       q    Type
                         _______ _______ _______ _____ _____    ______ ____

>  <TORSDO>
F 2

$$$$
=
 OpenBabel11122413323D

 37 43  0  0  1  0  0  0  0  0999 V2000
  159.4340  209.3890  156.1150 C   0  0  0  0  0  2  0  0  0  0  0  0
  155.5810  212.4170  156.5010 C   0  0  0  0  0  0  0  0  0  0  0  0
  158.4830  212.6570  153.4290 C   0  0  0  0  0  0  0  0  0  0  0  0
  159.9640  208.5370  157.2030 N   0  0  0  0  0  0  0  0  0  0  0  0
  161.9160  211.4320  154.1190 O   0  0  0  0  0  0  0  0  0  0  0  0
  156.2110  212.9780  154.0800 C   0  0  0  0  0  0  0  0  0  0  0  0
  159.6940  212.1970  154.0720 C   0  0  0  0  0  0  0  0  0  0  0  0
  161.9930  208.2370  155.7050 C   0  0  0  0  0  0  0  0  0  0  0  0
  157.4820  212.5170  154.3520 C   0  0  0  0  0  0  0  0  0  0  0  0
  160.8260  211.8350  153.3960 C   0  0  0  0  0  0  0  0  0  0  0  0
  155.9410  213.4860  152.8010 C   0  0  0  0  0  3  0  0  0  0  0  0
  161.4240  208.2920  157.1170 C   0  0  0  0  0  2  0  0  0  0  0  0
  157.9170  211.9850  155.5850 N   0  0  0  0  0  0  0  0  0  0  0  0
  154.4930  211.7140  157.2590 C   0  0  0  0  0  1  0  0  0  0  0  0
  159.2790  213.0900  151.2370 O   0  0  0  0  0  0  0  0  0  0  0  0
  156.9710  213.6540  151.8610 C   0  0  0  0  0  3  0  0  0  0  0  0
  156.9010  211.5500  156.5880 C   0  0  0  0  0  2  0  0  0  0  0  0
  162.7800  209.4310  155.1860 C   0  0  0  0  0  2  0  0  0  0  0  0
  161.7440  210.4770  155.1060 C   0  0  1  0  0  3  0  0  0  0  0  0
  158.2500  213.1720  152.1870 C   0  0  0  0  0  0  0  0  0  0  0  0
  159.3950  212.0860  155.5410 C   0  0  1  0  0  3  0  0  0  0  0  0
  155.0690  212.7360  155.0570 C   0  0  0  0  0  2  0  0  0  0  0  0
  160.8720  211.3560  152.0200 C   0  0  0  0  0  0  0  0  0  0  0  0
  155.8030  213.7130  157.2210 C   0  0  0  0  0  1  0  0  0  0  0  0
  161.4330  210.9930  156.3510 O   0  0  0  0  0  0  0  0  0  0  0  0
  161.6450  207.3790  154.9810 O   0  0  0  0  0  0  0  0  0  0  0  0
  160.0320  210.8830  156.2630 C   0  0  2  0  0  3  0  0  0  0  0  0
  160.1150  211.9440  151.0580 C   0  0  0  0  0  3  0  0  0  0  0  0
  162.2900  209.8470  150.7270 N   0  0  0  0  0  0  0  0  0  0  0  0
  161.3600  210.0160  151.6470 C   0  0  0  0  0  0  0  0  0  0  0  0
  160.7100  208.8800  152.2370 C   0  0  0  0  0  3  0  0  0  0  0  0
  160.4710  206.4350  152.2900 O   0  0  0  0  0  1  0  0  0  0  0  0
  162.1080  207.4460  150.8570 C   0  0  0  0  0  3  0  0  0  0  0  0
  161.1070  207.6150  151.7900 C   0  0  0  0  0  0  0  0  0  0  0  0
  162.7070  208.6230  150.3240 C   0  0  0  0  0  3  0  0  0  0  0  0
  158.6470  207.0800  155.7610 C   0  0  0  0  0  1  0  0  0  0  0  0
  159.3120  207.2420  157.1300 C   0  0  0  0  0  2  0  0  0  0  0  0
  1  4  1  0  0  0  0
  2 17  1  0  0  0  0
  2 24  1  0  0  0  0
  2 14  1  0  0  0  0
  3  7  1  0  0  0  0
  3  9  1  0  0  0  0
  5 19  1  0  0  0  0
  6  9  2  0  0  0  0
  6 22  1  0  0  0  0
  8 12  1  0  0  0  0
  9 13  1  0  0  0  0
 10  7  2  0  0  0  0
 10  5  1  0  0  0  0
 11  6  1  0  0  0  0
 12  4  1  0  0  0  0
 13 17  1  0  0  0  0
 15 20  1  0  0  0  0
 16 20  1  0  0  0  0
 16 11  2  0  0  0  0
 18  8  1  0  0  0  0
 19 18  1  1  0  0  0
 19 25  1  0  0  0  0
 20  3  2  0  0  0  0
 21  7  1  6  0  0  0
 21 13  1  0  0  0  0
 21 27  1  0  0  0  0
 22  2  1  0  0  0  0
 23 10  1  0  0  0  0
 26  8  2  0  0  0  0
 27  1  1  6  0  0  0
 27 25  1  0  0  0  0
 28 15  1  0  0  0  0
 28 23  2  0  0  0  0
 29 30  1  0  0  0  0
 30 23  1  0  0  0  0
 30 31  2  0  0  0  0
 33 34  2  0  0  0  0
 34 31  1  0  0  0  0
 34 32  1  0  0  0  0
 35 29  2  0  0  0  0
 35 33  1  0  0  0  0
 36 37  1  0  0  0  0
 37  4  1  0  0  0  0
M  END
>  <MODEL>
5

>  <REMARK>
 VINA RESULT:      -0.2      2.154      7.366
  Name = 
  2 active torsions:
  status: ('A' for Active; 'I' for Inactive)
    1  A    between atoms: N_4  and  C_37
    2  A    between atoms: C_23  and  C_30
                            x       y       z     vdW  Elec       q    Type
                         _______ _______ _______ _____ _____    ______ ____

>  <TORSDO>
F 2

$$$$
