=
 OpenBabel11122413563D

 37 42  0  0  1  0  0  0  0  0999 V2000
  159.1650  211.1120  155.4550 C   0  0  0  0  0  0  0  0  0  0  0  0
  161.4010  208.2740  154.3420 C   0  0  1  0  0  3  0  0  0  0  0  0
  162.6740  208.2050  151.2090 O   0  0  0  0  0  0  0  0  0  0  0  0
  160.6960  209.6940  156.4170 C   0  0  2  0  0  3  0  0  0  0  0  0
  161.0110  208.6580  152.9150 C   0  0  2  0  0  3  0  0  0  0  0  0
  161.4630  209.6170  155.0950 C   0  0  2  0  0  3  0  0  0  0  0  0
  161.5030  207.7080  151.8020 C   0  0  2  0  0  3  0  0  0  0  0  0
  160.8990  208.3970  157.1800 C   0  0  0  0  0  2  0  0  0  0  0  0
  161.0230  210.7130  154.1240 C   0  0  2  0  0  3  0  0  0  0  0  0
  159.8150  212.1990  156.0320 F   0  0  0  0  0  0  0  0  0  0  0  0
  160.7520  205.8990  154.4530 N   0  0  0  0  0  2  0  0  0  0  0  0
  160.2920  207.2040  156.4420 C   0  0  0  0  0  2  0  0  0  0  0  0
  159.6170  210.8830  154.1360 O   0  0  0  0  0  0  0  0  0  0  0  0
  161.6910  209.4700  149.6260 C   0  0  0  0  0  2  0  0  0  0  0  0
  162.4260  208.2870  149.9060 O   0  0  0  0  0  0  0  0  0  0  0  0
  160.4010  207.2410  154.9080 C   0  0  1  0  0  3  0  0  0  0  0  0
  161.4500  210.1180  152.7820 C   0  0  2  0  0  3  0  0  0  0  0  0
  159.3210  209.9420  156.2290 O   0  0  0  0  0  0  0  0  0  0  0  0
  161.6400  206.2260  152.2090 C   0  0  1  0  0  3  0  0  0  0  0  0
  157.8170  211.4110  155.4010 F   0  0  0  0  0  0  0  0  0  0  0  0
  161.9830  210.6440  150.5610 C   0  0  0  0  0  2  0  0  0  0  0  0
  160.9280  210.7690  151.5650 N   0  0  0  0  0  0  0  0  0  0  0  0
  160.4450  205.7630  153.0370 C   0  0  0  0  0  2  0  0  0  0  0  0
  160.9570  205.7070  149.8190 C   0  0  0  0  0  2  0  0  0  0  0  0
  161.8240  205.2870  151.0150 C   0  0  2  0  0  3  0  0  0  0  0  0
  161.7200  203.7880  151.3940 C   0  0  0  0  0  2  0  0  0  0  0  0
  161.0590  201.6170  150.6170 O   0  0  0  0  0  1  0  0  0  0  0  0
  160.9770  203.3830  149.0360 C   0  0  0  0  0  3  0  0  0  0  0  0
  160.7990  202.9790  150.4710 C   0  0  2  0  0  3  0  0  0  0  0  0
  161.0500  204.6820  148.7260 C   0  0  0  0  0  3  0  0  0  0  0  0
  160.7700  212.2130  151.7640 C   0  0  0  0  0  2  0  0  0  0  0  0
  159.5870  212.7780  150.9660 C   0  0  1  0  0  3  0  0  0  0  0  0
  158.6690  213.7350  152.9180 O   0  0  0  0  0  0  0  0  0  0  0  0
  158.4530  213.1850  151.8520 C   0  0  0  0  0  3  0  0  0  0  0  0
  160.0020  213.9460  150.0830 C   0  0  0  0  0  2  0  0  0  0  0  0
  160.4280  213.4590  148.7100 C   0  0  0  0  0  2  0  0  0  0  0  0
  161.8060  213.6040  148.5570 O   0  0  0  0  0  1  0  0  0  0  0  0
  1 10  1  0  0  0  0
  1 18  1  0  0  0  0
  2 16  1  0  0  0  0
  2  6  1  0  0  0  0
  3  7  1  0  0  0  0
  4  8  1  0  0  0  0
  5  2  1  0  0  0  0
  6  4  1  0  0  0  0
  7 19  1  0  0  0  0
  7  5  1  0  0  0  0
  9 13  1  0  0  0  0
  9  6  1  0  0  0  0
 11 16  1  0  0  0  0
 12  8  1  0  0  0  0
 13  1  1  0  0  0  0
 14 15  1  0  0  0  0
 14 21  1  0  0  0  0
 15  3  1  0  0  0  0
 16 12  1  0  0  0  0
 17  5  1  0  0  0  0
 17  9  1  0  0  0  0
 18  4  1  0  0  0  0
 19 23  1  0  0  0  0
 20  1  1  0  0  0  0
 21 22  1  0  0  0  0
 22 31  1  0  0  0  0
 22 17  1  0  0  0  0
 23 11  1  0  0  0  0
 24 25  1  0  0  0  0
 25 26  1  0  0  0  0
 25 19  1  0  0  0  0
 28 29  1  0  0  0  0
 29 27  1  0  0  0  0
 29 26  1  0  0  0  0
 30 28  2  0  0  0  0
 30 24  1  0  0  0  0
 32 31  1  0  0  0  0
 32 34  1  0  0  0  0
 34 33  2  0  0  0  0
 35 32  1  0  0  0  0
 36 35  1  0  0  0  0
 37 36  1  0  0  0  0
M  END
>  <MODEL>
1

>  <REMARK>
 VINA RESULT:      -7.6      0.000      0.000
  Name = 
  6 active torsions:
  status: ('A' for Active; 'I' for Inactive)
    1  A    between atoms: C_1  and  C_4
    2  A    between atoms: C_1  and  N_27
    3  A    between atoms: C_4  and  C_12
    4  A    between atoms: C_4  and  C_37
    5  A    between atoms: C_8  and  C_12
    6  A    between atoms: C_23  and  C_30
                            x       y       z     vdW  Elec       q    Type
                         _______ _______ _______ _____ _____    ______ ____

>  <TORSDO>
F 6

$$$$
=
 OpenBabel11122413563D

 37 42  0  0  1  0  0  0  0  0999 V2000
  161.6760  208.3060  148.4970 C   0  0  0  0  0  0  0  0  0  0  0  0
  161.4680  210.6050  151.4910 C   0  0  1  0  0  3  0  0  0  0  0  0
  161.0580  209.3510  154.6050 O   0  0  0  0  0  0  0  0  0  0  0  0
  162.5310  210.3470  149.1200 C   0  0  2  0  0  3  0  0  0  0  0  0
  160.7570  209.4520  152.2010 C   0  0  2  0  0  3  0  0  0  0  0  0
  162.5070  209.9130  150.5870 C   0  0  2  0  0  3  0  0  0  0  0  0
  160.1790  209.7740  153.5950 C   0  0  2  0  0  3  0  0  0  0  0  0
  162.3600  211.8540  149.0480 C   0  0  0  0  0  2  0  0  0  0  0  0
  162.3100  208.4040  150.7270 C   0  0  2  0  0  3  0  0  0  0  0  0
  162.9560  207.8790  148.1540 F   0  0  0  0  0  0  0  0  0  0  0  0
  159.8370  212.4420  151.6920 N   0  0  0  0  0  2  0  0  0  0  0  0
  160.9910  212.2940  149.5660 C   0  0  0  0  0  2  0  0  0  0  0  0
  161.3400  207.9210  149.8140 O   0  0  0  0  0  0  0  0  0  0  0  0
  160.2760  207.2500  154.8190 C   0  0  0  0  0  2  0  0  0  0  0  0
  160.3570  208.5460  155.3960 O   0  0  0  0  0  0  0  0  0  0  0  0
  160.4380  211.4940  150.7580 C   0  0  1  0  0  3  0  0  0  0  0  0
  161.7630  208.2990  152.1490 C   0  0  2  0  0  3  0  0  0  0  0  0
  161.5380  209.7030  148.3520 O   0  0  0  0  0  0  0  0  0  0  0  0
  159.7150  211.2300  153.8000 C   0  0  1  0  0  3  0  0  0  0  0  0
  160.7870  207.6980  147.6320 F   0  0  0  0  0  0  0  0  0  0  0  0
  161.4810  206.8490  153.9690 C   0  0  0  0  0  2  0  0  0  0  0  0
  161.1760  207.0050  152.5490 N   0  0  0  0  0  0  0  0  0  0  0  0
  158.9350  211.7410  152.5930 C   0  0  0  0  0  2  0  0  0  0  0  0
  157.3750  211.2430  154.7880 C   0  0  0  0  0  2  0  0  0  0  0  0
  158.8740  211.4240  155.0650 C   0  0  2  0  0  3  0  0  0  0  0  0
  159.2370  212.7100  155.8490 C   0  0  0  0  0  2  0  0  0  0  0  0
  158.3730  214.4470  157.2590 O   0  0  0  0  0  1  0  0  0  0  0  0
  156.8850  212.6860  156.7090 C   0  0  0  0  0  3  0  0  0  0  0  0
  158.0200  213.5540  156.2500 C   0  0  2  0  0  3  0  0  0  0  0  0
  156.5770  211.5870  156.0120 C   0  0  0  0  0  3  0  0  0  0  0  0
  161.8650  205.8880  151.8920 C   0  0  0  0  0  2  0  0  0  0  0  0
  160.8900  204.9780  151.1320 C   0  0  1  0  0  3  0  0  0  0  0  0
  160.4930  204.8390  148.8100 O   0  0  0  0  0  0  0  0  0  0  0  0
  161.3100  204.7650  149.7130 C   0  0  0  0  0  3  0  0  0  0  0  0
  160.7050  203.6370  151.8260 C   0  0  0  0  0  2  0  0  0  0  0  0
  161.4360  202.5370  151.0760 C   0  0  0  0  0  2  0  0  0  0  0  0
  160.5450  201.5210  150.7310 O   0  0  0  0  0  1  0  0  0  0  0  0
  1 13  1  0  0  0  0
  2  5  1  0  0  0  0
  3 15  1  0  0  0  0
  4  6  1  0  0  0  0
  5  7  1  0  0  0  0
  6  9  1  0  0  0  0
  6  2  1  0  0  0  0
  7 19  1  0  0  0  0
  7  3  1  0  0  0  0
  8  4  1  0  0  0  0
  8 12  1  0  0  0  0
  9 17  1  0  0  0  0
 10  1  1  0  0  0  0
 11 23  1  0  0  0  0
 12 16  1  0  0  0  0
 13  9  1  0  0  0  0
 14 15  1  0  0  0  0
 16  2  1  0  0  0  0
 16 11  1  0  0  0  0
 17  5  1  0  0  0  0
 17 22  1  0  0  0  0
 18  1  1  0  0  0  0
 18  4  1  0  0  0  0
 19 25  1  0  0  0  0
 20  1  1  0  0  0  0
 21 14  1  0  0  0  0
 22 21  1  0  0  0  0
 23 19  1  0  0  0  0
 24 25  1  0  0  0  0
 24 30  1  0  0  0  0
 25 26  1  0  0  0  0
 26 29  1  0  0  0  0
 29 28  1  0  0  0  0
 29 27  1  0  0  0  0
 30 28  2  0  0  0  0
 31 22  1  0  0  0  0
 32 35  1  0  0  0  0
 32 31  1  0  0  0  0
 33 34  2  0  0  0  0
 34 32  1  0  0  0  0
 36 35  1  0  0  0  0
 37 36  1  0  0  0  0
M  END
>  <MODEL>
2

>  <REMARK>
 VINA RESULT:      -6.7      2.819      8.149
  Name = 
  6 active torsions:
  status: ('A' for Active; 'I' for Inactive)
    1  A    between atoms: C_1  and  C_4
    2  A    between atoms: C_1  and  N_27
    3  A    between atoms: C_4  and  C_12
    4  A    between atoms: C_4  and  C_37
    5  A    between atoms: C_8  and  C_12
    6  A    between atoms: C_23  and  C_30
                            x       y       z     vdW  Elec       q    Type
                         _______ _______ _______ _____ _____    ______ ____

>  <TORSDO>
F 6

$$$$
=
 OpenBabel11122413563D

 37 42  0  0  1  0  0  0  0  0999 V2000
  159.2440  211.4430  155.5730 C   0  0  0  0  0  0  0  0  0  0  0  0
  161.4490  208.6160  154.3740 C   0  0  1  0  0  3  0  0  0  0  0  0
  162.6200  208.5670  151.2020 O   0  0  0  0  0  0  0  0  0  0  0  0
  160.8070  210.0220  156.4790 C   0  0  2  0  0  3  0  0  0  0  0  0
  161.0120  209.0070  152.9620 C   0  0  2  0  0  3  0  0  0  0  0  0
  161.5320  209.9550  155.1320 C   0  0  2  0  0  3  0  0  0  0  0  0
  161.4700  208.0640  151.8290 C   0  0  2  0  0  3  0  0  0  0  0  0
  161.0370  208.7210  157.2270 C   0  0  0  0  0  2  0  0  0  0  0  0
  161.0600  211.0550  154.1820 C   0  0  2  0  0  3  0  0  0  0  0  0
  159.9100  212.5280  156.1360 F   0  0  0  0  0  0  0  0  0  0  0  0
  160.8070  206.2390  154.4920 N   0  0  0  0  0  2  0  0  0  0  0  0
  160.4090  207.5310  156.5020 C   0  0  0  0  0  2  0  0  0  0  0  0
  159.6540  211.2220  154.2400 O   0  0  0  0  0  0  0  0  0  0  0  0
  161.5850  209.8390  149.6580 C   0  0  0  0  0  2  0  0  0  0  0  0
  162.3310  208.6560  149.9080 O   0  0  0  0  0  0  0  0  0  0  0  0
  160.4690  207.5770  154.9660 C   0  0  1  0  0  3  0  0  0  0  0  0
  161.4440  210.4690  152.8240 C   0  0  2  0  0  3  0  0  0  0  0  0
  159.4270  210.2690  156.3360 O   0  0  0  0  0  0  0  0  0  0  0  0
  161.6220  206.5810  152.2230 C   0  0  1  0  0  3  0  0  0  0  0  0
  157.8940  211.7390  155.5640 F   0  0  0  0  0  0  0  0  0  0  0  0
  161.9050  211.0080  150.5900 C   0  0  0  0  0  2  0  0  0  0  0  0
  160.8820  211.1250  151.6270 N   0  0  0  0  0  0  0  0  0  0  0  0
  160.4560  206.1100  153.0850 C   0  0  0  0  0  2  0  0  0  0  0  0
  160.7990  206.0180  149.8870 C   0  0  0  0  0  2  0  0  0  0  0  0
  161.7700  205.6480  151.0180 C   0  0  2  0  0  3  0  0  0  0  0  0
  161.7730  204.1480  151.4020 C   0  0  0  0  0  2  0  0  0  0  0  0
  161.1730  201.9430  150.6740 O   0  0  0  0  0  1  0  0  0  0  0  0
  160.8850  203.6960  149.1040 C   0  0  0  0  0  3  0  0  0  0  0  0
  160.8320  203.2880  150.5480 C   0  0  2  0  0  3  0  0  0  0  0  0
  160.8680  204.9960  148.7900 C   0  0  0  0  0  3  0  0  0  0  0  0
  160.7280  212.5680  151.8400 C   0  0  0  0  0  2  0  0  0  0  0  0
  159.4920  213.1270  151.1210 C   0  0  1  0  0  3  0  0  0  0  0  0
  160.2290  213.7270  148.9610 O   0  0  0  0  0  0  0  0  0  0  0  0
  159.5760  212.9510  149.6390 C   0  0  0  0  0  3  0  0  0  0  0  0
  158.2020  212.5110  151.6450 C   0  0  0  0  0  2  0  0  0  0  0  0
  157.3840  213.5420  152.4030 C   0  0  0  0  0  2  0  0  0  0  0  0
  158.1480  214.1000  153.4270 O   0  0  0  0  0  1  0  0  0  0  0  0
  1 10  1  0  0  0  0
  1 18  1  0  0  0  0
  2 16  1  0  0  0  0
  2  6  1  0  0  0  0
  3  7  1  0  0  0  0
  4  8  1  0  0  0  0
  5  2  1  0  0  0  0
  6  4  1  0  0  0  0
  7 19  1  0  0  0  0
  7  5  1  0  0  0  0
  9 13  1  0  0  0  0
  9  6  1  0  0  0  0
 11 16  1  0  0  0  0
 12  8  1  0  0  0  0
 13  1  1  0  0  0  0
 14 15  1  0  0  0  0
 14 21  1  0  0  0  0
 15  3  1  0  0  0  0
 16 12  1  0  0  0  0
 17  5  1  0  0  0  0
 17  9  1  0  0  0  0
 18  4  1  0  0  0  0
 19 23  1  0  0  0  0
 20  1  1  0  0  0  0
 21 22  1  0  0  0  0
 22 31  1  0  0  0  0
 22 17  1  0  0  0  0
 23 11  1  0  0  0  0
 24 25  1  0  0  0  0
 25 26  1  0  0  0  0
 25 19  1  0  0  0  0
 28 29  1  0  0  0  0
 29 27  1  0  0  0  0
 29 26  1  0  0  0  0
 30 28  2  0  0  0  0
 30 24  1  0  0  0  0
 32 35  1  0  0  0  0
 32 31  1  0  0  0  0
 33 34  2  0  0  0  0
 34 32  1  0  0  0  0
 35 36  1  0  0  0  0
 36 37  1  0  0  0  0
M  END
>  <MODEL>
3

>  <REMARK>
 VINA RESULT:      -6.4      0.551      1.614
  Name = 
  6 active torsions:
  status: ('A' for Active; 'I' for Inactive)
    1  A    between atoms: C_1  and  C_4
    2  A    between atoms: C_1  and  N_27
    3  A    between atoms: C_4  and  C_12
    4  A    between atoms: C_4  and  C_37
    5  A    between atoms: C_8  and  C_12
    6  A    between atoms: C_23  and  C_30
                            x       y       z     vdW  Elec       q    Type
                         _______ _______ _______ _____ _____    ______ ____

>  <TORSDO>
F 6

$$$$
=
 OpenBabel11122413563D

 37 42  0  0  1  0  0  0  0  0999 V2000
  162.6460  205.8900  147.3850 C   0  0  0  0  0  0  0  0  0  0  0  0
  160.6810  205.8870  150.6150 C   0  0  1  0  0  3  0  0  0  0  0  0
  160.3660  208.7130  152.4460 O   0  0  0  0  0  0  0  0  0  0  0  0
  160.8300  204.7800  148.2550 C   0  0  2  0  0  3  0  0  0  0  0  0
  161.4870  207.1310  150.9900 C   0  0  2  0  0  3  0  0  0  0  0  0
  160.4750  206.0100  149.0930 C   0  0  2  0  0  3  0  0  0  0  0  0
  161.2880  207.6550  152.4280 C   0  0  2  0  0  3  0  0  0  0  0  0
  160.3490  203.5350  148.9780 C   0  0  0  0  0  2  0  0  0  0  0  0
  161.2320  207.2520  148.6230 C   0  0  2  0  0  3  0  0  0  0  0  0
  161.9150  206.1780  146.2370 F   0  0  0  0  0  0  0  0  0  0  0  0
  161.1470  204.3630  152.4960 N   0  0  0  0  0  2  0  0  0  0  0  0
  161.0800  203.3310  150.3050 C   0  0  0  0  0  2  0  0  0  0  0  0
  162.5820  206.9510  148.3160 O   0  0  0  0  0  0  0  0  0  0  0  0
  161.8270  210.3890  152.0900 C   0  0  0  0  0  2  0  0  0  0  0  0
  160.9820  209.7360  153.0280 O   0  0  0  0  0  0  0  0  0  0  0  0
  161.4200  204.6130  151.0840 C   0  0  1  0  0  3  0  0  0  0  0  0
  161.1810  208.1310  149.8720 C   0  0  2  0  0  3  0  0  0  0  0  0
  162.2120  204.6900  147.9900 O   0  0  0  0  0  0  0  0  0  0  0  0
  160.9630  206.5800  153.4860 C   0  0  1  0  0  3  0  0  0  0  0  0
  163.9660  205.7260  147.0100 F   0  0  0  0  0  0  0  0  0  0  0  0
  161.3400  210.3390  150.6430 C   0  0  0  0  0  2  0  0  0  0  0  0
  162.0650  209.3120  149.8970 N   0  0  0  0  0  0  0  0  0  0  0  0
  161.8420  205.3460  153.3150 C   0  0  0  0  0  2  0  0  0  0  0  0
  159.7060  207.3280  155.5620 C   0  0  0  0  0  2  0  0  0  0  0  0
  161.0820  207.0920  154.9230 C   0  0  2  0  0  3  0  0  0  0  0  0
  162.0740  208.2730  155.0720 C   0  0  0  0  0  2  0  0  0  0  0  0
  162.5580  210.2770  156.2970 O   0  0  0  0  0  1  0  0  0  0  0  0
  160.7260  208.9800  157.0600 C   0  0  0  0  0  3  0  0  0  0  0  0
  161.5150  209.4550  155.8750 C   0  0  2  0  0  3  0  0  0  0  0  0
  159.8630  207.9690  156.9100 C   0  0  0  0  0  3  0  0  0  0  0  0
  162.2340  209.8740  148.5530 C   0  0  0  0  0  2  0  0  0  0  0  0
  161.9570  211.3840  148.5210 C   0  0  1  0  0  3  0  0  0  0  0  0
  163.4340  212.6030  147.1420 O   0  0  0  0  0  0  0  0  0  0  0  0
  163.1970  212.1780  148.2600 C   0  0  0  0  0  3  0  0  0  0  0  0
  160.8850  211.7440  147.5040 C   0  0  0  0  0  2  0  0  0  0  0  0
  160.0900  212.9540  147.9640 C   0  0  0  0  0  2  0  0  0  0  0  0
  160.4040  214.0600  147.1750 O   0  0  0  0  0  1  0  0  0  0  0  0
  1 18  1  0  0  0  0
  1 13  1  0  0  0  0
  2  5  1  0  0  0  0
  2 16  1  0  0  0  0
  3 15  1  0  0  0  0
  4  8  1  0  0  0  0
  4  6  1  0  0  0  0
  5  7  1  0  0  0  0
  6  2  1  0  0  0  0
  7  3  1  0  0  0  0
  7 19  1  0  0  0  0
  8 12  1  0  0  0  0
  9  6  1  0  0  0  0
  9 17  1  0  0  0  0
 10  1  1  0  0  0  0
 11 23  1  0  0  0  0
 12 16  1  0  0  0  0
 13  9  1  0  0  0  0
 14 15  1  0  0  0  0
 16 11  1  0  0  0  0
 17 22  1  0  0  0  0
 17  5  1  0  0  0  0
 18  4  1  0  0  0  0
 19 25  1  0  0  0  0
 20  1  1  0  0  0  0
 21 14  1  0  0  0  0
 22 21  1  0  0  0  0
 23 19  1  0  0  0  0
 24 30  1  0  0  0  0
 25 26  1  0  0  0  0
 25 24  1  0  0  0  0
 26 29  1  0  0  0  0
 29 27  1  0  0  0  0
 29 28  1  0  0  0  0
 30 28  2  0  0  0  0
 31 22  1  0  0  0  0
 32 31  1  0  0  0  0
 33 34  2  0  0  0  0
 34 32  1  0  0  0  0
 35 36  1  0  0  0  0
 35 32  1  0  0  0  0
 37 36  1  0  0  0  0
M  END
>  <MODEL>
4

>  <REMARK>
 VINA RESULT:      -6.2      3.343      6.508
  Name = 
  6 active torsions:
  status: ('A' for Active; 'I' for Inactive)
    1  A    between atoms: C_1  and  C_4
    2  A    between atoms: C_1  and  N_27
    3  A    between atoms: C_4  and  C_12
    4  A    between atoms: C_4  and  C_37
    5  A    between atoms: C_8  and  C_12
    6  A    between atoms: C_23  and  C_30
                            x       y       z     vdW  Elec       q    Type
                         _______ _______ _______ _____ _____    ______ ____

>  <TORSDO>
F 6

$$$$
=
 OpenBabel11122413563D

 37 42  0  0  1  0  0  0  0  0999 V2000
  159.2140  211.1280  154.7330 C   0  0  0  0  0  0  0  0  0  0  0  0
  161.5550  208.6910  153.0380 C   0  0  1  0  0  3  0  0  0  0  0  0
  162.6840  209.2750  149.9040 O   0  0  0  0  0  0  0  0  0  0  0  0
  160.8670  209.6600  155.3630 C   0  0  2  0  0  3  0  0  0  0  0  0
  161.0780  209.3020  151.7210 C   0  0  2  0  0  3  0  0  0  0  0  0
  161.5750  209.8750  154.0240 C   0  0  2  0  0  3  0  0  0  0  0  0
  161.5720  208.6040  150.4360 C   0  0  2  0  0  3  0  0  0  0  0  0
  161.1790  208.2620  155.8660 C   0  0  0  0  0  2  0  0  0  0  0  0
  161.0290  211.0990  153.2870 C   0  0  2  0  0  3  0  0  0  0  0  0
  159.8260  212.1310  155.4780 F   0  0  0  0  0  0  0  0  0  0  0  0
  161.0490  206.2980  152.7320 N   0  0  0  0  0  2  0  0  0  0  0  0
  160.6070  207.1860  154.9420 C   0  0  0  0  0  2  0  0  0  0  0  0
  159.6170  211.1720  153.3790 O   0  0  0  0  0  0  0  0  0  0  0  0
  161.5580  210.7420  148.6170 C   0  0  0  0  0  2  0  0  0  0  0  0
  162.3720  209.5770  148.6480 O   0  0  0  0  0  0  0  0  0  0  0  0
  160.6440  207.5090  153.4380 C   0  0  1  0  0  3  0  0  0  0  0  0
  161.4260  210.7870  151.8450 C   0  0  2  0  0  3  0  0  0  0  0  0
  159.4720  209.8490  155.2720 O   0  0  0  0  0  0  0  0  0  0  0  0
  161.8120  207.0850  150.5570 C   0  0  1  0  0  3  0  0  0  0  0  0
  157.8500  211.3430  154.7820 F   0  0  0  0  0  0  0  0  0  0  0  0
  161.8250  211.7410  149.7410 C   0  0  0  0  0  2  0  0  0  0  0  0
  160.8120  211.6130  150.7870 N   0  0  0  0  0  0  0  0  0  0  0  0
  160.6860  206.4020  151.3260 C   0  0  0  0  0  2  0  0  0  0  0  0
  161.0800  206.9940  148.1270 C   0  0  0  0  0  2  0  0  0  0  0  0
  161.9940  206.3920  149.2040 C   0  0  2  0  0  3  0  0  0  0  0  0
  161.9530  204.8470  149.2980 C   0  0  0  0  0  2  0  0  0  0  0  0
  161.3450  202.8350  148.1430 O   0  0  0  0  0  1  0  0  0  0  0  0
  161.1580  204.8590  146.9230 C   0  0  0  0  0  3  0  0  0  0  0  0
  161.0340  204.1880  148.2600 C   0  0  2  0  0  3  0  0  0  0  0  0
  161.1770  206.1950  146.8600 C   0  0  0  0  0  3  0  0  0  0  0  0
  160.5810  212.9840  151.2550 C   0  0  0  0  0  2  0  0  0  0  0  0
  159.3600  213.6240  150.5800 C   0  0  1  0  0  3  0  0  0  0  0  0
  158.7320  213.0410  148.3810 O   0  0  0  0  0  0  0  0  0  0  0  0
  159.4990  213.6690  149.0920 C   0  0  0  0  0  3  0  0  0  0  0  0
  158.0650  212.9200  150.9610 C   0  0  0  0  0  2  0  0  0  0  0  0
  157.0250  213.9230  151.4270 C   0  0  0  0  0  2  0  0  0  0  0  0
  156.7110  213.6970  152.7670 O   0  0  0  0  0  1  0  0  0  0  0  0
  1 20  1  0  0  0  0
  1 18  1  0  0  0  0
  1 10  1  0  0  0  0
  2 16  1  0  0  0  0
  2  6  1  0  0  0  0
  3  7  1  0  0  0  0
  4  8  1  0  0  0  0
  5 17  1  0  0  0  0
  5  2  1  0  0  0  0
  6  4  1  0  0  0  0
  7 19  1  0  0  0  0
  7  5  1  0  0  0  0
  9 13  1  0  0  0  0
  9  6  1  0  0  0  0
 11 16  1  0  0  0  0
 12  8  1  0  0  0  0
 13  1  1  0  0  0  0
 14 15  1  0  0  0  0
 14 21  1  0  0  0  0
 15  3  1  0  0  0  0
 16 12  1  0  0  0  0
 17  9  1  0  0  0  0
 18  4  1  0  0  0  0
 19 23  1  0  0  0  0
 21 22  1  0  0  0  0
 22 31  1  0  0  0  0
 22 17  1  0  0  0  0
 23 11  1  0  0  0  0
 24 25  1  0  0  0  0
 25 26  1  0  0  0  0
 25 19  1  0  0  0  0
 27 29  1  0  0  0  0
 28 29  1  0  0  0  0
 29 26  1  0  0  0  0
 30 28  2  0  0  0  0
 30 24  1  0  0  0  0
 32 35  1  0  0  0  0
 32 31  1  0  0  0  0
 33 34  2  0  0  0  0
 34 32  1  0  0  0  0
 35 36  1  0  0  0  0
 36 37  1  0  0  0  0
M  END
>  <MODEL>
5

>  <REMARK>
 VINA RESULT:      -5.4      1.431      2.229
  Name = 
  6 active torsions:
  status: ('A' for Active; 'I' for Inactive)
    1  A    between atoms: C_1  and  C_4
    2  A    between atoms: C_1  and  N_27
    3  A    between atoms: C_4  and  C_12
    4  A    between atoms: C_4  and  C_37
    5  A    between atoms: C_8  and  C_12
    6  A    between atoms: C_23  and  C_30
                            x       y       z     vdW  Elec       q    Type
                         _______ _______ _______ _____ _____    ______ ____

>  <TORSDO>
F 6

$$$$
=
 OpenBabel11122413563D

 37 42  0  0  1  0  0  0  0  0999 V2000
  159.8500  209.0120  154.5040 C   0  0  0  0  0  0  0  0  0  0  0  0
  161.8030  207.2920  151.7620 C   0  0  1  0  0  3  0  0  0  0  0  0
  162.6860  208.9680  148.9610 O   0  0  0  0  0  0  0  0  0  0  0  0
  161.4180  207.3390  154.3450 C   0  0  2  0  0  3  0  0  0  0  0  0
  161.2620  208.3790  150.8320 C   0  0  2  0  0  3  0  0  0  0  0  0
  162.0160  208.0130  153.1080 C   0  0  2  0  0  3  0  0  0  0  0  0
  161.5730  208.1980  149.3320 C   0  0  2  0  0  3  0  0  0  0  0  0
  161.6500  205.8420  154.2510 C   0  0  0  0  0  2  0  0  0  0  0  0
  161.5150  209.4480  152.9480 C   0  0  2  0  0  3  0  0  0  0  0  0
  160.6130  209.6280  155.4910 F   0  0  0  0  0  0  0  0  0  0  0  0
  161.0620  205.2210  150.6500 N   0  0  0  0  0  2  0  0  0  0  0  0
  160.9040  205.2250  153.0680 C   0  0  0  0  0  2  0  0  0  0  0  0
  160.1290  209.5470  153.2270 O   0  0  0  0  0  0  0  0  0  0  0  0
  161.5800  210.8630  148.4530 C   0  0  0  0  0  2  0  0  0  0  0  0
  162.2880  209.7370  147.9530 O   0  0  0  0  0  0  0  0  0  0  0  0
  160.8310  206.0910  151.7990 C   0  0  1  0  0  3  0  0  0  0  0  0
  161.7490  209.6880  151.4580 C   0  0  2  0  0  3  0  0  0  0  0  0
  160.0430  207.6140  154.4950 O   0  0  0  0  0  0  0  0  0  0  0  0
  161.6890  206.7370  148.8510 C   0  0  1  0  0  3  0  0  0  0  0  0
  158.5200  209.2570  154.7910 F   0  0  0  0  0  0  0  0  0  0  0  0
  162.0360  211.3490  149.8280 C   0  0  0  0  0  2  0  0  0  0  0  0
  161.1160  210.8810  150.8630 N   0  0  0  0  0  0  0  0  0  0  0  0
  160.5820  205.8670  149.4380 C   0  0  0  0  0  2  0  0  0  0  0  0
  160.2630  206.4380  146.7710 C   0  0  0  0  0  2  0  0  0  0  0  0
  161.6850  206.6010  147.3260 C   0  0  2  0  0  3  0  0  0  0  0  0
  162.7060  205.5610  146.8020 C   0  0  0  0  0  2  0  0  0  0  0  0
  163.1480  203.9530  145.0780 O   0  0  0  0  0  1  0  0  0  0  0  0
  161.1960  205.2740  144.8250 C   0  0  0  0  0  3  0  0  0  0  0  0
  162.1200  204.5770  145.7810 C   0  0  2  0  0  3  0  0  0  0  0  0
  160.3100  206.1590  145.2970 C   0  0  0  0  0  3  0  0  0  0  0  0
  161.0500  211.9820  151.8310 C   0  0  0  0  0  2  0  0  0  0  0  0
  159.6980  212.7080  151.7840 C   0  0  1  0  0  3  0  0  0  0  0  0
  159.5080  212.4410  154.1210 O   0  0  0  0  0  0  0  0  0  0  0  0
  159.2320  213.1170  153.1450 C   0  0  0  0  0  3  0  0  0  0  0  0
  159.7350  213.9180  150.8620 C   0  0  0  0  0  2  0  0  0  0  0  0
  158.8390  213.7020  149.6550 C   0  0  0  0  0  2  0  0  0  0  0  0
  159.6070  213.6560  148.4920 O   0  0  0  0  0  1  0  0  0  0  0  0
  1 20  1  0  0  0  0
  1 10  1  0  0  0  0
  2 16  1  0  0  0  0
  2  6  1  0  0  0  0
  3  7  1  0  0  0  0
  4 18  1  0  0  0  0
  5 17  1  0  0  0  0
  5  2  1  0  0  0  0
  6  4  1  0  0  0  0
  7  5  1  0  0  0  0
  8  4  1  0  0  0  0
  9  6  1  0  0  0  0
  9 13  1  0  0  0  0
 11 16  1  0  0  0  0
 12  8  1  0  0  0  0
 13  1  1  0  0  0  0
 14 21  1  0  0  0  0
 15 14  1  0  0  0  0
 15  3  1  0  0  0  0
 16 12  1  0  0  0  0
 17  9  1  0  0  0  0
 18  1  1  0  0  0  0
 19  7  1  0  0  0  0
 19 23  1  0  0  0  0
 21 22  1  0  0  0  0
 22 17  1  0  0  0  0
 22 31  1  0  0  0  0
 23 11  1  0  0  0  0
 24 25  1  0  0  0  0
 25 19  1  0  0  0  0
 26 25  1  0  0  0  0
 27 29  1  0  0  0  0
 28 30  2  0  0  0  0
 28 29  1  0  0  0  0
 29 26  1  0  0  0  0
 30 24  1  0  0  0  0
 32 31  1  0  0  0  0
 32 34  1  0  0  0  0
 34 33  2  0  0  0  0
 35 32  1  0  0  0  0
 36 35  1  0  0  0  0
 37 36  1  0  0  0  0
M  END
>  <MODEL>
6

>  <REMARK>
 VINA RESULT:      -5.0      2.231      3.030
  Name = 
  6 active torsions:
  status: ('A' for Active; 'I' for Inactive)
    1  A    between atoms: C_1  and  C_4
    2  A    between atoms: C_1  and  N_27
    3  A    between atoms: C_4  and  C_12
    4  A    between atoms: C_4  and  C_37
    5  A    between atoms: C_8  and  C_12
    6  A    between atoms: C_23  and  C_30
                            x       y       z     vdW  Elec       q    Type
                         _______ _______ _______ _____ _____    ______ ____

>  <TORSDO>
F 6

$$$$
=
 OpenBabel11122413563D

 37 42  0  0  1  0  0  0  0  0999 V2000
  160.5760  206.3500  146.8050 C   0  0  0  0  0  0  0  0  0  0  0  0
  162.1640  207.2920  150.1040 C   0  0  1  0  0  3  0  0  0  0  0  0
  162.0870  205.1600  152.7280 O   0  0  0  0  0  0  0  0  0  0  0  0
  162.3520  207.6220  147.5200 C   0  0  2  0  0  3  0  0  0  0  0  0
  161.2410  206.2470  150.7320 C   0  0  2  0  0  3  0  0  0  0  0  0
  162.5300  206.7000  148.7290 C   0  0  2  0  0  3  0  0  0  0  0  0
  161.2440  206.1870  152.2740 C   0  0  2  0  0  3  0  0  0  0  0  0
  162.8310  209.0150  147.8880 C   0  0  0  0  0  2  0  0  0  0  0  0
  161.7500  205.3960  148.5640 C   0  0  2  0  0  3  0  0  0  0  0  0
  161.4100  205.7020  145.8990 F   0  0  0  0  0  0  0  0  0  0  0  0
  161.5930  209.3340  151.3610 N   0  0  0  0  0  2  0  0  0  0  0  0
  161.9710  209.6380  148.9870 C   0  0  0  0  0  2  0  0  0  0  0  0
  160.4650  205.6270  148.0130 O   0  0  0  0  0  0  0  0  0  0  0  0
  160.5670  203.4980  152.7130 C   0  0  0  0  0  2  0  0  0  0  0  0
  161.3430  204.3840  153.5090 O   0  0  0  0  0  0  0  0  0  0  0  0
  161.4630  208.6690  150.0680 C   0  0  1  0  0  3  0  0  0  0  0  0
  161.6040  204.9440  150.0160 C   0  0  2  0  0  3  0  0  0  0  0  0
  161.0170  207.6650  147.0680 O   0  0  0  0  0  0  0  0  0  0  0  0
  161.5190  207.5250  152.9900 C   0  0  1  0  0  3  0  0  0  0  0  0
  159.3200  206.4280  146.2340 F   0  0  0  0  0  0  0  0  0  0  0  0
  161.2150  203.0860  151.3920 C   0  0  0  0  0  2  0  0  0  0  0  0
  160.6460  203.8530  150.2860 N   0  0  0  0  0  0  0  0  0  0  0  0
  160.7480  208.6710  152.3440 C   0  0  0  0  0  2  0  0  0  0  0  0
  159.7820  206.9800  154.7600 C   0  0  0  0  0  2  0  0  0  0  0  0
  161.2060  207.4850  154.4880 C   0  0  2  0  0  3  0  0  0  0  0  0
  161.5800  208.7940  155.2260 C   0  0  0  0  0  2  0  0  0  0  0  0
  160.9980  210.2470  157.0440 O   0  0  0  0  0  1  0  0  0  0  0  0
  159.7900  208.2140  156.8790 C   0  0  0  0  0  3  0  0  0  0  0  0
  160.4690  209.3300  156.1390 C   0  0  2  0  0  3  0  0  0  0  0  0
  159.4620  207.0960  156.2220 C   0  0  0  0  0  3  0  0  0  0  0  0
  160.5920  202.9090  149.1640 C   0  0  0  0  0  2  0  0  0  0  0  0
  160.7360  201.4540  149.6300 C   0  0  1  0  0  3  0  0  0  0  0  0
  158.3970  201.2780  149.3660 O   0  0  0  0  0  0  0  0  0  0  0  0
  159.4090  200.8000  149.8510 C   0  0  0  0  0  3  0  0  0  0  0  0
  161.5680  200.6260  148.6610 C   0  0  0  0  0  2  0  0  0  0  0  0
  161.2060  200.9560  147.2230 C   0  0  0  0  0  2  0  0  0  0  0  0
  161.2180  199.7950  146.4500 O   0  0  0  0  0  1  0  0  0  0  0  0
  1 18  1  0  0  0  0
  1 13  1  0  0  0  0
  2  5  1  0  0  0  0
  3 15  1  0  0  0  0
  4  8  1  0  0  0  0
  4  6  1  0  0  0  0
  5  7  1  0  0  0  0
  6  2  1  0  0  0  0
  7  3  1  0  0  0  0
  7 19  1  0  0  0  0
  8 12  1  0  0  0  0
  9  6  1  0  0  0  0
  9 17  1  0  0  0  0
 10  1  1  0  0  0  0
 11 23  1  0  0  0  0
 12 16  1  0  0  0  0
 13  9  1  0  0  0  0
 14 15  1  0  0  0  0
 16  2  1  0  0  0  0
 16 11  1  0  0  0  0
 17 22  1  0  0  0  0
 17  5  1  0  0  0  0
 18  4  1  0  0  0  0
 19 25  1  0  0  0  0
 20  1  1  0  0  0  0
 21 14  1  0  0  0  0
 22 21  1  0  0  0  0
 23 19  1  0  0  0  0
 24 30  1  0  0  0  0
 25 24  1  0  0  0  0
 25 26  1  0  0  0  0
 26 29  1  0  0  0  0
 29 28  1  0  0  0  0
 29 27  1  0  0  0  0
 30 28  2  0  0  0  0
 31 32  1  0  0  0  0
 31 22  1  0  0  0  0
 32 34  1  0  0  0  0
 33 34  2  0  0  0  0
 35 32  1  0  0  0  0
 36 35  1  0  0  0  0
 37 36  1  0  0  0  0
M  END
>  <MODEL>
7

>  <REMARK>
 VINA RESULT:      -5.0      3.721      8.543
  Name = 
  6 active torsions:
  status: ('A' for Active; 'I' for Inactive)
    1  A    between atoms: C_1  and  C_4
    2  A    between atoms: C_1  and  N_27
    3  A    between atoms: C_4  and  C_12
    4  A    between atoms: C_4  and  C_37
    5  A    between atoms: C_8  and  C_12
    6  A    between atoms: C_23  and  C_30
                            x       y       z     vdW  Elec       q    Type
                         _______ _______ _______ _____ _____    ______ ____

>  <TORSDO>
F 6

$$$$
