=
 OpenBabel11122413583D

 37 44  0  0  1  0  0  0  0  0999 V2000
  160.1600  210.9860  153.5360 C   0  0  0  0  0  0  0  0  0  0  0  0
  161.7860  207.6580  152.8510 C   0  0  1  0  0  3  0  0  0  0  0  0
  162.8540  207.0240  149.7950 O   0  0  0  0  0  0  0  0  0  0  0  0
  161.3970  209.4420  154.7000 C   0  0  2  0  0  3  0  0  0  0  0  0
  161.3780  207.9610  151.4180 C   0  0  2  0  0  3  0  0  0  0  0  0
  162.1140  209.0450  153.4070 C   0  0  2  0  0  3  0  0  0  0  0  0
  161.6140  206.8290  150.4190 C   0  0  2  0  0  3  0  0  0  0  0  0
  161.3620  208.2470  155.6390 C   0  0  0  0  0  2  0  0  0  0  0  0
  161.8460  210.0150  152.2540 C   0  0  2  0  0  3  0  0  0  0  0  0
  161.0450  211.9810  153.9410 F   0  0  0  0  0  0  0  0  0  0  0  0
  160.7820  205.5120  153.2800 O   0  0  0  0  0  0  0  0  0  0  0  0
  160.5450  207.0860  155.0650 C   0  0  0  0  0  2  0  0  0  0  0  0
  160.5010  210.4750  152.2660 O   0  0  0  0  0  0  0  0  0  0  0  0
  161.3900  208.0000  148.1580 O   0  0  0  0  0  0  0  0  0  0  0  0
  162.7060  207.6340  148.5160 C   0  0  1  0  0  3  0  0  0  0  0  0
  160.6460  206.8860  153.5430 C   0  0  1  0  0  3  0  0  0  0  0  0
  162.0830  209.1920  151.0590 N   0  0  2  0  0  0  0  0  0  0  0  0
  160.0950  209.9320  154.4740 O   0  0  0  0  0  0  0  0  0  0  0  0
  161.4770  205.4050  150.9840 C   0  0  1  0  0  3  0  0  0  0  0  0
  158.9040  211.5540  153.4450 F   0  0  0  0  0  0  0  0  0  0  0  0
  162.2310  209.0650  148.5510 C   0  0  2  0  0  3  0  0  0  0  0  0
  161.5690  209.7380  149.7850 C   0  0  2  0  0  3  0  0  0  0  0  0
  160.3160  205.2850  151.9760 C   0  0  0  0  0  2  0  0  0  0  0  0
  160.9240  203.1050  150.1810 C   0  0  0  0  0  3  0  0  0  0  0  0
  161.3330  204.4080  149.8780 C   0  0  0  0  0  0  0  0  0  0  0  0
  161.6110  204.7560  148.5460 C   0  0  0  0  0  3  0  0  0  0  0  0
  161.7460  204.1430  146.2470 F   0  0  0  0  0  0  0  0  0  0  0  0
  161.0670  202.5050  147.8390 C   0  0  0  0  0  3  0  0  0  0  0  0
  161.4780  203.8050  147.5310 C   0  0  0  0  0  0  0  0  0  0  0  0
  160.7900  202.1550  149.1640 C   0  0  0  0  0  3  0  0  0  0  0  0
  161.8310  211.2470  149.6650 C   0  0  1  0  0  3  0  0  0  0  0  0
  161.8550  211.6820  148.2060 C   0  0  1  0  0  3  0  0  0  0  0  0
  160.6160  211.9370  149.0660 C   0  0  2  0  0  3  0  0  0  0  0  0
  160.5000  213.3430  149.6390 C   0  0  0  0  0  2  0  0  0  0  0  0
  159.5040  213.3550  150.6940 N   0  0  0  0  0  1  0  0  0  0  0  0
  162.7200  213.3860  146.6210 C   0  0  0  0  0  1  0  0  0  0  0  0
  162.7890  212.8760  148.0450 C   0  0  0  0  0  2  0  0  0  0  0  0
  1 10  1  0  0  0  0
  1 18  1  0  0  0  0
  2  6  1  0  0  0  0
  2 16  1  0  0  0  0
  3  7  1  0  0  0  0
  4  8  1  0  0  0  0
  5  2  1  0  0  0  0
  6  4  1  0  0  0  0
  7 19  1  0  0  0  0
  7  5  1  0  0  0  0
  9 13  1  0  0  0  0
  9  6  1  0  0  0  0
 11 16  1  0  0  0  0
 12  8  1  0  0  0  0
 13  1  1  0  0  0  0
 14 15  1  0  0  0  0
 14 21  1  0  0  0  0
 15 21  1  0  0  0  0
 15  3  1  0  0  0  0
 16 12  1  0  0  0  0
 17  5  1  0  0  0  0
 17  9  1  0  0  0  0
 18  4  1  0  0  0  0
 19 23  1  0  0  0  0
 20  1  1  0  0  0  0
 21 22  1  0  0  0  0
 22 17  1  0  0  0  0
 23 11  1  0  0  0  0
 25 24  1  0  0  0  0
 25 19  1  0  0  0  0
 26 25  2  0  0  0  0
 27 29  1  0  0  0  0
 28 30  1  0  0  0  0
 29 28  2  0  0  0  0
 29 26  1  0  0  0  0
 30 24  2  0  0  0  0
 31 22  1  0  0  0  0
 32 33  1  0  0  0  0
 32 31  1  0  0  0  0
 33 34  1  0  0  0  0
 33 31  1  0  0  0  0
 34 35  1  0  0  0  0
 36 37  1  0  0  0  0
 37 32  1  0  0  0  0
M  END
>  <MODEL>
1

>  <REMARK>
 VINA RESULT:      -8.4      0.000      0.000
  Name = 
  4 active torsions:
  status: ('A' for Active; 'I' for Inactive)
    1  A    between atoms: C_1  and  C_27
    2  A    between atoms: C_4  and  C_37
    3  A    between atoms: C_8  and  C_12
    4  A    between atoms: C_23  and  C_30
                            x       y       z     vdW  Elec       q    Type
                         _______ _______ _______ _____ _____    ______ ____

>  <TORSDO>
F 4

$$$$
=
 OpenBabel11122413583D

 37 44  0  0  1  0  0  0  0  0999 V2000
  159.4900  212.0290  154.8630 C   0  0  0  0  0  0  0  0  0  0  0  0
  161.4140  208.8200  154.4290 C   0  0  1  0  0  3  0  0  0  0  0  0
  162.5480  208.0550  151.4270 O   0  0  0  0  0  0  0  0  0  0  0  0
  160.8570  210.6970  156.1380 C   0  0  2  0  0  3  0  0  0  0  0  0
  160.9870  208.9750  152.9780 C   0  0  2  0  0  3  0  0  0  0  0  0
  161.6130  210.2690  154.8770 C   0  0  2  0  0  3  0  0  0  0  0  0
  161.3290  207.7960  152.0680 C   0  0  2  0  0  3  0  0  0  0  0  0
  160.9270  209.5780  157.1650 C   0  0  0  0  0  2  0  0  0  0  0  0
  161.2630  211.1200  153.6540 C   0  0  2  0  0  3  0  0  0  0  0  0
  160.2800  213.1290  155.1880 F   0  0  0  0  0  0  0  0  0  0  0  0
  160.6060  206.6310  155.0230 O   0  0  0  0  0  0  0  0  0  0  0  0
  160.2210  208.3080  156.6830 C   0  0  0  0  0  2  0  0  0  0  0  0
  159.8820  211.4560  153.6350 O   0  0  0  0  0  0  0  0  0  0  0  0
  161.0090  208.7660  149.7250 O   0  0  0  0  0  0  0  0  0  0  0  0
  162.3510  208.5490  150.1060 C   0  0  1  0  0  3  0  0  0  0  0  0
  160.3450  208.0030  155.1810 C   0  0  1  0  0  3  0  0  0  0  0  0
  161.5780  210.2340  152.5240 N   0  0  2  0  0  0  0  0  0  0  0  0
  159.5170  211.0490  155.8780 O   0  0  0  0  0  0  0  0  0  0  0  0
  161.3180  206.4130  152.7400 C   0  0  1  0  0  3  0  0  0  0  0  0
  158.1890  212.4730  154.7320 F   0  0  0  0  0  0  0  0  0  0  0  0
  161.7480  209.9300  150.0330 C   0  0  2  0  0  3  0  0  0  0  0  0
  161.0230  210.6320  151.2140 C   0  0  2  0  0  3  0  0  0  0  0  0
  160.1680  206.2630  153.7410 C   0  0  0  0  0  2  0  0  0  0  0  0
  160.9190  205.6440  150.3970 C   0  0  0  0  0  3  0  0  0  0  0  0
  161.2690  205.3250  151.7130 C   0  0  0  0  0  0  0  0  0  0  0  0
  161.5580  203.9930  152.0510 C   0  0  0  0  0  3  0  0  0  0  0  0
  161.7750  201.7090  151.4060 F   0  0  0  0  0  0  0  0  0  0  0  0
  161.1480  203.3170  149.7630 C   0  0  0  0  0  3  0  0  0  0  0  0
  161.4960  202.9940  151.0770 C   0  0  0  0  0  0  0  0  0  0  0  0
  160.8600  204.6430  149.4230 C   0  0  0  0  0  3  0  0  0  0  0  0
  161.1470  212.1450  150.9780 C   0  0  1  0  0  3  0  0  0  0  0  0
  160.7170  212.5150  149.5650 C   0  0  1  0  0  3  0  0  0  0  0  0
  159.7710  212.7480  150.7440 C   0  0  2  0  0  3  0  0  0  0  0  0
  159.7450  214.1710  151.2850 C   0  0  0  0  0  2  0  0  0  0  0  0
  158.6170  214.3260  152.1850 N   0  0  0  0  0  1  0  0  0  0  0  0
  162.3620  213.3780  147.9190 C   0  0  0  0  0  1  0  0  0  0  0  0
  161.4900  213.7440  149.1020 C   0  0  0  0  0  2  0  0  0  0  0  0
  1 10  1  0  0  0  0
  1 18  1  0  0  0  0
  2  6  1  0  0  0  0
  2 16  1  0  0  0  0
  3  7  1  0  0  0  0
  4  8  1  0  0  0  0
  5  2  1  0  0  0  0
  6  4  1  0  0  0  0
  7 19  1  0  0  0  0
  7  5  1  0  0  0  0
  9  6  1  0  0  0  0
 11 16  1  0  0  0  0
 12  8  1  0  0  0  0
 13  9  1  0  0  0  0
 13  1  1  0  0  0  0
 14 21  1  0  0  0  0
 14 15  1  0  0  0  0
 15  3  1  0  0  0  0
 16 12  1  0  0  0  0
 17  5  1  0  0  0  0
 17  9  1  0  0  0  0
 18  4  1  0  0  0  0
 19 23  1  0  0  0  0
 20  1  1  0  0  0  0
 21 15  1  0  0  0  0
 21 22  1  0  0  0  0
 22 17  1  0  0  0  0
 23 11  1  0  0  0  0
 24 25  1  0  0  0  0
 25 26  2  0  0  0  0
 25 19  1  0  0  0  0
 28 29  2  0  0  0  0
 29 27  1  0  0  0  0
 29 26  1  0  0  0  0
 30 28  1  0  0  0  0
 30 24  2  0  0  0  0
 31 22  1  0  0  0  0
 32 33  1  0  0  0  0
 32 31  1  0  0  0  0
 33 31  1  0  0  0  0
 33 34  1  0  0  0  0
 34 35  1  0  0  0  0
 36 37  1  0  0  0  0
 37 32  1  0  0  0  0
M  END
>  <MODEL>
2

>  <REMARK>
 VINA RESULT:      -6.5      1.707      2.259
  Name = 
  4 active torsions:
  status: ('A' for Active; 'I' for Inactive)
    1  A    between atoms: C_1  and  C_27
    2  A    between atoms: C_4  and  C_37
    3  A    between atoms: C_8  and  C_12
    4  A    between atoms: C_23  and  C_30
                            x       y       z     vdW  Elec       q    Type
                         _______ _______ _______ _____ _____    ______ ____

>  <TORSDO>
F 4

$$$$
=
 OpenBabel11122413583D

 37 44  0  0  1  0  0  0  0  0999 V2000
  161.4660  208.1710  148.3080 C   0  0  0  0  0  0  0  0  0  0  0  0
  161.7390  210.5390  151.2230 C   0  0  1  0  0  3  0  0  0  0  0  0
  161.4790  209.3180  154.2770 O   0  0  0  0  0  0  0  0  0  0  0  0
  162.5270  210.1510  148.7780 C   0  0  2  0  0  3  0  0  0  0  0  0
  160.9750  209.4440  151.9490 C   0  0  2  0  0  3  0  0  0  0  0  0
  162.6180  209.7500  150.2530 C   0  0  2  0  0  3  0  0  0  0  0  0
  160.5240  209.7920  153.3670 C   0  0  2  0  0  3  0  0  0  0  0  0
  162.4720  211.6670  148.6760 C   0  0  0  0  0  2  0  0  0  0  0  0
  162.2650  208.2800  150.4940 C   0  0  2  0  0  3  0  0  0  0  0  0
  162.6810  207.6330  147.8940 F   0  0  0  0  0  0  0  0  0  0  0  0
  160.3710  212.4930  151.5530 O   0  0  0  0  0  0  0  0  0  0  0  0
  161.2130  212.2430  149.3290 C   0  0  0  0  0  2  0  0  0  0  0  0
  161.1960  207.8600  149.6570 O   0  0  0  0  0  0  0  0  0  0  0  0
  159.8920  207.5160  154.3450 O   0  0  0  0  0  0  0  0  0  0  0  0
  161.0890  208.0740  154.8480 C   0  0  1  0  0  3  0  0  0  0  0  0
  160.7310  211.5240  150.6000 C   0  0  1  0  0  3  0  0  0  0  0  0
  161.8370  208.2620  151.9010 N   0  0  2  0  0  0  0  0  0  0  0  0
  161.4240  209.5690  148.1210 O   0  0  0  0  0  0  0  0  0  0  0  0
  160.1850  211.2720  153.6120 C   0  0  1  0  0  3  0  0  0  0  0  0
  160.4720  207.6060  147.5320 F   0  0  0  0  0  0  0  0  0  0  0  0
  161.0840  206.9130  153.8850 C   0  0  2  0  0  3  0  0  0  0  0  0
  161.1020  207.0580  152.3380 C   0  0  2  0  0  3  0  0  0  0  0  0
  159.4460  211.9000  152.4270 C   0  0  0  0  0  2  0  0  0  0  0  0
  160.0540  211.8140  156.0480 C   0  0  0  0  0  3  0  0  0  0  0  0
  159.3960  211.4320  154.8730 C   0  0  0  0  0  0  0  0  0  0  0  0
  158.0120  211.1960  154.8990 C   0  0  0  0  0  3  0  0  0  0  0  0
  155.9620  211.1140  156.1120 F   0  0  0  0  0  0  0  0  0  0  0  0
  157.9590  211.7260  157.2610 C   0  0  0  0  0  3  0  0  0  0  0  0
  157.2970  211.3430  156.0900 C   0  0  0  0  0  0  0  0  0  0  0  0
  159.3370  211.9620  157.2390 C   0  0  0  0  0  3  0  0  0  0  0  0
  161.7270  205.7720  151.7760 C   0  0  1  0  0  3  0  0  0  0  0  0
  160.8430  204.5650  152.0600 C   0  0  1  0  0  3  0  0  0  0  0  0
  160.8470  205.2080  150.6720 C   0  0  2  0  0  3  0  0  0  0  0  0
  161.7200  204.5130  149.6360 C   0  0  0  0  0  2  0  0  0  0  0  0
  161.0270  204.4800  148.3620 N   0  0  0  0  0  1  0  0  0  0  0  0
  160.9440  202.1110  151.7020 C   0  0  0  0  0  1  0  0  0  0  0  0
  161.7100  203.3200  152.2000 C   0  0  0  0  0  2  0  0  0  0  0  0
  1 13  1  0  0  0  0
  2  5  1  0  0  0  0
  3 15  1  0  0  0  0
  4  6  1  0  0  0  0
  5  7  1  0  0  0  0
  6  9  1  0  0  0  0
  6  2  1  0  0  0  0
  7 19  1  0  0  0  0
  7  3  1  0  0  0  0
  8  4  1  0  0  0  0
  8 12  1  0  0  0  0
  9 17  1  0  0  0  0
 10  1  1  0  0  0  0
 11 23  1  0  0  0  0
 12 16  1  0  0  0  0
 13  9  1  0  0  0  0
 14 15  1  0  0  0  0
 16  2  1  0  0  0  0
 16 11  1  0  0  0  0
 17  5  1  0  0  0  0
 17 22  1  0  0  0  0
 18  1  1  0  0  0  0
 18  4  1  0  0  0  0
 19 25  1  0  0  0  0
 20  1  1  0  0  0  0
 21 14  1  0  0  0  0
 21 15  1  0  0  0  0
 22 21  1  0  0  0  0
 23 19  1  0  0  0  0
 24 30  1  0  0  0  0
 25 26  1  0  0  0  0
 25 24  2  0  0  0  0
 26 29  2  0  0  0  0
 29 27  1  0  0  0  0
 29 28  1  0  0  0  0
 30 28  2  0  0  0  0
 31 32  1  0  0  0  0
 31 22  1  0  0  0  0
 32 37  1  0  0  0  0
 33 31  1  0  0  0  0
 33 32  1  0  0  0  0
 34 33  1  0  0  0  0
 35 34  1  0  0  0  0
 36 37  1  0  0  0  0
M  END
>  <MODEL>
3

>  <REMARK>
 VINA RESULT:      -6.4      2.271      7.852
  Name = 
  4 active torsions:
  status: ('A' for Active; 'I' for Inactive)
    1  A    between atoms: C_1  and  C_27
    2  A    between atoms: C_4  and  C_37
    3  A    between atoms: C_8  and  C_12
    4  A    between atoms: C_23  and  C_30
                            x       y       z     vdW  Elec       q    Type
                         _______ _______ _______ _____ _____    ______ ____

>  <TORSDO>
F 4

$$$$
