=
 OpenBabel11122414083D

 28 32  0  0  1  0  0  0  0  0999 V2000
  161.1910  209.6760  155.6470 C   0  0  0  0  0  0  0  0  0  0  0  0
  156.7070  211.0020  154.6560 C   0  0  0  0  0  1  0  0  0  0  0  0
  157.9350  212.1070  150.9360 O   0  0  0  0  0  0  0  0  0  0  0  0
  162.6520  211.4440  157.2570 C   0  0  0  0  0  3  0  0  0  0  0  0
  158.0510  213.4420  152.8680 N   0  0  0  0  0  0  0  0  0  0  0  0
  160.4480  208.7190  154.7610 C   0  0  0  0  0  2  0  0  0  0  0  0
  157.4790  210.3170  156.7920 O   0  0  0  0  0  1  0  0  0  0  0  0
  157.2600  211.4490  156.0070 C   0  0  1  0  0  0  0  0  0  0  0  0
  156.0790  213.6490  156.0090 C   0  0  0  0  0  0  0  0  0  0  0  0
  158.5820  212.2270  155.8750 C   0  0  2  0  0  3  0  0  0  0  0  0
  162.0090  209.5990  151.4720 C   0  0  0  0  0  1  0  0  0  0  0  0
  160.0020  212.4760  153.8500 C   0  0  2  0  0  3  0  0  0  0  0  0
  157.0790  214.2080  155.3960 N   0  0  0  0  0  0  0  0  0  0  0  0
  156.2340  212.3320  156.7090 C   0  0  0  0  0  2  0  0  0  0  0  0
  161.1970  209.7940  152.7360 C   0  0  1  0  0  3  0  0  0  0  0  0
  160.7900  211.0250  155.7510 C   0  0  0  0  0  0  0  0  0  0  0  0
  158.5200  212.4250  152.0050 C   0  0  0  0  0  0  0  0  0  0  0  0
  154.8190  214.3090  156.0400 N   0  0  0  0  0  1  0  0  0  0  0  0
  159.8120  210.3270  152.3860 C   0  0  0  0  0  2  0  0  0  0  0  0
  161.5340  211.9020  156.5570 C   0  0  0  0  0  3  0  0  0  0  0  0
  162.3150  209.2260  156.3480 C   0  0  0  0  0  3  0  0  0  0  0  0
  163.0410  210.1060  157.1530 C   0  0  0  0  0  3  0  0  0  0  0  0
  161.1180  208.5320  153.4700 N   0  0  0  0  0  2  0  0  0  0  0  0
  159.0350  213.6720  153.9190 C   0  0  2  0  0  3  0  0  0  0  0  0
  159.8110  211.8560  152.4410 C   0  0  2  0  0  3  0  0  0  0  0  0
  158.4340  213.6470  155.3250 C   0  0  2  0  0  3  0  0  0  0  0  0
  157.0970  214.4530  152.4370 C   0  0  0  0  0  1  0  0  0  0  0  0
  159.5980  211.5230  154.9840 C   0  0  1  0  0  3  0  0  0  0  0  0
  1 16  2  0  0  0  0
  1 21  1  0  0  0  0
  3 17  2  0  0  0  0
  5 24  1  0  0  0  0
  6  1  1  0  0  0  0
  8  2  1  6  0  0  0
  8 14  1  0  0  0  0
  8  7  1  0  0  0  0
  9 18  1  0  0  0  0
  9 14  1  0  0  0  0
 10  8  1  0  0  0  0
 11 15  1  0  0  0  0
 12 24  1  0  0  0  0
 12 28  1  0  0  0  0
 13  9  2  0  0  0  0
 15 23  1  0  0  0  0
 16 20  1  0  0  0  0
 17 25  1  0  0  0  0
 17  5  1  0  0  0  0
 19 25  1  0  0  0  0
 19 15  1  0  0  0  0
 20  4  2  0  0  0  0
 21 22  2  0  0  0  0
 22  4  1  0  0  0  0
 23  6  1  0  0  0  0
 24 26  1  0  0  0  0
 25 12  1  0  0  0  0
 26 13  1  0  0  0  0
 26 10  1  0  0  0  0
 27  5  1  0  0  0  0
 28 16  1  0  0  0  0
 28 10  1  0  0  0  0
M  END
>  <MODEL>
1

>  <REMARK>
 VINA RESULT:      -3.0      0.000      0.000
  Name = 
  0 active torsions:
  status: ('A' for Active; 'I' for Inactive)
                            x       y       z     vdW  Elec       q    Type
                         _______ _______ _______ _____ _____    ______ ____

>  <TORSDO>
F 0

$$$$
=
 OpenBabel11122414083D

 28 32  0  0  1  0  0  0  0  0999 V2000
  157.8740  213.4830  154.1190 C   0  0  0  0  0  0  0  0  0  0  0  0
  161.9320  211.2320  155.2660 C   0  0  0  0  0  1  0  0  0  0  0  0
  162.3570  210.1650  151.3620 O   0  0  0  0  0  0  0  0  0  0  0  0
  155.5090  212.1450  154.8020 C   0  0  0  0  0  3  0  0  0  0  0  0
  161.0930  209.0020  152.9680 N   0  0  0  0  0  0  0  0  0  0  0  0
  159.1200  214.2160  153.7150 C   0  0  0  0  0  2  0  0  0  0  0  0
  160.4220  212.1880  156.8270 O   0  0  0  0  0  1  0  0  0  0  0  0
  160.7410  210.9880  156.1900 C   0  0  1  0  0  0  0  0  0  0  0  0
  161.3090  208.6020  156.6540 C   0  0  0  0  0  0  0  0  0  0  0  0
  159.4990  210.4820  155.4310 C   0  0  2  0  0  3  0  0  0  0  0  0
  159.1050  213.4630  150.0470 C   0  0  0  0  0  1  0  0  0  0  0  0
  159.1540  210.3970  152.9710 C   0  0  2  0  0  3  0  0  0  0  0  0
  160.6130  208.2160  155.6270 N   0  0  0  0  0  0  0  0  0  0  0  0
  161.1220  209.9640  157.2530 C   0  0  0  0  0  2  0  0  0  0  0  0
  159.1850  213.1880  151.5350 C   0  0  1  0  0  3  0  0  0  0  0  0
  157.8960  212.0910  154.3460 C   0  0  0  0  0  0  0  0  0  0  0  0
  161.2940  210.0370  152.0250 C   0  0  0  0  0  0  0  0  0  0  0  0
  162.2470  207.7070  157.2390 N   0  0  0  0  0  1  0  0  0  0  0  0
  160.4330  212.3700  151.8450 C   0  0  0  0  0  2  0  0  0  0  0  0
  156.7030  211.4300  154.6820 C   0  0  0  0  0  3  0  0  0  0  0  0
  156.6730  214.1900  154.2370 C   0  0  0  0  0  3  0  0  0  0  0  0
  155.4950  213.5240  154.5800 C   0  0  0  0  0  3  0  0  0  0  0  0
  159.1740  214.4530  152.2690 N   0  0  0  0  0  2  0  0  0  0  0  0
  159.7130  209.0380  153.4340 C   0  0  2  0  0  3  0  0  0  0  0  0
  160.0940  210.8770  151.8360 C   0  0  2  0  0  3  0  0  0  0  0  0
  159.5890  209.0300  154.9580 C   0  0  2  0  0  3  0  0  0  0  0  0
  161.9080  207.7970  152.9890 C   0  0  0  0  0  1  0  0  0  0  0  0
  159.1760  211.3180  154.1990 C   0  0  1  0  0  3  0  0  0  0  0  0
  1 21  2  0  0  0  0
  1 16  1  0  0  0  0
  3 17  2  0  0  0  0
  5 27  1  0  0  0  0
  5 24  1  0  0  0  0
  6  1  1  0  0  0  0
  8  2  1  6  0  0  0
  8  7  1  0  0  0  0
  8 14  1  0  0  0  0
  9 18  1  0  0  0  0
  9 14  1  0  0  0  0
 10  8  1  0  0  0  0
 11 15  1  0  0  0  0
 12 24  1  0  0  0  0
 12 28  1  0  0  0  0
 13  9  2  0  0  0  0
 15 19  1  0  0  0  0
 15 23  1  0  0  0  0
 16 20  2  0  0  0  0
 17  5  1  0  0  0  0
 20  4  1  0  0  0  0
 21 22  1  0  0  0  0
 22  4  2  0  0  0  0
 23  6  1  0  0  0  0
 24 26  1  0  0  0  0
 25 19  1  0  0  0  0
 25 17  1  0  0  0  0
 25 12  1  0  0  0  0
 26 10  1  0  0  0  0
 26 13  1  0  0  0  0
 28 16  1  0  0  0  0
 28 10  1  0  0  0  0
M  END
>  <MODEL>
2

>  <REMARK>
 VINA RESULT:      -1.8      2.118      5.527
  Name = 
  0 active torsions:
  status: ('A' for Active; 'I' for Inactive)
                            x       y       z     vdW  Elec       q    Type
                         _______ _______ _______ _____ _____    ______ ____

>  <TORSDO>
F 0

$$$$
