=
 OpenBabel11122412333D

 30 35  0  0  1  0  0  0  0  0999 V2000
  161.0220  208.2840  151.0140 C   0  0  1  0  0  3  0  0  0  0  0  0
  161.0150  206.1410  149.5300 C   0  0  0  0  0  0  0  0  0  0  0  0
  161.0230  205.8090  154.5630 C   0  0  0  0  0  2  0  0  0  0  0  0
  161.1000  208.8480  152.4530 C   0  0  1  0  0  3  0  0  0  0  0  0
  162.0430  209.0280  150.1670 C   0  0  0  0  0  2  0  0  0  0  0  0
  160.9110  212.3390  151.3200 O   0  0  0  0  0  0  0  0  0  0  0  0
  159.3900  210.4530  154.6660 C   0  0  1  0  0  3  0  0  0  0  0  0
  161.1000  211.0910  151.3190 C   0  0  0  0  0  0  0  0  0  0  0  0
  159.7140  209.2300  155.5170 C   0  0  2  0  0  3  0  0  0  0  0  0
  160.7310  206.9270  155.4910 C   0  0  0  0  0  0  0  0  0  0  0  0
  161.8160  210.4730  150.2270 N   0  0  0  0  0  0  0  0  0  0  0  0
  160.4810  210.2480  152.4140 C   0  0  2  0  0  3  0  0  0  0  0  0
  161.2550  204.6700  149.3450 C   0  0  0  0  0  2  0  0  0  0  0  0
  160.4140  209.7160  156.7710 C   0  0  0  0  0  2  0  0  0  0  0  0
  158.9280  211.5500  155.6070 C   0  0  0  0  0  2  0  0  0  0  0  0
  160.7550  206.8470  148.5190 O   0  0  0  0  0  0  0  0  0  0  0  0
  161.2770  206.6050  153.3030 C   0  0  2  0  0  3  0  0  0  0  0  0
  161.1770  203.8980  150.6330 C   0  0  0  0  0  3  0  0  0  0  0  0
  161.1220  206.7630  150.8710 C   0  0  0  0  0  0  0  0  0  0  0  0
  160.4320  207.8610  153.4130 C   0  0  1  0  0  3  0  0  0  0  0  0
  160.6530  206.7740  156.7380 O   0  0  0  0  0  0  0  0  0  0  0  0
  160.4860  208.1790  154.8390 N   0  0  0  0  0  0  0  0  0  0  0  0
  159.6620  211.2960  157.2550 S   0  0  0  0  0  0  0  0  0  0  0  0
  161.8970  211.0390  154.3930 C   0  0  0  0  0  1  0  0  0  0  0  0
  161.1530  204.4930  151.8270 C   0  0  0  0  0  3  0  0  0  0  0  0
  161.1510  205.9640  151.9590 C   0  0  0  0  0  0  0  0  0  0  0  0
  160.5090  210.9670  153.7580 C   0  0  2  0  0  3  0  0  0  0  0  0
  162.3670  211.2810  149.1480 C   0  0  0  0  0  2  0  0  0  0  0  0
  160.9440  212.7860  147.9790 O   0  0  0  0  0  1  0  0  0  0  0  0
  161.3430  211.4510  148.0410 C   0  0  0  0  0  2  0  0  0  0  0  0
  1  5  1  6  0  0  0
  1  4  1  0  0  0  0
  2 19  1  0  0  0  0
  3 10  1  0  0  0  0
  4 20  1  0  0  0  0
  5 11  1  0  0  0  0
  7  9  1  0  0  0  0
  7 15  1  0  0  0  0
  8  6  2  0  0  0  0
  8 12  1  0  0  0  0
  9 14  1  0  0  0  0
 10 21  2  0  0  0  0
 11  8  1  0  0  0  0
 12  4  1  0  0  0  0
 12 27  1  0  0  0  0
 13  2  1  0  0  0  0
 13 18  1  0  0  0  0
 14 23  1  0  0  0  0
 15 23  1  0  0  0  0
 16  2  2  0  0  0  0
 17 20  1  0  0  0  0
 17  3  1  0  0  0  0
 18 25  2  0  0  0  0
 19  1  1  0  0  0  0
 19 26  2  0  0  0  0
 20 22  1  0  0  0  0
 22 10  1  0  0  0  0
 22  9  1  0  0  0  0
 25 26  1  0  0  0  0
 26 17  1  0  0  0  0
 27 24  1  0  0  0  0
 27  7  1  0  0  0  0
 28 11  1  0  0  0  0
 29 30  1  0  0  0  0
 30 28  1  0  0  0  0
M  END
>  <MODEL>
1

>  <REMARK>
 VINA RESULT:      -7.4      0.000      0.000
  Name = 
  2 active torsions:
  status: ('A' for Active; 'I' for Inactive)
    1  A    between atoms: N_11  and  C_28
    2  A    between atoms: C_28  and  C_30
                            x       y       z     vdW  Elec       q    Type
                         _______ _______ _______ _____ _____    ______ ____

>  <TORSDO>
F 2

$$$$
=
 OpenBabel11122412333D

 30 35  0  0  1  0  0  0  0  0999 V2000
  160.6900  209.4070  151.4860 C   0  0  1  0  0  3  0  0  0  0  0  0
  161.3620  207.2330  150.2160 C   0  0  0  0  0  0  0  0  0  0  0  0
  160.8430  207.2500  155.2330 C   0  0  0  0  0  2  0  0  0  0  0  0
  160.4600  210.0680  152.8660 C   0  0  1  0  0  3  0  0  0  0  0  0
  161.6030  210.3190  150.6800 C   0  0  0  0  0  2  0  0  0  0  0  0
  159.5990  213.3260  151.3980 O   0  0  0  0  0  0  0  0  0  0  0  0
  158.1700  211.3540  154.7360 C   0  0  1  0  0  3  0  0  0  0  0  0
  160.0720  212.1640  151.5330 C   0  0  0  0  0  0  0  0  0  0  0  0
  158.6660  210.3060  155.7260 C   0  0  2  0  0  3  0  0  0  0  0  0
  160.1890  208.3230  156.0180 C   0  0  0  0  0  0  0  0  0  0  0  0
  161.0380  211.6660  150.5810 N   0  0  0  0  0  0  0  0  0  0  0  0
  159.5400  211.2700  152.6340 C   0  0  2  0  0  3  0  0  0  0  0  0
  161.9600  205.8550  150.1950 C   0  0  0  0  0  2  0  0  0  0  0  0
  159.0780  211.0310  156.9930 C   0  0  0  0  0  2  0  0  0  0  0  0
  157.3540  212.3670  155.5190 C   0  0  0  0  0  2  0  0  0  0  0  0
  161.0670  207.7850  149.1220 O   0  0  0  0  0  0  0  0  0  0  0  0
  161.0530  207.9980  153.9360 C   0  0  2  0  0  3  0  0  0  0  0  0
  161.9110  205.1750  151.5350 C   0  0  0  0  0  3  0  0  0  0  0  0
  161.1590  207.9510  151.4970 C   0  0  0  0  0  0  0  0  0  0  0  0
  159.9310  209.0160  153.8420 C   0  0  1  0  0  3  0  0  0  0  0  0
  159.9990  208.2390  157.2600 O   0  0  0  0  0  0  0  0  0  0  0  0
  159.7380  209.4310  155.2310 N   0  0  0  0  0  0  0  0  0  0  0  0
  157.9240  212.4100  157.2490 S   0  0  0  0  0  0  0  0  0  0  0  0
  160.4850  212.5120  154.6630 C   0  0  0  0  0  1  0  0  0  0  0  0
  161.6050  205.8250  152.6600 C   0  0  0  0  0  3  0  0  0  0  0  0
  161.2430  207.2570  152.6530 C   0  0  0  0  0  0  0  0  0  0  0  0
  159.2380  212.0630  153.9020 C   0  0  2  0  0  3  0  0  0  0  0  0
  161.5110  212.5100  149.4920 C   0  0  0  0  0  2  0  0  0  0  0  0
  163.2190  212.6120  147.8410 O   0  0  0  0  0  1  0  0  0  0  0  0
  162.4380  211.7260  148.5830 C   0  0  0  0  0  2  0  0  0  0  0  0
  1  5  1  1  0  0  0
  1 19  1  0  0  0  0
  1  4  1  0  0  0  0
  2 19  1  0  0  0  0
  3 10  1  0  0  0  0
  4 20  1  0  0  0  0
  6  8  2  0  0  0  0
  7 15  1  0  0  0  0
  7  9  1  0  0  0  0
  8 12  1  0  0  0  0
  9 14  1  0  0  0  0
 10 21  2  0  0  0  0
 11  5  1  0  0  0  0
 11  8  1  0  0  0  0
 12  4  1  0  0  0  0
 12 27  1  0  0  0  0
 13  2  1  0  0  0  0
 13 18  1  0  0  0  0
 14 23  1  0  0  0  0
 15 23  1  0  0  0  0
 16  2  2  0  0  0  0
 17  3  1  0  0  0  0
 18 25  2  0  0  0  0
 19 26  2  0  0  0  0
 20 17  1  0  0  0  0
 20 22  1  0  0  0  0
 22  9  1  0  0  0  0
 22 10  1  0  0  0  0
 26 25  1  0  0  0  0
 26 17  1  0  0  0  0
 27 24  1  0  0  0  0
 27  7  1  0  0  0  0
 28 11  1  0  0  0  0
 29 30  1  0  0  0  0
 30 28  1  0  0  0  0
M  END
>  <MODEL>
2

>  <REMARK>
 VINA RESULT:      -5.8      1.353      1.596
  Name = 
  2 active torsions:
  status: ('A' for Active; 'I' for Inactive)
    1  A    between atoms: N_11  and  C_28
    2  A    between atoms: C_28  and  C_30
                            x       y       z     vdW  Elec       q    Type
                         _______ _______ _______ _____ _____    ______ ____

>  <TORSDO>
F 2

$$$$
=
 OpenBabel11122412333D

 30 35  0  0  1  0  0  0  0  0999 V2000
  161.1010  209.5580  151.8890 C   0  0  1  0  0  3  0  0  0  0  0  0
  160.8310  211.9920  150.9980 C   0  0  0  0  0  0  0  0  0  0  0  0
  162.1750  208.2350  147.9130 C   0  0  0  0  0  2  0  0  0  0  0  0
  161.5190  208.1070  151.5520 C   0  0  1  0  0  3  0  0  0  0  0  0
  161.8200  209.9650  153.1670 C   0  0  0  0  0  2  0  0  0  0  0  0
  160.8380  206.8970  154.9550 O   0  0  0  0  0  0  0  0  0  0  0  0
  160.3570  205.1140  151.2580 C   0  0  1  0  0  3  0  0  0  0  0  0
  161.0920  207.6690  153.9900 C   0  0  0  0  0  0  0  0  0  0  0  0
  160.9640  205.2270  149.8640 C   0  0  2  0  0  3  0  0  0  0  0  0
  162.0710  206.7920  148.2330 C   0  0  0  0  0  0  0  0  0  0  0  0
  161.5320  209.0210  154.2490 N   0  0  0  0  0  0  0  0  0  0  0  0
  160.8310  207.1990  152.5740 C   0  0  2  0  0  3  0  0  0  0  0  0
  161.1000  213.0520  149.9670 C   0  0  0  0  0  2  0  0  0  0  0  0
  161.9380  204.0780  149.6930 C   0  0  0  0  0  2  0  0  0  0  0  0
  160.0940  203.6420  151.5200 C   0  0  0  0  0  2  0  0  0  0  0  0
  160.2740  212.3230  152.0790 O   0  0  0  0  0  0  0  0  0  0  0  0
  162.0430  208.7990  149.3090 C   0  0  2  0  0  3  0  0  0  0  0  0
  161.4070  212.4830  148.6090 C   0  0  0  0  0  3  0  0  0  0  0  0
  161.2490  210.5890  150.7680 C   0  0  0  0  0  0  0  0  0  0  0  0
  161.1850  207.8190  150.0870 C   0  0  1  0  0  3  0  0  0  0  0  0
  162.3310  205.8880  147.3950 O   0  0  0  0  0  0  0  0  0  0  0  0
  161.5910  206.5190  149.5540 N   0  0  0  0  0  0  0  0  0  0  0  0
  161.2480  202.6270  150.5400 S   0  0  0  0  0  0  0  0  0  0  0  0
  162.6680  205.4260  152.3860 C   0  0  0  0  0  1  0  0  0  0  0  0
  161.6610  211.1870  148.4140 C   0  0  0  0  0  3  0  0  0  0  0  0
  161.6070  210.2120  149.5210 C   0  0  0  0  0  0  0  0  0  0  0  0
  161.1680  205.7210  152.4050 C   0  0  2  0  0  3  0  0  0  0  0  0
  161.7340  209.4880  155.6140 C   0  0  0  0  0  2  0  0  0  0  0  0
  163.4260  210.6860  156.7790 O   0  0  0  0  0  1  0  0  0  0  0  0
  162.6430  210.7030  155.6250 C   0  0  0  0  0  2  0  0  0  0  0  0
  1  5  1  1  0  0  0
  2 16  2  0  0  0  0
  3 10  1  0  0  0  0
  3 17  1  0  0  0  0
  4  1  1  0  0  0  0
  4 12  1  0  0  0  0
  5 11  1  0  0  0  0
  7 15  1  0  0  0  0
  7 27  1  0  0  0  0
  8 11  1  0  0  0  0
  8  6  2  0  0  0  0
  9  7  1  0  0  0  0
 10 22  1  0  0  0  0
 11 28  1  0  0  0  0
 12  8  1  0  0  0  0
 13  2  1  0  0  0  0
 14  9  1  0  0  0  0
 14 23  1  0  0  0  0
 17 26  1  0  0  0  0
 17 20  1  0  0  0  0
 18 13  1  0  0  0  0
 19  2  1  0  0  0  0
 19  1  1  0  0  0  0
 20  4  1  0  0  0  0
 21 10  2  0  0  0  0
 22  9  1  0  0  0  0
 22 20  1  0  0  0  0
 23 15  1  0  0  0  0
 24 27  1  0  0  0  0
 25 18  2  0  0  0  0
 25 26  1  0  0  0  0
 26 19  2  0  0  0  0
 27 12  1  0  0  0  0
 28 30  1  0  0  0  0
 30 29  1  0  0  0  0
M  END
>  <MODEL>
3

>  <REMARK>
 VINA RESULT:      -5.3      2.706      6.648
  Name = 
  2 active torsions:
  status: ('A' for Active; 'I' for Inactive)
    1  A    between atoms: N_11  and  C_28
    2  A    between atoms: C_28  and  C_30
                            x       y       z     vdW  Elec       q    Type
                         _______ _______ _______ _____ _____    ______ ____

>  <TORSDO>
F 2

$$$$
=
 OpenBabel11122412333D

 30 35  0  0  1  0  0  0  0  0999 V2000
  161.2280  207.8380  151.5170 C   0  0  1  0  0  3  0  0  0  0  0  0
  161.2220  210.4060  151.0740 C   0  0  0  0  0  0  0  0  0  0  0  0
  162.4300  207.1470  147.4190 C   0  0  0  0  0  2  0  0  0  0  0  0
  161.5420  206.4370  150.9400 C   0  0  1  0  0  3  0  0  0  0  0  0
  161.8990  207.9410  152.8790 C   0  0  0  0  0  2  0  0  0  0  0  0
  160.5510  204.7110  154.0300 O   0  0  0  0  0  0  0  0  0  0  0  0
  160.1510  203.6670  150.0520 C   0  0  1  0  0  3  0  0  0  0  0  0
  160.9290  205.6150  153.2350 C   0  0  0  0  0  0  0  0  0  0  0  0
  160.8490  203.9680  148.7310 C   0  0  2  0  0  3  0  0  0  0  0  0
  162.1850  205.6860  147.4650 C   0  0  0  0  0  0  0  0  0  0  0  0
  161.4650  206.8520  153.7560 N   0  0  0  0  0  0  0  0  0  0  0  0
  160.7170  205.4310  151.7470 C   0  0  2  0  0  3  0  0  0  0  0  0
  161.6420  211.6020  150.2670 C   0  0  0  0  0  2  0  0  0  0  0  0
  161.7320  202.7800  148.3980 C   0  0  0  0  0  2  0  0  0  0  0  0
  159.7480  202.2040  150.0290 C   0  0  0  0  0  2  0  0  0  0  0  0
  160.6290  210.5910  152.1700 O   0  0  0  0  0  0  0  0  0  0  0  0
  162.2610  207.4630  148.8880 C   0  0  2  0  0  3  0  0  0  0  0  0
  161.9840  211.2570  148.8430 C   0  0  0  0  0  3  0  0  0  0  0  0
  161.5320  209.0330  150.6110 C   0  0  0  0  0  0  0  0  0  0  0  0
  161.2760  206.4460  149.4340 C   0  0  1  0  0  3  0  0  0  0  0  0
  162.4180  204.9250  146.4890 O   0  0  0  0  0  0  0  0  0  0  0  0
  161.6020  205.2300  148.6910 N   0  0  0  0  0  0  0  0  0  0  0  0
  160.8690  201.2750  148.9340 S   0  0  0  0  0  0  0  0  0  0  0  0
  162.4050  203.5540  151.3220 C   0  0  0  0  0  1  0  0  0  0  0  0
  162.1390  209.9980  148.4270 C   0  0  0  0  0  3  0  0  0  0  0  0
  161.9340  208.8510  149.3340 C   0  0  0  0  0  0  0  0  0  0  0  0
  160.9370  203.9810  151.3260 C   0  0  2  0  0  3  0  0  0  0  0  0
  161.6210  207.0480  155.1910 C   0  0  0  0  0  2  0  0  0  0  0  0
  159.7870  207.1330  156.7020 O   0  0  0  0  0  1  0  0  0  0  0  0
  160.4710  207.8730  155.7380 C   0  0  0  0  0  2  0  0  0  0  0  0
  1  5  1  1  0  0  0
  2 16  2  0  0  0  0
  3 10  1  0  0  0  0
  3 17  1  0  0  0  0
  4  1  1  0  0  0  0
  4 12  1  0  0  0  0
  5 11  1  0  0  0  0
  7 27  1  0  0  0  0
  8 11  1  0  0  0  0
  8  6  2  0  0  0  0
  9  7  1  0  0  0  0
 10 22  1  0  0  0  0
 11 28  1  0  0  0  0
 12  8  1  0  0  0  0
 13  2  1  0  0  0  0
 14  9  1  0  0  0  0
 14 23  1  0  0  0  0
 15  7  1  0  0  0  0
 17 26  1  0  0  0  0
 17 20  1  0  0  0  0
 18 13  1  0  0  0  0
 19  2  1  0  0  0  0
 19  1  1  0  0  0  0
 20  4  1  0  0  0  0
 21 10  2  0  0  0  0
 22  9  1  0  0  0  0
 22 20  1  0  0  0  0
 23 15  1  0  0  0  0
 24 27  1  0  0  0  0
 25 18  2  0  0  0  0
 25 26  1  0  0  0  0
 26 19  2  0  0  0  0
 27 12  1  0  0  0  0
 28 30  1  0  0  0  0
 30 29  1  0  0  0  0
M  END
>  <MODEL>
4

>  <REMARK>
 VINA RESULT:      -5.2      3.196      7.344
  Name = 
  2 active torsions:
  status: ('A' for Active; 'I' for Inactive)
    1  A    between atoms: N_11  and  C_28
    2  A    between atoms: C_28  and  C_30
                            x       y       z     vdW  Elec       q    Type
                         _______ _______ _______ _____ _____    ______ ____

>  <TORSDO>
F 2

$$$$
=
 OpenBabel11122412333D

 30 35  0  0  1  0  0  0  0  0999 V2000
  161.9730  210.6220  149.8940 C   0  0  1  0  0  3  0  0  0  0  0  0
  162.3530  212.2710  147.9120 C   0  0  0  0  0  0  0  0  0  0  0  0
  159.4470  213.5520  151.8300 C   0  0  0  0  0  2  0  0  0  0  0  0
  161.2240  210.3640  151.2230 C   0  0  1  0  0  3  0  0  0  0  0  0
  161.7930  209.3950  149.0120 C   0  0  0  0  0  2  0  0  0  0  0  0
  162.7610  207.0580  151.6910 O   0  0  0  0  0  0  0  0  0  0  0  0
  161.6910  209.9960  154.3920 C   0  0  1  0  0  3  0  0  0  0  0  0
  162.3430  208.1140  151.1420 C   0  0  0  0  0  0  0  0  0  0  0  0
  160.6910  211.1450  154.4730 C   0  0  2  0  0  3  0  0  0  0  0  0
  159.3980  212.8330  153.1260 C   0  0  0  0  0  0  0  0  0  0  0  0
  162.2520  208.1880  149.7010 N   0  0  0  0  0  0  0  0  0  0  0  0
  162.0410  209.3260  151.9980 C   0  0  2  0  0  3  0  0  0  0  0  0
  161.9490  213.4740  147.1070 C   0  0  0  0  0  2  0  0  0  0  0  0
  159.5310  210.6830  155.3340 C   0  0  0  0  0  2  0  0  0  0  0  0
  161.7670  209.3640  155.7700 C   0  0  0  0  0  2  0  0  0  0  0  0
  163.2810  211.5350  147.4810 O   0  0  0  0  0  0  0  0  0  0  0  0
  160.1230  212.4890  150.9940 C   0  0  2  0  0  3  0  0  0  0  0  0
  161.1210  214.4530  147.8930 C   0  0  0  0  0  3  0  0  0  0  0  0
  161.6470  211.9300  149.1700 C   0  0  0  0  0  0  0  0  0  0  0  0
  161.0060  211.6970  151.9400 C   0  0  1  0  0  3  0  0  0  0  0  0
  158.7270  213.2460  154.1080 O   0  0  0  0  0  0  0  0  0  0  0  0
  160.2300  211.6690  153.1790 N   0  0  0  0  0  0  0  0  0  0  0  0
  160.2000  209.6360  156.6590 S   0  0  0  0  0  0  0  0  0  0  0  0
  159.9670  208.4590  153.2210 C   0  0  0  0  0  1  0  0  0  0  0  0
  160.5980  214.1570  149.0840 C   0  0  0  0  0  3  0  0  0  0  0  0
  160.8410  212.8550  149.7360 C   0  0  0  0  0  0  0  0  0  0  0  0
  161.4170  208.9280  153.3320 C   0  0  2  0  0  3  0  0  0  0  0  0
  162.5910  207.0360  148.8760 C   0  0  0  0  0  2  0  0  0  0  0  0
  160.4080  206.0990  148.7760 O   0  0  0  0  0  1  0  0  0  0  0  0
  161.4170  206.6570  147.9930 C   0  0  0  0  0  2  0  0  0  0  0  0
  1  5  1  6  0  0  0
  1  4  1  0  0  0  0
  2 19  1  0  0  0  0
  3 10  1  0  0  0  0
  4 20  1  0  0  0  0
  4 12  1  0  0  0  0
  5 11  1  0  0  0  0
  7  9  1  0  0  0  0
  7 15  1  0  0  0  0
  8  6  2  0  0  0  0
  8 12  1  0  0  0  0
  9 14  1  0  0  0  0
 10 22  1  0  0  0  0
 10 21  2  0  0  0  0
 11  8  1  0  0  0  0
 12 27  1  0  0  0  0
 13 18  1  0  0  0  0
 13  2  1  0  0  0  0
 14 23  1  0  0  0  0
 15 23  1  0  0  0  0
 16  2  2  0  0  0  0
 17  3  1  0  0  0  0
 17 20  1  0  0  0  0
 18 25  2  0  0  0  0
 19 26  2  0  0  0  0
 19  1  1  0  0  0  0
 20 22  1  0  0  0  0
 22  9  1  0  0  0  0
 24 27  1  0  0  0  0
 25 26  1  0  0  0  0
 26 17  1  0  0  0  0
 27  7  1  0  0  0  0
 28 11  1  0  0  0  0
 30 29  1  0  0  0  0
 30 28  1  0  0  0  0
M  END
>  <MODEL>
5

>  <REMARK>
 VINA RESULT:      -5.0      2.341      5.459
  Name = 
  2 active torsions:
  status: ('A' for Active; 'I' for Inactive)
    1  A    between atoms: N_11  and  C_28
    2  A    between atoms: C_28  and  C_30
                            x       y       z     vdW  Elec       q    Type
                         _______ _______ _______ _____ _____    ______ ____

>  <TORSDO>
F 2

$$$$
=
 OpenBabel11122412333D

 30 35  0  0  1  0  0  0  0  0999 V2000
  161.1880  205.8670  150.0600 C   0  0  1  0  0  3  0  0  0  0  0  0
  160.7790  203.3040  149.8270 C   0  0  0  0  0  0  0  0  0  0  0  0
  161.2220  205.4570  154.3660 C   0  0  0  0  0  2  0  0  0  0  0  0
  161.4700  207.0390  151.0300 C   0  0  1  0  0  3  0  0  0  0  0  0
  162.2080  205.9410  148.9330 C   0  0  0  0  0  2  0  0  0  0  0  0
  161.6030  209.5250  148.3260 O   0  0  0  0  0  0  0  0  0  0  0  0
  160.1860  209.7560  152.2000 C   0  0  1  0  0  3  0  0  0  0  0  0
  161.6370  208.4210  148.9380 C   0  0  0  0  0  0  0  0  0  0  0  0
  160.4370  209.0660  153.5360 C   0  0  2  0  0  3  0  0  0  0  0  0
  161.1580  206.9150  154.6280 C   0  0  0  0  0  0  0  0  0  0  0  0
  162.1650  207.2490  148.2770 N   0  0  0  0  0  0  0  0  0  0  0  0
  161.0250  208.3200  150.3190 C   0  0  2  0  0  3  0  0  0  0  0  0
  160.8180  201.9110  150.3870 C   0  0  0  0  0  2  0  0  0  0  0  0
  161.3070  209.9850  154.3710 C   0  0  0  0  0  2  0  0  0  0  0  0
  159.9520  211.2280  152.4870 C   0  0  0  0  0  2  0  0  0  0  0  0
  160.5120  203.4610  148.6050 O   0  0  0  0  0  0  0  0  0  0  0  0
  161.4510  205.4930  152.8720 C   0  0  2  0  0  3  0  0  0  0  0  0
  160.7690  201.8820  151.8900 C   0  0  0  0  0  3  0  0  0  0  0  0
  161.0870  204.4740  150.6830 C   0  0  0  0  0  0  0  0  0  0  0  0
  160.7800  206.7570  152.3670 C   0  0  1  0  0  3  0  0  0  0  0  0
  161.1790  207.4000  155.7900 O   0  0  0  0  0  0  0  0  0  0  0  0
  161.0070  207.7140  153.4490 N   0  0  0  0  0  0  0  0  0  0  0  0
  160.8020  211.6960  154.0290 S   0  0  0  0  0  0  0  0  0  0  0  0
  162.7090  209.7450  151.6180 C   0  0  0  0  0  1  0  0  0  0  0  0
  160.9310  202.9780  152.6350 C   0  0  0  0  0  3  0  0  0  0  0  0
  161.1200  204.3090  152.0240 C   0  0  0  0  0  0  0  0  0  0  0  0
  161.2680  209.5870  151.1330 C   0  0  2  0  0  3  0  0  0  0  0  0
  162.7070  207.3380  146.9280 C   0  0  0  0  0  2  0  0  0  0  0  0
  160.9330  206.2850  145.7460 O   0  0  0  0  0  1  0  0  0  0  0  0
  162.2720  206.1390  146.1060 C   0  0  0  0  0  2  0  0  0  0  0  0
  1  5  1  6  0  0  0
  1 19  1  0  0  0  0
  1  4  1  0  0  0  0
  2 13  1  0  0  0  0
  2 19  1  0  0  0  0
  3 10  1  0  0  0  0
  4 20  1  0  0  0  0
  6  8  2  0  0  0  0
  7 15  1  0  0  0  0
  7  9  1  0  0  0  0
  8 12  1  0  0  0  0
  9 14  1  0  0  0  0
 10 21  2  0  0  0  0
 11  5  1  0  0  0  0
 11  8  1  0  0  0  0
 12  4  1  0  0  0  0
 12 27  1  0  0  0  0
 13 18  1  0  0  0  0
 15 23  1  0  0  0  0
 16  2  2  0  0  0  0
 17  3  1  0  0  0  0
 18 25  2  0  0  0  0
 19 26  2  0  0  0  0
 20 17  1  0  0  0  0
 20 22  1  0  0  0  0
 22  9  1  0  0  0  0
 22 10  1  0  0  0  0
 23 14  1  0  0  0  0
 26 25  1  0  0  0  0
 26 17  1  0  0  0  0
 27 24  1  0  0  0  0
 27  7  1  0  0  0  0
 28 11  1  0  0  0  0
 29 30  1  0  0  0  0
 30 28  1  0  0  0  0
M  END
>  <MODEL>
6

>  <REMARK>
 VINA RESULT:      -5.0      2.056      3.120
  Name = 
  2 active torsions:
  status: ('A' for Active; 'I' for Inactive)
    1  A    between atoms: N_11  and  C_28
    2  A    between atoms: C_28  and  C_30
                            x       y       z     vdW  Elec       q    Type
                         _______ _______ _______ _____ _____    ______ ____

>  <TORSDO>
F 2

$$$$
=
 OpenBabel11122412333D

 30 35  0  0  1  0  0  0  0  0999 V2000
  161.6940  209.0680  151.9720 C   0  0  1  0  0  3  0  0  0  0  0  0
  161.7970  209.5490  154.5310 C   0  0  0  0  0  0  0  0  0  0  0  0
  160.6030  204.9650  152.8000 C   0  0  0  0  0  2  0  0  0  0  0  0
  161.3540  208.0330  150.8730 C   0  0  1  0  0  3  0  0  0  0  0  0
  160.9840  210.3670  151.6220 C   0  0  0  0  0  2  0  0  0  0  0  0
  162.1910  210.3440  148.1410 O   0  0  0  0  0  0  0  0  0  0  0  0
  162.6840  206.2600  148.5310 C   0  0  1  0  0  3  0  0  0  0  0  0
  161.8670  209.9080  149.2800 C   0  0  0  0  0  0  0  0  0  0  0  0
  162.0380  205.1140  149.3010 C   0  0  2  0  0  3  0  0  0  0  0  0
  160.8000  204.5030  151.4050 C   0  0  0  0  0  0  0  0  0  0  0  0
  161.3550  210.8170  150.2790 N   0  0  0  0  0  0  0  0  0  0  0  0
  162.1200  208.4530  149.6160 C   0  0  2  0  0  3  0  0  0  0  0  0
  161.4410  209.2020  155.9490 C   0  0  0  0  0  2  0  0  0  0  0  0
  161.1290  204.3710  148.3410 C   0  0  0  0  0  2  0  0  0  0  0  0
  163.0400  205.7350  147.1520 C   0  0  0  0  0  2  0  0  0  0  0  0
  162.3600  210.6520  154.2980 O   0  0  0  0  0  0  0  0  0  0  0  0
  160.7350  206.4540  152.5780 C   0  0  2  0  0  3  0  0  0  0  0  0
  161.1350  207.7410  156.1350 C   0  0  0  0  0  3  0  0  0  0  0  0
  161.4580  208.6300  153.4190 C   0  0  0  0  0  0  0  0  0  0  0  0
  161.6690  206.6290  151.3950 C   0  0  1  0  0  3  0  0  0  0  0  0
  160.5730  203.3180  151.0420 O   0  0  0  0  0  0  0  0  0  0  0  0
  161.3270  205.5030  150.5280 N   0  0  0  0  0  0  0  0  0  0  0  0
  161.9250  204.3640  146.7090 S   0  0  0  0  0  0  0  0  0  0  0  0
  160.3880  207.3680  148.0760 C   0  0  0  0  0  1  0  0  0  0  0  0
  160.9530  206.9090  155.1080 C   0  0  0  0  0  3  0  0  0  0  0  0
  161.0920  207.3630  153.7100 C   0  0  0  0  0  0  0  0  0  0  0  0
  161.8680  207.5490  148.4140 C   0  0  2  0  0  3  0  0  0  0  0  0
  161.1590  212.2270  149.9690 C   0  0  0  0  0  2  0  0  0  0  0  0
  160.0720  214.2020  150.7260 O   0  0  0  0  0  1  0  0  0  0  0  0
  160.0700  212.8130  150.8490 C   0  0  0  0  0  2  0  0  0  0  0  0
  1  5  1  6  0  0  0
  1 19  1  0  0  0  0
  2 13  1  0  0  0  0
  4 20  1  0  0  0  0
  4  1  1  0  0  0  0
  6  8  2  0  0  0  0
  7  9  1  0  0  0  0
  8 12  1  0  0  0  0
  8 11  1  0  0  0  0
  9 22  1  0  0  0  0
 10  3  1  0  0  0  0
 11  5  1  0  0  0  0
 12  4  1  0  0  0  0
 13 18  1  0  0  0  0
 14  9  1  0  0  0  0
 15  7  1  0  0  0  0
 16  2  2  0  0  0  0
 17  3  1  0  0  0  0
 17 26  1  0  0  0  0
 19 26  2  0  0  0  0
 19  2  1  0  0  0  0
 20 17  1  0  0  0  0
 21 10  2  0  0  0  0
 22 20  1  0  0  0  0
 22 10  1  0  0  0  0
 23 15  1  0  0  0  0
 23 14  1  0  0  0  0
 24 27  1  0  0  0  0
 25 18  2  0  0  0  0
 26 25  1  0  0  0  0
 27  7  1  0  0  0  0
 27 12  1  0  0  0  0
 28 11  1  0  0  0  0
 28 30  1  0  0  0  0
 29 30  1  0  0  0  0
M  END
>  <MODEL>
7

>  <REMARK>
 VINA RESULT:      -4.6      3.110      5.821
  Name = 
  2 active torsions:
  status: ('A' for Active; 'I' for Inactive)
    1  A    between atoms: N_11  and  C_28
    2  A    between atoms: C_28  and  C_30
                            x       y       z     vdW  Elec       q    Type
                         _______ _______ _______ _____ _____    ______ ____

>  <TORSDO>
F 2

$$$$
=
 OpenBabel11122412333D

 30 35  0  0  1  0  0  0  0  0999 V2000
  159.9710  210.7710  153.3770 C   0  0  1  0  0  3  0  0  0  0  0  0
  160.4000  208.9750  155.2170 C   0  0  0  0  0  0  0  0  0  0  0  0
  161.8630  208.2070  150.4520 C   0  0  0  0  0  2  0  0  0  0  0  0
  160.0700  211.1150  151.8720 C   0  0  1  0  0  3  0  0  0  0  0  0
  158.5570  211.0940  153.8360 C   0  0  0  0  0  2  0  0  0  0  0  0
  158.5990  214.4530  152.3230 O   0  0  0  0  0  0  0  0  0  0  0  0
  161.5600  213.0760  149.7900 C   0  0  1  0  0  3  0  0  0  0  0  0
  158.9100  213.2470  152.5260 C   0  0  0  0  0  0  0  0  0  0  0  0
  161.9680  211.7570  149.1440 C   0  0  2  0  0  3  0  0  0  0  0  0
  161.9410  209.2540  149.4050 C   0  0  0  0  0  0  0  0  0  0  0  0
  158.2220  212.4900  153.5460 N   0  0  0  0  0  0  0  0  0  0  0  0
  160.0720  212.6430  151.7660 C   0  0  2  0  0  3  0  0  0  0  0  0
  160.7020  207.5620  155.6290 C   0  0  0  0  0  2  0  0  0  0  0  0
  161.4960  211.7880  147.7030 C   0  0  0  0  0  2  0  0  0  0  0  0
  161.8000  214.1740  148.7710 C   0  0  0  0  0  2  0  0  0  0  0  0
  160.0910  209.8150  156.1040 O   0  0  0  0  0  0  0  0  0  0  0  0
  160.9980  208.9360  151.4540 C   0  0  2  0  0  3  0  0  0  0  0  0
  161.4090  206.7780  154.5590 C   0  0  0  0  0  3  0  0  0  0  0  0
  160.4250  209.3690  153.7880 C   0  0  0  0  0  0  0  0  0  0  0  0
  161.2940  210.4140  151.2790 C   0  0  1  0  0  3  0  0  0  0  0  0
  162.4020  209.0320  148.2540 O   0  0  0  0  0  0  0  0  0  0  0  0
  161.5060  210.5470  149.8390 N   0  0  0  0  0  0  0  0  0  0  0  0
  161.6870  213.4860  147.0870 S   0  0  0  0  0  0  0  0  0  0  0  0
  159.0440  212.5820  149.4230 C   0  0  0  0  0  1  0  0  0  0  0  0
  161.5220  207.2160  153.3030 C   0  0  0  0  0  3  0  0  0  0  0  0
  160.9960  208.5340  152.8930 C   0  0  0  0  0  0  0  0  0  0  0  0
  160.1310  213.1570  150.3310 C   0  0  2  0  0  3  0  0  0  0  0  0
  157.1370  213.0890  154.3110 C   0  0  0  0  0  2  0  0  0  0  0  0
  156.1100  211.9000  156.0960 O   0  0  0  0  0  1  0  0  0  0  0  0
  156.1250  212.0300  154.7080 C   0  0  0  0  0  2  0  0  0  0  0  0
  1 19  1  0  0  0  0
  1  5  1  6  0  0  0
  2 13  1  0  0  0  0
  2 16  2  0  0  0  0
  3 17  1  0  0  0  0
  4  1  1  0  0  0  0
  6  8  2  0  0  0  0
  7 27  1  0  0  0  0
  8 11  1  0  0  0  0
  9  7  1  0  0  0  0
  9 22  1  0  0  0  0
 10 22  1  0  0  0  0
 10  3  1  0  0  0  0
 11  5  1  0  0  0  0
 11 28  1  0  0  0  0
 12  4  1  0  0  0  0
 12  8  1  0  0  0  0
 14  9  1  0  0  0  0
 15  7  1  0  0  0  0
 17 26  1  0  0  0  0
 18 13  1  0  0  0  0
 19  2  1  0  0  0  0
 20 17  1  0  0  0  0
 20  4  1  0  0  0  0
 21 10  2  0  0  0  0
 22 20  1  0  0  0  0
 23 14  1  0  0  0  0
 23 15  1  0  0  0  0
 24 27  1  0  0  0  0
 25 18  2  0  0  0  0
 26 25  1  0  0  0  0
 26 19  2  0  0  0  0
 27 12  1  0  0  0  0
 28 30  1  0  0  0  0
 30 29  1  0  0  0  0
M  END
>  <MODEL>
8

>  <REMARK>
 VINA RESULT:      -4.4      3.058      6.159
  Name = 
  2 active torsions:
  status: ('A' for Active; 'I' for Inactive)
    1  A    between atoms: N_11  and  C_28
    2  A    between atoms: C_28  and  C_30
                            x       y       z     vdW  Elec       q    Type
                         _______ _______ _______ _____ _____    ______ ____

>  <TORSDO>
F 2

$$$$
