=
 OpenBabel11122413583D

 37 44  0  0  1  0  0  0  0  0999 V2000
  159.9600  210.9720  153.9370 C   0  0  0  0  0  0  0  0  0  0  0  0
  161.6950  207.8370  152.8160 C   0  0  1  0  0  3  0  0  0  0  0  0
  162.8840  207.7220  149.7300 O   0  0  0  0  0  0  0  0  0  0  0  0
  161.3030  209.3700  154.8840 C   0  0  2  0  0  3  0  0  0  0  0  0
  161.2970  208.3030  151.4170 C   0  0  2  0  0  3  0  0  0  0  0  0
  162.0000  209.1550  153.5360 C   0  0  2  0  0  3  0  0  0  0  0  0
  161.6530  207.3370  150.2840 C   0  0  2  0  0  3  0  0  0  0  0  0
  161.3470  208.0780  155.6830 C   0  0  0  0  0  2  0  0  0  0  0  0
  161.6670  210.2540  152.5290 C   0  0  2  0  0  3  0  0  0  0  0  0
  160.7990  211.9620  154.4410 F   0  0  0  0  0  0  0  0  0  0  0  0
  160.5550  205.5790  152.9110 C   0  0  0  0  0  2  0  0  0  0  0  0
  160.6260  206.9230  154.9790 C   0  0  0  0  0  2  0  0  0  0  0  0
  160.3000  210.6340  152.6100 O   0  0  0  0  0  0  0  0  0  0  0  0
  161.3690  208.7840  148.1950 O   0  0  0  0  0  0  0  0  0  0  0  0
  162.7050  208.4780  148.5360 C   0  0  1  0  0  3  0  0  0  0  0  0
  160.5580  207.0110  153.4460 C   0  0  1  0  0  3  0  0  0  0  0  0
  161.9310  209.6110  151.2360 N   0  0  2  0  0  0  0  0  0  0  0  0
  159.9730  209.8150  154.7450 O   0  0  0  0  0  0  0  0  0  0  0  0
  161.6240  205.8440  150.6620 C   0  0  1  0  0  3  0  0  0  0  0  0
  158.6740  211.4770  153.9330 F   0  0  0  0  0  0  0  0  0  0  0  0
  162.1130  209.8500  148.7430 C   0  0  2  0  0  3  0  0  0  0  0  0
  161.3930  210.2960  150.0410 C   0  0  2  0  0  3  0  0  0  0  0  0
  160.3390  205.4920  151.4060 C   0  0  0  0  0  2  0  0  0  0  0  0
  161.1570  205.5210  148.2000 C   0  0  0  0  0  2  0  0  0  0  0  0
  161.7830  204.9160  149.4530 C   0  0  2  0  0  3  0  0  0  0  0  0
  161.2550  203.5000  149.7190 C   0  0  0  0  0  2  0  0  0  0  0  0
  161.1180  201.4190  148.5610 O   0  0  0  0  0  0  0  0  0  0  0  0
  161.2000  203.2900  147.1810 N   0  0  0  0  0  2  0  0  0  0  0  0
  161.2200  202.6700  148.4710 C   0  0  0  0  0  0  0  0  0  0  0  0
  161.5670  204.6900  146.9920 C   0  0  0  0  0  2  0  0  0  0  0  0
  161.5410  211.8220  150.1360 C   0  0  1  0  0  3  0  0  0  0  0  0
  161.5300  212.4290  148.7660 N   0  0  0  0  0  0  0  0  0  0  0  0
  160.3860  212.4530  149.7190 C   0  0  2  0  0  3  0  0  0  0  0  0
  163.3530  212.4020  147.2810 N   0  0  0  0  0  2  0  0  0  0  0  0
  162.1340  212.7520  147.5190 C   0  0  0  0  0  3  0  0  0  0  0  0
  160.2870  213.8290  150.3430 C   0  0  0  0  0  2  0  0  0  0  0  0
  160.0550  213.7060  151.6990 F   0  0  0  0  0  0  0  0  0  0  0  0
  1 10  1  0  0  0  0
  1 18  1  0  0  0  0
  2 16  1  0  0  0  0
  2  6  1  0  0  0  0
  3  7  1  0  0  0  0
  4  8  1  0  0  0  0
  5  2  1  0  0  0  0
  6  4  1  0  0  0  0
  7 19  1  0  0  0  0
  7  5  1  0  0  0  0
  9 13  1  0  0  0  0
  9  6  1  0  0  0  0
 11 16  1  0  0  0  0
 12  8  1  0  0  0  0
 13  1  1  0  0  0  0
 14 15  1  0  0  0  0
 14 21  1  0  0  0  0
 15 21  1  0  0  0  0
 15  3  1  0  0  0  0
 16 12  1  0  0  0  0
 17  5  1  0  0  0  0
 17  9  1  0  0  0  0
 18  4  1  0  0  0  0
 19 23  1  0  0  0  0
 20  1  1  0  0  0  0
 21 22  1  0  0  0  0
 22 31  1  0  0  0  0
 22 17  1  0  0  0  0
 23 11  1  0  0  0  0
 24 25  1  0  0  0  0
 25 26  1  0  0  0  0
 25 19  1  0  0  0  0
 28 29  1  0  0  0  0
 29 27  2  0  0  0  0
 29 26  1  0  0  0  0
 30 28  1  0  0  0  0
 30 24  1  0  0  0  0
 32 33  1  0  0  0  0
 32 31  1  0  0  0  0
 33 31  1  0  0  0  0
 33 36  1  0  0  0  0
 34 35  2  0  0  0  0
 35 32  1  0  0  0  0
 36 37  1  0  0  0  0
M  END
>  <MODEL>
1

>  <REMARK>
 VINA RESULT:      -7.2      0.000      0.000
  Name = 
  3 active torsions:
  status: ('A' for Active; 'I' for Inactive)
    1  A    between atoms: C_1  and  C_27
    2  A    between atoms: C_8  and  C_12
    3  A    between atoms: C_23  and  C_30
                            x       y       z     vdW  Elec       q    Type
                         _______ _______ _______ _____ _____    ______ ____

>  <TORSDO>
F 3

$$$$
=
 OpenBabel11122413583D

 37 44  0  0  1  0  0  0  0  0999 V2000
  158.9290  210.9170  156.0150 C   0  0  0  0  0  0  0  0  0  0  0  0
  161.3880  208.6570  154.2980 C   0  0  1  0  0  3  0  0  0  0  0  0
  162.4670  209.5130  151.2900 O   0  0  0  0  0  0  0  0  0  0  0  0
  160.6740  209.5600  156.6350 C   0  0  2  0  0  3  0  0  0  0  0  0
  160.8380  209.2870  153.0210 C   0  0  2  0  0  3  0  0  0  0  0  0
  161.3600  209.8260  155.2900 C   0  0  2  0  0  3  0  0  0  0  0  0
  161.3980  208.7110  151.7180 C   0  0  2  0  0  3  0  0  0  0  0  0
  161.0800  208.1860  157.1410 C   0  0  0  0  0  2  0  0  0  0  0  0
  160.7190  210.9860  154.5300 C   0  0  2  0  0  3  0  0  0  0  0  0
  159.4960  211.9620  156.7390 F   0  0  0  0  0  0  0  0  0  0  0  0
  160.8820  206.2120  153.8820 C   0  0  0  0  0  2  0  0  0  0  0  0
  160.6650  207.0580  156.1900 C   0  0  0  0  0  2  0  0  0  0  0  0
  159.3050  210.9680  154.6560 O   0  0  0  0  0  0  0  0  0  0  0  0
  160.6800  210.4400  149.9770 O   0  0  0  0  0  0  0  0  0  0  0  0
  162.0600  210.4300  150.2800 C   0  0  1  0  0  3  0  0  0  0  0  0
  160.5270  207.4480  154.7090 C   0  0  1  0  0  3  0  0  0  0  0  0
  161.1020  210.7230  153.1380 N   0  0  2  0  0  0  0  0  0  0  0  0
  159.2700  209.6600  156.5590 O   0  0  0  0  0  0  0  0  0  0  0  0
  161.7730  207.2180  151.7690 C   0  0  1  0  0  3  0  0  0  0  0  0
  157.5570  211.0560  156.0850 F   0  0  0  0  0  0  0  0  0  0  0  0
  161.1360  211.5230  150.7580 C   0  0  2  0  0  3  0  0  0  0  0  0
  160.3660  211.4800  152.1030 C   0  0  2  0  0  3  0  0  0  0  0  0
  160.6490  206.3920  152.3880 C   0  0  0  0  0  2  0  0  0  0  0  0
  161.8100  207.6280  149.2760 C   0  0  0  0  0  2  0  0  0  0  0  0
  162.1310  206.6420  150.3950 C   0  0  2  0  0  3  0  0  0  0  0  0
  161.4870  205.2720  150.1400 C   0  0  0  0  0  2  0  0  0  0  0  0
  161.4860  203.6110  148.4290 O   0  0  0  0  0  0  0  0  0  0  0  0
  161.9480  205.7670  147.6840 N   0  0  0  0  0  2  0  0  0  0  0  0
  161.6690  204.8210  148.7220 C   0  0  0  0  0  0  0  0  0  0  0  0
  162.4170  207.1170  147.9770 C   0  0  0  0  0  2  0  0  0  0  0  0
  160.1130  212.9350  152.5220 C   0  0  1  0  0  3  0  0  0  0  0  0
  159.3130  213.6460  151.4730 N   0  0  0  0  0  0  0  0  0  0  0  0
  158.7700  213.1490  152.7670 C   0  0  2  0  0  3  0  0  0  0  0  0
  160.1910  214.4450  149.4430 N   0  0  0  0  0  2  0  0  0  0  0  0
  159.1700  214.3020  150.2190 C   0  0  0  0  0  3  0  0  0  0  0  0
  158.5890  214.3170  153.7130 C   0  0  0  0  0  2  0  0  0  0  0  0
  157.8230  213.9230  154.7920 F   0  0  0  0  0  0  0  0  0  0  0  0
  1 20  1  0  0  0  0
  1 18  1  0  0  0  0
  1 10  1  0  0  0  0
  2 16  1  0  0  0  0
  2  6  1  0  0  0  0
  3  7  1  0  0  0  0
  4  8  1  0  0  0  0
  5 17  1  0  0  0  0
  5  2  1  0  0  0  0
  6  4  1  0  0  0  0
  7 19  1  0  0  0  0
  7  5  1  0  0  0  0
  9 13  1  0  0  0  0
  9  6  1  0  0  0  0
 11 16  1  0  0  0  0
 12  8  1  0  0  0  0
 13  1  1  0  0  0  0
 14 15  1  0  0  0  0
 14 21  1  0  0  0  0
 15 21  1  0  0  0  0
 15  3  1  0  0  0  0
 16 12  1  0  0  0  0
 17  9  1  0  0  0  0
 18  4  1  0  0  0  0
 19 23  1  0  0  0  0
 21 22  1  0  0  0  0
 22 31  1  0  0  0  0
 22 17  1  0  0  0  0
 23 11  1  0  0  0  0
 24 25  1  0  0  0  0
 25 19  1  0  0  0  0
 26 25  1  0  0  0  0
 27 29  2  0  0  0  0
 28 30  1  0  0  0  0
 28 29  1  0  0  0  0
 29 26  1  0  0  0  0
 30 24  1  0  0  0  0
 31 33  1  0  0  0  0
 32 31  1  0  0  0  0
 32 33  1  0  0  0  0
 33 36  1  0  0  0  0
 34 35  2  0  0  0  0
 35 32  1  0  0  0  0
 36 37  1  0  0  0  0
M  END
>  <MODEL>
2

>  <REMARK>
 VINA RESULT:      -5.7      1.933      2.557
  Name = 
  3 active torsions:
  status: ('A' for Active; 'I' for Inactive)
    1  A    between atoms: C_1  and  C_27
    2  A    between atoms: C_8  and  C_12
    3  A    between atoms: C_23  and  C_30
                            x       y       z     vdW  Elec       q    Type
                         _______ _______ _______ _____ _____    ______ ____

>  <TORSDO>
F 3

$$$$
=
 OpenBabel11122413583D

 37 44  0  0  1  0  0  0  0  0999 V2000
  159.9450  210.0530  153.9740 C   0  0  0  0  0  0  0  0  0  0  0  0
  161.8350  207.8270  151.6140 C   0  0  1  0  0  3  0  0  0  0  0  0
  162.7540  209.0670  148.6870 O   0  0  0  0  0  0  0  0  0  0  0  0
  161.4970  208.3700  154.1390 C   0  0  2  0  0  3  0  0  0  0  0  0
  161.2780  208.7560  150.5380 C   0  0  2  0  0  3  0  0  0  0  0  0
  162.0890  208.7810  152.7850 C   0  0  2  0  0  3  0  0  0  0  0  0
  161.6140  208.3600  149.0980 C   0  0  2  0  0  3  0  0  0  0  0  0
  161.7210  206.8810  154.3510 C   0  0  0  0  0  2  0  0  0  0  0  0
  161.5770  210.1420  152.3180 C   0  0  2  0  0  3  0  0  0  0  0  0
  160.7390  210.8530  154.7920 F   0  0  0  0  0  0  0  0  0  0  0  0
  160.9030  205.6000  150.8510 C   0  0  0  0  0  2  0  0  0  0  0  0
  161.0410  206.0220  153.2790 C   0  0  0  0  0  2  0  0  0  0  0  0
  160.1960  210.3030  152.6080 O   0  0  0  0  0  0  0  0  0  0  0  0
  161.0260  210.4680  147.7770 O   0  0  0  0  0  0  0  0  0  0  0  0
  162.4090  210.2060  147.9050 C   0  0  1  0  0  3  0  0  0  0  0  0
  160.8320  206.6970  151.9140 C   0  0  1  0  0  3  0  0  0  0  0  0
  161.7800  210.0930  150.8650 N   0  0  2  0  0  0  0  0  0  0  0  0
  160.1270  208.6810  154.2510 O   0  0  0  0  0  0  0  0  0  0  0  0
  161.7450  206.8460  148.8490 C   0  0  1  0  0  3  0  0  0  0  0  0
  158.6260  210.3700  154.2320 F   0  0  0  0  0  0  0  0  0  0  0  0
  161.7230  211.3100  148.6700 C   0  0  2  0  0  3  0  0  0  0  0  0
  161.0840  211.1260  150.0700 C   0  0  2  0  0  3  0  0  0  0  0  0
  160.5640  206.0870  149.4490 C   0  0  0  0  0  2  0  0  0  0  0  0
  160.5080  206.3330  146.7060 C   0  0  0  0  0  2  0  0  0  0  0  0
  161.8760  206.4910  147.3640 C   0  0  2  0  0  3  0  0  0  0  0  0
  162.7610  205.2600  147.1230 C   0  0  0  0  0  2  0  0  0  0  0  0
  163.5940  204.0190  145.2650 O   0  0  0  0  0  0  0  0  0  0  0  0
  161.6060  205.1560  144.8550 N   0  0  0  0  0  2  0  0  0  0  0  0
  162.7070  204.7990  145.6980 C   0  0  0  0  0  0  0  0  0  0  0  0
  160.6920  206.2410  145.1980 C   0  0  0  0  0  2  0  0  0  0  0  0
  161.1100  212.4990  150.7590 C   0  0  1  0  0  3  0  0  0  0  0  0
  160.7510  213.5770  149.7820 N   0  0  0  0  0  0  0  0  0  0  0  0
  159.8400  213.0370  150.8290 C   0  0  2  0  0  3  0  0  0  0  0  0
  162.2100  214.4340  148.1490 N   0  0  0  0  0  2  0  0  0  0  0  0
  161.0440  214.4530  148.7000 C   0  0  0  0  0  3  0  0  0  0  0  0
  159.7520  214.0270  151.9710 C   0  0  0  0  0  2  0  0  0  0  0  0
  159.2100  213.4060  153.0800 F   0  0  0  0  0  0  0  0  0  0  0  0
  1 20  1  0  0  0  0
  1 18  1  0  0  0  0
  1 10  1  0  0  0  0
  2 16  1  0  0  0  0
  2  6  1  0  0  0  0
  3  7  1  0  0  0  0
  4 18  1  0  0  0  0
  4  8  1  0  0  0  0
  5 17  1  0  0  0  0
  5  2  1  0  0  0  0
  6  4  1  0  0  0  0
  7  5  1  0  0  0  0
  9 13  1  0  0  0  0
  9  6  1  0  0  0  0
 11 16  1  0  0  0  0
 12  8  1  0  0  0  0
 13  1  1  0  0  0  0
 14 15  1  0  0  0  0
 14 21  1  0  0  0  0
 15 21  1  0  0  0  0
 15  3  1  0  0  0  0
 16 12  1  0  0  0  0
 17  9  1  0  0  0  0
 19  7  1  0  0  0  0
 19 23  1  0  0  0  0
 21 22  1  0  0  0  0
 22 31  1  0  0  0  0
 22 17  1  0  0  0  0
 23 11  1  0  0  0  0
 24 25  1  0  0  0  0
 25 19  1  0  0  0  0
 26 25  1  0  0  0  0
 27 29  2  0  0  0  0
 28 30  1  0  0  0  0
 28 29  1  0  0  0  0
 29 26  1  0  0  0  0
 30 24  1  0  0  0  0
 31 33  1  0  0  0  0
 32 31  1  0  0  0  0
 32 33  1  0  0  0  0
 33 36  1  0  0  0  0
 34 35  2  0  0  0  0
 35 32  1  0  0  0  0
 36 37  1  0  0  0  0
M  END
>  <MODEL>
3

>  <REMARK>
 VINA RESULT:      -5.7      1.662      1.995
  Name = 
  3 active torsions:
  status: ('A' for Active; 'I' for Inactive)
    1  A    between atoms: C_1  and  C_27
    2  A    between atoms: C_8  and  C_12
    3  A    between atoms: C_23  and  C_30
                            x       y       z     vdW  Elec       q    Type
                         _______ _______ _______ _____ _____    ______ ____

>  <TORSDO>
F 3

$$$$
=
 OpenBabel11122413583D

 37 44  0  0  1  0  0  0  0  0999 V2000
  162.5680  206.3910  147.3580 C   0  0  0  0  0  0  0  0  0  0  0  0
  160.7930  206.2390  150.6640 C   0  0  1  0  0  3  0  0  0  0  0  0
  160.4400  209.0440  152.3820 O   0  0  0  0  0  0  0  0  0  0  0  0
  160.8300  205.2030  148.2740 C   0  0  2  0  0  3  0  0  0  0  0  0
  161.5970  207.5000  150.9770 C   0  0  2  0  0  3  0  0  0  0  0  0
  160.4840  206.3980  149.1710 C   0  0  2  0  0  3  0  0  0  0  0  0
  161.4250  208.0450  152.3960 C   0  0  2  0  0  3  0  0  0  0  0  0
  160.4140  203.9180  148.9710 C   0  0  0  0  0  2  0  0  0  0  0  0
  161.2060  207.6740  148.7410 C   0  0  2  0  0  3  0  0  0  0  0  0
  161.7610  206.7160  146.2710 F   0  0  0  0  0  0  0  0  0  0  0  0
  161.5690  204.7050  152.5210 C   0  0  0  0  0  2  0  0  0  0  0  0
  161.1380  203.7070  150.3050 C   0  0  0  0  0  2  0  0  0  0  0  0
  162.5410  207.4030  148.3400 O   0  0  0  0  0  0  0  0  0  0  0  0
  162.4240  210.3920  152.2280 O   0  0  0  0  0  0  0  0  0  0  0  0
  161.0170  210.3460  152.3460 C   0  0  1  0  0  3  0  0  0  0  0  0
  161.6120  204.9840  151.0180 C   0  0  1  0  0  3  0  0  0  0  0  0
  161.2050  208.4850  149.9650 N   0  0  2  0  0  0  0  0  0  0  0  0
  162.1970  205.1560  147.9320 O   0  0  0  0  0  0  0  0  0  0  0  0
  161.1620  206.9820  153.4790 C   0  0  1  0  0  3  0  0  0  0  0  0
  163.8650  206.2760  146.8970 F   0  0  0  0  0  0  0  0  0  0  0  0
  161.7070  210.6930  151.0500 C   0  0  2  0  0  3  0  0  0  0  0  0
  162.1180  209.6470  149.9810 C   0  0  2  0  0  3  0  0  0  0  0  0
  162.1550  205.8280  153.3660 C   0  0  0  0  0  2  0  0  0  0  0  0
  159.8940  207.2950  155.6420 C   0  0  0  0  0  2  0  0  0  0  0  0
  161.2030  207.5510  154.9020 C   0  0  2  0  0  3  0  0  0  0  0  0
  161.5870  209.0370  154.9350 C   0  0  0  0  0  2  0  0  0  0  0  0
  161.9720  210.7260  156.5750 O   0  0  0  0  0  0  0  0  0  0  0  0
  160.5480  209.0180  157.2610 N   0  0  0  0  0  2  0  0  0  0  0  0
  161.4160  209.6310  156.3010 C   0  0  0  0  0  0  0  0  0  0  0  0
  160.0810  207.6440  157.1120 C   0  0  0  0  0  2  0  0  0  0  0  0
  162.1480  210.3760  148.6290 C   0  0  1  0  0  3  0  0  0  0  0  0
  161.7670  211.8140  148.8070 N   0  0  0  0  0  0  0  0  0  0  0  0
  163.1560  211.3190  148.6030 C   0  0  2  0  0  3  0  0  0  0  0  0
  159.5650  212.5830  149.1070 N   0  0  0  0  0  2  0  0  0  0  0  0
  160.8210  212.8590  149.0050 C   0  0  0  0  0  3  0  0  0  0  0  0
  163.5790  211.5950  147.1750 C   0  0  0  0  0  2  0  0  0  0  0  0
  163.0460  212.8000  146.7610 F   0  0  0  0  0  0  0  0  0  0  0  0
  1 18  1  0  0  0  0
  1 13  1  0  0  0  0
  2  5  1  0  0  0  0
  2 16  1  0  0  0  0
  3  7  1  0  0  0  0
  4  8  1  0  0  0  0
  4  6  1  0  0  0  0
  5  7  1  0  0  0  0
  6  2  1  0  0  0  0
  7 19  1  0  0  0  0
  8 12  1  0  0  0  0
  9  6  1  0  0  0  0
  9 17  1  0  0  0  0
 10  1  1  0  0  0  0
 11 23  1  0  0  0  0
 12 16  1  0  0  0  0
 13  9  1  0  0  0  0
 14 15  1  0  0  0  0
 15  3  1  0  0  0  0
 16 11  1  0  0  0  0
 17 22  1  0  0  0  0
 17  5  1  0  0  0  0
 18  4  1  0  0  0  0
 19 25  1  0  0  0  0
 20  1  1  0  0  0  0
 21 14  1  0  0  0  0
 21 15  1  0  0  0  0
 22 21  1  0  0  0  0
 23 19  1  0  0  0  0
 24 30  1  0  0  0  0
 25 26  1  0  0  0  0
 25 24  1  0  0  0  0
 26 29  1  0  0  0  0
 29 27  2  0  0  0  0
 29 28  1  0  0  0  0
 30 28  1  0  0  0  0
 31 32  1  0  0  0  0
 31 22  1  0  0  0  0
 32 35  1  0  0  0  0
 33 31  1  0  0  0  0
 33 32  1  0  0  0  0
 35 34  2  0  0  0  0
 36 33  1  0  0  0  0
 37 36  1  0  0  0  0
M  END
>  <MODEL>
4

>  <REMARK>
 VINA RESULT:      -5.3      2.937      6.271
  Name = 
  3 active torsions:
  status: ('A' for Active; 'I' for Inactive)
    1  A    between atoms: C_1  and  C_27
    2  A    between atoms: C_8  and  C_12
    3  A    between atoms: C_23  and  C_30
                            x       y       z     vdW  Elec       q    Type
                         _______ _______ _______ _____ _____    ______ ____

>  <TORSDO>
F 3

$$$$
