=
 OpenBabel11122414093D

 28 32  0  0  1  0  0  0  0  0999 V2000
  161.1210  208.7510  155.3980 C   0  0  0  0  0  0  0  0  0  0  0  0
  158.3460  210.7590  154.3810 O   0  0  0  0  0  0  0  0  0  0  0  0
  161.7740  208.5880  149.0580 O   0  0  0  0  0  0  0  0  0  0  0  0
  163.0820  210.3400  156.6190 C   0  0  0  0  0  3  0  0  0  0  0  0
  161.8420  210.7290  150.0250 N   0  0  0  0  0  0  0  0  0  0  0  0
  160.1010  207.8580  154.7660 C   0  0  0  0  0  2  0  0  0  0  0  0
  159.1080  212.9720  155.1300 O   0  0  0  0  0  0  0  0  0  0  0  0
  159.0010  212.0430  153.9540 S   0  0  0  0  0  0  0  0  0  0  0  0
  158.3560  212.6480  151.4600 C   0  0  0  0  0  0  0  0  0  0  0  0
  160.6430  211.7420  153.3010 C   0  0  2  0  0  3  0  0  0  0  0  0
  161.7680  205.8420  152.1960 O   0  0  0  0  0  0  0  0  0  0  0  0
  162.1120  210.0800  152.3110 C   0  0  2  0  0  3  0  0  0  0  0  0
  159.5010  211.7820  151.0310 C   0  0  0  0  0  2  0  0  0  0  0  0
  158.0550  212.7900  152.7130 N   0  0  0  0  0  0  0  0  0  0  0  0
  161.1210  206.8010  152.6900 C   0  0  0  0  0  0  0  0  0  0  0  0
  161.5870  209.9120  154.7500 C   0  0  0  0  0  0  0  0  0  0  0  0
  161.8330  209.3170  150.0840 C   0  0  0  0  0  0  0  0  0  0  0  0
  157.5430  213.2650  150.4710 N   0  0  0  0  0  1  0  0  0  0  0  0
  160.7270  207.9460  151.8120 C   0  0  0  0  0  2  0  0  0  0  0  0
  162.5750  210.6960  155.3680 C   0  0  0  0  0  3  0  0  0  0  0  0
  161.6390  208.3990  156.6500 C   0  0  0  0  0  3  0  0  0  0  0  0
  162.6140  209.1920  157.2610 C   0  0  0  0  0  3  0  0  0  0  0  0
  160.7600  206.7590  154.0730 N   0  0  0  0  0  2  0  0  0  0  0  0
  161.9940  211.2840  151.3590 C   0  0  2  0  0  3  0  0  0  0  0  0
  161.9500  208.7920  151.4630 C   0  0  2  0  0  3  0  0  0  0  0  0
  160.7810  212.1080  151.8230 C   0  0  2  0  0  3  0  0  0  0  0  0
  161.9710  211.5020  148.8000 C   0  0  0  0  0  1  0  0  0  0  0  0
  161.0590  210.2850  153.3960 C   0  0  1  0  0  3  0  0  0  0  0  0
  1 21  1  0  0  0  0
  3 17  2  0  0  0  0
  4 22  1  0  0  0  0
  5 17  1  0  0  0  0
  5 24  1  0  0  0  0
  6  1  1  0  0  0  0
  8  2  2  0  0  0  0
  8  7  2  0  0  0  0
  9 14  2  0  0  0  0
 10 28  1  0  0  0  0
 10  8  1  6  0  0  0
 11 15  2  0  0  0  0
 12 28  1  0  0  0  0
 13  9  1  0  0  0  0
 13 26  1  0  0  0  0
 14  8  1  0  0  0  0
 15 23  1  0  0  0  0
 16 20  1  0  0  0  0
 16  1  2  0  0  0  0
 17 25  1  0  0  0  0
 18  9  1  0  0  0  0
 19 15  1  0  0  0  0
 20  4  2  0  0  0  0
 21 22  2  0  0  0  0
 23  6  1  0  0  0  0
 24 26  1  0  0  0  0
 24 12  1  0  0  0  0
 25 19  1  0  0  0  0
 25 12  1  0  0  0  0
 26 10  1  0  0  0  0
 27  5  1  0  0  0  0
 28 16  1  0  0  0  0
M  END
>  <MODEL>
1

>  <REMARK>
 VINA RESULT:      -4.2      0.000      0.000
  Name = 
  0 active torsions:
  status: ('A' for Active; 'I' for Inactive)
                            x       y       z     vdW  Elec       q    Type
                         _______ _______ _______ _____ _____    ______ ____

>  <TORSDO>
F 0

$$$$
=
 OpenBabel11122414093D

 28 32  0  0  1  0  0  0  0  0999 V2000
  157.8050  213.7950  152.7820 C   0  0  0  0  0  0  0  0  0  0  0  0
  160.0700  213.8270  155.5460 O   0  0  0  0  0  0  0  0  0  0  0  0
  162.1150  209.5050  150.8620 O   0  0  0  0  0  0  0  0  0  0  0  0
  155.3810  212.5950  153.5180 C   0  0  0  0  0  3  0  0  0  0  0  0
  161.0310  209.0090  152.8870 N   0  0  0  0  0  0  0  0  0  0  0  0
  159.0750  214.4530  152.3420 C   0  0  0  0  0  2  0  0  0  0  0  0
  158.6840  212.7430  157.2610 O   0  0  0  0  0  0  0  0  0  0  0  0
  159.7670  212.5290  156.2410 S   0  0  0  0  0  0  0  0  0  0  0  0
  161.9490  211.0520  156.4760 C   0  0  0  0  0  0  0  0  0  0  0  0
  159.2260  211.2830  155.0720 C   0  0  2  0  0  3  0  0  0  0  0  0
  160.2000  212.8390  149.2480 O   0  0  0  0  0  0  0  0  0  0  0  0
  159.2530  210.6030  152.7400 C   0  0  2  0  0  3  0  0  0  0  0  0
  161.6510  210.5240  155.1060 C   0  0  0  0  0  2  0  0  0  0  0  0
  161.1930  211.9480  157.0290 N   0  0  0  0  0  0  0  0  0  0  0  0
  160.1110  213.0620  150.4820 C   0  0  0  0  0  0  0  0  0  0  0  0
  157.8090  212.5320  153.4080 C   0  0  0  0  0  0  0  0  0  0  0  0
  161.2040  209.7520  151.6970 C   0  0  0  0  0  0  0  0  0  0  0  0
  163.1220  210.6130  157.1490 N   0  0  0  0  0  1  0  0  0  0  0  0
  160.8480  212.1800  151.4390 C   0  0  0  0  0  2  0  0  0  0  0  0
  156.5880  211.9380  153.7660 C   0  0  0  0  0  3  0  0  0  0  0  0
  156.5910  214.4440  152.5330 C   0  0  0  0  0  3  0  0  0  0  0  0
  155.3820  213.8480  152.9030 C   0  0  0  0  0  3  0  0  0  0  0  0
  159.3250  214.1680  150.9360 N   0  0  0  0  0  2  0  0  0  0  0  0
  159.8570  209.4800  153.6030 C   0  0  2  0  0  3  0  0  0  0  0  0
  160.1820  210.8070  151.5150 C   0  0  2  0  0  3  0  0  0  0  0  0
  160.1790  210.0910  154.9770 C   0  0  2  0  0  3  0  0  0  0  0  0
  161.7400  207.7800  153.2030 C   0  0  0  0  0  1  0  0  0  0  0  0
  159.1030  211.8150  153.6560 C   0  0  1  0  0  3  0  0  0  0  0  0
  1 16  1  0  0  0  0
  2  8  2  0  0  0  0
  3 17  2  0  0  0  0
  4 20  1  0  0  0  0
  5 27  1  0  0  0  0
  5 24  1  0  0  0  0
  6  1  1  0  0  0  0
  8 14  1  0  0  0  0
  8  7  2  0  0  0  0
  9 14  2  0  0  0  0
  9 18  1  0  0  0  0
 10  8  1  1  0  0  0
 11 15  2  0  0  0  0
 12 24  1  0  0  0  0
 12 28  1  0  0  0  0
 13  9  1  0  0  0  0
 15 23  1  0  0  0  0
 15 19  1  0  0  0  0
 16 28  1  0  0  0  0
 16 20  2  0  0  0  0
 17  5  1  0  0  0  0
 19 25  1  0  0  0  0
 21  1  2  0  0  0  0
 21 22  1  0  0  0  0
 22  4  2  0  0  0  0
 23  6  1  0  0  0  0
 24 26  1  0  0  0  0
 25 17  1  0  0  0  0
 25 12  1  0  0  0  0
 26 10  1  0  0  0  0
 26 13  1  0  0  0  0
 28 10  1  0  0  0  0
M  END
>  <MODEL>
2

>  <REMARK>
 VINA RESULT:      -2.0      2.578      5.669
  Name = 
  0 active torsions:
  status: ('A' for Active; 'I' for Inactive)
                            x       y       z     vdW  Elec       q    Type
                         _______ _______ _______ _____ _____    ______ ____

>  <TORSDO>
F 0

$$$$
=
 OpenBabel11122414093D

 28 32  0  0  1  0  0  0  0  0999 V2000
  160.5140  212.7070  145.5880 C   0  0  0  0  0  0  0  0  0  0  0  0
  161.2310  210.0760  147.8970 O   0  0  0  0  0  0  0  0  0  0  0  0
  156.6490  214.2540  150.4180 O   0  0  0  0  0  0  0  0  0  0  0  0
  162.6980  214.4530  145.3860 C   0  0  0  0  0  3  0  0  0  0  0  0
  158.9360  214.1540  150.9480 N   0  0  0  0  0  0  0  0  0  0  0  0
  159.3260  211.8000  145.6510 C   0  0  0  0  0  2  0  0  0  0  0  0
  163.5120  210.6930  148.5700 O   0  0  0  0  0  0  0  0  0  0  0  0
  162.0580  210.7670  148.9440 S   0  0  0  0  0  0  0  0  0  0  0  0
  160.9830  210.4730  151.3440 C   0  0  0  0  0  0  0  0  0  0  0  0
  161.5880  212.4890  149.1060 C   0  0  2  0  0  3  0  0  0  0  0  0
  156.3460  213.8430  146.2790 O   0  0  0  0  0  0  0  0  0  0  0  0
  159.8170  214.1070  148.7250 C   0  0  2  0  0  3  0  0  0  0  0  0
  160.1490  211.6790  151.0370 C   0  0  0  0  0  2  0  0  0  0  0  0
  161.8170  209.9950  150.4740 N   0  0  0  0  0  0  0  0  0  0  0  0
  157.3410  213.1180  146.5390 C   0  0  0  0  0  0  0  0  0  0  0  0
  161.0930  213.2440  146.7550 C   0  0  0  0  0  0  0  0  0  0  0  0
  157.8490  214.1570  150.0450 C   0  0  0  0  0  0  0  0  0  0  0  0
  160.8020  209.8000  152.5830 N   0  0  0  0  0  1  0  0  0  0  0  0
  157.6870  212.8370  147.9670 C   0  0  0  0  0  2  0  0  0  0  0  0
  162.1830  214.1230  146.6420 C   0  0  0  0  0  3  0  0  0  0  0  0
  161.0340  213.0470  144.3340 C   0  0  0  0  0  3  0  0  0  0  0  0
  162.1250  213.9150  144.2330 C   0  0  0  0  0  3  0  0  0  0  0  0
  158.1020  212.5660  145.4610 N   0  0  0  0  0  2  0  0  0  0  0  0
  160.1920  214.1080  150.2180 C   0  0  2  0  0  3  0  0  0  0  0  0
  158.2690  214.0850  148.6280 C   0  0  2  0  0  3  0  0  0  0  0  0
  161.0070  212.8290  150.4780 C   0  0  2  0  0  3  0  0  0  0  0  0
  158.8300  214.4440  152.3680 C   0  0  0  0  0  1  0  0  0  0  0  0
  160.5270  212.9080  148.1040 C   0  0  1  0  0  3  0  0  0  0  0  0
  1  6  1  0  0  0  0
  1 16  1  0  0  0  0
  2  8  2  0  0  0  0
  4 20  1  0  0  0  0
  5 27  1  0  0  0  0
  7  8  2  0  0  0  0
  8 14  1  0  0  0  0
  9 18  1  0  0  0  0
 10  8  1  1  0  0  0
 10 26  1  0  0  0  0
 11 15  2  0  0  0  0
 12 24  1  0  0  0  0
 13  9  1  0  0  0  0
 14  9  2  0  0  0  0
 15 19  1  0  0  0  0
 16 28  1  0  0  0  0
 17  3  2  0  0  0  0
 17  5  1  0  0  0  0
 19 25  1  0  0  0  0
 20 16  2  0  0  0  0
 21  1  2  0  0  0  0
 22 21  1  0  0  0  0
 22  4  2  0  0  0  0
 23  6  1  0  0  0  0
 23 15  1  0  0  0  0
 24 26  1  0  0  0  0
 24  5  1  0  0  0  0
 25 12  1  0  0  0  0
 25 17  1  0  0  0  0
 26 13  1  0  0  0  0
 28 12  1  0  0  0  0
 28 10  1  0  0  0  0
M  END
>  <MODEL>
3

>  <REMARK>
 VINA RESULT:      -1.4      3.715      8.002
  Name = 
  0 active torsions:
  status: ('A' for Active; 'I' for Inactive)
                            x       y       z     vdW  Elec       q    Type
                         _______ _______ _______ _____ _____    ______ ____

>  <TORSDO>
F 0

$$$$
