=
 OpenBabel11122413173D

 31 35  0  0  1  0  0  0  0  0999 V2000
  160.8750  202.2380  150.9220 C   0  0  0  0  0  0  0  0  0  0  0  0
  161.2100  205.6700  149.4090 C   0  0  0  0  0  0  0  0  0  0  0  0
  161.2590  205.5060  147.9940 C   0  0  0  0  0  0  0  0  0  0  0  0
  161.1850  208.1290  154.0770 O   0  0  0  0  0  0  0  0  0  0  0  0
  161.3040  208.9810  153.1570 C   0  0  0  0  0  0  0  0  0  0  0  0
  161.2410  204.1380  145.9710 C   0  0  0  0  0  0  0  0  0  0  0  0
  161.0860  204.6030  150.3490 C   0  0  0  0  0  0  0  0  0  0  0  0
  160.8410  202.5560  152.2780 C   0  0  0  0  0  3  0  0  0  0  0  0
  161.1880  204.2520  147.3610 C   0  0  0  0  0  3  0  0  0  0  0  0
  161.2510  207.2320  151.2930 C   0  0  0  0  0  0  0  0  0  0  0  0
  160.7910  200.9450  150.5270 F   0  0  0  0  0  0  0  0  0  0  0  0
  161.4570  207.8820  147.7400 N   0  0  0  0  0  0  0  0  0  0  0  0
  161.1500  202.5600  145.2200 Cl  0  0  0  0  0  0  0  0  0  0  0  0
  161.1320  206.1920  152.1560 N   0  0  0  0  0  0  0  0  0  0  0  0
  161.2920  206.9940  149.9140 C   0  0  0  0  0  0  0  0  0  0  0  0
  161.3360  208.5780  151.7810 N   0  0  0  0  0  2  0  0  0  0  0  0
  160.9960  203.2520  149.9700 C   0  0  0  0  0  3  0  0  0  0  0  0
  161.3650  205.2800  145.1810 C   0  0  0  0  0  3  0  0  0  0  0  0
  161.0490  204.9070  151.7340 C   0  0  0  0  0  0  0  0  0  0  0  0
  160.9280  203.8880  152.6820 C   0  0  0  0  0  3  0  0  0  0  0  0
  161.4120  208.0450  149.0600 N   0  0  0  0  0  0  0  0  0  0  0  0
  161.3850  206.6540  147.1750 C   0  0  0  0  0  0  0  0  0  0  0  0
  161.4370  206.5370  145.7830 C   0  0  0  0  0  3  0  0  0  0  0  0
  160.1350  211.0410  156.1170 C   0  0  1  0  0  3  0  0  0  0  0  0
  162.2330  210.6460  154.7950 C   0  0  0  0  0  2  0  0  0  0  0  0
  159.2700  210.8940  152.4880 O   0  0  0  0  0  1  0  0  0  0  0  0
  159.4320  210.6670  157.2600 O   0  0  0  0  0  1  0  0  0  0  0  0
  161.4460  210.2620  156.0490 C   0  0  0  0  0  2  0  0  0  0  0  0
  160.0490  211.1480  153.6180 C   0  0  2  0  0  3  0  0  0  0  0  0
  161.4070  210.4340  153.5220 C   0  0  2  0  0  3  0  0  0  0  0  0
  159.2860  210.7550  154.8820 C   0  0  0  0  0  2  0  0  0  0  0  0
  1  8  1  0  0  0  0
  2 15  1  0  0  0  0
  2  7  1  0  0  0  0
  3  2  2  0  0  0  0
  5  4  2  0  0  0  0
  6  9  2  0  0  0  0
  7 19  2  0  0  0  0
  8 20  2  0  0  0  0
  9  3  1  0  0  0  0
 10 16  1  0  0  0  0
 10 14  2  0  0  0  0
 11  1  1  0  0  0  0
 12 21  1  0  0  0  0
 13  6  1  0  0  0  0
 15 10  1  0  0  0  0
 16  5  1  0  0  0  0
 17  7  1  0  0  0  0
 17  1  2  0  0  0  0
 18 23  2  0  0  0  0
 18  6  1  0  0  0  0
 19 14  1  0  0  0  0
 19 20  1  0  0  0  0
 21 15  2  0  0  0  0
 22 12  2  0  0  0  0
 22  3  1  0  0  0  0
 23 22  1  0  0  0  0
 24 27  1  1  0  0  0
 25 28  1  0  0  0  0
 28 24  1  0  0  0  0
 29 26  1  6  0  0  0
 29 31  1  0  0  0  0
 30  5  1  1  0  0  0
 30 29  1  0  0  0  0
 30 25  1  0  0  0  0
 31 24  1  0  0  0  0
M  END
>  <MODEL>
1

>  <REMARK>
 VINA RESULT:     -10.4      0.000      0.000
  Name = 
  1 active torsions:
  status: ('A' for Active; 'I' for Inactive)
    1  A    between atoms: C_5  and  C_30
                            x       y       z     vdW  Elec       q    Type
                         _______ _______ _______ _____ _____    ______ ____

>  <TORSDO>
F 1

$$$$
=
 OpenBabel11122413173D

 31 35  0  0  1  0  0  0  0  0999 V2000
  160.9090  202.0200  150.7470 C   0  0  0  0  0  0  0  0  0  0  0  0
  161.1440  205.4640  149.2410 C   0  0  0  0  0  0  0  0  0  0  0  0
  161.1140  205.3090  147.8230 C   0  0  0  0  0  0  0  0  0  0  0  0
  161.3740  207.8930  153.9190 O   0  0  0  0  0  0  0  0  0  0  0  0
  161.4370  208.7510  152.9990 C   0  0  0  0  0  0  0  0  0  0  0  0
  160.9850  203.9540  145.7960 C   0  0  0  0  0  0  0  0  0  0  0  0
  161.0780  204.3900  150.1790 C   0  0  0  0  0  0  0  0  0  0  0  0
  160.9510  202.3300  152.1050 C   0  0  0  0  0  3  0  0  0  0  0  0
  161.0120  204.0590  147.1880 C   0  0  0  0  0  3  0  0  0  0  0  0
  161.2850  207.0140  151.1300 C   0  0  0  0  0  0  0  0  0  0  0  0
  160.8090  200.7300  150.3480 F   0  0  0  0  0  0  0  0  0  0  0  0
  161.2860  207.6870  147.5750 N   0  0  0  0  0  0  0  0  0  0  0  0
  160.8590  202.3810  145.0410 Cl  0  0  0  0  0  0  0  0  0  0  0  0
  161.2200  205.9680  151.9910 N   0  0  0  0  0  0  0  0  0  0  0  0
  161.2490  206.7850  149.7480 C   0  0  0  0  0  0  0  0  0  0  0  0
  161.3920  208.3570  151.6210 N   0  0  0  0  0  2  0  0  0  0  0  0
  160.9720  203.0410  149.7960 C   0  0  0  0  0  3  0  0  0  0  0  0
  161.0600  205.1020  145.0080 C   0  0  0  0  0  3  0  0  0  0  0  0
  161.1190  204.6850  151.5650 C   0  0  0  0  0  0  0  0  0  0  0  0
  161.0560  203.6600  152.5120 C   0  0  0  0  0  3  0  0  0  0  0  0
  161.3160  207.8420  148.8960 N   0  0  0  0  0  0  0  0  0  0  0  0
  161.1880  206.4630  147.0070 C   0  0  0  0  0  0  0  0  0  0  0  0
  161.1610  206.3550  145.6130 C   0  0  0  0  0  3  0  0  0  0  0  0
  158.9520  211.4040  154.0740 C   0  0  1  0  0  3  0  0  0  0  0  0
  161.1530  210.4560  154.8230 C   0  0  0  0  0  2  0  0  0  0  0  0
  161.1190  210.8650  151.0820 O   0  0  0  0  0  1  0  0  0  0  0  0
  157.5710  211.3330  154.2510 O   0  0  0  0  0  1  0  0  0  0  0  0
  159.6350  210.4080  155.0060 C   0  0  0  0  0  2  0  0  0  0  0  0
  160.8050  211.1470  152.4130 C   0  0  2  0  0  3  0  0  0  0  0  0
  161.5550  210.2020  153.3670 C   0  0  2  0  0  3  0  0  0  0  0  0
  159.2930  211.0870  152.6200 C   0  0  0  0  0  2  0  0  0  0  0  0
  1  8  1  0  0  0  0
  2 15  1  0  0  0  0
  2  7  1  0  0  0  0
  3  2  2  0  0  0  0
  5  4  2  0  0  0  0
  6  9  2  0  0  0  0
  7 19  2  0  0  0  0
  8 20  2  0  0  0  0
  9  3  1  0  0  0  0
 10 16  1  0  0  0  0
 10 14  2  0  0  0  0
 11  1  1  0  0  0  0
 12 21  1  0  0  0  0
 13  6  1  0  0  0  0
 15 10  1  0  0  0  0
 16  5  1  0  0  0  0
 17  7  1  0  0  0  0
 17  1  2  0  0  0  0
 18 23  2  0  0  0  0
 18  6  1  0  0  0  0
 19 14  1  0  0  0  0
 19 20  1  0  0  0  0
 21 15  2  0  0  0  0
 22 12  2  0  0  0  0
 22  3  1  0  0  0  0
 23 22  1  0  0  0  0
 24 27  1  6  0  0  0
 24 28  1  0  0  0  0
 25 28  1  0  0  0  0
 29 26  1  6  0  0  0
 29 31  1  0  0  0  0
 29 30  1  0  0  0  0
 30  5  1  6  0  0  0
 30 25  1  0  0  0  0
 31 24  1  0  0  0  0
M  END
>  <MODEL>
2

>  <REMARK>
 VINA RESULT:     -10.3      0.935      1.125
  Name = 
  1 active torsions:
  status: ('A' for Active; 'I' for Inactive)
    1  A    between atoms: C_5  and  C_30
                            x       y       z     vdW  Elec       q    Type
                         _______ _______ _______ _____ _____    ______ ____

>  <TORSDO>
F 1

$$$$
=
 OpenBabel11122413173D

 31 35  0  0  1  0  0  0  0  0999 V2000
  161.6620  206.8680  147.1710 C   0  0  0  0  0  0  0  0  0  0  0  0
  161.2250  205.1800  150.5080 C   0  0  0  0  0  0  0  0  0  0  0  0
  161.0970  203.7810  150.2620 C   0  0  0  0  0  0  0  0  0  0  0  0
  161.5020  209.6880  153.2360 O   0  0  0  0  0  0  0  0  0  0  0  0
  161.3270  208.7280  154.0330 C   0  0  0  0  0  0  0  0  0  0  0  0
  161.0080  201.8440  148.7780 C   0  0  0  0  0  0  0  0  0  0  0  0
  161.4070  206.1720  149.4980 C   0  0  0  0  0  0  0  0  0  0  0  0
  161.7710  208.2000  147.5680 C   0  0  0  0  0  3  0  0  0  0  0  0
  161.1380  203.2200  148.9730 C   0  0  0  0  0  3  0  0  0  0  0  0
  161.2830  206.9690  152.1780 C   0  0  0  0  0  0  0  0  0  0  0  0
  161.7290  206.5450  145.8580 F   0  0  0  0  0  0  0  0  0  0  0  0
  160.8740  203.4020  152.6190 N   0  0  0  0  0  0  0  0  0  0  0  0
  161.0640  201.1820  147.1600 Cl  0  0  0  0  0  0  0  0  0  0  0  0
  161.4560  207.8830  151.1900 N   0  0  0  0  0  0  0  0  0  0  0  0
  161.1650  205.6100  151.8590 C   0  0  0  0  0  0  0  0  0  0  0  0
  161.2200  207.3820  153.5500 N   0  0  0  0  0  2  0  0  0  0  0  0
  161.4820  205.8670  148.1280 C   0  0  0  0  0  3  0  0  0  0  0  0
  160.8340  200.9970  149.8720 C   0  0  0  0  0  3  0  0  0  0  0  0
  161.5210  207.5320  149.8830 C   0  0  0  0  0  0  0  0  0  0  0  0
  161.7000  208.5300  148.9210 C   0  0  0  0  0  3  0  0  0  0  0  0
  160.9930  204.7040  152.8590 N   0  0  0  0  0  0  0  0  0  0  0  0
  160.9200  202.9060  151.3600 C   0  0  0  0  0  0  0  0  0  0  0  0
  160.7900  201.5280  151.1620 C   0  0  0  0  0  3  0  0  0  0  0  0
  159.4980  211.3210  156.1050 C   0  0  1  0  0  3  0  0  0  0  0  0
  159.8120  208.8310  156.0350 C   0  0  0  0  0  2  0  0  0  0  0  0
  163.0800  210.5740  155.3620 O   0  0  0  0  0  1  0  0  0  0  0  0
  158.6620  212.3670  155.7160 O   0  0  0  0  0  1  0  0  0  0  0  0
  158.9070  209.9960  155.6310 C   0  0  0  0  0  2  0  0  0  0  0  0
  161.8090  210.3830  155.9080 C   0  0  2  0  0  3  0  0  0  0  0  0
  161.2380  209.0120  155.5040 C   0  0  2  0  0  3  0  0  0  0  0  0
  160.8840  211.5280  155.5010 C   0  0  0  0  0  2  0  0  0  0  0  0
  1  8  2  0  0  0  0
  1 17  1  0  0  0  0
  2 15  1  0  0  0  0
  3  2  2  0  0  0  0
  3 22  1  0  0  0  0
  4  5  2  0  0  0  0
  6  9  2  0  0  0  0
  6 18  1  0  0  0  0
  7 19  1  0  0  0  0
  7  2  1  0  0  0  0
  8 20  1  0  0  0  0
  9  3  1  0  0  0  0
 10 16  1  0  0  0  0
 11  1  1  0  0  0  0
 12 21  1  0  0  0  0
 13  6  1  0  0  0  0
 14 10  2  0  0  0  0
 15 10  1  0  0  0  0
 15 21  2  0  0  0  0
 16  5  1  0  0  0  0
 17  7  2  0  0  0  0
 18 23  2  0  0  0  0
 19 14  1  0  0  0  0
 20 19  2  0  0  0  0
 22 12  2  0  0  0  0
 23 22  1  0  0  0  0
 24 27  1  6  0  0  0
 28 25  1  0  0  0  0
 28 24  1  0  0  0  0
 29 26  1  6  0  0  0
 30  5  1  6  0  0  0
 30 29  1  0  0  0  0
 30 25  1  0  0  0  0
 31 29  1  0  0  0  0
 31 24  1  0  0  0  0
M  END
>  <MODEL>
3

>  <REMARK>
 VINA RESULT:     -10.1      2.084      4.091
  Name = 
  1 active torsions:
  status: ('A' for Active; 'I' for Inactive)
    1  A    between atoms: C_5  and  C_30
                            x       y       z     vdW  Elec       q    Type
                         _______ _______ _______ _____ _____    ______ ____

>  <TORSDO>
F 1

$$$$
=
 OpenBabel11122413173D

 31 35  0  0  1  0  0  0  0  0999 V2000
  161.8340  206.8120  147.1870 C   0  0  0  0  0  0  0  0  0  0  0  0
  161.2800  205.6820  150.7360 C   0  0  0  0  0  0  0  0  0  0  0  0
  161.1320  204.2640  150.7110 C   0  0  0  0  0  0  0  0  0  0  0  0
  161.5720  210.5610  152.7220 O   0  0  0  0  0  0  0  0  0  0  0  0
  161.3590  209.7430  153.6550 C   0  0  0  0  0  0  0  0  0  0  0  0
  161.0440  202.1170  149.5510 C   0  0  0  0  0  0  0  0  0  0  0  0
  161.5060  206.4980  149.5870 C   0  0  0  0  0  0  0  0  0  0  0  0
  161.9580  208.1880  147.3710 C   0  0  0  0  0  3  0  0  0  0  0  0
  161.1950  203.5040  149.5290 C   0  0  0  0  0  3  0  0  0  0  0  0
  161.3290  207.7130  152.1020 C   0  0  0  0  0  0  0  0  0  0  0  0
  161.9290  206.2830  145.9440 F   0  0  0  0  0  0  0  0  0  0  0  0
  160.8420  204.2670  153.0910 N   0  0  0  0  0  0  0  0  0  0  0  0
  161.1290  201.2050  148.0600 Cl  0  0  0  0  0  0  0  0  0  0  0  0
  161.5450  208.4550  150.9870 N   0  0  0  0  0  0  0  0  0  0  0  0
  161.1940  206.3220  152.0000 C   0  0  0  0  0  0  0  0  0  0  0  0
  161.2390  208.3390  153.3890 N   0  0  0  0  0  2  0  0  0  0  0  0
  161.6110  205.9780  148.2850 C   0  0  0  0  0  3  0  0  0  0  0  0
  160.8260  201.4570  150.7600 C   0  0  0  0  0  3  0  0  0  0  0  0
  161.6360  207.9000  149.7550 C   0  0  0  0  0  0  0  0  0  0  0  0
  161.8590  208.7300  148.6520 C   0  0  0  0  0  3  0  0  0  0  0  0
  160.9780  205.5890  153.1250 N   0  0  0  0  0  0  0  0  0  0  0  0
  160.9100  203.5770  151.9280 C   0  0  0  0  0  0  0  0  0  0  0  0
  160.7590  202.1870  151.9480 C   0  0  0  0  0  3  0  0  0  0  0  0
  160.3610  208.1740  156.9580 C   0  0  1  0  0  3  0  0  0  0  0  0
  162.2210  209.5680  156.0090 C   0  0  0  0  0  2  0  0  0  0  0  0
  158.9000  210.7780  154.7170 O   0  0  0  0  0  1  0  0  0  0  0  0
  159.9650  206.8720  157.2610 O   0  0  0  0  0  1  0  0  0  0  0  0
  161.7660  208.1510  156.3610 C   0  0  0  0  0  2  0  0  0  0  0  0
  159.8050  210.2120  155.6170 C   0  0  2  0  0  3  0  0  0  0  0  0
  161.2370  210.2590  155.0600 C   0  0  2  0  0  3  0  0  0  0  0  0
  159.3760  208.7880  155.9680 C   0  0  0  0  0  2  0  0  0  0  0  0
  1  8  2  0  0  0  0
  1 17  1  0  0  0  0
  2 15  1  0  0  0  0
  3  2  2  0  0  0  0
  3 22  1  0  0  0  0
  4  5  2  0  0  0  0
  6 18  1  0  0  0  0
  7 19  1  0  0  0  0
  7  2  1  0  0  0  0
  8 20  1  0  0  0  0
  9  6  2  0  0  0  0
  9  3  1  0  0  0  0
 10 16  1  0  0  0  0
 11  1  1  0  0  0  0
 12 21  1  0  0  0  0
 13  6  1  0  0  0  0
 14 10  2  0  0  0  0
 15 10  1  0  0  0  0
 15 21  2  0  0  0  0
 16  5  1  0  0  0  0
 17  7  2  0  0  0  0
 18 23  2  0  0  0  0
 19 14  1  0  0  0  0
 20 19  2  0  0  0  0
 22 23  1  0  0  0  0
 22 12  2  0  0  0  0
 24 27  1  6  0  0  0
 25 28  1  0  0  0  0
 28 24  1  0  0  0  0
 29 26  1  6  0  0  0
 29 31  1  0  0  0  0
 30  5  1  6  0  0  0
 30 29  1  0  0  0  0
 30 25  1  0  0  0  0
 31 24  1  0  0  0  0
M  END
>  <MODEL>
4

>  <REMARK>
 VINA RESULT:      -9.5      2.084      4.127
  Name = 
  1 active torsions:
  status: ('A' for Active; 'I' for Inactive)
    1  A    between atoms: C_5  and  C_30
                            x       y       z     vdW  Elec       q    Type
                         _______ _______ _______ _____ _____    ______ ____

>  <TORSDO>
F 1

$$$$
=
 OpenBabel11122413173D

 31 35  0  0  1  0  0  0  0  0999 V2000
  161.0110  202.0530  150.9040 C   0  0  0  0  0  0  0  0  0  0  0  0
  161.1500  205.5920  149.6250 C   0  0  0  0  0  0  0  0  0  0  0  0
  161.2930  205.5250  148.2080 C   0  0  0  0  0  0  0  0  0  0  0  0
  160.6590  207.7320  154.4230 O   0  0  0  0  0  0  0  0  0  0  0  0
  160.7600  208.6480  153.5650 C   0  0  0  0  0  0  0  0  0  0  0  0
  161.5010  204.2940  146.1090 C   0  0  0  0  0  0  0  0  0  0  0  0
  161.0610  204.4590  150.4890 C   0  0  0  0  0  0  0  0  0  0  0  0
  160.8750  202.2780  152.2720 C   0  0  0  0  0  3  0  0  0  0  0  0
  161.3600  204.3130  147.4980 C   0  0  0  0  0  3  0  0  0  0  0  0
  160.9560  207.0260  151.5990 C   0  0  0  0  0  0  0  0  0  0  0  0
  161.0560  200.7860  150.4270 F   0  0  0  0  0  0  0  0  0  0  0  0
  161.3090  207.9210  148.1120 N   0  0  0  0  0  0  0  0  0  0  0  0
  161.5820  202.7670  145.2600 Cl  0  0  0  0  0  0  0  0  0  0  0  0
  160.8730  205.9260  152.3890 N   0  0  0  0  0  0  0  0  0  0  0  0
  161.0950  206.8830  150.2130 C   0  0  0  0  0  0  0  0  0  0  0  0
  160.9020  208.3400  152.1720 N   0  0  0  0  0  2  0  0  0  0  0  0
  161.1030  203.1330  150.0240 C   0  0  0  0  0  3  0  0  0  0  0  0
  161.5750  205.4930  145.3990 C   0  0  0  0  0  3  0  0  0  0  0  0
  160.9200  204.6690  151.8850 C   0  0  0  0  0  0  0  0  0  0  0  0
  160.8300  203.5840  152.7610 C   0  0  0  0  0  3  0  0  0  0  0  0
  161.1760  207.9930  149.4330 N   0  0  0  0  0  0  0  0  0  0  0  0
  161.3700  206.7300  147.4700 C   0  0  0  0  0  0  0  0  0  0  0  0
  161.5100  206.7090  146.0790 C   0  0  0  0  0  3  0  0  0  0  0  0
  162.5270  210.5810  156.3060 C   0  0  1  0  0  3  0  0  0  0  0  0
  162.0770  210.7700  153.8430 C   0  0  0  0  0  2  0  0  0  0  0  0
  158.9970  209.5660  155.6380 O   0  0  0  0  0  1  0  0  0  0  0  0
  163.4560  210.1610  157.2570 O   0  0  0  0  0  1  0  0  0  0  0  0
  163.0830  210.3280  154.9070 C   0  0  0  0  0  2  0  0  0  0  0  0
  160.1960  210.2580  155.4570 C   0  0  2  0  0  3  0  0  0  0  0  0
  160.7230  210.0780  154.0230 C   0  0  2  0  0  3  0  0  0  0  0  0
  161.2200  209.8180  156.5000 C   0  0  0  0  0  2  0  0  0  0  0  0
  1  8  1  0  0  0  0
  2 15  1  0  0  0  0
  2  7  1  0  0  0  0
  3  2  2  0  0  0  0
  5  4  2  0  0  0  0
  6  9  2  0  0  0  0
  7 19  2  0  0  0  0
  8 20  2  0  0  0  0
  9  3  1  0  0  0  0
 10 16  1  0  0  0  0
 10 14  2  0  0  0  0
 11  1  1  0  0  0  0
 12 21  1  0  0  0  0
 13  6  1  0  0  0  0
 15 10  1  0  0  0  0
 16  5  1  0  0  0  0
 17  7  1  0  0  0  0
 17  1  2  0  0  0  0
 18 23  2  0  0  0  0
 18  6  1  0  0  0  0
 19 14  1  0  0  0  0
 19 20  1  0  0  0  0
 21 15  2  0  0  0  0
 22 12  2  0  0  0  0
 22  3  1  0  0  0  0
 23 22  1  0  0  0  0
 24 31  1  0  0  0  0
 24 27  1  1  0  0  0
 25 30  1  0  0  0  0
 25 28  1  0  0  0  0
 28 24  1  0  0  0  0
 29 26  1  6  0  0  0
 29 31  1  0  0  0  0
 30  5  1  1  0  0  0
 30 29  1  0  0  0  0
M  END
>  <MODEL>
5

>  <REMARK>
 VINA RESULT:      -8.5      0.975      1.334
  Name = 
  1 active torsions:
  status: ('A' for Active; 'I' for Inactive)
    1  A    between atoms: C_5  and  C_30
                            x       y       z     vdW  Elec       q    Type
                         _______ _______ _______ _____ _____    ______ ____

>  <TORSDO>
F 1

$$$$
=
 OpenBabel11122413173D

 31 35  0  0  1  0  0  0  0  0999 V2000
  161.5860  203.9610  146.0090 C   0  0  0  0  0  0  0  0  0  0  0  0
  161.4080  205.7360  149.3250 C   0  0  0  0  0  0  0  0  0  0  0  0
  161.2140  204.7420  150.3280 C   0  0  0  0  0  0  0  0  0  0  0  0
  162.0780  210.5240  147.2120 O   0  0  0  0  0  0  0  0  0  0  0  0
  161.9480  210.6330  148.4600 C   0  0  0  0  0  0  0  0  0  0  0  0
  160.9270  202.4280  151.0560 C   0  0  0  0  0  0  0  0  0  0  0  0
  161.5270  205.4710  147.9280 C   0  0  0  0  0  0  0  0  0  0  0  0
  161.7730  205.0410  145.1480 C   0  0  0  0  0  3  0  0  0  0  0  0
  161.1180  203.3680  150.0420 C   0  0  0  0  0  3  0  0  0  0  0  0
  161.6770  208.1170  148.8270 C   0  0  0  0  0  0  0  0  0  0  0  0
  161.5210  202.7020  145.5130 F   0  0  0  0  0  0  0  0  0  0  0  0
  161.1990  206.4560  152.0040 N   0  0  0  0  0  0  0  0  0  0  0  0
  160.8120  200.7280  150.6610 Cl  0  0  0  0  0  0  0  0  0  0  0  0
  161.7860  207.8270  147.5060 N   0  0  0  0  0  0  0  0  0  0  0  0
  161.4880  207.0860  149.7550 C   0  0  0  0  0  0  0  0  0  0  0  0
  161.7550  209.4750  149.2830 N   0  0  0  0  0  2  0  0  0  0  0  0
  161.4650  204.1760  147.3830 C   0  0  0  0  0  3  0  0  0  0  0  0
  160.8290  202.8440  152.3840 C   0  0  0  0  0  3  0  0  0  0  0  0
  161.7180  206.5570  147.0360 C   0  0  0  0  0  0  0  0  0  0  0  0
  161.8380  206.3360  145.6620 C   0  0  0  0  0  3  0  0  0  0  0  0
  161.3800  207.3910  151.0760 N   0  0  0  0  0  0  0  0  0  0  0  0
  161.1120  205.1440  151.6810 C   0  0  0  0  0  0  0  0  0  0  0  0
  160.9220  204.2010  152.6950 C   0  0  0  0  0  3  0  0  0  0  0  0
  160.6810  214.0490  147.4160 C   0  0  1  0  0  3  0  0  0  0  0  0
  160.6080  212.5320  149.4150 C   0  0  0  0  0  2  0  0  0  0  0  0
  164.0480  212.5060  147.8880 O   0  0  0  0  0  1  0  0  0  0  0  0
  159.9880  214.4490  146.2740 O   0  0  0  0  0  1  0  0  0  0  0  0
  159.8650  212.9980  148.1620 C   0  0  0  0  0  2  0  0  0  0  0  0
  162.8030  213.0230  148.2540 C   0  0  2  0  0  3  0  0  0  0  0  0
  162.0050  212.0000  149.0790 C   0  0  2  0  0  3  0  0  0  0  0  0
  162.0370  213.4780  147.0130 C   0  0  0  0  0  2  0  0  0  0  0  0
  1 17  1  0  0  0  0
  2 15  2  0  0  0  0
  2  3  1  0  0  0  0
  3 22  1  0  0  0  0
  4  5  2  0  0  0  0
  5 16  1  0  0  0  0
  6 18  2  0  0  0  0
  7  2  1  0  0  0  0
  8 20  1  0  0  0  0
  8  1  2  0  0  0  0
  9  3  2  0  0  0  0
  9  6  1  0  0  0  0
 10 16  1  0  0  0  0
 10 15  1  0  0  0  0
 11  1  1  0  0  0  0
 13  6  1  0  0  0  0
 14 10  2  0  0  0  0
 15 21  1  0  0  0  0
 17  7  2  0  0  0  0
 18 23  1  0  0  0  0
 19 14  1  0  0  0  0
 19  7  1  0  0  0  0
 20 19  2  0  0  0  0
 21 12  2  0  0  0  0
 22 12  1  0  0  0  0
 22 23  2  0  0  0  0
 24 27  1  6  0  0  0
 24 28  1  0  0  0  0
 28 25  1  0  0  0  0
 29 26  1  6  0  0  0
 29 30  1  0  0  0  0
 30  5  1  6  0  0  0
 30 25  1  0  0  0  0
 31 24  1  0  0  0  0
 31 29  1  0  0  0  0
M  END
>  <MODEL>
6

>  <REMARK>
 VINA RESULT:      -7.8      3.962      5.894
  Name = 
  1 active torsions:
  status: ('A' for Active; 'I' for Inactive)
    1  A    between atoms: C_5  and  C_30
                            x       y       z     vdW  Elec       q    Type
                         _______ _______ _______ _____ _____    ______ ____

>  <TORSDO>
F 1

$$$$
=
 OpenBabel11122413173D

 31 35  0  0  1  0  0  0  0  0999 V2000
  161.0720  203.2390  150.9690 C   0  0  0  0  0  0  0  0  0  0  0  0
  161.4340  206.9660  151.3630 C   0  0  0  0  0  0  0  0  0  0  0  0
  161.7200  207.5030  150.0730 C   0  0  0  0  0  0  0  0  0  0  0  0
  160.5060  206.8760  156.5560 O   0  0  0  0  0  0  0  0  0  0  0  0
  160.7190  208.0620  156.1900 C   0  0  0  0  0  0  0  0  0  0  0  0
  162.1120  207.2770  147.6730 C   0  0  0  0  0  0  0  0  0  0  0  0
  161.2260  205.5820  151.6420 C   0  0  0  0  0  0  0  0  0  0  0  0
  160.8000  202.8660  152.2840 C   0  0  0  0  0  3  0  0  0  0  0  0
  161.8290  206.7090  148.9170 C   0  0  0  0  0  3  0  0  0  0  0  0
  161.0740  207.4280  153.7400 C   0  0  0  0  0  0  0  0  0  0  0  0
  161.1320  202.2980  149.9970 F   0  0  0  0  0  0  0  0  0  0  0  0
  161.8090  209.7020  151.0240 N   0  0  0  0  0  0  0  0  0  0  0  0
  162.2400  206.2590  146.2570 Cl  0  0  0  0  0  0  0  0  0  0  0  0
  160.8820  206.1040  153.9660 N   0  0  0  0  0  0  0  0  0  0  0  0
  161.3520  207.8820  152.4440 C   0  0  0  0  0  0  0  0  0  0  0  0
  160.9960  208.3710  154.8180 N   0  0  0  0  0  2  0  0  0  0  0  0
  161.2820  204.5830  150.6540 C   0  0  0  0  0  3  0  0  0  0  0  0
  162.2900  208.6560  147.5590 C   0  0  0  0  0  3  0  0  0  0  0  0
  160.9480  205.1830  152.9740 C   0  0  0  0  0  0  0  0  0  0  0  0
  160.7390  203.8370  153.2840 C   0  0  0  0  0  3  0  0  0  0  0  0
  161.5420  209.2110  152.2310 N   0  0  0  0  0  0  0  0  0  0  0  0
  161.9050  208.8990  149.9380 C   0  0  0  0  0  0  0  0  0  0  0  0
  162.1870  209.4660  148.6910 C   0  0  0  0  0  3  0  0  0  0  0  0
  160.2200  211.8160  156.0120 C   0  0  1  0  0  3  0  0  0  0  0  0
  159.3010  209.8400  157.2610 C   0  0  0  0  0  2  0  0  0  0  0  0
  163.0430  209.5630  156.9600 O   0  0  0  0  0  1  0  0  0  0  0  0
  160.0210  212.6520  154.9160 O   0  0  0  0  0  1  0  0  0  0  0  0
  159.1000  210.7800  156.0710 C   0  0  0  0  0  2  0  0  0  0  0  0
  161.8010  210.1920  157.0730 C   0  0  2  0  0  3  0  0  0  0  0  0
  160.6720  209.1570  157.2170 C   0  0  2  0  0  3  0  0  0  0  0  0
  161.5740  211.1230  155.8840 C   0  0  0  0  0  2  0  0  0  0  0  0
  1  8  1  0  0  0  0
  2  7  1  0  0  0  0
  2 15  1  0  0  0  0
  3  2  2  0  0  0  0
  5  4  2  0  0  0  0
  6  9  2  0  0  0  0
  7 19  2  0  0  0  0
  8 20  2  0  0  0  0
  9  3  1  0  0  0  0
 10 14  2  0  0  0  0
 10 16  1  0  0  0  0
 11  1  1  0  0  0  0
 12 21  1  0  0  0  0
 13  6  1  0  0  0  0
 15 10  1  0  0  0  0
 16  5  1  0  0  0  0
 17  1  2  0  0  0  0
 17  7  1  0  0  0  0
 18  6  1  0  0  0  0
 18 23  2  0  0  0  0
 19 20  1  0  0  0  0
 19 14  1  0  0  0  0
 21 15  2  0  0  0  0
 22  3  1  0  0  0  0
 22 12  2  0  0  0  0
 23 22  1  0  0  0  0
 24 27  1  6  0  0  0
 24 28  1  0  0  0  0
 28 25  1  0  0  0  0
 29 26  1  6  0  0  0
 29 30  1  0  0  0  0
 30  5  1  6  0  0  0
 30 25  1  0  0  0  0
 31 24  1  0  0  0  0
 31 29  1  0  0  0  0
M  END
>  <MODEL>
7

>  <REMARK>
 VINA RESULT:      -7.5      2.097      3.043
  Name = 
  1 active torsions:
  status: ('A' for Active; 'I' for Inactive)
    1  A    between atoms: C_5  and  C_30
                            x       y       z     vdW  Elec       q    Type
                         _______ _______ _______ _____ _____    ______ ____

>  <TORSDO>
F 1

$$$$
