=
 OpenBabel11122414213D

 34 40  0  0  1  0  0  0  0  0999 V2000
  161.2220  205.2400  151.0810 C   0  0  2  0  0  3  0  0  0  0  0  0
  160.9040  206.3880  153.5670 S   0  0  0  0  0  0  0  0  0  0  0  0
  161.0090  205.4080  144.6220 C   0  0  0  0  0  0  0  0  0  0  0  0
  161.6180  204.1920  148.7970 C   0  0  0  0  0  0  0  0  0  0  0  0
  162.1330  205.6910  146.8330 C   0  0  1  0  0  3  0  0  0  0  0  0
  159.7260  205.8560  146.5710 O   0  0  0  0  0  1  0  0  0  0  0  0
  161.0850  206.1060  143.5780 O   0  0  0  0  0  0  0  0  0  0  0  0
  160.8500  203.1220  145.6070 C   0  0  0  0  0  2  0  0  0  0  0  0
  160.6220  207.7460  151.2080 C   0  0  2  0  0  3  0  0  0  0  0  0
  162.3440  210.5250  151.4540 C   0  0  0  0  0  2  0  0  0  0  0  0
  162.4400  206.7270  147.9150 C   0  0  0  0  0  2  0  0  0  0  0  0
  162.0640  203.1980  146.5210 C   0  0  0  0  0  2  0  0  0  0  0  0
  161.6520  207.8110  150.0600 C   0  0  1  0  0  3  0  0  0  0  0  0
  160.3310  208.0990  153.6270 C   0  0  0  0  0  2  0  0  0  0  0  0
  161.9510  204.3540  147.4050 N   0  0  0  0  0  0  0  0  0  0  0  0
  160.9920  204.0130  144.5030 O   0  0  0  0  0  0  0  0  0  0  0  0
  162.2080  209.3820  152.4550 C   0  0  2  0  0  3  0  0  0  0  0  0
  161.0250  205.3590  149.5660 C   0  0  2  0  0  3  0  0  0  0  0  0
  160.9520  206.1020  145.9470 C   0  0  2  0  0  3  0  0  0  0  0  0
  161.3440  206.7590  148.9850 C   0  0  2  0  0  3  0  0  0  0  0  0
  161.5760  202.7810  150.8720 C   0  0  0  0  0  2  0  0  0  0  0  0
  162.7610  210.0340  150.0770 C   0  0  0  0  0  2  0  0  0  0  0  0
  161.7870  203.0020  149.3980 C   0  0  0  0  0  3  0  0  0  0  0  0
  161.6690  209.1980  149.4330 C   0  0  0  0  0  2  0  0  0  0  0  0
  160.7880  208.7790  152.3440 C   0  0  1  0  0  3  0  0  0  0  0  0
  160.7180  203.8680  151.5120 C   0  0  0  0  0  2  0  0  0  0  0  0
  160.4470  206.3390  151.8110 C   0  0  1  0  0  3  0  0  0  0  0  0
  162.4930  209.9430  153.8440 C   0  0  0  0  0  2  0  0  0  0  0  0
  161.5280  211.0720  154.1640 C   0  0  0  0  0  2  0  0  0  0  0  0
  159.6410  210.2220  157.2160 C   0  0  0  0  0  2  0  0  0  0  0  0
  162.1040  209.7570  156.5100 S   0  0  0  0  0  0  0  0  0  0  0  0
  161.2330  211.1050  155.6510 C   0  0  2  0  0  3  0  0  0  0  0  0
  160.6180  209.1490  157.2610 N   0  0  0  0  0  2  0  0  0  0  0  0
  159.7590  210.9030  155.8790 C   0  0  0  0  0  2  0  0  0  0  0  0
  1 26  1  1  0  0  0
  1 27  1  0  0  0  0
  2 14  1  0  0  0  0
  3 19  1  0  0  0  0
  4 23  2  0  0  0  0
  4 18  1  0  0  0  0
  5 15  1  0  0  0  0
  5 11  1  1  0  0  0
  7  3  2  0  0  0  0
  8 12  1  0  0  0  0
  9 27  1  0  0  0  0
  9 25  1  0  0  0  0
 10 17  1  0  0  0  0
 11 20  1  0  0  0  0
 12 15  1  0  0  0  0
 13  9  1  0  0  0  0
 15  4  1  0  0  0  0
 16  3  1  0  0  0  0
 16  8  1  0  0  0  0
 17 28  1  0  0  0  0
 18  1  1  0  0  0  0
 19  6  1  0  0  0  0
 19  5  1  0  0  0  0
 20 18  1  0  0  0  0
 20 13  1  0  0  0  0
 21 26  1  0  0  0  0
 22 10  1  0  0  0  0
 23 21  1  0  0  0  0
 24 13  1  0  0  0  0
 24 22  1  0  0  0  0
 25 17  1  0  0  0  0
 25 14  1  0  0  0  0
 27  2  1  0  0  0  0
 28 29  1  0  0  0  0
 29 32  1  0  0  0  0
 30 33  1  0  0  0  0
 31 33  1  0  0  0  0
 32 34  1  0  0  0  0
 32 31  1  0  0  0  0
 34 30  1  0  0  0  0
M  END
>  <MODEL>
1

>  <REMARK>
 VINA RESULT:      -6.1      0.000      0.000
  Name = 
  3 active torsions:
  status: ('A' for Active; 'I' for Inactive)
    1  A    between atoms: C_17  and  C_28
    2  A    between atoms: C_28  and  C_29
    3  A    between atoms: C_29  and  C_32
                            x       y       z     vdW  Elec       q    Type
                         _______ _______ _______ _____ _____    ______ ____

>  <TORSDO>
F 3

$$$$
=
 OpenBabel11122414213D

 34 40  0  0  1  0  0  0  0  0999 V2000
  160.9620  210.8740  151.2430 C   0  0  2  0  0  3  0  0  0  0  0  0
  162.0640  211.0690  148.7240 S   0  0  0  0  0  0  0  0  0  0  0  0
  157.8400  213.3390  156.3390 C   0  0  0  0  0  0  0  0  0  0  0  0
  159.8650  210.6420  153.5270 C   0  0  0  0  0  0  0  0  0  0  0  0
  157.9570  212.1800  154.1320 C   0  0  1  0  0  3  0  0  0  0  0  0
  159.6810  213.7140  154.8830 O   0  0  0  0  0  1  0  0  0  0  0  0
  157.0170  214.1900  156.7660 O   0  0  0  0  0  0  0  0  0  0  0  0
  159.2460  211.3440  156.8490 C   0  0  0  0  0  2  0  0  0  0  0  0
  160.6390  213.0700  149.9300 C   0  0  2  0  0  3  0  0  0  0  0  0
  158.4380  214.1630  147.7590 C   0  0  0  0  0  2  0  0  0  0  0  0
  157.8980  212.4290  152.6240 C   0  0  0  0  0  2  0  0  0  0  0  0
  158.7140  210.4220  155.7610 C   0  0  0  0  0  2  0  0  0  0  0  0
  159.2240  212.9510  150.5350 C   0  0  1  0  0  3  0  0  0  0  0  0
  161.9600  212.6680  147.8910 C   0  0  0  0  0  2  0  0  0  0  0  0
  158.8480  211.0630  154.4570 N   0  0  0  0  0  0  0  0  0  0  0  0
  158.2750  212.3250  157.2010 O   0  0  0  0  0  0  0  0  0  0  0  0
  159.4400  213.0210  147.6260 C   0  0  2  0  0  3  0  0  0  0  0  0
  160.3190  211.5930  152.4340 C   0  0  2  0  0  3  0  0  0  0  0  0
  158.3090  213.4450  154.9220 C   0  0  2  0  0  3  0  0  0  0  0  0
  159.2930  212.6860  152.0450 C   0  0  2  0  0  3  0  0  0  0  0  0
  161.4230  208.8750  152.6620 C   0  0  0  0  0  2  0  0  0  0  0  0
  157.5860  214.0340  149.0130 C   0  0  0  0  0  2  0  0  0  0  0  0
  160.4410  209.4360  153.6560 C   0  0  0  0  0  3  0  0  0  0  0  0
  158.4190  214.2150  150.2690 C   0  0  0  0  0  2  0  0  0  0  0  0
  160.7200  213.3770  148.4180 C   0  0  1  0  0  3  0  0  0  0  0  0
  162.0510  209.9550  151.7850 C   0  0  0  0  0  2  0  0  0  0  0  0
  161.5640  211.8850  150.2670 C   0  0  1  0  0  3  0  0  0  0  0  0
  159.7160  212.8160  146.1400 C   0  0  0  0  0  2  0  0  0  0  0  0
  159.8330  214.1570  145.4360 C   0  0  0  0  0  2  0  0  0  0  0  0
  161.9690  212.4650  142.9500 C   0  0  0  0  0  2  0  0  0  0  0  0
  159.4240  213.0180  142.9660 S   0  0  0  0  0  0  0  0  0  0  0  0
  160.4920  213.9830  144.0810 C   0  0  2  0  0  3  0  0  0  0  0  0
  160.7030  211.8450  142.6050 N   0  0  0  0  0  2  0  0  0  0  0  0
  161.7800  213.2220  144.2380 C   0  0  0  0  0  2  0  0  0  0  0  0
  1 26  1  1  0  0  0
  1 18  1  0  0  0  0
  2 27  1  0  0  0  0
  3  7  2  0  0  0  0
  3 16  1  0  0  0  0
  4 23  2  0  0  0  0
  4 15  1  0  0  0  0
  5 11  1  6  0  0  0
  5 15  1  0  0  0  0
  5 19  1  0  0  0  0
  6 19  1  0  0  0  0
  8 16  1  0  0  0  0
  9 27  1  0  0  0  0
  9 13  1  0  0  0  0
 10 22  1  0  0  0  0
 12  8  1  0  0  0  0
 13 20  1  0  0  0  0
 14 25  1  0  0  0  0
 14  2  1  0  0  0  0
 15 12  1  0  0  0  0
 17 10  1  0  0  0  0
 17 25  1  0  0  0  0
 18  4  1  0  0  0  0
 19  3  1  0  0  0  0
 20 18  1  0  0  0  0
 20 11  1  0  0  0  0
 21 23  1  0  0  0  0
 22 24  1  0  0  0  0
 24 13  1  0  0  0  0
 25  9  1  0  0  0  0
 26 21  1  0  0  0  0
 27  1  1  0  0  0  0
 28 17  1  0  0  0  0
 29 28  1  0  0  0  0
 30 34  1  0  0  0  0
 31 32  1  0  0  0  0
 32 34  1  0  0  0  0
 32 29  1  0  0  0  0
 33 30  1  0  0  0  0
 33 31  1  0  0  0  0
M  END
>  <MODEL>
2

>  <REMARK>
 VINA RESULT:      -5.0      6.189     10.061
  Name = 
  3 active torsions:
  status: ('A' for Active; 'I' for Inactive)
    1  A    between atoms: C_17  and  C_28
    2  A    between atoms: C_28  and  C_29
    3  A    between atoms: C_29  and  C_32
                            x       y       z     vdW  Elec       q    Type
                         _______ _______ _______ _____ _____    ______ ____

>  <TORSDO>
F 3

$$$$
=
 OpenBabel11122414213D

 34 40  0  0  1  0  0  0  0  0999 V2000
  158.2640  213.4160  148.9980 C   0  0  2  0  0  3  0  0  0  0  0  0
  157.9880  213.3150  151.7390 S   0  0  0  0  0  0  0  0  0  0  0  0
  161.8010  213.3570  143.5880 C   0  0  0  0  0  0  0  0  0  0  0  0
  158.4830  213.4110  146.4640 C   0  0  0  0  0  0  0  0  0  0  0  0
  160.4770  212.2790  145.4090 C   0  0  1  0  0  3  0  0  0  0  0  0
  161.6060  214.4060  145.7120 O   0  0  0  0  0  1  0  0  0  0  0  0
  162.8560  212.9760  143.0170 O   0  0  0  0  0  0  0  0  0  0  0  0
  159.5730  214.4530  143.3590 C   0  0  0  0  0  2  0  0  0  0  0  0
  160.3620  212.9570  150.4260 C   0  0  2  0  0  3  0  0  0  0  0  0
  161.7780  210.2670  151.6570 C   0  0  0  0  0  2  0  0  0  0  0  0
  160.6140  211.6110  146.7780 C   0  0  0  0  0  2  0  0  0  0  0  0
  158.7240  213.3380  143.9530 C   0  0  0  0  0  2  0  0  0  0  0  0
  160.6350  211.9560  149.2830 C   0  0  1  0  0  3  0  0  0  0  0  0
  159.4940  213.1500  152.7220 C   0  0  0  0  0  2  0  0  0  0  0  0
  159.2080  213.0010  145.2880 N   0  0  0  0  0  0  0  0  0  0  0  0
  160.7840  213.9330  142.8170 O   0  0  0  0  0  0  0  0  0  0  0  0
  160.4210  210.8820  151.9870 C   0  0  2  0  0  3  0  0  0  0  0  0
  159.2080  213.5050  147.7940 C   0  0  2  0  0  3  0  0  0  0  0  0
  161.6790  213.1670  145.0680 C   0  0  2  0  0  3  0  0  0  0  0  0
  160.4820  212.6310  147.9130 C   0  0  2  0  0  3  0  0  0  0  0  0
  156.3310  214.0780  147.5680 C   0  0  0  0  0  2  0  0  0  0  0  0
  161.9570  210.0450  150.1630 C   0  0  0  0  0  2  0  0  0  0  0  0
  157.1880  213.7540  146.3730 C   0  0  0  0  0  3  0  0  0  0  0  0
  162.0310  211.3630  149.4120 C   0  0  0  0  0  2  0  0  0  0  0  0
  160.5200  212.4200  151.8660 C   0  0  1  0  0  3  0  0  0  0  0  0
  157.1550  214.4430  148.7990 C   0  0  0  0  0  2  0  0  0  0  0  0
  159.0200  213.7020  150.2960 C   0  0  1  0  0  3  0  0  0  0  0  0
  160.0390  210.4350  153.3950 C   0  0  0  0  0  2  0  0  0  0  0  0
  160.8890  209.2500  153.8200 C   0  0  0  0  0  2  0  0  0  0  0  0
  162.0030  210.8960  156.9270 C   0  0  0  0  0  2  0  0  0  0  0  0
  159.7160  209.8610  156.2310 S   0  0  0  0  0  0  0  0  0  0  0  0
  161.1890  209.3240  155.3050 C   0  0  2  0  0  3  0  0  0  0  0  0
  160.5840  211.1880  157.0240 N   0  0  0  0  0  2  0  0  0  0  0  0
  162.2700  210.3410  155.5530 C   0  0  0  0  0  2  0  0  0  0  0  0
  1 26  1  6  0  0  0
  1 27  1  0  0  0  0
  2 14  1  0  0  0  0
  3 19  1  0  0  0  0
  4 18  1  0  0  0  0
  5 11  1  1  0  0  0
  7  3  2  0  0  0  0
  8 12  1  0  0  0  0
  9 25  1  0  0  0  0
 10 17  1  0  0  0  0
 11 20  1  0  0  0  0
 12 15  1  0  0  0  0
 13 24  1  0  0  0  0
 13  9  1  0  0  0  0
 15  5  1  0  0  0  0
 15  4  1  0  0  0  0
 16  8  1  0  0  0  0
 16  3  1  0  0  0  0
 17 28  1  0  0  0  0
 18 20  1  0  0  0  0
 18  1  1  0  0  0  0
 19  5  1  0  0  0  0
 19  6  1  0  0  0  0
 20 13  1  0  0  0  0
 21 26  1  0  0  0  0
 22 10  1  0  0  0  0
 23  4  2  0  0  0  0
 23 21  1  0  0  0  0
 24 22  1  0  0  0  0
 25 17  1  0  0  0  0
 25 14  1  0  0  0  0
 27  9  1  0  0  0  0
 27  2  1  0  0  0  0
 28 29  1  0  0  0  0
 29 32  1  0  0  0  0
 30 33  1  0  0  0  0
 31 33  1  0  0  0  0
 32 34  1  0  0  0  0
 32 31  1  0  0  0  0
 34 30  1  0  0  0  0
M  END
>  <MODEL>
3

>  <REMARK>
 VINA RESULT:      -4.5      5.232      7.177
  Name = 
  3 active torsions:
  status: ('A' for Active; 'I' for Inactive)
    1  A    between atoms: C_17  and  C_28
    2  A    between atoms: C_28  and  C_29
    3  A    between atoms: C_29  and  C_32
                            x       y       z     vdW  Elec       q    Type
                         _______ _______ _______ _____ _____    ______ ____

>  <TORSDO>
F 3

$$$$
=
 OpenBabel11122414213D

 34 40  0  0  1  0  0  0  0  0999 V2000
  161.4950  207.7540  150.1680 C   0  0  2  0  0  3  0  0  0  0  0  0
  161.9350  210.2500  151.2520 S   0  0  0  0  0  0  0  0  0  0  0  0
  161.2860  201.3030  150.5340 C   0  0  0  0  0  0  0  0  0  0  0  0
  160.9860  205.4680  149.1750 C   0  0  0  0  0  0  0  0  0  0  0  0
  160.2990  203.5890  150.7130 C   0  0  1  0  0  3  0  0  0  0  0  0
  162.6770  203.1810  150.9680 O   0  0  0  0  0  1  0  0  0  0  0  0
  161.1210  200.2890  151.2610 O   0  0  0  0  0  0  0  0  0  0  0  0
  161.5810  202.2030  148.2280 C   0  0  0  0  0  2  0  0  0  0  0  0
  162.0210  207.9230  152.6880 C   0  0  2  0  0  3  0  0  0  0  0  0
  160.2310  208.3660  155.3990 C   0  0  0  0  0  2  0  0  0  0  0  0
  160.0280  204.7210  151.7060 C   0  0  0  0  0  2  0  0  0  0  0  0
  160.4260  203.1940  148.2340 C   0  0  0  0  0  2  0  0  0  0  0  0
  160.9180  206.8440  152.7510 C   0  0  1  0  0  3  0  0  0  0  0  0
  162.4560  210.3280  152.9790 C   0  0  0  0  0  2  0  0  0  0  0  0
  160.5590  204.1050  149.3670 N   0  0  0  0  0  0  0  0  0  0  0  0
  161.3410  201.1390  149.1450 O   0  0  0  0  0  0  0  0  0  0  0  0
  160.4670  209.3190  154.2310 C   0  0  2  0  0  3  0  0  0  0  0  0
  161.5900  206.2340  150.3380 C   0  0  2  0  0  3  0  0  0  0  0  0
  161.4060  202.6430  151.1910 C   0  0  2  0  0  3  0  0  0  0  0  0
  161.1890  205.7190  151.7430 C   0  0  2  0  0  3  0  0  0  0  0  0
  161.2060  207.4900  147.7050 C   0  0  0  0  0  2  0  0  0  0  0  0
  159.7420  207.0020  154.9350 C   0  0  0  0  0  2  0  0  0  0  0  0
  160.8940  206.0400  147.9630 C   0  0  0  0  0  3  0  0  0  0  0  0
  160.8170  206.2650  154.1550 C   0  0  0  0  0  2  0  0  0  0  0  0
  161.8950  209.0990  153.6810 C   0  0  1  0  0  3  0  0  0  0  0  0
  162.0690  208.1090  148.8010 C   0  0  0  0  0  2  0  0  0  0  0  0
  162.2790  208.4680  151.2700 C   0  0  1  0  0  3  0  0  0  0  0  0
  160.2540  210.7410  154.7410 C   0  0  0  0  0  2  0  0  0  0  0  0
  159.2580  210.7450  155.8870 C   0  0  0  0  0  2  0  0  0  0  0  0
  155.9600  212.1390  155.0020 C   0  0  0  0  0  2  0  0  0  0  0  0
  157.3080  212.1450  157.2300 S   0  0  0  0  0  0  0  0  0  0  0  0
  158.2410  211.8540  155.6940 C   0  0  2  0  0  3  0  0  0  0  0  0
  155.7400  211.9520  156.4250 N   0  0  0  0  0  2  0  0  0  0  0  0
  157.2490  211.4530  154.6360 C   0  0  0  0  0  2  0  0  0  0  0  0
  1 26  1  6  0  0  0
  1 18  1  0  0  0  0
  1 27  1  0  0  0  0
  2 27  1  0  0  0  0
  2 14  1  0  0  0  0
  3 19  1  0  0  0  0
  3  7  2  0  0  0  0
  4 15  1  0  0  0  0
  4 18  1  0  0  0  0
  5 19  1  0  0  0  0
  5 11  1  1  0  0  0
  6 19  1  0  0  0  0
  8 12  1  0  0  0  0
  8 16  1  0  0  0  0
  9 13  1  0  0  0  0
  9 25  1  0  0  0  0
 11 20  1  0  0  0  0
 12 15  1  0  0  0  0
 13 24  1  0  0  0  0
 14 25  1  0  0  0  0
 15  5  1  0  0  0  0
 16  3  1  0  0  0  0
 17 28  1  0  0  0  0
 17 10  1  0  0  0  0
 18 20  1  0  0  0  0
 20 13  1  0  0  0  0
 21 23  1  0  0  0  0
 21 26  1  0  0  0  0
 22 10  1  0  0  0  0
 23  4  2  0  0  0  0
 24 22  1  0  0  0  0
 25 17  1  0  0  0  0
 27  9  1  0  0  0  0
 28 29  1  0  0  0  0
 30 33  1  0  0  0  0
 32 29  1  0  0  0  0
 32 31  1  0  0  0  0
 33 31  1  0  0  0  0
 34 30  1  0  0  0  0
 34 32  1  0  0  0  0
M  END
>  <MODEL>
4

>  <REMARK>
 VINA RESULT:      -4.5      2.852      4.484
  Name = 
  3 active torsions:
  status: ('A' for Active; 'I' for Inactive)
    1  A    between atoms: C_17  and  C_28
    2  A    between atoms: C_28  and  C_29
    3  A    between atoms: C_29  and  C_32
                            x       y       z     vdW  Elec       q    Type
                         _______ _______ _______ _____ _____    ______ ____

>  <TORSDO>
F 3

$$$$
=
 OpenBabel11122414213D

 34 40  0  0  1  0  0  0  0  0999 V2000
  161.5900  208.4340  151.1250 C   0  0  2  0  0  3  0  0  0  0  0  0
  161.8940  210.7030  152.6590 S   0  0  0  0  0  0  0  0  0  0  0  0
  161.3700  202.0180  150.3620 C   0  0  0  0  0  0  0  0  0  0  0  0
  161.2060  206.3570  149.7070 C   0  0  0  0  0  0  0  0  0  0  0  0
  160.3580  204.2540  150.8170 C   0  0  1  0  0  3  0  0  0  0  0  0
  162.6950  203.7740  151.2620 O   0  0  0  0  0  1  0  0  0  0  0  0
  161.1290  200.8980  150.8830 O   0  0  0  0  0  0  0  0  0  0  0  0
  161.9180  203.2910  148.2900 C   0  0  0  0  0  2  0  0  0  0  0  0
  161.8290  208.1650  153.6790 C   0  0  2  0  0  3  0  0  0  0  0  0
  159.7430  208.1680  156.2090 C   0  0  0  0  0  2  0  0  0  0  0  0
  159.9730  205.2060  151.9500 C   0  0  0  0  0  2  0  0  0  0  0  0
  160.7660  204.2840  148.3370 C   0  0  0  0  0  2  0  0  0  0  0  0
  160.7300  207.1080  153.4350 C   0  0  1  0  0  3  0  0  0  0  0  0
  162.2170  210.4800  154.4220 C   0  0  0  0  0  2  0  0  0  0  0  0
  160.7670  204.9880  149.6150 N   0  0  0  0  0  0  0  0  0  0  0  0
  161.5810  202.0910  148.9800 O   0  0  0  0  0  0  0  0  0  0  0  0
  160.1050  209.3020  155.2540 C   0  0  2  0  0  3  0  0  0  0  0  0
  161.6720  206.9050  151.0430 C   0  0  2  0  0  3  0  0  0  0  0  0
  161.4100  203.2250  151.2470 C   0  0  2  0  0  3  0  0  0  0  0  0
  161.1180  206.1660  152.2870 C   0  0  2  0  0  3  0  0  0  0  0  0
  161.5810  208.5950  148.6360 C   0  0  0  0  0  2  0  0  0  0  0  0
  159.3160  206.9110  155.4680 C   0  0  0  0  0  2  0  0  0  0  0  0
  161.2480  207.1270  148.6070 C   0  0  0  0  0  3  0  0  0  0  0  0
  160.4740  206.3000  154.7000 C   0  0  0  0  0  2  0  0  0  0  0  0
  161.5870  209.1580  154.8370 C   0  0  1  0  0  3  0  0  0  0  0  0
  162.3120  209.0060  149.9110 C   0  0  0  0  0  2  0  0  0  0  0  0
  162.2420  208.9390  152.4120 C   0  0  1  0  0  3  0  0  0  0  0  0
  159.8300  210.6200  155.9720 C   0  0  0  0  0  2  0  0  0  0  0  0
  158.5710  211.2670  155.4190 C   0  0  0  0  0  2  0  0  0  0  0  0
  158.2060  212.9730  152.1700 C   0  0  0  0  0  2  0  0  0  0  0  0
  158.0190  213.8390  154.6190 S   0  0  0  0  0  0  0  0  0  0  0  0
  158.9290  212.2850  154.3540 C   0  0  2  0  0  3  0  0  0  0  0  0
  157.3690  213.8500  152.9700 N   0  0  0  0  0  2  0  0  0  0  0  0
  158.5350  211.7610  153.0000 C   0  0  0  0  0  2  0  0  0  0  0  0
  1 26  1  6  0  0  0
  1 27  1  0  0  0  0
  2 14  1  0  0  0  0
  3  7  2  0  0  0  0
  3 19  1  0  0  0  0
  4 18  1  0  0  0  0
  5 19  1  0  0  0  0
  5 11  1  1  0  0  0
  8 12  1  0  0  0  0
  8 16  1  0  0  0  0
  9 25  1  0  0  0  0
 11 20  1  0  0  0  0
 12 15  1  0  0  0  0
 13  9  1  0  0  0  0
 13 24  1  0  0  0  0
 14 25  1  0  0  0  0
 15  4  1  0  0  0  0
 15  5  1  0  0  0  0
 16  3  1  0  0  0  0
 17 28  1  0  0  0  0
 17 10  1  0  0  0  0
 18  1  1  0  0  0  0
 18 20  1  0  0  0  0
 19  6  1  0  0  0  0
 20 13  1  0  0  0  0
 21 26  1  0  0  0  0
 22 10  1  0  0  0  0
 23 21  1  0  0  0  0
 23  4  2  0  0  0  0
 24 22  1  0  0  0  0
 25 17  1  0  0  0  0
 27  2  1  0  0  0  0
 27  9  1  0  0  0  0
 29 28  1  0  0  0  0
 30 33  1  0  0  0  0
 30 34  1  0  0  0  0
 32 31  1  0  0  0  0
 32 29  1  0  0  0  0
 33 31  1  0  0  0  0
 34 32  1  0  0  0  0
M  END
>  <MODEL>
5

>  <REMARK>
 VINA RESULT:      -4.5      2.909      4.779
  Name = 
  3 active torsions:
  status: ('A' for Active; 'I' for Inactive)
    1  A    between atoms: C_17  and  C_28
    2  A    between atoms: C_28  and  C_29
    3  A    between atoms: C_29  and  C_32
                            x       y       z     vdW  Elec       q    Type
                         _______ _______ _______ _____ _____    ______ ____

>  <TORSDO>
F 3

$$$$
=
 OpenBabel11122414213D

 34 40  0  0  1  0  0  0  0  0999 V2000
  161.8380  208.3480  150.0210 C   0  0  2  0  0  3  0  0  0  0  0  0
  161.7370  207.2260  147.5060 S   0  0  0  0  0  0  0  0  0  0  0  0
  160.1080  208.6310  156.2440 C   0  0  0  0  0  0  0  0  0  0  0  0
  162.0250  209.3400  152.3570 C   0  0  0  0  0  0  0  0  0  0  0  0
  161.5500  207.8700  154.3530 C   0  0  1  0  0  3  0  0  0  0  0  0
  159.2310  208.5150  154.0380 O   0  0  0  0  0  1  0  0  0  0  0  0
  159.7070  208.0070  157.2600 O   0  0  0  0  0  0  0  0  0  0  0  0
  160.9440  210.7820  155.3010 C   0  0  0  0  0  2  0  0  0  0  0  0
  160.4900  206.1730  149.7010 C   0  0  2  0  0  3  0  0  0  0  0  0
  161.2030  202.9740  149.8050 C   0  0  0  0  0  2  0  0  0  0  0  0
  161.7370  206.7300  153.3510 C   0  0  0  0  0  2  0  0  0  0  0  0
  162.2400  210.2620  154.6960 C   0  0  0  0  0  2  0  0  0  0  0  0
  161.1480  205.8420  151.0580 C   0  0  1  0  0  3  0  0  0  0  0  0
  160.6600  205.7960  147.2750 C   0  0  0  0  0  2  0  0  0  0  0  0
  161.9570  209.1580  153.7850 N   0  0  0  0  0  0  0  0  0  0  0  0
  160.5260  209.9590  156.3860 O   0  0  0  0  0  0  0  0  0  0  0  0
  161.6860  204.0410  148.8260 C   0  0  2  0  0  3  0  0  0  0  0  0
  161.2710  208.3880  151.4450 C   0  0  2  0  0  3  0  0  0  0  0  0
  160.1290  207.9180  154.9280 C   0  0  2  0  0  3  0  0  0  0  0  0
  160.9680  206.9960  152.0530 C   0  0  2  0  0  3  0  0  0  0  0  0
  162.9280  210.5660  150.3630 C   0  0  0  0  0  2  0  0  0  0  0  0
  161.4310  203.3810  151.2530 C   0  0  0  0  0  2  0  0  0  0  0  0
  162.7100  210.3720  151.8400 C   0  0  0  0  0  3  0  0  0  0  0  0
  160.5610  204.5630  151.6400 C   0  0  0  0  0  2  0  0  0  0  0  0
  160.5600  205.0790  148.6130 C   0  0  1  0  0  3  0  0  0  0  0  0
  161.9290  209.7830  149.5150 C   0  0  0  0  0  2  0  0  0  0  0  0
  160.9330  207.5230  149.1060 C   0  0  1  0  0  3  0  0  0  0  0  0
  162.0800  203.3380  147.5310 C   0  0  0  0  0  2  0  0  0  0  0  0
  161.0940  202.2260  147.2150 C   0  0  0  0  0  2  0  0  0  0  0  0
  159.0970  202.6660  144.1450 C   0  0  0  0  0  2  0  0  0  0  0  0
  161.3580  203.7060  144.9120 S   0  0  0  0  0  0  0  0  0  0  0  0
  160.8370  202.1620  145.7220 C   0  0  2  0  0  3  0  0  0  0  0  0
  159.7780  203.9490  144.1460 N   0  0  0  0  0  2  0  0  0  0  0  0
  159.3620  201.9990  145.4690 C   0  0  0  0  0  2  0  0  0  0  0  0
  1 26  1  6  0  0  0
  1 18  1  0  0  0  0
  2 27  1  0  0  0  0
  3 16  1  0  0  0  0
  3  7  2  0  0  0  0
  4 15  1  0  0  0  0
  5 11  1  6  0  0  0
  5 19  1  0  0  0  0
  6 19  1  0  0  0  0
  8 16  1  0  0  0  0
  9 13  1  0  0  0  0
 10 22  1  0  0  0  0
 12  8  1  0  0  0  0
 13 24  1  0  0  0  0
 13 20  1  0  0  0  0
 14  2  1  0  0  0  0
 14 25  1  0  0  0  0
 15  5  1  0  0  0  0
 15 12  1  0  0  0  0
 17 10  1  0  0  0  0
 18 20  1  0  0  0  0
 18  4  1  0  0  0  0
 19  3  1  0  0  0  0
 20 11  1  0  0  0  0
 21 23  1  0  0  0  0
 22 24  1  0  0  0  0
 23  4  2  0  0  0  0
 25 17  1  0  0  0  0
 25  9  1  0  0  0  0
 26 21  1  0  0  0  0
 27  9  1  0  0  0  0
 27  1  1  0  0  0  0
 28 17  1  0  0  0  0
 29 28  1  0  0  0  0
 30 33  1  0  0  0  0
 30 34  1  0  0  0  0
 31 32  1  0  0  0  0
 32 29  1  0  0  0  0
 33 31  1  0  0  0  0
 34 32  1  0  0  0  0
M  END
>  <MODEL>
6

>  <REMARK>
 VINA RESULT:      -4.5      3.784      9.092
  Name = 
  3 active torsions:
  status: ('A' for Active; 'I' for Inactive)
    1  A    between atoms: C_17  and  C_28
    2  A    between atoms: C_28  and  C_29
    3  A    between atoms: C_29  and  C_32
                            x       y       z     vdW  Elec       q    Type
                         _______ _______ _______ _____ _____    ______ ____

>  <TORSDO>
F 3

$$$$
=
 OpenBabel11122414213D

 34 40  0  0  1  0  0  0  0  0999 V2000
  161.4030  209.8370  150.8940 C   0  0  2  0  0  3  0  0  0  0  0  0
  162.3050  210.3080  148.3320 S   0  0  0  0  0  0  0  0  0  0  0  0
  159.1300  211.7960  156.6200 C   0  0  0  0  0  0  0  0  0  0  0  0
  160.4810  209.3700  153.2180 C   0  0  0  0  0  0  0  0  0  0  0  0
  158.8840  211.0250  154.2580 C   0  0  1  0  0  3  0  0  0  0  0  0
  160.8770  212.1620  155.0500 O   0  0  0  0  0  1  0  0  0  0  0  0
  158.4840  212.6650  157.2610 O   0  0  0  0  0  0  0  0  0  0  0  0
  160.2580  209.5730  156.6570 C   0  0  0  0  0  2  0  0  0  0  0  0
  161.3050  212.2480  149.9820 C   0  0  2  0  0  3  0  0  0  0  0  0
  159.1180  213.9810  148.2600 C   0  0  0  0  0  2  0  0  0  0  0  0
  158.7360  211.5330  152.8240 C   0  0  0  0  0  2  0  0  0  0  0  0
  159.5030  208.9300  155.5020 C   0  0  0  0  0  2  0  0  0  0  0  0
  159.9450  212.2190  150.7110 C   0  0  1  0  0  3  0  0  0  0  0  0
  162.3730  212.0240  147.7750 C   0  0  0  0  0  2  0  0  0  0  0  0
  159.6210  209.7590  154.3070 N   0  0  0  0  0  0  0  0  0  0  0  0
  159.4790  210.6020  157.2610 O   0  0  0  0  0  0  0  0  0  0  0  0
  159.9220  212.7530  147.8430 C   0  0  2  0  0  3  0  0  0  0  0  0
  160.9790  210.4230  152.2450 C   0  0  2  0  0  3  0  0  0  0  0  0
  159.4890  212.0780  155.1940 C   0  0  2  0  0  3  0  0  0  0  0  0
  160.1000  211.6940  152.1450 C   0  0  2  0  0  3  0  0  0  0  0  0
  161.6760  207.5830  151.9250 C   0  0  0  0  0  2  0  0  0  0  0  0
  158.3660  213.7560  149.5630 C   0  0  0  0  0  2  0  0  0  0  0  0
  160.8780  208.0930  153.0950 C   0  0  0  0  0  3  0  0  0  0  0  0
  159.3200  213.6070  150.7350 C   0  0  0  0  0  2  0  0  0  0  0  0
  161.3030  212.7940  148.5370 C   0  0  1  0  0  3  0  0  0  0  0  0
  162.3830  208.7010  151.1640 C   0  0  0  0  0  2  0  0  0  0  0  0
  162.0670  210.9100  150.0280 C   0  0  1  0  0  3  0  0  0  0  0  0
  160.0370  212.7690  146.3210 C   0  0  0  0  0  2  0  0  0  0  0  0
  160.1730  214.1950  145.8190 C   0  0  0  0  0  2  0  0  0  0  0  0
  162.3340  213.0100  143.0740 C   0  0  0  0  0  2  0  0  0  0  0  0
  159.7440  213.1400  143.3150 S   0  0  0  0  0  0  0  0  0  0  0  0
  160.7350  214.2040  144.4100 C   0  0  2  0  0  3  0  0  0  0  0  0
  161.1570  212.2110  142.7830 N   0  0  0  0  0  2  0  0  0  0  0  0
  162.1360  213.6560  144.4200 C   0  0  0  0  0  2  0  0  0  0  0  0
  1 26  1  1  0  0  0
  1 18  1  0  0  0  0
  2 27  1  0  0  0  0
  3 16  1  0  0  0  0
  3  7  2  0  0  0  0
  4 15  1  0  0  0  0
  5 11  1  6  0  0  0
  5 15  1  0  0  0  0
  5 19  1  0  0  0  0
  6 19  1  0  0  0  0
  8 16  1  0  0  0  0
  9 27  1  0  0  0  0
  9 13  1  0  0  0  0
 10 22  1  0  0  0  0
 12  8  1  0  0  0  0
 13 24  1  0  0  0  0
 13 20  1  0  0  0  0
 14  2  1  0  0  0  0
 14 25  1  0  0  0  0
 15 12  1  0  0  0  0
 17 10  1  0  0  0  0
 17 25  1  0  0  0  0
 18  4  1  0  0  0  0
 19  3  1  0  0  0  0
 20 18  1  0  0  0  0
 20 11  1  0  0  0  0
 21 23  1  0  0  0  0
 22 24  1  0  0  0  0
 23  4  2  0  0  0  0
 25  9  1  0  0  0  0
 26 21  1  0  0  0  0
 27  1  1  0  0  0  0
 28 17  1  0  0  0  0
 29 28  1  0  0  0  0
 30 34  1  0  0  0  0
 31 32  1  0  0  0  0
 32 34  1  0  0  0  0
 32 29  1  0  0  0  0
 33 30  1  0  0  0  0
 33 31  1  0  0  0  0
M  END
>  <MODEL>
7

>  <REMARK>
 VINA RESULT:      -3.2      5.673      9.408
  Name = 
  3 active torsions:
  status: ('A' for Active; 'I' for Inactive)
    1  A    between atoms: C_17  and  C_28
    2  A    between atoms: C_28  and  C_29
    3  A    between atoms: C_29  and  C_32
                            x       y       z     vdW  Elec       q    Type
                         _______ _______ _______ _____ _____    ______ ____

>  <TORSDO>
F 3

$$$$
