=
 OpenBabel11122413073D

 31 35  0  0  1  0  0  0  0  0999 V2000
  160.4060  207.5050  156.3180 C   0  0  0  0  0  0  0  0  0  0  0  0
  161.4100  208.5760  152.8500 N   0  0  0  0  0  0  0  0  0  0  0  0
  161.3280  207.4080  151.9870 C   0  0  0  0  0  0  0  0  0  0  0  0
  161.0980  205.0020  151.6670 C   0  0  0  0  0  0  0  0  0  0  0  0
  160.8570  208.5890  154.1870 C   0  0  0  0  0  0  0  0  0  0  0  0
  159.7580  208.6540  156.7740 C   0  0  0  0  0  3  0  0  0  0  0  0
  161.1770  206.1120  152.5100 C   0  0  0  0  0  3  0  0  0  0  0  0
  160.5490  210.8180  152.3720 C   0  0  2  0  0  3  0  0  0  0  0  0
  160.5040  206.4190  157.1220 F   0  0  0  0  0  0  0  0  0  0  0  0
  161.5160  208.9210  149.9890 C   0  0  0  0  0  2  0  0  0  0  0  0
  160.9110  203.4000  152.3450 Cl  0  0  0  0  0  0  0  0  0  0  0  0
  160.1510  211.0120  153.8380 C   0  0  0  0  0  2  0  0  0  0  0  0
  161.7680  209.8940  152.2940 C   0  0  2  0  0  3  0  0  0  0  0  0
  160.9560  207.4760  155.0350 C   0  0  0  0  0  3  0  0  0  0  0  0
  161.1650  205.1710  150.2820 C   0  0  0  0  0  3  0  0  0  0  0  0
  160.2040  209.7510  154.6580 C   0  0  0  0  0  0  0  0  0  0  0  0
  159.6630  209.7760  155.9470 C   0  0  0  0  0  3  0  0  0  0  0  0
  162.3680  209.8000  150.8870 C   0  0  0  0  0  2  0  0  0  0  0  0
  161.4050  207.5610  150.5880 C   0  0  0  0  0  0  0  0  0  0  0  0
  161.3140  206.4500  149.7440 C   0  0  0  0  0  3  0  0  0  0  0  0
  160.8210  212.0800  151.8160 O   0  0  0  0  0  0  0  0  0  0  0  0
  158.4970  212.6570  151.9520 C   0  0  0  0  0  1  0  0  0  0  0  0
  159.7020  212.4260  151.0410 C   0  0  1  0  0  3  0  0  0  0  0  0
  158.3660  213.4720  147.6000 C   0  0  1  0  0  3  0  0  0  0  0  0
  158.6490  214.4350  149.9210 C   0  0  0  0  0  2  0  0  0  0  0  0
  161.9390  212.4380  148.9280 O   0  0  0  0  0  0  0  0  0  0  0  0
  157.3690  212.7980  146.6810 C   0  0  0  0  0  1  0  0  0  0  0  0
  157.7520  213.6120  148.9910 C   0  0  0  0  0  2  0  0  0  0  0  0
  160.8610  213.4820  148.6710 S   0  0  2  0  0  0  0  0  0  0  0  0
  159.9650  213.7140  150.2360 C   0  0  2  0  0  3  0  0  0  0  0  0
  159.6430  212.6440  147.6450 C   0  0  0  0  0  2  0  0  0  0  0  0
  1  6  1  0  0  0  0
  1  9  1  0  0  0  0
  2  5  1  0  0  0  0
  3  7  1  0  0  0  0
  3  2  1  0  0  0  0
  4 11  1  0  0  0  0
  4  7  2  0  0  0  0
  5 16  2  0  0  0  0
  5 14  1  0  0  0  0
  8 21  1  1  0  0  0
  8 12  1  0  0  0  0
 10 19  1  0  0  0  0
 10 18  1  0  0  0  0
 12 16  1  0  0  0  0
 13 18  1  6  0  0  0
 13  8  1  0  0  0  0
 13  2  1  0  0  0  0
 14  1  2  0  0  0  0
 15  4  1  0  0  0  0
 16 17  1  0  0  0  0
 17  6  2  0  0  0  0
 19  3  2  0  0  0  0
 20 15  2  0  0  0  0
 20 19  1  0  0  0  0
 23 21  1  0  0  0  0
 23 22  1  1  0  0  0
 24 27  1  6  0  0  0
 24 31  1  0  0  0  0
 24 28  1  0  0  0  0
 25 30  1  0  0  0  0
 28 25  1  0  0  0  0
 29 26  2  1  0  0  0
 29 30  1  0  0  0  0
 30 23  1  6  0  0  0
 31 29  1  0  0  0  0
M  END
>  <MODEL>
1

>  <REMARK>
 VINA RESULT:      -8.1      0.000      0.000
  Name = 
  3 active torsions:
  status: ('A' for Active; 'I' for Inactive)
    1  A    between atoms: C_5  and  O_16
    2  A    between atoms: C_5  and  C_30
    3  A    between atoms: C_10  and  O_16
                            x       y       z     vdW  Elec       q    Type
                         _______ _______ _______ _____ _____    ______ ____

>  <TORSDO>
F 3

$$$$
=
 OpenBabel11122413073D

 31 35  0  0  1  0  0  0  0  0999 V2000
  161.0540  207.0140  147.1460 C   0  0  0  0  0  0  0  0  0  0  0  0
  160.8640  204.8680  150.2350 N   0  0  0  0  0  0  0  0  0  0  0  0
  160.9570  203.4800  149.8130 C   0  0  0  0  0  0  0  0  0  0  0  0
  160.9350  201.7700  148.0760 C   0  0  0  0  0  0  0  0  0  0  0  0
  161.1530  205.9690  149.3410 C   0  0  0  0  0  0  0  0  0  0  0  0
  161.7470  208.1230  147.6350 C   0  0  0  0  0  3  0  0  0  0  0  0
  160.8410  203.1080  148.4630 C   0  0  0  0  0  3  0  0  0  0  0  0
  162.0780  205.9280  152.0800 C   0  0  2  0  0  3  0  0  0  0  0  0
  160.6700  206.9740  145.8480 F   0  0  0  0  0  0  0  0  0  0  0  0
  161.3420  202.8210  152.2090 C   0  0  0  0  0  2  0  0  0  0  0  0
  160.7870  201.3350  146.3870 Cl  0  0  0  0  0  0  0  0  0  0  0  0
  162.2140  207.2290  151.2840 C   0  0  0  0  0  2  0  0  0  0  0  0
  160.7870  205.2130  151.6670 C   0  0  2  0  0  3  0  0  0  0  0  0
  160.7560  205.9470  147.9950 C   0  0  0  0  0  3  0  0  0  0  0  0
  161.1520  200.7790  149.0360 C   0  0  0  0  0  3  0  0  0  0  0  0
  161.8490  207.0980  149.8310 C   0  0  0  0  0  0  0  0  0  0  0  0
  162.1360  208.1670  148.9760 C   0  0  0  0  0  3  0  0  0  0  0  0
  160.4550  204.0050  152.5500 C   0  0  0  0  0  2  0  0  0  0  0  0
  161.1650  202.4670  150.7720 C   0  0  0  0  0  0  0  0  0  0  0  0
  161.2700  201.1280  150.3820 C   0  0  0  0  0  3  0  0  0  0  0  0
  162.0770  206.2440  153.4490 O   0  0  0  0  0  0  0  0  0  0  0  0
  160.0020  206.8970  154.4590 C   0  0  0  0  0  1  0  0  0  0  0  0
  161.1980  207.3270  153.6100 C   0  0  1  0  0  3  0  0  0  0  0  0
  159.6740  210.3820  155.3620 C   0  0  1  0  0  3  0  0  0  0  0  0
  161.4440  208.6230  155.7690 C   0  0  0  0  0  2  0  0  0  0  0  0
  161.7210  209.9080  152.0180 O   0  0  0  0  0  0  0  0  0  0  0  0
  158.2300  210.7370  155.6500 C   0  0  0  0  0  1  0  0  0  0  0  0
  159.9580  208.9750  155.8820 C   0  0  0  0  0  2  0  0  0  0  0  0
  161.6550  210.1300  153.5230 S   0  0  2  0  0  0  0  0  0  0  0  0
  161.8980  208.5090  154.3090 C   0  0  2  0  0  3  0  0  0  0  0  0
  159.9210  210.4730  153.8630 C   0  0  0  0  0  2  0  0  0  0  0  0
  1  6  2  0  0  0  0
  1 14  1  0  0  0  0
  2 13  1  0  0  0  0
  3  2  1  0  0  0  0
  3 19  1  0  0  0  0
  4  7  1  0  0  0  0
  4 15  2  0  0  0  0
  5 16  1  0  0  0  0
  5  2  1  0  0  0  0
  6 17  1  0  0  0  0
  7  3  2  0  0  0  0
  8 21  1  1  0  0  0
  9  1  1  0  0  0  0
 10 18  1  0  0  0  0
 11  4  1  0  0  0  0
 12  8  1  0  0  0  0
 13  8  1  0  0  0  0
 13 18  1  1  0  0  0
 14  5  2  0  0  0  0
 15 20  1  0  0  0  0
 16 12  1  0  0  0  0
 17 16  2  0  0  0  0
 19 10  1  0  0  0  0
 20 19  2  0  0  0  0
 21 23  1  0  0  0  0
 23 22  1  1  0  0  0
 24 27  1  6  0  0  0
 24 28  1  0  0  0  0
 25 28  1  0  0  0  0
 29 26  2  6  0  0  0
 29 31  1  0  0  0  0
 29 30  1  0  0  0  0
 30 23  1  6  0  0  0
 30 25  1  0  0  0  0
 31 24  1  0  0  0  0
M  END
>  <MODEL>
2

>  <REMARK>
 VINA RESULT:      -7.8      4.016      6.717
  Name = 
  3 active torsions:
  status: ('A' for Active; 'I' for Inactive)
    1  A    between atoms: C_5  and  O_16
    2  A    between atoms: C_5  and  C_30
    3  A    between atoms: C_10  and  O_16
                            x       y       z     vdW  Elec       q    Type
                         _______ _______ _______ _____ _____    ______ ____

>  <TORSDO>
F 3

$$$$
=
 OpenBabel11122413073D

 31 35  0  0  1  0  0  0  0  0999 V2000
  161.1630  206.3290  154.0640 C   0  0  0  0  0  0  0  0  0  0  0  0
  161.7710  208.2500  150.8820 N   0  0  0  0  0  0  0  0  0  0  0  0
  161.5170  207.3490  149.7690 C   0  0  0  0  0  0  0  0  0  0  0  0
  161.1190  205.1160  148.8770 C   0  0  0  0  0  0  0  0  0  0  0  0
  161.3950  207.9240  152.2410 C   0  0  0  0  0  0  0  0  0  0  0  0
  160.6400  207.3310  154.8840 C   0  0  0  0  0  3  0  0  0  0  0  0
  161.3650  205.9650  149.9580 C   0  0  0  0  0  3  0  0  0  0  0  0
  160.9780  210.5550  151.1180 C   0  0  2  0  0  3  0  0  0  0  0  0
  161.3040  205.0690  154.5410 F   0  0  0  0  0  0  0  0  0  0  0  0
  161.5290  209.3290  148.2200 C   0  0  0  0  0  2  0  0  0  0  0  0
  160.9340  203.3960  149.1410 Cl  0  0  0  0  0  0  0  0  0  0  0  0
  160.7820  210.3660  152.6260 C   0  0  0  0  0  2  0  0  0  0  0  0
  162.1260  209.6600  150.6390 C   0  0  2  0  0  3  0  0  0  0  0  0
  161.5410  206.6260  152.7540 C   0  0  0  0  0  3  0  0  0  0  0  0
  161.0170  205.6390  147.5860 C   0  0  0  0  0  3  0  0  0  0  0  0
  160.8710  208.9340  153.0790 C   0  0  0  0  0  0  0  0  0  0  0  0
  160.5020  208.6310  154.3930 C   0  0  0  0  0  3  0  0  0  0  0  0
  162.5350  209.9260  149.1870 C   0  0  0  0  0  2  0  0  0  0  0  0
  161.4220  207.8620  148.4590 C   0  0  0  0  0  0  0  0  0  0  0  0
  161.1650  207.0110  147.3790 C   0  0  0  0  0  3  0  0  0  0  0  0
  161.2440  211.9130  150.8730 O   0  0  0  0  0  0  0  0  0  0  0  0
  159.2920  212.8440  151.9090 C   0  0  0  0  0  1  0  0  0  0  0  0
  160.0080  212.5200  150.5990 C   0  0  1  0  0  3  0  0  0  0  0  0
  158.7540  213.4600  147.0970 C   0  0  1  0  0  3  0  0  0  0  0  0
  158.8440  214.4370  149.4270 C   0  0  0  0  0  2  0  0  0  0  0  0
  162.3340  212.7270  148.5940 O   0  0  0  0  0  0  0  0  0  0  0  0
  157.8620  212.7080  146.1320 C   0  0  0  0  0  1  0  0  0  0  0  0
  158.0650  213.5440  148.4560 C   0  0  0  0  0  2  0  0  0  0  0  0
  161.1850  213.6770  148.2850 S   0  0  2  0  0  0  0  0  0  0  0  0
  160.1990  213.8290  149.8060 C   0  0  2  0  0  3  0  0  0  0  0  0
  160.0920  212.7430  147.2030 C   0  0  0  0  0  2  0  0  0  0  0  0
  1  9  1  0  0  0  0
  1  6  1  0  0  0  0
  2  5  1  0  0  0  0
  3  7  1  0  0  0  0
  3  2  1  0  0  0  0
  4 11  1  0  0  0  0
  4  7  2  0  0  0  0
  5 14  1  0  0  0  0
  5 16  2  0  0  0  0
  8 21  1  1  0  0  0
  8 12  1  0  0  0  0
 10 19  1  0  0  0  0
 10 18  1  0  0  0  0
 12 16  1  0  0  0  0
 13 18  1  6  0  0  0
 13  2  1  0  0  0  0
 13  8  1  0  0  0  0
 14  1  2  0  0  0  0
 15  4  1  0  0  0  0
 16 17  1  0  0  0  0
 17  6  2  0  0  0  0
 19  3  2  0  0  0  0
 20 15  2  0  0  0  0
 20 19  1  0  0  0  0
 23 21  1  0  0  0  0
 23 22  1  1  0  0  0
 24 27  1  6  0  0  0
 24 31  1  0  0  0  0
 24 28  1  0  0  0  0
 25 30  1  0  0  0  0
 28 25  1  0  0  0  0
 29 26  2  1  0  0  0
 29 30  1  0  0  0  0
 30 23  1  6  0  0  0
 31 29  1  0  0  0  0
M  END
>  <MODEL>
3

>  <REMARK>
 VINA RESULT:      -6.6      1.383      1.893
  Name = 
  3 active torsions:
  status: ('A' for Active; 'I' for Inactive)
    1  A    between atoms: C_5  and  O_16
    2  A    between atoms: C_5  and  C_30
    3  A    between atoms: C_10  and  O_16
                            x       y       z     vdW  Elec       q    Type
                         _______ _______ _______ _____ _____    ______ ____

>  <TORSDO>
F 3

$$$$
=
 OpenBabel11122413073D

 31 35  0  0  1  0  0  0  0  0999 V2000
  161.1890  201.9470  150.6870 C   0  0  0  0  0  0  0  0  0  0  0  0
  161.6280  205.1260  148.7150 N   0  0  0  0  0  0  0  0  0  0  0  0
  161.2510  204.8460  147.3390 C   0  0  0  0  0  0  0  0  0  0  0  0
  160.6920  203.2830  145.5540 C   0  0  0  0  0  0  0  0  0  0  0  0
  161.3460  204.2070  149.7960 C   0  0  0  0  0  0  0  0  0  0  0  0
  160.7740  202.4550  151.9190 C   0  0  0  0  0  3  0  0  0  0  0  0
  161.0560  203.5330  146.8790 C   0  0  0  0  0  3  0  0  0  0  0  0
  160.9530  207.0590  150.0600 C   0  0  2  0  0  3  0  0  0  0  0  0
  161.3130  200.6100  150.5130 F   0  0  0  0  0  0  0  0  0  0  0  0
  161.2260  207.3190  146.8870 C   0  0  0  0  0  2  0  0  0  0  0  0
  160.4560  201.6370  145.0070 Cl  0  0  0  0  0  0  0  0  0  0  0  0
  160.8670  206.1920  151.3190 C   0  0  0  0  0  2  0  0  0  0  0  0
  162.0220  206.4880  149.1220 C   0  0  2  0  0  3  0  0  0  0  0  0
  161.4760  202.8190  149.6350 C   0  0  0  0  0  3  0  0  0  0  0  0
  160.5120  204.3460  144.6660 C   0  0  0  0  0  3  0  0  0  0  0  0
  160.9310  204.7130  151.0490 C   0  0  0  0  0  0  0  0  0  0  0  0
  160.6520  203.8340  152.1010 C   0  0  0  0  0  3  0  0  0  0  0  0
  162.3280  207.3970  147.9280 C   0  0  0  0  0  2  0  0  0  0  0  0
  161.0770  205.9080  146.4280 C   0  0  0  0  0  0  0  0  0  0  0  0
  160.7010  205.6580  145.1050 C   0  0  0  0  0  3  0  0  0  0  0  0
  161.2570  208.3750  150.4480 O   0  0  0  0  0  0  0  0  0  0  0  0
  162.6550  209.3640  152.1260 C   0  0  0  0  0  1  0  0  0  0  0  0
  161.5790  208.3260  151.8140 C   0  0  1  0  0  3  0  0  0  0  0  0
  161.3170  210.2870  155.1010 C   0  0  1  0  0  3  0  0  0  0  0  0
  160.1520  210.1330  152.8620 C   0  0  0  0  0  2  0  0  0  0  0  0
  160.9350  206.4660  154.1800 O   0  0  0  0  0  0  0  0  0  0  0  0
  162.3610  211.0660  155.8720 C   0  0  0  0  0  1  0  0  0  0  0  0
  161.3010  210.7660  153.6520 C   0  0  0  0  0  2  0  0  0  0  0  0
  160.3570  207.8650  154.3380 S   0  0  2  0  0  0  0  0  0  0  0  0
  160.3410  208.6220  152.6840 C   0  0  2  0  0  3  0  0  0  0  0  0
  161.6400  208.8010  155.1840 C   0  0  0  0  0  2  0  0  0  0  0  0
  1  6  1  0  0  0  0
  2 13  1  0  0  0  0
  2  5  1  0  0  0  0
  3  2  1  0  0  0  0
  4  7  2  0  0  0  0
  5 16  2  0  0  0  0
  6 17  2  0  0  0  0
  7  3  1  0  0  0  0
  8 21  1  1  0  0  0
  8 12  1  0  0  0  0
  9  1  1  0  0  0  0
 10 18  1  0  0  0  0
 11  4  1  0  0  0  0
 13 18  1  6  0  0  0
 13  8  1  0  0  0  0
 14  5  1  0  0  0  0
 14  1  2  0  0  0  0
 15 20  2  0  0  0  0
 15  4  1  0  0  0  0
 16 12  1  0  0  0  0
 16 17  1  0  0  0  0
 19 10  1  0  0  0  0
 19  3  2  0  0  0  0
 20 19  1  0  0  0  0
 21 23  1  0  0  0  0
 23 22  1  6  0  0  0
 24 31  1  0  0  0  0
 24 27  1  1  0  0  0
 25 28  1  0  0  0  0
 28 24  1  0  0  0  0
 29 26  2  6  0  0  0
 29 31  1  0  0  0  0
 30 23  1  1  0  0  0
 30 25  1  0  0  0  0
 30 29  1  0  0  0  0
M  END
>  <MODEL>
4

>  <REMARK>
 VINA RESULT:      -6.3      4.081      6.503
  Name = 
  3 active torsions:
  status: ('A' for Active; 'I' for Inactive)
    1  A    between atoms: C_5  and  O_16
    2  A    between atoms: C_5  and  C_30
    3  A    between atoms: C_10  and  O_16
                            x       y       z     vdW  Elec       q    Type
                         _______ _______ _______ _____ _____    ______ ____

>  <TORSDO>
F 3

$$$$
=
 OpenBabel11122413073D

 31 35  0  0  1  0  0  0  0  0999 V2000
  161.3880  209.0380  154.1440 C   0  0  0  0  0  0  0  0  0  0  0  0
  161.9180  208.3350  150.4830 N   0  0  0  0  0  0  0  0  0  0  0  0
  161.5600  206.9460  150.2440 C   0  0  0  0  0  0  0  0  0  0  0  0
  161.0050  204.7150  151.0540 C   0  0  0  0  0  0  0  0  0  0  0  0
  161.6000  209.0140  151.7200 C   0  0  0  0  0  0  0  0  0  0  0  0
  160.9600  210.3660  154.1010 C   0  0  0  0  0  3  0  0  0  0  0  0
  161.3500  206.0460  151.3020 C   0  0  0  0  0  3  0  0  0  0  0  0
  161.2540  210.2750  149.1420 C   0  0  2  0  0  3  0  0  0  0  0  0
  161.4920  208.3990  155.3340 F   0  0  0  0  0  0  0  0  0  0  0  0
  161.5860  207.4060  147.7730 C   0  0  0  0  0  2  0  0  0  0  0  0
  160.7490  203.6150  152.3910 Cl  0  0  0  0  0  0  0  0  0  0  0  0
  161.1300  211.1410  150.3990 C   0  0  0  0  0  2  0  0  0  0  0  0
  162.3290  209.2060  149.3650 C   0  0  2  0  0  3  0  0  0  0  0  0
  161.7090  208.3690  152.9620 C   0  0  0  0  0  3  0  0  0  0  0  0
  160.8590  204.2640  149.7410 C   0  0  0  0  0  3  0  0  0  0  0  0
  161.1730  210.3610  151.6850 C   0  0  0  0  0  0  0  0  0  0  0  0
  160.8600  211.0270  152.8740 C   0  0  0  0  0  3  0  0  0  0  0  0
  162.6720  208.4180  148.0960 C   0  0  0  0  0  2  0  0  0  0  0  0
  161.4200  206.4740  148.9230 C   0  0  0  0  0  0  0  0  0  0  0  0
  161.0630  205.1440  148.6770 C   0  0  0  0  0  3  0  0  0  0  0  0
  161.5730  211.1100  148.0580 O   0  0  0  0  0  0  0  0  0  0  0  0
  163.7770  212.0350  148.2680 C   0  0  0  0  0  1  0  0  0  0  0  0
  162.2900  212.1960  148.5870 C   0  0  1  0  0  3  0  0  0  0  0  0
  158.7920  213.7680  148.6630 C   0  0  1  0  0  3  0  0  0  0  0  0
  161.1990  214.4250  149.0730 C   0  0  0  0  0  2  0  0  0  0  0  0
  160.9980  212.1890  145.7930 O   0  0  0  0  0  0  0  0  0  0  0  0
  157.5230  213.3220  149.3570 C   0  0  0  0  0  1  0  0  0  0  0  0
  159.9290  213.8210  149.6800 C   0  0  0  0  0  2  0  0  0  0  0  0
  160.5730  213.3720  146.6520 S   0  0  2  0  0  0  0  0  0  0  0  0
  161.8000  213.5280  147.9860 C   0  0  2  0  0  3  0  0  0  0  0  0
  159.1100  212.8000  147.5320 C   0  0  0  0  0  2  0  0  0  0  0  0
  1  9  1  0  0  0  0
  2  5  1  0  0  0  0
  3  2  1  0  0  0  0
  3  7  1  0  0  0  0
  4  7  2  0  0  0  0
  4 11  1  0  0  0  0
  5 14  1  0  0  0  0
  6  1  1  0  0  0  0
  8 21  1  6  0  0  0
  8 13  1  0  0  0  0
  8 12  1  0  0  0  0
 10 18  1  0  0  0  0
 10 19  1  0  0  0  0
 12 16  1  0  0  0  0
 13 18  1  6  0  0  0
 13  2  1  0  0  0  0
 14  1  2  0  0  0  0
 15  4  1  0  0  0  0
 16  5  2  0  0  0  0
 16 17  1  0  0  0  0
 17  6  2  0  0  0  0
 19  3  2  0  0  0  0
 20 19  1  0  0  0  0
 20 15  2  0  0  0  0
 21 23  1  0  0  0  0
 23 22  1  6  0  0  0
 24 27  1  1  0  0  0
 24 28  1  0  0  0  0
 25 28  1  0  0  0  0
 29 26  2  6  0  0  0
 29 31  1  0  0  0  0
 29 30  1  0  0  0  0
 30 23  1  1  0  0  0
 30 25  1  0  0  0  0
 31 24  1  0  0  0  0
M  END
>  <MODEL>
5

>  <REMARK>
 VINA RESULT:      -6.2      1.760      2.827
  Name = 
  3 active torsions:
  status: ('A' for Active; 'I' for Inactive)
    1  A    between atoms: C_5  and  O_16
    2  A    between atoms: C_5  and  C_30
    3  A    between atoms: C_10  and  O_16
                            x       y       z     vdW  Elec       q    Type
                         _______ _______ _______ _____ _____    ______ ____

>  <TORSDO>
F 3

$$$$
=
 OpenBabel11122413073D

 31 35  0  0  1  0  0  0  0  0999 V2000
  161.2210  202.2490  150.9390 C   0  0  0  0  0  0  0  0  0  0  0  0
  161.8660  205.7110  149.6050 N   0  0  0  0  0  0  0  0  0  0  0  0
  161.4780  205.7220  148.2030 C   0  0  0  0  0  0  0  0  0  0  0  0
  160.8310  204.5650  146.1570 C   0  0  0  0  0  0  0  0  0  0  0  0
  161.5220  204.6220  150.4930 C   0  0  0  0  0  0  0  0  0  0  0  0
  160.8330  202.5370  152.2480 C   0  0  0  0  0  3  0  0  0  0  0  0
  161.2040  204.5350  147.5030 C   0  0  0  0  0  3  0  0  0  0  0  0
  161.3060  207.3910  151.2970 C   0  0  2  0  0  3  0  0  0  0  0  0
  161.2630  200.9640  150.5120 F   0  0  0  0  0  0  0  0  0  0  0  0
  161.6080  208.2320  148.2290 C   0  0  0  0  0  2  0  0  0  0  0  0
  160.4960  203.0710  145.3100 Cl  0  0  0  0  0  0  0  0  0  0  0  0
  161.1600  206.3070  152.3690 C   0  0  0  0  0  2  0  0  0  0  0  0
  162.3410  206.9440  150.2600 C   0  0  2  0  0  3  0  0  0  0  0  0
  161.5670  203.2850  150.0700 C   0  0  0  0  0  3  0  0  0  0  0  0
  160.7220  205.7870  145.4900 C   0  0  0  0  0  3  0  0  0  0  0  0
  161.1340  204.9050  151.8220 C   0  0  0  0  0  0  0  0  0  0  0  0
  160.7960  203.8620  152.6900 C   0  0  0  0  0  3  0  0  0  0  0  0
  162.7090  208.0430  149.2590 C   0  0  0  0  0  2  0  0  0  0  0  0
  161.3740  206.9470  147.5130 C   0  0  0  0  0  0  0  0  0  0  0  0
  160.9890  206.9760  146.1680 C   0  0  0  0  0  3  0  0  0  0  0  0
  161.6880  208.5870  151.9260 O   0  0  0  0  0  0  0  0  0  0  0  0
  160.8580  207.6630  153.9780 C   0  0  0  0  0  1  0  0  0  0  0  0
  160.7700  208.8050  152.9660 C   0  0  1  0  0  3  0  0  0  0  0  0
  158.3610  211.1970  154.7540 C   0  0  1  0  0  3  0  0  0  0  0  0
  160.5890  210.0680  155.1500 C   0  0  0  0  0  2  0  0  0  0  0  0
  160.4730  211.4540  151.4270 O   0  0  0  0  0  0  0  0  0  0  0  0
  156.8770  211.0790  155.0320 C   0  0  0  0  0  1  0  0  0  0  0  0
  159.0660  209.9380  155.2520 C   0  0  0  0  0  2  0  0  0  0  0  0
  160.3330  211.6130  152.9340 S   0  0  2  0  0  0  0  0  0  0  0  0
  161.0640  210.1310  153.6950 C   0  0  2  0  0  3  0  0  0  0  0  0
  158.5760  211.3910  153.2600 C   0  0  0  0  0  2  0  0  0  0  0  0
  1  6  1  0  0  0  0
  2 13  1  0  0  0  0
  2  5  1  0  0  0  0
  3  2  1  0  0  0  0
  4  7  1  0  0  0  0
  5 16  2  0  0  0  0
  6 17  2  0  0  0  0
  7  3  2  0  0  0  0
  8 21  1  1  0  0  0
  8 12  1  0  0  0  0
  9  1  1  0  0  0  0
 10 18  1  0  0  0  0
 11  4  1  0  0  0  0
 13 18  1  6  0  0  0
 13  8  1  0  0  0  0
 14  5  1  0  0  0  0
 14  1  2  0  0  0  0
 15  4  2  0  0  0  0
 15 20  1  0  0  0  0
 16 12  1  0  0  0  0
 16 17  1  0  0  0  0
 19  3  1  0  0  0  0
 19 10  1  0  0  0  0
 20 19  2  0  0  0  0
 21 23  1  0  0  0  0
 23 22  1  1  0  0  0
 24 27  1  6  0  0  0
 24 28  1  0  0  0  0
 25 28  1  0  0  0  0
 29 26  2  6  0  0  0
 29 31  1  0  0  0  0
 29 30  1  0  0  0  0
 30 23  1  6  0  0  0
 30 25  1  0  0  0  0
 31 24  1  0  0  0  0
M  END
>  <MODEL>
6

>  <REMARK>
 VINA RESULT:      -6.1      3.498      5.637
  Name = 
  3 active torsions:
  status: ('A' for Active; 'I' for Inactive)
    1  A    between atoms: C_5  and  O_16
    2  A    between atoms: C_5  and  C_30
    3  A    between atoms: C_10  and  O_16
                            x       y       z     vdW  Elec       q    Type
                         _______ _______ _______ _____ _____    ______ ____

>  <TORSDO>
F 3

$$$$
=
 OpenBabel11122413073D

 31 35  0  0  1  0  0  0  0  0999 V2000
  161.2920  207.8790  154.1750 C   0  0  0  0  0  0  0  0  0  0  0  0
  161.8730  207.3600  150.4900 N   0  0  0  0  0  0  0  0  0  0  0  0
  161.4520  206.0070  150.1640 C   0  0  0  0  0  0  0  0  0  0  0  0
  160.7680  203.7640  150.8310 C   0  0  0  0  0  0  0  0  0  0  0  0
  161.5600  207.9820  151.7580 C   0  0  0  0  0  0  0  0  0  0  0  0
  160.9320  209.2270  154.2000 C   0  0  0  0  0  3  0  0  0  0  0  0
  161.1730  205.0590  151.1630 C   0  0  0  0  0  3  0  0  0  0  0  0
  161.3380  209.4040  149.2510 C   0  0  2  0  0  3  0  0  0  0  0  0
  161.3360  207.1680  155.3270 F   0  0  0  0  0  0  0  0  0  0  0  0
  161.5610  206.6050  147.7250 C   0  0  0  0  0  2  0  0  0  0  0  0
  160.4270  202.6040  152.0960 Cl  0  0  0  0  0  0  0  0  0  0  0  0
  161.2280  210.2020  150.5530 C   0  0  0  0  0  2  0  0  0  0  0  0
  162.3530  208.2700  149.4340 C   0  0  2  0  0  3  0  0  0  0  0  0
  161.6080  207.2630  152.9620 C   0  0  0  0  0  3  0  0  0  0  0  0
  160.6320  203.3970  149.4910 C   0  0  0  0  0  3  0  0  0  0  0  0
  161.2010  209.3490  151.7920 C   0  0  0  0  0  0  0  0  0  0  0  0
  160.8940  209.9610  153.0120 C   0  0  0  0  0  3  0  0  0  0  0  0
  162.6870  207.5400  148.1290 C   0  0  0  0  0  2  0  0  0  0  0  0
  161.3210  205.6170  148.8150 C   0  0  0  0  0  0  0  0  0  0  0  0
  160.9040  204.3240  148.4850 C   0  0  0  0  0  3  0  0  0  0  0  0
  161.7250  210.2820  148.2240 O   0  0  0  0  0  0  0  0  0  0  0  0
  163.4290  211.9660  148.3380 C   0  0  0  0  0  1  0  0  0  0  0  0
  162.0650  211.4960  148.8430 C   0  0  1  0  0  3  0  0  0  0  0  0
  161.2760  213.2420  145.5190 C   0  0  1  0  0  3  0  0  0  0  0  0
  160.0610  212.1210  147.4320 C   0  0  0  0  0  2  0  0  0  0  0  0
  162.9300  214.4490  148.8950 O   0  0  0  0  0  0  0  0  0  0  0  0
  161.8200  213.0070  144.1260 C   0  0  0  0  0  1  0  0  0  0  0  0
  160.7740  211.9190  146.0920 C   0  0  0  0  0  2  0  0  0  0  0  0
  161.7080  214.1940  148.0240 S   0  0  2  0  0  0  0  0  0  0  0  0
  161.0220  212.5870  148.5300 C   0  0  2  0  0  3  0  0  0  0  0  0
  162.3730  213.8370  146.3900 C   0  0  0  0  0  2  0  0  0  0  0  0
  1  6  1  0  0  0  0
  1  9  1  0  0  0  0
  2  5  1  0  0  0  0
  3  2  1  0  0  0  0
  3  7  1  0  0  0  0
  4  7  2  0  0  0  0
  4 11  1  0  0  0  0
  5 16  2  0  0  0  0
  5 14  1  0  0  0  0
  8 21  1  6  0  0  0
  8 13  1  0  0  0  0
  8 12  1  0  0  0  0
 10 18  1  0  0  0  0
 10 19  1  0  0  0  0
 12 16  1  0  0  0  0
 13 18  1  6  0  0  0
 13  2  1  0  0  0  0
 14  1  2  0  0  0  0
 15  4  1  0  0  0  0
 16 17  1  0  0  0  0
 17  6  2  0  0  0  0
 19  3  2  0  0  0  0
 20 19  1  0  0  0  0
 20 15  2  0  0  0  0
 21 23  1  0  0  0  0
 23 22  1  6  0  0  0
 24 27  1  6  0  0  0
 24 28  1  0  0  0  0
 24 31  1  0  0  0  0
 25 30  1  0  0  0  0
 28 25  1  0  0  0  0
 29 30  1  0  0  0  0
 29 26  2  1  0  0  0
 30 23  1  6  0  0  0
 31 29  1  0  0  0  0
M  END
>  <MODEL>
7

>  <REMARK>
 VINA RESULT:      -5.5      2.055      3.145
  Name = 
  3 active torsions:
  status: ('A' for Active; 'I' for Inactive)
    1  A    between atoms: C_5  and  O_16
    2  A    between atoms: C_5  and  C_30
    3  A    between atoms: C_10  and  O_16
                            x       y       z     vdW  Elec       q    Type
                         _______ _______ _______ _____ _____    ______ ____

>  <TORSDO>
F 3

$$$$
=
 OpenBabel11122413073D

 31 35  0  0  1  0  0  0  0  0999 V2000
  161.0540  213.2290  148.6250 C   0  0  0  0  0  0  0  0  0  0  0  0
  160.9690  211.2380  151.8200 N   0  0  0  0  0  0  0  0  0  0  0  0
  159.7560  211.6040  152.5350 C   0  0  0  0  0  0  0  0  0  0  0  0
  157.8200  213.0500  152.8540 C   0  0  0  0  0  0  0  0  0  0  0  0
  161.1990  211.6190  150.4440 C   0  0  0  0  0  0  0  0  0  0  0  0
  161.6540  212.3140  147.7580 C   0  0  0  0  0  3  0  0  0  0  0  0
  158.9820  212.7140  152.1570 C   0  0  0  0  0  3  0  0  0  0  0  0
  161.8190  208.9740  151.4320 C   0  0  2  0  0  3  0  0  0  0  0  0
  160.6880  214.4520  148.1720 F   0  0  0  0  0  0  0  0  0  0  0  0
  160.0980  209.6240  154.0450 C   0  0  0  0  0  2  0  0  0  0  0  0
  156.8750  214.4390  152.3620 Cl  0  0  0  0  0  0  0  0  0  0  0  0
  162.3190  209.3670  150.0390 C   0  0  0  0  0  2  0  0  0  0  0  0
  161.8670  210.1970  152.3540 C   0  0  2  0  0  3  0  0  0  0  0  0
  160.8330  212.8840  149.9590 C   0  0  0  0  0  3  0  0  0  0  0  0
  157.4080  212.2750  153.9410 C   0  0  0  0  0  3  0  0  0  0  0  0
  161.8120  210.7000  149.5610 C   0  0  0  0  0  0  0  0  0  0  0  0
  162.0380  211.0560  148.2280 C   0  0  0  0  0  3  0  0  0  0  0  0
  161.5810  209.8620  153.8210 C   0  0  0  0  0  2  0  0  0  0  0  0
  159.3340  210.8380  153.6410 C   0  0  0  0  0  0  0  0  0  0  0  0
  158.1630  211.1680  154.3300 C   0  0  0  0  0  3  0  0  0  0  0  0
  162.6270  207.9310  151.9160 O   0  0  0  0  0  0  0  0  0  0  0  0
  163.0720  205.5890  151.6520 C   0  0  0  0  0  1  0  0  0  0  0  0
  162.4340  206.8410  151.0510 C   0  0  1  0  0  3  0  0  0  0  0  0
  160.6730  203.6290  149.9120 C   0  0  1  0  0  3  0  0  0  0  0  0
  160.4570  205.4030  151.7000 C   0  0  0  0  0  2  0  0  0  0  0  0
  161.2620  207.1490  148.2220 O   0  0  0  0  0  0  0  0  0  0  0  0
  161.2220  202.2450  149.6380 C   0  0  0  0  0  1  0  0  0  0  0  0
  161.1180  204.0810  151.3000 C   0  0  0  0  0  2  0  0  0  0  0  0
  160.4550  206.2140  149.1110 S   0  0  2  0  0  0  0  0  0  0  0  0
  160.9330  206.5710  150.8290 C   0  0  2  0  0  3  0  0  0  0  0  0
  161.1700  204.5850  148.8370 C   0  0  0  0  0  2  0  0  0  0  0  0
  1 14  1  0  0  0  0
  2 13  1  0  0  0  0
  2  3  1  0  0  0  0
  3 19  1  0  0  0  0
  4 15  2  0  0  0  0
  5  2  1  0  0  0  0
  6 17  1  0  0  0  0
  6  1  2  0  0  0  0
  7  3  2  0  0  0  0
  7  4  1  0  0  0  0
  8 21  1  1  0  0  0
  8 13  1  0  0  0  0
  9  1  1  0  0  0  0
 11  4  1  0  0  0  0
 12  8  1  0  0  0  0
 13 18  1  1  0  0  0
 14  5  2  0  0  0  0
 15 20  1  0  0  0  0
 16 12  1  0  0  0  0
 16  5  1  0  0  0  0
 17 16  2  0  0  0  0
 18 10  1  0  0  0  0
 19 10  1  0  0  0  0
 19 20  2  0  0  0  0
 23 22  1  1  0  0  0
 23 21  1  0  0  0  0
 24 27  1  6  0  0  0
 24 28  1  0  0  0  0
 28 25  1  0  0  0  0
 29 26  2  6  0  0  0
 29 30  1  0  0  0  0
 30 23  1  6  0  0  0
 30 25  1  0  0  0  0
 31 29  1  0  0  0  0
 31 24  1  0  0  0  0
M  END
>  <MODEL>
8

>  <REMARK>
 VINA RESULT:      -5.5      3.969      7.589
  Name = 
  3 active torsions:
  status: ('A' for Active; 'I' for Inactive)
    1  A    between atoms: C_5  and  O_16
    2  A    between atoms: C_5  and  C_30
    3  A    between atoms: C_10  and  O_16
                            x       y       z     vdW  Elec       q    Type
                         _______ _______ _______ _____ _____    ______ ____

>  <TORSDO>
F 3

$$$$
=
 OpenBabel11122413073D

 31 35  0  0  1  0  0  0  0  0999 V2000
  161.0240  201.8490  150.5910 C   0  0  0  0  0  0  0  0  0  0  0  0
  161.5670  204.9630  148.5440 N   0  0  0  0  0  0  0  0  0  0  0  0
  161.1910  204.6600  147.1720 C   0  0  0  0  0  0  0  0  0  0  0  0
  160.5990  203.0690  145.4220 C   0  0  0  0  0  0  0  0  0  0  0  0
  161.2510  204.0800  149.6450 C   0  0  0  0  0  0  0  0  0  0  0  0
  160.6160  202.3990  151.8070 C   0  0  0  0  0  3  0  0  0  0  0  0
  160.9620  203.3420  146.7430 C   0  0  0  0  0  3  0  0  0  0  0  0
  160.9390  206.9480  149.8350 C   0  0  2  0  0  3  0  0  0  0  0  0
  161.1120  200.5050  150.4500 F   0  0  0  0  0  0  0  0  0  0  0  0
  161.2400  207.1200  146.6580 C   0  0  0  0  0  2  0  0  0  0  0  0
  160.3200  201.4180  144.9150 Cl  0  0  0  0  0  0  0  0  0  0  0  0
  160.8200  206.1150  151.1150 C   0  0  0  0  0  2  0  0  0  0  0  0
  161.9970  206.3240  148.9190 C   0  0  2  0  0  3  0  0  0  0  0  0
  161.3440  202.6850  149.5190 C   0  0  0  0  0  3  0  0  0  0  0  0
  160.4560  204.1150  144.5080 C   0  0  0  0  0  3  0  0  0  0  0  0
  160.8430  204.6290  150.8820 C   0  0  0  0  0  0  0  0  0  0  0  0
  160.5330  203.7860  151.9530 C   0  0  0  0  0  3  0  0  0  0  0  0
  162.3370  207.1940  147.7050 C   0  0  0  0  0  2  0  0  0  0  0  0
  161.0530  205.7040  146.2340 C   0  0  0  0  0  0  0  0  0  0  0  0
  160.6790  205.4310  144.9150 C   0  0  0  0  0  3  0  0  0  0  0  0
  161.2770  208.2640  150.1920 O   0  0  0  0  0  0  0  0  0  0  0  0
  162.7060  207.1020  151.7280 C   0  0  0  0  0  1  0  0  0  0  0  0
  161.6850  208.2230  151.5350 C   0  0  1  0  0  3  0  0  0  0  0  0
  160.0300  211.4590  152.7620 C   0  0  1  0  0  3  0  0  0  0  0  0
  161.9350  209.9210  153.3930 C   0  0  0  0  0  2  0  0  0  0  0  0
  161.9560  210.4770  149.4580 O   0  0  0  0  0  0  0  0  0  0  0  0
  158.5800  211.7760  153.0600 C   0  0  0  0  0  1  0  0  0  0  0  0
  160.4350  210.1980  153.5220 C   0  0  0  0  0  2  0  0  0  0  0  0
  161.9410  210.9790  150.8940 S   0  0  2  0  0  0  0  0  0  0  0  0
  162.3310  209.5570  151.9580 C   0  0  2  0  0  3  0  0  0  0  0  0
  160.2040  211.2760  151.2610 C   0  0  0  0  0  2  0  0  0  0  0  0
  1  6  1  0  0  0  0
  2 13  1  0  0  0  0
  2  5  1  0  0  0  0
  3  2  1  0  0  0  0
  4  7  2  0  0  0  0
  5 16  2  0  0  0  0
  6 17  2  0  0  0  0
  7  3  1  0  0  0  0
  8 21  1  1  0  0  0
  8 12  1  0  0  0  0
  9  1  1  0  0  0  0
 10 18  1  0  0  0  0
 11  4  1  0  0  0  0
 13 18  1  6  0  0  0
 13  8  1  0  0  0  0
 14  5  1  0  0  0  0
 14  1  2  0  0  0  0
 15 20  2  0  0  0  0
 15  4  1  0  0  0  0
 16 12  1  0  0  0  0
 16 17  1  0  0  0  0
 19 10  1  0  0  0  0
 19  3  2  0  0  0  0
 20 19  1  0  0  0  0
 21 23  1  0  0  0  0
 23 22  1  6  0  0  0
 24 27  1  6  0  0  0
 24 28  1  0  0  0  0
 25 28  1  0  0  0  0
 29 26  2  6  0  0  0
 29 31  1  0  0  0  0
 29 30  1  0  0  0  0
 30 23  1  6  0  0  0
 30 25  1  0  0  0  0
 31 24  1  0  0  0  0
M  END
>  <MODEL>
9

>  <REMARK>
 VINA RESULT:      -5.4      3.540      5.955
  Name = 
  3 active torsions:
  status: ('A' for Active; 'I' for Inactive)
    1  A    between atoms: C_5  and  O_16
    2  A    between atoms: C_5  and  C_30
    3  A    between atoms: C_10  and  O_16
                            x       y       z     vdW  Elec       q    Type
                         _______ _______ _______ _____ _____    ______ ____

>  <TORSDO>
F 3

$$$$
