=
 OpenBabel11122412573D

 32 37  0  0  1  0  0  0  0  0999 V2000
  161.1330  201.3490  150.1020 C   0  0  0  0  0  2  0  0  0  0  0  0
  161.1190  206.7800  151.8830 C   0  0  0  0  0  0  0  0  0  0  0  0
  162.1410  210.0260  148.4610 C   0  0  0  0  0  3  0  0  0  0  0  0
  161.9290  211.1350  149.4100 C   0  0  0  0  0  3  0  0  0  0  0  0
  160.9140  207.5650  154.3600 C   0  0  0  0  0  0  0  0  0  0  0  0
  160.5590  208.6330  155.0780 C   0  0  0  0  0  0  0  0  0  0  0  0
  161.2440  204.3950  151.3730 N   0  0  2  0  0  0  0  0  0  0  0  0
  161.2460  206.0270  149.5140 C   0  0  0  0  0  2  0  0  0  0  0  0
  160.3090  210.8660  155.6260 N   0  0  0  0  0  0  0  0  0  0  0  0
  161.2970  203.6250  149.0050 C   0  0  0  0  0  2  0  0  0  0  0  0
  162.0330  208.7550  148.8580 C   0  0  0  0  0  3  0  0  0  0  0  0
  161.3430  207.0860  150.5890 C   0  0  0  0  0  0  0  0  0  0  0  0
  161.7160  208.4320  150.2260 N   0  0  0  0  0  0  0  0  0  0  0  0
  161.3680  209.2310  152.4720 C   0  0  0  0  0  0  0  0  0  0  0  0
  160.0080  210.0790  156.8260 C   0  0  0  0  0  3  0  0  0  0  0  0
  161.6010  201.9780  151.4170 C   0  0  0  0  0  2  0  0  0  0  0  0
  160.7660  204.6540  150.0030 C   0  0  1  0  0  3  0  0  0  0  0  0
  160.1640  208.6640  156.4440 N   0  0  0  0  0  0  0  0  0  0  0  0
  160.7070  203.1270  151.8610 C   0  0  0  0  0  2  0  0  0  0  0  0
  160.5080  202.3260  149.1030 C   0  0  1  0  0  3  0  0  0  0  0  0
  161.6630  210.8970  150.6960 C   0  0  0  0  0  3  0  0  0  0  0  0
  161.5900  209.5070  151.1820 C   0  0  0  0  0  0  0  0  0  0  0  0
  161.0430  210.2830  153.3990 N   0  0  0  0  0  0  0  0  0  0  0  0
  160.6360  205.4020  152.2350 C   0  0  0  0  0  2  0  0  0  0  0  0
  161.0020  206.2350  155.0350 C   0  0  0  0  0  1  0  0  0  0  0  0
  160.4970  212.3060  155.5990 C   0  0  0  0  0  1  0  0  0  0  0  0
  161.4930  207.7850  152.9610 C   0  0  2  0  0  3  0  0  0  0  0  0
  160.6570  209.9680  154.5940 C   0  0  0  0  0  0  0  0  0  0  0  0
  160.4300  201.6910  147.7960 N   0  0  0  0  0  2  0  0  0  0  0  0
  160.7850  202.3660  146.5880 C   0  0  0  0  0  0  0  0  0  0  0  0
  161.1650  203.5670  146.6100 O   0  0  0  0  0  0  0  0  0  0  0  0
  160.7020  201.6450  145.2920 C   0  0  0  0  0  1  0  0  0  0  0  0
  1 16  1  0  0  0  0
  2 24  1  0  0  0  0
  3 11  2  0  0  0  0
  3  4  1  0  0  0  0
  4 21  2  0  0  0  0
  5 25  1  0  0  0  0
  5  6  2  0  0  0  0
  6 18  1  0  0  0  0
  7 19  1  1  0  0  0
  7 24  1  0  0  0  0
  8 17  1  0  0  0  0
  8 12  1  0  0  0  0
  9 15  1  0  0  0  0
 10 20  1  0  0  0  0
 11 13  1  0  0  0  0
 12  2  2  0  0  0  0
 13 12  1  0  0  0  0
 13 22  1  0  0  0  0
 14 27  1  0  0  0  0
 14 23  1  0  0  0  0
 16 19  1  0  0  0  0
 17 10  1  6  0  0  0
 17  7  1  0  0  0  0
 18 15  2  0  0  0  0
 20 29  1  6  0  0  0
 20  1  1  0  0  0  0
 21 22  1  0  0  0  0
 22 14  2  0  0  0  0
 23 28  2  0  0  0  0
 26  9  1  0  0  0  0
 27  2  1  6  0  0  0
 27  5  1  0  0  0  0
 28  6  1  0  0  0  0
 28  9  1  0  0  0  0
 30 31  2  0  0  0  0
 30 29  1  0  0  0  0
 32 30  1  0  0  0  0
M  END
>  <MODEL>
1

>  <REMARK>
 VINA RESULT:      -9.7      0.000      0.000
  Name = 
  1 active torsions:
  status: ('A' for Active; 'I' for Inactive)
    1  A    between atoms: C_20  and  N_29
                            x       y       z     vdW  Elec       q    Type
                         _______ _______ _______ _____ _____    ______ ____

>  <TORSDO>
F 1

$$$$
=
 OpenBabel11122412573D

 32 37  0  0  1  0  0  0  0  0999 V2000
  160.5530  208.0780  157.2440 C   0  0  0  0  0  2  0  0  0  0  0  0
  161.0540  206.1290  151.8940 C   0  0  0  0  0  0  0  0  0  0  0  0
  161.9730  209.5260  148.5900 C   0  0  0  0  0  3  0  0  0  0  0  0
  162.0630  208.5060  147.5280 C   0  0  0  0  0  3  0  0  0  0  0  0
  160.5390  203.6970  151.1090 C   0  0  0  0  0  0  0  0  0  0  0  0
  160.8330  202.8480  150.1220 C   0  0  0  0  0  0  0  0  0  0  0  0
  160.6300  206.7710  154.2120 N   0  0  2  0  0  0  0  0  0  0  0  0
  161.6090  208.4320  152.6620 C   0  0  0  0  0  2  0  0  0  0  0  0
  161.3260  202.1360  147.9780 N   0  0  0  0  0  0  0  0  0  0  0  0
  161.2500  209.0480  155.0110 C   0  0  0  0  0  2  0  0  0  0  0  0
  161.6750  209.1800  149.8460 C   0  0  0  0  0  3  0  0  0  0  0  0
  161.3630  207.4030  151.5800 C   0  0  0  0  0  0  0  0  0  0  0  0
  161.4230  207.8050  150.1940 N   0  0  0  0  0  0  0  0  0  0  0  0
  161.1210  205.5400  149.4320 C   0  0  0  0  0  0  0  0  0  0  0  0
  161.0230  200.9460  148.7810 C   0  0  0  0  0  3  0  0  0  0  0  0
  159.7960  206.9750  156.5000 C   0  0  0  0  0  2  0  0  0  0  0  0
  161.5980  207.8770  154.0920 C   0  0  1  0  0  3  0  0  0  0  0  0
  160.7240  201.4300  150.1410 N   0  0  0  0  0  0  0  0  0  0  0  0
  160.6930  206.1920  155.5520 C   0  0  0  0  0  2  0  0  0  0  0  0
  161.6720  208.7480  156.4430 C   0  0  1  0  0  3  0  0  0  0  0  0
  161.8100  207.2220  147.7840 C   0  0  0  0  0  3  0  0  0  0  0  0
  161.4240  206.8110  149.1470 C   0  0  0  0  0  0  0  0  0  0  0  0
  161.3110  204.5060  148.4480 N   0  0  0  0  0  2  0  0  0  0  0  0
  161.0930  205.7030  153.3330 C   0  0  0  0  0  2  0  0  0  0  0  0
  159.9520  203.1630  152.3750 C   0  0  0  0  0  1  0  0  0  0  0  0
  161.4570  202.1530  146.5310 C   0  0  0  0  0  1  0  0  0  0  0  0
  160.5430  205.1970  150.8070 C   0  0  0  0  0  0  0  0  0  0  0  0
  161.1840  203.2680  148.8080 C   0  0  0  0  0  0  0  0  0  0  0  0
  162.0690  209.9790  157.1130 N   0  0  0  0  0  2  0  0  0  0  0  0
  162.9730  210.9180  156.5270 C   0  0  0  0  0  0  0  0  0  0  0  0
  163.4850  210.6990  155.3970 O   0  0  0  0  0  0  0  0  0  0  0  0
  163.3130  212.1640  157.2610 C   0  0  0  0  0  1  0  0  0  0  0  0
  2 24  1  0  0  0  0
  3 11  2  0  0  0  0
  4 21  2  0  0  0  0
  4  3  1  0  0  0  0
  5 25  1  0  0  0  0
  6 18  1  0  0  0  0
  6  5  1  0  0  0  0
  7 24  1  6  0  0  0
  7 19  1  0  0  0  0
  9 15  1  0  0  0  0
  9 28  1  0  0  0  0
 10 20  1  0  0  0  0
 11 13  1  0  0  0  0
 12  2  2  0  0  0  0
 12  8  1  0  0  0  0
 13 12  1  0  0  0  0
 14 27  1  0  0  0  0
 15 18  2  0  0  0  0
 16  1  1  0  0  0  0
 17  8  1  6  0  0  0
 17  7  1  0  0  0  0
 17 10  1  0  0  0  0
 19 16  1  0  0  0  0
 20 29  1  1  0  0  0
 20  1  1  0  0  0  0
 21 22  1  0  0  0  0
 22 14  2  0  0  0  0
 22 13  1  0  0  0  0
 23 28  1  0  0  0  0
 23 14  1  0  0  0  0
 26  9  1  0  0  0  0
 27  5  2  0  0  0  0
 27  2  1  0  0  0  0
 28  6  2  0  0  0  0
 30 29  1  0  0  0  0
 30 32  1  0  0  0  0
 31 30  2  0  0  0  0
M  END
>  <MODEL>
2

>  <REMARK>
 VINA RESULT:      -7.6      2.589      7.922
  Name = 
  1 active torsions:
  status: ('A' for Active; 'I' for Inactive)
    1  A    between atoms: C_20  and  N_29
                            x       y       z     vdW  Elec       q    Type
                         _______ _______ _______ _____ _____    ______ ____

>  <TORSDO>
F 1

$$$$
=
 OpenBabel11122412573D

 32 37  0  0  1  0  0  0  0  0999 V2000
  161.9480  210.6030  153.3720 C   0  0  0  0  0  2  0  0  0  0  0  0
  161.2800  206.0950  149.9230 C   0  0  0  0  0  0  0  0  0  0  0  0
  160.9110  201.8540  152.1990 C   0  0  0  0  0  3  0  0  0  0  0  0
  160.6990  201.1540  150.9190 C   0  0  0  0  0  3  0  0  0  0  0  0
  161.4620  206.1310  147.3230 C   0  0  0  0  0  0  0  0  0  0  0  0
  161.0720  205.4370  146.2520 C   0  0  0  0  0  0  0  0  0  0  0  0
  161.7460  208.1240  151.2000 N   0  0  2  0  0  0  0  0  0  0  0  0
  161.0400  206.0790  152.4010 C   0  0  0  0  0  2  0  0  0  0  0  0
  160.5230  203.5900  144.9720 N   0  0  0  0  0  0  0  0  0  0  0  0
  161.4380  208.1420  153.6720 C   0  0  0  0  0  2  0  0  0  0  0  0
  161.1340  203.1720  152.2300 C   0  0  0  0  0  3  0  0  0  0  0  0
  161.1600  205.3840  151.0630 C   0  0  0  0  0  0  0  0  0  0  0  0
  161.1840  203.9420  151.0140 N   0  0  0  0  0  0  0  0  0  0  0  0
  161.1770  203.9350  148.6050 C   0  0  0  0  0  0  0  0  0  0  0  0
  160.6400  204.7380  144.0660 C   0  0  0  0  0  3  0  0  0  0  0  0
  162.5570  210.2840  152.0040 C   0  0  0  0  0  2  0  0  0  0  0  0
  160.9460  207.6090  152.3270 C   0  0  1  0  0  3  0  0  0  0  0  0
  160.9790  205.8990  144.9100 N   0  0  0  0  0  0  0  0  0  0  0  0
  161.5770  209.5700  151.0840 C   0  0  0  0  0  2  0  0  0  0  0  0
  160.9500  209.5680  153.8940 C   0  0  1  0  0  3  0  0  0  0  0  0
  160.7640  201.8090  149.7580 C   0  0  0  0  0  3  0  0  0  0  0  0
  161.0620  203.2530  149.7500 C   0  0  0  0  0  0  0  0  0  0  0  0
  160.8630  203.3080  147.3470 N   0  0  0  0  0  2  0  0  0  0  0  0
  161.1540  207.5900  149.9790 C   0  0  0  0  0  2  0  0  0  0  0  0
  161.9440  207.5340  147.1430 C   0  0  0  0  0  1  0  0  0  0  0  0
  160.4240  202.2040  144.5510 C   0  0  0  0  0  1  0  0  0  0  0  0
  161.6760  205.3820  148.6400 C   0  0  0  0  0  0  0  0  0  0  0  0
  160.8080  204.0390  146.2790 C   0  0  0  0  0  0  0  0  0  0  0  0
  160.7180  209.7990  155.3120 N   0  0  0  0  0  2  0  0  0  0  0  0
  159.6140  210.5660  155.7970 C   0  0  0  0  0  0  0  0  0  0  0  0
  158.7990  211.0980  154.9970 O   0  0  0  0  0  0  0  0  0  0  0  0
  159.4280  210.7400  157.2610 C   0  0  0  0  0  1  0  0  0  0  0  0
  1 20  1  0  0  0  0
  2 24  1  0  0  0  0
  2 12  2  0  0  0  0
  3 11  2  0  0  0  0
  4  3  1  0  0  0  0
  5 27  2  0  0  0  0
  6 28  2  0  0  0  0
  6  5  1  0  0  0  0
  7 24  1  6  0  0  0
  7 17  1  0  0  0  0
  9 28  1  0  0  0  0
 10 20  1  0  0  0  0
 12  8  1  0  0  0  0
 13 12  1  0  0  0  0
 13 11  1  0  0  0  0
 14 27  1  0  0  0  0
 14 22  2  0  0  0  0
 15 18  2  0  0  0  0
 15  9  1  0  0  0  0
 16  1  1  0  0  0  0
 17  8  1  1  0  0  0
 17 10  1  0  0  0  0
 18  6  1  0  0  0  0
 19  7  1  0  0  0  0
 19 16  1  0  0  0  0
 20 29  1  1  0  0  0
 21  4  2  0  0  0  0
 22 21  1  0  0  0  0
 22 13  1  0  0  0  0
 23 14  1  0  0  0  0
 25  5  1  0  0  0  0
 26  9  1  0  0  0  0
 27  2  1  0  0  0  0
 28 23  1  0  0  0  0
 29 30  1  0  0  0  0
 30 32  1  0  0  0  0
 31 30  2  0  0  0  0
M  END
>  <MODEL>
3

>  <REMARK>
 VINA RESULT:      -7.5      2.671      8.979
  Name = 
  1 active torsions:
  status: ('A' for Active; 'I' for Inactive)
    1  A    between atoms: C_20  and  N_29
                            x       y       z     vdW  Elec       q    Type
                         _______ _______ _______ _____ _____    ______ ____

>  <TORSDO>
F 1

$$$$
=
 OpenBabel11122412573D

 32 37  0  0  1  0  0  0  0  0999 V2000
  161.2490  214.3570  147.2060 C   0  0  0  0  0  2  0  0  0  0  0  0
  161.0570  210.3580  151.2840 C   0  0  0  0  0  0  0  0  0  0  0  0
  161.8850  205.8620  149.7370 C   0  0  0  0  0  3  0  0  0  0  0  0
  161.7910  205.3410  151.1140 C   0  0  0  0  0  3  0  0  0  0  0  0
  160.2870  210.7350  153.7460 C   0  0  0  0  0  0  0  0  0  0  0  0
  160.4140  210.1960  154.9600 C   0  0  0  0  0  0  0  0  0  0  0  0
  160.9200  212.1910  149.6760 N   0  0  2  0  0  0  0  0  0  0  0  0
  161.8570  210.0190  148.9510 C   0  0  0  0  0  2  0  0  0  0  0  0
  160.6330  208.5460  156.5660 N   0  0  0  0  0  0  0  0  0  0  0  0
  161.7850  211.8880  147.3600 C   0  0  0  0  0  2  0  0  0  0  0  0
  161.6910  207.1590  149.4820 C   0  0  0  0  0  3  0  0  0  0  0  0
  161.4260  209.5050  150.3070 C   0  0  0  0  0  0  0  0  0  0  0  0
  161.3740  208.0820  150.5410 N   0  0  0  0  0  0  0  0  0  0  0  0
  160.8300  208.3940  152.8670 C   0  0  0  0  0  0  0  0  0  0  0  0
  160.3260  209.8010  157.2600 C   0  0  0  0  0  3  0  0  0  0  0  0
  160.3400  214.2110  148.4290 C   0  0  0  0  0  2  0  0  0  0  0  0
  161.9500  211.5470  148.8410 C   0  0  1  0  0  3  0  0  0  0  0  0
  160.2040  210.8330  156.2150 N   0  0  0  0  0  0  0  0  0  0  0  0
  161.0760  213.6430  149.6350 C   0  0  0  0  0  2  0  0  0  0  0  0
  162.3270  213.2810  147.0670 C   0  0  1  0  0  3  0  0  0  0  0  0
  161.4700  206.1430  152.1320 C   0  0  0  0  0  3  0  0  0  0  0  0
  161.1960  207.5690  151.8790 C   0  0  0  0  0  0  0  0  0  0  0  0
  160.8410  207.9450  154.2350 N   0  0  0  0  0  0  0  0  0  0  0  0
  161.2110  211.8350  151.0610 C   0  0  0  0  0  2  0  0  0  0  0  0
  159.7940  212.1400  153.6230 C   0  0  0  0  0  1  0  0  0  0  0  0
  160.6170  207.2290  157.1790 C   0  0  0  0  0  1  0  0  0  0  0  0
  160.3700  209.8140  152.5270 C   0  0  2  0  0  3  0  0  0  0  0  0
  160.6600  208.8120  155.1800 C   0  0  0  0  0  0  0  0  0  0  0  0
  162.8800  213.3270  145.7210 N   0  0  0  0  0  2  0  0  0  0  0  0
  162.0880  213.0980  144.5550 C   0  0  0  0  0  0  0  0  0  0  0  0
  160.8630  212.8200  144.6530 O   0  0  0  0  0  0  0  0  0  0  0  0
  162.7180  213.1840  143.2120 C   0  0  0  0  0  1  0  0  0  0  0  0
  1 16  1  0  0  0  0
  3  4  1  0  0  0  0
  4 21  2  0  0  0  0
  5  6  2  0  0  0  0
  6 28  1  0  0  0  0
  6 18  1  0  0  0  0
  7 19  1  1  0  0  0
  7 24  1  0  0  0  0
  8 12  1  0  0  0  0
  9 26  1  0  0  0  0
  9 15  1  0  0  0  0
 11  3  2  0  0  0  0
 11 13  1  0  0  0  0
 12 13  1  0  0  0  0
 12  2  2  0  0  0  0
 13 22  1  0  0  0  0
 14 23  1  0  0  0  0
 16 19  1  0  0  0  0
 17 10  1  6  0  0  0
 17  8  1  0  0  0  0
 17  7  1  0  0  0  0
 18 15  2  0  0  0  0
 20 29  1  6  0  0  0
 20  1  1  0  0  0  0
 20 10  1  0  0  0  0
 22 21  1  0  0  0  0
 22 14  2  0  0  0  0
 23 28  2  0  0  0  0
 24  2  1  0  0  0  0
 25  5  1  0  0  0  0
 27  2  1  6  0  0  0
 27 14  1  0  0  0  0
 27  5  1  0  0  0  0
 28  9  1  0  0  0  0
 30 31  2  0  0  0  0
 30 29  1  0  0  0  0
 32 30  1  0  0  0  0
M  END
>  <MODEL>
4

>  <REMARK>
 VINA RESULT:      -7.1      3.084      6.930
  Name = 
  1 active torsions:
  status: ('A' for Active; 'I' for Inactive)
    1  A    between atoms: C_20  and  N_29
                            x       y       z     vdW  Elec       q    Type
                         _______ _______ _______ _____ _____    ______ ____

>  <TORSDO>
F 1

$$$$
