=
 OpenBabel11122414143D

 28 32  0  0  1  0  0  0  0  0999 V2000
  160.9770  209.1780  154.9190 C   0  0  0  0  0  0  0  0  0  0  0  0
  157.7110  210.7040  155.0740 F   0  0  0  0  0  0  0  0  0  0  0  0
  161.1820  212.4250  149.9400 O   0  0  0  0  0  0  0  0  0  0  0  0
  162.2070  210.2470  157.2610 C   0  0  0  0  0  2  0  0  0  0  0  0
  159.2970  213.0390  151.3330 C   0  0  2  0  0  3  0  0  0  0  0  0
  160.1340  208.5080  153.8790 C   0  0  0  0  0  2  0  0  0  0  0  0
  158.9290  211.1400  157.0510 C   0  0  0  0  0  1  0  0  0  0  0  0
  158.3050  211.7250  155.7990 C   0  0  1  0  0  0  0  0  0  0  0  0
  156.6430  213.4940  155.1260 C   0  0  0  0  0  0  0  0  0  0  0  0
  159.3680  212.4690  154.9490 C   0  0  2  0  0  3  0  0  0  0  0  0
  161.6160  207.9470  150.3840 C   0  0  0  0  0  1  0  0  0  0  0  0
  159.7020  211.1630  152.9020 C   0  0  1  0  0  3  0  0  0  0  0  0
  157.3490  213.7740  154.0310 C   0  0  0  0  0  3  0  0  0  0  0  0
  157.2300  212.7070  156.2580 C   0  0  0  0  0  2  0  0  0  0  0  0
  160.9500  208.7330  151.4920 C   0  0  2  0  0  3  0  0  0  0  0  0
  161.1130  210.5250  155.0240 C   0  0  0  0  0  0  0  0  0  0  0  0
  160.4560  212.2040  150.9460 C   0  0  0  0  0  0  0  0  0  0  0  0
  155.3470  214.0570  155.2770 N   0  0  0  0  0  1  0  0  0  0  0  0
  161.6600  210.0710  151.6450 C   0  0  0  0  0  2  0  0  0  0  0  0
  162.1430  211.0780  155.9780 C   0  0  0  0  0  2  0  0  0  0  0  0
  161.7220  208.2950  155.8460 C   0  0  0  0  0  3  0  0  0  0  0  0
  162.3310  208.7900  156.9250 C   0  0  0  0  0  3  0  0  0  0  0  0
  161.0160  207.9230  152.7820 C   0  0  0  0  0  2  0  0  0  0  0  0
  158.7430  212.3170  152.5680 C   0  0  1  0  0  3  0  0  0  0  0  0
  160.6850  211.1360  151.8400 N   0  0  0  0  0  0  0  0  0  0  0  0
  158.7340  213.2450  153.7810 C   0  0  2  0  0  3  0  0  0  0  0  0
  158.2520  213.0250  150.2340 C   0  0  0  0  0  1  0  0  0  0  0  0
  160.3500  211.5540  154.2160 C   0  0  2  0  0  3  0  0  0  0  0  0
  1 16  2  0  0  0  0
  1 21  1  0  0  0  0
  2  8  1  0  0  0  0
  3 17  2  0  0  0  0
  5 27  1  6  0  0  0
  5 24  1  0  0  0  0
  6  1  1  0  0  0  0
  8 14  1  0  0  0  0
  8  7  1  1  0  0  0
  9 18  1  0  0  0  0
  9 14  1  0  0  0  0
 10  8  1  0  0  0  0
 11 15  1  0  0  0  0
 12 28  1  0  0  0  0
 13  9  2  0  0  0  0
 15 19  1  0  0  0  0
 15 23  1  0  0  0  0
 16 20  1  0  0  0  0
 17  5  1  0  0  0  0
 17 25  1  0  0  0  0
 19 25  1  0  0  0  0
 20  4  1  0  0  0  0
 21 22  2  0  0  0  0
 22  4  1  0  0  0  0
 23  6  1  0  0  0  0
 24 12  1  0  0  0  0
 24 26  1  0  0  0  0
 25 12  1  0  0  0  0
 26 13  1  0  0  0  0
 26 10  1  0  0  0  0
 28 10  1  0  0  0  0
 28 16  1  0  0  0  0
M  END
>  <MODEL>
1

>  <REMARK>
 VINA RESULT:      -5.7      0.000      0.000
  Name = 
  0 active torsions:
  status: ('A' for Active; 'I' for Inactive)
                            x       y       z     vdW  Elec       q    Type
                         _______ _______ _______ _____ _____    ______ ____

>  <TORSDO>
F 0

$$$$
=
 OpenBabel11122414143D

 28 32  0  0  1  0  0  0  0  0999 V2000
  160.0640  210.1530  138.2880 C   0  0  0  0  0  0  0  0  0  0  0  0
  160.2080  211.0260  141.7870 F   0  0  0  0  0  0  0  0  0  0  0  0
  155.9450  214.4420  138.3930 O   0  0  0  0  0  0  0  0  0  0  0  0
  162.6930  210.8490  137.4270 C   0  0  0  0  0  2  0  0  0  0  0  0
  157.2370  214.3920  140.4420 C   0  0  2  0  0  3  0  0  0  0  0  0
  158.8240  209.6070  138.9250 C   0  0  0  0  0  2  0  0  0  0  0  0
  162.3470  211.1970  140.7960 C   0  0  0  0  0  1  0  0  0  0  0  0
  161.1920  211.9390  141.4410 C   0  0  1  0  0  0  0  0  0  0  0  0
  160.7490  213.5060  143.3620 C   0  0  0  0  0  0  0  0  0  0  0  0
  160.6350  213.0270  140.4870 C   0  0  2  0  0  3  0  0  0  0  0  0
  155.4600  210.1220  137.1510 C   0  0  0  0  0  1  0  0  0  0  0  0
  158.4000  212.3020  139.7880 C   0  0  1  0  0  3  0  0  0  0  0  0
  159.8170  214.1450  142.6550 C   0  0  0  0  0  3  0  0  0  0  0  0
  161.7390  212.5930  142.7070 C   0  0  0  0  0  2  0  0  0  0  0  0
  156.6370  210.5080  138.0210 C   0  0  2  0  0  3  0  0  0  0  0  0
  160.4690  211.4430  138.4150 C   0  0  0  0  0  0  0  0  0  0  0  0
  156.8000  213.8760  139.1250 C   0  0  0  0  0  0  0  0  0  0  0  0
  160.8840  213.7920  144.7480 N   0  0  0  0  0  1  0  0  0  0  0  0
  157.1450  211.8760  137.5860 C   0  0  0  0  0  2  0  0  0  0  0  0
  161.6190  211.9290  137.5680 C   0  0  0  0  0  2  0  0  0  0  0  0
  160.8510  209.2210  137.4490 C   0  0  0  0  0  3  0  0  0  0  0  0
  162.0680  209.5510  137.0110 C   0  0  0  0  0  3  0  0  0  0  0  0
  157.7230  209.4470  137.8820 C   0  0  0  0  0  2  0  0  0  0  0  0
  158.2250  213.3220  140.9250 C   0  0  1  0  0  3  0  0  0  0  0  0
  157.4630  212.6870  138.7540 N   0  0  0  0  0  0  0  0  0  0  0  0
  159.6010  213.9320  141.1830 C   0  0  2  0  0  3  0  0  0  0  0  0
  156.0600  214.4530  141.3960 C   0  0  0  0  0  1  0  0  0  0  0  0
  159.8270  212.4860  139.3070 C   0  0  2  0  0  3  0  0  0  0  0  0
  1 16  2  0  0  0  0
  1  6  1  0  0  0  0
  3 17  2  0  0  0  0
  4 20  1  0  0  0  0
  5 24  1  0  0  0  0
  5 27  1  1  0  0  0
  8  7  1  6  0  0  0
  8  2  1  0  0  0  0
  8 14  1  0  0  0  0
  9 18  1  0  0  0  0
 10 26  1  0  0  0  0
 10  8  1  0  0  0  0
 11 15  1  0  0  0  0
 12 24  1  0  0  0  0
 13  9  2  0  0  0  0
 14  9  1  0  0  0  0
 16 28  1  0  0  0  0
 17  5  1  0  0  0  0
 19 15  1  0  0  0  0
 19 25  1  0  0  0  0
 20 16  1  0  0  0  0
 21  1  1  0  0  0  0
 22  4  1  0  0  0  0
 22 21  2  0  0  0  0
 23 15  1  0  0  0  0
 23  6  1  0  0  0  0
 24 26  1  0  0  0  0
 25 17  1  0  0  0  0
 25 12  1  0  0  0  0
 26 13  1  0  0  0  0
 28 12  1  0  0  0  0
 28 10  1  0  0  0  0
M  END
>  <MODEL>
2

>  <REMARK>
 VINA RESULT:      -4.6     11.456     14.713
  Name = 
  0 active torsions:
  status: ('A' for Active; 'I' for Inactive)
                            x       y       z     vdW  Elec       q    Type
                         _______ _______ _______ _____ _____    ______ ____

>  <TORSDO>
F 0

$$$$
=
 OpenBabel11122414143D

 28 32  0  0  1  0  0  0  0  0999 V2000
  162.9070  211.6700  139.2930 C   0  0  0  0  0  0  0  0  0  0  0  0
  160.9700  212.2480  142.2830 F   0  0  0  0  0  0  0  0  0  0  0  0
  157.4340  211.2000  137.0130 O   0  0  0  0  0  0  0  0  0  0  0  0
  164.2600  214.1650  139.0100 C   0  0  0  0  0  2  0  0  0  0  0  0
  157.3940  212.1170  139.2550 C   0  0  2  0  0  3  0  0  0  0  0  0
  162.3330  210.3500  139.7030 C   0  0  0  0  0  2  0  0  0  0  0  0
  162.4690  214.0350  141.9020 C   0  0  0  0  0  1  0  0  0  0  0  0
  161.0190  213.5960  141.9620 C   0  0  1  0  0  0  0  0  0  0  0  0
  158.8760  214.1990  143.1420 C   0  0  0  0  0  0  0  0  0  0  0  0
  160.3010  213.8780  140.6170 C   0  0  2  0  0  3  0  0  0  0  0  0
  160.7420  208.1180  137.0160 C   0  0  0  0  0  1  0  0  0  0  0  0
  159.8160  211.7080  139.5860 C   0  0  1  0  0  3  0  0  0  0  0  0
  158.1670  213.9010  142.0540 C   0  0  0  0  0  3  0  0  0  0  0  0
  160.3590  214.4020  143.0790 C   0  0  0  0  0  2  0  0  0  0  0  0
  160.7940  209.2510  138.0170 C   0  0  2  0  0  3  0  0  0  0  0  0
  162.1660  212.7970  139.1390 C   0  0  0  0  0  0  0  0  0  0  0  0
  158.0370  211.4840  138.0820 C   0  0  0  0  0  0  0  0  0  0  0  0
  158.1970  214.4510  144.3650 N   0  0  0  0  0  1  0  0  0  0  0  0
  160.2800  210.5220  137.3530 C   0  0  0  0  0  2  0  0  0  0  0  0
  162.8160  214.0160  138.5310 C   0  0  0  0  0  2  0  0  0  0  0  0
  164.3600  211.7080  139.0110 C   0  0  0  0  0  3  0  0  0  0  0  0
  164.9970  212.8690  138.8420 C   0  0  0  0  0  3  0  0  0  0  0  0
  162.2310  209.4220  138.4960 C   0  0  0  0  0  2  0  0  0  0  0  0
  158.5330  212.1910  140.2800 C   0  0  1  0  0  3  0  0  0  0  0  0
  159.4170  211.2530  138.2720 N   0  0  0  0  0  0  0  0  0  0  0  0
  158.7840  213.6350  140.7090 C   0  0  2  0  0  3  0  0  0  0  0  0
  156.2940  211.2210  139.7940 C   0  0  0  0  0  1  0  0  0  0  0  0
  160.6960  212.9390  139.4770 C   0  0  2  0  0  3  0  0  0  0  0  0
  1  6  1  0  0  0  0
  3 17  2  0  0  0  0
  5 27  1  1  0  0  0
  5 24  1  0  0  0  0
  8  7  1  6  0  0  0
  8  2  1  0  0  0  0
  8 14  1  0  0  0  0
  9 18  1  0  0  0  0
 10 26  1  0  0  0  0
 10  8  1  0  0  0  0
 11 15  1  0  0  0  0
 12 24  1  0  0  0  0
 13  9  2  0  0  0  0
 14  9  1  0  0  0  0
 15 23  1  0  0  0  0
 16  1  2  0  0  0  0
 16 28  1  0  0  0  0
 17 25  1  0  0  0  0
 17  5  1  0  0  0  0
 19 15  1  0  0  0  0
 19 25  1  0  0  0  0
 20  4  1  0  0  0  0
 20 16  1  0  0  0  0
 21  1  1  0  0  0  0
 22  4  1  0  0  0  0
 22 21  2  0  0  0  0
 23  6  1  0  0  0  0
 24 26  1  0  0  0  0
 25 12  1  0  0  0  0
 26 13  1  0  0  0  0
 28 12  1  0  0  0  0
 28 10  1  0  0  0  0
M  END
>  <MODEL>
3

>  <REMARK>
 VINA RESULT:      -3.9     11.783     14.376
  Name = 
  0 active torsions:
  status: ('A' for Active; 'I' for Inactive)
                            x       y       z     vdW  Elec       q    Type
                         _______ _______ _______ _____ _____    ______ ____

>  <TORSDO>
F 0

$$$$
=
 OpenBabel11122414143D

 28 32  0  0  1  0  0  0  0  0999 V2000
  162.5440  211.3090  139.4570 C   0  0  0  0  0  0  0  0  0  0  0  0
  159.6460  212.5550  141.2090 F   0  0  0  0  0  0  0  0  0  0  0  0
  158.3670  207.8520  137.0120 O   0  0  0  0  0  0  0  0  0  0  0  0
  163.3680  213.6280  138.0140 C   0  0  0  0  0  2  0  0  0  0  0  0
  157.3930  209.6740  138.2780 C   0  0  2  0  0  3  0  0  0  0  0  0
  162.1520  210.2610  140.4510 C   0  0  0  0  0  2  0  0  0  0  0  0
  160.7830  214.3170  140.1190 C   0  0  0  0  0  1  0  0  0  0  0  0
  159.5190  213.4820  140.1850 C   0  0  1  0  0  0  0  0  0  0  0  0
  157.0310  213.7780  140.4380 C   0  0  0  0  0  0  0  0  0  0  0  0
  159.2490  212.7820  138.8280 C   0  0  2  0  0  3  0  0  0  0  0  0
  162.0450  206.5950  139.3210 C   0  0  0  0  0  1  0  0  0  0  0  0
  159.5950  210.3800  139.1690 C   0  0  1  0  0  3  0  0  0  0  0  0
  156.8020  212.7500  139.6220 C   0  0  0  0  0  3  0  0  0  0  0  0
  158.3740  214.4370  140.5110 C   0  0  0  0  0  2  0  0  0  0  0  0
  161.5250  208.0060  139.4810 C   0  0  2  0  0  3  0  0  0  0  0  0
  161.6810  211.8600  138.5650 C   0  0  0  0  0  0  0  0  0  0  0  0
  158.5070  208.8220  137.8030 C   0  0  0  0  0  0  0  0  0  0  0  0
  155.9460  214.3400  141.1650 N   0  0  0  0  0  1  0  0  0  0  0  0
  161.0110  208.5000  138.1350 C   0  0  0  0  0  2  0  0  0  0  0  0
  162.2300  212.7560  137.4820 C   0  0  0  0  0  2  0  0  0  0  0  0
  163.9670  211.7180  139.4430 C   0  0  0  0  0  3  0  0  0  0  0  0
  164.3690  212.7810  138.7430 C   0  0  0  0  0  3  0  0  0  0  0  0
  162.6520  208.8930  139.9990 C   0  0  0  0  0  2  0  0  0  0  0  0
  158.0840  210.6480  139.2410 C   0  0  1  0  0  3  0  0  0  0  0  0
  159.7600  209.2260  138.3120 N   0  0  0  0  0  0  0  0  0  0  0  0
  157.8730  212.0930  138.7960 C   0  0  2  0  0  3  0  0  0  0  0  0
  156.3860  208.8390  139.0460 C   0  0  0  0  0  1  0  0  0  0  0  0
  160.1860  211.6150  138.5160 C   0  0  2  0  0  3  0  0  0  0  0  0
  1  6  1  0  0  0  0
  3 17  2  0  0  0  0
  4 22  1  0  0  0  0
  5 27  1  1  0  0  0
  5 24  1  0  0  0  0
  8  7  1  6  0  0  0
  8 14  1  0  0  0  0
  8  2  1  0  0  0  0
  9 14  1  0  0  0  0
  9 18  1  0  0  0  0
 10  8  1  0  0  0  0
 11 15  1  0  0  0  0
 12 24  1  0  0  0  0
 13  9  2  0  0  0  0
 15 23  1  0  0  0  0
 16  1  2  0  0  0  0
 17  5  1  0  0  0  0
 17 25  1  0  0  0  0
 19 25  1  0  0  0  0
 19 15  1  0  0  0  0
 20  4  1  0  0  0  0
 20 16  1  0  0  0  0
 21  1  1  0  0  0  0
 22 21  2  0  0  0  0
 23  6  1  0  0  0  0
 25 12  1  0  0  0  0
 26 10  1  0  0  0  0
 26 24  1  0  0  0  0
 26 13  1  0  0  0  0
 28 16  1  0  0  0  0
 28 10  1  0  0  0  0
 28 12  1  0  0  0  0
M  END
>  <MODEL>
4

>  <REMARK>
 VINA RESULT:      -3.8     13.779     15.029
  Name = 
  0 active torsions:
  status: ('A' for Active; 'I' for Inactive)
                            x       y       z     vdW  Elec       q    Type
                         _______ _______ _______ _____ _____    ______ ____

>  <TORSDO>
F 0

$$$$
=
 OpenBabel11122414143D

 28 32  0  0  1  0  0  0  0  0999 V2000
  160.5410  210.9890  151.6030 C   0  0  0  0  0  0  0  0  0  0  0  0
  159.6850  207.4830  151.6380 F   0  0  0  0  0  0  0  0  0  0  0  0
  161.8670  209.7190  157.2610 O   0  0  0  0  0  0  0  0  0  0  0  0
  162.6740  211.0260  149.7090 C   0  0  0  0  0  2  0  0  0  0  0  0
  161.4940  207.7120  155.9560 C   0  0  2  0  0  3  0  0  0  0  0  0
  159.2640  210.8590  152.3740 C   0  0  0  0  0  2  0  0  0  0  0  0
  161.2500  207.9420  149.9290 C   0  0  0  0  0  1  0  0  0  0  0  0
  160.9920  207.2380  151.2470 C   0  0  1  0  0  0  0  0  0  0  0  0
  161.1110  204.9300  152.2480 C   0  0  0  0  0  0  0  0  0  0  0  0
  161.9980  207.7070  152.3300 C   0  0  2  0  0  3  0  0  0  0  0  0
  158.9120  212.7590  155.6900 C   0  0  0  0  0  1  0  0  0  0  0  0
  160.7330  209.0020  153.9820 C   0  0  1  0  0  3  0  0  0  0  0  0
  161.4900  205.4330  153.4220 C   0  0  0  0  0  3  0  0  0  0  0  0
  161.1670  205.7430  150.9910 C   0  0  0  0  0  2  0  0  0  0  0  0
  159.3540  211.6300  154.7850 C   0  0  2  0  0  3  0  0  0  0  0  0
  161.6540  210.2550  151.8630 C   0  0  0  0  0  0  0  0  0  0  0  0
  161.4970  209.1740  156.1870 C   0  0  0  0  0  0  0  0  0  0  0  0
  160.7620  203.5540  152.1650 N   0  0  0  0  0  1  0  0  0  0  0  0
  160.8290  211.3450  155.0340 C   0  0  0  0  0  2  0  0  0  0  0  0
  162.9390  210.6110  151.1570 C   0  0  0  0  0  2  0  0  0  0  0  0
  160.5730  212.0070  150.5290 C   0  0  0  0  0  3  0  0  0  0  0  0
  161.5840  212.0560  149.6590 C   0  0  0  0  0  3  0  0  0  0  0  0
  159.1080  212.0330  153.3350 C   0  0  0  0  0  2  0  0  0  0  0  0
  160.9140  207.5820  154.5420 C   0  0  1  0  0  3  0  0  0  0  0  0
  161.0640  209.9070  155.0610 N   0  0  0  0  0  0  0  0  0  0  0  0
  161.8960  206.8680  153.6160 C   0  0  2  0  0  3  0  0  0  0  0  0
  160.5650  207.0290  156.9430 C   0  0  0  0  0  1  0  0  0  0  0  0
  161.7480  209.1190  152.8610 C   0  0  2  0  0  3  0  0  0  0  0  0
  1 16  2  0  0  0  0
  1  6  1  0  0  0  0
  4 20  1  0  0  0  0
  5 17  1  0  0  0  0
  5 27  1  1  0  0  0
  6 23  1  0  0  0  0
  8  7  1  6  0  0  0
  8  2  1  0  0  0  0
  8 10  1  0  0  0  0
  9 13  2  0  0  0  0
 10 28  1  0  0  0  0
 10 26  1  0  0  0  0
 12 24  1  0  0  0  0
 12 25  1  0  0  0  0
 13 26  1  0  0  0  0
 14  8  1  0  0  0  0
 14  9  1  0  0  0  0
 15 19  1  0  0  0  0
 15 11  1  0  0  0  0
 16 28  1  0  0  0  0
 17  3  2  0  0  0  0
 18  9  1  0  0  0  0
 19 25  1  0  0  0  0
 20 16  1  0  0  0  0
 21  1  1  0  0  0  0
 22  4  1  0  0  0  0
 22 21  2  0  0  0  0
 23 15  1  0  0  0  0
 24  5  1  0  0  0  0
 25 17  1  0  0  0  0
 26 24  1  0  0  0  0
 28 12  1  0  0  0  0
M  END
>  <MODEL>
5

>  <REMARK>
 VINA RESULT:      -3.6      2.746      6.800
  Name = 
  0 active torsions:
  status: ('A' for Active; 'I' for Inactive)
                            x       y       z     vdW  Elec       q    Type
                         _______ _______ _______ _____ _____    ______ ____

>  <TORSDO>
F 0

$$$$
=
 OpenBabel11122414143D

 28 32  0  0  1  0  0  0  0  0999 V2000
  162.4500  212.7540  139.5940 C   0  0  0  0  0  0  0  0  0  0  0  0
  159.3430  214.4410  138.8680 F   0  0  0  0  0  0  0  0  0  0  0  0
  159.9640  212.5860  144.9950 O   0  0  0  0  0  0  0  0  0  0  0  0
  162.2260  210.4340  137.9500 C   0  0  0  0  0  2  0  0  0  0  0  0
  158.3710  213.2540  143.2970 C   0  0  2  0  0  3  0  0  0  0  0  0
  162.5420  214.1190  140.2030 C   0  0  0  0  0  2  0  0  0  0  0  0
  159.6410  212.5880  137.4330 C   0  0  0  0  0  1  0  0  0  0  0  0
  158.8250  213.1930  138.5590 C   0  0  1  0  0  0  0  0  0  0  0  0
  156.4380  213.7860  139.0990 C   0  0  0  0  0  0  0  0  0  0  0  0
  158.8250  212.2640  139.8010 C   0  0  2  0  0  3  0  0  0  0  0  0
  163.8970  214.4530  143.7780 C   0  0  0  0  0  1  0  0  0  0  0  0
  160.1220  213.3910  141.5480 C   0  0  1  0  0  3  0  0  0  0  0  0
  156.6230  213.4630  140.3780 C   0  0  0  0  0  3  0  0  0  0  0  0
  157.4010  213.3560  138.0350 C   0  0  0  0  0  2  0  0  0  0  0  0
  162.8550  214.1800  142.7160 C   0  0  2  0  0  3  0  0  0  0  0  0
  161.4140  211.9030  139.8090 C   0  0  0  0  0  0  0  0  0  0  0  0
  159.7210  212.9240  143.8060 C   0  0  0  0  0  0  0  0  0  0  0  0
  155.2380  214.4470  138.7180 N   0  0  0  0  0  1  0  0  0  0  0  0
  162.1490  212.8700  143.0410 C   0  0  0  0  0  2  0  0  0  0  0  0
  161.5240  210.4840  139.3080 C   0  0  0  0  0  2  0  0  0  0  0  0
  163.5840  212.3230  138.7460 C   0  0  0  0  0  3  0  0  0  0  0  0
  163.5030  211.2190  138.0000 C   0  0  0  0  0  3  0  0  0  0  0  0
  163.5410  214.1140  141.3560 C   0  0  0  0  0  2  0  0  0  0  0  0
  158.6340  213.6440  141.8360 C   0  0  1  0  0  3  0  0  0  0  0  0
  160.7170  213.0020  142.8090 N   0  0  0  0  0  0  0  0  0  0  0  0
  157.8450  212.7490  140.8850 C   0  0  2  0  0  3  0  0  0  0  0  0
  157.8090  214.4510  144.0410 C   0  0  0  0  0  1  0  0  0  0  0  0
  160.1450  212.2320  140.5710 C   0  0  2  0  0  3  0  0  0  0  0  0
  1 16  2  0  0  0  0
  1  6  1  0  0  0  0
  4 22  1  0  0  0  0
  4 20  1  0  0  0  0
  5 17  1  0  0  0  0
  5 27  1  1  0  0  0
  6 23  1  0  0  0  0
  8  7  1  6  0  0  0
  8  2  1  0  0  0  0
  8 10  1  0  0  0  0
  9 13  2  0  0  0  0
 10 28  1  0  0  0  0
 10 26  1  0  0  0  0
 12 24  1  0  0  0  0
 12 25  1  0  0  0  0
 13 26  1  0  0  0  0
 14  8  1  0  0  0  0
 14  9  1  0  0  0  0
 15 19  1  0  0  0  0
 15 11  1  0  0  0  0
 16 28  1  0  0  0  0
 17  3  2  0  0  0  0
 18  9  1  0  0  0  0
 20 16  1  0  0  0  0
 21  1  1  0  0  0  0
 22 21  2  0  0  0  0
 23 15  1  0  0  0  0
 24  5  1  0  0  0  0
 25 19  1  0  0  0  0
 25 17  1  0  0  0  0
 26 24  1  0  0  0  0
 28 12  1  0  0  0  0
M  END
>  <MODEL>
6

>  <REMARK>
 VINA RESULT:      -3.1     10.966     14.163
  Name = 
  0 active torsions:
  status: ('A' for Active; 'I' for Inactive)
                            x       y       z     vdW  Elec       q    Type
                         _______ _______ _______ _____ _____    ______ ____

>  <TORSDO>
F 0

$$$$
=
 OpenBabel11122414143D

 28 32  0  0  1  0  0  0  0  0999 V2000
  161.7210  211.5090  139.5480 C   0  0  0  0  0  0  0  0  0  0  0  0
  160.5680  211.8070  142.9550 F   0  0  0  0  0  0  0  0  0  0  0  0
  156.4870  214.1620  138.5760 O   0  0  0  0  0  0  0  0  0  0  0  0
  164.0570  213.1470  139.6020 C   0  0  0  0  0  2  0  0  0  0  0  0
  157.0890  214.2030  140.9230 C   0  0  2  0  0  3  0  0  0  0  0  0
  160.6340  210.4970  139.7310 C   0  0  0  0  0  2  0  0  0  0  0  0
  162.6890  212.8170  142.7020 C   0  0  0  0  0  1  0  0  0  0  0  0
  161.2160  213.0320  142.9870 C   0  0  1  0  0  0  0  0  0  0  0  0
  159.7270  214.0420  144.7510 C   0  0  0  0  0  0  0  0  0  0  0  0
  160.5940  214.0210  141.9660 C   0  0  2  0  0  3  0  0  0  0  0  0
  157.9410  210.1760  137.0150 C   0  0  0  0  0  1  0  0  0  0  0  0
  159.0540  212.7350  140.5590 C   0  0  1  0  0  3  0  0  0  0  0  0
  158.8640  214.4510  143.8210 C   0  0  0  0  0  3  0  0  0  0  0  0
  161.1180  213.6150  144.3950 C   0  0  0  0  0  2  0  0  0  0  0  0
  158.6120  210.7760  138.2310 C   0  0  2  0  0  3  0  0  0  0  0  0
  161.5870  212.8230  139.8660 C   0  0  0  0  0  0  0  0  0  0  0  0
  157.2490  213.7930  139.5090 C   0  0  0  0  0  0  0  0  0  0  0  0
  159.3620  214.1290  146.1220 N   0  0  0  0  0  1  0  0  0  0  0  0
  158.6970  212.2860  138.0530 C   0  0  0  0  0  2  0  0  0  0  0  0
  162.6750  213.7840  139.4540 C   0  0  0  0  0  2  0  0  0  0  0  0
  162.9890  211.0290  138.9520 C   0  0  0  0  0  3  0  0  0  0  0  0
  164.0780  211.8010  138.9400 C   0  0  0  0  0  3  0  0  0  0  0  0
  159.9980  210.1600  138.3860 C   0  0  0  0  0  2  0  0  0  0  0  0
  158.2190  213.4470  141.6350 C   0  0  1  0  0  3  0  0  0  0  0  0
  158.3680  212.9570  139.3040 N   0  0  0  0  0  0  0  0  0  0  0  0
  159.1570  214.4180  142.3470 C   0  0  2  0  0  3  0  0  0  0  0  0
  155.7520  213.7260  141.4570 C   0  0  0  0  0  1  0  0  0  0  0  0
  160.3940  213.4440  140.5640 C   0  0  2  0  0  3  0  0  0  0  0  0
  1  6  1  0  0  0  0
  1 16  2  0  0  0  0
  2  8  1  0  0  0  0
  3 17  2  0  0  0  0
  5 27  1  1  0  0  0
  5 24  1  0  0  0  0
  8  7  1  6  0  0  0
  8 14  1  0  0  0  0
  9 18  1  0  0  0  0
 10 26  1  0  0  0  0
 10  8  1  0  0  0  0
 11 15  1  0  0  0  0
 12 28  1  0  0  0  0
 12 24  1  0  0  0  0
 13  9  2  0  0  0  0
 14  9  1  0  0  0  0
 15 23  1  0  0  0  0
 16 28  1  0  0  0  0
 17  5  1  0  0  0  0
 19 15  1  0  0  0  0
 19 25  1  0  0  0  0
 20  4  1  0  0  0  0
 20 16  1  0  0  0  0
 21  1  1  0  0  0  0
 22 21  2  0  0  0  0
 22  4  1  0  0  0  0
 23  6  1  0  0  0  0
 24 26  1  0  0  0  0
 25 17  1  0  0  0  0
 25 12  1  0  0  0  0
 26 13  1  0  0  0  0
 28 10  1  0  0  0  0
M  END
>  <MODEL>
7

>  <REMARK>
 VINA RESULT:      -3.1     10.426     13.599
  Name = 
  0 active torsions:
  status: ('A' for Active; 'I' for Inactive)
                            x       y       z     vdW  Elec       q    Type
                         _______ _______ _______ _____ _____    ______ ____

>  <TORSDO>
F 0

$$$$
=
 OpenBabel11122414143D

 28 32  0  0  1  0  0  0  0  0999 V2000
  158.8750  213.4740  141.8610 C   0  0  0  0  0  0  0  0  0  0  0  0
  161.8400  214.2370  139.9500 F   0  0  0  0  0  0  0  0  0  0  0  0
  159.3230  208.4490  138.7110 O   0  0  0  0  0  0  0  0  0  0  0  0
  159.9070  213.4770  144.5210 C   0  0  0  0  0  2  0  0  0  0  0  0
  161.3280  209.7980  138.5340 C   0  0  2  0  0  3  0  0  0  0  0  0
  158.4310  213.7500  140.4590 C   0  0  0  0  0  2  0  0  0  0  0  0
  162.2630  214.4500  142.2650 C   0  0  0  0  0  1  0  0  0  0  0  0
  162.5640  213.6820  140.9930 C   0  0  1  0  0  0  0  0  0  0  0  0
  164.5350  213.0010  139.5800 C   0  0  0  0  0  0  0  0  0  0  0  0
  162.2300  212.1770  141.1670 C   0  0  2  0  0  3  0  0  0  0  0  0
  155.8860  211.3820  138.8320 C   0  0  0  0  0  1  0  0  0  0  0  0
  160.2920  211.6960  139.7470 C   0  0  1  0  0  3  0  0  0  0  0  0
  163.9510  211.8410  139.2840 C   0  0  0  0  0  3  0  0  0  0  0  0
  164.0560  213.8510  140.7160 C   0  0  0  0  0  2  0  0  0  0  0  0
  157.2560  211.8390  139.2830 C   0  0  2  0  0  3  0  0  0  0  0  0
  159.8570  212.5900  142.1790 C   0  0  0  0  0  0  0  0  0  0  0  0
  159.9280  209.5300  138.9360 C   0  0  0  0  0  0  0  0  0  0  0  0
  165.7130  213.3820  138.8830 N   0  0  0  0  0  1  0  0  0  0  0  0
  157.9400  210.6950  140.0200 C   0  0  0  0  0  2  0  0  0  0  0  0
  160.0810  212.2460  143.6310 C   0  0  0  0  0  2  0  0  0  0  0  0
  158.1610  214.1910  142.9420 C   0  0  0  0  0  3  0  0  0  0  0  0
  158.6160  214.1700  144.1970 C   0  0  0  0  0  3  0  0  0  0  0  0
  157.0990  213.0590  140.1830 C   0  0  0  0  0  2  0  0  0  0  0  0
  161.5500  211.2480  138.9860 C   0  0  1  0  0  3  0  0  0  0  0  0
  159.3400  210.6120  139.6270 N   0  0  0  0  0  0  0  0  0  0  0  0
  162.7130  211.3360  139.9710 C   0  0  2  0  0  3  0  0  0  0  0  0
  161.4620  209.7190  137.0250 C   0  0  0  0  0  1  0  0  0  0  0  0
  160.7360  211.8550  141.1880 C   0  0  2  0  0  3  0  0  0  0  0  0
  1 16  2  0  0  0  0
  1 21  1  0  0  0  0
  2  8  1  0  0  0  0
  3 17  2  0  0  0  0
  5 27  1  6  0  0  0
  5 17  1  0  0  0  0
  5 24  1  0  0  0  0
  6  1  1  0  0  0  0
  8 10  1  0  0  0  0
  8  7  1  1  0  0  0
  9 14  1  0  0  0  0
 10 28  1  0  0  0  0
 11 15  1  0  0  0  0
 12 28  1  0  0  0  0
 13  9  2  0  0  0  0
 13 26  1  0  0  0  0
 14  8  1  0  0  0  0
 15 19  1  0  0  0  0
 15 23  1  0  0  0  0
 16 20  1  0  0  0  0
 17 25  1  0  0  0  0
 18  9  1  0  0  0  0
 20  4  1  0  0  0  0
 21 22  2  0  0  0  0
 22  4  1  0  0  0  0
 23  6  1  0  0  0  0
 24 12  1  0  0  0  0
 24 26  1  0  0  0  0
 25 12  1  0  0  0  0
 25 19  1  0  0  0  0
 26 10  1  0  0  0  0
 28 16  1  0  0  0  0
M  END
>  <MODEL>
8

>  <REMARK>
 VINA RESULT:      -2.9     10.985     14.359
  Name = 
  0 active torsions:
  status: ('A' for Active; 'I' for Inactive)
                            x       y       z     vdW  Elec       q    Type
                         _______ _______ _______ _____ _____    ______ ____

>  <TORSDO>
F 0

$$$$
