=
 OpenBabel11122412323D

 30 35  0  0  1  0  0  0  0  0999 V2000
  161.3240  210.6920  150.8790 C   0  0  0  0  0  0  0  0  0  0  0  0
  161.5990  212.3030  148.9870 C   0  0  0  0  0  0  0  0  0  0  0  0
  158.8640  213.3980  153.0730 C   0  0  0  0  0  2  0  0  0  0  0  0
  160.7620  210.4080  152.1440 C   0  0  0  0  0  0  0  0  0  0  0  0
  162.2480  209.6760  150.2680 C   0  0  0  0  0  2  0  0  0  0  0  0
  160.9770  206.7360  152.0280 O   0  0  0  0  0  0  0  0  0  0  0  0
  161.6020  210.0740  154.9330 C   0  0  1  0  0  3  0  0  0  0  0  0
  161.1820  207.9480  151.7460 C   0  0  0  0  0  0  0  0  0  0  0  0
  160.4470  211.0300  155.2260 C   0  0  2  0  0  3  0  0  0  0  0  0
  158.6300  212.4680  154.2810 C   0  0  1  0  0  3  0  0  0  0  0  0
  161.7850  208.3060  150.4930 N   0  0  0  0  0  0  0  0  0  0  0  0
  160.7280  209.0110  152.7050 C   0  0  1  0  0  3  0  0  0  0  0  0
  161.2970  213.5420  148.4170 C   0  0  0  0  0  3  0  0  0  0  0  0
  159.7570  210.4910  156.4560 C   0  0  0  0  0  2  0  0  0  0  0  0
  162.0730  209.6800  156.3240 C   0  0  0  0  0  2  0  0  0  0  0  0
  162.3920  211.4590  148.2810 F   0  0  0  0  0  0  0  0  0  0  0  0
  159.7340  212.5830  152.1860 C   0  0  0  0  0  0  0  0  0  0  0  0
  160.4770  214.4530  149.0830 C   0  0  0  0  0  3  0  0  0  0  0  0
  161.0730  211.9530  150.2570 C   0  0  0  0  0  0  0  0  0  0  0  0
  160.0330  211.4020  152.7910 C   0  0  0  0  0  0  0  0  0  0  0  0
  157.1920  211.9860  154.2800 C   0  0  0  0  0  1  0  0  0  0  0  0
  159.5340  211.3260  154.1180 N   0  0  0  0  0  0  0  0  0  0  0  0
  160.8760  209.8480  157.2610 C   0  0  0  0  0  2  0  0  0  0  0  0
  160.3670  207.9760  154.8280 O   0  0  0  0  0  1  0  0  0  0  0  0
  159.9510  214.1340  150.3320 C   0  0  0  0  0  3  0  0  0  0  0  0
  160.2400  212.9000  150.9240 C   0  0  0  0  0  0  0  0  0  0  0  0
  161.2530  208.8020  154.1300 C   0  0  2  0  0  3  0  0  0  0  0  0
  162.0710  207.2570  149.5130 C   0  0  0  0  0  2  0  0  0  0  0  0
  160.3970  206.2060  148.5300 C   0  0  0  0  0  1  0  0  0  0  0  0
  161.2080  207.3350  148.4170 O   0  0  0  0  0  0  0  0  0  0  0  0
  1  4  1  0  0  0  0
  2 19  1  0  0  0  0
  3 10  1  0  0  0  0
  4 12  1  0  0  0  0
  4 20  2  0  0  0  0
  5 11  1  0  0  0  0
  5  1  1  0  0  0  0
  7  9  1  0  0  0  0
  7 15  1  1  0  0  0
  8  6  2  0  0  0  0
  9 14  1  1  0  0  0
 10 21  1  6  0  0  0
 11  8  1  0  0  0  0
 12  8  1  6  0  0  0
 12 27  1  0  0  0  0
 13  2  2  0  0  0  0
 13 18  1  0  0  0  0
 14 23  1  0  0  0  0
 15 23  1  0  0  0  0
 16  2  1  0  0  0  0
 17 20  1  0  0  0  0
 17  3  1  0  0  0  0
 18 25  2  0  0  0  0
 19  1  2  0  0  0  0
 19 26  1  0  0  0  0
 20 22  1  0  0  0  0
 22 10  1  0  0  0  0
 22  9  1  0  0  0  0
 25 26  1  0  0  0  0
 26 17  2  0  0  0  0
 27 24  1  1  0  0  0
 27  7  1  0  0  0  0
 28 11  1  0  0  0  0
 30 29  1  0  0  0  0
 30 28  1  0  0  0  0
M  END
>  <MODEL>
1

>  <REMARK>
 VINA RESULT:      -6.9      0.000      0.000
  Name = 
  2 active torsions:
  status: ('A' for Active; 'I' for Inactive)
    1  A    between atoms: N_11  and  C_28
    2  A    between atoms: C_28  and  O_30
                            x       y       z     vdW  Elec       q    Type
                         _______ _______ _______ _____ _____    ______ ____

>  <TORSDO>
F 2

$$$$
=
 OpenBabel11122412323D

 30 35  0  0  1  0  0  0  0  0999 V2000
  161.0320  207.8920  151.2810 C   0  0  0  0  0  0  0  0  0  0  0  0
  161.2880  205.5480  150.4530 C   0  0  0  0  0  0  0  0  0  0  0  0
  160.7980  206.6290  155.3480 C   0  0  0  0  0  2  0  0  0  0  0  0
  160.8760  208.7690  152.3790 C   0  0  0  0  0  0  0  0  0  0  0  0
  161.0030  208.4750  149.8960 C   0  0  0  0  0  2  0  0  0  0  0  0
  162.0400  211.8680  150.7720 O   0  0  0  0  0  0  0  0  0  0  0  0
  158.8380  210.5040  153.5760 C   0  0  1  0  0  3  0  0  0  0  0  0
  161.6180  210.6890  150.9120 C   0  0  0  0  0  0  0  0  0  0  0  0
  159.2360  209.8040  154.8740 C   0  0  2  0  0  3  0  0  0  0  0  0
  160.6460  208.0390  155.9530 C   0  0  1  0  0  3  0  0  0  0  0  0
  161.7090  209.7550  149.8250 N   0  0  0  0  0  0  0  0  0  0  0  0
  161.0800  210.2550  152.2460 C   0  0  1  0  0  3  0  0  0  0  0  0
  161.4010  204.1840  150.7350 C   0  0  0  0  0  3  0  0  0  0  0  0
  159.2860  210.8790  155.9330 C   0  0  0  0  0  2  0  0  0  0  0  0
  157.8600  211.5660  154.0530 C   0  0  0  0  0  2  0  0  0  0  0  0
  161.3530  205.9300  149.1540 F   0  0  0  0  0  0  0  0  0  0  0  0
  160.8920  206.8970  153.8890 C   0  0  0  0  0  0  0  0  0  0  0  0
  161.3550  203.7210  152.0500 C   0  0  0  0  0  3  0  0  0  0  0  0
  161.1250  206.4840  151.5050 C   0  0  0  0  0  0  0  0  0  0  0  0
  160.7420  208.2280  153.6550 C   0  0  0  0  0  0  0  0  0  0  0  0
  161.9160  208.4170  156.6910 C   0  0  0  0  0  1  0  0  0  0  0  0
  160.4330  208.9590  154.8320 N   0  0  0  0  0  0  0  0  0  0  0  0
  158.2140  211.8710  155.5090 C   0  0  0  0  0  2  0  0  0  0  0  0
  160.5660  212.2210  153.5020 O   0  0  0  0  0  1  0  0  0  0  0  0
  161.1930  204.6210  153.1010 C   0  0  0  0  0  3  0  0  0  0  0  0
  161.0770  205.9920  152.8430 C   0  0  0  0  0  0  0  0  0  0  0  0
  159.9790  211.1770  152.7810 C   0  0  2  0  0  3  0  0  0  0  0  0
  162.3820  210.1620  148.5900 C   0  0  0  0  0  2  0  0  0  0  0  0
  162.5460  212.1600  147.6660 C   0  0  0  0  0  1  0  0  0  0  0  0
  161.6410  211.1260  147.9000 O   0  0  0  0  0  0  0  0  0  0  0  0
  1 19  2  0  0  0  0
  1  4  1  0  0  0  0
  2 13  2  0  0  0  0
  2 19  1  0  0  0  0
  3 10  1  0  0  0  0
  4 20  2  0  0  0  0
  5  1  1  0  0  0  0
  6  8  2  0  0  0  0
  7 15  1  1  0  0  0
  7  9  1  0  0  0  0
  9 14  1  1  0  0  0
 10 21  1  6  0  0  0
 11  5  1  0  0  0  0
 11  8  1  0  0  0  0
 12  8  1  6  0  0  0
 12  4  1  0  0  0  0
 12 27  1  0  0  0  0
 13 18  1  0  0  0  0
 15 23  1  0  0  0  0
 16  2  1  0  0  0  0
 17  3  1  0  0  0  0
 18 25  2  0  0  0  0
 19 26  1  0  0  0  0
 20 17  1  0  0  0  0
 20 22  1  0  0  0  0
 22  9  1  0  0  0  0
 22 10  1  0  0  0  0
 23 14  1  0  0  0  0
 26 25  1  0  0  0  0
 26 17  2  0  0  0  0
 27 24  1  1  0  0  0
 27  7  1  0  0  0  0
 28 11  1  0  0  0  0
 29 30  1  0  0  0  0
 30 28  1  0  0  0  0
M  END
>  <MODEL>
2

>  <REMARK>
 VINA RESULT:      -5.7      2.526      5.361
  Name = 
  2 active torsions:
  status: ('A' for Active; 'I' for Inactive)
    1  A    between atoms: N_11  and  C_28
    2  A    between atoms: C_28  and  O_30
                            x       y       z     vdW  Elec       q    Type
                         _______ _______ _______ _____ _____    ______ ____

>  <TORSDO>
F 2

$$$$
=
 OpenBabel11122412323D

 30 35  0  0  1  0  0  0  0  0999 V2000
  160.9750  207.3090  151.2780 C   0  0  0  0  0  0  0  0  0  0  0  0
  160.9890  204.8510  150.8210 C   0  0  0  0  0  0  0  0  0  0  0  0
  160.7970  206.7120  155.4970 C   0  0  0  0  0  2  0  0  0  0  0  0
  160.9420  208.3540  152.2290 C   0  0  0  0  0  0  0  0  0  0  0  0
  160.9420  207.6720  149.8200 C   0  0  0  0  0  2  0  0  0  0  0  0
  162.3100  211.0470  150.1260 O   0  0  0  0  0  0  0  0  0  0  0  0
  159.1170  210.4360  153.1920 C   0  0  1  0  0  3  0  0  0  0  0  0
  161.7910  209.9480  150.4590 C   0  0  0  0  0  0  0  0  0  0  0  0
  159.5040  209.9090  154.5730 C   0  0  2  0  0  3  0  0  0  0  0  0
  160.7940  208.2060  155.8770 C   0  0  1  0  0  3  0  0  0  0  0  0
  161.7550  208.8540  149.5300 N   0  0  0  0  0  0  0  0  0  0  0  0
  161.2720  209.7770  151.8590 C   0  0  1  0  0  3  0  0  0  0  0  0
  160.9910  203.5420  151.3100 C   0  0  0  0  0  3  0  0  0  0  0  0
  159.6920  211.1240  155.4490 C   0  0  0  0  0  2  0  0  0  0  0  0
  158.2570  211.6460  153.5230 C   0  0  0  0  0  2  0  0  0  0  0  0
  161.0340  205.0220  149.4760 F   0  0  0  0  0  0  0  0  0  0  0  0
  160.8540  206.7430  154.0120 C   0  0  0  0  0  0  0  0  0  0  0  0
  160.9590  203.2940  152.6810 C   0  0  0  0  0  3  0  0  0  0  0  0
  160.9520  205.9490  151.7170 C   0  0  0  0  0  0  0  0  0  0  0  0
  160.8130  208.0300  153.5770 C   0  0  0  0  0  0  0  0  0  0  0  0
  162.1220  208.5720  156.5130 C   0  0  0  0  0  1  0  0  0  0  0  0
  160.6190  208.9590  154.6320 N   0  0  0  0  0  0  0  0  0  0  0  0
  158.6960  212.1360  154.9040 C   0  0  0  0  0  2  0  0  0  0  0  0
  160.9850  211.9510  152.8050 O   0  0  0  0  0  1  0  0  0  0  0  0
  160.9200  204.3550  153.5820 C   0  0  0  0  0  3  0  0  0  0  0  0
  160.9160  205.6740  153.1160 C   0  0  0  0  0  0  0  0  0  0  0  0
  160.2800  210.8690  152.2720 C   0  0  2  0  0  3  0  0  0  0  0  0
  162.4100  209.0020  148.2290 C   0  0  0  0  0  2  0  0  0  0  0  0
  162.1170  207.0870  147.1710 C   0  0  0  0  0  1  0  0  0  0  0  0
  163.0750  207.8310  147.8580 O   0  0  0  0  0  0  0  0  0  0  0  0
  1 19  2  0  0  0  0
  1  4  1  0  0  0  0
  2 13  2  0  0  0  0
  2 19  1  0  0  0  0
  3 10  1  0  0  0  0
  4 20  2  0  0  0  0
  5  1  1  0  0  0  0
  6  8  2  0  0  0  0
  7 15  1  1  0  0  0
  7  9  1  0  0  0  0
  9 22  1  0  0  0  0
  9 14  1  1  0  0  0
 10 21  1  6  0  0  0
 11  5  1  0  0  0  0
 11  8  1  0  0  0  0
 12  8  1  6  0  0  0
 12  4  1  0  0  0  0
 12 27  1  0  0  0  0
 13 18  1  0  0  0  0
 15 23  1  0  0  0  0
 16  2  1  0  0  0  0
 17  3  1  0  0  0  0
 18 25  2  0  0  0  0
 19 26  1  0  0  0  0
 20 17  1  0  0  0  0
 20 22  1  0  0  0  0
 22 10  1  0  0  0  0
 23 14  1  0  0  0  0
 26 25  1  0  0  0  0
 26 17  2  0  0  0  0
 27 24  1  1  0  0  0
 27  7  1  0  0  0  0
 28 11  1  0  0  0  0
 29 30  1  0  0  0  0
 30 28  1  0  0  0  0
M  END
>  <MODEL>
3

>  <REMARK>
 VINA RESULT:      -5.5      2.621      5.432
  Name = 
  2 active torsions:
  status: ('A' for Active; 'I' for Inactive)
    1  A    between atoms: N_11  and  C_28
    2  A    between atoms: C_28  and  O_30
                            x       y       z     vdW  Elec       q    Type
                         _______ _______ _______ _____ _____    ______ ____

>  <TORSDO>
F 2

$$$$
=
 OpenBabel11122412323D

 30 35  0  0  1  0  0  0  0  0999 V2000
  161.7150  208.2440  151.8500 C   0  0  0  0  0  0  0  0  0  0  0  0
  162.4050  208.1520  149.4500 C   0  0  0  0  0  0  0  0  0  0  0  0
  160.4240  212.2960  151.5170 C   0  0  0  0  0  2  0  0  0  0  0  0
  161.1620  208.9930  152.9140 C   0  0  0  0  0  0  0  0  0  0  0  0
  162.2130  206.8560  152.1420 C   0  0  0  0  0  2  0  0  0  0  0  0
  160.1360  206.1970  155.0750 O   0  0  0  0  0  0  0  0  0  0  0  0
  161.9970  210.2440  155.4310 C   0  0  1  0  0  3  0  0  0  0  0  0
  160.7160  206.8380  154.1580 C   0  0  0  0  0  0  0  0  0  0  0  0
  161.2450  211.4580  154.8900 C   0  0  2  0  0  3  0  0  0  0  0  0
  159.9610  212.4440  152.9800 C   0  0  1  0  0  3  0  0  0  0  0  0
  161.3330  206.1400  153.0660 N   0  0  0  0  0  0  0  0  0  0  0  0
  160.6960  208.3400  154.1890 C   0  0  1  0  0  3  0  0  0  0  0  0
  162.5020  208.7820  148.2060 C   0  0  0  0  0  3  0  0  0  0  0  0
  160.4840  212.0370  156.0580 C   0  0  0  0  0  2  0  0  0  0  0  0
  162.3870  210.6870  156.8320 C   0  0  0  0  0  2  0  0  0  0  0  0
  162.8310  206.8670  149.5400 F   0  0  0  0  0  0  0  0  0  0  0  0
  160.9220  210.8960  151.4630 C   0  0  0  0  0  0  0  0  0  0  0  0
  162.0710  210.0980  148.0390 C   0  0  0  0  0  3  0  0  0  0  0  0
  161.8650  208.8440  150.5620 C   0  0  0  0  0  0  0  0  0  0  0  0
  160.8440  210.3310  152.6970 C   0  0  0  0  0  0  0  0  0  0  0  0
  158.4460  212.5150  153.0300 C   0  0  0  0  0  1  0  0  0  0  0  0
  160.4230  211.2500  153.6940 N   0  0  0  0  0  0  0  0  0  0  0  0
  161.3680  211.7450  157.2610 C   0  0  0  0  0  2  0  0  0  0  0  0
  160.1300  209.0200  156.4080 O   0  0  0  0  0  1  0  0  0  0  0  0
  161.5400  210.8000  149.1170 C   0  0  0  0  0  3  0  0  0  0  0  0
  161.4330  210.1900  150.3720 C   0  0  0  0  0  0  0  0  0  0  0  0
  161.2000  208.9240  155.5140 C   0  0  2  0  0  3  0  0  0  0  0  0
  161.1980  204.6850  152.9830 C   0  0  0  0  0  2  0  0  0  0  0  0
  161.1700  202.8860  151.7050 C   0  0  0  0  0  1  0  0  0  0  0  0
  161.6230  204.2040  151.7420 O   0  0  0  0  0  0  0  0  0  0  0  0
  1  5  1  0  0  0  0
  1  4  1  0  0  0  0
  2 16  1  0  0  0  0
  2 19  1  0  0  0  0
  3 10  1  0  0  0  0
  5 11  1  0  0  0  0
  7 27  1  0  0  0  0
  7 15  1  1  0  0  0
  8 12  1  0  0  0  0
  8  6  2  0  0  0  0
  9  7  1  0  0  0  0
  9 14  1  1  0  0  0
 10 21  1  6  0  0  0
 10 22  1  0  0  0  0
 11  8  1  0  0  0  0
 12  4  1  6  0  0  0
 12 27  1  0  0  0  0
 13  2  2  0  0  0  0
 14 23  1  0  0  0  0
 15 23  1  0  0  0  0
 17  3  1  0  0  0  0
 17 20  1  0  0  0  0
 18 13  1  0  0  0  0
 18 25  2  0  0  0  0
 19  1  2  0  0  0  0
 20  4  2  0  0  0  0
 20 22  1  0  0  0  0
 22  9  1  0  0  0  0
 25 26  1  0  0  0  0
 26 19  1  0  0  0  0
 26 17  2  0  0  0  0
 27 24  1  1  0  0  0
 28 11  1  0  0  0  0
 29 30  1  0  0  0  0
 30 28  1  0  0  0  0
M  END
>  <MODEL>
4

>  <REMARK>
 VINA RESULT:      -5.2      2.037      3.018
  Name = 
  2 active torsions:
  status: ('A' for Active; 'I' for Inactive)
    1  A    between atoms: N_11  and  C_28
    2  A    between atoms: C_28  and  O_30
                            x       y       z     vdW  Elec       q    Type
                         _______ _______ _______ _____ _____    ______ ____

>  <TORSDO>
F 2

$$$$
=
 OpenBabel11122412323D

 30 35  0  0  1  0  0  0  0  0999 V2000
  161.1360  210.3700  151.1420 C   0  0  0  0  0  0  0  0  0  0  0  0
  161.3710  212.3160  149.5910 C   0  0  0  0  0  0  0  0  0  0  0  0
  158.8230  212.6280  153.9240 C   0  0  0  0  0  2  0  0  0  0  0  0
  160.6180  209.8520  152.3510 C   0  0  0  0  0  0  0  0  0  0  0  0
  162.0140  209.4810  150.3060 C   0  0  0  0  0  2  0  0  0  0  0  0
  160.7500  206.2710  151.5120 O   0  0  0  0  0  0  0  0  0  0  0  0
  161.5600  208.9680  154.9830 C   0  0  1  0  0  3  0  0  0  0  0  0
  160.9700  207.5110  151.4630 C   0  0  0  0  0  0  0  0  0  0  0  0
  160.4380  209.8630  155.5050 C   0  0  2  0  0  3  0  0  0  0  0  0
  158.6160  211.4830  154.9360 C   0  0  1  0  0  3  0  0  0  0  0  0
  161.5310  208.1000  150.2790 N   0  0  0  0  0  0  0  0  0  0  0  0
  160.5770  208.3720  152.6300 C   0  0  1  0  0  3  0  0  0  0  0  0
  161.0740  213.6470  149.2860 C   0  0  0  0  0  3  0  0  0  0  0  0
  159.7840  209.1040  156.6350 C   0  0  0  0  0  2  0  0  0  0  0  0
  162.0760  208.3030  156.2490 C   0  0  0  0  0  2  0  0  0  0  0  0
  162.1180  211.6160  148.7000 F   0  0  0  0  0  0  0  0  0  0  0  0
  159.6400  211.9900  152.8590 C   0  0  0  0  0  0  0  0  0  0  0  0
  160.3010  214.4210  150.1510 C   0  0  0  0  0  3  0  0  0  0  0  0
  160.8890  211.7320  150.7890 C   0  0  0  0  0  0  0  0  0  0  0  0
  159.9370  210.7100  153.2090 C   0  0  0  0  0  0  0  0  0  0  0  0
  157.1690  211.0290  154.9020 C   0  0  0  0  0  1  0  0  0  0  0  0
  159.4890  210.3830  154.5160 N   0  0  0  0  0  0  0  0  0  0  0  0
  160.9200  208.3000  157.2500 C   0  0  0  0  0  2  0  0  0  0  0  0
  160.2770  206.9480  154.5230 O   0  0  0  0  0  1  0  0  0  0  0  0
  159.8170  213.8710  151.3350 C   0  0  0  0  0  3  0  0  0  0  0  0
  160.1030  212.5410  151.6620 C   0  0  0  0  0  0  0  0  0  0  0  0
  161.1520  207.8820  153.9620 C   0  0  2  0  0  3  0  0  0  0  0  0
  161.7560  207.2590  149.1030 C   0  0  0  0  0  2  0  0  0  0  0  0
  161.7500  205.2120  148.2770 C   0  0  0  0  0  1  0  0  0  0  0  0
  161.9460  205.9220  149.4610 O   0  0  0  0  0  0  0  0  0  0  0  0
  1  4  1  0  0  0  0
  2 19  1  0  0  0  0
  3 10  1  0  0  0  0
  4 12  1  0  0  0  0
  4 20  2  0  0  0  0
  5  1  1  0  0  0  0
  7  9  1  0  0  0  0
  7 15  1  1  0  0  0
  8  6  2  0  0  0  0
  9 14  1  1  0  0  0
 10 21  1  6  0  0  0
 11  5  1  0  0  0  0
 11  8  1  0  0  0  0
 12  8  1  6  0  0  0
 12 27  1  0  0  0  0
 13  2  2  0  0  0  0
 13 18  1  0  0  0  0
 14 23  1  0  0  0  0
 15 23  1  0  0  0  0
 16  2  1  0  0  0  0
 17 20  1  0  0  0  0
 17  3  1  0  0  0  0
 18 25  2  0  0  0  0
 19  1  2  0  0  0  0
 19 26  1  0  0  0  0
 20 22  1  0  0  0  0
 22 10  1  0  0  0  0
 22  9  1  0  0  0  0
 25 26  1  0  0  0  0
 26 17  2  0  0  0  0
 27 24  1  1  0  0  0
 27  7  1  0  0  0  0
 28 30  1  0  0  0  0
 28 11  1  0  0  0  0
 29 30  1  0  0  0  0
M  END
>  <MODEL>
5

>  <REMARK>
 VINA RESULT:      -5.0      0.970      1.020
  Name = 
  2 active torsions:
  status: ('A' for Active; 'I' for Inactive)
    1  A    between atoms: N_11  and  C_28
    2  A    between atoms: C_28  and  O_30
                            x       y       z     vdW  Elec       q    Type
                         _______ _______ _______ _____ _____    ______ ____

>  <TORSDO>
F 2

$$$$
=
 OpenBabel11122412323D

 30 35  0  0  1  0  0  0  0  0999 V2000
  159.4330  212.7160  152.9720 C   0  0  0  0  0  0  0  0  0  0  0  0
  159.7270  212.2990  155.4190 C   0  0  0  0  0  0  0  0  0  0  0  0
  162.3280  209.7620  151.9300 C   0  0  0  0  0  2  0  0  0  0  0  0
  159.7970  212.3920  151.6460 C   0  0  0  0  0  0  0  0  0  0  0  0
  158.4660  213.8460  153.1880 C   0  0  0  0  0  2  0  0  0  0  0  0
  156.8260  213.7170  149.9250 O   0  0  0  0  0  0  0  0  0  0  0  0
  161.2600  213.5560  149.3870 C   0  0  1  0  0  3  0  0  0  0  0  0
  157.6840  213.5100  150.8250 C   0  0  0  0  0  0  0  0  0  0  0  0
  161.9540  212.1960  149.3440 C   0  0  2  0  0  3  0  0  0  0  0  0
  162.2080  209.9420  150.4040 C   0  0  1  0  0  3  0  0  0  0  0  0
  157.3950  213.8510  152.1900 N   0  0  0  0  0  0  0  0  0  0  0  0
  158.9810  212.8440  150.4630 C   0  0  1  0  0  3  0  0  0  0  0  0
  160.3420  211.5770  156.4460 C   0  0  0  0  0  3  0  0  0  0  0  0
  162.0660  211.8260  147.8850 C   0  0  0  0  0  2  0  0  0  0  0  0
  161.8170  214.2560  148.1570 C   0  0  0  0  0  2  0  0  0  0  0  0
  158.8180  213.2430  155.7690 F   0  0  0  0  0  0  0  0  0  0  0  0
  161.3560  210.7530  152.4630 C   0  0  0  0  0  0  0  0  0  0  0  0
  161.2780  210.5840  156.1570 C   0  0  0  0  0  3  0  0  0  0  0  0
  160.0480  212.0300  154.0650 C   0  0  0  0  0  0  0  0  0  0  0  0
  160.8070  211.4570  151.4370 C   0  0  0  0  0  0  0  0  0  0  0  0
  161.5240  208.7300  149.8010 C   0  0  0  0  0  1  0  0  0  0  0  0
  161.3850  211.1350  150.1810 N   0  0  0  0  0  0  0  0  0  0  0  0
  162.2290  213.1600  147.1730 C   0  0  0  0  0  2  0  0  0  0  0  0
  159.2610  213.0240  148.0980 O   0  0  0  0  0  1  0  0  0  0  0  0
  161.6110  210.3030  154.8340 C   0  0  0  0  0  3  0  0  0  0  0  0
  161.0090  211.0140  153.7900 C   0  0  0  0  0  0  0  0  0  0  0  0
  159.7170  213.5410  149.3140 C   0  0  2  0  0  3  0  0  0  0  0  0
  156.0640  214.3520  152.5340 C   0  0  0  0  0  2  0  0  0  0  0  0
  154.9590  214.4530  154.4420 C   0  0  0  0  0  1  0  0  0  0  0  0
  155.4520  213.5500  153.5010 O   0  0  0  0  0  0  0  0  0  0  0  0
  1  5  1  0  0  0  0
  1 19  1  0  0  0  0
  2 16  1  0  0  0  0
  2 13  1  0  0  0  0
  3 17  1  0  0  0  0
  4  1  2  0  0  0  0
  6  8  2  0  0  0  0
  7 15  1  6  0  0  0
  8 11  1  0  0  0  0
  9 14  1  6  0  0  0
  9  7  1  0  0  0  0
  9 22  1  0  0  0  0
 10 21  1  6  0  0  0
 10  3  1  0  0  0  0
 11 28  1  0  0  0  0
 11  5  1  0  0  0  0
 12  8  1  1  0  0  0
 12  4  1  0  0  0  0
 17 26  1  0  0  0  0
 18 13  2  0  0  0  0
 19  2  2  0  0  0  0
 20  4  1  0  0  0  0
 20 17  2  0  0  0  0
 22 10  1  0  0  0  0
 22 20  1  0  0  0  0
 23 14  1  0  0  0  0
 23 15  1  0  0  0  0
 25 18  1  0  0  0  0
 26 19  1  0  0  0  0
 26 25  2  0  0  0  0
 27 24  1  6  0  0  0
 27  7  1  0  0  0  0
 27 12  1  0  0  0  0
 28 30  1  0  0  0  0
 30 29  1  0  0  0  0
M  END
>  <MODEL>
6

>  <REMARK>
 VINA RESULT:      -4.5      3.177      7.100
  Name = 
  2 active torsions:
  status: ('A' for Active; 'I' for Inactive)
    1  A    between atoms: N_11  and  C_28
    2  A    between atoms: C_28  and  O_30
                            x       y       z     vdW  Elec       q    Type
                         _______ _______ _______ _____ _____    ______ ____

>  <TORSDO>
F 2

$$$$
=
 OpenBabel11122412323D

 30 35  0  0  1  0  0  0  0  0999 V2000
  160.8580  211.1130  152.0700 C   0  0  0  0  0  0  0  0  0  0  0  0
  161.8290  211.2810  149.7720 C   0  0  0  0  0  0  0  0  0  0  0  0
  158.2840  214.4530  151.4290 C   0  0  0  0  0  2  0  0  0  0  0  0
  159.9510  211.6150  153.0310 C   0  0  0  0  0  0  0  0  0  0  0  0
  161.7700  209.9880  152.4720 C   0  0  0  0  0  2  0  0  0  0  0  0
  159.7080  208.6250  155.1630 O   0  0  0  0  0  0  0  0  0  0  0  0
  159.9770  213.0670  155.5780 C   0  0  1  0  0  3  0  0  0  0  0  0
  160.1360  209.4340  154.2970 C   0  0  0  0  0  0  0  0  0  0  0  0
  158.9210  213.9410  154.9050 C   0  0  2  0  0  3  0  0  0  0  0  0
  157.6200  214.4210  152.8210 C   0  0  1  0  0  3  0  0  0  0  0  0
  161.0890  209.0030  153.3130 N   0  0  0  0  0  0  0  0  0  0  0  0
  159.5890  210.8330  154.2670 C   0  0  1  0  0  3  0  0  0  0  0  0
  161.8520  211.9120  148.5250 C   0  0  0  0  0  3  0  0  0  0  0  0
  157.8670  214.2090  155.9520 C   0  0  0  0  0  2  0  0  0  0  0  0
  160.0110  213.6120  156.9970 C   0  0  0  0  0  2  0  0  0  0  0  0
  162.6630  210.2290  149.9630 F   0  0  0  0  0  0  0  0  0  0  0  0
  159.2420  213.3180  151.4880 C   0  0  0  0  0  0  0  0  0  0  0  0
  161.0130  212.9930  148.2570 C   0  0  0  0  0  3  0  0  0  0  0  0
  160.9470  211.7340  150.7860 C   0  0  0  0  0  0  0  0  0  0  0  0
  159.2140  212.7560  152.7260 C   0  0  0  0  0  0  0  0  0  0  0  0
  156.1830  213.9550  152.6890 C   0  0  0  0  0  1  0  0  0  0  0  0
  158.3790  213.4620  153.6290 N   0  0  0  0  0  0  0  0  0  0  0  0
  158.6410  214.2410  157.2610 C   0  0  0  0  0  2  0  0  0  0  0  0
  158.5500  211.2590  156.3750 O   0  0  0  0  0  1  0  0  0  0  0  0
  160.1400  213.4580  149.2370 C   0  0  0  0  0  3  0  0  0  0  0  0
  160.0990  212.8430  150.4940 C   0  0  0  0  0  0  0  0  0  0  0  0
  159.6890  211.5500  155.6180 C   0  0  2  0  0  3  0  0  0  0  0  0
  161.4830  207.5940  153.2720 C   0  0  0  0  0  2  0  0  0  0  0  0
  162.1560  205.8550  152.0920 C   0  0  0  0  0  1  0  0  0  0  0  0
  161.6830  207.1590  151.9590 O   0  0  0  0  0  0  0  0  0  0  0  0
  1  5  1  0  0  0  0
  1  4  1  0  0  0  0
  2 16  1  0  0  0  0
  2 19  1  0  0  0  0
  3 17  1  0  0  0  0
  3 10  1  0  0  0  0
  5 11  1  0  0  0  0
  7 27  1  0  0  0  0
  7 15  1  1  0  0  0
  8  6  2  0  0  0  0
  9  7  1  0  0  0  0
  9 14  1  1  0  0  0
 10 21  1  6  0  0  0
 10 22  1  0  0  0  0
 11  8  1  0  0  0  0
 12  4  1  6  0  0  0
 12  8  1  0  0  0  0
 12 27  1  0  0  0  0
 13  2  2  0  0  0  0
 14 23  1  0  0  0  0
 15 23  1  0  0  0  0
 17 20  1  0  0  0  0
 18 13  1  0  0  0  0
 18 25  2  0  0  0  0
 19  1  2  0  0  0  0
 20  4  2  0  0  0  0
 20 22  1  0  0  0  0
 22  9  1  0  0  0  0
 25 26  1  0  0  0  0
 26 19  1  0  0  0  0
 26 17  2  0  0  0  0
 27 24  1  6  0  0  0
 28 11  1  0  0  0  0
 30 29  1  0  0  0  0
 30 28  1  0  0  0  0
M  END
>  <MODEL>
7

>  <REMARK>
 VINA RESULT:      -4.5      1.878      2.890
  Name = 
  2 active torsions:
  status: ('A' for Active; 'I' for Inactive)
    1  A    between atoms: N_11  and  C_28
    2  A    between atoms: C_28  and  O_30
                            x       y       z     vdW  Elec       q    Type
                         _______ _______ _______ _____ _____    ______ ____

>  <TORSDO>
F 2

$$$$
=
 OpenBabel11122412323D

 30 35  0  0  1  0  0  0  0  0999 V2000
  160.5720  210.3150  151.7630 C   0  0  0  0  0  0  0  0  0  0  0  0
  161.7270  208.3120  150.8110 C   0  0  0  0  0  0  0  0  0  0  0  0
  160.5040  208.6430  155.6860 C   0  0  0  0  0  2  0  0  0  0  0  0
  160.0250  210.9620  152.8940 C   0  0  0  0  0  0  0  0  0  0  0  0
  160.4400  210.9880  150.4260 C   0  0  0  0  0  2  0  0  0  0  0  0
  160.1010  214.4190  151.6350 O   0  0  0  0  0  0  0  0  0  0  0  0
  157.4100  211.7270  153.9780 C   0  0  1  0  0  3  0  0  0  0  0  0
  160.1280  213.1590  151.6480 C   0  0  0  0  0  0  0  0  0  0  0  0
  157.9350  211.0860  155.2610 C   0  0  2  0  0  3  0  0  0  0  0  0
  159.8030  209.8370  156.3640 C   0  0  1  0  0  3  0  0  0  0  0  0
  160.6350  212.4350  150.5170 N   0  0  0  0  0  0  0  0  0  0  0  0
  159.6840  212.4290  152.8840 C   0  0  1  0  0  3  0  0  0  0  0  0
  162.3060  207.0560  151.0110 C   0  0  0  0  0  3  0  0  0  0  0  0
  157.5100  211.9940  156.3890 C   0  0  0  0  0  2  0  0  0  0  0  0
  156.0800  212.3180  154.4170 C   0  0  0  0  0  2  0  0  0  0  0  0
  161.7470  208.8230  149.5550 F   0  0  0  0  0  0  0  0  0  0  0  0
  160.6050  209.0740  154.2670 C   0  0  0  0  0  0  0  0  0  0  0  0
  162.3310  206.4770  152.2790 C   0  0  0  0  0  3  0  0  0  0  0  0
  161.1540  209.0170  151.9000 C   0  0  0  0  0  0  0  0  0  0  0  0
  160.0000  210.2810  154.1090 C   0  0  0  0  0  0  0  0  0  0  0  0
  160.7890  210.5640  157.2590 C   0  0  0  0  0  1  0  0  0  0  0  0
  159.3570  210.7310  155.2920 N   0  0  0  0  0  0  0  0  0  0  0  0
  156.1860  212.5780  155.9200 C   0  0  0  0  0  2  0  0  0  0  0  0
  158.3960  213.9440  154.2080 O   0  0  0  0  0  1  0  0  0  0  0  0
  161.7730  207.1480  153.3640 C   0  0  0  0  0  3  0  0  0  0  0  0
  161.1870  208.4060  153.1880 C   0  0  0  0  0  0  0  0  0  0  0  0
  158.2860  212.8390  153.3590 C   0  0  2  0  0  3  0  0  0  0  0  0
  161.2060  213.1780  149.3930 C   0  0  0  0  0  2  0  0  0  0  0  0
  162.7280  212.5930  147.9050 C   0  0  0  0  0  1  0  0  0  0  0  0
  161.4090  212.3510  148.2860 O   0  0  0  0  0  0  0  0  0  0  0  0
  1 19  2  0  0  0  0
  1  4  1  0  0  0  0
  2 13  2  0  0  0  0
  2 19  1  0  0  0  0
  3 10  1  0  0  0  0
  4 20  2  0  0  0  0
  5 11  1  0  0  0  0
  5  1  1  0  0  0  0
  6  8  2  0  0  0  0
  7 15  1  1  0  0  0
  7  9  1  0  0  0  0
  9 22  1  0  0  0  0
  9 14  1  1  0  0  0
 10 21  1  1  0  0  0
 11  8  1  0  0  0  0
 12  8  1  6  0  0  0
 12  4  1  0  0  0  0
 12 27  1  0  0  0  0
 13 18  1  0  0  0  0
 15 23  1  0  0  0  0
 16  2  1  0  0  0  0
 17  3  1  0  0  0  0
 18 25  2  0  0  0  0
 19 26  1  0  0  0  0
 20 17  1  0  0  0  0
 20 22  1  0  0  0  0
 22 10  1  0  0  0  0
 23 14  1  0  0  0  0
 26 25  1  0  0  0  0
 26 17  2  0  0  0  0
 27  7  1  0  0  0  0
 27 24  1  1  0  0  0
 28 11  1  0  0  0  0
 29 30  1  0  0  0  0
 30 28  1  0  0  0  0
M  END
>  <MODEL>
8

>  <REMARK>
 VINA RESULT:      -4.4      2.460      5.027
  Name = 
  2 active torsions:
  status: ('A' for Active; 'I' for Inactive)
    1  A    between atoms: N_11  and  C_28
    2  A    between atoms: C_28  and  O_30
                            x       y       z     vdW  Elec       q    Type
                         _______ _______ _______ _____ _____    ______ ____

>  <TORSDO>
F 2

$$$$
=
 OpenBabel11122412323D

 30 35  0  0  1  0  0  0  0  0999 V2000
  161.0860  209.9780  151.2180 C   0  0  0  0  0  0  0  0  0  0  0  0
  161.9650  207.6410  151.1130 C   0  0  0  0  0  0  0  0  0  0  0  0
  160.1590  209.6440  155.3670 C   0  0  0  0  0  2  0  0  0  0  0  0
  160.5180  211.0160  151.9920 C   0  0  0  0  0  0  0  0  0  0  0  0
  161.2700  210.2110  149.7440 C   0  0  0  0  0  2  0  0  0  0  0  0
  161.4170  213.8610  149.8380 O   0  0  0  0  0  0  0  0  0  0  0  0
  157.9690  212.4320  152.2960 C   0  0  1  0  0  3  0  0  0  0  0  0
  161.2040  212.6770  150.2140 C   0  0  0  0  0  0  0  0  0  0  0  0
  158.1800  212.1590  153.7840 C   0  0  2  0  0  3  0  0  0  0  0  0
  159.6080  211.0750  155.5310 C   0  0  1  0  0  3  0  0  0  0  0  0
  161.7200  211.5730  149.4540 N   0  0  0  0  0  0  0  0  0  0  0  0
  160.4640  212.4380  151.5000 C   0  0  1  0  0  3  0  0  0  0  0  0
  162.2640  206.4430  151.7690 C   0  0  0  0  0  3  0  0  0  0  0  0
  157.7800  213.4240  154.5040 C   0  0  0  0  0  2  0  0  0  0  0  0
  156.7250  213.3070  152.2870 C   0  0  0  0  0  2  0  0  0  0  0  0
  162.2550  207.7250  149.7910 F   0  0  0  0  0  0  0  0  0  0  0  0
  160.5360  209.5920  153.9300 C   0  0  0  0  0  0  0  0  0  0  0  0
  162.0030  206.2920  153.1310 C   0  0  0  0  0  3  0  0  0  0  0  0
  161.3890  208.7220  151.8270 C   0  0  0  0  0  0  0  0  0  0  0  0
  160.1970  210.7600  153.3220 C   0  0  0  0  0  0  0  0  0  0  0  0
  160.5780  211.9040  156.3510 C   0  0  0  0  0  1  0  0  0  0  0  0
  159.4920  211.6410  154.1830 N   0  0  0  0  0  0  0  0  0  0  0  0
  156.6690  214.0070  153.6460 C   0  0  0  0  0  2  0  0  0  0  0  0
  159.3120  214.4530  152.0660 O   0  0  0  0  0  1  0  0  0  0  0  0
  161.4350  207.3390  153.8530 C   0  0  0  0  0  3  0  0  0  0  0  0
  161.1260  208.5470  153.2180 C   0  0  0  0  0  0  0  0  0  0  0  0
  159.1160  213.1630  151.5630 C   0  0  2  0  0  3  0  0  0  0  0  0
  162.5700  211.8410  148.2940 C   0  0  0  0  0  2  0  0  0  0  0  0
  162.5040  213.2080  146.5620 C   0  0  0  0  0  1  0  0  0  0  0  0
  161.8090  212.1610  147.1670 O   0  0  0  0  0  0  0  0  0  0  0  0
  1 19  2  0  0  0  0
  1  4  1  0  0  0  0
  2 13  2  0  0  0  0
  2 19  1  0  0  0  0
  3 10  1  0  0  0  0
  4 20  2  0  0  0  0
  5  1  1  0  0  0  0
  6  8  2  0  0  0  0
  7 15  1  1  0  0  0
  7  9  1  0  0  0  0
  9 22  1  0  0  0  0
  9 14  1  1  0  0  0
 10 21  1  1  0  0  0
 11  5  1  0  0  0  0
 11  8  1  0  0  0  0
 12  8  1  6  0  0  0
 12 27  1  0  0  0  0
 12  4  1  0  0  0  0
 13 18  1  0  0  0  0
 15 23  1  0  0  0  0
 16  2  1  0  0  0  0
 17  3  1  0  0  0  0
 18 25  2  0  0  0  0
 19 26  1  0  0  0  0
 20 17  1  0  0  0  0
 20 22  1  0  0  0  0
 22 10  1  0  0  0  0
 23 14  1  0  0  0  0
 26 25  1  0  0  0  0
 26 17  2  0  0  0  0
 27 24  1  1  0  0  0
 27  7  1  0  0  0  0
 28 11  1  0  0  0  0
 29 30  1  0  0  0  0
 30 28  1  0  0  0  0
M  END
>  <MODEL>
9

>  <REMARK>
 VINA RESULT:      -4.2      2.648      5.148
  Name = 
  2 active torsions:
  status: ('A' for Active; 'I' for Inactive)
    1  A    between atoms: N_11  and  C_28
    2  A    between atoms: C_28  and  O_30
                            x       y       z     vdW  Elec       q    Type
                         _______ _______ _______ _____ _____    ______ ____

>  <TORSDO>
F 2

$$$$
