=
 OpenBabel11122413343D

 37 43  0  0  1  0  0  0  0  0999 V2000
  161.9720  210.6930  154.3790 C   0  0  0  0  0  2  0  0  0  0  0  0
  161.3450  206.9460  150.4210 C   0  0  0  0  0  0  0  0  0  0  0  0
  161.5090  211.1580  151.1640 C   0  0  1  0  0  3  0  0  0  0  0  0
  162.6870  210.3660  155.6900 C   0  0  2  0  0  3  0  0  0  0  0  0
  158.9350  212.1450  153.7460 O   0  0  0  0  0  0  0  0  0  0  0  0
  162.1400  209.2150  149.7590 C   0  0  0  0  0  0  0  0  0  0  0  0
  160.2370  211.0690  151.9990 C   0  0  2  0  0  3  0  0  0  0  0  0
  160.6210  211.2150  157.0000 C   0  0  2  0  0  3  0  0  0  0  0  0
  161.7730  209.7180  150.9440 C   0  0  0  0  0  0  0  0  0  0  0  0
  159.9560  212.3450  152.8130 C   0  0  1  0  0  3  0  0  0  0  0  0
  162.6050  210.1480  148.6820 C   0  0  0  0  0  2  0  0  0  0  0  0
  161.7520  210.1840  156.8930 C   0  0  0  0  0  2  0  0  0  0  0  0
  161.1450  208.8890  151.9950 C   0  0  2  0  0  3  0  0  0  0  0  0
  162.4070  206.2090  151.2190 C   0  0  0  0  0  1  0  0  0  0  0  0
  160.4960  213.1710  149.8200 C   0  0  0  0  0  2  0  0  0  0  0  0
  161.7900  211.4180  148.7060 C   0  0  0  0  0  3  0  0  0  0  0  0
  160.4010  207.7060  151.3730 C   0  0  0  0  0  2  0  0  0  0  0  0
  159.5870  211.1670  155.8520 C   0  0  1  0  0  3  0  0  0  0  0  0
  159.5410  212.4210  154.9730 C   0  0  0  0  0  2  0  0  0  0  0  0
  161.2910  211.9020  149.8590 C   0  0  0  0  0  0  0  0  0  0  0  0
  160.2410  209.7720  152.7370 N   0  0  1  0  0  0  0  0  0  0  0  0
  161.9790  207.8450  149.4970 O   0  0  0  0  0  0  0  0  0  0  0  0
  159.6200  213.5570  151.9230 C   0  0  1  0  0  3  0  0  0  0  0  0
  160.5380  205.9300  149.6420 C   0  0  0  0  0  1  0  0  0  0  0  0
  159.6300  209.9100  155.0860 N   0  0  0  0  0  2  0  0  0  0  0  0
  161.1300  212.4990  157.2160 O   0  0  0  0  0  1  0  0  0  0  0  0
  160.7430  209.7940  154.1240 C   0  0  2  0  0  3  0  0  0  0  0  0
  160.6450  213.9090  151.0100 O   0  0  0  0  0  0  0  0  0  0  0  0
  157.9540  213.3560  150.0550 C   0  0  0  0  0  3  0  0  0  0  0  0
  158.2060  213.6530  151.3990 C   0  0  0  0  0  0  0  0  0  0  0  0
  157.1400  214.0060  152.2420 C   0  0  0  0  0  3  0  0  0  0  0  0
  154.7150  214.4510  152.6350 C   0  0  0  0  0  1  0  0  0  0  0  0
  155.5930  213.7800  150.3930 C   0  0  0  0  0  3  0  0  0  0  0  0
  155.8390  214.0720  151.7390 C   0  0  0  0  0  0  0  0  0  0  0  0
  156.6510  213.4220  149.5530 C   0  0  0  0  0  3  0  0  0  0  0  0
  164.2760  211.0580  157.2600 C   0  0  0  0  0  1  0  0  0  0  0  0
  163.6770  211.3910  155.9790 N   0  0  0  0  0  2  0  0  0  0  0  0
  1  4  1  0  0  0  0
  2 14  1  0  0  0  0
  2 17  1  0  0  0  0
  3 20  1  6  0  0  0
  3  7  1  0  0  0  0
  4 37  1  1  0  0  0
  4 12  1  0  0  0  0
  5 19  1  0  0  0  0
  6  9  2  0  0  0  0
  7 21  1  0  0  0  0
  7 10  1  0  0  0  0
  8 26  1  0  0  0  0
  9  3  1  0  0  0  0
  9 13  1  0  0  0  0
 10  5  1  0  0  0  0
 11 16  1  0  0  0  0
 11  6  1  0  0  0  0
 12  8  1  0  0  0  0
 13 21  1  0  0  0  0
 15 20  1  0  0  0  0
 15 28  1  0  0  0  0
 16 20  2  0  0  0  0
 17 13  1  0  0  0  0
 18  8  1  0  0  0  0
 19 18  1  0  0  0  0
 21 27  1  0  0  0  0
 22  6  1  0  0  0  0
 22  2  1  0  0  0  0
 23 10  1  0  0  0  0
 24  2  1  0  0  0  0
 25 18  1  0  0  0  0
 27  1  1  0  0  0  0
 27 25  1  0  0  0  0
 28 23  1  0  0  0  0
 29 30  1  0  0  0  0
 30 23  1  0  0  0  0
 30 31  2  0  0  0  0
 33 34  2  0  0  0  0
 34 31  1  0  0  0  0
 34 32  1  0  0  0  0
 35 29  2  0  0  0  0
 35 33  1  0  0  0  0
 37 36  1  0  0  0  0
M  END
>  <MODEL>
1

>  <REMARK>
 VINA RESULT:      -5.5      0.000      0.000
  Name = 
  2 active torsions:
  status: ('A' for Active; 'I' for Inactive)
    1  A    between atoms: C_4  and  N_37
    2  A    between atoms: C_23  and  C_30
                            x       y       z     vdW  Elec       q    Type
                         _______ _______ _______ _____ _____    ______ ____

>  <TORSDO>
F 2

$$$$
=
 OpenBabel11122413343D

 37 43  0  0  1  0  0  0  0  0999 V2000
  161.8000  210.7200  154.0400 C   0  0  0  0  0  2  0  0  0  0  0  0
  161.3670  207.5740  149.5670 C   0  0  0  0  0  0  0  0  0  0  0  0
  161.4300  211.6360  150.9110 C   0  0  1  0  0  3  0  0  0  0  0  0
  162.4800  210.2180  155.3140 C   0  0  2  0  0  3  0  0  0  0  0  0
  158.7580  212.2060  153.5200 O   0  0  0  0  0  0  0  0  0  0  0  0
  162.1410  209.9250  149.2640 C   0  0  0  0  0  0  0  0  0  0  0  0
  160.1340  211.4100  151.6810 C   0  0  2  0  0  3  0  0  0  0  0  0
  160.3580  210.8410  156.6620 C   0  0  2  0  0  3  0  0  0  0  0  0
  161.7280  210.2470  150.4960 C   0  0  0  0  0  0  0  0  0  0  0  0
  159.8040  212.5520  152.6600 C   0  0  1  0  0  3  0  0  0  0  0  0
  162.6230  211.0100  148.3480 C   0  0  0  0  0  2  0  0  0  0  0  0
  161.5110  209.8510  156.4470 C   0  0  0  0  0  2  0  0  0  0  0  0
  161.0820  209.2660  151.3950 C   0  0  2  0  0  3  0  0  0  0  0  0
  162.4170  206.7440  150.2860 C   0  0  0  0  0  1  0  0  0  0  0  0
  160.4230  213.8080  149.8360 C   0  0  0  0  0  2  0  0  0  0  0  0
  161.7840  212.2520  148.5270 C   0  0  0  0  0  3  0  0  0  0  0  0
  160.3810  208.1750  150.5850 C   0  0  0  0  0  2  0  0  0  0  0  0
  159.3620  210.9440  155.4840 C   0  0  1  0  0  3  0  0  0  0  0  0
  159.3200  212.3110  154.7940 C   0  0  0  0  0  2  0  0  0  0  0  0
  161.2400  212.5580  149.7200 C   0  0  0  0  0  0  0  0  0  0  0  0
  160.1390  210.0210  152.2250 N   0  0  1  0  0  0  0  0  0  0  0  0
  162.0130  208.6050  148.8030 O   0  0  0  0  0  0  0  0  0  0  0  0
  159.4740  213.8750  151.9420 C   0  0  1  0  0  3  0  0  0  0  0  0
  160.6040  206.6690  148.6230 C   0  0  0  0  0  1  0  0  0  0  0  0
  159.4520  209.8110  154.5480 N   0  0  0  0  0  2  0  0  0  0  0  0
  160.8360  212.0870  157.0770 O   0  0  0  0  0  1  0  0  0  0  0  0
  160.5970  209.8500  153.6170 C   0  0  2  0  0  3  0  0  0  0  0  0
  160.5210  214.3690  151.1240 O   0  0  0  0  0  0  0  0  0  0  0  0
  156.9940  214.0690  152.2770 C   0  0  0  0  0  3  0  0  0  0  0  0
  158.0760  214.0260  151.3900 C   0  0  0  0  0  0  0  0  0  0  0  0
  157.8470  214.1540  150.0120 C   0  0  0  0  0  3  0  0  0  0  0  0
  156.3100  214.4390  148.0650 C   0  0  0  0  0  1  0  0  0  0  0  0
  155.4680  214.3450  150.4160 C   0  0  0  0  0  3  0  0  0  0  0  0
  156.5460  214.3090  149.5260 C   0  0  0  0  0  0  0  0  0  0  0  0
  155.6920  214.2250  151.7910 C   0  0  0  0  0  3  0  0  0  0  0  0
  163.4180  211.1690  157.2330 C   0  0  0  0  0  1  0  0  0  0  0  0
  163.4410  211.2030  155.7810 N   0  0  0  0  0  2  0  0  0  0  0  0
  1  4  1  0  0  0  0
  2 14  1  0  0  0  0
  2 17  1  0  0  0  0
  3 20  1  6  0  0  0
  3  7  1  0  0  0  0
  4 37  1  1  0  0  0
  4 12  1  0  0  0  0
  5 19  1  0  0  0  0
  6  9  2  0  0  0  0
  7 21  1  0  0  0  0
  7 10  1  0  0  0  0
  8 26  1  0  0  0  0
  9  3  1  0  0  0  0
  9 13  1  0  0  0  0
 10  5  1  0  0  0  0
 11 16  1  0  0  0  0
 11  6  1  0  0  0  0
 12  8  1  0  0  0  0
 13 21  1  0  0  0  0
 15 28  1  0  0  0  0
 16 20  2  0  0  0  0
 17 13  1  0  0  0  0
 18  8  1  0  0  0  0
 19 18  1  0  0  0  0
 20 15  1  0  0  0  0
 21 27  1  0  0  0  0
 22  6  1  0  0  0  0
 22  2  1  0  0  0  0
 23 10  1  0  0  0  0
 24  2  1  0  0  0  0
 25 18  1  0  0  0  0
 27  1  1  0  0  0  0
 27 25  1  0  0  0  0
 28 23  1  0  0  0  0
 30 23  1  0  0  0  0
 30 29  2  0  0  0  0
 31 30  1  0  0  0  0
 32 34  1  0  0  0  0
 33 35  2  0  0  0  0
 34 31  2  0  0  0  0
 34 33  1  0  0  0  0
 35 29  1  0  0  0  0
 37 36  1  0  0  0  0
M  END
>  <MODEL>
2

>  <REMARK>
 VINA RESULT:      -2.9      0.730      1.298
  Name = 
  2 active torsions:
  status: ('A' for Active; 'I' for Inactive)
    1  A    between atoms: C_4  and  N_37
    2  A    between atoms: C_23  and  C_30
                            x       y       z     vdW  Elec       q    Type
                         _______ _______ _______ _____ _____    ______ ____

>  <TORSDO>
F 2

$$$$
