=
 OpenBabel11122414073D

 28 32  0  0  1  0  0  0  0  0999 V2000
  157.4340  213.3480  140.3580 C   0  0  0  0  0  0  0  0  0  0  0  0
  157.6460  209.8120  139.2660 O   0  0  0  0  0  0  0  0  0  0  0  0
  163.7250  213.7610  140.0710 O   0  0  0  0  0  0  0  0  0  0  0  0
  155.9620  213.8760  138.0350 C   0  0  0  0  0  3  0  0  0  0  0  0
  162.6720  212.9280  138.1420 N   0  0  0  0  0  0  0  0  0  0  0  0
  158.1730  213.1310  141.5170 O   0  0  0  0  0  0  0  0  0  0  0  0
  158.2800  209.0560  137.0110 O   0  0  0  0  0  0  0  0  0  0  0  0
  158.7700  209.7060  138.2740 S   0  0  0  0  0  0  0  0  0  0  0  0
  161.3590  209.3380  139.0800 C   0  0  0  0  0  0  0  0  0  0  0  0
  159.4250  211.3130  137.8930 C   0  0  2  0  0  3  0  0  0  0  0  0
  161.2650  214.4520  142.8790 O   0  0  0  0  0  1  0  0  0  0  0  0
  160.4050  213.3470  138.7650 C   0  0  2  0  0  3  0  0  0  0  0  0
  161.6950  210.4600  138.5130 N   0  0  0  0  0  0  0  0  0  0  0  0
  160.0560  208.7780  138.9400 N   0  0  0  0  0  2  0  0  0  0  0  0
  160.4110  213.4800  142.3610 C   0  0  2  0  0  3  0  0  0  0  0  0
  157.9510  212.9760  139.1040 C   0  0  0  0  0  0  0  0  0  0  0  0
  162.6700  213.4720  139.4470 C   0  0  0  0  0  0  0  0  0  0  0  0
  162.3460  208.6450  139.9470 C   0  0  0  0  0  1  0  0  0  0  0  0
  161.0870  212.7610  141.1930 C   0  0  0  0  0  2  0  0  0  0  0  0
  157.2140  213.2620  137.9440 C   0  0  0  0  0  3  0  0  0  0  0  0
  156.1770  213.9580  140.4430 C   0  0  0  0  0  3  0  0  0  0  0  0
  155.4420  214.2190  139.2850 C   0  0  0  0  0  3  0  0  0  0  0  0
  159.0870  214.1180  141.9670 C   0  0  0  0  0  2  0  0  0  0  0  0
  161.3100  212.7440  137.6730 C   0  0  2  0  0  3  0  0  0  0  0  0
  161.3070  213.6810  139.9860 C   0  0  2  0  0  3  0  0  0  0  0  0
  160.9100  211.2670  137.5610 C   0  0  2  0  0  3  0  0  0  0  0  0
  163.8590  212.6870  137.3400 C   0  0  0  0  0  1  0  0  0  0  0  0
  159.3020  212.3200  139.0240 C   0  0  1  0  0  3  0  0  0  0  0  0
  1 21  1  0  0  0  0
  1  6  1  0  0  0  0
  4 22  1  0  0  0  0
  5 17  1  0  0  0  0
  6 23  1  0  0  0  0
  7  8  2  0  0  0  0
  8 14  1  0  0  0  0
  8  2  2  0  0  0  0
  9 18  1  0  0  0  0
 10  8  1  1  0  0  0
 10 28  1  0  0  0  0
 12 28  1  0  0  0  0
 12 25  1  0  0  0  0
 13  9  2  0  0  0  0
 14  9  1  0  0  0  0
 15 11  1  0  0  0  0
 16  1  2  0  0  0  0
 17 25  1  0  0  0  0
 17  3  2  0  0  0  0
 19 15  1  0  0  0  0
 20  4  2  0  0  0  0
 20 16  1  0  0  0  0
 22 21  2  0  0  0  0
 23 15  1  0  0  0  0
 24  5  1  0  0  0  0
 24 12  1  0  0  0  0
 25 19  1  0  0  0  0
 26 24  1  0  0  0  0
 26 10  1  0  0  0  0
 26 13  1  0  0  0  0
 27  5  1  0  0  0  0
 28 16  1  0  0  0  0
M  END
>  <MODEL>
1

>  <REMARK>
 VINA RESULT:      -3.2      0.000      0.000
  Name = 
  0 active torsions:
  status: ('A' for Active; 'I' for Inactive)
                            x       y       z     vdW  Elec       q    Type
                         _______ _______ _______ _____ _____    ______ ____

>  <TORSDO>
F 0

$$$$
=
 OpenBabel11122414073D

 28 32  0  0  1  0  0  0  0  0999 V2000
  161.3140  210.1020  156.1770 C   0  0  0  0  0  0  0  0  0  0  0  0
  162.3640  210.0070  152.6220 O   0  0  0  0  0  0  0  0  0  0  0  0
  156.9790  214.4530  154.7270 O   0  0  0  0  0  0  0  0  0  0  0  0
  160.6140  207.4010  155.9410 C   0  0  0  0  0  3  0  0  0  0  0  0
  156.9460  212.5070  153.4100 N   0  0  0  0  0  0  0  0  0  0  0  0
  161.6380  211.4460  156.3320 O   0  0  0  0  0  0  0  0  0  0  0  0
  161.0400  209.0660  150.7730 O   0  0  0  0  0  0  0  0  0  0  0  0
  161.1340  210.1800  151.7770 S   0  0  0  0  0  0  0  0  0  0  0  0
  160.1650  212.6620  151.1510 C   0  0  0  0  0  0  0  0  0  0  0  0
  159.6730  210.1850  152.7880 C   0  0  2  0  0  3  0  0  0  0  0  0
  159.8070  214.4390  157.2600 O   0  0  0  0  0  1  0  0  0  0  0  0
  158.5190  211.2090  154.6530 C   0  0  2  0  0  3  0  0  0  0  0  0
  159.0460  212.3760  151.7510 N   0  0  0  0  0  0  0  0  0  0  0  0
  161.1920  211.6910  150.9590 N   0  0  0  0  0  2  0  0  0  0  0  0
  160.5430  213.6000  156.4240 C   0  0  2  0  0  3  0  0  0  0  0  0
  160.4500  209.6910  155.1460 C   0  0  0  0  0  0  0  0  0  0  0  0
  157.4270  213.3030  154.4740 C   0  0  0  0  0  0  0  0  0  0  0  0
  160.4070  214.0570  150.7040 C   0  0  0  0  0  1  0  0  0  0  0  0
  159.8060  213.4100  155.0970 C   0  0  0  0  0  2  0  0  0  0  0  0
  160.0900  208.3380  155.0470 C   0  0  0  0  0  3  0  0  0  0  0  0
  161.8410  209.1570  157.0650 C   0  0  0  0  0  3  0  0  0  0  0  0
  161.4930  207.8090  156.9460 C   0  0  0  0  0  3  0  0  0  0  0  0
  160.8170  212.2810  157.1330 C   0  0  0  0  0  2  0  0  0  0  0  0
  157.6230  211.2220  153.3990 C   0  0  2  0  0  3  0  0  0  0  0  0
  158.4910  212.6390  155.2600 C   0  0  2  0  0  3  0  0  0  0  0  0
  158.5700  211.0560  152.2030 C   0  0  2  0  0  3  0  0  0  0  0  0
  155.8560  212.8710  152.5210 C   0  0  0  0  0  1  0  0  0  0  0  0
  159.8920  210.7150  154.1950 C   0  0  1  0  0  3  0  0  0  0  0  0
  1  6  1  0  0  0  0
  1 21  1  0  0  0  0
  4 22  1  0  0  0  0
  5 17  1  0  0  0  0
  6 23  1  0  0  0  0
  7  8  2  0  0  0  0
  8  2  2  0  0  0  0
  9 13  2  0  0  0  0
 10  8  1  6  0  0  0
 10 28  1  0  0  0  0
 12 25  1  0  0  0  0
 13 26  1  0  0  0  0
 14  9  1  0  0  0  0
 14  8  1  0  0  0  0
 15 23  1  0  0  0  0
 15 11  1  0  0  0  0
 16  1  2  0  0  0  0
 17  3  2  0  0  0  0
 17 25  1  0  0  0  0
 18  9  1  0  0  0  0
 19 25  1  0  0  0  0
 19 15  1  0  0  0  0
 20 16  1  0  0  0  0
 20  4  2  0  0  0  0
 22 21  2  0  0  0  0
 24  5  1  0  0  0  0
 24 12  1  0  0  0  0
 26 10  1  0  0  0  0
 26 24  1  0  0  0  0
 27  5  1  0  0  0  0
 28 12  1  0  0  0  0
 28 16  1  0  0  0  0
M  END
>  <MODEL>
2

>  <REMARK>
 VINA RESULT:      -0.5     12.870     15.588
  Name = 
  0 active torsions:
  status: ('A' for Active; 'I' for Inactive)
                            x       y       z     vdW  Elec       q    Type
                         _______ _______ _______ _____ _____    ______ ____

>  <TORSDO>
F 0

$$$$
=
 OpenBabel11122414073D

 28 32  0  0  1  0  0  0  0  0999 V2000
  157.6050  209.0700  137.7980 C   0  0  0  0  0  0  0  0  0  0  0  0
  157.2460  212.6820  137.0440 O   0  0  0  0  0  0  0  0  0  0  0  0
  163.2460  210.2210  140.3830 O   0  0  0  0  0  0  0  0  0  0  0  0
  155.3330  209.2810  139.4200 C   0  0  0  0  0  3  0  0  0  0  0  0
  161.4740  211.5470  141.1750 N   0  0  0  0  0  0  0  0  0  0  0  0
  158.7440  208.9250  137.0110 O   0  0  0  0  0  0  0  0  0  0  0  0
  156.8860  214.4530  138.7150 O   0  0  0  0  0  0  0  0  0  0  0  0
  157.8660  213.4500  138.1780 S   0  0  0  0  0  0  0  0  0  0  0  0
  160.5460  213.9970  138.2380 C   0  0  0  0  0  0  0  0  0  0  0  0
  158.3580  212.3510  139.4850 C   0  0  2  0  0  3  0  0  0  0  0  0
  162.1620  207.8650  137.6100 O   0  0  0  0  0  1  0  0  0  0  0  0
  159.6710  210.4120  140.0980 C   0  0  2  0  0  3  0  0  0  0  0  0
  160.6580  213.3320  139.3510 N   0  0  0  0  0  0  0  0  0  0  0  0
  159.2820  214.2590  137.6340 N   0  0  0  0  0  2  0  0  0  0  0  0
  161.1420  208.7510  137.2660 C   0  0  2  0  0  3  0  0  0  0  0  0
  157.5560  210.0490  138.8060 C   0  0  0  0  0  0  0  0  0  0  0  0
  162.0200  210.5090  140.3850 C   0  0  0  0  0  0  0  0  0  0  0  0
  161.7790  214.4480  137.5430 C   0  0  0  0  0  1  0  0  0  0  0  0
  161.2620  210.0310  138.0930 C   0  0  0  0  0  2  0  0  0  0  0  0
  156.4200  210.1350  139.6260 C   0  0  0  0  0  3  0  0  0  0  0  0
  156.5100  208.2220  137.5920 C   0  0  0  0  0  3  0  0  0  0  0  0
  155.3760  208.3280  138.4000 C   0  0  0  0  0  3  0  0  0  0  0  0
  159.7920  208.0690  137.4380 C   0  0  0  0  0  2  0  0  0  0  0  0
  160.0350  211.6090  140.9980 C   0  0  2  0  0  3  0  0  0  0  0  0
  161.0010  209.7940  139.5850 C   0  0  2  0  0  3  0  0  0  0  0  0
  159.5780  212.8620  140.2390 C   0  0  2  0  0  3  0  0  0  0  0  0
  162.2250  212.3650  142.1120 C   0  0  0  0  0  1  0  0  0  0  0  0
  158.7370  210.9560  139.0160 C   0  0  1  0  0  3  0  0  0  0  0  0
  1 16  1  0  0  0  0
  2  8  2  0  0  0  0
  3 17  2  0  0  0  0
  4 20  1  0  0  0  0
  5 27  1  0  0  0  0
  6 23  1  0  0  0  0
  6  1  1  0  0  0  0
  8  7  2  0  0  0  0
  9 13  2  0  0  0  0
 10  8  1  6  0  0  0
 10 26  1  0  0  0  0
 12 24  1  0  0  0  0
 13 26  1  0  0  0  0
 14  8  1  0  0  0  0
 14  9  1  0  0  0  0
 15 23  1  0  0  0  0
 15 11  1  0  0  0  0
 15 19  1  0  0  0  0
 16 28  1  0  0  0  0
 16 20  2  0  0  0  0
 17  5  1  0  0  0  0
 18  9  1  0  0  0  0
 19 25  1  0  0  0  0
 21  1  2  0  0  0  0
 21 22  1  0  0  0  0
 22  4  2  0  0  0  0
 24  5  1  0  0  0  0
 25 12  1  0  0  0  0
 25 17  1  0  0  0  0
 26 24  1  0  0  0  0
 28 10  1  0  0  0  0
 28 12  1  0  0  0  0
M  END
>  <MODEL>
3

>  <REMARK>
 VINA RESULT:      -0.3      2.804      4.884
  Name = 
  0 active torsions:
  status: ('A' for Active; 'I' for Inactive)
                            x       y       z     vdW  Elec       q    Type
                         _______ _______ _______ _____ _____    ______ ____

>  <TORSDO>
F 0

$$$$
