=
 OpenBabel11122412413D

 30 35  0  0  1  0  0  0  0  0999 V2000
  161.5340  204.6430  148.6640 C   0  0  0  0  0  0  0  0  0  0  0  0
  161.1410  202.2060  148.2460 C   0  0  0  0  0  0  0  0  0  0  0  0
  160.9040  204.0950  152.7920 N   0  0  0  0  0  2  0  0  0  0  0  0
  161.6130  205.7240  149.5910 C   0  0  0  0  0  0  0  0  0  0  0  0
  161.8820  204.8780  147.2100 C   0  0  0  0  0  2  0  0  0  0  0  0
  163.6520  207.1430  147.7190 O   0  0  0  0  0  1  0  0  0  0  0  0
  161.1290  208.6590  151.0640 C   0  0  1  0  0  3  0  0  0  0  0  0
  162.2640  207.3100  147.6810 C   0  0  1  0  0  3  0  0  0  0  0  0
  160.5430  207.5620  151.9580 C   0  0  2  0  0  3  0  0  0  0  0  0
  161.1230  205.4260  153.2360 C   0  0  0  0  0  0  0  0  0  0  0  0
  161.6450  206.3050  146.7180 C   0  0  2  0  0  3  0  0  0  0  0  0
  161.6610  207.1600  149.0780 C   0  0  2  0  0  3  0  0  0  0  0  0
  160.8360  200.9380  148.7480 C   0  0  0  0  0  3  0  0  0  0  0  0
  160.3180  208.2910  153.2580 C   0  0  0  0  0  2  0  0  0  0  0  0
  161.6150  209.6960  151.8700 O   0  0  0  0  0  0  0  0  0  0  0  0
  161.3190  202.3170  146.9070 F   0  0  0  0  0  0  0  0  0  0  0  0
  161.1120  204.1710  151.3900 C   0  0  0  0  0  0  0  0  0  0  0  0
  160.6230  200.7440  150.1110 C   0  0  0  0  0  3  0  0  0  0  0  0
  161.2390  203.3210  149.1210 C   0  0  0  0  0  0  0  0  0  0  0  0
  161.4160  205.4430  150.9570 C   0  0  0  0  0  0  0  0  0  0  0  0
  161.0770  205.7420  154.4530 O   0  0  0  0  0  0  0  0  0  0  0  0
  161.5030  206.3750  152.1320 C   0  0  1  0  0  3  0  0  0  0  0  0
  160.7670  209.7080  152.9850 C   0  0  0  0  0  2  0  0  0  0  0  0
  163.3950  207.8730  150.6220 O   0  0  0  0  0  1  0  0  0  0  0  0
  160.7120  201.8200  150.9870 C   0  0  0  0  0  3  0  0  0  0  0  0
  161.0150  203.1000  150.5080 C   0  0  0  0  0  0  0  0  0  0  0  0
  162.1820  208.2380  150.0300 C   0  0  2  0  0  3  0  0  0  0  0  0
  160.1600  206.5890  146.5000 C   0  0  0  0  0  2  0  0  0  0  0  0
  160.7630  205.5430  144.3160 C   0  0  0  0  0  1  0  0  0  0  0  0
  159.6300  205.8630  145.2720 C   0  0  0  0  0  2  0  0  0  0  0  0
  1 19  2  0  0  0  0
  1  4  1  0  0  0  0
  2 13  2  0  0  0  0
  2 19  1  0  0  0  0
  3 10  1  0  0  0  0
  4 20  2  0  0  0  0
  5  1  1  0  0  0  0
  7 15  1  1  0  0  0
  7  9  1  0  0  0  0
  8  6  1  1  0  0  0
  8 12  1  0  0  0  0
  9 22  1  0  0  0  0
  9 14  1  1  0  0  0
 10 21  2  0  0  0  0
 11 28  1  1  0  0  0
 11  5  1  0  0  0  0
 11  8  1  0  0  0  0
 12  4  1  1  0  0  0
 12 27  1  0  0  0  0
 13 18  1  0  0  0  0
 15 23  1  0  0  0  0
 16  2  1  0  0  0  0
 17  3  1  0  0  0  0
 18 25  2  0  0  0  0
 19 26  1  0  0  0  0
 20 17  1  0  0  0  0
 22 20  1  6  0  0  0
 22 10  1  0  0  0  0
 23 14  1  0  0  0  0
 26 25  1  0  0  0  0
 26 17  2  0  0  0  0
 27 24  1  1  0  0  0
 27  7  1  0  0  0  0
 29 30  1  0  0  0  0
 30 28  1  0  0  0  0
M  END
>  <MODEL>
1

>  <REMARK>
 VINA RESULT:      -7.5      0.000      0.000
  Name = 
  2 active torsions:
  status: ('A' for Active; 'I' for Inactive)
    1  A    between atoms: C_11  and  C_28
    2  A    between atoms: C_28  and  C_30
                            x       y       z     vdW  Elec       q    Type
                         _______ _______ _______ _____ _____    ______ ____

>  <TORSDO>
F 2

$$$$
=
 OpenBabel11122412413D

 30 35  0  0  1  0  0  0  0  0999 V2000
  159.6770  211.7640  153.4100 C   0  0  0  0  0  0  0  0  0  0  0  0
  159.3580  213.7940  151.9790 C   0  0  0  0  0  0  0  0  0  0  0  0
  161.8800  209.8850  150.3510 N   0  0  0  0  0  2  0  0  0  0  0  0
  160.2170  210.4520  153.5630 C   0  0  0  0  0  0  0  0  0  0  0  0
  158.9930  212.4330  154.5820 C   0  0  0  0  0  2  0  0  0  0  0  0
  160.4380  210.9330  156.6280 O   0  0  0  0  0  1  0  0  0  0  0  0
  160.4850  207.2040  154.1900 C   0  0  1  0  0  3  0  0  0  0  0  0
  159.3370  210.3750  155.9730 C   0  0  1  0  0  3  0  0  0  0  0  0
  160.7190  207.4330  152.6940 C   0  0  2  0  0  3  0  0  0  0  0  0
  162.1940  208.6660  151.0110 C   0  0  0  0  0  0  0  0  0  0  0  0
  158.3530  211.4710  155.5830 C   0  0  2  0  0  3  0  0  0  0  0  0
  159.7800  209.5860  154.7410 C   0  0  2  0  0  3  0  0  0  0  0  0
  159.5750  214.4500  150.7650 C   0  0  0  0  0  3  0  0  0  0  0  0
  161.3010  206.1140  152.2530 C   0  0  0  0  0  2  0  0  0  0  0  0
  161.2650  206.1200  154.6150 O   0  0  0  0  0  0  0  0  0  0  0  0
  158.6310  214.4480  152.9170 F   0  0  0  0  0  0  0  0  0  0  0  0
  161.1390  210.6090  151.3210 C   0  0  0  0  0  0  0  0  0  0  0  0
  160.2990  213.8380  149.7440 C   0  0  0  0  0  3  0  0  0  0  0  0
  159.8770  212.4880  152.1940 C   0  0  0  0  0  0  0  0  0  0  0  0
  160.9650  209.9140  152.4990 C   0  0  0  0  0  0  0  0  0  0  0  0
  162.9020  207.7770  150.4710 O   0  0  0  0  0  0  0  0  0  0  0  0
  161.6850  208.5970  152.4240 C   0  0  1  0  0  3  0  0  0  0  0  0
  161.3260  205.2680  153.5050 C   0  0  0  0  0  2  0  0  0  0  0  0
  162.0160  208.7820  155.2460 O   0  0  0  0  0  1  0  0  0  0  0  0
  160.8160  212.5600  149.9300 C   0  0  0  0  0  3  0  0  0  0  0  0
  160.6120  211.8830  151.1380 C   0  0  0  0  0  0  0  0  0  0  0  0
  160.6750  208.4060  155.1250 C   0  0  2  0  0  3  0  0  0  0  0  0
  157.0500  210.8810  155.0460 C   0  0  0  0  0  2  0  0  0  0  0  0
  155.6190  212.5000  156.2940 C   0  0  0  0  0  1  0  0  0  0  0  0
  155.9670  211.9430  154.9270 C   0  0  0  0  0  2  0  0  0  0  0  0
  1  4  1  0  0  0  0
  1  5  1  0  0  0  0
  2 19  1  0  0  0  0
  2 16  1  0  0  0  0
  3 10  1  0  0  0  0
  3 17  1  0  0  0  0
  5 11  1  0  0  0  0
  7 15  1  1  0  0  0
  7 27  1  0  0  0  0
  8  6  1  6  0  0  0
  9 14  1  1  0  0  0
  9  7  1  0  0  0  0
 11 28  1  6  0  0  0
 11  8  1  0  0  0  0
 12  4  1  6  0  0  0
 12 27  1  0  0  0  0
 12  8  1  0  0  0  0
 13  2  2  0  0  0  0
 14 23  1  0  0  0  0
 17 20  1  0  0  0  0
 18 25  2  0  0  0  0
 18 13  1  0  0  0  0
 19  1  2  0  0  0  0
 20  4  2  0  0  0  0
 21 10  2  0  0  0  0
 22 10  1  6  0  0  0
 22 20  1  0  0  0  0
 22  9  1  0  0  0  0
 23 15  1  0  0  0  0
 25 26  1  0  0  0  0
 26 17  2  0  0  0  0
 26 19  1  0  0  0  0
 27 24  1  6  0  0  0
 30 28  1  0  0  0  0
 30 29  1  0  0  0  0
M  END
>  <MODEL>
2

>  <REMARK>
 VINA RESULT:      -5.9      4.605      8.759
  Name = 
  2 active torsions:
  status: ('A' for Active; 'I' for Inactive)
    1  A    between atoms: C_11  and  C_28
    2  A    between atoms: C_28  and  C_30
                            x       y       z     vdW  Elec       q    Type
                         _______ _______ _______ _____ _____    ______ ____

>  <TORSDO>
F 2

$$$$
=
 OpenBabel11122412413D

 30 35  0  0  1  0  0  0  0  0999 V2000
  159.9960  213.2870  148.2120 C   0  0  0  0  0  0  0  0  0  0  0  0
  158.2260  213.6470  149.9460 C   0  0  0  0  0  0  0  0  0  0  0  0
  157.2890  214.3130  145.1540 N   0  0  0  0  0  2  0  0  0  0  0  0
  160.3760  213.2920  146.8370 C   0  0  0  0  0  0  0  0  0  0  0  0
  161.0410  213.0210  149.2750 C   0  0  0  0  0  2  0  0  0  0  0  0
  163.2970  213.9550  147.6740 O   0  0  0  0  0  1  0  0  0  0  0  0
  161.5790  212.3450  143.8920 C   0  0  1  0  0  3  0  0  0  0  0  0
  162.7760  212.6700  147.4990 C   0  0  1  0  0  3  0  0  0  0  0  0
  160.0620  212.5140  143.7680 C   0  0  2  0  0  3  0  0  0  0  0  0
  158.1530  214.1920  144.0320 C   0  0  0  0  0  0  0  0  0  0  0  0
  162.2120  212.1520  148.8170 C   0  0  2  0  0  3  0  0  0  0  0  0
  161.7000  212.6630  146.4130 C   0  0  2  0  0  3  0  0  0  0  0  0
  156.9080  213.9900  150.2600 C   0  0  0  0  0  3  0  0  0  0  0  0
  159.8570  212.5010  142.2740 C   0  0  0  0  0  2  0  0  0  0  0  0
  162.1790  212.6820  142.6720 O   0  0  0  0  0  0  0  0  0  0  0  0
  159.0430  213.3150  150.9750 F   0  0  0  0  0  0  0  0  0  0  0  0
  158.1250  213.9980  146.2560 C   0  0  0  0  0  0  0  0  0  0  0  0
  156.0030  214.3290  149.2570 C   0  0  0  0  0  3  0  0  0  0  0  0
  158.6650  213.6400  148.5940 C   0  0  0  0  0  0  0  0  0  0  0  0
  159.4130  213.6770  145.8840 C   0  0  0  0  0  0  0  0  0  0  0  0
  157.7710  214.4530  142.8620 O   0  0  0  0  0  0  0  0  0  0  0  0
  159.5650  213.8250  144.3960 C   0  0  1  0  0  3  0  0  0  0  0  0
  161.2420  212.3110  141.6990 C   0  0  0  0  0  2  0  0  0  0  0  0
  162.2990  214.4530  144.8850 O   0  0  0  0  0  1  0  0  0  0  0  0
  156.4080  214.3270  147.9260 C   0  0  0  0  0  3  0  0  0  0  0  0
  157.7230  213.9880  147.5870 C   0  0  0  0  0  0  0  0  0  0  0  0
  162.2750  213.0660  145.0540 C   0  0  2  0  0  3  0  0  0  0  0  0
  161.8170  210.6800  148.7120 C   0  0  0  0  0  2  0  0  0  0  0  0
  161.9890  208.4570  149.8320 C   0  0  0  0  0  1  0  0  0  0  0  0
  162.0020  209.9600  150.0380 C   0  0  0  0  0  2  0  0  0  0  0  0
  1 19  1  0  0  0  0
  1  5  1  0  0  0  0
  2 13  1  0  0  0  0
  2 16  1  0  0  0  0
  3 17  1  0  0  0  0
  4  1  2  0  0  0  0
  7 15  1  6  0  0  0
  7 27  1  0  0  0  0
  8  6  1  1  0  0  0
  8 11  1  0  0  0  0
  9 14  1  6  0  0  0
  9  7  1  0  0  0  0
  9 22  1  0  0  0  0
 10  3  1  0  0  0  0
 11 28  1  6  0  0  0
 11  5  1  0  0  0  0
 12  4  1  1  0  0  0
 12  8  1  0  0  0  0
 17 26  1  0  0  0  0
 18 13  2  0  0  0  0
 19  2  2  0  0  0  0
 20 17  2  0  0  0  0
 20  4  1  0  0  0  0
 21 10  2  0  0  0  0
 22 10  1  6  0  0  0
 22 20  1  0  0  0  0
 23 14  1  0  0  0  0
 23 15  1  0  0  0  0
 25 18  1  0  0  0  0
 26 25  2  0  0  0  0
 26 19  1  0  0  0  0
 27 24  1  6  0  0  0
 27 12  1  0  0  0  0
 28 30  1  0  0  0  0
 29 30  1  0  0  0  0
M  END
>  <MODEL>
3

>  <REMARK>
 VINA RESULT:      -5.9      7.104     10.259
  Name = 
  2 active torsions:
  status: ('A' for Active; 'I' for Inactive)
    1  A    between atoms: C_11  and  C_28
    2  A    between atoms: C_28  and  C_30
                            x       y       z     vdW  Elec       q    Type
                         _______ _______ _______ _____ _____    ______ ____

>  <TORSDO>
F 2

$$$$
=
 OpenBabel11122412413D

 30 35  0  0  1  0  0  0  0  0999 V2000
  161.3880  203.9780  148.0180 C   0  0  0  0  0  0  0  0  0  0  0  0
  160.8260  201.5530  148.2950 C   0  0  0  0  0  0  0  0  0  0  0  0
  161.3010  204.5320  152.1920 N   0  0  0  0  0  2  0  0  0  0  0  0
  161.6430  205.2470  148.6180 C   0  0  0  0  0  0  0  0  0  0  0  0
  161.5450  203.8120  146.5220 C   0  0  0  0  0  2  0  0  0  0  0  0
  163.4730  205.9840  146.2130 O   0  0  0  0  0  1  0  0  0  0  0  0
  161.5040  208.4850  149.3300 C   0  0  1  0  0  3  0  0  0  0  0  0
  162.1030  206.2470  146.3000 C   0  0  1  0  0  3  0  0  0  0  0  0
  160.9940  207.6980  150.5400 C   0  0  2  0  0  3  0  0  0  0  0  0
  161.6410  205.9100  152.2480 C   0  0  0  0  0  0  0  0  0  0  0  0
  161.3110  205.0860  145.7100 C   0  0  2  0  0  3  0  0  0  0  0  0
  161.6880  206.5000  147.7500 C   0  0  2  0  0  3  0  0  0  0  0  0
  160.5340  200.4800  149.1400 C   0  0  0  0  0  3  0  0  0  0  0  0
  160.9830  208.7440  151.6250 C   0  0  0  0  0  2  0  0  0  0  0  0
  162.1440  209.6490  149.7770 O   0  0  0  0  0  0  0  0  0  0  0  0
  160.8260  201.3110  146.9610 F   0  0  0  0  0  0  0  0  0  0  0  0
  161.3200  204.2380  150.8050 C   0  0  0  0  0  0  0  0  0  0  0  0
  160.4990  200.6510  150.5220 C   0  0  0  0  0  3  0  0  0  0  0  0
  161.0950  202.8400  148.8340 C   0  0  0  0  0  0  0  0  0  0  0  0
  161.6220  205.3330  150.0240 C   0  0  0  0  0  0  0  0  0  0  0  0
  161.7770  206.5220  153.3390 O   0  0  0  0  0  0  0  0  0  0  0  0
  161.9110  206.5190  150.9000 C   0  0  1  0  0  3  0  0  0  0  0  0
  161.4570  210.0080  150.9440 C   0  0  0  0  0  2  0  0  0  0  0  0
  163.6490  207.4340  148.8380 O   0  0  0  0  0  1  0  0  0  0  0  0
  160.7570  201.9020  151.0740 C   0  0  0  0  0  3  0  0  0  0  0  0
  161.0520  202.9920  150.2470 C   0  0  0  0  0  0  0  0  0  0  0  0
  162.3850  207.7360  148.3220 C   0  0  2  0  0  3  0  0  0  0  0  0
  159.8250  205.4250  145.6060 C   0  0  0  0  0  2  0  0  0  0  0  0
  159.6990  203.2160  144.4510 C   0  0  0  0  0  1  0  0  0  0  0  0
  159.1510  204.6300  144.4970 C   0  0  0  0  0  2  0  0  0  0  0  0
  1  4  2  0  0  0  0
  1 19  1  0  0  0  0
  2 19  2  0  0  0  0
  2 13  1  0  0  0  0
  3 10  1  0  0  0  0
  4 20  1  0  0  0  0
  5  1  1  0  0  0  0
  7 15  1  1  0  0  0
  7  9  1  0  0  0  0
  8  6  1  1  0  0  0
  8 12  1  0  0  0  0
  9 22  1  0  0  0  0
  9 14  1  1  0  0  0
 10 21  2  0  0  0  0
 11 28  1  1  0  0  0
 11  8  1  0  0  0  0
 11  5  1  0  0  0  0
 12 27  1  0  0  0  0
 12  4  1  1  0  0  0
 13 18  2  0  0  0  0
 15 23  1  0  0  0  0
 16  2  1  0  0  0  0
 17  3  1  0  0  0  0
 18 25  1  0  0  0  0
 19 26  1  0  0  0  0
 20 17  2  0  0  0  0
 22 20  1  6  0  0  0
 22 10  1  0  0  0  0
 23 14  1  0  0  0  0
 26 17  1  0  0  0  0
 26 25  2  0  0  0  0
 27 24  1  1  0  0  0
 27  7  1  0  0  0  0
 29 30  1  0  0  0  0
 30 28  1  0  0  0  0
M  END
>  <MODEL>
4

>  <REMARK>
 VINA RESULT:      -5.6      1.142      1.434
  Name = 
  2 active torsions:
  status: ('A' for Active; 'I' for Inactive)
    1  A    between atoms: C_11  and  C_28
    2  A    between atoms: C_28  and  C_30
                            x       y       z     vdW  Elec       q    Type
                         _______ _______ _______ _____ _____    ______ ____

>  <TORSDO>
F 2

$$$$
=
 OpenBabel11122412413D

 30 35  0  0  1  0  0  0  0  0999 V2000
  160.8600  211.0730  151.5760 C   0  0  0  0  0  0  0  0  0  0  0  0
  160.8750  213.1910  150.2410 C   0  0  0  0  0  0  0  0  0  0  0  0
  162.2910  208.9060  148.2610 N   0  0  0  0  0  2  0  0  0  0  0  0
  161.1030  209.6690  151.6390 C   0  0  0  0  0  0  0  0  0  0  0  0
  160.4560  211.8190  152.8300 C   0  0  0  0  0  2  0  0  0  0  0  0
  161.7110  209.9380  154.6770 O   0  0  0  0  0  1  0  0  0  0  0  0
  160.6920  206.4150  152.1480 C   0  0  1  0  0  3  0  0  0  0  0  0
  160.4560  209.6700  154.1220 C   0  0  1  0  0  3  0  0  0  0  0  0
  160.8310  206.6590  150.6420 C   0  0  2  0  0  3  0  0  0  0  0  0
  162.3830  207.6170  148.8520 C   0  0  0  0  0  0  0  0  0  0  0  0
  159.7120  210.9750  153.8640 C   0  0  2  0  0  3  0  0  0  0  0  0
  160.5940  208.8640  152.8310 C   0  0  2  0  0  3  0  0  0  0  0  0
  161.1200  213.8410  149.0280 C   0  0  0  0  0  3  0  0  0  0  0  0
  161.0580  205.2680  150.1090 C   0  0  0  0  0  2  0  0  0  0  0  0
  161.2430  205.1660  152.4620 O   0  0  0  0  0  0  0  0  0  0  0  0
  160.4040  213.9430  151.2650 F   0  0  0  0  0  0  0  0  0  0  0  0
  161.8250  209.7270  149.3200 C   0  0  0  0  0  0  0  0  0  0  0  0
  161.5910  213.1360  147.9240 C   0  0  0  0  0  3  0  0  0  0  0  0
  161.1040  211.7940  150.3660 C   0  0  0  0  0  0  0  0  0  0  0  0
  161.6090  209.0310  150.4900 C   0  0  0  0  0  0  0  0  0  0  0  0
  162.8200  206.6200  148.2190 O   0  0  0  0  0  0  0  0  0  0  0  0
  162.0040  207.5930  150.3070 C   0  0  1  0  0  3  0  0  0  0  0  0
  161.0080  204.3770  151.3290 C   0  0  0  0  0  2  0  0  0  0  0  0
  162.6290  207.5620  153.0850 O   0  0  0  0  0  1  0  0  0  0  0  0
  161.8210  211.7670  148.0210 C   0  0  0  0  0  3  0  0  0  0  0  0
  161.5830  211.0930  149.2250 C   0  0  0  0  0  0  0  0  0  0  0  0
  161.2330  207.4980  153.0900 C   0  0  2  0  0  3  0  0  0  0  0  0
  158.2650  210.7140  153.4460 C   0  0  0  0  0  2  0  0  0  0  0  0
  157.5910  211.4220  155.7420 C   0  0  0  0  0  1  0  0  0  0  0  0
  157.2930  211.5530  154.2610 C   0  0  0  0  0  2  0  0  0  0  0  0
  1  4  1  0  0  0  0
  1  5  1  0  0  0  0
  2 19  1  0  0  0  0
  2 16  1  0  0  0  0
  3 10  1  0  0  0  0
  3 17  1  0  0  0  0
  5 11  1  0  0  0  0
  7 15  1  1  0  0  0
  7 27  1  0  0  0  0
  8  6  1  6  0  0  0
  9 14  1  6  0  0  0
  9  7  1  0  0  0  0
 11 28  1  6  0  0  0
 11  8  1  0  0  0  0
 12  4  1  6  0  0  0
 12 27  1  0  0  0  0
 12  8  1  0  0  0  0
 13  2  2  0  0  0  0
 14 23  1  0  0  0  0
 17 20  1  0  0  0  0
 18 25  2  0  0  0  0
 18 13  1  0  0  0  0
 19  1  2  0  0  0  0
 20  4  2  0  0  0  0
 21 10  2  0  0  0  0
 22 10  1  6  0  0  0
 22 20  1  0  0  0  0
 22  9  1  0  0  0  0
 23 15  1  0  0  0  0
 25 26  1  0  0  0  0
 26 17  2  0  0  0  0
 26 19  1  0  0  0  0
 27 24  1  6  0  0  0
 28 30  1  0  0  0  0
 30 29  1  0  0  0  0
M  END
>  <MODEL>
5

>  <REMARK>
 VINA RESULT:      -5.2      3.682      7.831
  Name = 
  2 active torsions:
  status: ('A' for Active; 'I' for Inactive)
    1  A    between atoms: C_11  and  C_28
    2  A    between atoms: C_28  and  C_30
                            x       y       z     vdW  Elec       q    Type
                         _______ _______ _______ _____ _____    ______ ____

>  <TORSDO>
F 2

$$$$
=
 OpenBabel11122412413D

 30 35  0  0  1  0  0  0  0  0999 V2000
  159.9320  212.4070  152.5210 C   0  0  0  0  0  0  0  0  0  0  0  0
  160.2680  213.3050  150.2080 C   0  0  0  0  0  0  0  0  0  0  0  0
  162.0220  208.8900  151.5220 N   0  0  0  0  0  2  0  0  0  0  0  0
  160.1370  211.3550  153.4630 C   0  0  0  0  0  0  0  0  0  0  0  0
  159.2750  213.6950  152.9690 C   0  0  0  0  0  2  0  0  0  0  0  0
  160.0700  213.4440  155.7670 O   0  0  0  0  0  1  0  0  0  0  0  0
  159.5790  209.0160  155.7500 C   0  0  1  0  0  3  0  0  0  0  0  0
  158.9630  212.7500  155.2700 C   0  0  1  0  0  3  0  0  0  0  0  0
  160.0470  208.3350  154.4610 C   0  0  2  0  0  3  0  0  0  0  0  0
  161.9650  208.2250  152.7760 C   0  0  0  0  0  0  0  0  0  0  0  0
  158.3110  213.5450  154.1460 C   0  0  2  0  0  3  0  0  0  0  0  0
  159.3690  211.3590  154.7810 C   0  0  2  0  0  3  0  0  0  0  0  0
  160.7800  213.1340  148.9190 C   0  0  0  0  0  3  0  0  0  0  0  0
  160.3650  206.9390  154.9300 C   0  0  0  0  0  2  0  0  0  0  0  0
  160.0310  208.2750  156.8490 O   0  0  0  0  0  0  0  0  0  0  0  0
  159.5950  214.4530  150.4610 F   0  0  0  0  0  0  0  0  0  0  0  0
  161.3470  210.1150  151.7610 C   0  0  0  0  0  0  0  0  0  0  0  0
  161.4710  211.9740  148.5750 C   0  0  0  0  0  3  0  0  0  0  0  0
  160.4450  212.2940  151.1920 C   0  0  0  0  0  0  0  0  0  0  0  0
  160.8720  210.2280  153.0500 C   0  0  0  0  0  0  0  0  0  0  0  0
  162.5160  207.1100  152.9680 O   0  0  0  0  0  0  0  0  0  0  0  0
  161.2780  209.0220  153.8500 C   0  0  1  0  0  3  0  0  0  0  0  0
  160.0380  206.9460  156.4050 C   0  0  0  0  0  2  0  0  0  0  0  0
  161.2810  210.7200  156.1360 O   0  0  0  0  0  1  0  0  0  0  0  0
  161.6560  210.9700  149.5200 C   0  0  0  0  0  3  0  0  0  0  0  0
  161.1510  211.1180  150.8180 C   0  0  0  0  0  0  0  0  0  0  0  0
  159.9160  210.5030  155.9250 C   0  0  2  0  0  3  0  0  0  0  0  0
  156.9870  212.9150  153.7160 C   0  0  0  0  0  2  0  0  0  0  0  0
  155.6600  211.1730  154.9120 C   0  0  0  0  0  1  0  0  0  0  0  0
  156.0950  212.6260  154.9140 C   0  0  0  0  0  2  0  0  0  0  0  0
  1  5  1  0  0  0  0
  1  4  1  0  0  0  0
  2 16  1  0  0  0  0
  2 19  1  0  0  0  0
  3 17  1  0  0  0  0
  3 10  1  0  0  0  0
  5 11  1  0  0  0  0
  7 27  1  0  0  0  0
  7 15  1  1  0  0  0
  8  6  1  6  0  0  0
  9 14  1  1  0  0  0
  9  7  1  0  0  0  0
 10 21  2  0  0  0  0
 11 28  1  6  0  0  0
 11  8  1  0  0  0  0
 12  4  1  6  0  0  0
 12  8  1  0  0  0  0
 12 27  1  0  0  0  0
 13  2  2  0  0  0  0
 14 23  1  0  0  0  0
 17 20  1  0  0  0  0
 18 13  1  0  0  0  0
 18 25  2  0  0  0  0
 19  1  2  0  0  0  0
 20  4  2  0  0  0  0
 20 22  1  0  0  0  0
 22 10  1  6  0  0  0
 22  9  1  0  0  0  0
 23 15  1  0  0  0  0
 25 26  1  0  0  0  0
 26 19  1  0  0  0  0
 26 17  2  0  0  0  0
 27 24  1  6  0  0  0
 28 30  1  0  0  0  0
 29 30  1  0  0  0  0
M  END
>  <MODEL>
6

>  <REMARK>
 VINA RESULT:      -4.6      5.423      8.465
  Name = 
  2 active torsions:
  status: ('A' for Active; 'I' for Inactive)
    1  A    between atoms: C_11  and  C_28
    2  A    between atoms: C_28  and  C_30
                            x       y       z     vdW  Elec       q    Type
                         _______ _______ _______ _____ _____    ______ ____

>  <TORSDO>
F 2

$$$$
=
 OpenBabel11122412413D

 30 35  0  0  1  0  0  0  0  0999 V2000
  160.9060  205.4430  147.5650 C   0  0  0  0  0  0  0  0  0  0  0  0
  161.1470  207.2320  149.3000 C   0  0  0  0  0  0  0  0  0  0  0  0
  160.8570  202.4740  150.5510 N   0  0  0  0  0  2  0  0  0  0  0  0
  160.7810  204.0570  147.2510 C   0  0  0  0  0  0  0  0  0  0  0  0
  160.8020  206.4720  146.4600 C   0  0  0  0  0  2  0  0  0  0  0  0
  159.1770  204.8090  144.6940 O   0  0  0  0  0  1  0  0  0  0  0  0
  161.2870  201.0720  145.8900 C   0  0  1  0  0  3  0  0  0  0  0  0
  160.5630  204.6430  144.7620 C   0  0  1  0  0  3  0  0  0  0  0  0
  161.6350  200.9950  147.3800 C   0  0  2  0  0  3  0  0  0  0  0  0
  160.6880  201.3260  149.7300 C   0  0  0  0  0  0  0  0  0  0  0  0
  161.2330  205.9750  145.0800 C   0  0  2  0  0  3  0  0  0  0  0  0
  160.9340  203.5900  145.8060 C   0  0  2  0  0  3  0  0  0  0  0  0
  161.2630  207.5870  150.6470 C   0  0  0  0  0  3  0  0  0  0  0  0
  161.7230  199.5080  147.6140 C   0  0  0  0  0  2  0  0  0  0  0  0
  160.7760  199.8360  145.4750 O   0  0  0  0  0  0  0  0  0  0  0  0
  161.1830  208.2340  148.3880 F   0  0  0  0  0  0  0  0  0  0  0  0
  160.8690  203.5480  149.6250 C   0  0  0  0  0  0  0  0  0  0  0  0
  161.2510  206.6150  151.6440 C   0  0  0  0  0  3  0  0  0  0  0  0
  161.0150  205.8670  148.9260 C   0  0  0  0  0  0  0  0  0  0  0  0
  160.7440  203.1360  148.3150 C   0  0  0  0  0  0  0  0  0  0  0  0
  160.5760  200.1690  150.2130 O   0  0  0  0  0  0  0  0  0  0  0  0
  160.5620  201.6450  148.2660 C   0  0  1  0  0  3  0  0  0  0  0  0
  161.4430  198.8900  146.2630 C   0  0  0  0  0  2  0  0  0  0  0  0
  159.0550  202.0540  145.8850 O   0  0  0  0  0  1  0  0  0  0  0  0
  161.1230  205.2720  151.3020 C   0  0  0  0  0  3  0  0  0  0  0  0
  161.0070  204.8910  149.9600 C   0  0  0  0  0  0  0  0  0  0  0  0
  160.3700  202.2170  145.4400 C   0  0  2  0  0  3  0  0  0  0  0  0
  162.7530  205.8730  144.9640 C   0  0  0  0  0  2  0  0  0  0  0  0
  164.1430  204.3160  146.3320 C   0  0  0  0  0  1  0  0  0  0  0  0
  163.2270  204.4380  145.1280 C   0  0  0  0  0  2  0  0  0  0  0  0
  1 19  1  0  0  0  0
  2 13  1  0  0  0  0
  4  1  2  0  0  0  0
  4 20  1  0  0  0  0
  5  1  1  0  0  0  0
  7 15  1  1  0  0  0
  7  9  1  0  0  0  0
  8  6  1  1  0  0  0
  8 11  1  0  0  0  0
  8 12  1  0  0  0  0
  9 14  1  1  0  0  0
  9 22  1  0  0  0  0
 10 21  2  0  0  0  0
 10  3  1  0  0  0  0
 11 28  1  1  0  0  0
 11  5  1  0  0  0  0
 12  4  1  1  0  0  0
 13 18  2  0  0  0  0
 15 23  1  0  0  0  0
 16  2  1  0  0  0  0
 17 26  1  0  0  0  0
 17  3  1  0  0  0  0
 19  2  2  0  0  0  0
 19 26  1  0  0  0  0
 20 17  2  0  0  0  0
 22 20  1  1  0  0  0
 22 10  1  0  0  0  0
 23 14  1  0  0  0  0
 25 18  1  0  0  0  0
 26 25  2  0  0  0  0
 27 12  1  0  0  0  0
 27 24  1  1  0  0  0
 27  7  1  0  0  0  0
 28 30  1  0  0  0  0
 30 29  1  0  0  0  0
M  END
>  <MODEL>
7

>  <REMARK>
 VINA RESULT:      -4.5      3.252      6.183
  Name = 
  2 active torsions:
  status: ('A' for Active; 'I' for Inactive)
    1  A    between atoms: C_11  and  C_28
    2  A    between atoms: C_28  and  C_30
                            x       y       z     vdW  Elec       q    Type
                         _______ _______ _______ _____ _____    ______ ____

>  <TORSDO>
F 2

$$$$
