=
 OpenBabel11122412343D

 30 35  0  0  1  0  0  0  0  0999 V2000
  161.1240  204.9420  148.4540 C   0  0  1  0  0  3  0  0  0  0  0  0
  161.2910  202.4960  147.7250 C   0  0  0  0  0  0  0  0  0  0  0  0
  161.1050  203.7240  152.4160 C   0  0  0  0  0  2  0  0  0  0  0  0
  161.4990  205.7560  149.7000 C   0  0  1  0  0  3  0  0  0  0  0  0
  162.0200  205.2550  147.4110 O   0  0  0  0  0  0  0  0  0  0  0  0
  161.8260  208.7970  147.6650 O   0  0  0  0  0  0  0  0  0  0  0  0
  160.6810  208.4710  151.3070 C   0  0  1  0  0  3  0  0  0  0  0  0
  161.7120  207.5810  147.9820 C   0  0  0  0  0  0  0  0  0  0  0  0
  160.4650  207.4560  152.4150 C   0  0  2  0  0  3  0  0  0  0  0  0
  161.2470  205.0810  152.9690 C   0  0  0  0  0  0  0  0  0  0  0  0
  161.6930  206.5350  146.9050 C   0  0  2  0  0  3  0  0  0  0  0  0
  161.5890  207.1910  149.3620 N   0  0  0  0  0  0  0  0  0  0  0  0
  161.1720  201.1340  148.0090 C   0  0  0  0  0  3  0  0  0  0  0  0
  161.2200  208.0430  153.5880 C   0  0  0  0  0  2  0  0  0  0  0  0
  160.8840  209.7810  152.0430 C   0  0  0  0  0  2  0  0  0  0  0  0
  161.6060  202.8730  146.4250 O   0  0  0  0  0  1  0  0  0  0  0  0
  160.3260  203.9840  151.1290 C   0  0  1  0  0  3  0  0  0  0  0  0
  160.8100  200.7080  149.2840 C   0  0  0  0  0  3  0  0  0  0  0  0
  161.0810  203.4580  148.7430 C   0  0  0  0  0  0  0  0  0  0  0  0
  160.4700  205.4930  150.8040 C   0  0  1  0  0  3  0  0  0  0  0  0
  161.6290  205.3020  154.1490 O   0  0  0  0  0  0  0  0  0  0  0  0
  160.9140  206.1100  152.0460 N   0  0  0  0  0  0  0  0  0  0  0  0
  161.2010  209.4930  153.4410 N   0  0  0  0  0  2  0  0  0  0  0  0
  163.2080  207.9280  151.0850 C   0  0  0  0  0  1  0  0  0  0  0  0
  160.5560  201.6460  150.2820 C   0  0  0  0  0  3  0  0  0  0  0  0
  160.6850  203.0180  150.0270 C   0  0  0  0  0  0  0  0  0  0  0  0
  161.8830  208.2030  150.3800 C   0  0  2  0  0  3  0  0  0  0  0  0
  160.3710  206.5430  146.1390 C   0  0  0  0  0  2  0  0  0  0  0  0
  161.7850  205.8050  144.3890 F   0  0  0  0  0  0  0  0  0  0  0  0
  160.4940  205.7140  144.8750 C   0  0  0  0  0  2  0  0  0  0  0  0
  1  5  1  6  0  0  0
  1 19  1  0  0  0  0
  1  4  1  0  0  0  0
  2 13  2  0  0  0  0
  2 19  1  0  0  0  0
  3 10  1  0  0  0  0
  4 12  1  6  0  0  0
  4 20  1  0  0  0  0
  6  8  2  0  0  0  0
  7 15  1  1  0  0  0
  7  9  1  0  0  0  0
  8 12  1  0  0  0  0
  9 14  1  1  0  0  0
 10 21  2  0  0  0  0
 11 28  1  1  0  0  0
 11  5  1  0  0  0  0
 11  8  1  0  0  0  0
 12 27  1  0  0  0  0
 13 18  1  0  0  0  0
 15 23  1  0  0  0  0
 16  2  1  0  0  0  0
 17  3  1  1  0  0  0
 18 25  2  0  0  0  0
 19 26  2  0  0  0  0
 20 17  1  0  0  0  0
 20 22  1  1  0  0  0
 22  9  1  0  0  0  0
 22 10  1  0  0  0  0
 23 14  1  0  0  0  0
 26 25  1  0  0  0  0
 26 17  1  0  0  0  0
 27 24  1  1  0  0  0
 27  7  1  0  0  0  0
 29 30  1  0  0  0  0
 30 28  1  0  0  0  0
M  END
>  <MODEL>
1

>  <REMARK>
 VINA RESULT:      -7.7      0.000      0.000
  Name = 
  2 active torsions:
  status: ('A' for Active; 'I' for Inactive)
    1  A    between atoms: C_11  and  C_28
    2  A    between atoms: C_28  and  C_30
                            x       y       z     vdW  Elec       q    Type
                         _______ _______ _______ _____ _____    ______ ____

>  <TORSDO>
F 2

$$$$
=
 OpenBabel11122412343D

 30 35  0  0  1  0  0  0  0  0999 V2000
  161.2830  206.1070  149.7580 C   0  0  1  0  0  3  0  0  0  0  0  0
  161.6190  203.5830  149.5150 C   0  0  0  0  0  0  0  0  0  0  0  0
  161.1970  205.6630  153.8780 C   0  0  0  0  0  2  0  0  0  0  0  0
  161.5650  207.1640  150.8340 C   0  0  1  0  0  3  0  0  0  0  0  0
  162.1950  206.2730  148.6950 O   0  0  0  0  0  0  0  0  0  0  0  0
  161.7840  209.7790  148.2630 O   0  0  0  0  0  0  0  0  0  0  0  0
  160.5340  210.0770  151.8720 C   0  0  1  0  0  3  0  0  0  0  0  0
  161.7310  208.6410  148.8030 C   0  0  0  0  0  0  0  0  0  0  0  0
  160.3390  209.2780  153.1480 C   0  0  2  0  0  3  0  0  0  0  0  0
  161.2390  207.1060  154.1650 C   0  0  0  0  0  0  0  0  0  0  0  0
  161.8110  207.4110  147.9460 C   0  0  2  0  0  3  0  0  0  0  0  0
  161.5830  208.5120  150.2290 N   0  0  0  0  0  0  0  0  0  0  0  0
  161.5700  202.2950  150.0510 C   0  0  0  0  0  3  0  0  0  0  0  0
  161.0160  210.1240  154.2040 C   0  0  0  0  0  2  0  0  0  0  0  0
  160.6330  211.5130  152.3490 C   0  0  0  0  0  2  0  0  0  0  0  0
  161.9570  203.7260  148.1740 O   0  0  0  0  0  1  0  0  0  0  0  0
  160.4490  205.6240  152.5480 C   0  0  1  0  0  3  0  0  0  0  0  0
  161.1890  202.0960  151.3750 C   0  0  0  0  0  3  0  0  0  0  0  0
  161.3170  204.7050  150.3240 C   0  0  0  0  0  0  0  0  0  0  0  0
  160.5150  207.0500  151.9440 C   0  0  1  0  0  3  0  0  0  0  0  0
  161.5660  207.5710  155.2890 O   0  0  0  0  0  0  0  0  0  0  0  0
  160.8790  207.9180  153.0540 N   0  0  0  0  0  0  0  0  0  0  0  0
  160.9170  211.5160  153.7820 N   0  0  0  0  0  2  0  0  0  0  0  0
  163.0940  209.6650  151.8170 C   0  0  0  0  0  1  0  0  0  0  0  0
  160.8450  203.1870  152.1690 C   0  0  0  0  0  3  0  0  0  0  0  0
  160.9030  204.4910  151.6590 C   0  0  0  0  0  0  0  0  0  0  0  0
  161.7800  209.7150  151.0420 C   0  0  2  0  0  3  0  0  0  0  0  0
  160.5190  207.1880  147.1620 C   0  0  0  0  0  2  0  0  0  0  0  0
  159.6540  206.1860  145.2000 F   0  0  0  0  0  0  0  0  0  0  0  0
  160.7540  206.2010  146.0350 C   0  0  0  0  0  2  0  0  0  0  0  0
  1  5  1  6  0  0  0
  1 19  1  0  0  0  0
  1  4  1  0  0  0  0
  2 13  2  0  0  0  0
  2 19  1  0  0  0  0
  3 10  1  0  0  0  0
  4 12  1  6  0  0  0
  4 20  1  0  0  0  0
  6  8  2  0  0  0  0
  7 15  1  1  0  0  0
  7  9  1  0  0  0  0
  8 12  1  0  0  0  0
  9 14  1  1  0  0  0
 10 21  2  0  0  0  0
 11 28  1  1  0  0  0
 11  5  1  0  0  0  0
 11  8  1  0  0  0  0
 12 27  1  0  0  0  0
 13 18  1  0  0  0  0
 15 23  1  0  0  0  0
 16  2  1  0  0  0  0
 17  3  1  1  0  0  0
 18 25  2  0  0  0  0
 19 26  2  0  0  0  0
 20 17  1  0  0  0  0
 20 22  1  1  0  0  0
 22  9  1  0  0  0  0
 22 10  1  0  0  0  0
 23 14  1  0  0  0  0
 26 25  1  0  0  0  0
 26 17  1  0  0  0  0
 27 24  1  1  0  0  0
 27  7  1  0  0  0  0
 29 30  1  0  0  0  0
 30 28  1  0  0  0  0
M  END
>  <MODEL>
2

>  <REMARK>
 VINA RESULT:      -6.6      1.492      1.970
  Name = 
  2 active torsions:
  status: ('A' for Active; 'I' for Inactive)
    1  A    between atoms: C_11  and  C_28
    2  A    between atoms: C_28  and  C_30
                            x       y       z     vdW  Elec       q    Type
                         _______ _______ _______ _____ _____    ______ ____

>  <TORSDO>
F 2

$$$$
=
 OpenBabel11122412343D

 30 35  0  0  1  0  0  0  0  0999 V2000
  161.2050  203.7570  147.9390 C   0  0  1  0  0  3  0  0  0  0  0  0
  161.0320  201.2740  148.5290 C   0  0  0  0  0  0  0  0  0  0  0  0
  161.4290  204.6650  151.9770 C   0  0  0  0  0  2  0  0  0  0  0  0
  161.7840  205.0160  148.6000 C   0  0  1  0  0  3  0  0  0  0  0  0
  162.0270  203.3840  146.8560 O   0  0  0  0  0  0  0  0  0  0  0  0
  162.2480  206.5780  145.3080 O   0  0  0  0  0  0  0  0  0  0  0  0
  161.4260  208.2550  148.6530 C   0  0  1  0  0  3  0  0  0  0  0  0
  162.0320  205.7070  146.1930 C   0  0  0  0  0  0  0  0  0  0  0  0
  161.2060  207.9600  150.1260 C   0  0  2  0  0  3  0  0  0  0  0  0
  161.7710  206.0820  151.7730 C   0  0  0  0  0  0  0  0  0  0  0  0
  161.7950  204.2810  145.7860 C   0  0  2  0  0  3  0  0  0  0  0  0
  161.9980  206.0690  147.5860 N   0  0  0  0  0  0  0  0  0  0  0  0
  160.7920  200.2610  149.4600 C   0  0  0  0  0  3  0  0  0  0  0  0
  162.1290  208.9340  150.8250 C   0  0  0  0  0  2  0  0  0  0  0  0
  161.8400  209.7140  148.6280 C   0  0  0  0  0  2  0  0  0  0  0  0
  161.2620  200.9130  147.2070 O   0  0  0  0  0  1  0  0  0  0  0  0
  160.5640  204.3660  150.7560 C   0  0  1  0  0  3  0  0  0  0  0  0
  160.5080  200.5760  150.7870 C   0  0  0  0  0  3  0  0  0  0  0  0
  161.0270  202.6310  148.9340 C   0  0  0  0  0  0  0  0  0  0  0  0
  160.8410  205.4800  149.7150 C   0  0  1  0  0  3  0  0  0  0  0  0
  162.2860  206.7980  152.6720 O   0  0  0  0  0  0  0  0  0  0  0  0
  161.4670  206.5580  150.4680 N   0  0  0  0  0  0  0  0  0  0  0  0
  162.2550  210.1090  149.9730 N   0  0  0  0  0  2  0  0  0  0  0  0
  163.8450  207.3190  148.6630 C   0  0  0  0  0  1  0  0  0  0  0  0
  160.4540  201.9090  151.1880 C   0  0  0  0  0  3  0  0  0  0  0  0
  160.7090  202.9420  150.2760 C   0  0  0  0  0  0  0  0  0  0  0  0
  162.4960  207.3970  147.9520 C   0  0  2  0  0  3  0  0  0  0  0  0
  160.4150  204.0990  145.1550 C   0  0  0  0  0  2  0  0  0  0  0  0
  158.9830  202.4970  144.1630 F   0  0  0  0  0  0  0  0  0  0  0  0
  160.1550  202.6300  144.8820 C   0  0  0  0  0  2  0  0  0  0  0  0
  1  5  1  6  0  0  0
  1  4  1  0  0  0  0
  1 19  1  0  0  0  0
  2 19  2  0  0  0  0
  2 13  1  0  0  0  0
  4 12  1  6  0  0  0
  4 20  1  0  0  0  0
  6  8  2  0  0  0  0
  7 15  1  1  0  0  0
  7  9  1  0  0  0  0
  8 12  1  0  0  0  0
  9 22  1  0  0  0  0
  9 14  1  1  0  0  0
 10  3  1  0  0  0  0
 10 21  2  0  0  0  0
 11 28  1  1  0  0  0
 11  8  1  0  0  0  0
 11  5  1  0  0  0  0
 12 27  1  0  0  0  0
 13 18  2  0  0  0  0
 15 23  1  0  0  0  0
 16  2  1  0  0  0  0
 17  3  1  1  0  0  0
 18 25  1  0  0  0  0
 19 26  1  0  0  0  0
 20 22  1  1  0  0  0
 20 17  1  0  0  0  0
 22 10  1  0  0  0  0
 23 14  1  0  0  0  0
 26 17  1  0  0  0  0
 26 25  2  0  0  0  0
 27  7  1  0  0  0  0
 27 24  1  1  0  0  0
 29 30  1  0  0  0  0
 30 28  1  0  0  0  0
M  END
>  <MODEL>
3

>  <REMARK>
 VINA RESULT:      -5.2      1.768      2.316
  Name = 
  2 active torsions:
  status: ('A' for Active; 'I' for Inactive)
    1  A    between atoms: C_11  and  C_28
    2  A    between atoms: C_28  and  C_30
                            x       y       z     vdW  Elec       q    Type
                         _______ _______ _______ _____ _____    ______ ____

>  <TORSDO>
F 2

$$$$
=
 OpenBabel11122412343D

 30 35  0  0  1  0  0  0  0  0999 V2000
  160.3010  211.3570  153.0430 C   0  0  1  0  0  3  0  0  0  0  0  0
  161.5960  210.9690  150.8710 C   0  0  0  0  0  0  0  0  0  0  0  0
  157.7440  213.9160  151.0190 C   0  0  0  0  0  2  0  0  0  0  0  0
  158.8730  211.7700  153.4230 C   0  0  1  0  0  3  0  0  0  0  0  0
  160.4780  209.9870  153.3260 O   0  0  0  0  0  0  0  0  0  0  0  0
  159.1800  210.0180  156.6370 O   0  0  0  0  0  0  0  0  0  0  0  0
  157.1890  213.1890  155.8260 C   0  0  1  0  0  3  0  0  0  0  0  0
  159.4220  210.3980  155.4600 C   0  0  0  0  0  0  0  0  0  0  0  0
  156.8240  214.1230  154.6860 C   0  0  2  0  0  3  0  0  0  0  0  0
  156.7820  214.0400  152.1270 C   0  0  0  0  0  0  0  0  0  0  0  0
  160.6040  209.8300  154.7270 C   0  0  2  0  0  3  0  0  0  0  0  0
  158.5850  211.3780  154.8180 N   0  0  0  0  0  0  0  0  0  0  0  0
  161.9160  211.3450  149.5650 C   0  0  0  0  0  3  0  0  0  0  0  0
  155.3150  214.2110  154.7680 C   0  0  0  0  0  2  0  0  0  0  0  0
  156.0710  213.3830  156.8320 C   0  0  0  0  0  2  0  0  0  0  0  0
  162.2700  209.8900  151.4300 O   0  0  0  0  0  1  0  0  0  0  0  0
  159.0620  213.7100  151.7620 C   0  0  1  0  0  3  0  0  0  0  0  0
  161.3040  212.4490  148.9790 C   0  0  0  0  0  3  0  0  0  0  0  0
  160.6170  211.6860  151.6000 C   0  0  0  0  0  0  0  0  0  0  0  0
  158.7080  213.2790  153.2080 C   0  0  1  0  0  3  0  0  0  0  0  0
  155.6030  214.4530  151.9650 O   0  0  0  0  0  0  0  0  0  0  0  0
  157.3120  213.6490  153.3870 N   0  0  0  0  0  0  0  0  0  0  0  0
  154.9390  214.0210  156.1630 N   0  0  0  0  0  2  0  0  0  0  0  0
  156.1260  211.1180  154.6820 C   0  0  0  0  0  1  0  0  0  0  0  0
  160.3730  213.1910  149.7010 C   0  0  0  0  0  3  0  0  0  0  0  0
  160.0220  212.8240  151.0080 C   0  0  0  0  0  0  0  0  0  0  0  0
  157.3060  211.6980  155.4570 C   0  0  2  0  0  3  0  0  0  0  0  0
  161.9190  210.3900  155.2640 C   0  0  0  0  0  2  0  0  0  0  0  0
  161.9910  208.2840  156.3420 F   0  0  0  0  0  0  0  0  0  0  0  0
  162.3610  209.6070  156.4850 C   0  0  0  0  0  2  0  0  0  0  0  0
  1 19  1  6  0  0  0
  1  5  1  0  0  0  0
  1  4  1  0  0  0  0
  2 16  1  0  0  0  0
  2 19  1  0  0  0  0
  3 10  1  0  0  0  0
  4 12  1  1  0  0  0
  5 11  1  0  0  0  0
  7 15  1  1  0  0  0
  8  6  2  0  0  0  0
  9 14  1  6  0  0  0
  9  7  1  0  0  0  0
 10 22  1  0  0  0  0
 11 28  1  1  0  0  0
 11  8  1  0  0  0  0
 12 27  1  0  0  0  0
 12  8  1  0  0  0  0
 13  2  2  0  0  0  0
 14 23  1  0  0  0  0
 17  3  1  6  0  0  0
 17 20  1  0  0  0  0
 18 13  1  0  0  0  0
 18 25  2  0  0  0  0
 20 22  1  6  0  0  0
 20  4  1  0  0  0  0
 21 10  2  0  0  0  0
 22  9  1  0  0  0  0
 23 15  1  0  0  0  0
 25 26  1  0  0  0  0
 26 19  2  0  0  0  0
 26 17  1  0  0  0  0
 27 24  1  6  0  0  0
 27  7  1  0  0  0  0
 28 30  1  0  0  0  0
 29 30  1  0  0  0  0
M  END
>  <MODEL>
4

>  <REMARK>
 VINA RESULT:      -5.1      6.641      9.328
  Name = 
  2 active torsions:
  status: ('A' for Active; 'I' for Inactive)
    1  A    between atoms: C_11  and  C_28
    2  A    between atoms: C_28  and  C_30
                            x       y       z     vdW  Elec       q    Type
                         _______ _______ _______ _____ _____    ______ ____

>  <TORSDO>
F 2

$$$$
=
 OpenBabel11122412343D

 30 35  0  0  1  0  0  0  0  0999 V2000
  161.3820  207.6160  151.5300 C   0  0  1  0  0  3  0  0  0  0  0  0
  162.1300  209.9950  150.9630 C   0  0  0  0  0  0  0  0  0  0  0  0
  161.9700  206.5260  147.5740 C   0  0  0  0  0  2  0  0  0  0  0  0
  161.6210  206.2120  150.9560 C   0  0  1  0  0  3  0  0  0  0  0  0
  162.0870  207.7450  152.7450 O   0  0  0  0  0  0  0  0  0  0  0  0
  160.9930  204.7150  154.2510 O   0  0  0  0  0  0  0  0  0  0  0  0
  160.2400  203.2650  150.7860 C   0  0  1  0  0  3  0  0  0  0  0  0
  161.2240  205.5740  153.3570 C   0  0  0  0  0  0  0  0  0  0  0  0
  160.3790  203.5570  149.3020 C   0  0  2  0  0  3  0  0  0  0  0  0
  161.7920  205.0840  147.8090 C   0  0  0  0  0  0  0  0  0  0  0  0
  161.4000  207.0140  153.7430 C   0  0  2  0  0  3  0  0  0  0  0  0
  161.3080  205.1880  151.9730 N   0  0  0  0  0  0  0  0  0  0  0  0
  162.3920  210.9940  150.0230 C   0  0  0  0  0  3  0  0  0  0  0  0
  161.0370  202.3100  148.7530 C   0  0  0  0  0  2  0  0  0  0  0  0
  160.1470  201.7530  150.8550 C   0  0  0  0  0  2  0  0  0  0  0  0
  162.2400  210.3150  152.3110 O   0  0  0  0  0  1  0  0  0  0  0  0
  161.0590  207.1380  148.6350 C   0  0  1  0  0  3  0  0  0  0  0  0
  162.2470  210.7370  148.6620 C   0  0  0  0  0  3  0  0  0  0  0  0
  161.7500  208.6990  150.5400 C   0  0  0  0  0  0  0  0  0  0  0  0
  160.7790  206.0350  149.6880 C   0  0  1  0  0  3  0  0  0  0  0  0
  162.1880  204.2050  146.9990 O   0  0  0  0  0  0  0  0  0  0  0  0
  161.1360  204.7840  149.0350 N   0  0  0  0  0  0  0  0  0  0  0  0
  160.6290  201.1910  149.5940 N   0  0  0  0  0  2  0  0  0  0  0  0
  162.7990  203.3650  151.2050 C   0  0  0  0  0  1  0  0  0  0  0  0
  161.8300  209.4790  148.2350 C   0  0  0  0  0  3  0  0  0  0  0  0
  161.5770  208.4550  149.1580 C   0  0  0  0  0  0  0  0  0  0  0  0
  161.3990  203.7560  151.6740 C   0  0  2  0  0  3  0  0  0  0  0  0
  160.0710  207.6580  154.1320 C   0  0  0  0  0  2  0  0  0  0  0  0
  159.0350  206.9320  156.1320 F   0  0  0  0  0  0  0  0  0  0  0  0
  159.9820  207.8070  155.6380 C   0  0  0  0  0  2  0  0  0  0  0  0
  1 19  1  6  0  0  0
  1  5  1  0  0  0  0
  2 16  1  0  0  0  0
  3 10  1  0  0  0  0
  4  1  1  0  0  0  0
  4 12  1  1  0  0  0
  5 11  1  0  0  0  0
  7 15  1  6  0  0  0
  7 27  1  0  0  0  0
  8 11  1  0  0  0  0
  8  6  2  0  0  0  0
  9 14  1  6  0  0  0
  9  7  1  0  0  0  0
 10 22  1  0  0  0  0
 11 28  1  6  0  0  0
 12  8  1  0  0  0  0
 13  2  2  0  0  0  0
 14 23  1  0  0  0  0
 17  3  1  6  0  0  0
 17 26  1  0  0  0  0
 17 20  1  0  0  0  0
 18 13  1  0  0  0  0
 19  2  1  0  0  0  0
 20 22  1  6  0  0  0
 20  4  1  0  0  0  0
 21 10  2  0  0  0  0
 22  9  1  0  0  0  0
 23 15  1  0  0  0  0
 25 18  2  0  0  0  0
 25 26  1  0  0  0  0
 26 19  2  0  0  0  0
 27 24  1  6  0  0  0
 27 12  1  0  0  0  0
 28 30  1  0  0  0  0
 30 29  1  0  0  0  0
M  END
>  <MODEL>
5

>  <REMARK>
 VINA RESULT:      -5.0      2.986      7.008
  Name = 
  2 active torsions:
  status: ('A' for Active; 'I' for Inactive)
    1  A    between atoms: C_11  and  C_28
    2  A    between atoms: C_28  and  C_30
                            x       y       z     vdW  Elec       q    Type
                         _______ _______ _______ _____ _____    ______ ____

>  <TORSDO>
F 2

$$$$
=
 OpenBabel11122412343D

 30 35  0  0  1  0  0  0  0  0999 V2000
  161.5190  208.0850  149.1500 C   0  0  1  0  0  3  0  0  0  0  0  0
  161.9630  206.1020  147.5970 C   0  0  0  0  0  0  0  0  0  0  0  0
  161.2350  205.4680  152.3520 C   0  0  0  0  0  2  0  0  0  0  0  0
  161.7040  208.3860  150.6440 C   0  0  1  0  0  3  0  0  0  0  0  0
  162.4780  208.8070  148.4100 O   0  0  0  0  0  0  0  0  0  0  0  0
  161.9560  211.9800  149.9270 O   0  0  0  0  0  0  0  0  0  0  0  0
  160.5080  210.2600  153.0280 C   0  0  1  0  0  3  0  0  0  0  0  0
  161.9180  210.7320  149.7570 C   0  0  0  0  0  0  0  0  0  0  0  0
  160.2780  208.8940  153.6500 C   0  0  2  0  0  3  0  0  0  0  0  0
  161.2070  206.5220  153.3790 C   0  0  0  0  0  0  0  0  0  0  0  0
  162.0900  210.1670  148.3760 C   0  0  2  0  0  3  0  0  0  0  0  0
  161.7010  209.8460  150.8710 N   0  0  0  0  0  0  0  0  0  0  0  0
  161.9360  204.7290  147.3430 C   0  0  0  0  0  3  0  0  0  0  0  0
  160.8670  209.0310  155.0380 C   0  0  0  0  0  2  0  0  0  0  0  0
  160.5280  211.2050  154.2140 C   0  0  0  0  0  2  0  0  0  0  0  0
  162.3640  206.9530  146.5750 O   0  0  0  0  0  1  0  0  0  0  0  0
  160.5590  206.1570  151.1690 C   0  0  1  0  0  3  0  0  0  0  0  0
  161.4940  203.8400  148.3190 C   0  0  0  0  0  3  0  0  0  0  0  0
  161.5770  206.6000  148.8640 C   0  0  0  0  0  0  0  0  0  0  0  0
  160.6020  207.6820  151.4420 C   0  0  1  0  0  3  0  0  0  0  0  0
  161.4570  206.3010  154.5940 O   0  0  0  0  0  0  0  0  0  0  0  0
  160.8740  207.8070  152.8670 N   0  0  0  0  0  0  0  0  0  0  0  0
  160.7370  210.4270  155.4340 N   0  0  0  0  0  2  0  0  0  0  0  0
  163.0820  209.9540  152.9240 C   0  0  0  0  0  1  0  0  0  0  0  0
  161.0680  204.3210  149.5540 C   0  0  0  0  0  3  0  0  0  0  0  0
  161.1020  205.6930  149.8390 C   0  0  0  0  0  0  0  0  0  0  0  0
  161.8090  210.4130  152.2170 C   0  0  2  0  0  3  0  0  0  0  0  0
  160.8500  210.4020  147.5160 C   0  0  0  0  0  2  0  0  0  0  0  0
  162.0420  212.3310  146.8360 F   0  0  0  0  0  0  0  0  0  0  0  0
  160.7710  211.8580  147.0990 C   0  0  0  0  0  2  0  0  0  0  0  0
  1  5  1  6  0  0  0
  1  4  1  0  0  0  0
  2 19  1  0  0  0  0
  3 10  1  0  0  0  0
  4 12  1  6  0  0  0
  4 20  1  0  0  0  0
  7  9  1  0  0  0  0
  7 15  1  1  0  0  0
  8  6  2  0  0  0  0
  8 12  1  0  0  0  0
  9 14  1  1  0  0  0
 10 21  2  0  0  0  0
 11 28  1  6  0  0  0
 11  5  1  0  0  0  0
 11  8  1  0  0  0  0
 12 27  1  0  0  0  0
 13  2  2  0  0  0  0
 13 18  1  0  0  0  0
 14 23  1  0  0  0  0
 15 23  1  0  0  0  0
 16  2  1  0  0  0  0
 17 20  1  0  0  0  0
 17  3  1  1  0  0  0
 18 25  2  0  0  0  0
 19  1  1  0  0  0  0
 19 26  2  0  0  0  0
 20 22  1  1  0  0  0
 22 10  1  0  0  0  0
 22  9  1  0  0  0  0
 25 26  1  0  0  0  0
 26 17  1  0  0  0  0
 27 24  1  1  0  0  0
 27  7  1  0  0  0  0
 29 30  1  0  0  0  0
 30 28  1  0  0  0  0
M  END
>  <MODEL>
6

>  <REMARK>
 VINA RESULT:      -4.9      2.307      3.347
  Name = 
  2 active torsions:
  status: ('A' for Active; 'I' for Inactive)
    1  A    between atoms: C_11  and  C_28
    2  A    between atoms: C_28  and  C_30
                            x       y       z     vdW  Elec       q    Type
                         _______ _______ _______ _____ _____    ______ ____

>  <TORSDO>
F 2

$$$$
