=
 OpenBabel11122413383D

 37 42  0  0  1  0  0  0  0  0999 V2000
  160.0390  210.4370  154.3410 C   0  0  0  0  0  0  0  0  0  0  0  0
  161.8800  207.8800  151.5960 C   0  0  0  0  0  0  0  0  0  0  0  0
  160.0660  207.2640  149.3110 C   0  0  0  0  0  1  0  0  0  0  0  0
  160.9510  208.1140  153.7880 C   0  0  0  0  0  0  0  0  0  0  0  0
  161.9410  208.6610  150.3230 C   0  0  1  0  0  3  0  0  0  0  0  0
  161.2870  208.6340  152.5510 C   0  0  0  0  0  0  0  0  0  0  0  0
  161.4620  207.8520  149.1120 C   0  0  1  0  0  3  0  0  0  0  0  0
  161.2470  206.8050  154.0440 N   0  0  0  0  0  0  0  0  0  0  0  0
  160.8560  209.8830  152.0790 N   0  0  0  0  0  0  0  0  0  0  0  0
  161.3030  211.1380  154.8080 C   0  0  0  0  0  1  0  0  0  0  0  0
  162.5650  205.6170  150.7070 C   0  0  0  0  0  2  0  0  0  0  0  0
  161.8400  206.0110  153.0950 C   0  0  0  0  0  3  0  0  0  0  0  0
  159.8600  210.6510  152.8220 C   0  0  0  0  0  2  0  0  0  0  0  0
  162.1670  206.5310  151.8270 C   0  0  0  0  0  0  0  0  0  0  0  0
  161.0790  209.9210  150.6320 C   0  0  1  0  0  3  0  0  0  0  0  0
  160.1070  208.9370  154.7250 C   0  0  0  0  0  2  0  0  0  0  0  0
  162.5200  206.7910  148.7220 C   0  0  1  0  0  3  0  0  0  0  0  0
  158.8610  211.0610  155.0560 C   0  0  0  0  0  1  0  0  0  0  0  0
  163.3530  206.2880  149.7540 O   0  0  0  0  0  0  0  0  0  0  0  0
  162.0510  211.3320  148.7260 C   0  0  0  0  0  2  0  0  0  0  0  0
  162.4110  212.7050  148.3900 N   0  0  0  0  0  0  0  0  0  0  0  0
  159.8890  213.1310  148.5520 C   0  0  2  0  0  3  0  0  0  0  0  0
  161.2490  213.4580  147.8950 C   0  0  0  0  0  2  0  0  0  0  0  0
  159.8840  212.9300  150.0480 C   0  0  0  0  0  0  0  0  0  0  0  0
  158.8510  213.1490  150.6610 O   0  0  0  0  0  0  0  0  0  0  0  0
  161.0910  212.4730  150.8200 C   0  0  0  0  0  2  0  0  0  0  0  0
  159.2870  212.0600  147.9190 F   0  0  0  0  0  0  0  0  0  0  0  0
  161.7700  211.2280  150.2300 C   0  0  1  0  0  3  0  0  0  0  0  0
  162.7410  213.2330  146.0410 C   0  0  0  0  0  1  0  0  0  0  0  0
  163.3610  212.6420  147.2930 C   0  0  0  0  0  2  0  0  0  0  0  0
  161.8400  204.4710  147.9750 C   0  0  0  0  0  3  0  0  0  0  0  0
  162.1510  205.8000  147.6570 C   0  0  0  0  0  0  0  0  0  0  0  0
  162.0970  206.2230  146.3240 C   0  0  0  0  0  3  0  0  0  0  0  0
  161.6940  205.7360  144.0260 F   0  0  0  0  0  0  0  0  0  0  0  0
  161.4360  203.9970  145.6360 C   0  0  0  0  0  3  0  0  0  0  0  0
  161.7430  205.3220  145.3150 C   0  0  0  0  0  0  0  0  0  0  0  0
  161.4840  203.5720  146.9660 C   0  0  0  0  0  3  0  0  0  0  0  0
  1 16  1  0  0  0  0
  1 10  1  0  0  0  0
  1 18  1  0  0  0  0
  2 14  2  0  0  0  0
  2  6  1  0  0  0  0
  4  8  1  0  0  0  0
  4 16  1  0  0  0  0
  5 15  1  0  0  0  0
  5  2  1  1  0  0  0
  6  4  2  0  0  0  0
  7  3  1  1  0  0  0
  7  5  1  0  0  0  0
  9  6  1  0  0  0  0
  9 13  1  0  0  0  0
 11 14  1  0  0  0  0
 12  8  2  0  0  0  0
 13  1  1  0  0  0  0
 14 12  1  0  0  0  0
 15  9  1  1  0  0  0
 17 32  1  1  0  0  0
 17  7  1  0  0  0  0
 17 19  1  0  0  0  0
 19 11  1  0  0  0  0
 21 20  1  0  0  0  0
 22 27  1  6  0  0  0
 22 24  1  0  0  0  0
 23 21  1  0  0  0  0
 23 22  1  0  0  0  0
 24 25  2  0  0  0  0
 24 26  1  0  0  0  0
 28 20  1  6  0  0  0
 28 15  1  0  0  0  0
 28 26  1  0  0  0  0
 29 30  1  0  0  0  0
 30 21  1  0  0  0  0
 32 31  1  0  0  0  0
 33 32  2  0  0  0  0
 34 36  1  0  0  0  0
 35 37  1  0  0  0  0
 36 35  2  0  0  0  0
 36 33  1  0  0  0  0
 37 31  2  0  0  0  0
M  END
>  <MODEL>
1

>  <REMARK>
 VINA RESULT:      -4.4      0.000      0.000
  Name = 
  3 active torsions:
  status: ('A' for Active; 'I' for Inactive)
    1  A    between atoms: N_4  and  C_37
    2  A    between atoms: C_21  and  C_27
    3  A    between atoms: C_23  and  C_30
                            x       y       z     vdW  Elec       q    Type
                         _______ _______ _______ _____ _____    ______ ____

>  <TORSDO>
F 3

$$$$
=
 OpenBabel11122413383D

 37 42  0  0  1  0  0  0  0  0999 V2000
  158.1240  213.3270  156.4700 C   0  0  0  0  0  0  0  0  0  0  0  0
  160.6690  210.6930  154.4570 C   0  0  0  0  0  0  0  0  0  0  0  0
  159.1530  208.9680  152.5570 C   0  0  0  0  0  1  0  0  0  0  0  0
  159.6640  211.2880  156.5450 C   0  0  0  0  0  0  0  0  0  0  0  0
  160.5370  211.0570  153.0140 C   0  0  1  0  0  3  0  0  0  0  0  0
  159.8670  211.4990  155.1940 C   0  0  0  0  0  0  0  0  0  0  0  0
  160.3320  209.8330  152.1140 C   0  0  1  0  0  3  0  0  0  0  0  0
  160.3090  210.2440  157.1440 N   0  0  0  0  0  0  0  0  0  0  0  0
  159.1140  212.3880  154.4130 N   0  0  0  0  0  0  0  0  0  0  0  0
  159.1300  214.4520  156.6400 C   0  0  0  0  0  1  0  0  0  0  0  0
  161.9820  208.5490  154.2090 C   0  0  0  0  0  2  0  0  0  0  0  0
  161.1220  209.4030  156.4260 C   0  0  0  0  0  3  0  0  0  0  0  0
  157.9260  213.0330  154.9660 C   0  0  0  0  0  2  0  0  0  0  0  0
  161.3180  209.6030  155.0450 C   0  0  0  0  0  0  0  0  0  0  0  0
  159.3500  212.0650  153.0050 C   0  0  1  0  0  3  0  0  0  0  0  0
  158.6020  212.0820  157.2600 C   0  0  0  0  0  2  0  0  0  0  0  0
  161.6530  209.0380  151.9780 C   0  0  1  0  0  3  0  0  0  0  0  0
  156.8020  213.7830  157.0480 C   0  0  0  0  0  1  0  0  0  0  0  0
  162.5710  209.1050  153.0580 O   0  0  0  0  0  0  0  0  0  0  0  0
  160.0660  213.0620  150.7540 C   0  0  0  0  0  2  0  0  0  0  0  0
  160.0310  214.3060  149.9930 N   0  0  0  0  0  0  0  0  0  0  0  0
  157.4970  213.9180  149.9740 C   0  0  2  0  0  3  0  0  0  0  0  0
  158.7620  214.4500  149.2640 C   0  0  0  0  0  2  0  0  0  0  0  0
  157.3770  214.1920  151.4530 C   0  0  0  0  0  0  0  0  0  0  0  0
  156.2620  214.2400  151.9460 O   0  0  0  0  0  0  0  0  0  0  0  0
  158.5660  214.4100  152.3470 C   0  0  0  0  0  2  0  0  0  0  0  0
  157.3270  212.5690  149.7170 F   0  0  0  0  0  0  0  0  0  0  0  0
  159.6550  213.3370  152.2060 C   0  0  1  0  0  3  0  0  0  0  0  0
  160.6530  213.2780  147.8800 C   0  0  0  0  0  1  0  0  0  0  0  0
  161.0780  214.2220  148.9890 C   0  0  0  0  0  2  0  0  0  0  0  0
  161.3910  207.6500  149.8790 C   0  0  0  0  0  3  0  0  0  0  0  0
  161.6010  207.7200  151.2630 C   0  0  0  0  0  0  0  0  0  0  0  0
  161.7900  206.5420  151.9950 C   0  0  0  0  0  3  0  0  0  0  0  0
  161.9410  204.1640  152.0630 F   0  0  0  0  0  0  0  0  0  0  0  0
  161.5470  205.2350  149.9700 C   0  0  0  0  0  3  0  0  0  0  0  0
  161.7600  205.3010  151.3500 C   0  0  0  0  0  0  0  0  0  0  0  0
  161.3630  206.4090  149.2350 C   0  0  0  0  0  3  0  0  0  0  0  0
  1 10  1  0  0  0  0
  1 18  1  0  0  0  0
  1 16  1  0  0  0  0
  2 14  2  0  0  0  0
  2  6  1  0  0  0  0
  4  8  1  0  0  0  0
  4 16  1  0  0  0  0
  5  2  1  1  0  0  0
  6  4  2  0  0  0  0
  7  3  1  1  0  0  0
  7  5  1  0  0  0  0
  9 13  1  0  0  0  0
  9  6  1  0  0  0  0
 11 14  1  0  0  0  0
 12  8  2  0  0  0  0
 13  1  1  0  0  0  0
 14 12  1  0  0  0  0
 15  5  1  0  0  0  0
 15  9  1  1  0  0  0
 17 32  1  1  0  0  0
 17  7  1  0  0  0  0
 17 19  1  0  0  0  0
 19 11  1  0  0  0  0
 21 20  1  0  0  0  0
 22 27  1  1  0  0  0
 22 24  1  0  0  0  0
 23 22  1  0  0  0  0
 23 21  1  0  0  0  0
 24 25  2  0  0  0  0
 24 26  1  0  0  0  0
 28 20  1  6  0  0  0
 28 26  1  0  0  0  0
 28 15  1  0  0  0  0
 29 30  1  0  0  0  0
 30 21  1  0  0  0  0
 31 32  1  0  0  0  0
 32 33  2  0  0  0  0
 35 36  2  0  0  0  0
 36 33  1  0  0  0  0
 36 34  1  0  0  0  0
 37 31  2  0  0  0  0
 37 35  1  0  0  0  0
M  END
>  <MODEL>
2

>  <REMARK>
 VINA RESULT:      -3.0      2.687      4.166
  Name = 
  3 active torsions:
  status: ('A' for Active; 'I' for Inactive)
    1  A    between atoms: N_4  and  C_37
    2  A    between atoms: C_21  and  C_27
    3  A    between atoms: C_23  and  C_30
                            x       y       z     vdW  Elec       q    Type
                         _______ _______ _______ _____ _____    ______ ____

>  <TORSDO>
F 3

$$$$
=
 OpenBabel11122413383D

 37 42  0  0  1  0  0  0  0  0999 V2000
  161.9440  213.3630  147.6730 C   0  0  0  0  0  0  0  0  0  0  0  0
  160.9370  210.6310  150.6710 C   0  0  0  0  0  0  0  0  0  0  0  0
  162.4360  211.1870  153.1870 C   0  0  0  0  0  1  0  0  0  0  0  0
  162.0260  210.9690  148.5680 C   0  0  0  0  0  0  0  0  0  0  0  0
  160.3410  211.4590  151.7630 C   0  0  1  0  0  3  0  0  0  0  0  0
  161.3030  211.4400  149.6490 C   0  0  0  0  0  0  0  0  0  0  0  0
  160.9110  211.1110  153.1430 C   0  0  1  0  0  3  0  0  0  0  0  0
  162.3590  209.6460  148.5370 N   0  0  0  0  0  0  0  0  0  0  0  0
  161.0790  212.7990  149.9150 N   0  0  0  0  0  0  0  0  0  0  0  0
  160.5980  213.3600  146.9700 C   0  0  0  0  0  1  0  0  0  0  0  0
  161.1400  208.4340  151.9020 C   0  0  0  0  0  2  0  0  0  0  0  0
  162.0120  208.7990  149.5590 C   0  0  0  0  0  3  0  0  0  0  0  0
  161.7630  213.8280  149.1350 C   0  0  0  0  0  2  0  0  0  0  0  0
  161.2910  209.2780  150.6710 C   0  0  0  0  0  0  0  0  0  0  0  0
  160.6250  212.9190  151.3020 C   0  0  1  0  0  3  0  0  0  0  0  0
  162.5830  211.9540  147.5740 C   0  0  0  0  0  2  0  0  0  0  0  0
  160.3540  209.7500  153.6270 C   0  0  1  0  0  3  0  0  0  0  0  0
  162.8470  214.3490  146.9650 C   0  0  0  0  0  1  0  0  0  0  0  0
  159.9960  208.8010  152.6360 O   0  0  0  0  0  0  0  0  0  0  0  0
  158.1190  213.1690  150.8260 C   0  0  0  0  0  2  0  0  0  0  0  0
  156.9530  213.9500  151.2240 N   0  0  0  0  0  0  0  0  0  0  0  0
  157.2680  212.7840  153.4850 C   0  0  2  0  0  3  0  0  0  0  0  0
  156.3190  213.3900  152.4260 C   0  0  0  0  0  2  0  0  0  0  0  0
  158.5420  213.5400  153.7720 C   0  0  0  0  0  0  0  0  0  0  0  0
  159.0630  213.4070  154.8680 O   0  0  0  0  0  0  0  0  0  0  0  0
  159.1990  214.4520  152.7730 C   0  0  0  0  0  2  0  0  0  0  0  0
  157.5470  211.4630  153.1890 F   0  0  0  0  0  0  0  0  0  0  0  0
  159.3890  213.8210  151.3860 C   0  0  1  0  0  3  0  0  0  0  0  0
  156.6290  213.2290  148.9250 C   0  0  0  0  0  1  0  0  0  0  0  0
  155.9780  213.8390  150.1520 C   0  0  0  0  0  2  0  0  0  0  0  0
  162.0190  209.7710  155.5320 C   0  0  0  0  0  3  0  0  0  0  0  0
  160.9270  209.1740  154.8890 C   0  0  0  0  0  0  0  0  0  0  0  0
  160.3410  208.0290  155.4410 C   0  0  0  0  0  3  0  0  0  0  0  0
  160.2770  206.3720  157.1520 F   0  0  0  0  0  0  0  0  0  0  0  0
  161.9390  208.0780  157.2600 C   0  0  0  0  0  3  0  0  0  0  0  0
  160.8470  207.4810  156.6230 C   0  0  0  0  0  0  0  0  0  0  0  0
  162.5240  209.2240  156.7150 C   0  0  0  0  0  3  0  0  0  0  0  0
  1 13  1  0  0  0  0
  2 14  1  0  0  0  0
  4  6  1  0  0  0  0
  5  2  1  6  0  0  0
  5  7  1  0  0  0  0
  6  9  1  0  0  0  0
  6  2  2  0  0  0  0
  7  3  1  6  0  0  0
  7 17  1  0  0  0  0
  8  4  2  0  0  0  0
  8 12  1  0  0  0  0
 10  1  1  0  0  0  0
 11 19  1  0  0  0  0
 12 14  2  0  0  0  0
 13  9  1  0  0  0  0
 14 11  1  0  0  0  0
 15  9  1  6  0  0  0
 15 28  1  0  0  0  0
 15  5  1  0  0  0  0
 16  1  1  0  0  0  0
 16  4  1  0  0  0  0
 17 32  1  1  0  0  0
 18  1  1  0  0  0  0
 19 17  1  0  0  0  0
 20 21  1  0  0  0  0
 21 23  1  0  0  0  0
 22 27  1  6  0  0  0
 22 24  1  0  0  0  0
 23 22  1  0  0  0  0
 24 25  2  0  0  0  0
 26 24  1  0  0  0  0
 28 20  1  1  0  0  0
 28 26  1  0  0  0  0
 29 30  1  0  0  0  0
 30 21  1  0  0  0  0
 31 37  1  0  0  0  0
 32 33  1  0  0  0  0
 32 31  2  0  0  0  0
 33 36  2  0  0  0  0
 36 34  1  0  0  0  0
 36 35  1  0  0  0  0
 37 35  2  0  0  0  0
M  END
>  <MODEL>
3

>  <REMARK>
 VINA RESULT:      -2.0      3.616      6.938
  Name = 
  3 active torsions:
  status: ('A' for Active; 'I' for Inactive)
    1  A    between atoms: N_4  and  C_37
    2  A    between atoms: C_21  and  C_27
    3  A    between atoms: C_23  and  C_30
                            x       y       z     vdW  Elec       q    Type
                         _______ _______ _______ _____ _____    ______ ____

>  <TORSDO>
F 3

$$$$
