=
 OpenBabel11122414373D

 34 40  0  0  1  0  0  0  0  0999 V2000
  161.0870  208.2760  154.1540 C   0  0  1  0  0  3  0  0  0  0  0  0
  162.1150  206.3240  153.1320 C   0  0  0  0  0  2  0  0  0  0  0  0
  157.2680  213.3030  153.3220 C   0  0  0  0  0  0  0  0  0  0  0  0
  159.8440  210.2590  155.0800 C   0  0  2  0  0  3  0  0  0  0  0  0
  159.5780  212.3160  153.6070 C   0  0  2  0  0  3  0  0  0  0  0  0
  159.2010  214.3120  152.0260 C   0  0  0  0  0  1  0  0  0  0  0  0
  156.5900  213.2350  152.2610 O   0  0  0  0  0  0  0  0  0  0  0  0
  157.3560  213.1920  155.7900 C   0  0  0  0  0  2  0  0  0  0  0  0
  162.0220  208.2900  152.0040 C   0  0  2  0  0  3  0  0  0  0  0  0
  161.6360  208.4010  148.8280 C   0  0  0  0  0  2  0  0  0  0  0  0
  159.8440  211.4610  152.3630 C   0  0  0  0  0  2  0  0  0  0  0  0
  158.5530  212.2370  155.9690 C   0  0  0  0  0  2  0  0  0  0  0  0
  161.1910  209.4850  151.4980 C   0  0  1  0  0  3  0  0  0  0  0  0
  162.7360  206.0270  151.7690 C   0  0  0  0  0  2  0  0  0  0  0  0
  158.9360  211.4410  154.7160 C   0  0  2  0  0  3  0  0  0  0  0  0
  156.6620  213.0230  154.5510 O   0  0  0  0  0  0  0  0  0  0  0  0
  161.7300  207.1460  149.7140 C   0  0  1  0  0  3  0  0  0  0  0  0
  160.1750  209.4610  153.8100 C   0  0  1  0  0  3  0  0  0  0  0  0
  158.7460  213.5710  153.2790 C   0  0  1  0  0  3  0  0  0  0  0  0
  160.8120  210.3380  152.7220 C   0  0  2  0  0  3  0  0  0  0  0  0
  160.1100  208.4440  156.4300 C   0  0  0  0  0  2  0  0  0  0  0  0
  162.5310  209.5570  149.2820 C   0  0  0  0  0  2  0  0  0  0  0  0
  159.1800  209.4100  155.9950 O   0  0  0  0  0  0  0  0  0  0  0  0
  161.9520  210.3380  150.4700 C   0  0  0  0  0  2  0  0  0  0  0  0
  162.6010  207.3230  150.9820 C   0  0  1  0  0  3  0  0  0  0  0  0
  160.4410  207.4780  155.2890 C   0  0  0  0  0  2  0  0  0  0  0  0
  161.2510  207.4810  152.9380 N   0  0  2  0  0  0  0  0  0  0  0  0
  160.3870  206.6890  150.0440 N   0  0  0  0  0  2  0  0  0  0  0  0
  160.0800  205.6910  149.1830 O   0  0  0  0  0  0  0  0  0  0  0  0
  160.5860  202.4950  149.4050 C   0  0  0  0  0  3  0  0  0  0  0  0
  161.4200  204.1080  148.0530 C   0  0  0  0  0  3  0  0  0  0  0  0
  161.0950  204.7470  149.3640 C   0  0  2  0  0  3  0  0  0  0  0  0
  161.1230  202.8190  148.0890 C   0  0  0  0  0  3  0  0  0  0  0  0
  160.5680  203.5930  150.1480 C   0  0  0  0  0  3  0  0  0  0  0  0
  1 26  1  1  0  0  0
  3 16  1  0  0  0  0
  4 23  1  1  0  0  0
  5 11  1  6  0  0  0
  5 15  1  0  0  0  0
  6 19  1  0  0  0  0
  7  3  2  0  0  0  0
  8 12  1  0  0  0  0
  9 27  1  0  0  0  0
 10 22  1  0  0  0  0
 10 17  1  0  0  0  0
 11 20  1  0  0  0  0
 13  9  1  0  0  0  0
 13 20  1  0  0  0  0
 14  2  1  0  0  0  0
 15  4  1  0  0  0  0
 15 12  1  0  0  0  0
 16  8  1  0  0  0  0
 17 28  1  0  0  0  0
 17 25  1  0  0  0  0
 18  1  1  0  0  0  0
 18  4  1  0  0  0  0
 19  3  1  0  0  0  0
 19  5  1  0  0  0  0
 20 18  1  0  0  0  0
 22 24  1  0  0  0  0
 23 21  1  0  0  0  0
 24 13  1  0  0  0  0
 25 14  1  0  0  0  0
 25  9  1  0  0  0  0
 26 21  1  0  0  0  0
 27  2  1  0  0  0  0
 27  1  1  0  0  0  0
 29 32  1  0  0  0  0
 29 28  1  0  0  0  0
 30 34  2  0  0  0  0
 31 33  2  0  0  0  0
 31 32  1  0  0  0  0
 32 34  1  0  0  0  0
 33 30  1  0  0  0  0
M  END
>  <MODEL>
1

>  <REMARK>
 VINA RESULT:      -8.8      0.000      0.000
  Name = 
  3 active torsions:
  status: ('A' for Active; 'I' for Inactive)
    1  A    between atoms: C_17  and  N_28
    2  A    between atoms: N_28  and  O_29
    3  A    between atoms: O_29  and  C_32
                            x       y       z     vdW  Elec       q    Type
                         _______ _______ _______ _____ _____    ______ ____

>  <TORSDO>
F 3

$$$$
=
 OpenBabel11122414373D

 34 40  0  0  1  0  0  0  0  0999 V2000
  161.7230  209.9480  152.2490 C   0  0  1  0  0  3  0  0  0  0  0  0
  161.2060  211.5640  153.9900 C   0  0  0  0  0  2  0  0  0  0  0  0
  160.4120  204.2330  149.7640 C   0  0  0  0  0  0  0  0  0  0  0  0
  162.0390  208.2180  150.4490 C   0  0  2  0  0  3  0  0  0  0  0  0
  161.9230  205.7600  151.0980 C   0  0  2  0  0  3  0  0  0  0  0  0
  161.6430  203.2930  151.7730 C   0  0  0  0  0  1  0  0  0  0  0  0
  159.3320  203.7460  150.1950 O   0  0  0  0  0  0  0  0  0  0  0  0
  161.6780  205.2650  147.9090 C   0  0  0  0  0  2  0  0  0  0  0  0
  161.3580  209.3560  154.4890 C   0  0  2  0  0  3  0  0  0  0  0  0
  159.5070  207.9930  156.7170 C   0  0  0  0  0  2  0  0  0  0  0  0
  161.1540  206.1320  152.3700 C   0  0  0  0  0  2  0  0  0  0  0  0
  162.2980  206.4670  148.6490 C   0  0  0  0  0  2  0  0  0  0  0  0
  160.9500  207.9020  154.1850 C   0  0  1  0  0  3  0  0  0  0  0  0
  160.8740  211.4710  155.4770 C   0  0  0  0  0  2  0  0  0  0  0  0
  161.6380  206.8090  149.9900 C   0  0  2  0  0  3  0  0  0  0  0  0
  160.4560  204.7990  148.4860 O   0  0  0  0  0  0  0  0  0  0  0  0
  159.5200  209.4730  156.2900 C   0  0  1  0  0  3  0  0  0  0  0  0
  161.3310  208.5430  151.7720 C   0  0  1  0  0  3  0  0  0  0  0  0
  161.6280  204.3170  150.6450 C   0  0  1  0  0  3  0  0  0  0  0  0
  161.6220  207.4990  152.8590 C   0  0  2  0  0  3  0  0  0  0  0  0
  162.1910  210.4110  149.8560 C   0  0  0  0  0  2  0  0  0  0  0  0
  160.8860  207.3280  156.7100 C   0  0  0  0  0  2  0  0  0  0  0  0
  161.6510  209.1660  149.4750 O   0  0  0  0  0  0  0  0  0  0  0  0
  161.3580  206.9310  155.3050 C   0  0  0  0  0  2  0  0  0  0  0  0
  160.8960  209.9830  155.7950 C   0  0  1  0  0  3  0  0  0  0  0  0
  161.4800  210.9360  151.1060 C   0  0  0  0  0  2  0  0  0  0  0  0
  160.9140  210.2510  153.4290 N   0  0  2  0  0  0  0  0  0  0  0  0
  158.4760  209.6950  155.2990 N   0  0  0  0  0  2  0  0  0  0  0  0
  157.6940  210.6990  155.7580 O   0  0  0  0  0  0  0  0  0  0  0  0
  156.2290  213.2690  154.4260 C   0  0  0  0  0  3  0  0  0  0  0  0
  157.7870  211.8080  153.6750 C   0  0  0  0  0  3  0  0  0  0  0  0
  156.9260  211.0780  154.6540 C   0  0  2  0  0  3  0  0  0  0  0  0
  157.3790  213.0610  153.5550 C   0  0  0  0  0  3  0  0  0  0  0  0
  155.9560  212.1370  155.0600 C   0  0  0  0  0  3  0  0  0  0  0  0
  1 26  1  6  0  0  0
  1 27  1  0  0  0  0
  2 14  1  0  0  0  0
  3  7  2  0  0  0  0
  3 19  1  0  0  0  0
  4 23  1  6  0  0  0
  4 18  1  0  0  0  0
  5 11  1  1  0  0  0
  8 16  1  0  0  0  0
  8 12  1  0  0  0  0
  9 25  1  0  0  0  0
 11 20  1  0  0  0  0
 12 15  1  0  0  0  0
 13  9  1  0  0  0  0
 13 24  1  0  0  0  0
 14 25  1  0  0  0  0
 15  4  1  0  0  0  0
 15  5  1  0  0  0  0
 16  3  1  0  0  0  0
 17 10  1  0  0  0  0
 18  1  1  0  0  0  0
 18 20  1  0  0  0  0
 19  5  1  0  0  0  0
 19  6  1  0  0  0  0
 20 13  1  0  0  0  0
 21 26  1  0  0  0  0
 22 10  1  0  0  0  0
 23 21  1  0  0  0  0
 24 22  1  0  0  0  0
 25 17  1  0  0  0  0
 27  2  1  0  0  0  0
 27  9  1  0  0  0  0
 28 29  1  0  0  0  0
 28 17  1  0  0  0  0
 30 34  2  0  0  0  0
 31 32  1  0  0  0  0
 32 34  1  0  0  0  0
 32 29  1  0  0  0  0
 33 31  2  0  0  0  0
 33 30  1  0  0  0  0
M  END
>  <MODEL>
2

>  <REMARK>
 VINA RESULT:      -6.0      1.901      8.047
  Name = 
  3 active torsions:
  status: ('A' for Active; 'I' for Inactive)
    1  A    between atoms: C_17  and  N_28
    2  A    between atoms: N_28  and  O_29
    3  A    between atoms: O_29  and  C_32
                            x       y       z     vdW  Elec       q    Type
                         _______ _______ _______ _____ _____    ______ ____

>  <TORSDO>
F 3

$$$$
=
 OpenBabel11122414373D

 34 40  0  0  1  0  0  0  0  0999 V2000
  159.1310  212.7010  137.4900 C   0  0  1  0  0  3  0  0  0  0  0  0
  161.4970  213.0250  137.9440 C   0  0  0  0  0  2  0  0  0  0  0  0
  153.8340  209.5010  138.9910 C   0  0  0  0  0  0  0  0  0  0  0  0
  156.6550  212.3230  137.2390 C   0  0  2  0  0  3  0  0  0  0  0  0
  155.7690  209.9450  137.4250 C   0  0  2  0  0  3  0  0  0  0  0  0
  154.9030  207.5480  137.7750 C   0  0  0  0  0  1  0  0  0  0  0  0
  153.9300  208.8760  140.0820 O   0  0  0  0  0  0  0  0  0  0  0  0
  152.8860  211.3890  137.7080 C   0  0  0  0  0  2  0  0  0  0  0  0
  160.6260  210.9320  137.8550 C   0  0  2  0  0  3  0  0  0  0  0  0
  161.7010  208.5700  139.7310 C   0  0  0  0  0  2  0  0  0  0  0  0
  157.0400  209.5290  138.1730 C   0  0  0  0  0  2  0  0  0  0  0  0
  154.1690  211.9290  137.0460 C   0  0  0  0  0  2  0  0  0  0  0  0
  159.5480  209.9290  138.3100 C   0  0  1  0  0  3  0  0  0  0  0  0
  162.6650  212.0970  138.2680 C   0  0  0  0  0  2  0  0  0  0  0  0
  155.4770  211.4470  137.6860 C   0  0  2  0  0  3  0  0  0  0  0  0
  153.1170  210.7000  138.9390 O   0  0  0  0  0  0  0  0  0  0  0  0
  162.2060  210.0240  139.6760 C   0  0  1  0  0  3  0  0  0  0  0  0
  157.9400  211.8390  137.9280 C   0  0  1  0  0  3  0  0  0  0  0  0
  154.5730  209.0360  137.7670 C   0  0  1  0  0  3  0  0  0  0  0  0
  158.2180  210.3520  137.6600 C   0  0  2  0  0  3  0  0  0  0  0  0
  157.4350  214.4520  137.0250 C   0  0  0  0  0  2  0  0  0  0  0  0
  161.2790  208.0040  138.3730 C   0  0  0  0  0  2  0  0  0  0  0  0
  156.4180  213.6680  137.6050 O   0  0  0  0  0  0  0  0  0  0  0  0
  159.8910  208.4810  137.9240 C   0  0  0  0  0  2  0  0  0  0  0  0
  162.0650  210.6980  138.2900 C   0  0  1  0  0  3  0  0  0  0  0  0
  158.7740  214.1730  137.7110 C   0  0  0  0  0  2  0  0  0  0  0  0
  160.2890  212.2830  138.2800 N   0  0  2  0  0  0  0  0  0  0  0  0
  161.5500  210.8000  140.7200 N   0  0  0  0  0  2  0  0  0  0  0  0
  162.5220  211.4120  141.4350 O   0  0  0  0  0  0  0  0  0  0  0  0
  160.3270  212.4190  143.6020 C   0  0  0  0  0  3  0  0  0  0  0  0
  162.5090  212.9150  143.2580 C   0  0  0  0  0  3  0  0  0  0  0  0
  161.9150  212.5700  141.9310 C   0  0  2  0  0  3  0  0  0  0  0  0
  161.5900  212.8220  144.2060 C   0  0  0  0  0  3  0  0  0  0  0  0
  160.4990  212.2740  142.2950 C   0  0  0  0  0  3  0  0  0  0  0  0
  1 26  1  1  0  0  0
  1 18  1  0  0  0  0
  1 27  1  0  0  0  0
  2 14  1  0  0  0  0
  2 27  1  0  0  0  0
  3  7  2  0  0  0  0
  4 23  1  1  0  0  0
  4 15  1  0  0  0  0
  4 18  1  0  0  0  0
  5 15  1  0  0  0  0
  5 19  1  0  0  0  0
  5 11  1  1  0  0  0
  8 16  1  0  0  0  0
  9 27  1  0  0  0  0
  9 25  1  0  0  0  0
  9 13  1  0  0  0  0
 12 15  1  0  0  0  0
 12  8  1  0  0  0  0
 14 25  1  0  0  0  0
 16  3  1  0  0  0  0
 17 10  1  0  0  0  0
 17 28  1  0  0  0  0
 19  6  1  0  0  0  0
 19  3  1  0  0  0  0
 20 18  1  0  0  0  0
 20 11  1  0  0  0  0
 20 13  1  0  0  0  0
 21 23  1  0  0  0  0
 21 26  1  0  0  0  0
 22 10  1  0  0  0  0
 24 13  1  0  0  0  0
 24 22  1  0  0  0  0
 25 17  1  0  0  0  0
 28 29  1  0  0  0  0
 29 32  1  0  0  0  0
 30 33  1  0  0  0  0
 31 33  2  0  0  0  0
 32 34  1  0  0  0  0
 32 31  1  0  0  0  0
 34 30  2  0  0  0  0
M  END
>  <MODEL>
3

>  <REMARK>
 VINA RESULT:      -5.9     11.539     14.940
  Name = 
  3 active torsions:
  status: ('A' for Active; 'I' for Inactive)
    1  A    between atoms: C_17  and  N_28
    2  A    between atoms: N_28  and  O_29
    3  A    between atoms: O_29  and  C_32
                            x       y       z     vdW  Elec       q    Type
                         _______ _______ _______ _____ _____    ______ ____

>  <TORSDO>
F 3

$$$$
