=
 OpenBabel11122413213D

 31 35  0  0  0  0  0  0  0  0999 V2000
  161.1590  201.2950  149.4780 C   0  0  0  0  0  0  0  0  0  0  0  0
  161.0740  205.0180  149.0130 C   0  0  0  0  0  0  0  0  0  0  0  0
  161.0740  205.2310  147.6100 C   0  0  0  0  0  0  0  0  0  0  0  0
  161.0170  206.0400  154.1700 O   0  0  0  0  0  0  0  0  0  0  0  0
  160.9960  207.1350  153.5510 C   0  0  0  0  0  0  0  0  0  0  0  0
  161.1120  204.3570  145.3180 C   0  0  0  0  0  0  0  0  0  0  0  0
  161.0990  203.7300  149.6090 C   0  0  0  0  0  0  0  0  0  0  0  0
  161.1510  201.2090  150.8710 C   0  0  0  0  0  3  0  0  0  0  0  0
  161.0560  204.1650  146.7020 O   0  0  0  0  0  0  0  0  0  0  0  0
  161.0380  205.9920  151.2590 C   0  0  0  0  0  0  0  0  0  0  0  0
  161.1920  200.1380  148.7120 O   0  0  0  0  0  1  0  0  0  0  0  0
  161.0220  207.6020  147.9580 N   0  0  0  0  0  0  0  0  0  0  0  0
  160.9860  203.3720  144.5470 O   0  0  0  0  0  0  0  0  0  0  0  0
  161.0620  204.7420  151.7900 N   0  0  0  0  0  0  0  0  0  0  0  0
  161.0440  206.1540  149.8630 C   0  0  0  0  0  0  0  0  0  0  0  0
  161.0060  207.1450  152.1140 N   0  0  0  0  0  2  0  0  0  0  0  0
  161.1340  202.5450  148.8550 C   0  0  0  0  0  3  0  0  0  0  0  0
  161.3930  205.7130  144.7450 C   0  0  0  0  0  2  0  0  0  0  0  0
  161.0930  203.6260  151.0220 C   0  0  0  0  0  0  0  0  0  0  0  0
  161.1170  202.3730  151.6400 C   0  0  0  0  0  3  0  0  0  0  0  0
  161.0140  207.4360  149.3030 C   0  0  0  0  0  3  0  0  0  0  0  0
  161.0620  206.5440  147.1110 C   0  0  0  0  0  0  0  0  0  0  0  0
  161.0610  206.7650  145.7000 N   0  0  0  0  0  2  0  0  0  0  0  0
  160.9580  210.9450  155.5460 C   0  0  0  0  0  0  0  0  0  0  0  0
  161.4210  209.5720  153.6140 C   0  0  0  0  0  3  0  0  0  0  0  0
  159.8880  207.2220  156.5810 Cl  0  0  0  0  0  0  0  0  0  0  0  0
  160.9550  212.1560  156.1520 F   0  0  0  0  0  0  0  0  0  0  0  0
  161.4200  210.8210  154.2370 C   0  0  0  0  0  3  0  0  0  0  0  0
  160.4920  208.5630  155.6180 C   0  0  0  0  0  0  0  0  0  0  0  0
  160.9620  208.4260  154.2840 C   0  0  0  0  0  0  0  0  0  0  0  0
  160.4960  209.8210  156.2300 C   0  0  0  0  0  3  0  0  0  0  0  0
  1  8  1  0  0  0  0
  2  7  1  0  0  0  0
  2 15  1  0  0  0  0
  3  2  2  0  0  0  0
  5  4  2  0  0  0  0
  5 30  1  0  0  0  0
  6  9  1  0  0  0  0
  7 19  2  0  0  0  0
  8 20  2  0  0  0  0
  9  3  1  0  0  0  0
 10 14  2  0  0  0  0
 10 16  1  0  0  0  0
 11  1  1  0  0  0  0
 12 21  1  0  0  0  0
 13  6  2  0  0  0  0
 15 10  1  0  0  0  0
 16  5  1  0  0  0  0
 17  1  2  0  0  0  0
 17  7  1  0  0  0  0
 18  6  1  0  0  0  0
 18 23  1  0  0  0  0
 19 20  1  0  0  0  0
 19 14  1  0  0  0  0
 21 15  2  0  0  0  0
 22  3  1  0  0  0  0
 22 12  2  0  0  0  0
 23 22  1  0  0  0  0
 24 27  1  0  0  0  0
 24 31  1  0  0  0  0
 25 28  1  0  0  0  0
 25 30  2  0  0  0  0
 28 24  2  0  0  0  0
 29 31  2  0  0  0  0
 29 26  1  0  0  0  0
 30 29  1  0  0  0  0
M  END
>  <MODEL>
1

>  <REMARK>
 VINA RESULT:     -10.6      0.000      0.000
  Name = 
  1 active torsions:
  status: ('A' for Active; 'I' for Inactive)
    1  A    between atoms: C_5  and  C_30
                            x       y       z     vdW  Elec       q    Type
                         _______ _______ _______ _____ _____    ______ ____

>  <TORSDO>
F 1

$$$$
=
 OpenBabel11122413213D

 31 35  0  0  0  0  0  0  0  0999 V2000
  161.6270  205.3570  146.0380 C   0  0  0  0  0  0  0  0  0  0  0  0
  161.1750  204.5340  149.6720 C   0  0  0  0  0  0  0  0  0  0  0  0
  161.1190  203.1180  149.7420 C   0  0  0  0  0  0  0  0  0  0  0  0
  161.1820  209.5640  151.2010 O   0  0  0  0  0  0  0  0  0  0  0  0
  161.0360  208.8420  152.2210 C   0  0  0  0  0  0  0  0  0  0  0  0
  161.1630  200.9230  148.6470 C   0  0  0  0  0  0  0  0  0  0  0  0
  161.3440  205.2520  148.4590 C   0  0  0  0  0  0  0  0  0  0  0  0
  161.6730  206.7510  146.0930 C   0  0  0  0  0  3  0  0  0  0  0  0
  161.2710  202.3160  148.6030 O   0  0  0  0  0  0  0  0  0  0  0  0
  161.1140  206.6730  150.8600 C   0  0  0  0  0  0  0  0  0  0  0  0
  161.7440  204.7080  144.8170 O   0  0  0  0  0  1  0  0  0  0  0  0
  160.8420  203.2350  152.1200 N   0  0  0  0  0  0  0  0  0  0  0  0
  161.4130  200.2460  147.6170 O   0  0  0  0  0  0  0  0  0  0  0  0
  161.2770  207.3230  149.6790 N   0  0  0  0  0  0  0  0  0  0  0  0
  161.0600  205.2700  150.8800 C   0  0  0  0  0  0  0  0  0  0  0  0
  160.9990  207.4130  152.0860 N   0  0  0  0  0  2  0  0  0  0  0  0
  161.4630  204.6160  147.2110 C   0  0  0  0  0  3  0  0  0  0  0  0
  160.6820  200.2310  149.8860 C   0  0  0  0  0  2  0  0  0  0  0  0
  161.3910  206.6670  148.4980 C   0  0  0  0  0  0  0  0  0  0  0  0
  161.5550  207.4030  147.3210 C   0  0  0  0  0  3  0  0  0  0  0  0
  160.8980  204.5880  152.0910 C   0  0  0  0  0  3  0  0  0  0  0  0
  160.9360  202.4950  150.9870 C   0  0  0  0  0  0  0  0  0  0  0  0
  160.8800  201.0700  151.0650 N   0  0  0  0  0  2  0  0  0  0  0  0
  160.6580  210.7390  156.0630 C   0  0  0  0  0  0  0  0  0  0  0  0
  160.9590  210.8470  153.6690 C   0  0  0  0  0  3  0  0  0  0  0  0
  160.6230  206.9350  154.7920 Cl  0  0  0  0  0  0  0  0  0  0  0  0
  160.5410  211.3590  157.2610 F   0  0  0  0  0  0  0  0  0  0  0  0
  160.8390  211.4890  154.9020 C   0  0  0  0  0  3  0  0  0  0  0  0
  160.7160  208.6910  154.7590 C   0  0  0  0  0  0  0  0  0  0  0  0
  160.9010  209.4470  153.5710 C   0  0  0  0  0  0  0  0  0  0  0  0
  160.5970  209.3470  155.9890 C   0  0  0  0  0  3  0  0  0  0  0  0
  1  8  2  0  0  0  0
  1 17  1  0  0  0  0
  2  3  2  0  0  0  0
  2 15  1  0  0  0  0
  3 22  1  0  0  0  0
  4  5  2  0  0  0  0
  5 30  1  0  0  0  0
  6 18  1  0  0  0  0
  7 19  1  0  0  0  0
  7  2  1  0  0  0  0
  8 20  1  0  0  0  0
  9  6  1  0  0  0  0
  9  3  1  0  0  0  0
 10 15  1  0  0  0  0
 10 16  1  0  0  0  0
 11  1  1  0  0  0  0
 13  6  2  0  0  0  0
 14 10  2  0  0  0  0
 15 21  2  0  0  0  0
 16  5  1  0  0  0  0
 17  7  2  0  0  0  0
 18 23  1  0  0  0  0
 19 14  1  0  0  0  0
 20 19  2  0  0  0  0
 21 12  1  0  0  0  0
 22 23  1  0  0  0  0
 22 12  2  0  0  0  0
 24 27  1  0  0  0  0
 25 28  1  0  0  0  0
 28 24  2  0  0  0  0
 29 26  1  0  0  0  0
 29 31  2  0  0  0  0
 30 25  2  0  0  0  0
 30 29  1  0  0  0  0
 31 24  1  0  0  0  0
M  END
>  <MODEL>
2

>  <REMARK>
 VINA RESULT:      -9.2      1.591      4.024
  Name = 
  1 active torsions:
  status: ('A' for Active; 'I' for Inactive)
    1  A    between atoms: C_5  and  C_30
                            x       y       z     vdW  Elec       q    Type
                         _______ _______ _______ _____ _____    ______ ____

>  <TORSDO>
F 1

$$$$
=
 OpenBabel11122413213D

 31 35  0  0  0  0  0  0  0  0999 V2000
  161.5330  201.1820  149.0890 C   0  0  0  0  0  0  0  0  0  0  0  0
  161.1650  204.9100  148.8530 C   0  0  0  0  0  0  0  0  0  0  0  0
  161.1250  205.2060  147.4660 C   0  0  0  0  0  0  0  0  0  0  0  0
  161.1180  205.6120  154.0640 O   0  0  0  0  0  0  0  0  0  0  0  0
  161.0050  206.7380  153.5130 C   0  0  0  0  0  0  0  0  0  0  0  0
  161.1900  204.4770  145.1250 C   0  0  0  0  0  0  0  0  0  0  0  0
  161.2950  203.5930  149.3700 C   0  0  0  0  0  0  0  0  0  0  0  0
  161.5540  201.0120  150.4730 C   0  0  0  0  0  3  0  0  0  0  0  0
  161.1720  204.1980  146.4950 O   0  0  0  0  0  0  0  0  0  0  0  0
  161.0940  205.7410  151.1550 C   0  0  0  0  0  0  0  0  0  0  0  0
  161.6390  200.0790  148.2530 O   0  0  0  0  0  1  0  0  0  0  0  0
  160.9030  207.5410  147.9600 N   0  0  0  0  0  0  0  0  0  0  0  0
  161.1250  203.5330  144.2960 O   0  0  0  0  0  0  0  0  0  0  0  0
  161.2190  204.4670  151.6090 N   0  0  0  0  0  0  0  0  0  0  0  0
  161.0640  205.9870  149.7720 C   0  0  0  0  0  0  0  0  0  0  0  0
  160.9900  206.8350  152.0800 N   0  0  0  0  0  2  0  0  0  0  0  0
  161.4050  202.4620  148.5430 C   0  0  0  0  0  3  0  0  0  0  0  0
  161.3600  205.8820  144.6320 C   0  0  0  0  0  2  0  0  0  0  0  0
  161.3190  203.4050  150.7730 C   0  0  0  0  0  0  0  0  0  0  0  0
  161.4470  202.1220  151.3130 C   0  0  0  0  0  3  0  0  0  0  0  0
  160.9300  207.2940  149.2920 C   0  0  0  0  0  3  0  0  0  0  0  0
  161.0080  206.5420  147.0490 C   0  0  0  0  0  0  0  0  0  0  0  0
  160.9670  206.8480  145.6540 N   0  0  0  0  0  2  0  0  0  0  0  0
  160.6530  210.2330  155.9960 C   0  0  0  0  0  0  0  0  0  0  0  0
  160.7330  207.8360  155.7140 C   0  0  0  0  0  3  0  0  0  0  0  0
  161.1130  209.6180  152.0600 Cl  0  0  0  0  0  0  0  0  0  0  0  0
  160.5400  211.3170  156.7980 F   0  0  0  0  0  0  0  0  0  0  0  0
  160.6160  208.9520  156.5440 C   0  0  0  0  0  3  0  0  0  0  0  0
  160.9240  209.2860  153.7770 C   0  0  0  0  0  0  0  0  0  0  0  0
  160.8870  207.9760  154.3250 C   0  0  0  0  0  0  0  0  0  0  0  0
  160.8060  210.3960  154.6190 C   0  0  0  0  0  3  0  0  0  0  0  0
  1  8  1  0  0  0  0
  2  7  1  0  0  0  0
  2 15  1  0  0  0  0
  3  2  2  0  0  0  0
  5  4  2  0  0  0  0
  5 30  1  0  0  0  0
  6  9  1  0  0  0  0
  7 19  2  0  0  0  0
  8 20  2  0  0  0  0
  9  3  1  0  0  0  0
 10 14  2  0  0  0  0
 10 16  1  0  0  0  0
 11  1  1  0  0  0  0
 12 21  1  0  0  0  0
 13  6  2  0  0  0  0
 15 10  1  0  0  0  0
 16  5  1  0  0  0  0
 17  1  2  0  0  0  0
 17  7  1  0  0  0  0
 18  6  1  0  0  0  0
 18 23  1  0  0  0  0
 19 20  1  0  0  0  0
 19 14  1  0  0  0  0
 21 15  2  0  0  0  0
 22  3  1  0  0  0  0
 22 12  2  0  0  0  0
 23 22  1  0  0  0  0
 24 28  1  0  0  0  0
 24 27  1  0  0  0  0
 25 28  2  0  0  0  0
 26 29  1  0  0  0  0
 29 30  2  0  0  0  0
 29 31  1  0  0  0  0
 30 25  1  0  0  0  0
 31 24  2  0  0  0  0
M  END
>  <MODEL>
3

>  <REMARK>
 VINA RESULT:      -9.0      1.061      1.361
  Name = 
  1 active torsions:
  status: ('A' for Active; 'I' for Inactive)
    1  A    between atoms: C_5  and  C_30
                            x       y       z     vdW  Elec       q    Type
                         _______ _______ _______ _____ _____    ______ ____

>  <TORSDO>
F 1

$$$$
=
 OpenBabel11122413213D

 31 35  0  0  0  0  0  0  0  0999 V2000
  161.8320  210.8450  150.0700 C   0  0  0  0  0  0  0  0  0  0  0  0
  161.3560  207.3940  151.4670 C   0  0  0  0  0  0  0  0  0  0  0  0
  161.2290  207.5600  152.8700 C   0  0  0  0  0  0  0  0  0  0  0  0
  161.5920  205.0500  146.7660 O   0  0  0  0  0  0  0  0  0  0  0  0
  161.4190  204.1620  147.6410 C   0  0  0  0  0  0  0  0  0  0  0  0
  161.1770  209.0050  154.8530 C   0  0  0  0  0  0  0  0  0  0  0  0
  161.5490  208.4730  150.5640 C   0  0  0  0  0  0  0  0  0  0  0  0
  161.9370  210.5590  148.7090 C   0  0  0  0  0  3  0  0  0  0  0  0
  161.2450  208.8270  153.4670 O   0  0  0  0  0  0  0  0  0  0  0  0
  161.3970  205.8650  149.5550 C   0  0  0  0  0  0  0  0  0  0  0  0
  161.9170  212.1580  150.5120 O   0  0  0  0  0  1  0  0  0  0  0  0
  160.9760  205.1920  153.1400 N   0  0  0  0  0  0  0  0  0  0  0  0
  161.0880  210.1650  155.3280 O   0  0  0  0  0  0  0  0  0  0  0  0
  161.5810  206.9240  148.7250 N   0  0  0  0  0  0  0  0  0  0  0  0
  161.2810  206.0790  150.9380 C   0  0  0  0  0  0  0  0  0  0  0  0
  161.3190  204.5320  149.0260 N   0  0  0  0  0  2  0  0  0  0  0  0
  161.6400  209.8100  150.9880 C   0  0  0  0  0  3  0  0  0  0  0  0
  161.2830  207.8320  155.7800 C   0  0  0  0  0  2  0  0  0  0  0  0
  161.6590  208.1990  149.1790 C   0  0  0  0  0  0  0  0  0  0  0  0
  161.8510  209.2390  148.2650 C   0  0  0  0  0  3  0  0  0  0  0  0
  161.0860  204.9960  151.8040 C   0  0  0  0  0  3  0  0  0  0  0  0
  161.0540  206.4310  153.6860 C   0  0  0  0  0  0  0  0  0  0  0  0
  160.9250  206.5910  155.1000 N   0  0  0  0  0  2  0  0  0  0  0  0
  161.1740  199.9730  146.6980 C   0  0  0  0  0  0  0  0  0  0  0  0
  161.6650  201.7720  148.2320 C   0  0  0  0  0  3  0  0  0  0  0  0
  160.4210  203.3560  144.6800 Cl  0  0  0  0  0  0  0  0  0  0  0  0
  161.1050  198.6490  146.4250 F   0  0  0  0  0  0  0  0  0  0  0  0
  161.5960  200.4060  147.9530 C   0  0  0  0  0  3  0  0  0  0  0  0
  160.8890  202.2780  145.9880 C   0  0  0  0  0  0  0  0  0  0  0  0
  161.3170  202.7290  147.2650 C   0  0  0  0  0  0  0  0  0  0  0  0
  160.8230  200.9060  145.7220 C   0  0  0  0  0  3  0  0  0  0  0  0
  1 11  1  0  0  0  0
  1 17  1  0  0  0  0
  2  3  2  0  0  0  0
  3  9  1  0  0  0  0
  3 22  1  0  0  0  0
  4  5  2  0  0  0  0
  5 16  1  0  0  0  0
  6 13  2  0  0  0  0
  6 18  1  0  0  0  0
  7 17  2  0  0  0  0
  7  2  1  0  0  0  0
  8  1  2  0  0  0  0
  9  6  1  0  0  0  0
 10 15  1  0  0  0  0
 12 22  2  0  0  0  0
 14 19  1  0  0  0  0
 14 10  2  0  0  0  0
 15  2  1  0  0  0  0
 15 21  2  0  0  0  0
 16 10  1  0  0  0  0
 19  7  1  0  0  0  0
 20  8  1  0  0  0  0
 20 19  2  0  0  0  0
 21 12  1  0  0  0  0
 22 23  1  0  0  0  0
 23 18  1  0  0  0  0
 24 28  1  0  0  0  0
 26 29  1  0  0  0  0
 27 24  1  0  0  0  0
 28 25  2  0  0  0  0
 29 30  2  0  0  0  0
 30  5  1  0  0  0  0
 30 25  1  0  0  0  0
 31 29  1  0  0  0  0
 31 24  2  0  0  0  0
M  END
>  <MODEL>
4

>  <REMARK>
 VINA RESULT:      -8.7      4.456      9.155
  Name = 
  1 active torsions:
  status: ('A' for Active; 'I' for Inactive)
    1  A    between atoms: C_5  and  C_30
                            x       y       z     vdW  Elec       q    Type
                         _______ _______ _______ _____ _____    ______ ____

>  <TORSDO>
F 1

$$$$
=
 OpenBabel11122413213D

 31 35  0  0  0  0  0  0  0  0999 V2000
  161.6940  211.9010  149.6320 C   0  0  0  0  0  0  0  0  0  0  0  0
  161.3340  208.6050  151.3900 C   0  0  0  0  0  0  0  0  0  0  0  0
  161.2380  208.9130  152.7720 C   0  0  0  0  0  0  0  0  0  0  0  0
  161.5080  205.7910  146.9520 O   0  0  0  0  0  0  0  0  0  0  0  0
  161.3780  204.9950  147.9180 C   0  0  0  0  0  0  0  0  0  0  0  0
  161.2010  210.5540  154.5950 C   0  0  0  0  0  0  0  0  0  0  0  0
  161.4790  209.5880  150.3760 C   0  0  0  0  0  0  0  0  0  0  0  0
  161.7720  211.4780  148.3050 C   0  0  0  0  0  3  0  0  0  0  0  0
  161.2390  210.2360  153.2340 O   0  0  0  0  0  0  0  0  0  0  0  0
  161.3630  206.8870  149.6460 C   0  0  0  0  0  0  0  0  0  0  0  0
  161.7600  213.2540  149.9330 O   0  0  0  0  0  1  0  0  0  0  0  0
  161.0480  206.5810  153.2910 N   0  0  0  0  0  0  0  0  0  0  0  0
  161.0960  211.7560  154.9500 O   0  0  0  0  0  0  0  0  0  0  0  0
  161.5020  207.8580  148.7060 N   0  0  0  0  0  0  0  0  0  0  0  0
  161.2770  207.2410  151.0020 C   0  0  0  0  0  0  0  0  0  0  0  0
  161.3030  205.5050  149.2590 N   0  0  0  0  0  2  0  0  0  0  0  0
  161.5490  210.9630  150.6570 C   0  0  0  0  0  3  0  0  0  0  0  0
  161.3570  209.4870  155.6350 C   0  0  0  0  0  2  0  0  0  0  0  0
  161.5620  209.1740  149.0240 C   0  0  0  0  0  0  0  0  0  0  0  0
  161.7060  210.1170  148.0030 C   0  0  0  0  0  3  0  0  0  0  0  0
  161.1290  206.2500  151.9800 C   0  0  0  0  0  3  0  0  0  0  0  0
  161.1100  207.8710  153.7040 C   0  0  0  0  0  0  0  0  0  0  0  0
  161.0110  208.1750  155.0970 N   0  0  0  0  0  2  0  0  0  0  0  0
  161.1700  200.7760  147.1130 C   0  0  0  0  0  0  0  0  0  0  0  0
  161.3810  203.0640  146.3720 C   0  0  0  0  0  3  0  0  0  0  0  0
  161.0370  203.0100  150.4400 Cl  0  0  0  0  0  0  0  0  0  0  0  0
  161.1070  199.4520  146.8340 F   0  0  0  0  0  0  0  0  0  0  0  0
  161.3170  201.7010  146.0810 C   0  0  0  0  0  3  0  0  0  0  0  0
  161.1510  202.5790  148.7390 C   0  0  0  0  0  0  0  0  0  0  0  0
  161.3000  203.5290  147.6950 C   0  0  0  0  0  0  0  0  0  0  0  0
  161.0880  201.2150  148.4340 C   0  0  0  0  0  3  0  0  0  0  0  0
  1 11  1  0  0  0  0
  1 17  1  0  0  0  0
  2  3  2  0  0  0  0
  3  9  1  0  0  0  0
  3 22  1  0  0  0  0
  4  5  2  0  0  0  0
  5 16  1  0  0  0  0
  6 13  2  0  0  0  0
  6 18  1  0  0  0  0
  7 17  2  0  0  0  0
  7  2  1  0  0  0  0
  8  1  2  0  0  0  0
  9  6  1  0  0  0  0
 10 15  1  0  0  0  0
 12 22  2  0  0  0  0
 14 19  1  0  0  0  0
 14 10  2  0  0  0  0
 15  2  1  0  0  0  0
 15 21  2  0  0  0  0
 16 10  1  0  0  0  0
 19  7  1  0  0  0  0
 20  8  1  0  0  0  0
 20 19  2  0  0  0  0
 21 12  1  0  0  0  0
 22 23  1  0  0  0  0
 23 18  1  0  0  0  0
 24 31  1  0  0  0  0
 25 30  2  0  0  0  0
 27 24  1  0  0  0  0
 28 25  1  0  0  0  0
 28 24  2  0  0  0  0
 29 26  1  0  0  0  0
 30  5  1  0  0  0  0
 30 29  1  0  0  0  0
 31 29  2  0  0  0  0
M  END
>  <MODEL>
5

>  <REMARK>
 VINA RESULT:      -7.7      4.208      8.981
  Name = 
  1 active torsions:
  status: ('A' for Active; 'I' for Inactive)
    1  A    between atoms: C_5  and  C_30
                            x       y       z     vdW  Elec       q    Type
                         _______ _______ _______ _____ _____    ______ ____

>  <TORSDO>
F 1

$$$$
