=
 OpenBabel11122414053D

 28 31  0  0  1  0  0  0  0  0999 V2000
  158.2130  212.1430  153.1700 C   0  0  0  0  0  0  0  0  0  0  0  0
  160.3880  209.3440  151.2330 O   0  0  0  0  0  0  0  0  0  0  0  0
  159.2180  214.3400  151.7550 C   0  0  0  0  0  3  0  0  0  0  0  0
  157.7210  211.0490  153.8810 O   0  0  0  0  0  0  0  0  0  0  0  0
  162.5240  210.2350  152.0730 O   0  0  0  0  0  0  0  0  0  0  0  0
  161.3060  209.4240  152.4190 S   0  0  0  0  0  0  0  0  0  0  0  0
  161.1120  207.3550  154.2410 C   0  0  0  0  0  0  0  0  0  0  0  0
  160.4530  210.1230  153.8040 C   0  0  1  0  0  3  0  0  0  0  0  0
  156.4960  213.2070  155.8090 C   0  0  0  0  0  1  0  0  0  0  0  0
  160.4680  211.7480  155.5420 C   0  0  2  0  0  3  0  0  0  0  0  0
  160.8310  208.2000  155.1820 N   0  0  0  0  0  0  0  0  0  0  0  0
  161.7950  207.7750  152.9460 C   0  0  0  0  0  2  0  0  0  0  0  0
  156.7560  211.7780  155.9470 N   0  0  0  0  0  0  0  0  0  0  0  0
  159.5960  212.4120  153.1810 C   0  0  0  0  0  0  0  0  0  0  0  0
  160.7620  205.9210  154.4270 C   0  0  0  0  0  1  0  0  0  0  0  0
  158.0860  211.4810  156.5160 C   0  0  0  0  0  2  0  0  0  0  0  0
  160.0870  213.5150  152.4740 C   0  0  0  0  0  3  0  0  0  0  0  0
  157.3440  212.9810  152.4570 C   0  0  0  0  0  3  0  0  0  0  0  0
  157.8480  214.0750  151.7490 C   0  0  0  0  0  3  0  0  0  0  0  0
  156.5320  211.1090  154.6600 C   0  0  0  0  0  2  0  0  0  0  0  0
  160.6640  210.4180  156.1410 N   0  0  0  0  0  0  0  0  0  0  0  0
  159.2040  212.4520  156.0810 C   0  0  1  0  0  3  0  0  0  0  0  0
  161.1340  209.6040  155.0290 C   0  0  2  0  0  3  0  0  0  0  0  0
  160.5680  211.6050  154.0040 C   0  0  2  0  0  3  0  0  0  0  0  0
  160.0140  214.4530  156.5750 C   0  0  0  0  0  1  0  0  0  0  0  0
  159.5490  213.2730  157.1570 O   0  0  0  0  0  0  0  0  0  0  0  0
  161.7650  210.5380  157.0840 C   0  0  0  0  0  2  0  0  0  0  0  0
  163.0730  210.6690  156.3280 C   0  0  0  0  0  1  0  0  0  0  0  0
  1 14  1  0  0  0  0
  1  4  1  0  0  0  0
  2  6  2  0  0  0  0
  3 17  1  0  0  0  0
  4 20  1  0  0  0  0
  5  6  2  0  0  0  0
  6 12  1  0  0  0  0
  7 15  1  0  0  0  0
  7 11  2  0  0  0  0
  8  6  1  6  0  0  0
  8 24  1  0  0  0  0
  8 23  1  0  0  0  0
  9 13  1  0  0  0  0
 10 22  1  0  0  0  0
 10 21  1  1  0  0  0
 12  7  1  0  0  0  0
 13 16  1  0  0  0  0
 17 14  2  0  0  0  0
 18  1  2  0  0  0  0
 19  3  2  0  0  0  0
 19 18  1  0  0  0  0
 20 13  1  0  0  0  0
 21 27  1  0  0  0  0
 22 16  1  0  0  0  0
 22 26  1  1  0  0  0
 23 11  1  1  0  0  0
 23 21  1  0  0  0  0
 24 14  1  6  0  0  0
 24 10  1  0  0  0  0
 25 26  1  0  0  0  0
 28 27  1  0  0  0  0
M  END
>  <MODEL>
1

>  <REMARK>
 VINA RESULT:      -3.1      0.000      0.000
  Name = 
  2 active torsions:
  status: ('A' for Active; 'I' for Inactive)
    1  A    between atoms: C_5  and  N_24
    2  A    between atoms: O_17  and  C_25
                            x       y       z     vdW  Elec       q    Type
                         _______ _______ _______ _____ _____    ______ ____

>  <TORSDO>
F 2

$$$$
=
 OpenBabel11122414053D

 28 31  0  0  1  0  0  0  0  0999 V2000
  161.1330  209.3730  155.7680 C   0  0  0  0  0  0  0  0  0  0  0  0
  158.5770  212.1220  157.2600 O   0  0  0  0  0  0  0  0  0  0  0  0
  163.4240  210.3770  157.0240 C   0  0  0  0  0  3  0  0  0  0  0  0
  159.9920  208.8800  155.1360 O   0  0  0  0  0  0  0  0  0  0  0  0
  159.6810  213.9800  156.0810 O   0  0  0  0  0  0  0  0  0  0  0  0
  158.7480  212.8100  155.9360 S   0  0  0  0  0  0  0  0  0  0  0  0
  156.6660  212.5170  154.1420 C   0  0  0  0  0  0  0  0  0  0  0  0
  159.3530  211.6650  154.7280 C   0  0  1  0  0  3  0  0  0  0  0  0
  162.0080  207.1280  153.4790 C   0  0  0  0  0  1  0  0  0  0  0  0
  160.9660  211.2150  153.0390 C   0  0  2  0  0  3  0  0  0  0  0  0
  157.4750  211.9930  153.2770 N   0  0  0  0  0  0  0  0  0  0  0  0
  157.1570  213.3660  155.3080 C   0  0  0  0  0  2  0  0  0  0  0  0
  160.6120  207.5050  153.2760 N   0  0  0  0  0  0  0  0  0  0  0  0
  161.5430  210.6990  155.5250 C   0  0  0  0  0  0  0  0  0  0  0  0
  155.2030  212.2880  153.9960 C   0  0  0  0  0  1  0  0  0  0  0  0
  160.4540  208.7410  152.4830 C   0  0  0  0  0  2  0  0  0  0  0  0
  162.6910  211.1890  156.1540 C   0  0  0  0  0  3  0  0  0  0  0  0
  161.8780  208.5590  156.6320 C   0  0  0  0  0  3  0  0  0  0  0  0
  163.0190  209.0620  157.2610 C   0  0  0  0  0  3  0  0  0  0  0  0
  159.9270  207.5750  154.5720 C   0  0  0  0  0  2  0  0  0  0  0  0
  159.6620  211.4390  152.3950 N   0  0  0  0  0  0  0  0  0  0  0  0
  161.5350  209.8120  152.7360 C   0  0  1  0  0  3  0  0  0  0  0  0
  158.9040  212.1740  153.3970 C   0  0  2  0  0  3  0  0  0  0  0  0
  160.8380  211.5920  154.5350 C   0  0  2  0  0  3  0  0  0  0  0  0
  161.7500  209.1300  150.6390 C   0  0  0  0  0  1  0  0  0  0  0  0
  162.3850  209.8810  151.6300 O   0  0  0  0  0  0  0  0  0  0  0  0
  159.8930  212.3440  151.2790 C   0  0  0  0  0  2  0  0  0  0  0  0
  159.7060  213.7770  151.7370 C   0  0  0  0  0  1  0  0  0  0  0  0
  1 18  1  0  0  0  0
  3 19  1  0  0  0  0
  4  1  1  0  0  0  0
  6  5  2  0  0  0  0
  6  2  2  0  0  0  0
  7 12  1  0  0  0  0
  8  6  1  1  0  0  0
 10 21  1  1  0  0  0
 10 24  1  0  0  0  0
 11  7  2  0  0  0  0
 12  6  1  0  0  0  0
 13  9  1  0  0  0  0
 13 20  1  0  0  0  0
 14  1  2  0  0  0  0
 14 17  1  0  0  0  0
 15  7  1  0  0  0  0
 16 22  1  0  0  0  0
 16 13  1  0  0  0  0
 17  3  2  0  0  0  0
 18 19  2  0  0  0  0
 20  4  1  0  0  0  0
 21 23  1  0  0  0  0
 22 26  1  6  0  0  0
 22 10  1  0  0  0  0
 23 11  1  6  0  0  0
 23  8  1  0  0  0  0
 24  8  1  0  0  0  0
 24 14  1  1  0  0  0
 25 26  1  0  0  0  0
 27 28  1  0  0  0  0
 27 21  1  0  0  0  0
M  END
>  <MODEL>
2

>  <REMARK>
 VINA RESULT:      -2.5      2.064      6.053
  Name = 
  2 active torsions:
  status: ('A' for Active; 'I' for Inactive)
    1  A    between atoms: C_5  and  N_24
    2  A    between atoms: O_17  and  C_25
                            x       y       z     vdW  Elec       q    Type
                         _______ _______ _______ _____ _____    ______ ____

>  <TORSDO>
F 2

$$$$
=
 OpenBabel11122414053D

 28 31  0  0  1  0  0  0  0  0999 V2000
  156.8470  211.3840  156.1750 C   0  0  0  0  0  0  0  0  0  0  0  0
  159.5370  208.5720  157.2610 O   0  0  0  0  0  0  0  0  0  0  0  0
  154.8440  209.5970  155.3830 C   0  0  0  0  0  3  0  0  0  0  0  0
  157.8500  212.2730  156.5600 O   0  0  0  0  0  0  0  0  0  0  0  0
  159.7570  207.7110  154.9650 O   0  0  0  0  0  0  0  0  0  0  0  0
  160.1430  208.8160  155.9080 S   0  0  0  0  0  0  0  0  0  0  0  0
  162.4430  210.3480  155.8710 C   0  0  0  0  0  0  0  0  0  0  0  0
  159.6250  210.3900  155.2830 C   0  0  1  0  0  3  0  0  0  0  0  0
  156.0660  214.4530  155.1660 C   0  0  0  0  0  1  0  0  0  0  0  0
  158.7010  211.6040  153.4580 C   0  0  2  0  0  3  0  0  0  0  0  0
  161.8700  211.2030  155.0850 N   0  0  0  0  0  0  0  0  0  0  0  0
  161.9340  208.9210  156.0340 C   0  0  0  0  0  2  0  0  0  0  0  0
  157.4670  214.4210  155.5750 N   0  0  0  0  0  0  0  0  0  0  0  0
  157.1070  210.4450  155.1570 C   0  0  0  0  0  0  0  0  0  0  0  0
  163.6440  210.7660  156.6440 C   0  0  0  0  0  1  0  0  0  0  0  0
  158.3720  213.9450  154.5110 C   0  0  0  0  0  2  0  0  0  0  0  0
  156.0970  209.5590  154.7660 C   0  0  0  0  0  3  0  0  0  0  0  0
  155.5840  211.4250  156.7820 C   0  0  0  0  0  3  0  0  0  0  0  0
  154.5870  210.5310  156.3880 C   0  0  0  0  0  3  0  0  0  0  0  0
  157.6010  213.6510  156.8170 C   0  0  0  0  0  2  0  0  0  0  0  0
  160.1270  211.9520  153.5790 N   0  0  0  0  0  0  0  0  0  0  0  0
  157.7840  212.8370  153.6130 C   0  0  1  0  0  3  0  0  0  0  0  0
  160.6890  210.8420  154.3350 C   0  0  2  0  0  3  0  0  0  0  0  0
  158.4110  210.4130  154.4020 C   0  0  2  0  0  3  0  0  0  0  0  0
  158.4690  214.3440  152.1420 C   0  0  0  0  0  1  0  0  0  0  0  0
  157.4960  213.3660  152.3530 O   0  0  0  0  0  0  0  0  0  0  0  0
  160.6910  211.8910  152.2400 C   0  0  0  0  0  2  0  0  0  0  0  0
  161.0220  210.4540  151.8890 C   0  0  0  0  0  1  0  0  0  0  0  0
  1  4  1  0  0  0  0
  1 18  1  0  0  0  0
  3 19  1  0  0  0  0
  4 20  1  0  0  0  0
  5  6  2  0  0  0  0
  6 12  1  0  0  0  0
  6  2  2  0  0  0  0
  7 12  1  0  0  0  0
  7 15  1  0  0  0  0
  8  6  1  6  0  0  0
  9 13  1  0  0  0  0
 10 21  1  1  0  0  0
 10 22  1  0  0  0  0
 10 24  1  0  0  0  0
 11  7  2  0  0  0  0
 13 20  1  0  0  0  0
 14  1  2  0  0  0  0
 16 13  1  0  0  0  0
 17 14  1  0  0  0  0
 17  3  2  0  0  0  0
 19 18  2  0  0  0  0
 21 23  1  0  0  0  0
 22 26  1  6  0  0  0
 22 16  1  0  0  0  0
 23 11  1  1  0  0  0
 23  8  1  0  0  0  0
 24 14  1  1  0  0  0
 24  8  1  0  0  0  0
 25 26  1  0  0  0  0
 27 21  1  0  0  0  0
 28 27  1  0  0  0  0
M  END
>  <MODEL>
3

>  <REMARK>
 VINA RESULT:      -1.4      2.289      4.259
  Name = 
  2 active torsions:
  status: ('A' for Active; 'I' for Inactive)
    1  A    between atoms: C_5  and  N_24
    2  A    between atoms: O_17  and  C_25
                            x       y       z     vdW  Elec       q    Type
                         _______ _______ _______ _____ _____    ______ ____

>  <TORSDO>
F 2

$$$$
=
 OpenBabel11122414053D

 28 31  0  0  1  0  0  0  0  0999 V2000
  161.5080  209.1400  155.2720 C   0  0  0  0  0  0  0  0  0  0  0  0
  162.7010  207.6250  151.7220 O   0  0  0  0  0  0  0  0  0  0  0  0
  160.1680  206.8430  156.1460 C   0  0  0  0  0  3  0  0  0  0  0  0
  162.1680  210.2860  154.8310 O   0  0  0  0  0  0  0  0  0  0  0  0
  160.3920  207.3900  150.9000 O   0  0  0  0  0  0  0  0  0  0  0  0
  161.5150  208.3550  151.1590 S   0  0  0  0  0  0  0  0  0  0  0  0
  162.0670  210.7100  149.8220 C   0  0  0  0  0  0  0  0  0  0  0  0
  161.0030  209.6350  152.2720 C   0  0  1  0  0  3  0  0  0  0  0  0
  160.7580  211.6950  157.2610 C   0  0  0  0  0  1  0  0  0  0  0  0
  159.2050  210.6460  153.4570 C   0  0  2  0  0  3  0  0  0  0  0  0
  161.3010  211.3620  150.6390 N   0  0  0  0  0  0  0  0  0  0  0  0
  161.9640  209.2020  149.6370 C   0  0  0  0  0  2  0  0  0  0  0  0
  161.3990  212.1980  156.0500 N   0  0  0  0  0  0  0  0  0  0  0  0
  160.4460  208.6140  154.5100 C   0  0  0  0  0  0  0  0  0  0  0  0
  163.0820  211.4550  149.0310 C   0  0  0  0  0  1  0  0  0  0  0  0
  160.4590  212.3690  154.9240 C   0  0  0  0  0  2  0  0  0  0  0  0
  159.7800  207.4690  154.9580 C   0  0  0  0  0  3  0  0  0  0  0  0
  161.8860  208.5150  156.4690 C   0  0  0  0  0  3  0  0  0  0  0  0
  161.2180  207.3670  156.9020 C   0  0  0  0  0  3  0  0  0  0  0  0
  162.5420  211.3450  155.7060 C   0  0  0  0  0  2  0  0  0  0  0  0
  159.6160  211.5470  152.3690 N   0  0  0  0  0  0  0  0  0  0  0  0
  159.3450  211.3050  154.8460 C   0  0  1  0  0  3  0  0  0  0  0  0
  160.3190  210.6720  151.4420 C   0  0  2  0  0  3  0  0  0  0  0  0
  159.9330  209.2930  153.2660 C   0  0  2  0  0  3  0  0  0  0  0  0
  157.2540  210.8060  155.3820 C   0  0  0  0  0  1  0  0  0  0  0  0
  158.1280  211.8820  155.2140 O   0  0  0  0  0  0  0  0  0  0  0  0
  158.3980  211.9890  151.7050 C   0  0  0  0  0  2  0  0  0  0  0  0
  158.2710  213.4960  151.8200 C   0  0  0  0  0  1  0  0  0  0  0  0
  1 18  1  0  0  0  0
  3 19  1  0  0  0  0
  4  1  1  0  0  0  0
  4 20  1  0  0  0  0
  5  6  2  0  0  0  0
  6  2  2  0  0  0  0
  7 11  2  0  0  0  0
  8  6  1  6  0  0  0
  8 24  1  0  0  0  0
 10 21  1  6  0  0  0
 10 22  1  0  0  0  0
 12  7  1  0  0  0  0
 12  6  1  0  0  0  0
 13  9  1  0  0  0  0
 14 17  1  0  0  0  0
 14  1  2  0  0  0  0
 15  7  1  0  0  0  0
 16 13  1  0  0  0  0
 17  3  2  0  0  0  0
 18 19  2  0  0  0  0
 20 13  1  0  0  0  0
 22 16  1  0  0  0  0
 22 26  1  6  0  0  0
 23 11  1  1  0  0  0
 23  8  1  0  0  0  0
 23 21  1  0  0  0  0
 24 10  1  0  0  0  0
 24 14  1  1  0  0  0
 26 25  1  0  0  0  0
 27 28  1  0  0  0  0
 27 21  1  0  0  0  0
M  END
>  <MODEL>
4

>  <REMARK>
 VINA RESULT:      -0.9      2.488      5.183
  Name = 
  2 active torsions:
  status: ('A' for Active; 'I' for Inactive)
    1  A    between atoms: C_5  and  N_24
    2  A    between atoms: O_17  and  C_25
                            x       y       z     vdW  Elec       q    Type
                         _______ _______ _______ _____ _____    ______ ____

>  <TORSDO>
F 2

$$$$
