=
 OpenBabel11122413163D

 31 35  0  0  1  0  0  0  0  0999 V2000
  162.1050  206.9470  147.4180 C   0  0  0  0  0  0  0  0  0  0  0  0
  160.7220  205.3600  150.6280 C   0  0  2  0  0  3  0  0  0  0  0  0
  160.9220  203.8760  150.3780 C   0  0  0  0  0  0  0  0  0  0  0  0
  161.2100  209.9380  153.4090 O   0  0  0  0  0  0  0  0  0  0  0  0
  160.9930  208.9880  154.2060 C   0  0  0  0  0  0  0  0  0  0  0  0
  160.8440  201.9430  148.9000 C   0  0  0  0  0  0  0  0  0  0  0  0
  161.3770  206.3320  149.6580 C   0  0  0  0  0  0  0  0  0  0  0  0
  162.3520  208.2510  147.8470 C   0  0  0  0  0  3  0  0  0  0  0  0
  160.7510  203.3230  149.0990 C   0  0  0  0  0  3  0  0  0  0  0  0
  161.0880  207.2010  152.3800 C   0  0  0  0  0  0  0  0  0  0  0  0
  162.3350  206.6040  146.1270 F   0  0  0  0  0  0  0  0  0  0  0  0
  161.1930  203.5250  152.7610 O   0  0  0  0  0  0  0  0  0  0  0  0
  160.6850  201.3770  147.5350 C   0  0  0  0  0  1  0  0  0  0  0  0
  161.3810  208.0520  151.4390 N   0  0  0  0  0  0  0  0  0  0  0  0
  160.9980  205.7670  152.0610 C   0  0  0  0  0  0  0  0  0  0  0  0
  160.9210  207.6340  153.7360 N   0  0  0  0  0  2  0  0  0  0  0  0
  161.6060  205.9990  148.3130 C   0  0  0  0  0  3  0  0  0  0  0  0
  161.0730  201.0960  149.9860 C   0  0  0  0  0  3  0  0  0  0  0  0
  161.6140  207.6600  150.0780 C   0  0  0  0  0  0  0  0  0  0  0  0
  162.1040  208.6080  149.1740 C   0  0  0  0  0  3  0  0  0  0  0  0
  161.1710  204.8860  153.0020 N   0  0  0  0  0  0  0  0  0  0  0  0
  161.1110  203.0100  151.4690 C   0  0  0  0  0  0  0  0  0  0  0  0
  161.2000  201.6290  151.2700 C   0  0  0  0  0  3  0  0  0  0  0  0
  159.3090  211.7890  156.1220 C   0  0  1  0  0  3  0  0  0  0  0  0
  159.3400  209.2780  156.0780 C   0  0  0  0  0  2  0  0  0  0  0  0
  162.8310  210.6300  155.6820 O   0  0  0  0  0  1  0  0  0  0  0  0
  158.5760  213.0160  155.6240 C   0  0  0  0  0  1  0  0  0  0  0  0
  158.6120  210.5350  155.6010 C   0  0  0  0  0  2  0  0  0  0  0  0
  161.5060  210.5900  156.1190 C   0  0  2  0  0  3  0  0  0  0  0  0
  160.8170  209.2900  155.6660 C   0  0  2  0  0  3  0  0  0  0  0  0
  160.7550  211.8300  155.6390 C   0  0  0  0  0  2  0  0  0  0  0  0
  1  8  2  0  0  0  0
  1 17  1  0  0  0  0
  2  7  1  6  0  0  0
  2 15  1  0  0  0  0
  3  2  1  0  0  0  0
  3 22  1  0  0  0  0
  4  5  2  0  0  0  0
  6  9  1  0  0  0  0
  6 18  2  0  0  0  0
  7 19  1  0  0  0  0
  8 20  1  0  0  0  0
  9  3  2  0  0  0  0
 10 16  1  0  0  0  0
 11  1  1  0  0  0  0
 12 21  1  0  0  0  0
 13  6  1  0  0  0  0
 14 10  2  0  0  0  0
 15 10  1  0  0  0  0
 15 21  2  0  0  0  0
 16  5  1  0  0  0  0
 17  7  2  0  0  0  0
 18 23  1  0  0  0  0
 19 14  1  0  0  0  0
 20 19  2  0  0  0  0
 22 12  1  0  0  0  0
 23 22  2  0  0  0  0
 24 27  1  6  0  0  0
 28 25  1  0  0  0  0
 28 24  1  0  0  0  0
 29 26  1  6  0  0  0
 30  5  1  6  0  0  0
 30 25  1  0  0  0  0
 30 29  1  0  0  0  0
 31 29  1  0  0  0  0
 31 24  1  0  0  0  0
M  END
>  <MODEL>
1

>  <REMARK>
 VINA RESULT:     -11.2      0.000      0.000
  Name = 
  1 active torsions:
  status: ('A' for Active; 'I' for Inactive)
    1  A    between atoms: C_5  and  C_30
                            x       y       z     vdW  Elec       q    Type
                         _______ _______ _______ _____ _____    ______ ____

>  <TORSDO>
F 1

$$$$
=
 OpenBabel11122413163D

 31 35  0  0  1  0  0  0  0  0999 V2000
  162.0840  206.7260  147.1450 C   0  0  0  0  0  0  0  0  0  0  0  0
  160.7730  205.7210  150.6110 C   0  0  2  0  0  3  0  0  0  0  0  0
  160.9510  204.2130  150.6080 C   0  0  0  0  0  0  0  0  0  0  0  0
  161.3870  210.6930  152.5690 O   0  0  0  0  0  0  0  0  0  0  0  0
  161.1820  209.8930  153.5200 C   0  0  0  0  0  0  0  0  0  0  0  0
  160.8120  202.0610  149.4780 C   0  0  0  0  0  0  0  0  0  0  0  0
  161.4120  206.5060  149.4740 C   0  0  0  0  0  0  0  0  0  0  0  0
  162.3560  208.0800  147.3430 C   0  0  0  0  0  3  0  0  0  0  0  0
  160.7390  203.4560  149.4450 C   0  0  0  0  0  3  0  0  0  0  0  0
  161.2070  207.8240  152.0180 C   0  0  0  0  0  0  0  0  0  0  0  0
  162.2740  206.1680  145.9250 F   0  0  0  0  0  0  0  0  0  0  0  0
  161.2840  204.2630  153.0080 O   0  0  0  0  0  0  0  0  0  0  0  0
  160.6090  201.2770  148.2330 C   0  0  0  0  0  1  0  0  0  0  0  0
  161.4830  208.5010  150.9410 N   0  0  0  0  0  0  0  0  0  0  0  0
  161.0930  206.3580  151.9480 C   0  0  0  0  0  0  0  0  0  0  0  0
  161.0830  208.4810  153.2860 N   0  0  0  0  0  2  0  0  0  0  0  0
  161.6000  205.9490  148.1990 C   0  0  0  0  0  3  0  0  0  0  0  0
  161.0620  201.4050  150.6850 C   0  0  0  0  0  3  0  0  0  0  0  0
  161.6750  207.8830  149.6600 C   0  0  0  0  0  0  0  0  0  0  0  0
  162.1490  208.6580  148.5960 C   0  0  0  0  0  3  0  0  0  0  0  0
  161.2830  205.6460  153.0180 N   0  0  0  0  0  0  0  0  0  0  0  0
  161.1610  203.5400  151.8240 C   0  0  0  0  0  0  0  0  0  0  0  0
  161.2300  202.1440  151.8580 C   0  0  0  0  0  3  0  0  0  0  0  0
  160.4120  208.3370  156.8880 C   0  0  1  0  0  3  0  0  0  0  0  0
  162.1140  209.8670  155.8550 C   0  0  0  0  0  2  0  0  0  0  0  0
  158.6670  210.7370  154.6210 O   0  0  0  0  0  1  0  0  0  0  0  0
  160.1190  206.9000  157.2600 C   0  0  0  0  0  1  0  0  0  0  0  0
  161.7970  208.4250  156.2550 C   0  0  0  0  0  2  0  0  0  0  0  0
  159.6400  210.2800  155.5100 C   0  0  2  0  0  3  0  0  0  0  0  0
  161.0490  210.4390  154.9130 C   0  0  2  0  0  3  0  0  0  0  0  0
  159.3510  208.8340  155.9110 C   0  0  0  0  0  2  0  0  0  0  0  0
  1  8  2  0  0  0  0
  1 17  1  0  0  0  0
  2  7  1  6  0  0  0
  2 15  1  0  0  0  0
  3  2  1  0  0  0  0
  3 22  1  0  0  0  0
  4  5  2  0  0  0  0
  6 18  2  0  0  0  0
  7 19  1  0  0  0  0
  8 20  1  0  0  0  0
  9  6  1  0  0  0  0
  9  3  2  0  0  0  0
 10 16  1  0  0  0  0
 11  1  1  0  0  0  0
 12 21  1  0  0  0  0
 13  6  1  0  0  0  0
 14 10  2  0  0  0  0
 15 10  1  0  0  0  0
 15 21  2  0  0  0  0
 16  5  1  0  0  0  0
 17  7  2  0  0  0  0
 18 23  1  0  0  0  0
 19 14  1  0  0  0  0
 20 19  2  0  0  0  0
 22 23  2  0  0  0  0
 22 12  1  0  0  0  0
 24 27  1  6  0  0  0
 25 28  1  0  0  0  0
 28 24  1  0  0  0  0
 29 26  1  6  0  0  0
 29 31  1  0  0  0  0
 30  5  1  6  0  0  0
 30 29  1  0  0  0  0
 30 25  1  0  0  0  0
 31 24  1  0  0  0  0
M  END
>  <MODEL>
2

>  <REMARK>
 VINA RESULT:     -10.6      1.137      2.008
  Name = 
  1 active torsions:
  status: ('A' for Active; 'I' for Inactive)
    1  A    between atoms: C_5  and  C_30
                            x       y       z     vdW  Elec       q    Type
                         _______ _______ _______ _____ _____    ______ ____

>  <TORSDO>
F 1

$$$$
=
 OpenBabel11122413163D

 31 35  0  0  1  0  0  0  0  0999 V2000
  160.7520  202.1620  150.8240 C   0  0  0  0  0  0  0  0  0  0  0  0
  161.7000  205.6000  149.4020 C   0  0  2  0  0  3  0  0  0  0  0  0
  161.3550  205.4570  147.9310 C   0  0  0  0  0  0  0  0  0  0  0  0
  161.5110  207.9410  154.2420 O   0  0  0  0  0  0  0  0  0  0  0  0
  161.5590  208.8300  153.3510 C   0  0  0  0  0  0  0  0  0  0  0  0
  161.3310  204.1560  145.8730 C   0  0  0  0  0  0  0  0  0  0  0  0
  161.2330  204.5000  150.3440 C   0  0  0  0  0  0  0  0  0  0  0  0
  160.6190  202.4600  152.1810 C   0  0  0  0  0  3  0  0  0  0  0  0
  161.5610  204.2480  147.2480 C   0  0  0  0  0  3  0  0  0  0  0  0
  161.4070  207.1550  151.4240 C   0  0  0  0  0  0  0  0  0  0  0  0
  160.5850  200.8900  150.3900 F   0  0  0  0  0  0  0  0  0  0  0  0
  160.8650  207.8290  147.8300 O   0  0  0  0  0  0  0  0  0  0  0  0
  161.5300  202.8620  145.1710 C   0  0  0  0  0  1  0  0  0  0  0  0
  161.2840  206.1260  152.2120 N   0  0  0  0  0  0  0  0  0  0  0  0
  161.3610  206.9660  149.9650 C   0  0  0  0  0  0  0  0  0  0  0  0
  161.5160  208.4810  151.9600 N   0  0  0  0  0  2  0  0  0  0  0  0
  161.0720  203.1730  149.9150 C   0  0  0  0  0  3  0  0  0  0  0  0
  160.9260  205.2850  145.1570 C   0  0  0  0  0  3  0  0  0  0  0  0
  161.1130  204.7870  151.7230 C   0  0  0  0  0  0  0  0  0  0  0  0
  160.8030  203.7690  152.6300 C   0  0  0  0  0  3  0  0  0  0  0  0
  161.0190  207.9580  149.1970 N   0  0  0  0  0  0  0  0  0  0  0  0
  160.9880  206.5960  147.1920 C   0  0  0  0  0  0  0  0  0  0  0  0
  160.7610  206.5050  145.8160 C   0  0  0  0  0  3  0  0  0  0  0  0
  159.1050  211.3040  154.8370 C   0  0  1  0  0  3  0  0  0  0  0  0
  161.4250  210.4470  155.2700 C   0  0  0  0  0  2  0  0  0  0  0  0
  160.9110  210.9990  151.5830 O   0  0  0  0  0  1  0  0  0  0  0  0
  157.6460  211.1380  155.2050 C   0  0  0  0  0  1  0  0  0  0  0  0
  159.9460  210.3110  155.6340 C   0  0  0  0  0  2  0  0  0  0  0  0
  160.7500  211.2120  152.9520 C   0  0  2  0  0  3  0  0  0  0  0  0
  161.6550  210.2690  153.7660 C   0  0  2  0  0  3  0  0  0  0  0  0
  159.2800  211.0650  153.3400 C   0  0  0  0  0  2  0  0  0  0  0  0
  1  8  1  0  0  0  0
  2  3  1  6  0  0  0
  2 15  1  0  0  0  0
  2  7  1  0  0  0  0
  5  4  2  0  0  0  0
  6  9  2  0  0  0  0
  7 19  2  0  0  0  0
  8 20  2  0  0  0  0
  9  3  1  0  0  0  0
 10 16  1  0  0  0  0
 10 14  2  0  0  0  0
 11  1  1  0  0  0  0
 12 21  1  0  0  0  0
 13  6  1  0  0  0  0
 15 10  1  0  0  0  0
 16  5  1  0  0  0  0
 17  7  1  0  0  0  0
 17  1  2  0  0  0  0
 18 23  2  0  0  0  0
 18  6  1  0  0  0  0
 19 14  1  0  0  0  0
 19 20  1  0  0  0  0
 21 15  2  0  0  0  0
 22 12  1  0  0  0  0
 22  3  2  0  0  0  0
 23 22  1  0  0  0  0
 24 27  1  1  0  0  0
 24 28  1  0  0  0  0
 25 28  1  0  0  0  0
 29 26  1  6  0  0  0
 29 31  1  0  0  0  0
 29 30  1  0  0  0  0
 30  5  1  6  0  0  0
 30 25  1  0  0  0  0
 31 24  1  0  0  0  0
M  END
>  <MODEL>
3

>  <REMARK>
 VINA RESULT:      -9.5      2.369      4.100
  Name = 
  1 active torsions:
  status: ('A' for Active; 'I' for Inactive)
    1  A    between atoms: C_5  and  C_30
                            x       y       z     vdW  Elec       q    Type
                         _______ _______ _______ _____ _____    ______ ____

>  <TORSDO>
F 1

$$$$
=
 OpenBabel11122413163D

 31 35  0  0  1  0  0  0  0  0999 V2000
  160.9660  204.4730  152.0850 C   0  0  0  0  0  0  0  0  0  0  0  0
  161.8190  205.6130  148.5200 C   0  0  2  0  0  3  0  0  0  0  0  0
  161.3970  204.4210  147.6800 C   0  0  0  0  0  0  0  0  0  0  0  0
  161.8750  210.8070  149.9180 O   0  0  0  0  0  0  0  0  0  0  0  0
  161.8710  210.7140  148.6620 C   0  0  0  0  0  0  0  0  0  0  0  0
  161.2700  202.0160  147.3210 C   0  0  0  0  0  0  0  0  0  0  0  0
  161.4090  205.6220  149.9850 C   0  0  0  0  0  0  0  0  0  0  0  0
  160.9050  205.6970  152.7520 C   0  0  0  0  0  3  0  0  0  0  0  0
  161.5730  203.1060  148.1410 C   0  0  0  0  0  3  0  0  0  0  0  0
  161.6260  208.1690  148.6760 C   0  0  0  0  0  0  0  0  0  0  0  0
  160.7830  203.3190  152.7710 F   0  0  0  0  0  0  0  0  0  0  0  0
  160.8900  205.9140  145.8400 O   0  0  0  0  0  0  0  0  0  0  0  0
  161.4390  200.6320  147.8340 C   0  0  0  0  0  1  0  0  0  0  0  0
  161.5500  208.0950  149.9730 N   0  0  0  0  0  0  0  0  0  0  0  0
  161.5030  206.9440  147.8680 C   0  0  0  0  0  0  0  0  0  0  0  0
  161.7560  209.4370  148.0190 N   0  0  0  0  0  2  0  0  0  0  0  0
  161.2320  204.4360  150.7150 C   0  0  0  0  0  3  0  0  0  0  0  0
  160.8220  202.2280  146.0160 C   0  0  0  0  0  3  0  0  0  0  0  0
  161.3610  206.8560  150.6730 C   0  0  0  0  0  0  0  0  0  0  0  0
  161.1050  206.8860  152.0480 C   0  0  0  0  0  3  0  0  0  0  0  0
  161.1160  207.0260  146.6290 N   0  0  0  0  0  0  0  0  0  0  0  0
  160.9850  204.6220  146.3510 C   0  0  0  0  0  0  0  0  0  0  0  0
  160.6860  203.5300  145.5300 C   0  0  0  0  0  3  0  0  0  0  0  0
  159.9600  213.9840  148.5880 C   0  0  1  0  0  3  0  0  0  0  0  0
  162.3370  213.1840  148.7000 C   0  0  0  0  0  2  0  0  0  0  0  0
  160.3830  211.1140  146.2380 O   0  0  0  0  0  1  0  0  0  0  0  0
  158.7810  214.4500  149.4160 C   0  0  0  0  0  1  0  0  0  0  0  0
  161.1350  213.6720  149.5100 C   0  0  0  0  0  2  0  0  0  0  0  0
  160.7460  212.2470  146.9670 C   0  0  2  0  0  3  0  0  0  0  0  0
  161.9820  211.9660  147.8400 C   0  0  2  0  0  3  0  0  0  0  0  0
  159.5630  212.7420  147.7960 C   0  0  0  0  0  2  0  0  0  0  0  0
  1  8  1  0  0  0  0
  1 11  1  0  0  0  0
  2  3  1  6  0  0  0
  2  7  1  0  0  0  0
  3  9  1  0  0  0  0
  5  4  2  0  0  0  0
  6 13  1  0  0  0  0
  6  9  2  0  0  0  0
  7 19  2  0  0  0  0
  7 17  1  0  0  0  0
 10 14  2  0  0  0  0
 12 22  1  0  0  0  0
 12 21  1  0  0  0  0
 14 19  1  0  0  0  0
 15  2  1  0  0  0  0
 15 10  1  0  0  0  0
 16  5  1  0  0  0  0
 16 10  1  0  0  0  0
 17  1  2  0  0  0  0
 18  6  1  0  0  0  0
 19 20  1  0  0  0  0
 20  8  2  0  0  0  0
 21 15  2  0  0  0  0
 22  3  2  0  0  0  0
 23 18  2  0  0  0  0
 23 22  1  0  0  0  0
 24 27  1  1  0  0  0
 24 28  1  0  0  0  0
 25 28  1  0  0  0  0
 29 26  1  1  0  0  0
 29 31  1  0  0  0  0
 29 30  1  0  0  0  0
 30  5  1  1  0  0  0
 30 25  1  0  0  0  0
 31 24  1  0  0  0  0
M  END
>  <MODEL>
4

>  <REMARK>
 VINA RESULT:      -9.4      3.852      5.718
  Name = 
  1 active torsions:
  status: ('A' for Active; 'I' for Inactive)
    1  A    between atoms: C_5  and  C_30
                            x       y       z     vdW  Elec       q    Type
                         _______ _______ _______ _____ _____    ______ ____

>  <TORSDO>
F 1

$$$$
=
 OpenBabel11122413163D

 31 35  0  0  1  0  0  0  0  0999 V2000
  162.0790  206.8810  147.3100 C   0  0  0  0  0  0  0  0  0  0  0  0
  160.7040  205.8210  150.7340 C   0  0  2  0  0  3  0  0  0  0  0  0
  160.9570  204.3240  150.7440 C   0  0  0  0  0  0  0  0  0  0  0  0
  161.0050  210.8220  152.6920 O   0  0  0  0  0  0  0  0  0  0  0  0
  160.8080  210.0150  153.6380 C   0  0  0  0  0  0  0  0  0  0  0  0
  160.9630  202.1650  149.6190 C   0  0  0  0  0  0  0  0  0  0  0  0
  161.3410  206.6340  149.6160 C   0  0  0  0  0  0  0  0  0  0  0  0
  162.2770  208.2480  147.5110 C   0  0  0  0  0  3  0  0  0  0  0  0
  160.8220  203.5540  149.5770 C   0  0  0  0  0  3  0  0  0  0  0  0
  160.9860  207.9470  152.1460 C   0  0  0  0  0  0  0  0  0  0  0  0
  162.3370  206.3310  146.0990 F   0  0  0  0  0  0  0  0  0  0  0  0
  161.2060  204.3960  153.1530 O   0  0  0  0  0  0  0  0  0  0  0  0
  160.8410  201.3680  148.3700 C   0  0  0  0  0  1  0  0  0  0  0  0
  161.2640  208.6330  151.0760 N   0  0  0  0  0  0  0  0  0  0  0  0
  160.9470  206.4760  152.0780 C   0  0  0  0  0  0  0  0  0  0  0  0
  160.7870  208.5990  153.4070 N   0  0  0  0  0  2  0  0  0  0  0  0
  161.5990  206.0840  148.3510 C   0  0  0  0  0  3  0  0  0  0  0  0
  161.2040  201.5240  150.8360 C   0  0  0  0  0  3  0  0  0  0  0  0
  161.5290  208.0230  149.8050 C   0  0  0  0  0  0  0  0  0  0  0  0
  161.9990  208.8180  148.7550 C   0  0  0  0  0  3  0  0  0  0  0  0
  161.1370  205.7770  153.1580 N   0  0  0  0  0  0  0  0  0  0  0  0
  161.1590  203.6640  151.9690 C   0  0  0  0  0  0  0  0  0  0  0  0
  161.2960  202.2740  152.0110 C   0  0  0  0  0  3  0  0  0  0  0  0
  157.7430  210.7780  155.7300 C   0  0  1  0  0  3  0  0  0  0  0  0
  159.9160  209.5380  155.9400 C   0  0  0  0  0  2  0  0  0  0  0  0
  160.4560  212.8160  154.1700 O   0  0  0  0  0  1  0  0  0  0  0  0
  156.2720  210.6320  155.4050 C   0  0  0  0  0  1  0  0  0  0  0  0
  158.4230  209.4160  155.6300 C   0  0  0  0  0  2  0  0  0  0  0  0
  159.8720  211.9110  155.0580 C   0  0  2  0  0  3  0  0  0  0  0  0
  160.6020  210.5570  155.0240 C   0  0  2  0  0  3  0  0  0  0  0  0
  158.3820  211.7630  154.7550 C   0  0  0  0  0  2  0  0  0  0  0  0
  1  8  2  0  0  0  0
  1 17  1  0  0  0  0
  2  7  1  6  0  0  0
  2  3  1  0  0  0  0
  2 15  1  0  0  0  0
  3 22  1  0  0  0  0
  4  5  2  0  0  0  0
  6 18  2  0  0  0  0
  7 19  1  0  0  0  0
  8 20  1  0  0  0  0
  9  6  1  0  0  0  0
  9  3  2  0  0  0  0
 10 16  1  0  0  0  0
 11  1  1  0  0  0  0
 12 21  1  0  0  0  0
 13  6  1  0  0  0  0
 14 10  2  0  0  0  0
 15 10  1  0  0  0  0
 15 21  2  0  0  0  0
 16  5  1  0  0  0  0
 17  7  2  0  0  0  0
 18 23  1  0  0  0  0
 19 14  1  0  0  0  0
 20 19  2  0  0  0  0
 22 23  2  0  0  0  0
 22 12  1  0  0  0  0
 24 27  1  6  0  0  0
 28 24  1  0  0  0  0
 28 25  1  0  0  0  0
 29 26  1  6  0  0  0
 30  5  1  6  0  0  0
 30 29  1  0  0  0  0
 30 25  1  0  0  0  0
 31 29  1  0  0  0  0
 31 24  1  0  0  0  0
M  END
>  <MODEL>
5

>  <REMARK>
 VINA RESULT:      -8.5      1.053      1.341
  Name = 
  1 active torsions:
  status: ('A' for Active; 'I' for Inactive)
    1  A    between atoms: C_5  and  C_30
                            x       y       z     vdW  Elec       q    Type
                         _______ _______ _______ _____ _____    ______ ____

>  <TORSDO>
F 1

$$$$
