=
 OpenBabel11122414423D

 34 42  0  0  1  0  0  0  0  0999 V2000
  161.5130  207.7310  149.8350 C   0  0  2  0  0  3  0  0  0  0  0  0
  162.0560  210.0350  150.6560 C   0  0  0  0  0  2  0  0  0  0  0  0
  161.2630  200.9900  150.1140 C   0  0  2  0  0  3  0  0  0  0  0  0
  160.7450  205.4260  149.2300 C   0  0  1  0  0  3  0  0  0  0  0  0
  161.5560  203.4680  150.7870 C   0  0  2  0  0  3  0  0  0  0  0  0
  161.9630  201.6570  152.3010 O   0  0  0  0  0  1  0  0  0  0  0  0
  162.2980  201.2820  149.0380 C   0  0  0  0  0  2  0  0  0  0  0  0
  160.4730  202.9250  148.4660 C   0  0  1  0  0  3  0  0  0  0  0  0
  162.2020  208.2560  152.2130 C   0  0  2  0  0  3  0  0  0  0  0  0
  160.6500  208.4410  154.9020 C   0  0  0  0  0  2  0  0  0  0  0  0
  161.2790  204.4780  151.8920 C   0  0  0  0  0  2  0  0  0  0  0  0
  159.5310  203.3580  149.4220 O   0  0  0  0  0  0  0  0  0  0  0  0
  161.4560  206.9330  152.4980 C   0  0  1  0  0  3  0  0  0  0  0  0
  161.1610  210.3400  151.6920 O   0  0  0  0  0  0  0  0  0  0  0  0
  160.8210  203.9180  149.5230 C   0  0  2  0  0  0  0  0  0  0  0  0
  160.8170  201.4410  148.7180 C   0  0  2  0  0  3  0  0  0  0  0  0
  160.3040  209.2880  153.6820 C   0  0  2  0  0  3  0  0  0  0  0  0
  161.7710  206.2320  150.0480 C   0  0  2  0  0  3  0  0  0  0  0  0
  161.1730  202.0540  151.2210 C   0  0  2  0  0  3  0  0  0  0  0  0
  161.9150  205.8280  151.5420 C   0  0  2  0  0  3  0  0  0  0  0  0
  160.7460  207.2530  147.5020 C   0  0  0  0  0  2  0  0  0  0  0  0
  160.5700  206.9610  154.5490 C   0  0  0  0  0  2  0  0  0  0  0  0
  160.9280  205.7540  147.7440 C   0  0  0  0  0  2  0  0  0  0  0  0
  161.7010  206.5630  153.8260 O   0  0  0  0  0  0  0  0  0  0  0  0
  161.5220  209.5140  152.7700 C   0  0  1  0  0  3  0  0  0  0  0  0
  161.7200  208.0630  148.3570 C   0  0  0  0  0  2  0  0  0  0  0  0
  162.4190  208.5690  150.7420 C   0  0  1  0  0  3  0  0  0  0  0  0
  159.8040  210.5200  154.1100 O   0  0  0  0  0  0  0  0  0  0  0  0
  159.2890  210.2730  155.3880 C   0  0  0  0  0  2  0  0  0  0  0  0
  156.2400  212.8820  154.8090 S   0  0  0  0  0  0  0  0  0  0  0  0
  157.7960  211.7800  156.7280 C   0  0  0  0  0  2  0  0  0  0  0  0
  157.8900  210.8600  155.5340 C   0  0  1  0  0  3  0  0  0  0  0  0
  156.4990  212.5400  156.5780 C   0  0  0  0  0  2  0  0  0  0  0  0
  157.4950  211.6610  154.3120 C   0  0  0  0  0  2  0  0  0  0  0  0
  1 26  1  6  0  0  0
  1 18  1  0  0  0  0
  1 27  1  0  0  0  0
  2 27  1  0  0  0  0
  2 14  1  0  0  0  0
  3  7  1  6  0  0  0
  3 19  1  0  0  0  0
  4 23  1  6  0  0  0
  4 15  1  0  0  0  0
  4 18  1  0  0  0  0
  5 19  1  0  0  0  0
  5 11  1  1  0  0  0
  8 16  1  0  0  0  0
  8 12  1  1  0  0  0
  8 15  1  0  0  0  0
  9 13  1  0  0  0  0
  9 25  1  0  0  0  0
 12 15  1  0  0  0  0
 13 24  1  0  0  0  0
 14 25  1  0  0  0  0
 15  5  1  0  0  0  0
 16  7  1  0  0  0  0
 16  3  1  0  0  0  0
 17 28  1  0  0  0  0
 17 10  1  0  0  0  0
 18 20  1  0  0  0  0
 19  6  1  0  0  0  0
 20 11  1  0  0  0  0
 20 13  1  0  0  0  0
 21 23  1  0  0  0  0
 21 26  1  0  0  0  0
 22 10  1  0  0  0  0
 24 22  1  0  0  0  0
 25 17  1  0  0  0  0
 27  9  1  0  0  0  0
 28 29  1  0  0  0  0
 29 32  1  0  0  0  0
 30 33  1  0  0  0  0
 32 31  1  0  0  0  0
 33 31  1  0  0  0  0
 34 30  1  0  0  0  0
 34 32  1  0  0  0  0
M  END
>  <MODEL>
1

>  <REMARK>
 VINA RESULT:      -7.0      0.000      0.000
  Name = 
  3 active torsions:
  status: ('A' for Active; 'I' for Inactive)
    1  A    between atoms: C_17  and  O_28
    2  A    between atoms: O_28  and  C_29
    3  A    between atoms: C_29  and  C_32
                            x       y       z     vdW  Elec       q    Type
                         _______ _______ _______ _____ _____    ______ ____

>  <TORSDO>
F 3

$$$$
=
 OpenBabel11122414423D

 34 42  0  0  1  0  0  0  0  0999 V2000
  161.5520  207.7840  149.7700 C   0  0  2  0  0  3  0  0  0  0  0  0
  162.1350  210.0970  150.5370 C   0  0  0  0  0  2  0  0  0  0  0  0
  161.2030  201.0550  150.1950 C   0  0  2  0  0  3  0  0  0  0  0  0
  160.7450  205.4790  149.2190 C   0  0  1  0  0  3  0  0  0  0  0  0
  161.5380  203.5420  150.8120 C   0  0  2  0  0  3  0  0  0  0  0  0
  161.9290  201.7580  152.3620 O   0  0  0  0  0  1  0  0  0  0  0  0
  162.2340  201.3080  149.1050 C   0  0  0  0  0  2  0  0  0  0  0  0
  160.4300  202.9660  148.5110 C   0  0  1  0  0  3  0  0  0  0  0  0
  162.2650  208.3500  152.1300 C   0  0  2  0  0  3  0  0  0  0  0  0
  160.7360  208.6150  154.8260 C   0  0  0  0  0  2  0  0  0  0  0  0
  161.2840  204.5800  151.8970 C   0  0  0  0  0  2  0  0  0  0  0  0
  159.5010  203.4340  149.4640 O   0  0  0  0  0  0  0  0  0  0  0  0
  161.5020  207.0440  152.4490 C   0  0  1  0  0  3  0  0  0  0  0  0
  161.2510  210.4370  151.5720 O   0  0  0  0  0  0  0  0  0  0  0  0
  160.8000  203.9760  149.5440 C   0  0  2  0  0  0  0  0  0  0  0  0
  160.7540  201.4830  148.7920 C   0  0  2  0  0  3  0  0  0  0  0  0
  160.3940  209.4400  153.5910 C   0  0  2  0  0  3  0  0  0  0  0  0
  161.7880  206.2870  150.0120 C   0  0  2  0  0  3  0  0  0  0  0  0
  161.1380  202.1440  151.2790 C   0  0  2  0  0  3  0  0  0  0  0  0
  161.9370  205.9120  151.5140 C   0  0  2  0  0  3  0  0  0  0  0  0
  160.7600  207.2680  147.4530 C   0  0  0  0  0  2  0  0  0  0  0  0
  160.6320  207.1290  154.5050 C   0  0  0  0  0  2  0  0  0  0  0  0
  160.9210  205.7720  147.7250 C   0  0  0  0  0  2  0  0  0  0  0  0
  161.7520  206.6990  153.7830 O   0  0  0  0  0  0  0  0  0  0  0  0
  161.6090  209.6290  152.6650 C   0  0  1  0  0  3  0  0  0  0  0  0
  161.7530  208.0810  148.2830 C   0  0  0  0  0  2  0  0  0  0  0  0
  162.4770  208.6280  150.6520 C   0  0  1  0  0  3  0  0  0  0  0  0
  159.9160  210.6890  153.9960 O   0  0  0  0  0  0  0  0  0  0  0  0
  158.5630  210.6890  153.6360 C   0  0  0  0  0  2  0  0  0  0  0  0
  158.6200  214.4490  152.1240 S   0  0  0  0  0  0  0  0  0  0  0  0
  158.5130  213.0640  154.4440 C   0  0  0  0  0  2  0  0  0  0  0  0
  158.0710  212.1050  153.3640 C   0  0  1  0  0  3  0  0  0  0  0  0
  158.2610  214.4530  153.9080 C   0  0  0  0  0  2  0  0  0  0  0  0
  158.5990  212.6310  152.0470 C   0  0  0  0  0  2  0  0  0  0  0  0
  1 26  1  6  0  0  0
  1 18  1  0  0  0  0
  1 27  1  0  0  0  0
  2 27  1  0  0  0  0
  2 14  1  0  0  0  0
  3  7  1  6  0  0  0
  3 19  1  0  0  0  0
  4 23  1  6  0  0  0
  4 15  1  0  0  0  0
  4 18  1  0  0  0  0
  5 19  1  0  0  0  0
  5 11  1  1  0  0  0
  8 16  1  0  0  0  0
  8 12  1  1  0  0  0
  8 15  1  0  0  0  0
  9 13  1  0  0  0  0
  9 25  1  0  0  0  0
 12 15  1  0  0  0  0
 13 24  1  0  0  0  0
 14 25  1  0  0  0  0
 15  5  1  0  0  0  0
 16  7  1  0  0  0  0
 16  3  1  0  0  0  0
 17 28  1  0  0  0  0
 17 10  1  0  0  0  0
 18 20  1  0  0  0  0
 19  6  1  0  0  0  0
 20 11  1  0  0  0  0
 20 13  1  0  0  0  0
 21 23  1  0  0  0  0
 21 26  1  0  0  0  0
 22 10  1  0  0  0  0
 24 22  1  0  0  0  0
 25 17  1  0  0  0  0
 27  9  1  0  0  0  0
 29 28  1  0  0  0  0
 30 33  1  0  0  0  0
 32 29  1  0  0  0  0
 32 31  1  0  0  0  0
 33 31  1  0  0  0  0
 34 30  1  0  0  0  0
 34 32  1  0  0  0  0
M  END
>  <MODEL>
2

>  <REMARK>
 VINA RESULT:      -6.4      1.103      1.265
  Name = 
  3 active torsions:
  status: ('A' for Active; 'I' for Inactive)
    1  A    between atoms: C_17  and  O_28
    2  A    between atoms: O_28  and  C_29
    3  A    between atoms: C_29  and  C_32
                            x       y       z     vdW  Elec       q    Type
                         _______ _______ _______ _____ _____    ______ ____

>  <TORSDO>
F 3

$$$$
=
 OpenBabel11122414423D

 34 42  0  0  1  0  0  0  0  0999 V2000
  160.8640  207.3890  153.8590 C   0  0  2  0  0  3  0  0  0  0  0  0
  162.1940  205.3810  153.1690 C   0  0  0  0  0  2  0  0  0  0  0  0
  158.9080  213.8480  153.6680 C   0  0  2  0  0  3  0  0  0  0  0  0
  159.3800  209.3610  154.2810 C   0  0  1  0  0  3  0  0  0  0  0  0
  160.0140  211.5970  153.0480 C   0  0  2  0  0  3  0  0  0  0  0  0
  160.3010  213.5840  151.7420 O   0  0  0  0  0  1  0  0  0  0  0  0
  159.6690  213.7270  154.9800 C   0  0  0  0  0  2  0  0  0  0  0  0
  158.2640  211.6330  154.9950 C   0  0  1  0  0  3  0  0  0  0  0  0
  162.2570  207.2760  151.7500 C   0  0  2  0  0  3  0  0  0  0  0  0
  161.5600  206.9590  148.7350 C   0  0  0  0  0  2  0  0  0  0  0  0
  160.3110  210.6560  151.8870 C   0  0  0  0  0  2  0  0  0  0  0  0
  157.7520  211.0680  153.8080 O   0  0  0  0  0  0  0  0  0  0  0  0
  161.2860  208.3910  151.3010 C   0  0  1  0  0  3  0  0  0  0  0  0
  161.7100  204.9590  151.9220 O   0  0  0  0  0  0  0  0  0  0  0  0
  159.1250  210.8610  154.0520 C   0  0  2  0  0  0  0  0  0  0  0  0
  158.2540  213.1730  154.8790 C   0  0  2  0  0  3  0  0  0  0  0  0
  161.1480  205.9430  149.7960 C   0  0  2  0  0  3  0  0  0  0  0  0
  160.7590  208.9180  153.7580 C   0  0  2  0  0  3  0  0  0  0  0  0
  159.3950  212.9030  152.5560 C   0  0  2  0  0  3  0  0  0  0  0  0
  161.1710  209.4820  152.3690 C   0  0  2  0  0  3  0  0  0  0  0  0
  159.4220  207.4410  155.9030 C   0  0  0  0  0  2  0  0  0  0  0  0
  161.0000  208.3320  149.0860 C   0  0  0  0  0  2  0  0  0  0  0  0
  159.2530  208.9540  155.7530 C   0  0  0  0  0  2  0  0  0  0  0  0
  161.7580  208.9320  150.0980 O   0  0  0  0  0  0  0  0  0  0  0  0
  162.1050  205.9450  151.0020 C   0  0  1  0  0  3  0  0  0  0  0  0
  160.7630  206.9840  155.3300 C   0  0  0  0  0  2  0  0  0  0  0  0
  162.1630  206.8920  153.2170 C   0  0  1  0  0  3  0  0  0  0  0  0
  161.1230  204.6700  149.2210 O   0  0  0  0  0  0  0  0  0  0  0  0
  161.6030  204.8550  147.9190 C   0  0  0  0  0  2  0  0  0  0  0  0
  160.4920  201.9260  145.3470 S   0  0  0  0  0  0  0  0  0  0  0  0
  161.0280  202.4130  147.9530 C   0  0  0  0  0  2  0  0  0  0  0  0
  161.6860  203.5280  147.1750 C   0  0  1  0  0  3  0  0  0  0  0  0
  160.8810  201.2550  146.9940 C   0  0  0  0  0  2  0  0  0  0  0  0
  161.0020  203.6060  145.8270 C   0  0  0  0  0  2  0  0  0  0  0  0
  1 26  1  1  0  0  0
  2 27  1  0  0  0  0
  3 16  1  0  0  0  0
  3  7  1  1  0  0  0
  4 23  1  1  0  0  0
  5 11  1  6  0  0  0
  5 15  1  0  0  0  0
  6 19  1  0  0  0  0
  8 12  1  6  0  0  0
  9 27  1  0  0  0  0
 10 22  1  0  0  0  0
 10 17  1  0  0  0  0
 11 20  1  0  0  0  0
 12 15  1  0  0  0  0
 13  9  1  0  0  0  0
 13 20  1  0  0  0  0
 14  2  1  0  0  0  0
 15  4  1  0  0  0  0
 15  8  1  0  0  0  0
 16  7  1  0  0  0  0
 16  8  1  0  0  0  0
 17 25  1  0  0  0  0
 18  1  1  0  0  0  0
 18  4  1  0  0  0  0
 19  5  1  0  0  0  0
 19  3  1  0  0  0  0
 20 18  1  0  0  0  0
 22 24  1  0  0  0  0
 23 21  1  0  0  0  0
 24 13  1  0  0  0  0
 25  9  1  0  0  0  0
 25 14  1  0  0  0  0
 26 21  1  0  0  0  0
 27  1  1  0  0  0  0
 28 17  1  0  0  0  0
 29 28  1  0  0  0  0
 30 34  1  0  0  0  0
 30 33  1  0  0  0  0
 32 29  1  0  0  0  0
 32 31  1  0  0  0  0
 33 31  1  0  0  0  0
 34 32  1  0  0  0  0
M  END
>  <MODEL>
3

>  <REMARK>
 VINA RESULT:      -6.1      3.136      9.078
  Name = 
  3 active torsions:
  status: ('A' for Active; 'I' for Inactive)
    1  A    between atoms: C_17  and  O_28
    2  A    between atoms: O_28  and  C_29
    3  A    between atoms: C_29  and  C_32
                            x       y       z     vdW  Elec       q    Type
                         _______ _______ _______ _____ _____    ______ ____

>  <TORSDO>
F 3

$$$$
=
 OpenBabel11122414423D

 34 42  0  0  1  0  0  0  0  0999 V2000
  161.8770  209.4260  151.6480 C   0  0  2  0  0  3  0  0  0  0  0  0
  162.3510  210.9550  153.5760 C   0  0  0  0  0  2  0  0  0  0  0  0
  161.0340  203.4840  148.5570 C   0  0  2  0  0  3  0  0  0  0  0  0
  161.1290  207.8470  149.8560 C   0  0  1  0  0  3  0  0  0  0  0  0
  161.3230  205.2790  150.3930 C   0  0  2  0  0  3  0  0  0  0  0  0
  161.1530  202.9410  150.8830 O   0  0  0  0  0  1  0  0  0  0  0  0
  162.3460  204.0140  147.9970 C   0  0  0  0  0  2  0  0  0  0  0  0
  160.8840  206.0670  147.9340 C   0  0  1  0  0  3  0  0  0  0  0  0
  161.9210  208.6770  154.0640 C   0  0  2  0  0  3  0  0  0  0  0  0
  159.7060  207.9400  156.1200 C   0  0  0  0  0  2  0  0  0  0  0  0
  160.8310  205.7170  151.7660 C   0  0  0  0  0  2  0  0  0  0  0  0
  159.7520  206.2030  148.7640 O   0  0  0  0  0  0  0  0  0  0  0  0
  161.0250  207.5470  153.5100 C   0  0  1  0  0  3  0  0  0  0  0  0
  161.2310  210.9340  154.4200 O   0  0  0  0  0  0  0  0  0  0  0  0
  161.0030  206.3860  149.3870 C   0  0  2  0  0  0  0  0  0  0  0  0
  161.0290  204.5930  147.4980 C   0  0  2  0  0  3  0  0  0  0  0  0
  159.7770  209.2950  155.4240 C   0  0  2  0  0  3  0  0  0  0  0  0
  161.9480  207.9750  151.1530 C   0  0  2  0  0  3  0  0  0  0  0  0
  160.7260  203.9300  149.9960 C   0  0  2  0  0  3  0  0  0  0  0  0
  161.6420  206.9220  152.2550 C   0  0  2  0  0  3  0  0  0  0  0  0
  161.7500  210.2130  149.2760 C   0  0  0  0  0  2  0  0  0  0  0  0
  159.6120  206.8270  155.0830 C   0  0  0  0  0  2  0  0  0  0  0  0
  161.7400  208.7630  148.7900 C   0  0  0  0  0  2  0  0  0  0  0  0
  160.8640  206.5780  154.5090 O   0  0  0  0  0  0  0  0  0  0  0  0
  161.2150  209.6580  155.0090 C   0  0  1  0  0  3  0  0  0  0  0  0
  162.5100  210.3380  150.5960 C   0  0  0  0  0  2  0  0  0  0  0  0
  162.5600  209.5670  153.0120 C   0  0  1  0  0  3  0  0  0  0  0  0
  159.2770  210.2750  156.2840 O   0  0  0  0  0  0  0  0  0  0  0  0
  158.0210  210.6030  155.7610 C   0  0  0  0  0  2  0  0  0  0  0  0
  156.4980  214.1010  154.3930 S   0  0  0  0  0  0  0  0  0  0  0  0
  157.9790  211.9620  153.6520 C   0  0  0  0  0  2  0  0  0  0  0  0
  158.0290  212.0040  155.1610 C   0  0  1  0  0  3  0  0  0  0  0  0
  157.6600  213.3680  153.1990 C   0  0  0  0  0  2  0  0  0  0  0  0
  156.8410  212.8140  155.6330 C   0  0  0  0  0  2  0  0  0  0  0  0
  1 26  1  6  0  0  0
  1 27  1  0  0  0  0
  2 14  1  0  0  0  0
  3  7  1  1  0  0  0
  3 19  1  0  0  0  0
  4 23  1  6  0  0  0
  4 18  1  0  0  0  0
  5 11  1  1  0  0  0
  8 12  1  1  0  0  0
  8 15  1  0  0  0  0
  9 25  1  0  0  0  0
 11 20  1  0  0  0  0
 12 15  1  0  0  0  0
 13  9  1  0  0  0  0
 13 24  1  0  0  0  0
 14 25  1  0  0  0  0
 15  4  1  0  0  0  0
 15  5  1  0  0  0  0
 16  8  1  0  0  0  0
 16  7  1  0  0  0  0
 16  3  1  0  0  0  0
 17 10  1  0  0  0  0
 17 28  1  0  0  0  0
 18  1  1  0  0  0  0
 18 20  1  0  0  0  0
 19  5  1  0  0  0  0
 19  6  1  0  0  0  0
 20 13  1  0  0  0  0
 21 26  1  0  0  0  0
 22 10  1  0  0  0  0
 23 21  1  0  0  0  0
 24 22  1  0  0  0  0
 25 17  1  0  0  0  0
 27  2  1  0  0  0  0
 27  9  1  0  0  0  0
 29 28  1  0  0  0  0
 30 34  1  0  0  0  0
 31 32  1  0  0  0  0
 32 34  1  0  0  0  0
 32 29  1  0  0  0  0
 33 31  1  0  0  0  0
 33 30  1  0  0  0  0
M  END
>  <MODEL>
4

>  <REMARK>
 VINA RESULT:      -6.1      1.455      2.429
  Name = 
  3 active torsions:
  status: ('A' for Active; 'I' for Inactive)
    1  A    between atoms: C_17  and  O_28
    2  A    between atoms: O_28  and  C_29
    3  A    between atoms: C_29  and  C_32
                            x       y       z     vdW  Elec       q    Type
                         _______ _______ _______ _____ _____    ______ ____

>  <TORSDO>
F 3

$$$$
=
 OpenBabel11122414423D

 34 42  0  0  1  0  0  0  0  0999 V2000
  158.5010  213.6420  148.0850 C   0  0  2  0  0  3  0  0  0  0  0  0
  158.3070  213.9450  150.5650 C   0  0  0  0  0  2  0  0  0  0  0  0
  161.7220  213.0980  142.1770 C   0  0  2  0  0  3  0  0  0  0  0  0
  158.8020  213.0540  145.6710 C   0  0  1  0  0  3  0  0  0  0  0  0
  161.2470  213.2220  144.7140 C   0  0  2  0  0  3  0  0  0  0  0  0
  163.4600  213.0300  143.8180 O   0  0  0  0  0  1  0  0  0  0  0  0
  161.0230  214.4470  142.0990 C   0  0  0  0  0  2  0  0  0  0  0  0
  159.2190  212.9800  143.0750 C   0  0  1  0  0  3  0  0  0  0  0  0
  160.4580  213.4930  149.6820 C   0  0  2  0  0  3  0  0  0  0  0  0
  162.1170  211.1220  150.8240 C   0  0  0  0  0  2  0  0  0  0  0  0
  161.6180  212.6160  146.0610 C   0  0  0  0  0  2  0  0  0  0  0  0
  159.5180  211.7830  143.7580 O   0  0  0  0  0  0  0  0  0  0  0  0
  161.0600  212.6530  148.5340 C   0  0  1  0  0  3  0  0  0  0  0  0
  158.7450  212.7590  151.1740 O   0  0  0  0  0  0  0  0  0  0  0  0
  159.7570  212.9780  144.4670 C   0  0  2  0  0  0  0  0  0  0  0  0
  160.2140  213.1710  141.9090 C   0  0  2  0  0  3  0  0  0  0  0  0
  160.6070  211.2410  150.9980 C   0  0  2  0  0  3  0  0  0  0  0  0
  159.4420  213.7640  146.8780 C   0  0  2  0  0  3  0  0  0  0  0  0
  162.1290  212.6700  143.5970 C   0  0  2  0  0  3  0  0  0  0  0  0
  160.9140  213.3750  147.1910 C   0  0  2  0  0  3  0  0  0  0  0  0
  156.5340  213.7030  146.5400 C   0  0  0  0  0  2  0  0  0  0  0  0
  162.4710  211.1210  149.3410 C   0  0  0  0  0  2  0  0  0  0  0  0
  157.4750  213.7440  145.3350 C   0  0  0  0  0  2  0  0  0  0  0  0
  162.4120  212.4180  148.8170 O   0  0  0  0  0  0  0  0  0  0  0  0
  160.1320  212.7040  150.9580 C   0  0  1  0  0  3  0  0  0  0  0  0
  157.1860  214.3520  147.7610 C   0  0  0  0  0  2  0  0  0  0  0  0
  159.1610  214.2100  149.3460 C   0  0  1  0  0  3  0  0  0  0  0  0
  160.2430  210.6640  152.2170 O   0  0  0  0  0  0  0  0  0  0  0  0
  161.2890  209.7860  152.5250 C   0  0  0  0  0  2  0  0  0  0  0  0
  161.3050  205.8160  153.3410 S   0  0  0  0  0  0  0  0  0  0  0  0
  161.3840  207.5950  151.3050 C   0  0  0  0  0  2  0  0  0  0  0  0
  160.8130  208.3390  152.4890 C   0  0  1  0  0  3  0  0  0  0  0  0
  161.1210  206.1290  151.5570 C   0  0  0  0  0  2  0  0  0  0  0  0
  161.2250  207.5890  153.7380 C   0  0  0  0  0  2  0  0  0  0  0  0
  1 26  1  6  0  0  0
  1 27  1  0  0  0  0
  2 14  1  0  0  0  0
  3  7  1  1  0  0  0
  3 19  1  0  0  0  0
  4 23  1  6  0  0  0
  4 18  1  0  0  0  0
  5 11  1  1  0  0  0
  8 12  1  6  0  0  0
  8 15  1  0  0  0  0
  9 25  1  0  0  0  0
 10 17  1  0  0  0  0
 11 20  1  0  0  0  0
 12 15  1  0  0  0  0
 13 24  1  0  0  0  0
 13  9  1  0  0  0  0
 15  5  1  0  0  0  0
 15  4  1  0  0  0  0
 16  7  1  0  0  0  0
 16  3  1  0  0  0  0
 16  8  1  0  0  0  0
 17 28  1  0  0  0  0
 18 20  1  0  0  0  0
 18  1  1  0  0  0  0
 19  6  1  0  0  0  0
 19  5  1  0  0  0  0
 20 13  1  0  0  0  0
 21 26  1  0  0  0  0
 22 10  1  0  0  0  0
 23 21  1  0  0  0  0
 24 22  1  0  0  0  0
 25 17  1  0  0  0  0
 25 14  1  0  0  0  0
 27  9  1  0  0  0  0
 27  2  1  0  0  0  0
 28 29  1  0  0  0  0
 30 34  1  0  0  0  0
 31 33  1  0  0  0  0
 31 32  1  0  0  0  0
 32 29  1  0  0  0  0
 32 34  1  0  0  0  0
 33 30  1  0  0  0  0
M  END
>  <MODEL>
5

>  <REMARK>
 VINA RESULT:      -5.4      5.600      8.861
  Name = 
  3 active torsions:
  status: ('A' for Active; 'I' for Inactive)
    1  A    between atoms: C_17  and  O_28
    2  A    between atoms: O_28  and  C_29
    3  A    between atoms: C_29  and  C_32
                            x       y       z     vdW  Elec       q    Type
                         _______ _______ _______ _____ _____    ______ ____

>  <TORSDO>
F 3

$$$$
=
 OpenBabel11122414423D

 34 42  0  0  1  0  0  0  0  0999 V2000
  161.6540  207.2910  149.2880 C   0  0  2  0  0  3  0  0  0  0  0  0
  162.2380  209.6120  150.0310 C   0  0  0  0  0  2  0  0  0  0  0  0
  161.2600  200.5710  149.8050 C   0  0  2  0  0  3  0  0  0  0  0  0
  160.8430  204.9820  148.7580 C   0  0  1  0  0  3  0  0  0  0  0  0
  161.5990  203.0640  150.3920 C   0  0  2  0  0  3  0  0  0  0  0  0
  161.9540  201.3010  151.9730 O   0  0  0  0  0  1  0  0  0  0  0  0
  162.3100  200.8020  148.7290 C   0  0  0  0  0  2  0  0  0  0  0  0
  160.5250  202.4610  148.0810 C   0  0  1  0  0  3  0  0  0  0  0  0
  162.3320  207.8870  151.6520 C   0  0  2  0  0  3  0  0  0  0  0  0
  160.7600  208.2000  154.3180 C   0  0  0  0  0  2  0  0  0  0  0  0
  161.3330  204.1190  151.4570 C   0  0  0  0  0  2  0  0  0  0  0  0
  159.5840  202.9480  149.0120 O   0  0  0  0  0  0  0  0  0  0  0  0
  161.5560  206.5900  151.9760 C   0  0  1  0  0  3  0  0  0  0  0  0
  161.3390  209.9720  151.0470 O   0  0  0  0  0  0  0  0  0  0  0  0
  160.8850  203.4840  149.1050 C   0  0  2  0  0  0  0  0  0  0  0  0
  160.8370  200.9800  148.3890 C   0  0  2  0  0  3  0  0  0  0  0  0
  160.4430  209.0090  153.0650 C   0  0  2  0  0  3  0  0  0  0  0  0
  161.8780  205.7960  149.5560 C   0  0  2  0  0  3  0  0  0  0  0  0
  161.1830  201.6760  150.8720 C   0  0  2  0  0  3  0  0  0  0  0  0
  162.0000  205.4420  151.0660 C   0  0  2  0  0  3  0  0  0  0  0  0
  160.8980  206.7450  146.9660 C   0  0  0  0  0  2  0  0  0  0  0  0
  160.6520  206.7100  154.0160 C   0  0  0  0  0  2  0  0  0  0  0  0
  161.0460  205.2520  147.2630 C   0  0  0  0  0  2  0  0  0  0  0  0
  161.7820  206.2630  153.3200 O   0  0  0  0  0  0  0  0  0  0  0  0
  161.6740  209.1780  152.1570 C   0  0  1  0  0  3  0  0  0  0  0  0
  161.8810  207.5650  147.8010 C   0  0  0  0  0  2  0  0  0  0  0  0
  162.5690  208.1430  150.1730 C   0  0  1  0  0  3  0  0  0  0  0  0
  159.9650  210.2660  153.4440 O   0  0  0  0  0  0  0  0  0  0  0  0
  159.9770  210.2460  154.8440 C   0  0  0  0  0  2  0  0  0  0  0  0
  163.2020  211.3600  157.0310 S   0  0  0  0  0  0  0  0  0  0  0  0
  160.5830  211.9010  156.6300 C   0  0  0  0  0  2  0  0  0  0  0  0
  161.0540  211.1730  155.3930 C   0  0  1  0  0  3  0  0  0  0  0  0
  161.8130  212.5140  157.2560 C   0  0  0  0  0  2  0  0  0  0  0  0
  162.3060  210.4080  155.7660 C   0  0  0  0  0  2  0  0  0  0  0  0
  1 26  1  6  0  0  0
  1 18  1  0  0  0  0
  1 27  1  0  0  0  0
  2 27  1  0  0  0  0
  2 14  1  0  0  0  0
  3  7  1  6  0  0  0
  3 19  1  0  0  0  0
  4 23  1  6  0  0  0
  4 15  1  0  0  0  0
  4 18  1  0  0  0  0
  5 19  1  0  0  0  0
  5 11  1  1  0  0  0
  8 16  1  0  0  0  0
  8 12  1  1  0  0  0
  8 15  1  0  0  0  0
  9 13  1  0  0  0  0
  9 25  1  0  0  0  0
 12 15  1  0  0  0  0
 13 24  1  0  0  0  0
 14 25  1  0  0  0  0
 15  5  1  0  0  0  0
 16  7  1  0  0  0  0
 16  3  1  0  0  0  0
 17 28  1  0  0  0  0
 17 10  1  0  0  0  0
 18 20  1  0  0  0  0
 19  6  1  0  0  0  0
 20 11  1  0  0  0  0
 20 13  1  0  0  0  0
 21 23  1  0  0  0  0
 21 26  1  0  0  0  0
 22 10  1  0  0  0  0
 24 22  1  0  0  0  0
 25 17  1  0  0  0  0
 27  9  1  0  0  0  0
 28 29  1  0  0  0  0
 29 32  1  0  0  0  0
 30 33  1  0  0  0  0
 31 33  1  0  0  0  0
 32 34  1  0  0  0  0
 32 31  1  0  0  0  0
 34 30  1  0  0  0  0
M  END
>  <MODEL>
6

>  <REMARK>
 VINA RESULT:      -5.4      1.772      2.042
  Name = 
  3 active torsions:
  status: ('A' for Active; 'I' for Inactive)
    1  A    between atoms: C_17  and  O_28
    2  A    between atoms: O_28  and  C_29
    3  A    between atoms: C_29  and  C_32
                            x       y       z     vdW  Elec       q    Type
                         _______ _______ _______ _____ _____    ______ ____

>  <TORSDO>
F 3

$$$$
=
 OpenBabel11122414423D

 34 42  0  0  1  0  0  0  0  0999 V2000
  161.0140  205.2520  151.2010 C   0  0  2  0  0  3  0  0  0  0  0  0
  160.6610  206.5470  153.3170 C   0  0  0  0  0  2  0  0  0  0  0  0
  160.8640  204.1730  144.5380 C   0  0  2  0  0  3  0  0  0  0  0  0
  161.6040  204.1520  149.0310 C   0  0  1  0  0  3  0  0  0  0  0  0
  160.7620  205.3410  146.8410 C   0  0  2  0  0  3  0  0  0  0  0  0
  160.3290  206.4900  144.7850 O   0  0  0  0  0  1  0  0  0  0  0  0
  159.7900  203.2470  145.0910 C   0  0  0  0  0  2  0  0  0  0  0  0
  161.6780  202.8910  146.7240 C   0  0  1  0  0  3  0  0  0  0  0  0
  160.4930  207.7270  151.2700 C   0  0  2  0  0  3  0  0  0  0  0  0
  162.2000  210.2900  150.8320 C   0  0  0  0  0  2  0  0  0  0  0  0
  161.1610  206.6030  147.5930 C   0  0  0  0  0  2  0  0  0  0  0  0
  162.6970  203.8490  146.9090 O   0  0  0  0  0  0  0  0  0  0  0  0
  161.1700  207.6930  149.8820 C   0  0  1  0  0  3  0  0  0  0  0  0
  161.6300  207.5600  153.3620 O   0  0  0  0  0  0  0  0  0  0  0  0
  161.4520  204.1450  147.5000 C   0  0  2  0  0  0  0  0  0  0  0  0
  161.2570  202.8670  145.2380 C   0  0  2  0  0  3  0  0  0  0  0  0
  162.5300  209.2410  151.8890 C   0  0  2  0  0  3  0  0  0  0  0  0
  160.6770  205.1800  149.7050 C   0  0  2  0  0  3  0  0  0  0  0  0
  161.0800  205.4600  145.3520 C   0  0  2  0  0  3  0  0  0  0  0  0
  160.5920  206.5710  149.0150 C   0  0  2  0  0  3  0  0  0  0  0  0
  161.6200  202.8240  151.1650 C   0  0  0  0  0  2  0  0  0  0  0  0
  162.1690  209.6450  149.4520 C   0  0  0  0  0  2  0  0  0  0  0  0
  161.3600  202.7760  149.6590 C   0  0  0  0  0  2  0  0  0  0  0  0
  160.9770  208.9360  149.2640 O   0  0  0  0  0  0  0  0  0  0  0  0
  161.2790  208.4750  152.3550 C   0  0  1  0  0  3  0  0  0  0  0  0
  160.7460  203.8860  151.8340 C   0  0  0  0  0  2  0  0  0  0  0  0
  160.2130  206.3650  151.8830 C   0  0  1  0  0  3  0  0  0  0  0  0
  163.1270  209.8710  152.9840 O   0  0  0  0  0  0  0  0  0  0  0  0
  162.1470  210.7390  153.4770 C   0  0  0  0  0  2  0  0  0  0  0  0
  160.4070  211.1330  157.1170 S   0  0  0  0  0  0  0  0  0  0  0  0
  162.7890  210.7250  155.9030 C   0  0  0  0  0  2  0  0  0  0  0  0
  161.7330  210.3470  154.8910 C   0  0  1  0  0  3  0  0  0  0  0  0
  162.1400  210.5970  157.2610 C   0  0  0  0  0  2  0  0  0  0  0  0
  160.4460  211.0300  155.3000 C   0  0  0  0  0  2  0  0  0  0  0  0
  1 26  1  1  0  0  0
  1 27  1  0  0  0  0
  2 14  1  0  0  0  0
  3  7  1  1  0  0  0
  3 16  1  0  0  0  0
  3 19  1  0  0  0  0
  4 23  1  1  0  0  0
  4 18  1  0  0  0  0
  5 15  1  0  0  0  0
  5 11  1  1  0  0  0
  6 19  1  0  0  0  0
  7 16  1  0  0  0  0
  8 12  1  6  0  0  0
  8 15  1  0  0  0  0
  9 27  1  0  0  0  0
  9 25  1  0  0  0  0
 10 17  1  0  0  0  0
 11 20  1  0  0  0  0
 12 15  1  0  0  0  0
 13  9  1  0  0  0  0
 15  4  1  0  0  0  0
 16  8  1  0  0  0  0
 17 25  1  0  0  0  0
 17 28  1  0  0  0  0
 18  1  1  0  0  0  0
 19  5  1  0  0  0  0
 20 18  1  0  0  0  0
 20 13  1  0  0  0  0
 21 26  1  0  0  0  0
 22 10  1  0  0  0  0
 23 21  1  0  0  0  0
 24 22  1  0  0  0  0
 24 13  1  0  0  0  0
 25 14  1  0  0  0  0
 27  2  1  0  0  0  0
 28 29  1  0  0  0  0
 29 32  1  0  0  0  0
 30 33  1  0  0  0  0
 31 33  1  0  0  0  0
 32 34  1  0  0  0  0
 32 31  1  0  0  0  0
 34 30  1  0  0  0  0
M  END
>  <MODEL>
7

>  <REMARK>
 VINA RESULT:      -5.3      2.355      4.423
  Name = 
  3 active torsions:
  status: ('A' for Active; 'I' for Inactive)
    1  A    between atoms: C_17  and  O_28
    2  A    between atoms: O_28  and  C_29
    3  A    between atoms: C_29  and  C_32
                            x       y       z     vdW  Elec       q    Type
                         _______ _______ _______ _____ _____    ______ ____

>  <TORSDO>
F 3

$$$$
=
 OpenBabel11122414423D

 34 42  0  0  1  0  0  0  0  0999 V2000
  160.8080  208.1180  153.8820 C   0  0  2  0  0  3  0  0  0  0  0  0
  162.3040  206.2550  153.1240 C   0  0  0  0  0  2  0  0  0  0  0  0
  158.4870  214.4530  154.1070 C   0  0  2  0  0  3  0  0  0  0  0  0
  159.1820  209.9600  154.3580 C   0  0  1  0  0  3  0  0  0  0  0  0
  159.7690  212.3310  153.3800 C   0  0  2  0  0  3  0  0  0  0  0  0
  160.0310  214.4430  152.2810 O   0  0  0  0  0  1  0  0  0  0  0  0
  159.1550  214.2520  155.4590 C   0  0  0  0  0  2  0  0  0  0  0  0
  157.8820  212.0940  155.1800 C   0  0  1  0  0  3  0  0  0  0  0  0
  162.3570  208.2740  151.8870 C   0  0  2  0  0  3  0  0  0  0  0  0
  161.9030  208.2000  148.8110 C   0  0  0  0  0  2  0  0  0  0  0  0
  160.2070  211.5180  152.1680 C   0  0  0  0  0  2  0  0  0  0  0  0
  157.4930  211.6150  153.9110 O   0  0  0  0  0  0  0  0  0  0  0  0
  161.3560  209.3720  151.4630 C   0  0  1  0  0  3  0  0  0  0  0  0
  161.9400  205.9250  151.8110 O   0  0  0  0  0  0  0  0  0  0  0  0
  158.8540  211.4590  154.2430 C   0  0  2  0  0  0  0  0  0  0  0  0
  157.7880  213.6350  155.1990 C   0  0  2  0  0  3  0  0  0  0  0  0
  161.4770  207.0710  149.7420 C   0  0  2  0  0  3  0  0  0  0  0  0
  160.6190  209.6410  153.9080 C   0  0  2  0  0  3  0  0  0  0  0  0
  159.1100  213.6420  152.9580 C   0  0  2  0  0  3  0  0  0  0  0  0
  161.0970  210.3520  152.6100 C   0  0  2  0  0  3  0  0  0  0  0  0
  159.2190  207.9040  155.8030 C   0  0  0  0  0  2  0  0  0  0  0  0
  161.2380  209.5040  149.2360 C   0  0  0  0  0  2  0  0  0  0  0  0
  158.9720  209.4120  155.7740 C   0  0  0  0  0  2  0  0  0  0  0  0
  161.8820  210.0470  150.3540 O   0  0  0  0  0  0  0  0  0  0  0  0
  162.3400  207.0120  151.0150 C   0  0  1  0  0  3  0  0  0  0  0  0
  160.6240  207.5730  155.2990 C   0  0  0  0  0  2  0  0  0  0  0  0
  162.1780  207.7520  153.3030 C   0  0  1  0  0  3  0  0  0  0  0  0
  161.5710  205.8570  149.0570 O   0  0  0  0  0  0  0  0  0  0  0  0
  160.5550  205.9090  148.0950 C   0  0  0  0  0  2  0  0  0  0  0  0
  162.9810  204.6270  145.1110 S   0  0  0  0  0  0  0  0  0  0  0  0
  160.6780  205.9630  145.5900 C   0  0  0  0  0  2  0  0  0  0  0  0
  160.9600  205.1550  146.8340 C   0  0  1  0  0  3  0  0  0  0  0  0
  161.4080  205.2730  144.4610 C   0  0  0  0  0  2  0  0  0  0  0  0
  162.4360  204.8240  146.8360 C   0  0  0  0  0  2  0  0  0  0  0  0
  1 18  1  0  0  0  0
  1 26  1  1  0  0  0
  2 27  1  0  0  0  0
  3 16  1  0  0  0  0
  3  7  1  1  0  0  0
  4 23  1  1  0  0  0
  5 11  1  6  0  0  0
  5 15  1  0  0  0  0
  6 19  1  0  0  0  0
  8 12  1  6  0  0  0
  8 16  1  0  0  0  0
  9 27  1  0  0  0  0
 10 22  1  0  0  0  0
 10 17  1  0  0  0  0
 11 20  1  0  0  0  0
 12 15  1  0  0  0  0
 13  9  1  0  0  0  0
 13 20  1  0  0  0  0
 14  2  1  0  0  0  0
 15  4  1  0  0  0  0
 15  8  1  0  0  0  0
 16  7  1  0  0  0  0
 17 25  1  0  0  0  0
 18  4  1  0  0  0  0
 19  5  1  0  0  0  0
 19  3  1  0  0  0  0
 20 18  1  0  0  0  0
 22 24  1  0  0  0  0
 23 21  1  0  0  0  0
 24 13  1  0  0  0  0
 25 14  1  0  0  0  0
 25  9  1  0  0  0  0
 26 21  1  0  0  0  0
 27  1  1  0  0  0  0
 28 17  1  0  0  0  0
 29 28  1  0  0  0  0
 30 34  1  0  0  0  0
 31 32  1  0  0  0  0
 32 34  1  0  0  0  0
 32 29  1  0  0  0  0
 33 30  1  0  0  0  0
 33 31  1  0  0  0  0
M  END
>  <MODEL>
8

>  <REMARK>
 VINA RESULT:      -5.1      3.398      9.162
  Name = 
  3 active torsions:
  status: ('A' for Active; 'I' for Inactive)
    1  A    between atoms: C_17  and  O_28
    2  A    between atoms: O_28  and  C_29
    3  A    between atoms: C_29  and  C_32
                            x       y       z     vdW  Elec       q    Type
                         _______ _______ _______ _____ _____    ______ ____

>  <TORSDO>
F 3

$$$$
=
 OpenBabel11122414423D

 34 42  0  0  1  0  0  0  0  0999 V2000
  162.1600  213.2650  145.0750 C   0  0  2  0  0  3  0  0  0  0  0  0
  162.2260  212.9820  147.5640 C   0  0  0  0  0  2  0  0  0  0  0  0
  159.8750  212.2060  138.8100 C   0  0  2  0  0  3  0  0  0  0  0  0
  161.8360  213.7140  142.6330 C   0  0  1  0  0  3  0  0  0  0  0  0
  160.0590  212.2270  141.3880 C   0  0  2  0  0  3  0  0  0  0  0  0
  158.2550  211.1630  140.2260 O   0  0  0  0  0  1  0  0  0  0  0  0
  161.2300  211.5130  138.8370 C   0  0  0  0  0  2  0  0  0  0  0  0
  161.7350  213.6890  140.0050 C   0  0  1  0  0  3  0  0  0  0  0  0
  160.3200  212.1640  146.4190 C   0  0  2  0  0  3  0  0  0  0  0  0
  157.4840  213.0740  147.3160 C   0  0  0  0  0  2  0  0  0  0  0  0
  159.2640  212.4270  142.6710 C   0  0  0  0  0  2  0  0  0  0  0  0
  160.7270  214.4530  140.6300 O   0  0  0  0  0  0  0  0  0  0  0  0
  159.4710  212.5710  145.1930 C   0  0  1  0  0  3  0  0  0  0  0  0
  161.1200  213.6600  148.0980 O   0  0  0  0  0  0  0  0  0  0  0  0
  161.1490  213.2990  141.3210 C   0  0  2  0  0  0  0  0  0  0  0  0
  161.1660  213.0300  138.7300 C   0  0  2  0  0  3  0  0  0  0  0  0
  158.7550  213.8360  147.6750 C   0  0  2  0  0  3  0  0  0  0  0  0
  161.5990  212.6960  143.7630 C   0  0  2  0  0  3  0  0  0  0  0  0
  159.1460  212.2360  140.1640 C   0  0  2  0  0  3  0  0  0  0  0  0
  160.1510  212.1460  143.8890 C   0  0  2  0  0  3  0  0  0  0  0  0
  163.9510  214.4390  143.7810 C   0  0  0  0  0  2  0  0  0  0  0  0
  157.3560  212.9590  145.8020 C   0  0  0  0  0  2  0  0  0  0  0  0
  163.3440  213.9360  142.4720 C   0  0  0  0  0  2  0  0  0  0  0  0
  158.2120  211.9670  145.3070 O   0  0  0  0  0  0  0  0  0  0  0  0
  159.9900  212.9190  147.7130 C   0  0  1  0  0  3  0  0  0  0  0  0
  163.6680  213.4620  144.9220 C   0  0  0  0  0  2  0  0  0  0  0  0
  161.8190  212.3460  146.2520 C   0  0  1  0  0  3  0  0  0  0  0  0
  158.5840  214.4430  148.9220 O   0  0  0  0  0  0  0  0  0  0  0  0
  157.7690  213.5620  149.6410 C   0  0  0  0  0  2  0  0  0  0  0  0
  157.5290  213.0550  153.6550 S   0  0  0  0  0  0  0  0  0  0  0  0
  156.2700  214.1960  151.5510 C   0  0  0  0  0  2  0  0  0  0  0  0
  157.6960  213.9620  151.1100 C   0  0  1  0  0  3  0  0  0  0  0  0
  156.2970  214.2550  153.0600 C   0  0  0  0  0  2  0  0  0  0  0  0
  158.2790  212.8910  152.0050 C   0  0  0  0  0  2  0  0  0  0  0  0
  1 26  1  6  0  0  0
  1 27  1  0  0  0  0
  2 14  1  0  0  0  0
  3  7  1  1  0  0  0
  3 19  1  0  0  0  0
  4 23  1  6  0  0  0
  4 18  1  0  0  0  0
  5 11  1  1  0  0  0
  8 12  1  6  0  0  0
  8 15  1  0  0  0  0
  9 25  1  0  0  0  0
 10 17  1  0  0  0  0
 11 20  1  0  0  0  0
 12 15  1  0  0  0  0
 13 24  1  0  0  0  0
 13  9  1  0  0  0  0
 15  5  1  0  0  0  0
 15  4  1  0  0  0  0
 16  3  1  0  0  0  0
 16  7  1  0  0  0  0
 16  8  1  0  0  0  0
 17 25  1  0  0  0  0
 17 28  1  0  0  0  0
 18 20  1  0  0  0  0
 18  1  1  0  0  0  0
 19  6  1  0  0  0  0
 19  5  1  0  0  0  0
 20 13  1  0  0  0  0
 21 26  1  0  0  0  0
 22 10  1  0  0  0  0
 23 21  1  0  0  0  0
 24 22  1  0  0  0  0
 25 14  1  0  0  0  0
 27  9  1  0  0  0  0
 27  2  1  0  0  0  0
 28 29  1  0  0  0  0
 29 32  1  0  0  0  0
 31 33  1  0  0  0  0
 32 31  1  0  0  0  0
 32 34  1  0  0  0  0
 33 30  1  0  0  0  0
 34 30  1  0  0  0  0
M  END
>  <MODEL>
9

>  <REMARK>
 VINA RESULT:      -4.5      7.463     10.058
  Name = 
  3 active torsions:
  status: ('A' for Active; 'I' for Inactive)
    1  A    between atoms: C_17  and  O_28
    2  A    between atoms: O_28  and  C_29
    3  A    between atoms: C_29  and  C_32
                            x       y       z     vdW  Elec       q    Type
                         _______ _______ _______ _____ _____    ______ ____

>  <TORSDO>
F 3

$$$$
