=
 OpenBabel11122414333D

 34 40  0  0  1  0  0  0  0  0999 V2000
  161.2690  208.3520  152.8840 C   0  0  0  0  0  0  0  0  0  0  0  0
  160.3820  210.6500  153.6310 C   0  0  0  0  0  2  0  0  0  0  0  0
  161.7270  204.0550  148.0540 N   0  0  2  0  0  0  0  0  0  0  0  0
  161.8310  206.0730  151.9520 C   0  0  1  0  0  3  0  0  0  0  0  0
  161.7240  206.0400  149.3970 C   0  0  1  0  0  3  0  0  0  0  0  0
  161.3240  205.7710  146.8210 C   0  0  0  0  0  2  0  0  0  0  0  0
  161.7940  204.3390  146.6280 C   0  0  0  0  0  2  0  0  0  0  0  0
  160.4780  203.0510  149.9250 C   0  0  0  0  0  2  0  0  0  0  0  0
  160.8420  210.1830  151.3540 N   0  0  2  0  0  0  0  0  0  0  0  0
  161.3590  207.5200  149.3900 C   0  0  0  0  0  2  0  0  0  0  0  0
  161.4980  203.8560  150.7600 C   0  0  0  0  0  2  0  0  0  0  0  0
  161.9550  209.7780  150.4900 C   0  0  1  0  0  3  0  0  0  0  0  0
  160.1470  211.9220  152.8390 C   0  0  0  0  0  2  0  0  0  0  0  0
  161.2320  205.3800  150.7130 C   0  0  1  0  0  3  0  0  0  0  0  0
  160.7720  203.0170  148.4060 C   0  0  0  0  0  2  0  0  0  0  0  0
  161.6980  207.5890  151.8430 C   0  0  0  0  0  0  0  0  0  0  0  0
  161.0550  205.3260  148.2400 C   0  0  1  0  0  3  0  0  0  0  0  0
  162.1080  208.2280  150.5170 C   0  0  1  0  0  3  0  0  0  0  0  0
  161.4860  206.3920  154.4220 C   0  0  0  0  0  2  0  0  0  0  0  0
  161.1930  205.5020  153.2270 C   0  0  0  0  0  2  0  0  0  0  0  0
  160.6820  211.6290  151.4410 C   0  0  0  0  0  2  0  0  0  0  0  0
  160.8220  207.7400  154.1880 C   0  0  0  0  0  2  0  0  0  0  0  0
  161.2540  209.8430  152.7010 C   0  0  2  0  0  3  0  0  0  0  0  0
  161.8340  210.3340  149.0660 C   0  0  0  0  0  2  0  0  0  0  0  0
  162.9040  211.3790  148.7920 C   0  0  0  0  0  2  0  0  0  0  0  0
  162.3180  212.5430  148.0170 C   0  0  0  0  0  2  0  0  0  0  0  0
  160.9110  212.2000  147.5810 C   0  0  0  0  0  2  0  0  0  0  0  0
  160.5220  213.0660  146.3980 C   0  0  0  0  0  2  0  0  0  0  0  0
  159.8220  212.2350  145.3360 C   0  0  0  0  0  2  0  0  0  0  0  0
  162.2650  212.4050  142.6730 C   0  0  0  0  0  2  0  0  0  0  0  0
  160.0840  211.5670  143.0420 O   0  0  0  0  0  0  0  0  0  0  0  0
  160.2760  212.6300  143.9390 C   0  0  2  0  0  3  0  0  0  0  0  0
  161.0570  211.7450  142.0500 C   0  0  0  0  0  2  0  0  0  0  0  0
  161.7460  212.9700  143.9600 C   0  0  0  0  0  2  0  0  0  0  0  0
  1 22  1  0  0  0  0
  3  7  1  6  0  0  0
  3 17  1  0  0  0  0
  3 15  1  0  0  0  0
  4 20  1  1  0  0  0
  5 10  1  1  0  0  0
  5 14  1  0  0  0  0
  7  6  1  0  0  0  0
  8 11  1  0  0  0  0
  9 21  1  1  0  0  0
  9 23  1  0  0  0  0
 12 24  1  6  0  0  0
 12 18  1  0  0  0  0
 12  9  1  0  0  0  0
 13  2  1  0  0  0  0
 14 11  1  6  0  0  0
 14  4  1  0  0  0  0
 15  8  1  0  0  0  0
 16  4  1  0  0  0  0
 16  1  2  0  0  0  0
 17  6  1  6  0  0  0
 17  5  1  0  0  0  0
 18 10  1  6  0  0  0
 18 16  1  0  0  0  0
 20 19  1  0  0  0  0
 21 13  1  0  0  0  0
 22 19  1  0  0  0  0
 23  1  1  0  0  0  0
 23  2  1  1  0  0  0
 25 24  1  0  0  0  0
 26 25  1  0  0  0  0
 27 26  1  0  0  0  0
 28 27  1  0  0  0  0
 29 28  1  0  0  0  0
 30 34  1  0  0  0  0
 31 32  1  0  0  0  0
 32 34  1  0  0  0  0
 32 29  1  1  0  0  0
 33 30  1  0  0  0  0
 33 31  1  0  0  0  0
M  END
>  <MODEL>
1

>  <REMARK>
 VINA RESULT:      -8.9      0.000      0.000
  Name = 
  7 active torsions:
  status: ('A' for Active; 'I' for Inactive)
    1  A    between atoms: C_10  and  C_17
    2  A    between atoms: C_10  and  C_22
    3  A    between atoms: C_13  and  C_24
    4  A    between atoms: C_17  and  C_28
    5  A    between atoms: C_22  and  C_24
    6  A    between atoms: C_28  and  C_29
    7  A    between atoms: C_29  and  C_32
                            x       y       z     vdW  Elec       q    Type
                         _______ _______ _______ _____ _____    ______ ____

>  <TORSDO>
F 7

$$$$
=
 OpenBabel11122414333D

 34 40  0  0  1  0  0  0  0  0999 V2000
  161.2140  208.4050  153.1170 C   0  0  0  0  0  0  0  0  0  0  0  0
  160.2970  210.6830  153.8870 C   0  0  0  0  0  2  0  0  0  0  0  0
  161.7080  204.1520  148.2520 N   0  0  2  0  0  0  0  0  0  0  0  0
  161.8060  206.1430  152.1640 C   0  0  1  0  0  3  0  0  0  0  0  0
  161.6830  206.1260  149.6090 C   0  0  1  0  0  3  0  0  0  0  0  0
  161.2690  205.8700  147.0340 C   0  0  0  0  0  2  0  0  0  0  0  0
  161.7610  204.4470  146.8270 C   0  0  0  0  0  2  0  0  0  0  0  0
  160.4870  203.1140  150.1240 C   0  0  0  0  0  2  0  0  0  0  0  0
  160.7490  210.2410  151.6040 N   0  0  2  0  0  0  0  0  0  0  0  0
  161.2940  207.6010  149.6160 C   0  0  0  0  0  2  0  0  0  0  0  0
  161.5000  203.9290  150.9580 C   0  0  0  0  0  2  0  0  0  0  0  0
  161.8630  209.8600  150.7290 C   0  0  1  0  0  3  0  0  0  0  0  0
  160.0370  211.9570  153.1060 C   0  0  0  0  0  2  0  0  0  0  0  0
  161.2100  205.4490  150.9240 C   0  0  1  0  0  3  0  0  0  0  0  0
  160.7710  203.0970  148.6030 C   0  0  0  0  0  2  0  0  0  0  0  0
  161.6490  207.6570  152.0680 C   0  0  0  0  0  0  0  0  0  0  0  0
  161.0170  205.4110  148.4520 C   0  0  1  0  0  3  0  0  0  0  0  0
  162.0400  208.3120  150.7440 C   0  0  1  0  0  3  0  0  0  0  0  0
  161.4730  206.4370  154.6380 C   0  0  0  0  0  2  0  0  0  0  0  0
  161.1850  205.5520  153.4390 C   0  0  0  0  0  2  0  0  0  0  0  0
  160.5670  211.6830  151.7020 C   0  0  0  0  0  2  0  0  0  0  0  0
  160.7860  207.7760  154.4190 C   0  0  0  0  0  2  0  0  0  0  0  0
  161.1760  209.8970  152.9460 C   0  0  2  0  0  3  0  0  0  0  0  0
  161.7230  210.4240  149.3100 C   0  0  0  0  0  2  0  0  0  0  0  0
  162.1960  211.8680  149.2450 C   0  0  0  0  0  2  0  0  0  0  0  0
  162.8850  212.1370  147.9210 C   0  0  0  0  0  2  0  0  0  0  0  0
  162.7650  213.6060  147.5820 C   0  0  0  0  0  2  0  0  0  0  0  0
  161.3040  213.9660  147.4000 C   0  0  0  0  0  2  0  0  0  0  0  0
  160.7120  213.2130  146.2200 C   0  0  0  0  0  2  0  0  0  0  0  0
  157.3760  213.0550  147.6110 C   0  0  0  0  0  2  0  0  0  0  0  0
  158.4920  212.5390  145.5910 O   0  0  0  0  0  0  0  0  0  0  0  0
  159.4460  212.4700  146.6190 C   0  0  2  0  0  3  0  0  0  0  0  0
  157.2510  212.4450  146.2350 C   0  0  0  0  0  2  0  0  0  0  0  0
  158.8530  213.1040  147.8540 C   0  0  0  0  0  2  0  0  0  0  0  0
  1 22  1  0  0  0  0
  3  7  1  6  0  0  0
  3 17  1  0  0  0  0
  3 15  1  0  0  0  0
  4 20  1  1  0  0  0
  5 10  1  1  0  0  0
  5 14  1  0  0  0  0
  7  6  1  0  0  0  0
  8 11  1  0  0  0  0
  9 21  1  1  0  0  0
  9 23  1  0  0  0  0
 12 24  1  6  0  0  0
 12 18  1  0  0  0  0
 12  9  1  0  0  0  0
 13  2  1  0  0  0  0
 14 11  1  6  0  0  0
 14  4  1  0  0  0  0
 15  8  1  0  0  0  0
 16  4  1  0  0  0  0
 16  1  2  0  0  0  0
 17  6  1  6  0  0  0
 17  5  1  0  0  0  0
 18 10  1  6  0  0  0
 18 16  1  0  0  0  0
 20 19  1  0  0  0  0
 21 13  1  0  0  0  0
 22 19  1  0  0  0  0
 23  1  1  0  0  0  0
 23  2  1  1  0  0  0
 25 24  1  0  0  0  0
 26 25  1  0  0  0  0
 27 26  1  0  0  0  0
 28 27  1  0  0  0  0
 29 28  1  0  0  0  0
 30 34  1  0  0  0  0
 31 33  1  0  0  0  0
 31 32  1  0  0  0  0
 32 29  1  6  0  0  0
 32 34  1  0  0  0  0
 33 30  1  0  0  0  0
M  END
>  <MODEL>
2

>  <REMARK>
 VINA RESULT:      -8.6      1.382      1.999
  Name = 
  7 active torsions:
  status: ('A' for Active; 'I' for Inactive)
    1  A    between atoms: C_10  and  C_17
    2  A    between atoms: C_10  and  C_22
    3  A    between atoms: C_13  and  C_24
    4  A    between atoms: C_17  and  C_28
    5  A    between atoms: C_22  and  C_24
    6  A    between atoms: C_28  and  C_29
    7  A    between atoms: C_29  and  C_32
                            x       y       z     vdW  Elec       q    Type
                         _______ _______ _______ _____ _____    ______ ____

>  <TORSDO>
F 7

$$$$
=
 OpenBabel11122414333D

 34 40  0  0  1  0  0  0  0  0999 V2000
  161.7700  208.4630  149.8960 C   0  0  0  0  0  0  0  0  0  0  0  0
  161.2360  207.0540  147.8090 C   0  0  0  0  0  2  0  0  0  0  0  0
  160.6090  209.4260  156.1990 N   0  0  2  0  0  0  0  0  0  0  0  0
  161.9400  209.8000  152.0320 C   0  0  1  0  0  3  0  0  0  0  0  0
  161.0820  208.4810  154.0480 C   0  0  1  0  0  3  0  0  0  0  0  0
  159.9270  207.3860  156.1300 C   0  0  0  0  0  2  0  0  0  0  0  0
  160.2620  208.4200  157.1920 C   0  0  0  0  0  2  0  0  0  0  0  0
  159.9290  211.4250  154.9280 C   0  0  0  0  0  2  0  0  0  0  0  0
  160.9840  206.1730  149.9930 N   0  0  2  0  0  0  0  0  0  0  0  0
  160.7900  207.2870  153.1460 C   0  0  0  0  0  2  0  0  0  0  0  0
  161.1820  211.0630  154.1000 C   0  0  0  0  0  2  0  0  0  0  0  0
  161.7750  205.9060  151.1990 C   0  0  1  0  0  3  0  0  0  0  0  0
  160.8300  205.5990  147.6790 C   0  0  0  0  0  2  0  0  0  0  0  0
  160.9750  209.7980  153.2330 C   0  0  1  0  0  3  0  0  0  0  0  0
  159.7590  210.6050  156.2300 C   0  0  0  0  0  2  0  0  0  0  0  0
  161.8420  208.4910  151.2530 C   0  0  0  0  0  0  0  0  0  0  0  0
  160.0720  208.5490  155.1760 C   0  0  1  0  0  3  0  0  0  0  0  0
  161.8680  207.1970  152.0660 C   0  0  1  0  0  3  0  0  0  0  0  0
  162.3540  210.8930  149.8060 C   0  0  0  0  0  2  0  0  0  0  0  0
  161.6850  211.0390  151.1610 C   0  0  0  0  0  2  0  0  0  0  0  0
  160.9150  205.0300  149.0910 C   0  0  0  0  0  2  0  0  0  0  0  0
  161.7050  209.7280  149.0760 C   0  0  0  0  0  2  0  0  0  0  0  0
  161.7630  207.1210  149.2220 C   0  0  2  0  0  3  0  0  0  0  0  0
  161.2600  204.6990  151.9920 C   0  0  0  0  0  2  0  0  0  0  0  0
  161.8130  203.3990  151.4300 C   0  0  0  0  0  2  0  0  0  0  0  0
  160.6910  202.4030  151.2070 C   0  0  0  0  0  2  0  0  0  0  0  0
  161.1760  201.2940  150.2990 C   0  0  0  0  0  2  0  0  0  0  0  0
  160.6670  201.5340  148.8910 C   0  0  0  0  0  2  0  0  0  0  0  0
  161.2410  200.5030  147.9330 C   0  0  0  0  0  2  0  0  0  0  0  0
  159.8420  201.6160  144.7880 C   0  0  0  0  0  2  0  0  0  0  0  0
  161.1940  202.4590  146.5370 O   0  0  0  0  0  0  0  0  0  0  0  0
  161.3560  201.0640  146.5240 C   0  0  2  0  0  3  0  0  0  0  0  0
  160.6760  202.7790  145.2740 C   0  0  0  0  0  2  0  0  0  0  0  0
  160.2750  200.4720  145.6530 C   0  0  0  0  0  2  0  0  0  0  0  0
  1 16  2  0  0  0  0
  3 15  1  1  0  0  0
  3  7  1  0  0  0  0
  4 20  1  6  0  0  0
  4 14  1  0  0  0  0
  5 10  1  6  0  0  0
  5 17  1  0  0  0  0
  6  7  1  0  0  0  0
  8 15  1  0  0  0  0
  9 21  1  6  0  0  0
  9 12  1  0  0  0  0
 11  8  1  0  0  0  0
 12 24  1  1  0  0  0
 12 18  1  0  0  0  0
 13  2  1  0  0  0  0
 13 21  1  0  0  0  0
 14  5  1  0  0  0  0
 14 11  1  1  0  0  0
 16  4  1  0  0  0  0
 16 18  1  0  0  0  0
 17  6  1  1  0  0  0
 17  3  1  0  0  0  0
 18 10  1  1  0  0  0
 19 20  1  0  0  0  0
 22 19  1  0  0  0  0
 22  1  1  0  0  0  0
 23  2  1  6  0  0  0
 23  1  1  0  0  0  0
 23  9  1  0  0  0  0
 25 24  1  0  0  0  0
 26 25  1  0  0  0  0
 27 26  1  0  0  0  0
 28 27  1  0  0  0  0
 29 28  1  0  0  0  0
 30 33  1  0  0  0  0
 30 34  1  0  0  0  0
 32 31  1  0  0  0  0
 32 29  1  1  0  0  0
 33 31  1  0  0  0  0
 34 32  1  0  0  0  0
M  END
>  <MODEL>
3

>  <REMARK>
 VINA RESULT:      -8.3      3.380      8.287
  Name = 
  7 active torsions:
  status: ('A' for Active; 'I' for Inactive)
    1  A    between atoms: C_10  and  C_17
    2  A    between atoms: C_10  and  C_22
    3  A    between atoms: C_13  and  C_24
    4  A    between atoms: C_17  and  C_28
    5  A    between atoms: C_22  and  C_24
    6  A    between atoms: C_28  and  C_29
    7  A    between atoms: C_29  and  C_32
                            x       y       z     vdW  Elec       q    Type
                         _______ _______ _______ _____ _____    ______ ____

>  <TORSDO>
F 7

$$$$
=
 OpenBabel11122414333D

 34 40  0  0  1  0  0  0  0  0999 V2000
  161.3570  205.5660  151.5760 C   0  0  0  0  0  0  0  0  0  0  0  0
  160.6330  207.3090  153.3260 C   0  0  0  0  0  2  0  0  0  0  0  0
  161.3520  203.8760  145.3190 N   0  0  2  0  0  0  0  0  0  0  0  0
  161.7490  203.9310  149.6910 C   0  0  1  0  0  3  0  0  0  0  0  0
  161.5200  205.0480  147.4020 C   0  0  1  0  0  3  0  0  0  0  0  0
  160.9850  205.9730  145.0090 C   0  0  0  0  0  2  0  0  0  0  0  0
  161.3660  204.7670  144.1680 C   0  0  0  0  0  2  0  0  0  0  0  0
  160.1390  202.1750  146.6260 C   0  0  0  0  0  2  0  0  0  0  0  0
  160.9590  207.8990  151.0550 N   0  0  2  0  0  0  0  0  0  0  0  0
  161.2370  206.3850  148.0800 C   0  0  0  0  0  2  0  0  0  0  0  0
  161.2400  202.4930  147.6620 C   0  0  0  0  0  2  0  0  0  0  0  0
  162.0070  207.8930  150.0280 C   0  0  1  0  0  3  0  0  0  0  0  0
  160.4320  208.8070  153.2010 C   0  0  0  0  0  2  0  0  0  0  0  0
  161.0560  203.8830  148.3160 C   0  0  1  0  0  3  0  0  0  0  0  0
  160.3590  202.8180  145.2360 C   0  0  0  0  0  2  0  0  0  0  0  0
  161.6950  205.3380  150.2790 C   0  0  0  0  0  0  0  0  0  0  0  0
  160.7590  204.9470  146.0960 C   0  0  1  0  0  3  0  0  0  0  0  0
  162.0770  206.4920  149.3520 C   0  0  1  0  0  3  0  0  0  0  0  0
  161.5390  203.1190  152.0620 C   0  0  0  0  0  2  0  0  0  0  0  0
  161.1420  202.8680  150.6180 C   0  0  0  0  0  2  0  0  0  0  0  0
  160.8830  209.1570  151.7860 C   0  0  0  0  0  2  0  0  0  0  0  0
  160.9400  204.4470  152.4980 C   0  0  0  0  0  2  0  0  0  0  0  0
  161.4160  206.9800  152.0780 C   0  0  2  0  0  3  0  0  0  0  0  0
  161.8490  209.0310  149.0120 C   0  0  0  0  0  2  0  0  0  0  0  0
  162.2320  210.3690  149.6250 C   0  0  0  0  0  2  0  0  0  0  0  0
  162.4000  211.4160  148.5400 C   0  0  0  0  0  2  0  0  0  0  0  0
  161.4670  212.5750  148.8100 C   0  0  0  0  0  2  0  0  0  0  0  0
  161.6650  213.6410  147.7500 C   0  0  0  0  0  2  0  0  0  0  0  0
  162.6190  213.1530  146.6740 C   0  0  0  0  0  2  0  0  0  0  0  0
  162.4490  212.7040  143.0880 C   0  0  0  0  0  2  0  0  0  0  0  0
  160.9910  212.7640  144.9490 O   0  0  0  0  0  0  0  0  0  0  0  0
  162.1220  213.5250  145.2850 C   0  0  2  0  0  3  0  0  0  0  0  0
  161.0110  212.6750  143.5510 C   0  0  0  0  0  2  0  0  0  0  0  0
  163.2000  213.2420  144.2680 C   0  0  0  0  0  2  0  0  0  0  0  0
  1 23  1  0  0  0  0
  1 22  1  0  0  0  0
  3  7  1  6  0  0  0
  3 17  1  0  0  0  0
  4 16  1  0  0  0  0
  4 20  1  1  0  0  0
  5 10  1  1  0  0  0
  5 14  1  0  0  0  0
  7  6  1  0  0  0  0
  8 11  1  0  0  0  0
  9 21  1  1  0  0  0
  9 23  1  0  0  0  0
 12 24  1  6  0  0  0
 12  9  1  0  0  0  0
 13  2  1  0  0  0  0
 14 11  1  6  0  0  0
 14  4  1  0  0  0  0
 15  3  1  0  0  0  0
 15  8  1  0  0  0  0
 16  1  2  0  0  0  0
 17  6  1  6  0  0  0
 17  5  1  0  0  0  0
 18 10  1  6  0  0  0
 18 12  1  0  0  0  0
 18 16  1  0  0  0  0
 19 22  1  0  0  0  0
 20 19  1  0  0  0  0
 21 13  1  0  0  0  0
 23  2  1  1  0  0  0
 24 25  1  0  0  0  0
 26 27  1  0  0  0  0
 26 25  1  0  0  0  0
 28 27  1  0  0  0  0
 29 28  1  0  0  0  0
 30 33  1  0  0  0  0
 30 34  1  0  0  0  0
 31 32  1  0  0  0  0
 32 29  1  1  0  0  0
 33 31  1  0  0  0  0
 34 32  1  0  0  0  0
M  END
>  <MODEL>
4

>  <REMARK>
 VINA RESULT:      -8.3      1.471      2.606
  Name = 
  7 active torsions:
  status: ('A' for Active; 'I' for Inactive)
    1  A    between atoms: C_10  and  C_17
    2  A    between atoms: C_10  and  C_22
    3  A    between atoms: C_13  and  C_24
    4  A    between atoms: C_17  and  C_28
    5  A    between atoms: C_22  and  C_24
    6  A    between atoms: C_28  and  C_29
    7  A    between atoms: C_29  and  C_32
                            x       y       z     vdW  Elec       q    Type
                         _______ _______ _______ _____ _____    ______ ____

>  <TORSDO>
F 7

$$$$
=
 OpenBabel11122414333D

 34 40  0  0  1  0  0  0  0  0999 V2000
  161.2950  205.0580  151.7510 C   0  0  0  0  0  0  0  0  0  0  0  0
  160.5630  206.6220  153.6590 C   0  0  0  0  0  2  0  0  0  0  0  0
  161.3700  204.0190  145.3530 N   0  0  2  0  0  0  0  0  0  0  0  0
  161.6990  203.6210  149.7140 C   0  0  1  0  0  3  0  0  0  0  0  0
  161.5180  204.9690  147.5480 C   0  0  1  0  0  3  0  0  0  0  0  0
  161.0310  206.1410  145.2560 C   0  0  0  0  0  2  0  0  0  0  0  0
  161.4120  205.0230  144.3000 C   0  0  0  0  0  2  0  0  0  0  0  0
  160.1180  202.2090  146.4610 C   0  0  0  0  0  2  0  0  0  0  0  0
  160.9310  207.4370  151.4660 N   0  0  2  0  0  0  0  0  0  0  0  0
  161.2390  206.2330  148.3560 C   0  0  0  0  0  2  0  0  0  0  0  0
  161.2060  202.4040  147.5400 C   0  0  0  0  0  2  0  0  0  0  0  0
  161.9950  207.5240  150.4590 C   0  0  1  0  0  3  0  0  0  0  0  0
  160.3800  208.1270  153.6860 C   0  0  0  0  0  2  0  0  0  0  0  0
  161.0270  203.7220  148.3310 C   0  0  1  0  0  3  0  0  0  0  0  0
  160.3660  202.9880  145.1470 C   0  0  0  0  0  2  0  0  0  0  0  0
  161.6510  204.9600  150.4420 C   0  0  0  0  0  0  0  0  0  0  0  0
  160.7770  205.0120  146.2280 C   0  0  1  0  0  3  0  0  0  0  0  0
  162.0600  206.1980  149.6440 C   0  0  1  0  0  3  0  0  0  0  0  0
  161.4430  202.5720  151.9850 C   0  0  0  0  0  2  0  0  0  0  0  0
  161.0650  202.4750  150.5170 C   0  0  0  0  0  2  0  0  0  0  0  0
  160.8580  208.6140  152.3210 C   0  0  0  0  0  2  0  0  0  0  0  0
  160.8510  203.8560  152.5460 C   0  0  0  0  0  2  0  0  0  0  0  0
  161.3620  206.4130  152.3960 C   0  0  2  0  0  3  0  0  0  0  0  0
  161.8660  208.7620  149.5640 C   0  0  0  0  0  2  0  0  0  0  0  0
  162.4020  210.0010  150.2610 C   0  0  0  0  0  2  0  0  0  0  0  0
  161.8010  211.2520  149.6500 C   0  0  0  0  0  2  0  0  0  0  0  0
  162.3040  211.4110  148.2330 C   0  0  0  0  0  2  0  0  0  0  0  0
  162.4630  212.8850  147.9140 C   0  0  0  0  0  2  0  0  0  0  0  0
  161.1240  213.4960  147.5340 C   0  0  0  0  0  2  0  0  0  0  0  0
  158.2000  212.6120  145.5960 C   0  0  0  0  0  2  0  0  0  0  0  0
  160.5410  212.7920  145.3110 O   0  0  0  0  0  0  0  0  0  0  0  0
  160.3080  212.5430  146.6730 C   0  0  2  0  0  3  0  0  0  0  0  0
  159.3660  212.3950  144.6590 C   0  0  0  0  0  2  0  0  0  0  0  0
  158.8370  212.7480  146.9450 C   0  0  0  0  0  2  0  0  0  0  0  0
  1 23  1  0  0  0  0
  1 22  1  0  0  0  0
  2 13  1  0  0  0  0
  3  7  1  6  0  0  0
  3 17  1  0  0  0  0
  4 16  1  0  0  0  0
  4 20  1  1  0  0  0
  5 14  1  0  0  0  0
  5 10  1  1  0  0  0
  7  6  1  0  0  0  0
  8 11  1  0  0  0  0
  9 21  1  1  0  0  0
  9 23  1  0  0  0  0
 12 24  1  6  0  0  0
 12  9  1  0  0  0  0
 14 11  1  6  0  0  0
 14  4  1  0  0  0  0
 15  3  1  0  0  0  0
 15  8  1  0  0  0  0
 16  1  2  0  0  0  0
 17  6  1  6  0  0  0
 17  5  1  0  0  0  0
 18 10  1  6  0  0  0
 18 16  1  0  0  0  0
 18 12  1  0  0  0  0
 19 22  1  0  0  0  0
 20 19  1  0  0  0  0
 21 13  1  0  0  0  0
 23  2  1  1  0  0  0
 24 25  1  0  0  0  0
 26 25  1  0  0  0  0
 27 26  1  0  0  0  0
 28 27  1  0  0  0  0
 29 28  1  0  0  0  0
 30 34  1  0  0  0  0
 31 32  1  0  0  0  0
 32 34  1  0  0  0  0
 32 29  1  1  0  0  0
 33 31  1  0  0  0  0
 33 30  1  0  0  0  0
M  END
>  <MODEL>
5

>  <REMARK>
 VINA RESULT:      -7.9      1.684      3.095
  Name = 
  7 active torsions:
  status: ('A' for Active; 'I' for Inactive)
    1  A    between atoms: C_10  and  C_17
    2  A    between atoms: C_10  and  C_22
    3  A    between atoms: C_13  and  C_24
    4  A    between atoms: C_17  and  C_28
    5  A    between atoms: C_22  and  C_24
    6  A    between atoms: C_28  and  C_29
    7  A    between atoms: C_29  and  C_32
                            x       y       z     vdW  Elec       q    Type
                         _______ _______ _______ _____ _____    ______ ____

>  <TORSDO>
F 7

$$$$
=
 OpenBabel11122414333D

 34 40  0  0  1  0  0  0  0  0999 V2000
  161.3510  205.8260  151.6930 C   0  0  0  0  0  0  0  0  0  0  0  0
  160.6010  207.6180  153.3820 C   0  0  0  0  0  2  0  0  0  0  0  0
  161.4490  203.9670  145.4840 N   0  0  2  0  0  0  0  0  0  0  0  0
  161.7720  204.1410  149.8600 C   0  0  1  0  0  3  0  0  0  0  0  0
  161.5840  205.1960  147.5380 C   0  0  1  0  0  3  0  0  0  0  0  0
  161.0920  206.0560  145.1120 C   0  0  0  0  0  2  0  0  0  0  0  0
  161.4850  204.8270  144.3100 C   0  0  0  0  0  2  0  0  0  0  0  0
  160.2110  202.3040  146.8160 C   0  0  0  0  0  2  0  0  0  0  0  0
  160.9670  208.1450  151.1010 N   0  0  2  0  0  0  0  0  0  0  0  0
  161.2920  206.5500  148.1740 C   0  0  0  0  0  2  0  0  0  0  0  0
  161.2950  202.6480  147.8620 C   0  0  0  0  0  2  0  0  0  0  0  0
  162.0320  208.1100  150.0940 C   0  0  1  0  0  3  0  0  0  0  0  0
  160.4050  209.1120  153.2130 C   0  0  0  0  0  2  0  0  0  0  0  0
  161.1020  204.0560  148.4750 C   0  0  1  0  0  3  0  0  0  0  0  0
  160.4550  202.9090  145.4130 C   0  0  0  0  0  2  0  0  0  0  0  0
  161.7100  205.5630  150.4080 C   0  0  0  0  0  0  0  0  0  0  0  0
  160.8460  205.0600  146.2220 C   0  0  1  0  0  3  0  0  0  0  0  0
  162.1100  206.6900  149.4570 C   0  0  1  0  0  3  0  0  0  0  0  0
  161.5200  203.3930  152.2470 C   0  0  0  0  0  2  0  0  0  0  0  0
  161.1460  203.1030  150.8050 C   0  0  0  0  0  2  0  0  0  0  0  0
  160.8810  209.4220  151.7970 C   0  0  0  0  0  2  0  0  0  0  0  0
  160.9150  204.7330  152.6370 C   0  0  0  0  0  2  0  0  0  0  0  0
  161.4040  207.2540  152.1570 C   0  0  2  0  0  3  0  0  0  0  0  0
  161.8940  209.2200  149.0450 C   0  0  0  0  0  2  0  0  0  0  0  0
  162.2540  210.5760  149.6310 C   0  0  0  0  0  2  0  0  0  0  0  0
  162.5010  211.5800  148.5220 C   0  0  0  0  0  2  0  0  0  0  0  0
  161.2170  211.8140  147.7600 C   0  0  0  0  0  2  0  0  0  0  0  0
  160.7910  213.2610  147.9180 C   0  0  0  0  0  2  0  0  0  0  0  0
  160.1700  213.4880  149.2860 C   0  0  0  0  0  2  0  0  0  0  0  0
  156.8410  213.6600  147.8800 C   0  0  0  0  0  2  0  0  0  0  0  0
  157.8740  213.4130  149.9940 O   0  0  0  0  0  0  0  0  0  0  0  0
  158.7810  214.0960  149.1670 C   0  0  2  0  0  3  0  0  0  0  0  0
  156.6270  213.5650  149.3730 C   0  0  0  0  0  2  0  0  0  0  0  0
  158.2970  213.9830  147.7420 C   0  0  0  0  0  2  0  0  0  0  0  0
  1 23  1  0  0  0  0
  1 22  1  0  0  0  0
  3  7  1  6  0  0  0
  3 17  1  0  0  0  0
  4 16  1  0  0  0  0
  4 20  1  1  0  0  0
  5 10  1  1  0  0  0
  5 14  1  0  0  0  0
  7  6  1  0  0  0  0
  8 11  1  0  0  0  0
  9 21  1  1  0  0  0
  9 23  1  0  0  0  0
 12 24  1  6  0  0  0
 12  9  1  0  0  0  0
 13  2  1  0  0  0  0
 14 11  1  6  0  0  0
 14  4  1  0  0  0  0
 15  3  1  0  0  0  0
 15  8  1  0  0  0  0
 16  1  2  0  0  0  0
 17  6  1  6  0  0  0
 17  5  1  0  0  0  0
 18 10  1  6  0  0  0
 18 12  1  0  0  0  0
 18 16  1  0  0  0  0
 19 22  1  0  0  0  0
 20 19  1  0  0  0  0
 21 13  1  0  0  0  0
 23  2  1  1  0  0  0
 24 25  1  0  0  0  0
 26 25  1  0  0  0  0
 27 28  1  0  0  0  0
 27 26  1  0  0  0  0
 28 29  1  0  0  0  0
 30 33  1  0  0  0  0
 32 29  1  6  0  0  0
 32 31  1  0  0  0  0
 33 31  1  0  0  0  0
 34 30  1  0  0  0  0
 34 32  1  0  0  0  0
M  END
>  <MODEL>
6

>  <REMARK>
 VINA RESULT:      -7.6      2.460      3.580
  Name = 
  7 active torsions:
  status: ('A' for Active; 'I' for Inactive)
    1  A    between atoms: C_10  and  C_17
    2  A    between atoms: C_10  and  C_22
    3  A    between atoms: C_13  and  C_24
    4  A    between atoms: C_17  and  C_28
    5  A    between atoms: C_22  and  C_24
    6  A    between atoms: C_28  and  C_29
    7  A    between atoms: C_29  and  C_32
                            x       y       z     vdW  Elec       q    Type
                         _______ _______ _______ _____ _____    ______ ____

>  <TORSDO>
F 7

$$$$
=
 OpenBabel11122414333D

 34 40  0  0  1  0  0  0  0  0999 V2000
  161.6680  210.5980  149.6670 C   0  0  0  0  0  0  0  0  0  0  0  0
  162.2130  208.4560  148.3470 C   0  0  0  0  0  2  0  0  0  0  0  0
  158.0100  213.3100  154.2790 N   0  0  2  0  0  0  0  0  0  0  0  0
  160.7840  212.5820  150.9540 C   0  0  1  0  0  3  0  0  0  0  0  0
  159.4230  211.8610  152.9960 C   0  0  1  0  0  3  0  0  0  0  0  0
  157.7340  211.2720  154.9100 C   0  0  0  0  0  2  0  0  0  0  0  0
  157.4640  212.6620  155.4620 C   0  0  0  0  0  2  0  0  0  0  0  0
  157.5790  214.4330  152.1280 C   0  0  0  0  0  2  0  0  0  0  0  0
  161.2700  208.3630  150.5180 N   0  0  2  0  0  0  0  0  0  0  0  0
  159.6950  210.3970  152.6620 C   0  0  0  0  0  2  0  0  0  0  0  0
  159.0950  214.1990  151.9450 C   0  0  0  0  0  2  0  0  0  0  0  0
  161.5600  208.7880  151.8920 C   0  0  1  0  0  3  0  0  0  0  0  0
  162.1200  206.9980  148.7520 C   0  0  0  0  0  2  0  0  0  0  0  0
  159.4410  212.7110  151.6970 C   0  0  1  0  0  3  0  0  0  0  0  0
  157.0450  214.1110  153.5440 C   0  0  0  0  0  2  0  0  0  0  0  0
  161.2010  211.1200  150.8320 C   0  0  0  0  0  0  0  0  0  0  0  0
  158.0570  212.0120  153.6330 C   0  0  1  0  0  3  0  0  0  0  0  0
  161.1070  210.2650  152.0950 C   0  0  1  0  0  3  0  0  0  0  0  0
  161.8570  212.8970  148.7020 C   0  0  0  0  0  2  0  0  0  0  0  0
  160.7000  213.3000  149.5990 C   0  0  0  0  0  2  0  0  0  0  0  0
  161.7350  207.0140  150.2280 C   0  0  0  0  0  2  0  0  0  0  0  0
  161.7330  211.4120  148.3990 C   0  0  0  0  0  2  0  0  0  0  0  0
  162.1310  209.1680  149.6750 C   0  0  2  0  0  3  0  0  0  0  0  0
  160.9710  207.8400  152.9430 C   0  0  0  0  0  2  0  0  0  0  0  0
  161.9280  206.7000  153.2520 C   0  0  0  0  0  2  0  0  0  0  0  0
  161.1700  205.3910  153.3650 C   0  0  0  0  0  2  0  0  0  0  0  0
  161.6770  204.4230  152.3200 C   0  0  0  0  0  2  0  0  0  0  0  0
  160.6120  203.3830  152.0350 C   0  0  0  0  0  2  0  0  0  0  0  0
  161.1610  202.2910  151.1320 C   0  0  0  0  0  2  0  0  0  0  0  0
  161.2650  202.9420  147.5750 C   0  0  0  0  0  2  0  0  0  0  0  0
  160.7730  201.1580  149.0480 O   0  0  0  0  0  0  0  0  0  0  0  0
  160.5320  202.3510  149.7480 C   0  0  2  0  0  3  0  0  0  0  0  0
  160.7670  201.5200  147.6940 C   0  0  0  0  0  2  0  0  0  0  0  0
  161.1400  203.4890  148.9640 C   0  0  0  0  0  2  0  0  0  0  0  0
  1 23  1  0  0  0  0
  1 16  2  0  0  0  0
  2 13  1  0  0  0  0
  3 15  1  6  0  0  0
  3  7  1  0  0  0  0
  4 20  1  6  0  0  0
  4 14  1  0  0  0  0
  5 10  1  6  0  0  0
  5 17  1  0  0  0  0
  6  7  1  0  0  0  0
  8 15  1  0  0  0  0
  9 21  1  1  0  0  0
  9 12  1  0  0  0  0
 11  8  1  0  0  0  0
 12 18  1  0  0  0  0
 12 24  1  1  0  0  0
 13 21  1  0  0  0  0
 14 11  1  1  0  0  0
 14  5  1  0  0  0  0
 16  4  1  0  0  0  0
 16 18  1  0  0  0  0
 17  3  1  0  0  0  0
 17  6  1  1  0  0  0
 18 10  1  6  0  0  0
 19 20  1  0  0  0  0
 22 19  1  0  0  0  0
 22  1  1  0  0  0  0
 23  2  1  6  0  0  0
 23  9  1  0  0  0  0
 24 25  1  0  0  0  0
 25 26  1  0  0  0  0
 27 26  1  0  0  0  0
 28 27  1  0  0  0  0
 29 28  1  0  0  0  0
 30 33  1  0  0  0  0
 30 34  1  0  0  0  0
 31 32  1  0  0  0  0
 32 29  1  1  0  0  0
 33 31  1  0  0  0  0
 34 32  1  0  0  0  0
M  END
>  <MODEL>
7

>  <REMARK>
 VINA RESULT:      -7.2      3.235      8.726
  Name = 
  7 active torsions:
  status: ('A' for Active; 'I' for Inactive)
    1  A    between atoms: C_10  and  C_17
    2  A    between atoms: C_10  and  C_22
    3  A    between atoms: C_13  and  C_24
    4  A    between atoms: C_17  and  C_28
    5  A    between atoms: C_22  and  C_24
    6  A    between atoms: C_28  and  C_29
    7  A    between atoms: C_29  and  C_32
                            x       y       z     vdW  Elec       q    Type
                         _______ _______ _______ _____ _____    ______ ____

>  <TORSDO>
F 7

$$$$
=
 OpenBabel11122414333D

 34 40  0  0  1  0  0  0  0  0999 V2000
  159.5580  210.7820  154.9360 C   0  0  0  0  0  0  0  0  0  0  0  0
  160.3970  209.6260  157.0770 C   0  0  0  0  0  2  0  0  0  0  0  0
  160.8850  212.3980  148.8020 N   0  0  2  0  0  0  0  0  0  0  0  0
  159.0840  212.0220  152.7880 C   0  0  1  0  0  3  0  0  0  0  0  0
  160.6150  211.2530  150.8900 C   0  0  1  0  0  3  0  0  0  0  0  0
  162.3300  210.8110  148.9580 C   0  0  0  0  0  2  0  0  0  0  0  0
  161.7160  211.6630  147.8590 C   0  0  0  0  0  2  0  0  0  0  0  0
  160.5490  214.4450  150.1320 C   0  0  0  0  0  2  0  0  0  0  0  0
  161.2180  209.0160  154.9410 N   0  0  2  0  0  0  0  0  0  0  0  0
  161.2720  210.2440  151.8250 C   0  0  0  0  0  2  0  0  0  0  0  0
  159.4730  213.5700  150.8140 C   0  0  0  0  0  2  0  0  0  0  0  0
  160.7380  208.5020  153.6540 C   0  0  1  0  0  3  0  0  0  0  0  0
  161.3470  208.4580  157.2600 C   0  0  0  0  0  2  0  0  0  0  0  0
  160.0860  212.4640  151.7050 C   0  0  1  0  0  3  0  0  0  0  0  0
  161.1760  213.8210  148.8620 C   0  0  0  0  0  2  0  0  0  0  0  0
  159.6250  210.8350  153.5790 C   0  0  0  0  0  0  0  0  0  0  0  0
  161.6210  211.7730  149.8840 C   0  0  1  0  0  3  0  0  0  0  0  0
  160.2180  209.6790  152.7760 C   0  0  1  0  0  3  0  0  0  0  0  0
  158.0250  212.7580  154.9470 C   0  0  0  0  0  2  0  0  0  0  0  0
  158.7150  213.2200  153.6760 C   0  0  0  0  0  2  0  0  0  0  0  0
  161.6520  207.9640  155.8500 C   0  0  0  0  0  2  0  0  0  0  0  0
  159.0130  211.9280  155.7520 C   0  0  0  0  0  2  0  0  0  0  0  0
  160.0430  209.5320  155.6140 C   0  0  2  0  0  3  0  0  0  0  0  0
  161.7820  207.6430  152.9310 C   0  0  0  0  0  2  0  0  0  0  0  0
  161.1180  206.6340  152.0070 C   0  0  0  0  0  2  0  0  0  0  0  0
  161.9400  205.3620  151.9380 C   0  0  0  0  0  2  0  0  0  0  0  0
  161.0460  204.1700  152.1940 C   0  0  0  0  0  2  0  0  0  0  0  0
  160.4530  203.6910  150.8830 C   0  0  0  0  0  2  0  0  0  0  0  0
  161.5190  203.6430  149.8010 C   0  0  0  0  0  2  0  0  0  0  0  0
  161.4590  205.7960  146.8960 C   0  0  0  0  0  2  0  0  0  0  0  0
  161.6850  203.4980  147.4080 O   0  0  0  0  0  0  0  0  0  0  0  0
  160.9620  204.0870  148.4580 C   0  0  2  0  0  3  0  0  0  0  0  0
  161.5750  204.3970  146.3380 C   0  0  0  0  0  2  0  0  0  0  0  0
  161.0810  205.5860  148.3300 C   0  0  0  0  0  2  0  0  0  0  0  0
  1 23  1  0  0  0  0
  1 22  1  0  0  0  0
  2 13  1  0  0  0  0
  3  7  1  6  0  0  0
  3 15  1  0  0  0  0
  3 17  1  0  0  0  0
  4 16  1  0  0  0  0
  4 20  1  1  0  0  0
  5 14  1  0  0  0  0
  5 10  1  1  0  0  0
  7  6  1  0  0  0  0
  8 11  1  0  0  0  0
  9 23  1  0  0  0  0
  9 21  1  1  0  0  0
 12 24  1  6  0  0  0
 12  9  1  0  0  0  0
 14 11  1  6  0  0  0
 14  4  1  0  0  0  0
 15  8  1  0  0  0  0
 16  1  2  0  0  0  0
 17  6  1  6  0  0  0
 17  5  1  0  0  0  0
 18 10  1  1  0  0  0
 18 16  1  0  0  0  0
 18 12  1  0  0  0  0
 19 22  1  0  0  0  0
 20 19  1  0  0  0  0
 21 13  1  0  0  0  0
 23  2  1  1  0  0  0
 25 24  1  0  0  0  0
 26 25  1  0  0  0  0
 26 27  1  0  0  0  0
 28 27  1  0  0  0  0
 29 28  1  0  0  0  0
 30 34  1  0  0  0  0
 31 32  1  0  0  0  0
 32 29  1  1  0  0  0
 33 30  1  0  0  0  0
 33 31  1  0  0  0  0
 34 32  1  0  0  0  0
M  END
>  <MODEL>
8

>  <REMARK>
 VINA RESULT:      -7.1      3.061      7.262
  Name = 
  7 active torsions:
  status: ('A' for Active; 'I' for Inactive)
    1  A    between atoms: C_10  and  C_17
    2  A    between atoms: C_10  and  C_22
    3  A    between atoms: C_13  and  C_24
    4  A    between atoms: C_17  and  C_28
    5  A    between atoms: C_22  and  C_24
    6  A    between atoms: C_28  and  C_29
    7  A    between atoms: C_29  and  C_32
                            x       y       z     vdW  Elec       q    Type
                         _______ _______ _______ _____ _____    ______ ____

>  <TORSDO>
F 7

$$$$
=
 OpenBabel11122414333D

 34 40  0  0  1  0  0  0  0  0999 V2000
  161.2100  204.4360  149.4240 C   0  0  0  0  0  0  0  0  0  0  0  0
  162.2850  203.7690  147.1820 C   0  0  0  0  0  2  0  0  0  0  0  0
  160.7150  208.9640  154.0340 N   0  0  2  0  0  0  0  0  0  0  0  0
  160.4770  205.2550  151.6970 C   0  0  1  0  0  3  0  0  0  0  0  0
  160.8230  207.7760  151.9560 C   0  0  1  0  0  3  0  0  0  0  0  0
  161.4340  210.2690  152.4820 C   0  0  0  0  0  2  0  0  0  0  0  0
  160.8200  210.4060  153.8650 C   0  0  0  0  0  2  0  0  0  0  0  0
  161.6530  206.9050  155.0090 C   0  0  0  0  0  2  0  0  0  0  0  0
  161.9940  206.0410  147.7850 N   0  0  2  0  0  0  0  0  0  0  0  0
  161.3580  207.8510  150.5300 C   0  0  0  0  0  2  0  0  0  0  0  0
  160.6590  206.2420  154.0290 C   0  0  0  0  0  2  0  0  0  0  0  0
  160.9280  206.9860  148.1370 C   0  0  1  0  0  3  0  0  0  0  0  0
  162.7410  204.6210  146.0150 C   0  0  0  0  0  2  0  0  0  0  0  0
  161.1050  206.3710  152.5540 C   0  0  1  0  0  3  0  0  0  0  0  0
  161.5040  208.4400  155.1370 C   0  0  0  0  0  2  0  0  0  0  0  0
  160.7960  205.4580  150.2190 C   0  0  0  0  0  0  0  0  0  0  0  0
  161.5120  208.8010  152.8330 C   0  0  1  0  0  3  0  0  0  0  0  0
  160.5920  206.8630  149.6530 C   0  0  1  0  0  3  0  0  0  0  0  0
  160.6180  202.7920  151.2130 C   0  0  0  0  0  2  0  0  0  0  0  0
  160.9180  203.8820  152.2260 C   0  0  0  0  0  2  0  0  0  0  0  0
  162.3130  206.0430  146.3630 C   0  0  0  0  0  2  0  0  0  0  0  0
  161.4550  203.0510  149.9700 C   0  0  0  0  0  2  0  0  0  0  0  0
  161.4170  204.7240  147.9640 C   0  0  2  0  0  3  0  0  0  0  0  0
  161.2500  208.4260  147.7190 C   0  0  0  0  0  2  0  0  0  0  0  0
  162.1680  209.0970  148.7280 C   0  0  0  0  0  2  0  0  0  0  0  0
  162.4750  210.5180  148.2970 C   0  0  0  0  0  2  0  0  0  0  0  0
  161.6740  211.4840  149.1400 C   0  0  0  0  0  2  0  0  0  0  0  0
  161.4520  212.7680  148.3650 C   0  0  0  0  0  2  0  0  0  0  0  0
  162.5220  212.9410  147.3010 C   0  0  0  0  0  2  0  0  0  0  0  0
  162.0840  212.8470  143.7110 C   0  0  0  0  0  2  0  0  0  0  0  0
  160.7680  212.7240  145.6730 O   0  0  0  0  0  0  0  0  0  0  0  0
  161.9260  213.4480  145.9960 C   0  0  2  0  0  3  0  0  0  0  0  0
  160.6840  212.7740  144.2740 C   0  0  0  0  0  2  0  0  0  0  0  0
  162.9240  213.2660  144.8780 C   0  0  0  0  0  2  0  0  0  0  0  0
  1 22  1  0  0  0  0
  1 16  2  0  0  0  0
  3  7  1  1  0  0  0
  3 15  1  0  0  0  0
  4 20  1  1  0  0  0
  4 14  1  0  0  0  0
  5 10  1  6  0  0  0
  5 14  1  0  0  0  0
  5 17  1  0  0  0  0
  6  7  1  0  0  0  0
  8 15  1  0  0  0  0
  9 21  1  6  0  0  0
  9 23  1  0  0  0  0
  9 12  1  0  0  0  0
 11  8  1  0  0  0  0
 12 24  1  1  0  0  0
 12 18  1  0  0  0  0
 13 21  1  0  0  0  0
 13  2  1  0  0  0  0
 14 11  1  1  0  0  0
 16  4  1  0  0  0  0
 17  6  1  6  0  0  0
 17  3  1  0  0  0  0
 18 16  1  0  0  0  0
 18 10  1  1  0  0  0
 19 20  1  0  0  0  0
 22 19  1  0  0  0  0
 23  2  1  1  0  0  0
 23  1  1  0  0  0  0
 24 25  1  0  0  0  0
 26 25  1  0  0  0  0
 26 27  1  0  0  0  0
 28 27  1  0  0  0  0
 29 28  1  0  0  0  0
 30 33  1  0  0  0  0
 30 34  1  0  0  0  0
 31 32  1  0  0  0  0
 32 29  1  1  0  0  0
 33 31  1  0  0  0  0
 34 32  1  0  0  0  0
M  END
>  <MODEL>
9

>  <REMARK>
 VINA RESULT:      -7.1      1.394      5.182
  Name = 
  7 active torsions:
  status: ('A' for Active; 'I' for Inactive)
    1  A    between atoms: C_10  and  C_17
    2  A    between atoms: C_10  and  C_22
    3  A    between atoms: C_13  and  C_24
    4  A    between atoms: C_17  and  C_28
    5  A    between atoms: C_22  and  C_24
    6  A    between atoms: C_28  and  C_29
    7  A    between atoms: C_29  and  C_32
                            x       y       z     vdW  Elec       q    Type
                         _______ _______ _______ _____ _____    ______ ____

>  <TORSDO>
F 7

$$$$
