=
 OpenBabel11122414123D

 28 32  0  0  1  0  0  0  0  0999 V2000
  160.8720  211.0230  155.8640 C   0  0  2  0  0  3  0  0  0  0  0  0
  162.0970  208.7090  153.3770 O   0  0  0  0  0  0  0  0  0  0  0  0
  156.0820  214.1670  153.0910 O   0  0  0  0  0  0  0  0  0  0  0  0
  160.5290  208.2490  156.8210 C   0  0  0  0  0  2  0  0  0  0  0  0
  158.2120  213.4860  152.3180 N   0  0  0  0  0  0  0  0  0  0  0  0
  160.4810  212.4940  156.0730 C   0  0  0  0  0  2  0  0  0  0  0  0
  160.3650  208.1280  151.7230 O   0  0  0  0  0  0  0  0  0  0  0  0
  161.2160  209.2330  152.2790 S   0  0  0  0  0  0  0  0  0  0  0  0
  161.6530  211.1270  150.3110 C   0  0  0  0  0  0  0  0  0  0  0  0
  160.2090  210.5370  152.8600 C   0  0  0  0  0  0  0  0  0  0  0  0
  157.3950  211.4980  157.2310 O   0  0  0  0  0  0  0  0  0  0  0  0
  158.5660  211.8220  153.8270 C   0  0  1  0  0  3  0  0  0  0  0  0
  160.7220  211.9210  150.8580 C   0  0  0  0  0  3  0  0  0  0  0  0
  162.2470  209.9180  150.9900 C   0  0  0  0  0  2  0  0  0  0  0  0
  158.0640  212.4210  156.6980 C   0  0  0  0  0  0  0  0  0  0  0  0
  159.6850  210.1470  155.3790 C   0  0  2  0  0  3  0  0  0  0  0  0
  157.1060  213.4450  153.2200 C   0  0  0  0  0  0  0  0  0  0  0  0
  162.2340  211.5380  149.0060 C   0  0  0  0  0  1  0  0  0  0  0  0
  157.5510  213.1200  155.5660 N   0  0  0  0  0  2  0  0  0  0  0  0
  159.9740  208.6450  155.4620 C   0  0  0  0  0  2  0  0  0  0  0  0
  161.5000  210.4980  157.1610 C   0  0  0  0  0  2  0  0  0  0  0  0
  161.8150  209.0140  157.0750 C   0  0  0  0  0  2  0  0  0  0  0  0
  159.4450  212.7180  157.1840 C   0  0  0  0  0  2  0  0  0  0  0  0
  159.0490  212.4490  152.7940 C   0  0  1  0  0  3  0  0  0  0  0  0
  157.2870  212.4260  154.3130 C   0  0  2  0  0  3  0  0  0  0  0  0
  160.0660  211.6480  152.1460 C   0  0  0  0  0  0  0  0  0  0  0  0
  158.1720  213.9950  150.9570 C   0  0  0  0  0  1  0  0  0  0  0  0
  159.1680  210.4630  153.9610 C   0  0  2  0  0  3  0  0  0  0  0  0
  1  6  1  1  0  0  0
  1 21  1  0  0  0  0
  3 17  2  0  0  0  0
  4 22  1  0  0  0  0
  5 24  1  0  0  0  0
  5 17  1  0  0  0  0
  6 23  1  0  0  0  0
  7  8  2  0  0  0  0
  8 10  1  0  0  0  0
  8  2  2  0  0  0  0
  9 13  2  0  0  0  0
  9 14  1  0  0  0  0
 10 28  1  0  0  0  0
 12 28  1  0  0  0  0
 12 25  1  0  0  0  0
 13 26  1  0  0  0  0
 14  8  1  0  0  0  0
 15 23  1  0  0  0  0
 15 11  2  0  0  0  0
 16 20  1  0  0  0  0
 16  1  1  0  0  0  0
 17 25  1  0  0  0  0
 18  9  1  0  0  0  0
 19 15  1  0  0  0  0
 20  4  1  0  0  0  0
 22 21  1  0  0  0  0
 24 12  1  0  0  0  0
 25 19  1  0  0  0  0
 26 24  1  0  0  0  0
 26 10  2  0  0  0  0
 27  5  1  0  0  0  0
 28 16  1  0  0  0  0
M  END
>  <MODEL>
1

>  <REMARK>
 VINA RESULT:      -4.6      0.000      0.000
  Name = 
  0 active torsions:
  status: ('A' for Active; 'I' for Inactive)
                            x       y       z     vdW  Elec       q    Type
                         _______ _______ _______ _____ _____    ______ ____

>  <TORSDO>
F 0

$$$$
=
 OpenBabel11122414123D

 28 32  0  0  1  0  0  0  0  0999 V2000
  160.5210  206.1980  150.9870 C   0  0  2  0  0  3  0  0  0  0  0  0
  160.6070  206.3240  154.5950 O   0  0  0  0  0  0  0  0  0  0  0  0
  162.2710  211.9900  149.0110 O   0  0  0  0  0  0  0  0  0  0  0  0
  162.5080  204.2660  152.0110 C   0  0  0  0  0  2  0  0  0  0  0  0
  160.8640  211.2530  150.7630 N   0  0  0  0  0  0  0  0  0  0  0  0
  160.0060  206.9530  149.7530 C   0  0  0  0  0  2  0  0  0  0  0  0
  162.1670  208.0440  155.4220 O   0  0  0  0  0  0  0  0  0  0  0  0
  160.8970  207.7970  154.6580 S   0  0  0  0  0  0  0  0  0  0  0  0
  159.2370  209.9950  154.9110 C   0  0  0  0  0  0  0  0  0  0  0  0
  161.0170  208.4750  153.0530 C   0  0  0  0  0  0  0  0  0  0  0  0
  163.2000  207.0060  148.4670 O   0  0  0  0  0  0  0  0  0  0  0  0
  161.7030  209.1490  150.9640 C   0  0  1  0  0  3  0  0  0  0  0  0
  159.5870  210.4090  153.6850 C   0  0  0  0  0  3  0  0  0  0  0  0
  159.5300  208.6210  155.4610 C   0  0  0  0  0  2  0  0  0  0  0  0
  162.0680  207.5550  148.4780 C   0  0  0  0  0  0  0  0  0  0  0  0
  161.9360  206.6600  151.4310 C   0  0  2  0  0  3  0  0  0  0  0  0
  161.8770  211.0680  149.7740 C   0  0  0  0  0  0  0  0  0  0  0  0
  158.3900  210.8980  155.7330 C   0  0  0  0  0  1  0  0  0  0  0  0
  161.9560  208.9720  148.5890 N   0  0  0  0  0  2  0  0  0  0  0  0
  162.5820  205.7190  152.4530 C   0  0  0  0  0  2  0  0  0  0  0  0
  160.4560  204.6930  150.6980 C   0  0  0  0  0  2  0  0  0  0  0  0
  161.0530  203.8740  151.8310 C   0  0  0  0  0  2  0  0  0  0  0  0
  160.8320  206.7160  148.4800 C   0  0  0  0  0  2  0  0  0  0  0  0
  160.8390  210.0040  151.4290 C   0  0  1  0  0  3  0  0  0  0  0  0
  162.4380  209.6720  149.7720 C   0  0  2  0  0  3  0  0  0  0  0  0
  160.4130  209.6210  152.7580 C   0  0  0  0  0  0  0  0  0  0  0  0
  160.4560  212.5290  151.3260 C   0  0  0  0  0  1  0  0  0  0  0  0
  162.0190  208.0990  151.9770 C   0  0  2  0  0  3  0  0  0  0  0  0
  1  6  1  6  0  0  0
  1 16  1  0  0  0  0
  2  8  2  0  0  0  0
  3 17  2  0  0  0  0
  4 20  1  0  0  0  0
  5 27  1  0  0  0  0
  5 24  1  0  0  0  0
  8  7  2  0  0  0  0
  8 14  1  0  0  0  0
  9 14  1  0  0  0  0
  9 18  1  0  0  0  0
 10  8  1  0  0  0  0
 11 15  2  0  0  0  0
 12 24  1  0  0  0  0
 12 28  1  0  0  0  0
 13  9  2  0  0  0  0
 15 23  1  0  0  0  0
 15 19  1  0  0  0  0
 16 28  1  0  0  0  0
 16 20  1  0  0  0  0
 17  5  1  0  0  0  0
 19 25  1  0  0  0  0
 21  1  1  0  0  0  0
 21 22  1  0  0  0  0
 22  4  1  0  0  0  0
 23  6  1  0  0  0  0
 24 26  1  0  0  0  0
 25 17  1  0  0  0  0
 25 12  1  0  0  0  0
 26 10  2  0  0  0  0
 26 13  1  0  0  0  0
 28 10  1  0  0  0  0
M  END
>  <MODEL>
2

>  <REMARK>
 VINA RESULT:      -4.5      3.503      6.519
  Name = 
  0 active torsions:
  status: ('A' for Active; 'I' for Inactive)
                            x       y       z     vdW  Elec       q    Type
                         _______ _______ _______ _____ _____    ______ ____

>  <TORSDO>
F 0

$$$$
=
 OpenBabel11122414123D

 28 32  0  0  1  0  0  0  0  0999 V2000
  161.7610  209.5540  155.7010 C   0  0  2  0  0  3  0  0  0  0  0  0
  161.9620  206.5760  153.6690 O   0  0  0  0  0  0  0  0  0  0  0  0
  158.3690  213.7380  152.3090 O   0  0  0  0  0  0  0  0  0  0  0  0
  160.4560  207.3000  157.0950 C   0  0  0  0  0  2  0  0  0  0  0  0
  160.0710  212.2040  151.7210 N   0  0  0  0  0  0  0  0  0  0  0  0
  161.9460  211.0780  155.6530 C   0  0  0  0  0  2  0  0  0  0  0  0
  160.0810  206.4100  152.0850 O   0  0  0  0  0  0  0  0  0  0  0  0
  161.2980  207.1990  152.4750 S   0  0  0  0  0  0  0  0  0  0  0  0
  162.3310  208.4480  150.2320 C   0  0  0  0  0  0  0  0  0  0  0  0
  160.8620  208.8590  152.8020 C   0  0  0  0  0  0  0  0  0  0  0  0
  158.7520  211.4940  156.8710 O   0  0  0  0  0  0  0  0  0  0  0  0
  159.8410  210.7990  153.4950 C   0  0  1  0  0  3  0  0  0  0  0  0
  161.7770  209.6070  150.6140 C   0  0  0  0  0  3  0  0  0  0  0  0
  162.4630  207.2340  151.1200 C   0  0  0  0  0  2  0  0  0  0  0  0
  159.6950  212.0040  156.2120 C   0  0  0  0  0  0  0  0  0  0  0  0
  160.3190  209.1090  155.3350 C   0  0  2  0  0  3  0  0  0  0  0  0
  159.0590  212.7210  152.5860 C   0  0  0  0  0  0  0  0  0  0  0  0
  162.9770  208.3940  148.8950 C   0  0  0  0  0  1  0  0  0  0  0  0
  159.4360  212.6460  154.9650 N   0  0  0  0  0  2  0  0  0  0  0  0
  160.0380  207.6420  155.6740 C   0  0  0  0  0  2  0  0  0  0  0  0
  162.1970  209.0560  157.0850 C   0  0  0  0  0  2  0  0  0  0  0  0
  161.9410  207.5680  157.2550 C   0  0  0  0  0  2  0  0  0  0  0  0
  161.1040  211.8480  156.6810 C   0  0  0  0  0  2  0  0  0  0  0  0
  160.4840  211.0250  152.3860 C   0  0  1  0  0  3  0  0  0  0  0  0
  158.8920  211.9020  153.8370 C   0  0  2  0  0  3  0  0  0  0  0  0
  161.1120  209.8110  151.9100 C   0  0  0  0  0  0  0  0  0  0  0  0
  160.1730  212.4590  150.2940 C   0  0  0  0  0  1  0  0  0  0  0  0
  159.9050  209.3560  153.8690 C   0  0  2  0  0  3  0  0  0  0  0  0
  1  6  1  1  0  0  0
  1 21  1  0  0  0  0
  3 17  2  0  0  0  0
  4 22  1  0  0  0  0
  5 24  1  0  0  0  0
  5 17  1  0  0  0  0
  6 23  1  0  0  0  0
  7  8  2  0  0  0  0
  8 10  1  0  0  0  0
  8  2  2  0  0  0  0
  9 13  2  0  0  0  0
  9 14  1  0  0  0  0
 10 28  1  0  0  0  0
 12 25  1  0  0  0  0
 12 28  1  0  0  0  0
 13 26  1  0  0  0  0
 14  8  1  0  0  0  0
 15 23  1  0  0  0  0
 15 11  2  0  0  0  0
 16 20  1  0  0  0  0
 16  1  1  0  0  0  0
 17 25  1  0  0  0  0
 18  9  1  0  0  0  0
 19 15  1  0  0  0  0
 20  4  1  0  0  0  0
 21 22  1  0  0  0  0
 24 12  1  0  0  0  0
 25 19  1  0  0  0  0
 26 24  1  0  0  0  0
 26 10  2  0  0  0  0
 27  5  1  0  0  0  0
 28 16  1  0  0  0  0
M  END
>  <MODEL>
3

>  <REMARK>
 VINA RESULT:      -4.2      1.545      2.027
  Name = 
  0 active torsions:
  status: ('A' for Active; 'I' for Inactive)
                            x       y       z     vdW  Elec       q    Type
                         _______ _______ _______ _____ _____    ______ ____

>  <TORSDO>
F 0

$$$$
=
 OpenBabel11122414123D

 28 32  0  0  1  0  0  0  0  0999 V2000
  160.2980  209.3580  154.4080 C   0  0  2  0  0  3  0  0  0  0  0  0
  159.0660  211.1980  157.2610 O   0  0  0  0  0  0  0  0  0  0  0  0
  160.0140  213.3930  149.4930 O   0  0  0  0  0  0  0  0  0  0  0  0
  162.4210  209.5810  156.4490 C   0  0  0  0  0  2  0  0  0  0  0  0
  158.5370  212.9450  151.2850 N   0  0  0  0  0  0  0  0  0  0  0  0
  159.9760  209.0190  152.9450 C   0  0  0  0  0  2  0  0  0  0  0  0
  159.3640  213.6300  156.9900 O   0  0  0  0  0  0  0  0  0  0  0  0
  158.6690  212.4070  156.4630 S   0  0  0  0  0  0  0  0  0  0  0  0
  156.2640  213.1490  155.3130 C   0  0  0  0  0  0  0  0  0  0  0  0
  159.0400  212.1840  154.7700 C   0  0  0  0  0  0  0  0  0  0  0  0
  163.0770  210.1830  152.0050 O   0  0  0  0  0  0  0  0  0  0  0  0
  160.0560  212.0360  152.7120 C   0  0  1  0  0  3  0  0  0  0  0  0
  156.8090  213.0480  154.0930 C   0  0  0  0  0  3  0  0  0  0  0  0
  156.8980  212.6150  156.5750 C   0  0  0  0  0  2  0  0  0  0  0  0
  161.8940  209.9530  151.6460 C   0  0  0  0  0  0  0  0  0  0  0  0
  161.1370  210.6570  154.5560 C   0  0  2  0  0  3  0  0  0  0  0  0
  159.8070  212.9000  150.6340 C   0  0  0  0  0  0  0  0  0  0  0  0
  154.8900  213.7040  155.4160 C   0  0  0  0  0  1  0  0  0  0  0  0
  161.1650  210.9280  150.9020 N   0  0  0  0  0  2  0  0  0  0  0  0
  161.7190  210.8390  155.9610 C   0  0  0  0  0  2  0  0  0  0  0  0
  160.9770  208.1420  155.0510 C   0  0  0  0  0  2  0  0  0  0  0  0
  161.4290  208.4340  156.4720 C   0  0  0  0  0  2  0  0  0  0  0  0
  161.2100  208.7010  152.0860 C   0  0  0  0  0  2  0  0  0  0  0  0
  158.8100  212.3800  152.5530 C   0  0  1  0  0  3  0  0  0  0  0  0
  160.8650  212.2350  151.4710 C   0  0  2  0  0  3  0  0  0  0  0  0
  158.1540  212.5110  153.8360 C   0  0  0  0  0  0  0  0  0  0  0  0
  157.4630  213.8750  150.9780 C   0  0  0  0  0  1  0  0  0  0  0  0
  160.4110  211.9590  154.1600 C   0  0  2  0  0  3  0  0  0  0  0  0
  1  6  1  6  0  0  0
  1 16  1  0  0  0  0
  1 21  1  0  0  0  0
  3 17  2  0  0  0  0
  4 22  1  0  0  0  0
  5 24  1  0  0  0  0
  8 14  1  0  0  0  0
  8  7  2  0  0  0  0
  8  2  2  0  0  0  0
  9 18  1  0  0  0  0
  9 14  1  0  0  0  0
 10  8  1  0  0  0  0
 12 28  1  0  0  0  0
 13  9  2  0  0  0  0
 15 11  2  0  0  0  0
 15 23  1  0  0  0  0
 16 20  1  0  0  0  0
 17  5  1  0  0  0  0
 17 25  1  0  0  0  0
 19 25  1  0  0  0  0
 19 15  1  0  0  0  0
 20  4  1  0  0  0  0
 21 22  1  0  0  0  0
 23  6  1  0  0  0  0
 24 12  1  0  0  0  0
 24 26  1  0  0  0  0
 25 12  1  0  0  0  0
 26 13  1  0  0  0  0
 26 10  2  0  0  0  0
 27  5  1  0  0  0  0
 28 16  1  0  0  0  0
 28 10  1  0  0  0  0
M  END
>  <MODEL>
4

>  <REMARK>
 VINA RESULT:      -3.8      2.243      5.042
  Name = 
  0 active torsions:
  status: ('A' for Active; 'I' for Inactive)
                            x       y       z     vdW  Elec       q    Type
                         _______ _______ _______ _____ _____    ______ ____

>  <TORSDO>
F 0

$$$$
=
 OpenBabel11122414123D

 28 32  0  0  1  0  0  0  0  0999 V2000
  158.5740  212.2500  151.4450 C   0  0  2  0  0  3  0  0  0  0  0  0
  161.0740  210.9010  149.2160 O   0  0  0  0  0  0  0  0  0  0  0  0
  160.1490  210.1990  157.2610 O   0  0  0  0  0  0  0  0  0  0  0  0
  160.0530  214.4530  150.1470 C   0  0  0  0  0  2  0  0  0  0  0  0
  160.1360  209.1500  155.1410 N   0  0  0  0  0  0  0  0  0  0  0  0
  157.6190  211.8630  152.5840 C   0  0  0  0  0  2  0  0  0  0  0  0
  163.1980  210.4430  150.3810 O   0  0  0  0  0  0  0  0  0  0  0  0
  161.7460  210.0730  150.2750 S   0  0  0  0  0  0  0  0  0  0  0  0
  161.4180  207.4340  151.0360 C   0  0  0  0  0  0  0  0  0  0  0  0
  160.9560  210.2810  151.8200 C   0  0  0  0  0  0  0  0  0  0  0  0
  158.9670  214.3500  154.5470 O   0  0  0  0  0  0  0  0  0  0  0  0
  160.2310  211.0320  153.8680 C   0  0  1  0  0  3  0  0  0  0  0  0
  160.9630  207.8280  152.2340 C   0  0  0  0  0  3  0  0  0  0  0  0
  161.5840  208.3460  149.8460 C   0  0  0  0  0  2  0  0  0  0  0  0
  158.3580  213.2490  154.5250 C   0  0  0  0  0  0  0  0  0  0  0  0
  159.9750  212.6870  151.9540 C   0  0  2  0  0  3  0  0  0  0  0  0
  160.1190  210.2870  156.0040 C   0  0  0  0  0  0  0  0  0  0  0  0
  161.6490  205.9810  150.8260 C   0  0  0  0  0  1  0  0  0  0  0  0
  158.7700  212.1820  155.3770 N   0  0  0  0  0  2  0  0  0  0  0  0
  160.8240  213.3610  150.8720 C   0  0  0  0  0  2  0  0  0  0  0  0
  157.8960  213.3280  150.5880 C   0  0  0  0  0  2  0  0  0  0  0  0
  158.8210  213.8480  149.5010 C   0  0  0  0  0  2  0  0  0  0  0  0
  157.2670  213.0190  153.5320 C   0  0  0  0  0  2  0  0  0  0  0  0
  160.1980  209.7310  153.8520 C   0  0  1  0  0  3  0  0  0  0  0  0
  160.0930  211.5880  155.2490 C   0  0  2  0  0  3  0  0  0  0  0  0
  160.6800  209.2290  152.5830 C   0  0  0  0  0  0  0  0  0  0  0  0
  160.6050  207.8230  155.5020 C   0  0  0  0  0  1  0  0  0  0  0  0
  160.8160  211.5710  152.6050 C   0  0  2  0  0  3  0  0  0  0  0  0
  1 21  1  1  0  0  0
  1 16  1  0  0  0  0
  1  6  1  0  0  0  0
  2  8  2  0  0  0  0
  4 20  1  0  0  0  0
  5 27  1  0  0  0  0
  5 17  1  0  0  0  0
  6 23  1  0  0  0  0
  8  7  2  0  0  0  0
  8 10  1  0  0  0  0
  9 13  2  0  0  0  0
 10 26  2  0  0  0  0
 10 28  1  0  0  0  0
 12 25  1  0  0  0  0
 13 26  1  0  0  0  0
 14  8  1  0  0  0  0
 14  9  1  0  0  0  0
 15 11  2  0  0  0  0
 15 19  1  0  0  0  0
 16 28  1  0  0  0  0
 17  3  2  0  0  0  0
 18  9  1  0  0  0  0
 20 16  1  0  0  0  0
 22  4  1  0  0  0  0
 22 21  1  0  0  0  0
 23 15  1  0  0  0  0
 24 12  1  0  0  0  0
 24  5  1  0  0  0  0
 25 19  1  0  0  0  0
 25 17  1  0  0  0  0
 26 24  1  0  0  0  0
 28 12  1  0  0  0  0
M  END
>  <MODEL>
5

>  <REMARK>
 VINA RESULT:      -2.8      2.235      5.049
  Name = 
  0 active torsions:
  status: ('A' for Active; 'I' for Inactive)
                            x       y       z     vdW  Elec       q    Type
                         _______ _______ _______ _____ _____    ______ ____

>  <TORSDO>
F 0

$$$$
=
 OpenBabel11122414123D

 28 32  0  0  1  0  0  0  0  0999 V2000
  162.5330  205.5000  150.6540 C   0  0  2  0  0  3  0  0  0  0  0  0
  161.1040  202.2910  151.4900 O   0  0  0  0  0  0  0  0  0  0  0  0
  160.4160  206.8690  144.8100 O   0  0  0  0  0  0  0  0  0  0  0  0
  160.7810  205.7680  153.0170 C   0  0  0  0  0  2  0  0  0  0  0  0
  161.2060  204.8720  145.8000 N   0  0  0  0  0  0  0  0  0  0  0  0
  163.2870  206.2470  149.5440 C   0  0  0  0  0  2  0  0  0  0  0  0
  159.0160  201.8600  150.2530 O   0  0  0  0  0  0  0  0  0  0  0  0
  160.4980  202.0710  150.1330 S   0  0  0  0  0  0  0  0  0  0  0  0
  161.4290  200.7460  147.8900 C   0  0  0  0  0  0  0  0  0  0  0  0
  160.8310  203.4230  149.0780 C   0  0  0  0  0  0  0  0  0  0  0  0
  160.8590  208.6880  149.5510 O   0  0  0  0  0  0  0  0  0  0  0  0
  160.8310  205.4380  147.9700 C   0  0  1  0  0  3  0  0  0  0  0  0
  161.4720  201.9040  147.2150 C   0  0  0  0  0  3  0  0  0  0  0  0
  161.2610  200.6380  149.3850 C   0  0  0  0  0  2  0  0  0  0  0  0
  161.7600  208.1110  148.8890 C   0  0  0  0  0  0  0  0  0  0  0  0
  160.9900  205.5940  150.5040 C   0  0  2  0  0  3  0  0  0  0  0  0
  160.6920  206.2030  145.8430 C   0  0  0  0  0  0  0  0  0  0  0  0
  161.6970  199.4940  147.1360 C   0  0  0  0  0  1  0  0  0  0  0  0
  161.5120  207.6950  147.5480 N   0  0  0  0  0  2  0  0  0  0  0  0
  160.2360  205.1250  151.7520 C   0  0  0  0  0  2  0  0  0  0  0  0
  163.0260  206.0200  152.0110 C   0  0  0  0  0  2  0  0  0  0  0  0
  162.2480  205.4100  153.1650 C   0  0  0  0  0  2  0  0  0  0  0  0
  163.0590  207.7660  149.5400 C   0  0  0  0  0  2  0  0  0  0  0  0
  161.2560  204.5060  147.1660 C   0  0  1  0  0  3  0  0  0  0  0  0
  160.4900  206.7020  147.2480 C   0  0  2  0  0  3  0  0  0  0  0  0
  161.2370  203.2200  147.8290 C   0  0  0  0  0  0  0  0  0  0  0  0
  161.0910  203.9580  144.6760 C   0  0  0  0  0  1  0  0  0  0  0  0
  160.4020  204.8640  149.2790 C   0  0  2  0  0  3  0  0  0  0  0  0
  1  6  1  6  0  0  0
  1 21  1  0  0  0  0
  3 17  2  0  0  0  0
  4 22  1  0  0  0  0
  5 17  1  0  0  0  0
  5 24  1  0  0  0  0
  8  7  2  0  0  0  0
  8  2  2  0  0  0  0
  9 14  1  0  0  0  0
 10 28  1  0  0  0  0
 10  8  1  0  0  0  0
 12 28  1  0  0  0  0
 13 26  1  0  0  0  0
 13  9  2  0  0  0  0
 14  8  1  0  0  0  0
 15 23  1  0  0  0  0
 15 11  2  0  0  0  0
 16  1  1  0  0  0  0
 16 20  1  0  0  0  0
 17 25  1  0  0  0  0
 18  9  1  0  0  0  0
 19 15  1  0  0  0  0
 20  4  1  0  0  0  0
 21 22  1  0  0  0  0
 23  6  1  0  0  0  0
 24 26  1  0  0  0  0
 24 12  1  0  0  0  0
 25 19  1  0  0  0  0
 25 12  1  0  0  0  0
 26 10  2  0  0  0  0
 27  5  1  0  0  0  0
 28 16  1  0  0  0  0
M  END
>  <MODEL>
6

>  <REMARK>
 VINA RESULT:      -2.0      6.752      9.119
  Name = 
  0 active torsions:
  status: ('A' for Active; 'I' for Inactive)
                            x       y       z     vdW  Elec       q    Type
                         _______ _______ _______ _____ _____    ______ ____

>  <TORSDO>
F 0

$$$$
