=
 OpenBabel11122412323D

 30 35  0  0  1  0  0  0  0  0999 V2000
  161.2440  208.2540  150.1680 C   0  0  1  0  0  3  0  0  0  0  0  0
  161.1610  206.1920  148.6500 C   0  0  0  0  0  0  0  0  0  0  0  0
  161.1430  205.6540  153.6510 C   0  0  0  0  0  2  0  0  0  0  0  0
  161.5250  208.7100  151.6220 C   0  0  1  0  0  3  0  0  0  0  0  0
  162.1600  209.0490  149.2530 C   0  0  0  0  0  2  0  0  0  0  0  0
  161.1860  212.2510  150.7380 O   0  0  0  0  0  0  0  0  0  0  0  0
  159.8660  210.4050  153.8250 C   0  0  1  0  0  3  0  0  0  0  0  0
  161.4140  211.0140  150.6340 C   0  0  0  0  0  0  0  0  0  0  0  0
  159.8960  209.0760  154.5760 C   0  0  2  0  0  3  0  0  0  0  0  0
  160.9080  206.7700  154.6000 C   0  0  0  0  0  0  0  0  0  0  0  0
  161.8350  210.4660  149.3690 N   0  0  0  0  0  0  0  0  0  0  0  0
  161.2270  210.1450  151.7710 N   0  0  0  0  0  0  0  0  0  0  0  0
  161.1330  204.8040  148.4740 C   0  0  0  0  0  3  0  0  0  0  0  0
  160.3110  209.4300  155.9880 C   0  0  0  0  0  2  0  0  0  0  0  0
  159.5640  211.4600  154.8770 C   0  0  0  0  0  2  0  0  0  0  0  0
  161.0360  207.0100  147.5350 O   0  0  0  0  0  1  0  0  0  0  0  0
  161.4960  206.4520  152.4180 C   0  0  2  0  0  3  0  0  0  0  0  0
  161.2180  203.9490  149.5740 C   0  0  0  0  0  3  0  0  0  0  0  0
  161.3010  206.7400  149.9430 C   0  0  0  0  0  0  0  0  0  0  0  0
  160.7510  207.7680  152.5440 C   0  0  1  0  0  3  0  0  0  0  0  0
  160.7930  206.5910  155.8410 O   0  0  0  0  0  0  0  0  0  0  0  0
  160.7600  208.0520  153.9750 N   0  0  0  0  0  0  0  0  0  0  0  0
  159.7160  210.7980  156.2380 C   0  0  0  0  0  2  0  0  0  0  0  0
  162.4470  210.6100  153.8770 C   0  0  0  0  0  1  0  0  0  0  0  0
  161.3150  204.4740  150.8620 C   0  0  0  0  0  3  0  0  0  0  0  0
  161.3220  205.8610  151.0550 C   0  0  0  0  0  0  0  0  0  0  0  0
  161.1530  210.7780  153.0860 C   0  0  2  0  0  3  0  0  0  0  0  0
  161.8170  211.2680  148.1530 C   0  0  0  0  0  2  0  0  0  0  0  0
  162.6380  213.4900  147.9480 O   0  0  0  0  0  1  0  0  0  0  0  0
  163.0410  212.1640  148.0980 C   0  0  0  0  0  2  0  0  0  0  0  0
  1  5  1  6  0  0  0
  1  4  1  0  0  0  0
  2 19  1  0  0  0  0
  3 10  1  0  0  0  0
  4 12  1  6  0  0  0
  4 20  1  0  0  0  0
  5 11  1  0  0  0  0
  7  9  1  0  0  0  0
  7 15  1  1  0  0  0
  8  6  2  0  0  0  0
  8 12  1  0  0  0  0
  9 14  1  1  0  0  0
 10 21  2  0  0  0  0
 11  8  1  0  0  0  0
 12 27  1  0  0  0  0
 13  2  2  0  0  0  0
 13 18  1  0  0  0  0
 14 23  1  0  0  0  0
 15 23  1  0  0  0  0
 16  2  1  0  0  0  0
 17 20  1  0  0  0  0
 17  3  1  1  0  0  0
 18 25  2  0  0  0  0
 19  1  1  0  0  0  0
 19 26  2  0  0  0  0
 20 22  1  1  0  0  0
 22  9  1  0  0  0  0
 22 10  1  0  0  0  0
 25 26  1  0  0  0  0
 26 17  1  0  0  0  0
 27  7  1  0  0  0  0
 27 24  1  1  0  0  0
 28 11  1  0  0  0  0
 29 30  1  0  0  0  0
 30 28  1  0  0  0  0
M  END
>  <MODEL>
1

>  <REMARK>
 VINA RESULT:      -8.1      0.000      0.000
  Name = 
  2 active torsions:
  status: ('A' for Active; 'I' for Inactive)
    1  A    between atoms: N_11  and  C_28
    2  A    between atoms: C_28  and  C_30
                            x       y       z     vdW  Elec       q    Type
                         _______ _______ _______ _____ _____    ______ ____

>  <TORSDO>
F 2

$$$$
=
 OpenBabel11122412323D

 30 35  0  0  1  0  0  0  0  0999 V2000
  161.2650  206.1320  150.0560 C   0  0  1  0  0  3  0  0  0  0  0  0
  160.8820  203.6030  149.9150 C   0  0  0  0  0  0  0  0  0  0  0  0
  161.2110  205.8650  154.3960 C   0  0  0  0  0  2  0  0  0  0  0  0
  161.6980  207.2660  151.0180 C   0  0  1  0  0  3  0  0  0  0  0  0
  162.1720  206.1920  148.8390 C   0  0  0  0  0  2  0  0  0  0  0  0
  161.6030  209.7760  148.3490 O   0  0  0  0  0  0  0  0  0  0  0  0
  160.3730  210.0640  151.9670 C   0  0  1  0  0  3  0  0  0  0  0  0
  161.7130  208.6620  148.9340 C   0  0  0  0  0  0  0  0  0  0  0  0
  160.3450  209.3600  153.3210 C   0  0  2  0  0  3  0  0  0  0  0  0
  161.1500  207.3350  154.5830 C   0  0  0  0  0  0  0  0  0  0  0  0
  161.9830  207.4730  148.1670 N   0  0  0  0  0  0  0  0  0  0  0  0
  161.5400  208.5770  150.3640 N   0  0  0  0  0  0  0  0  0  0  0  0
  160.7190  202.3550  150.5260 C   0  0  0  0  0  3  0  0  0  0  0  0
  160.9000  210.3710  154.3020 C   0  0  0  0  0  2  0  0  0  0  0  0
  160.2490  211.5470  152.2750 C   0  0  0  0  0  2  0  0  0  0  0  0
  160.7420  203.6950  148.5360 O   0  0  0  0  0  1  0  0  0  0  0  0
  161.5340  205.8210  152.9200 C   0  0  2  0  0  3  0  0  0  0  0  0
  160.8150  202.2280  151.9130 C   0  0  0  0  0  3  0  0  0  0  0  0
  161.1710  204.7430  150.6950 C   0  0  0  0  0  0  0  0  0  0  0  0
  160.9200  207.0710  152.3190 C   0  0  1  0  0  3  0  0  0  0  0  0
  161.1170  207.8710  155.7220 O   0  0  0  0  0  0  0  0  0  0  0  0
  161.0660  208.0810  153.3630 N   0  0  0  0  0  0  0  0  0  0  0  0
  160.4490  211.7150  153.7740 C   0  0  0  0  0  2  0  0  0  0  0  0
  162.9580  209.9620  151.8510 C   0  0  0  0  0  1  0  0  0  0  0  0
  161.0580  203.3520  152.7030 C   0  0  0  0  0  3  0  0  0  0  0  0
  161.2020  204.6110  152.1060 C   0  0  0  0  0  0  0  0  0  0  0  0
  161.6260  209.8240  151.1200 C   0  0  2  0  0  3  0  0  0  0  0  0
  161.9390  207.4850  146.7110 C   0  0  0  0  0  2  0  0  0  0  0  0
  160.2820  206.3520  145.4380 O   0  0  0  0  0  1  0  0  0  0  0  0
  161.4380  206.1500  146.1910 C   0  0  0  0  0  2  0  0  0  0  0  0
  1  5  1  6  0  0  0
  1 19  1  0  0  0  0
  1  4  1  0  0  0  0
  2 13  2  0  0  0  0
  2 19  1  0  0  0  0
  3 10  1  0  0  0  0
  4 12  1  6  0  0  0
  4 20  1  0  0  0  0
  6  8  2  0  0  0  0
  7 15  1  1  0  0  0
  7  9  1  0  0  0  0
  8 12  1  0  0  0  0
  9 22  1  0  0  0  0
  9 14  1  1  0  0  0
 10 21  2  0  0  0  0
 11  5  1  0  0  0  0
 11  8  1  0  0  0  0
 12 27  1  0  0  0  0
 13 18  1  0  0  0  0
 15 23  1  0  0  0  0
 16  2  1  0  0  0  0
 17  3  1  1  0  0  0
 18 25  2  0  0  0  0
 19 26  2  0  0  0  0
 20 17  1  0  0  0  0
 20 22  1  1  0  0  0
 22 10  1  0  0  0  0
 23 14  1  0  0  0  0
 26 25  1  0  0  0  0
 26 17  1  0  0  0  0
 27 24  1  1  0  0  0
 27  7  1  0  0  0  0
 28 11  1  0  0  0  0
 29 30  1  0  0  0  0
 30 28  1  0  0  0  0
M  END
>  <MODEL>
2

>  <REMARK>
 VINA RESULT:      -7.5      1.815      2.958
  Name = 
  2 active torsions:
  status: ('A' for Active; 'I' for Inactive)
    1  A    between atoms: N_11  and  C_28
    2  A    between atoms: C_28  and  C_30
                            x       y       z     vdW  Elec       q    Type
                         _______ _______ _______ _____ _____    ______ ____

>  <TORSDO>
F 2

$$$$
=
 OpenBabel11122412323D

 30 35  0  0  1  0  0  0  0  0999 V2000
  160.9690  209.5500  152.0240 C   0  0  1  0  0  3  0  0  0  0  0  0
  160.7400  211.9950  151.2950 C   0  0  0  0  0  0  0  0  0  0  0  0
  162.2590  208.5050  148.0060 C   0  0  0  0  0  2  0  0  0  0  0  0
  161.5950  208.1910  151.6200 C   0  0  1  0  0  3  0  0  0  0  0  0
  161.4560  209.8800  153.4250 C   0  0  0  0  0  2  0  0  0  0  0  0
  160.5150  206.5940  154.7370 O   0  0  0  0  0  0  0  0  0  0  0  0
  160.4290  205.2060  151.1660 C   0  0  1  0  0  3  0  0  0  0  0  0
  160.8750  207.4840  153.9170 C   0  0  0  0  0  0  0  0  0  0  0  0
  160.8640  205.4710  149.7280 C   0  0  2  0  0  3  0  0  0  0  0  0
  162.1550  207.0460  148.2460 C   0  0  0  0  0  0  0  0  0  0  0  0
  160.9810  208.8540  154.3480 N   0  0  0  0  0  0  0  0  0  0  0  0
  161.1530  207.1330  152.5450 N   0  0  0  0  0  0  0  0  0  0  0  0
  160.8590  212.9980  150.3270 C   0  0  0  0  0  3  0  0  0  0  0  0
  161.6190  204.2280  149.3080 C   0  0  0  0  0  2  0  0  0  0  0  0
  160.3010  203.6950  151.2810 C   0  0  0  0  0  2  0  0  0  0  0  0
  160.1800  212.3160  152.5250 O   0  0  0  0  0  1  0  0  0  0  0  0
  162.1190  208.9970  149.4270 C   0  0  2  0  0  3  0  0  0  0  0  0
  161.3820  212.7070  149.0660 C   0  0  0  0  0  3  0  0  0  0  0  0
  161.1720  210.6820  151.0120 C   0  0  0  0  0  0  0  0  0  0  0  0
  161.2660  207.9680  150.1440 C   0  0  1  0  0  3  0  0  0  0  0  0
  162.4340  206.1930  147.3620 O   0  0  0  0  0  0  0  0  0  0  0  0
  161.6520  206.6970  149.5410 N   0  0  0  0  0  0  0  0  0  0  0  0
  160.9350  203.0920  150.0380 C   0  0  0  0  0  2  0  0  0  0  0  0
  162.8560  205.4030  152.0470 C   0  0  0  0  0  1  0  0  0  0  0  0
  161.7740  211.4050  148.7550 C   0  0  0  0  0  3  0  0  0  0  0  0
  161.6410  210.3870  149.7070 C   0  0  0  0  0  0  0  0  0  0  0  0
  161.3780  205.7190  152.2520 C   0  0  2  0  0  3  0  0  0  0  0  0
  160.4960  209.2770  155.6540 C   0  0  0  0  0  2  0  0  0  0  0  0
  162.3720  208.5940  156.9440 O   0  0  0  0  0  1  0  0  0  0  0  0
  161.6570  209.7150  156.5280 C   0  0  0  0  0  2  0  0  0  0  0  0
  1  5  1  1  0  0  0
  2 16  1  0  0  0  0
  3 10  1  0  0  0  0
  4  1  1  0  0  0  0
  4 12  1  1  0  0  0
  5 11  1  0  0  0  0
  7 15  1  6  0  0  0
  7 27  1  0  0  0  0
  8 11  1  0  0  0  0
  8  6  2  0  0  0  0
  9 14  1  1  0  0  0
  9  7  1  0  0  0  0
 10 22  1  0  0  0  0
 11 28  1  0  0  0  0
 12  8  1  0  0  0  0
 13  2  2  0  0  0  0
 14 23  1  0  0  0  0
 17  3  1  6  0  0  0
 17 26  1  0  0  0  0
 17 20  1  0  0  0  0
 18 13  1  0  0  0  0
 19  2  1  0  0  0  0
 19  1  1  0  0  0  0
 20 22  1  6  0  0  0
 20  4  1  0  0  0  0
 21 10  2  0  0  0  0
 22  9  1  0  0  0  0
 23 15  1  0  0  0  0
 25 18  2  0  0  0  0
 25 26  1  0  0  0  0
 26 19  2  0  0  0  0
 27 24  1  6  0  0  0
 27 12  1  0  0  0  0
 28 30  1  0  0  0  0
 30 29  1  0  0  0  0
M  END
>  <MODEL>
3

>  <REMARK>
 VINA RESULT:      -7.3      1.765      6.561
  Name = 
  2 active torsions:
  status: ('A' for Active; 'I' for Inactive)
    1  A    between atoms: N_11  and  C_28
    2  A    between atoms: C_28  and  C_30
                            x       y       z     vdW  Elec       q    Type
                         _______ _______ _______ _____ _____    ______ ____

>  <TORSDO>
F 2

$$$$
=
 OpenBabel11122412323D

 30 35  0  0  1  0  0  0  0  0999 V2000
  160.8510  209.1240  151.5800 C   0  0  1  0  0  3  0  0  0  0  0  0
  161.2310  206.9580  150.2670 C   0  0  0  0  0  0  0  0  0  0  0  0
  160.5070  206.8050  155.2420 C   0  0  0  0  0  2  0  0  0  0  0  0
  160.8530  209.7220  153.0100 C   0  0  1  0  0  3  0  0  0  0  0  0
  161.8020  209.9550  150.7360 C   0  0  0  0  0  2  0  0  0  0  0  0
  160.2620  213.1150  151.7590 O   0  0  0  0  0  0  0  0  0  0  0  0
  158.6980  211.3600  154.7850 C   0  0  1  0  0  3  0  0  0  0  0  0
  160.6390  211.9110  151.8050 C   0  0  0  0  0  0  0  0  0  0  0  0
  158.7600  210.1060  155.6530 C   0  0  2  0  0  3  0  0  0  0  0  0
  160.0060  207.9520  156.0380 C   0  0  0  0  0  0  0  0  0  0  0  0
  161.3070  211.3260  150.6700 N   0  0  0  0  0  0  0  0  0  0  0  0
  160.3780  211.1160  152.9800 N   0  0  0  0  0  0  0  0  0  0  0  0
  161.3860  205.5690  150.2190 C   0  0  0  0  0  3  0  0  0  0  0  0
  158.9120  210.6160  157.0710 C   0  0  0  0  0  2  0  0  0  0  0  0
  158.1230  212.4480  155.6790 C   0  0  0  0  0  2  0  0  0  0  0  0
  161.1890  207.6680  149.0730 O   0  0  0  0  0  1  0  0  0  0  0  0
  160.9530  207.5450  154.0030 C   0  0  2  0  0  3  0  0  0  0  0  0
  161.3960  204.8170  151.3950 C   0  0  0  0  0  3  0  0  0  0  0  0
  161.1090  207.6170  151.5090 C   0  0  0  0  0  0  0  0  0  0  0  0
  160.0570  208.7640  153.8960 C   0  0  1  0  0  3  0  0  0  0  0  0
  159.7230  207.8560  157.2610 O   0  0  0  0  0  0  0  0  0  0  0  0
  159.8140  209.1540  155.2810 N   0  0  0  0  0  0  0  0  0  0  0  0
  158.1370  211.9150  157.1030 C   0  0  0  0  0  2  0  0  0  0  0  0
  161.2010  211.8880  155.1860 C   0  0  0  0  0  1  0  0  0  0  0  0
  161.2340  205.4470  152.6290 C   0  0  0  0  0  3  0  0  0  0  0  0
  161.0580  206.8340  152.6900 C   0  0  0  0  0  0  0  0  0  0  0  0
  160.0340  211.8330  154.2050 C   0  0  2  0  0  3  0  0  0  0  0  0
  161.3870  212.0250  149.3950 C   0  0  0  0  0  2  0  0  0  0  0  0
  163.2100  212.3950  147.9160 O   0  0  0  0  0  1  0  0  0  0  0  0
  162.4510  211.3930  148.5170 C   0  0  0  0  0  2  0  0  0  0  0  0
  1  5  1  6  0  0  0
  1  4  1  0  0  0  0
  2 19  1  0  0  0  0
  3 10  1  0  0  0  0
  4 12  1  6  0  0  0
  4 20  1  0  0  0  0
  6  8  2  0  0  0  0
  7  9  1  0  0  0  0
  7 15  1  1  0  0  0
  8 12  1  0  0  0  0
  9 14  1  1  0  0  0
 10 21  2  0  0  0  0
 11  5  1  0  0  0  0
 11  8  1  0  0  0  0
 12 27  1  0  0  0  0
 13  2  2  0  0  0  0
 13 18  1  0  0  0  0
 14 23  1  0  0  0  0
 15 23  1  0  0  0  0
 16  2  1  0  0  0  0
 17  3  1  1  0  0  0
 18 25  2  0  0  0  0
 19  1  1  0  0  0  0
 19 26  2  0  0  0  0
 20 17  1  0  0  0  0
 20 22  1  1  0  0  0
 22  9  1  0  0  0  0
 22 10  1  0  0  0  0
 25 26  1  0  0  0  0
 26 17  1  0  0  0  0
 27  7  1  0  0  0  0
 27 24  1  1  0  0  0
 28 11  1  0  0  0  0
 29 30  1  0  0  0  0
 30 28  1  0  0  0  0
M  END
>  <MODEL>
4

>  <REMARK>
 VINA RESULT:      -6.3      1.364      1.852
  Name = 
  2 active torsions:
  status: ('A' for Active; 'I' for Inactive)
    1  A    between atoms: N_11  and  C_28
    2  A    between atoms: C_28  and  C_30
                            x       y       z     vdW  Elec       q    Type
                         _______ _______ _______ _____ _____    ______ ____

>  <TORSDO>
F 2

$$$$
=
 OpenBabel11122412323D

 30 35  0  0  1  0  0  0  0  0999 V2000
  161.2530  207.4500  151.3760 C   0  0  1  0  0  3  0  0  0  0  0  0
  161.0720  205.0430  150.5190 C   0  0  0  0  0  0  0  0  0  0  0  0
  160.6300  206.0180  155.4340 C   0  0  0  0  0  2  0  0  0  0  0  0
  161.4710  208.2950  152.6570 C   0  0  1  0  0  3  0  0  0  0  0  0
  162.3110  207.8660  150.3680 C   0  0  0  0  0  2  0  0  0  0  0  0
  161.5630  211.4290  150.7580 O   0  0  0  0  0  0  0  0  0  0  0  0
  159.8360  210.6890  154.0980 C   0  0  1  0  0  3  0  0  0  0  0  0
  161.6700  210.2030  151.0390 C   0  0  0  0  0  0  0  0  0  0  0  0
  159.6740  209.6440  155.1990 C   0  0  2  0  0  3  0  0  0  0  0  0
  160.4410  207.3800  155.9900 C   0  0  0  0  0  0  0  0  0  0  0  0
  162.1250  209.2740  150.0360 N   0  0  0  0  0  0  0  0  0  0  0  0
  161.3120  209.7280  152.3540 N   0  0  0  0  0  0  0  0  0  0  0  0
  160.9150  203.6720  150.7490 C   0  0  0  0  0  3  0  0  0  0  0  0
  160.0190  210.3690  156.4840 C   0  0  0  0  0  2  0  0  0  0  0  0
  159.5670  212.0290  154.7640 C   0  0  0  0  0  2  0  0  0  0  0  0
  161.1140  205.5010  149.2080 O   0  0  0  0  0  1  0  0  0  0  0  0
  161.1520  206.3850  154.0650 C   0  0  2  0  0  3  0  0  0  0  0  0
  160.8310  203.1780  152.0520 C   0  0  0  0  0  3  0  0  0  0  0  0
  161.1710  205.9380  151.6050 C   0  0  0  0  0  0  0  0  0  0  0  0
  160.5390  207.7310  153.7290 C   0  0  1  0  0  3  0  0  0  0  0  0
  160.2160  207.5870  157.2120 O   0  0  0  0  0  0  0  0  0  0  0  0
  160.4710  208.4250  155.0110 N   0  0  0  0  0  0  0  0  0  0  0  0
  159.5490  211.7910  156.2660 C   0  0  0  0  0  2  0  0  0  0  0  0
  162.4140  210.7030  154.3480 C   0  0  0  0  0  1  0  0  0  0  0  0
  160.8850  204.0530  153.1360 C   0  0  0  0  0  3  0  0  0  0  0  0
  161.0200  205.4300  152.9200 C   0  0  0  0  0  0  0  0  0  0  0  0
  161.2060  210.7270  153.4160 C   0  0  2  0  0  3  0  0  0  0  0  0
  162.2790  209.6780  148.6450 C   0  0  0  0  0  2  0  0  0  0  0  0
  162.4160  207.5940  147.5100 O   0  0  0  0  0  1  0  0  0  0  0  0
  161.5810  208.6880  147.7310 C   0  0  0  0  0  2  0  0  0  0  0  0
  1  5  1  6  0  0  0
  1 19  1  0  0  0  0
  1  4  1  0  0  0  0
  2 13  2  0  0  0  0
  2 19  1  0  0  0  0
  3 10  1  0  0  0  0
  4 12  1  6  0  0  0
  4 20  1  0  0  0  0
  6  8  2  0  0  0  0
  7 15  1  1  0  0  0
  7  9  1  0  0  0  0
  8 12  1  0  0  0  0
  9 14  1  1  0  0  0
 10 21  2  0  0  0  0
 11  5  1  0  0  0  0
 11  8  1  0  0  0  0
 12 27  1  0  0  0  0
 13 18  1  0  0  0  0
 15 23  1  0  0  0  0
 16  2  1  0  0  0  0
 17  3  1  1  0  0  0
 18 25  2  0  0  0  0
 19 26  2  0  0  0  0
 20 17  1  0  0  0  0
 20 22  1  1  0  0  0
 22  9  1  0  0  0  0
 22 10  1  0  0  0  0
 23 14  1  0  0  0  0
 26 25  1  0  0  0  0
 26 17  1  0  0  0  0
 27  7  1  0  0  0  0
 27 24  1  1  0  0  0
 28 11  1  0  0  0  0
 29 30  1  0  0  0  0
 30 28  1  0  0  0  0
M  END
>  <MODEL>
5

>  <REMARK>
 VINA RESULT:      -5.9      1.384      1.977
  Name = 
  2 active torsions:
  status: ('A' for Active; 'I' for Inactive)
    1  A    between atoms: N_11  and  C_28
    2  A    between atoms: C_28  and  C_30
                            x       y       z     vdW  Elec       q    Type
                         _______ _______ _______ _____ _____    ______ ____

>  <TORSDO>
F 2

$$$$
=
 OpenBabel11122412323D

 30 35  0  0  1  0  0  0  0  0999 V2000
  161.6550  208.6100  151.5410 C   0  0  1  0  0  3  0  0  0  0  0  0
  161.7040  209.0610  154.0610 C   0  0  0  0  0  0  0  0  0  0  0  0
  160.5040  204.4920  152.3320 C   0  0  0  0  0  2  0  0  0  0  0  0
  161.1420  207.6120  150.4710 C   0  0  1  0  0  3  0  0  0  0  0  0
  161.1250  209.9860  151.1750 C   0  0  0  0  0  2  0  0  0  0  0  0
  162.3010  209.7330  147.7160 O   0  0  0  0  0  0  0  0  0  0  0  0
  162.5420  205.9270  148.0880 C   0  0  1  0  0  3  0  0  0  0  0  0
  161.8830  209.3810  148.8540 C   0  0  0  0  0  0  0  0  0  0  0  0
  162.1070  204.7400  148.9430 C   0  0  2  0  0  3  0  0  0  0  0  0
  160.7180  204.0590  150.9300 C   0  0  0  0  0  0  0  0  0  0  0  0
  161.6650  210.3740  149.8760 N   0  0  0  0  0  0  0  0  0  0  0  0
  161.6520  207.9860  149.1410 N   0  0  0  0  0  0  0  0  0  0  0  0
  161.5210  208.6390  155.3830 C   0  0  0  0  0  3  0  0  0  0  0  0
  161.4560  203.7740  147.9750 C   0  0  0  0  0  2  0  0  0  0  0  0
  162.7850  205.3610  146.6970 C   0  0  0  0  0  2  0  0  0  0  0  0
  162.2210  210.3290  153.8300 O   0  0  0  0  0  1  0  0  0  0  0  0
  160.5860  205.9880  152.1410 C   0  0  2  0  0  3  0  0  0  0  0  0
  161.0400  207.3570  155.6560 C   0  0  0  0  0  3  0  0  0  0  0  0
  161.3790  208.2010  152.9910 C   0  0  0  0  0  0  0  0  0  0  0  0
  161.5070  206.2090  150.9560 C   0  0  1  0  0  3  0  0  0  0  0  0
  160.5180  202.8760  150.5490 O   0  0  0  0  0  0  0  0  0  0  0  0
  161.2290  205.0840  150.0690 N   0  0  0  0  0  0  0  0  0  0  0  0
  162.2160  203.9510  146.6790 C   0  0  0  0  0  2  0  0  0  0  0  0
  160.0950  206.6880  147.7150 C   0  0  0  0  0  1  0  0  0  0  0  0
  160.7530  206.4800  154.6100 C   0  0  0  0  0  3  0  0  0  0  0  0
  160.9520  206.8820  153.2840 C   0  0  0  0  0  0  0  0  0  0  0  0
  161.5420  207.0820  147.9980 C   0  0  2  0  0  3  0  0  0  0  0  0
  162.0990  211.7520  149.6970 C   0  0  0  0  0  2  0  0  0  0  0  0
  160.8170  212.7090  147.9380 O   0  0  0  0  0  1  0  0  0  0  0  0
  160.9170  212.6290  149.3260 C   0  0  0  0  0  2  0  0  0  0  0  0
  1  5  1  6  0  0  0
  1 19  1  0  0  0  0
  2 13  1  0  0  0  0
  4 12  1  6  0  0  0
  4 20  1  0  0  0  0
  4  1  1  0  0  0  0
  6  8  2  0  0  0  0
  7 15  1  6  0  0  0
  7  9  1  0  0  0  0
  8 12  1  0  0  0  0
  8 11  1  0  0  0  0
  9 14  1  6  0  0  0
  9 22  1  0  0  0  0
 10  3  1  0  0  0  0
 11  5  1  0  0  0  0
 13 18  2  0  0  0  0
 16  2  1  0  0  0  0
 17  3  1  1  0  0  0
 17 26  1  0  0  0  0
 19 26  1  0  0  0  0
 19  2  2  0  0  0  0
 20 22  1  6  0  0  0
 20 17  1  0  0  0  0
 21 10  2  0  0  0  0
 22 10  1  0  0  0  0
 23 15  1  0  0  0  0
 23 14  1  0  0  0  0
 25 18  1  0  0  0  0
 26 25  2  0  0  0  0
 27 24  1  1  0  0  0
 27  7  1  0  0  0  0
 27 12  1  0  0  0  0
 28 11  1  0  0  0  0
 29 30  1  0  0  0  0
 30 28  1  0  0  0  0
M  END
>  <MODEL>
6

>  <REMARK>
 VINA RESULT:      -5.9      2.052      5.666
  Name = 
  2 active torsions:
  status: ('A' for Active; 'I' for Inactive)
    1  A    between atoms: N_11  and  C_28
    2  A    between atoms: C_28  and  C_30
                            x       y       z     vdW  Elec       q    Type
                         _______ _______ _______ _____ _____    ______ ____

>  <TORSDO>
F 2

$$$$
=
 OpenBabel11122412323D

 30 35  0  0  1  0  0  0  0  0999 V2000
  160.8290  210.1240  151.4600 C   0  0  1  0  0  3  0  0  0  0  0  0
  161.8010  207.7550  151.4940 C   0  0  0  0  0  0  0  0  0  0  0  0
  159.4930  209.6000  155.5640 C   0  0  0  0  0  2  0  0  0  0  0  0
  160.3090  211.2630  152.3740 C   0  0  1  0  0  3  0  0  0  0  0  0
  161.9320  210.7030  150.5900 C   0  0  0  0  0  2  0  0  0  0  0  0
  159.8810  213.5500  149.5430 O   0  0  0  0  0  0  0  0  0  0  0  0
  157.5600  212.9640  152.5350 C   0  0  1  0  0  3  0  0  0  0  0  0
  160.3220  212.6050  150.2550 C   0  0  0  0  0  0  0  0  0  0  0  0
  157.4380  212.2580  153.8830 C   0  0  2  0  0  3  0  0  0  0  0  0
  158.6640  210.8300  155.5550 C   0  0  0  0  0  0  0  0  0  0  0  0
  161.3730  211.7580  149.7520 N   0  0  0  0  0  0  0  0  0  0  0  0
  159.7560  212.3580  151.5590 N   0  0  0  0  0  0  0  0  0  0  0  0
  162.0780  206.5570  152.1600 C   0  0  0  0  0  3  0  0  0  0  0  0
  157.0710  213.3490  154.8670 C   0  0  0  0  0  2  0  0  0  0  0  0
  156.6340  214.1670  152.6190 C   0  0  0  0  0  2  0  0  0  0  0  0
  162.0950  207.8500  150.1390 O   0  0  0  0  0  1  0  0  0  0  0  0
  160.2590  209.8130  154.2800 C   0  0  2  0  0  3  0  0  0  0  0  0
  161.7630  206.4100  153.5130 C   0  0  0  0  0  3  0  0  0  0  0  0
  161.2220  208.8370  152.1900 C   0  0  0  0  0  0  0  0  0  0  0  0
  159.3490  210.6260  153.3790 C   0  0  1  0  0  3  0  0  0  0  0  0
  158.0020  211.2080  156.5580 O   0  0  0  0  0  0  0  0  0  0  0  0
  158.6320  211.5090  154.2940 N   0  0  0  0  0  0  0  0  0  0  0  0
  156.2220  214.3190  154.0750 C   0  0  0  0  0  2  0  0  0  0  0  0
  159.7380  214.1710  153.2480 C   0  0  0  0  0  1  0  0  0  0  0  0
  161.1520  207.4540  154.2050 C   0  0  0  0  0  3  0  0  0  0  0  0
  160.8490  208.6510  153.5450 C   0  0  0  0  0  0  0  0  0  0  0  0
  158.9680  213.4330  152.1570 C   0  0  2  0  0  3  0  0  0  0  0  0
  161.8100  211.8360  148.3650 C   0  0  0  0  0  2  0  0  0  0  0  0
  162.7610  213.9610  147.8850 O   0  0  0  0  0  1  0  0  0  0  0  0
  163.0810  212.6580  148.2610 C   0  0  0  0  0  2  0  0  0  0  0  0
  1  5  1  1  0  0  0
  1 19  1  0  0  0  0
  1  4  1  0  0  0  0
  2 13  2  0  0  0  0
  2 19  1  0  0  0  0
  4 12  1  6  0  0  0
  4 20  1  0  0  0  0
  6  8  2  0  0  0  0
  7 15  1  1  0  0  0
  7  9  1  0  0  0  0
  8 12  1  0  0  0  0
  9 22  1  0  0  0  0
  9 14  1  1  0  0  0
 10  3  1  0  0  0  0
 10 21  2  0  0  0  0
 11  8  1  0  0  0  0
 11  5  1  0  0  0  0
 12 27  1  0  0  0  0
 13 18  1  0  0  0  0
 15 23  1  0  0  0  0
 16  2  1  0  0  0  0
 17  3  1  1  0  0  0
 18 25  2  0  0  0  0
 19 26  2  0  0  0  0
 20 17  1  0  0  0  0
 20 22  1  1  0  0  0
 22 10  1  0  0  0  0
 23 14  1  0  0  0  0
 26 25  1  0  0  0  0
 26 17  1  0  0  0  0
 27  7  1  0  0  0  0
 27 24  1  1  0  0  0
 28 11  1  0  0  0  0
 29 30  1  0  0  0  0
 30 28  1  0  0  0  0
M  END
>  <MODEL>
7

>  <REMARK>
 VINA RESULT:      -5.4      2.414      3.644
  Name = 
  2 active torsions:
  status: ('A' for Active; 'I' for Inactive)
    1  A    between atoms: N_11  and  C_28
    2  A    between atoms: C_28  and  C_30
                            x       y       z     vdW  Elec       q    Type
                         _______ _______ _______ _____ _____    ______ ____

>  <TORSDO>
F 2

$$$$
=
 OpenBabel11122412323D

 30 35  0  0  1  0  0  0  0  0999 V2000
  161.1520  207.8990  151.9780 C   0  0  1  0  0  3  0  0  0  0  0  0
  161.0940  210.4420  151.6720 C   0  0  0  0  0  0  0  0  0  0  0  0
  162.3850  207.4620  147.8310 C   0  0  0  0  0  2  0  0  0  0  0  0
  161.6850  206.5880  151.3450 C   0  0  1  0  0  3  0  0  0  0  0  0
  161.6550  207.9540  153.4100 C   0  0  0  0  0  2  0  0  0  0  0  0
  160.4850  204.5650  154.1560 O   0  0  0  0  0  0  0  0  0  0  0  0
  160.3200  203.8090  150.4030 C   0  0  1  0  0  3  0  0  0  0  0  0
  160.9090  205.5540  153.4950 C   0  0  0  0  0  0  0  0  0  0  0  0
  160.7780  204.2830  149.0260 C   0  0  2  0  0  3  0  0  0  0  0  0
  162.1800  205.9930  147.8220 C   0  0  0  0  0  0  0  0  0  0  0  0
  161.1070  206.8220  154.1500 N   0  0  0  0  0  0  0  0  0  0  0  0
  161.1680  205.4220  152.0820 N   0  0  0  0  0  0  0  0  0  0  0  0
  161.2850  211.5830  150.8870 C   0  0  0  0  0  3  0  0  0  0  0  0
  161.4480  203.0790  148.3980 C   0  0  0  0  0  2  0  0  0  0  0  0
  160.0880  202.3120  150.2620 C   0  0  0  0  0  2  0  0  0  0  0  0
  160.5520  210.5870  152.9430 O   0  0  0  0  0  1  0  0  0  0  0  0
  162.2730  207.7150  149.3160 C   0  0  2  0  0  3  0  0  0  0  0  0
  161.7920  211.4740  149.5910 C   0  0  0  0  0  3  0  0  0  0  0  0
  161.4360  209.1680  151.1690 C   0  0  0  0  0  0  0  0  0  0  0  0
  161.3480  206.6410  149.8550 C   0  0  1  0  0  3  0  0  0  0  0  0
  162.4040  205.2840  146.8050 O   0  0  0  0  0  0  0  0  0  0  0  0
  161.6490  205.4660  149.0440 N   0  0  0  0  0  0  0  0  0  0  0  0
  160.6850  201.8860  148.9300 C   0  0  0  0  0  2  0  0  0  0  0  0
  162.7510  203.6880  151.2860 C   0  0  0  0  0  1  0  0  0  0  0  0
  162.0960  210.2190  149.0630 C   0  0  0  0  0  3  0  0  0  0  0  0
  161.8900  209.0670  149.8300 C   0  0  0  0  0  0  0  0  0  0  0  0
  161.2970  204.0660  151.5530 C   0  0  2  0  0  3  0  0  0  0  0  0
  160.6460  207.0500  155.5120 C   0  0  0  0  0  2  0  0  0  0  0  0
  159.9350  209.0920  156.4990 O   0  0  0  0  0  1  0  0  0  0  0  0
  161.0480  208.4380  155.9760 C   0  0  0  0  0  2  0  0  0  0  0  0
  1  5  1  1  0  0  0
  2 16  1  0  0  0  0
  4  1  1  0  0  0  0
  4 12  1  1  0  0  0
  5 11  1  0  0  0  0
  7 15  1  6  0  0  0
  7 27  1  0  0  0  0
  8 11  1  0  0  0  0
  8  6  2  0  0  0  0
  9 14  1  1  0  0  0
  9 22  1  0  0  0  0
  9  7  1  0  0  0  0
 10  3  1  0  0  0  0
 10 22  1  0  0  0  0
 11 28  1  0  0  0  0
 12  8  1  0  0  0  0
 13  2  2  0  0  0  0
 14 23  1  0  0  0  0
 17  3  1  6  0  0  0
 17 26  1  0  0  0  0
 17 20  1  0  0  0  0
 18 13  1  0  0  0  0
 19  2  1  0  0  0  0
 19  1  1  0  0  0  0
 20 22  1  6  0  0  0
 20  4  1  0  0  0  0
 21 10  2  0  0  0  0
 23 15  1  0  0  0  0
 25 18  2  0  0  0  0
 25 26  1  0  0  0  0
 26 19  2  0  0  0  0
 27 24  1  6  0  0  0
 27 12  1  0  0  0  0
 28 30  1  0  0  0  0
 30 29  1  0  0  0  0
M  END
>  <MODEL>
8

>  <REMARK>
 VINA RESULT:      -5.3      2.293      6.973
  Name = 
  2 active torsions:
  status: ('A' for Active; 'I' for Inactive)
    1  A    between atoms: N_11  and  C_28
    2  A    between atoms: C_28  and  C_30
                            x       y       z     vdW  Elec       q    Type
                         _______ _______ _______ _____ _____    ______ ____

>  <TORSDO>
F 2

$$$$
