=
 OpenBabel11122414353D

 34 41  0  0  1  0  0  0  0  0999 V2000
  161.0550  204.4100  151.5450 C   0  0  0  0  0  0  0  0  0  0  0  0
  161.2490  205.5580  153.7640 C   0  0  0  0  0  2  0  0  0  0  0  0
  161.9170  204.1280  144.8440 C   0  0  2  0  0  3  0  0  0  0  0  0
  161.3950  203.2310  149.3620 C   0  0  1  0  0  3  0  0  0  0  0  0
  161.5310  204.8270  147.3150 C   0  0  2  0  0  3  0  0  0  0  0  0
  162.5270  205.9560  145.3660 C   0  0  0  0  0  2  0  0  0  0  0  0
  161.9000  205.3920  144.2410 O   0  0  0  0  0  0  0  0  0  0  0  0
  160.6360  202.2700  145.7420 C   0  0  0  0  0  3  0  0  0  0  0  0
  160.9990  206.9470  151.7230 C   0  0  2  0  0  3  0  0  0  0  0  0
  160.8650  209.9060  151.2680 C   0  0  0  0  0  2  0  0  0  0  0  0
  162.1680  205.6780  148.3300 N   0  0  0  0  0  2  0  0  0  0  0  0
  160.8800  202.2710  147.0570 C   0  0  0  0  0  3  0  0  0  0  0  0
  161.7850  206.9560  150.3940 C   0  0  1  0  0  3  0  0  0  0  0  0
  161.3570  207.2450  154.4060 S   0  0  0  0  0  0  0  0  0  0  0  0
  160.9330  203.5130  147.9230 C   0  0  1  0  0  3  0  0  0  0  0  0
  160.5180  203.5360  144.9620 C   0  0  0  0  0  2  0  0  0  0  0  0
  161.0370  209.3370  152.6760 C   0  0  1  0  0  3  0  0  0  0  0  0
  161.2370  204.4770  150.2110 C   0  0  0  0  0  0  0  0  0  0  0  0
  162.5110  204.6590  146.1390 C   0  0  2  0  0  3  0  0  0  0  0  0
  161.3050  205.8060  149.5030 C   0  0  2  0  0  3  0  0  0  0  0  0
  161.1800  201.8670  151.4020 C   0  0  0  0  0  2  0  0  0  0  0  0
  161.9950  209.5050  150.3360 C   0  0  0  0  0  2  0  0  0  0  0  0
  160.6700  202.0410  149.9850 C   0  0  0  0  0  2  0  0  0  0  0  0
  161.5770  208.2480  149.5960 C   0  0  0  0  0  2  0  0  0  0  0  0
  161.6140  207.9150  152.7360 C   0  0  2  0  0  3  0  0  0  0  0  0
  160.7960  203.0860  152.2380 C   0  0  0  0  0  2  0  0  0  0  0  0
  161.0410  205.6160  152.3280 N   0  0  0  0  0  0  0  0  0  0  0  0
  161.8400  210.2000  153.4270 O   0  0  0  0  0  0  0  0  0  0  0  0
  160.9530  211.1170  153.9980 C   0  0  0  0  0  2  0  0  0  0  0  0
  160.8920  209.5150  157.1700 C   0  0  0  0  0  2  0  0  0  0  0  0
  162.5580  210.6100  155.8370 C   0  0  0  0  0  2  0  0  0  0  0  0
  161.2280  211.2470  155.4850 C   0  0  0  0  0  3  0  0  0  0  0  0
  162.3430  209.9400  157.1730 C   0  0  0  0  0  2  0  0  0  0  0  0
  160.1670  210.5000  156.2730 C   0  0  0  0  0  2  0  0  0  0  0  0
  1 26  1  0  0  0  0
  1 27  1  0  0  0  0
  2 14  1  0  0  0  0
  3 16  1  1  0  0  0
  3 19  1  0  0  0  0
  4 23  1  1  0  0  0
  4 18  1  0  0  0  0
  5 15  1  0  0  0  0
  5 11  1  1  0  0  0
  7  3  1  0  0  0  0
  7  6  1  0  0  0  0
  8 12  2  0  0  0  0
  9 27  1  1  0  0  0
  9 25  1  0  0  0  0
 10 17  1  0  0  0  0
 13 24  1  6  0  0  0
 13  9  1  0  0  0  0
 15 12  1  6  0  0  0
 15  4  1  0  0  0  0
 16  8  1  0  0  0  0
 17 25  1  0  0  0  0
 17 28  1  1  0  0  0
 18  1  2  0  0  0  0
 19  6  1  6  0  0  0
 19  5  1  0  0  0  0
 20 11  1  6  0  0  0
 20 18  1  0  0  0  0
 20 13  1  0  0  0  0
 21 26  1  0  0  0  0
 22 10  1  0  0  0  0
 23 21  1  0  0  0  0
 24 22  1  0  0  0  0
 25 14  1  1  0  0  0
 27  2  1  0  0  0  0
 28 29  1  0  0  0  0
 29 32  1  0  0  0  0
 30 33  1  0  0  0  0
 31 33  1  0  0  0  0
 32 31  1  0  0  0  0
 32 34  1  0  0  0  0
 34 30  1  0  0  0  0
M  END
>  <MODEL>
1

>  <REMARK>
 VINA RESULT:     -10.0      0.000      0.000
  Name = 
  3 active torsions:
  status: ('A' for Active; 'I' for Inactive)
    1  A    between atoms: C_17  and  O_28
    2  A    between atoms: O_28  and  C_29
    3  A    between atoms: C_29  and  C_32
                            x       y       z     vdW  Elec       q    Type
                         _______ _______ _______ _____ _____    ______ ____

>  <TORSDO>
F 3

$$$$
=
 OpenBabel11122414353D

 34 41  0  0  1  0  0  0  0  0999 V2000
  161.0510  204.3990  151.5710 C   0  0  0  0  0  0  0  0  0  0  0  0
  161.2280  205.5660  153.7820 C   0  0  0  0  0  2  0  0  0  0  0  0
  161.9370  204.0730  144.8750 C   0  0  2  0  0  3  0  0  0  0  0  0
  161.4080  203.2070  149.3980 C   0  0  1  0  0  3  0  0  0  0  0  0
  161.5380  204.7880  147.3390 C   0  0  2  0  0  3  0  0  0  0  0  0
  162.5300  205.9100  145.3840 C   0  0  0  0  0  2  0  0  0  0  0  0
  161.9120  205.3330  144.2620 O   0  0  0  0  0  0  0  0  0  0  0  0
  160.6700  202.2120  145.7840 C   0  0  0  0  0  3  0  0  0  0  0  0
  160.9730  206.9370  151.7290 C   0  0  2  0  0  3  0  0  0  0  0  0
  160.8160  209.8920  151.2500 C   0  0  0  0  0  2  0  0  0  0  0  0
  162.1640  205.6520  148.3500 N   0  0  0  0  0  2  0  0  0  0  0  0
  160.9100  202.2250  147.0990 C   0  0  0  0  0  3  0  0  0  0  0  0
  161.7630  206.9430  150.4030 C   0  0  1  0  0  3  0  0  0  0  0  0
  161.3200  207.2600  154.4100 S   0  0  0  0  0  0  0  0  0  0  0  0
  160.9490  203.4730  147.9550 C   0  0  1  0  0  3  0  0  0  0  0  0
  160.5430  203.4710  144.9930 C   0  0  0  0  0  2  0  0  0  0  0  0
  160.9870  209.3350  152.6640 C   0  0  1  0  0  3  0  0  0  0  0  0
  161.2370  204.4580  150.2370 C   0  0  0  0  0  0  0  0  0  0  0  0
  162.5230  204.6190  146.1680 C   0  0  2  0  0  3  0  0  0  0  0  0
  161.2970  205.7820  149.5190 C   0  0  2  0  0  3  0  0  0  0  0  0
  161.1990  201.8570  151.4490 C   0  0  0  0  0  2  0  0  0  0  0  0
  161.9510  209.4930  150.3250 C   0  0  0  0  0  2  0  0  0  0  0  0
  160.6920  202.0160  150.0280 C   0  0  0  0  0  2  0  0  0  0  0  0
  161.5470  208.2270  149.5940 C   0  0  0  0  0  2  0  0  0  0  0  0
  161.5760  207.9190  152.7360 C   0  0  2  0  0  3  0  0  0  0  0  0
  160.8010  203.0790  152.2730 C   0  0  0  0  0  2  0  0  0  0  0  0
  161.0250  205.6120  152.3440 N   0  0  0  0  0  0  0  0  0  0  0  0
  161.7810  210.2100  153.4100 O   0  0  0  0  0  0  0  0  0  0  0  0
  160.9120  211.2230  153.8270 C   0  0  0  0  0  2  0  0  0  0  0  0
  158.9120  211.3470  156.7620 C   0  0  0  0  0  2  0  0  0  0  0  0
  158.4990  211.4710  154.4020 C   0  0  0  0  0  2  0  0  0  0  0  0
  159.7430  210.6230  154.5860 C   0  0  0  0  0  3  0  0  0  0  0  0
  157.8020  211.4570  155.7410 C   0  0  0  0  0  2  0  0  0  0  0  0
  160.0450  210.6110  156.0730 C   0  0  0  0  0  2  0  0  0  0  0  0
  1 26  1  0  0  0  0
  1 27  1  0  0  0  0
  2 14  1  0  0  0  0
  3 16  1  1  0  0  0
  3 19  1  0  0  0  0
  4 23  1  1  0  0  0
  4 18  1  0  0  0  0
  5 15  1  0  0  0  0
  5 11  1  1  0  0  0
  7  3  1  0  0  0  0
  7  6  1  0  0  0  0
  8 12  2  0  0  0  0
  9 27  1  1  0  0  0
  9 25  1  0  0  0  0
 10 17  1  0  0  0  0
 13 24  1  6  0  0  0
 13  9  1  0  0  0  0
 15 12  1  6  0  0  0
 15  4  1  0  0  0  0
 16  8  1  0  0  0  0
 17 25  1  0  0  0  0
 17 28  1  1  0  0  0
 18  1  2  0  0  0  0
 19  6  1  6  0  0  0
 19  5  1  0  0  0  0
 20 11  1  6  0  0  0
 20 18  1  0  0  0  0
 20 13  1  0  0  0  0
 21 26  1  0  0  0  0
 22 10  1  0  0  0  0
 23 21  1  0  0  0  0
 24 22  1  0  0  0  0
 25 14  1  1  0  0  0
 27  2  1  0  0  0  0
 28 29  1  0  0  0  0
 29 32  1  0  0  0  0
 31 32  1  0  0  0  0
 31 33  1  0  0  0  0
 32 34  1  0  0  0  0
 33 30  1  0  0  0  0
 34 30  1  0  0  0  0
M  END
>  <MODEL>
2

>  <REMARK>
 VINA RESULT:      -9.8      0.743      1.275
  Name = 
  3 active torsions:
  status: ('A' for Active; 'I' for Inactive)
    1  A    between atoms: C_17  and  O_28
    2  A    between atoms: O_28  and  C_29
    3  A    between atoms: C_29  and  C_32
                            x       y       z     vdW  Elec       q    Type
                         _______ _______ _______ _____ _____    ______ ____

>  <TORSDO>
F 3

$$$$
=
 OpenBabel11122414353D

 34 41  0  0  1  0  0  0  0  0999 V2000
  161.6170  208.2470  149.7560 C   0  0  0  0  0  0  0  0  0  0  0  0
  162.1370  206.6680  147.8810 C   0  0  0  0  0  2  0  0  0  0  0  0
  160.7110  209.6950  156.2980 C   0  0  2  0  0  3  0  0  0  0  0  0
  161.6150  209.7580  151.7520 C   0  0  1  0  0  3  0  0  0  0  0  0
  160.8510  208.5980  153.9490 C   0  0  2  0  0  3  0  0  0  0  0  0
  161.0220  207.7230  156.2450 C   0  0  0  0  0  2  0  0  0  0  0  0
  160.2590  208.5960  157.0400 O   0  0  0  0  0  0  0  0  0  0  0  0
  160.1540  211.5280  154.8070 C   0  0  0  0  0  3  0  0  0  0  0  0
  161.0570  205.7710  149.9270 C   0  0  2  0  0  3  0  0  0  0  0  0
  160.1630  203.0260  150.7320 C   0  0  0  0  0  2  0  0  0  0  0  0
  161.5320  207.4680  153.3010 N   0  0  0  0  0  2  0  0  0  0  0  0
  160.7310  211.2270  153.6390 C   0  0  0  0  0  3  0  0  0  0  0  0
  161.4400  205.8910  151.4170 C   0  0  1  0  0  3  0  0  0  0  0  0
  162.0390  204.8930  147.5440 S   0  0  0  0  0  0  0  0  0  0  0  0
  160.7390  209.8480  153.0120 C   0  0  1  0  0  3  0  0  0  0  0  0
  159.5580  210.4800  155.6850 C   0  0  0  0  0  2  0  0  0  0  0  0
  160.8220  203.2690  149.3740 C   0  0  1  0  0  3  0  0  0  0  0  0
  161.4200  208.4150  151.0780 C   0  0  0  0  0  0  0  0  0  0  0  0
  161.4960  208.8260  155.3290 C   0  0  2  0  0  3  0  0  0  0  0  0
  161.0050  207.2590  151.9540 C   0  0  2  0  0  3  0  0  0  0  0  0
  162.2540  210.7090  149.5710 C   0  0  0  0  0  2  0  0  0  0  0  0
  161.0640  203.4060  151.8930 C   0  0  0  0  0  2  0  0  0  0  0  0
  161.3600  210.9070  150.7810 C   0  0  0  0  0  2  0  0  0  0  0  0
  160.7510  204.8360  152.2900 C   0  0  0  0  0  2  0  0  0  0  0  0
  161.6910  204.5330  149.2910 C   0  0  2  0  0  3  0  0  0  0  0  0
  161.8470  209.4320  148.8390 C   0  0  0  0  0  2  0  0  0  0  0  0
  161.5480  206.9300  149.1820 N   0  0  0  0  0  0  0  0  0  0  0  0
  161.5870  202.1520  149.0270 O   0  0  0  0  0  0  0  0  0  0  0  0
  160.7160  201.3230  148.3130 C   0  0  0  0  0  2  0  0  0  0  0  0
  160.4880  199.5220  145.2590 C   0  0  0  0  0  2  0  0  0  0  0  0
  160.0860  201.7840  145.9460 C   0  0  0  0  0  2  0  0  0  0  0  0
  161.1580  201.2310  146.8650 C   0  0  0  0  0  3  0  0  0  0  0  0
  160.0910  200.8820  144.7350 C   0  0  0  0  0  2  0  0  0  0  0  0
  161.3540  199.7760  146.4770 C   0  0  0  0  0  2  0  0  0  0  0  0
  1 18  2  0  0  0  0
  2 27  1  0  0  0  0
  3 16  1  6  0  0  0
  3  7  1  0  0  0  0
  4 23  1  6  0  0  0
  4 15  1  0  0  0  0
  5 11  1  6  0  0  0
  5 19  1  0  0  0  0
  6  7  1  0  0  0  0
  8 16  1  0  0  0  0
  9 27  1  6  0  0  0
  9 13  1  0  0  0  0
 10 22  1  0  0  0  0
 12  8  2  0  0  0  0
 13 20  1  0  0  0  0
 13 24  1  1  0  0  0
 14  2  1  0  0  0  0
 15 12  1  1  0  0  0
 15  5  1  0  0  0  0
 17 28  1  1  0  0  0
 17 10  1  0  0  0  0
 18  4  1  0  0  0  0
 19  6  1  1  0  0  0
 19  3  1  0  0  0  0
 20 18  1  6  0  0  0
 20 11  1  0  0  0  0
 21 23  1  0  0  0  0
 22 24  1  0  0  0  0
 25 14  1  6  0  0  0
 25 17  1  0  0  0  0
 25  9  1  0  0  0  0
 26 21  1  0  0  0  0
 26  1  1  0  0  0  0
 27  1  1  0  0  0  0
 29 28  1  0  0  0  0
 30 34  1  0  0  0  0
 31 32  1  0  0  0  0
 32 29  1  0  0  0  0
 33 30  1  0  0  0  0
 33 31  1  0  0  0  0
 34 32  1  0  0  0  0
M  END
>  <MODEL>
3

>  <REMARK>
 VINA RESULT:      -8.9      2.281      9.448
  Name = 
  3 active torsions:
  status: ('A' for Active; 'I' for Inactive)
    1  A    between atoms: C_17  and  O_28
    2  A    between atoms: O_28  and  C_29
    3  A    between atoms: C_29  and  C_32
                            x       y       z     vdW  Elec       q    Type
                         _______ _______ _______ _____ _____    ______ ____

>  <TORSDO>
F 3

$$$$
