=
 OpenBabel11122414083D

 28 32  0  0  1  0  0  0  0  0999 V2000
  158.5290  213.7000  152.1310 C   0  0  0  0  0  0  0  0  0  0  0  0
  159.7760  213.7040  155.5840 O   0  0  0  0  0  0  0  0  0  0  0  0
  162.6270  208.9390  151.3440 O   0  0  0  0  0  0  0  0  0  0  0  0
  155.9390  212.9220  152.8710 C   0  0  0  0  0  3  0  0  0  0  0  0
  160.8930  208.4760  152.8670 N   0  0  0  0  0  0  0  0  0  0  0  0
  159.8790  214.1110  151.6410 C   0  0  0  0  0  2  0  0  0  0  0  0
  159.0160  212.0720  157.2600 O   0  0  0  0  0  0  0  0  0  0  0  0
  159.8740  212.2770  156.0440 S   0  0  0  0  0  0  0  0  0  0  0  0
  162.1850  210.8480  155.7210 C   0  0  0  0  0  0  0  0  0  0  0  0
  159.3500  211.1670  154.7620 C   0  0  2  0  0  3  0  0  0  0  0  0
  160.8140  211.8330  148.9340 O   0  0  0  0  0  0  0  0  0  0  0  0
  159.6490  210.4750  152.4620 C   0  0  2  0  0  3  0  0  0  0  0  0
  161.5520  209.9960  154.9680 N   0  0  0  0  0  0  0  0  0  0  0  0
  161.5070  211.8900  156.4170 N   0  0  0  0  0  2  0  0  0  0  0  0
  160.8090  212.3430  150.0850 C   0  0  0  0  0  0  0  0  0  0  0  0
  158.3450  212.5480  152.9220 C   0  0  0  0  0  0  0  0  0  0  0  0
  161.5420  209.2650  151.8960 C   0  0  0  0  0  0  0  0  0  0  0  0
  163.6020  210.7690  155.8110 N   0  0  0  0  0  1  0  0  0  0  0  0
  161.5700  211.6780  151.1840 C   0  0  0  0  0  2  0  0  0  0  0  0
  157.0390  212.1630  153.2740 C   0  0  0  0  0  3  0  0  0  0  0  0
  157.4200  214.4530  151.7280 C   0  0  0  0  0  3  0  0  0  0  0  0
  156.1300  214.0700  152.1020 C   0  0  0  0  0  3  0  0  0  0  0  0
  160.1000  213.5620  150.3120 N   0  0  0  0  0  2  0  0  0  0  0  0
  159.7830  209.2550  153.4070 C   0  0  2  0  0  3  0  0  0  0  0  0
  160.8730  210.4850  151.6510 N   0  0  0  0  0  0  0  0  0  0  0  0
  160.0950  209.8420  154.7940 C   0  0  2  0  0  3  0  0  0  0  0  0
  161.3770  207.2130  153.3980 C   0  0  0  0  0  1  0  0  0  0  0  0
  159.5230  211.7110  153.3520 C   0  0  1  0  0  3  0  0  0  0  0  0
  1 16  1  0  0  0  0
  2  8  2  0  0  0  0
  3 17  2  0  0  0  0
  4 20  1  0  0  0  0
  5 27  1  0  0  0  0
  6  1  1  0  0  0  0
  8 14  1  0  0  0  0
  8  7  2  0  0  0  0
  9 18  1  0  0  0  0
  9 14  1  0  0  0  0
 10 26  1  0  0  0  0
 10  8  1  1  0  0  0
 11 15  2  0  0  0  0
 12 25  1  6  0  0  0
 12 28  1  0  0  0  0
 12 24  1  0  0  0  0
 13  9  2  0  0  0  0
 15 23  1  0  0  0  0
 15 19  1  0  0  0  0
 16 20  2  0  0  0  0
 17  5  1  0  0  0  0
 19 25  1  0  0  0  0
 21 22  1  0  0  0  0
 21  1  2  0  0  0  0
 22  4  2  0  0  0  0
 23  6  1  0  0  0  0
 24  5  1  6  0  0  0
 24 26  1  0  0  0  0
 25 17  1  0  0  0  0
 26 13  1  6  0  0  0
 28 16  1  6  0  0  0
 28 10  1  0  0  0  0
M  END
>  <MODEL>
1

>  <REMARK>
 VINA RESULT:      -1.1      0.000      0.000
  Name = 
  0 active torsions:
  status: ('A' for Active; 'I' for Inactive)
                            x       y       z     vdW  Elec       q    Type
                         _______ _______ _______ _____ _____    ______ ____

>  <TORSDO>
F 0

$$$$
=
 OpenBabel11122414083D

 28 32  0  0  1  0  0  0  0  0999 V2000
  159.0930  211.8800  152.1940 C   0  0  0  0  0  0  0  0  0  0  0  0
  156.7880  212.2910  149.3660 O   0  0  0  0  0  0  0  0  0  0  0  0
  163.5530  211.7560  147.7030 O   0  0  0  0  0  0  0  0  0  0  0  0
  158.5450  214.4200  153.2490 C   0  0  0  0  0  3  0  0  0  0  0  0
  162.3910  213.7990  147.8520 N   0  0  0  0  0  0  0  0  0  0  0  0
  159.4510  210.5140  151.7060 C   0  0  0  0  0  2  0  0  0  0  0  0
  156.4610  214.4530  148.2370 O   0  0  0  0  0  0  0  0  0  0  0  0
  157.3920  213.2870  148.4160 S   0  0  0  0  0  0  0  0  0  0  0  0
  159.0060  212.4750  146.3600 C   0  0  0  0  0  0  0  0  0  0  0  0
  158.9530  213.8710  149.0270 C   0  0  2  0  0  3  0  0  0  0  0  0
  163.1030  210.3030  151.5960 O   0  0  0  0  0  0  0  0  0  0  0  0
  161.1540  213.2520  149.8210 C   0  0  2  0  0  3  0  0  0  0  0  0
  159.9880  213.1670  146.8610 N   0  0  0  0  0  0  0  0  0  0  0  0
  157.6860  212.5450  146.8930 N   0  0  0  0  0  2  0  0  0  0  0  0
  161.9240  210.4100  151.1680 C   0  0  0  0  0  0  0  0  0  0  0  0
  159.2190  213.0200  151.3730 C   0  0  0  0  0  0  0  0  0  0  0  0
  162.7240  212.5000  148.2910 C   0  0  0  0  0  0  0  0  0  0  0  0
  159.2670  211.5840  145.2840 N   0  0  0  0  0  1  0  0  0  0  0  0
  161.6930  210.7080  149.7240 C   0  0  0  0  0  2  0  0  0  0  0  0
  158.9540  214.2880  151.9200 C   0  0  0  0  0  3  0  0  0  0  0  0
  158.6860  212.0230  153.5260 C   0  0  0  0  0  3  0  0  0  0  0  0
  158.4070  213.2860  154.0500 C   0  0  0  0  0  3  0  0  0  0  0  0
  160.8300  210.2180  152.0660 N   0  0  0  0  0  2  0  0  0  0  0  0
  161.2730  214.2720  148.6600 C   0  0  2  0  0  3  0  0  0  0  0  0
  161.9840  212.1060  149.4290 N   0  0  0  0  0  0  0  0  0  0  0  0
  159.9320  214.2010  147.9110 C   0  0  2  0  0  3  0  0  0  0  0  0
  162.9120  214.4530  146.6630 C   0  0  0  0  0  1  0  0  0  0  0  0
  159.6740  212.8920  149.9420 C   0  0  1  0  0  3  0  0  0  0  0  0
  1 21  1  0  0  0  0
  3 17  2  0  0  0  0
  4 22  1  0  0  0  0
  5 17  1  0  0  0  0
  6 23  1  0  0  0  0
  6  1  1  0  0  0  0
  7  8  2  0  0  0  0
  8  2  2  0  0  0  0
  9 13  2  0  0  0  0
  9 14  1  0  0  0  0
 10  8  1  6  0  0  0
 10 28  1  0  0  0  0
 12 25  1  6  0  0  0
 12 28  1  0  0  0  0
 14  8  1  0  0  0  0
 15 11  2  0  0  0  0
 15 23  1  0  0  0  0
 16 20  1  0  0  0  0
 16  1  2  0  0  0  0
 17 25  1  0  0  0  0
 18  9  1  0  0  0  0
 19 15  1  0  0  0  0
 20  4  2  0  0  0  0
 21 22  2  0  0  0  0
 24  5  1  6  0  0  0
 24 12  1  0  0  0  0
 25 19  1  0  0  0  0
 26 13  1  6  0  0  0
 26 24  1  0  0  0  0
 26 10  1  0  0  0  0
 27  5  1  0  0  0  0
 28 16  1  1  0  0  0
M  END
>  <MODEL>
2

>  <REMARK>
 VINA RESULT:      -0.8      3.320      6.324
  Name = 
  0 active torsions:
  status: ('A' for Active; 'I' for Inactive)
                            x       y       z     vdW  Elec       q    Type
                         _______ _______ _______ _____ _____    ______ ____

>  <TORSDO>
F 0

$$$$
=
 OpenBabel11122414083D

 28 32  0  0  1  0  0  0  0  0999 V2000
  159.5240  212.8010  151.8930 C   0  0  0  0  0  0  0  0  0  0  0  0
  160.4020  213.8510  155.3000 O   0  0  0  0  0  0  0  0  0  0  0  0
  162.1480  207.3010  153.6070 O   0  0  0  0  0  0  0  0  0  0  0  0
  156.7630  212.9880  152.3480 C   0  0  0  0  0  3  0  0  0  0  0  0
  160.2230  207.8750  154.8350 N   0  0  0  0  0  0  0  0  0  0  0  0
  160.9740  212.6680  151.5580 C   0  0  0  0  0  2  0  0  0  0  0  0
  159.0590  213.2140  157.2610 O   0  0  0  0  0  0  0  0  0  0  0  0
  160.0460  212.7310  156.2370 S   0  0  0  0  0  0  0  0  0  0  0  0
  161.8740  210.7970  156.8780 C   0  0  0  0  0  0  0  0  0  0  0  0
  159.3460  211.3640  155.3450 C   0  0  2  0  0  3  0  0  0  0  0  0
  161.4620  209.3730  150.0430 O   0  0  0  0  0  0  0  0  0  0  0  0
  159.6430  209.7900  153.5310 C   0  0  2  0  0  3  0  0  0  0  0  0
  161.0950  209.8920  156.3610 N   0  0  0  0  0  0  0  0  0  0  0  0
  161.4610  212.1530  157.0260 N   0  0  0  0  0  2  0  0  0  0  0  0
  161.4990  210.2740  150.9220 C   0  0  0  0  0  0  0  0  0  0  0  0
  158.9480  212.1190  152.9850 C   0  0  0  0  0  0  0  0  0  0  0  0
  161.1560  208.0550  153.7930 C   0  0  0  0  0  0  0  0  0  0  0  0
  163.1950  210.4350  157.2590 N   0  0  0  0  0  1  0  0  0  0  0  0
  161.9350  209.9290  152.3070 C   0  0  0  0  0  2  0  0  0  0  0  0
  157.5600  212.2120  153.1920 C   0  0  0  0  0  3  0  0  0  0  0  0
  158.7170  213.5740  151.0490 C   0  0  0  0  0  3  0  0  0  0  0  0
  157.3430  213.6730  151.2790 C   0  0  0  0  0  3  0  0  0  0  0  0
  161.1480  211.6130  150.5710 N   0  0  0  0  0  2  0  0  0  0  0  0
  159.3380  209.0340  154.8490 C   0  0  2  0  0  3  0  0  0  0  0  0
  160.8870  209.2040  153.0160 N   0  0  0  0  0  0  0  0  0  0  0  0
  159.6770  210.0220  155.9770 C   0  0  2  0  0  3  0  0  0  0  0  0
  160.2770  206.8390  155.8540 C   0  0  0  0  0  1  0  0  0  0  0  0
  159.7940  211.2660  153.8950 C   0  0  1  0  0  3  0  0  0  0  0  0
  1 16  1  0  0  0  0
  2  8  2  0  0  0  0
  3 17  2  0  0  0  0
  4 20  1  0  0  0  0
  5 27  1  0  0  0  0
  6  1  1  0  0  0  0
  8 14  1  0  0  0  0
  8  7  2  0  0  0  0
  9 14  1  0  0  0  0
  9 18  1  0  0  0  0
 10 26  1  0  0  0  0
 10  8  1  1  0  0  0
 11 15  2  0  0  0  0
 12 25  1  1  0  0  0
 12 28  1  0  0  0  0
 12 24  1  0  0  0  0
 13  9  2  0  0  0  0
 15 19  1  0  0  0  0
 16 20  2  0  0  0  0
 17  5  1  0  0  0  0
 19 25  1  0  0  0  0
 21 22  1  0  0  0  0
 21  1  2  0  0  0  0
 22  4  2  0  0  0  0
 23 15  1  0  0  0  0
 23  6  1  0  0  0  0
 24  5  1  1  0  0  0
 24 26  1  0  0  0  0
 25 17  1  0  0  0  0
 26 13  1  6  0  0  0
 28 16  1  6  0  0  0
 28 10  1  0  0  0  0
M  END
>  <MODEL>
3

>  <REMARK>
 VINA RESULT:       0.5      1.334      1.675
  Name = 
  0 active torsions:
  status: ('A' for Active; 'I' for Inactive)
                            x       y       z     vdW  Elec       q    Type
                         _______ _______ _______ _____ _____    ______ ____

>  <TORSDO>
F 0

$$$$
=
 OpenBabel11122414083D

 28 32  0  0  1  0  0  0  0  0999 V2000
  160.9100  208.5350  155.3130 C   0  0  0  0  0  0  0  0  0  0  0  0
  158.5760  211.3530  155.0160 O   0  0  0  0  0  0  0  0  0  0  0  0
  161.3000  209.0350  149.0140 O   0  0  0  0  0  0  0  0  0  0  0  0
  162.8130  210.0220  156.7390 C   0  0  0  0  0  3  0  0  0  0  0  0
  162.0980  210.9180  150.1820 N   0  0  0  0  0  0  0  0  0  0  0  0
  159.9600  207.6650  154.5570 C   0  0  0  0  0  2  0  0  0  0  0  0
  159.3420  213.6720  154.7170 O   0  0  0  0  0  0  0  0  0  0  0  0
  159.1610  212.3410  154.0450 S   0  0  0  0  0  0  0  0  0  0  0  0
  158.5810  212.2040  151.3740 C   0  0  0  0  0  0  0  0  0  0  0  0
  160.7290  211.7700  153.4380 C   0  0  2  0  0  3  0  0  0  0  0  0
  161.8450  206.0380  151.8760 O   0  0  0  0  0  0  0  0  0  0  0  0
  161.9270  209.9620  152.3650 C   0  0  2  0  0  3  0  0  0  0  0  0
  159.8420  212.0150  151.1120 N   0  0  0  0  0  0  0  0  0  0  0  0
  158.1220  212.5160  152.6870 N   0  0  0  0  0  2  0  0  0  0  0  0
  161.0490  206.8460  152.4230 C   0  0  0  0  0  0  0  0  0  0  0  0
  161.3800  209.7560  154.7870 C   0  0  0  0  0  0  0  0  0  0  0  0
  161.6050  209.5990  150.0990 C   0  0  0  0  0  0  0  0  0  0  0  0
  157.6280  212.0400  150.3320 N   0  0  0  0  0  1  0  0  0  0  0  0
  160.4560  207.9510  151.6140 C   0  0  0  0  0  2  0  0  0  0  0  0
  162.3450  210.4830  155.5070 C   0  0  0  0  0  3  0  0  0  0  0  0
  161.3880  208.0780  156.5470 C   0  0  0  0  0  3  0  0  0  0  0  0
  162.3310  208.8210  157.2610 C   0  0  0  0  0  3  0  0  0  0  0  0
  160.7090  206.6740  153.7990 N   0  0  0  0  0  2  0  0  0  0  0  0
  162.1550  211.2860  151.5920 C   0  0  2  0  0  3  0  0  0  0  0  0
  161.4390  209.0000  151.3690 N   0  0  0  0  0  0  0  0  0  0  0  0
  160.9980  212.2090  152.0080 C   0  0  2  0  0  3  0  0  0  0  0  0
  162.2930  211.8240  149.0630 C   0  0  0  0  0  1  0  0  0  0  0  0
  160.8940  210.2580  153.4510 C   0  0  1  0  0  3  0  0  0  0  0  0
  1 21  1  0  0  0  0
  3 17  2  0  0  0  0
  4 22  1  0  0  0  0
  6  1  1  0  0  0  0
  8  7  2  0  0  0  0
  8  2  2  0  0  0  0
  9 14  1  0  0  0  0
 10 28  1  0  0  0  0
 10  8  1  6  0  0  0
 11 15  2  0  0  0  0
 12 25  1  6  0  0  0
 12 28  1  0  0  0  0
 13  9  2  0  0  0  0
 14  8  1  0  0  0  0
 15 23  1  0  0  0  0
 16  1  2  0  0  0  0
 16 20  1  0  0  0  0
 17  5  1  0  0  0  0
 17 25  1  0  0  0  0
 18  9  1  0  0  0  0
 19 15  1  0  0  0  0
 20  4  2  0  0  0  0
 21 22  2  0  0  0  0
 23  6  1  0  0  0  0
 24  5  1  6  0  0  0
 24 26  1  0  0  0  0
 24 12  1  0  0  0  0
 25 19  1  0  0  0  0
 26 13  1  6  0  0  0
 26 10  1  0  0  0  0
 27  5  1  0  0  0  0
 28 16  1  1  0  0  0
M  END
>  <MODEL>
4

>  <REMARK>
 VINA RESULT:       0.9      2.409      5.429
  Name = 
  0 active torsions:
  status: ('A' for Active; 'I' for Inactive)
                            x       y       z     vdW  Elec       q    Type
                         _______ _______ _______ _____ _____    ______ ____

>  <TORSDO>
F 0

$$$$
=
 OpenBabel11122414083D

 28 32  0  0  1  0  0  0  0  0999 V2000
  160.7510  209.2930  153.6940 C   0  0  0  0  0  0  0  0  0  0  0  0
  157.6840  211.3050  153.5200 O   0  0  0  0  0  0  0  0  0  0  0  0
  161.6340  211.3060  147.7570 O   0  0  0  0  0  0  0  0  0  0  0  0
  161.9140  210.9010  155.6740 C   0  0  0  0  0  3  0  0  0  0  0  0
  161.6580  213.0210  149.3700 N   0  0  0  0  0  0  0  0  0  0  0  0
  160.2150  208.3820  152.6380 C   0  0  0  0  0  2  0  0  0  0  0  0
  157.6970  213.7500  153.7890 O   0  0  0  0  0  0  0  0  0  0  0  0
  158.0240  212.6130  152.8630 S   0  0  0  0  0  0  0  0  0  0  0  0
  157.8090  212.9270  150.1530 C   0  0  0  0  0  0  0  0  0  0  0  0
  159.7480  212.6750  152.4420 C   0  0  2  0  0  3  0  0  0  0  0  0
  162.7980  208.0260  150.0700 O   0  0  0  0  0  0  0  0  0  0  0  0
  161.5680  211.5860  151.2780 C   0  0  2  0  0  3  0  0  0  0  0  0
  159.0850  213.1770  150.0820 N   0  0  0  0  0  0  0  0  0  0  0  0
  157.1360  212.7850  151.4010 N   0  0  0  0  0  2  0  0  0  0  0  0
  161.7320  208.4220  150.6110 C   0  0  0  0  0  0  0  0  0  0  0  0
  160.8600  210.6840  153.4900 C   0  0  0  0  0  0  0  0  0  0  0  0
  161.6250  211.6710  148.9630 C   0  0  0  0  0  0  0  0  0  0  0  0
  157.0750  212.7360  148.9500 N   0  0  0  0  0  1  0  0  0  0  0  0
  160.9070  209.4620  149.9280 C   0  0  0  0  0  2  0  0  0  0  0  0
  161.4580  211.4750  154.4860 C   0  0  0  0  0  3  0  0  0  0  0  0
  161.2140  208.7250  154.8870 C   0  0  0  0  0  3  0  0  0  0  0  0
  161.7880  209.5260  155.8760 C   0  0  0  0  0  3  0  0  0  0  0  0
  161.3180  207.8500  151.8520 N   0  0  0  0  0  2  0  0  0  0  0  0
  161.4430  213.0590  150.8120 C   0  0  2  0  0  3  0  0  0  0  0  0
  161.5230  210.7780  150.0530 N   0  0  0  0  0  0  0  0  0  0  0  0
  160.0140  213.4870  151.1840 C   0  0  2  0  0  3  0  0  0  0  0  0
  161.6730  214.1750  148.4870 C   0  0  0  0  0  1  0  0  0  0  0  0
  160.3850  211.3150  152.2050 C   0  0  1  0  0  3  0  0  0  0  0  0
  1 21  1  0  0  0  0
  3 17  2  0  0  0  0
  4 22  1  0  0  0  0
  6  1  1  0  0  0  0
  8  2  2  0  0  0  0
  8  7  2  0  0  0  0
  9 14  1  0  0  0  0
 10  8  1  6  0  0  0
 11 15  2  0  0  0  0
 12 25  1  6  0  0  0
 12 28  1  0  0  0  0
 13  9  2  0  0  0  0
 14  8  1  0  0  0  0
 15 23  1  0  0  0  0
 16  1  2  0  0  0  0
 16 20  1  0  0  0  0
 17  5  1  0  0  0  0
 17 25  1  0  0  0  0
 18  9  1  0  0  0  0
 19 25  1  0  0  0  0
 19 15  1  0  0  0  0
 20  4  2  0  0  0  0
 21 22  2  0  0  0  0
 23  6  1  0  0  0  0
 24  5  1  6  0  0  0
 24 26  1  0  0  0  0
 24 12  1  0  0  0  0
 26 13  1  6  0  0  0
 26 10  1  0  0  0  0
 27  5  1  0  0  0  0
 28 10  1  0  0  0  0
 28 16  1  1  0  0  0
M  END
>  <MODEL>
5

>  <REMARK>
 VINA RESULT:       1.5      2.565      5.449
  Name = 
  0 active torsions:
  status: ('A' for Active; 'I' for Inactive)
                            x       y       z     vdW  Elec       q    Type
                         _______ _______ _______ _____ _____    ______ ____

>  <TORSDO>
F 0

$$$$
