=
 OpenBabel11122414253D

 34 41  0  0  1  0  0  0  0  0999 V2000
  161.0480  204.0470  151.3750 C   0  0  0  0  0  0  0  0  0  0  0  0
  161.0580  205.9660  153.0950 C   0  0  0  0  0  3  0  0  0  0  0  0
  160.0720  201.8210  145.4730 C   0  0  1  0  0  3  0  0  0  0  0  0
  161.0540  202.3810  149.5850 C   0  0  0  0  0  0  0  0  0  0  0  0
  160.9620  203.1580  147.2830 C   0  0  0  0  0  0  0  0  0  0  0  0
  160.4210  203.8080  144.8040 C   0  0  0  0  0  2  0  0  0  0  0  0
  159.6500  202.6090  144.2530 C   0  0  0  0  0  2  0  0  0  0  0  0
  161.6050  200.2390  146.4200 C   0  0  0  0  0  2  0  0  0  0  0  0
  160.9840  206.4610  150.7910 C   0  0  0  0  0  0  0  0  0  0  0  0
  162.0860  209.1790  149.6050 C   0  0  0  0  0  2  0  0  0  0  0  0
  160.9600  204.4440  147.7250 N   0  0  0  0  0  0  0  0  0  0  0  0
  160.9530  200.6020  147.7790 C   0  0  0  0  0  2  0  0  0  0  0  0
  160.9600  206.1850  149.4760 C   0  0  0  0  0  0  0  0  0  0  0  0
  161.0020  207.4920  152.9240 C   0  0  0  0  0  3  0  0  0  0  0  0
  161.0380  202.0740  148.2090 C   0  0  0  0  0  0  0  0  0  0  0  0
  160.7710  200.5630  145.2400 N   0  0  0  0  0  2  0  0  0  0  0  0
  162.2500  208.5910  151.0050 C   0  0  2  0  0  3  0  0  0  0  0  0
  161.0280  203.7280  150.0040 C   0  0  0  0  0  0  0  0  0  0  0  0
  161.0690  202.8900  145.8200 C   0  0  2  0  0  3  0  0  0  0  0  0
  160.9790  204.7600  149.0450 C   0  0  0  0  0  0  0  0  0  0  0  0
  161.1160  201.6900  151.9210 C   0  0  0  0  0  3  0  0  0  0  0  0
  162.1940  208.1200  148.5150 C   0  0  0  0  0  2  0  0  0  0  0  0
  161.0960  201.3700  150.5600 C   0  0  0  0  0  3  0  0  0  0  0  0
  160.9270  207.2790  148.4520 C   0  0  0  0  0  2  0  0  0  0  0  0
  160.9920  207.8110  151.4160 C   0  0  1  0  0  3  0  0  0  0  0  0
  161.0930  203.0250  152.3300 C   0  0  0  0  0  3  0  0  0  0  0  0
  161.0230  205.4280  151.7530 N   0  0  0  0  0  0  0  0  0  0  0  0
  162.4850  209.6400  151.9000 O   0  0  0  0  0  0  0  0  0  0  0  0
  161.3350  210.4300  151.8350 C   0  0  0  0  0  2  0  0  0  0  0  0
  159.6190  210.2180  154.5880 O   0  0  0  0  0  0  0  0  0  0  0  0
  161.9290  210.5480  154.2320 C   0  0  0  0  0  2  0  0  0  0  0  0
  161.1820  211.2250  153.1200 C   0  0  2  0  0  3  0  0  0  0  0  0
  160.8580  210.2230  155.2450 C   0  0  0  0  0  2  0  0  0  0  0  0
  159.7390  211.1770  153.5700 C   0  0  0  0  0  2  0  0  0  0  0  0
  1 27  1  0  0  0  0
  1 26  1  0  0  0  0
  3  7  1  6  0  0  0
  3 19  1  0  0  0  0
  4 18  1  0  0  0  0
  4 23  2  0  0  0  0
  5 11  1  0  0  0  0
  5 15  2  0  0  0  0
  7  6  1  0  0  0  0
  8 12  1  0  0  0  0
  9 25  1  0  0  0  0
  9 27  1  0  0  0  0
 10 17  1  0  0  0  0
 11 20  2  0  0  0  0
 12 15  1  0  0  0  0
 13  9  2  0  0  0  0
 14  2  2  0  0  0  0
 15  4  1  0  0  0  0
 16  3  1  0  0  0  0
 16  8  1  0  0  0  0
 17 25  1  0  0  0  0
 17 28  1  1  0  0  0
 18  1  2  0  0  0  0
 19  6  1  6  0  0  0
 19  5  1  0  0  0  0
 20 13  1  0  0  0  0
 20 18  1  0  0  0  0
 21 26  2  0  0  0  0
 22 10  1  0  0  0  0
 23 21  1  0  0  0  0
 24 22  1  0  0  0  0
 24 13  1  0  0  0  0
 25 14  1  1  0  0  0
 27  2  1  0  0  0  0
 29 28  1  0  0  0  0
 30 33  1  0  0  0  0
 31 33  1  0  0  0  0
 32 29  1  6  0  0  0
 32 34  1  0  0  0  0
 32 31  1  0  0  0  0
 34 30  1  0  0  0  0
M  END
>  <MODEL>
1

>  <REMARK>
 VINA RESULT:      -9.4      0.000      0.000
  Name = 
  3 active torsions:
  status: ('A' for Active; 'I' for Inactive)
    1  A    between atoms: C_17  and  O_28
    2  A    between atoms: O_28  and  C_29
    3  A    between atoms: C_29  and  C_32
                            x       y       z     vdW  Elec       q    Type
                         _______ _______ _______ _____ _____    ______ ____

>  <TORSDO>
F 3

$$$$
=
 OpenBabel11122414253D

 34 41  0  0  1  0  0  0  0  0999 V2000
  161.0690  204.1780  151.3710 C   0  0  0  0  0  0  0  0  0  0  0  0
  161.0460  206.1970  152.9740 C   0  0  0  0  0  3  0  0  0  0  0  0
  160.1460  201.5900  145.6110 C   0  0  1  0  0  3  0  0  0  0  0  0
  161.1030  202.4080  149.6860 C   0  0  0  0  0  0  0  0  0  0  0  0
  161.0110  203.0440  147.3410 C   0  0  0  0  0  0  0  0  0  0  0  0
  160.4720  203.5370  144.8250 C   0  0  0  0  0  2  0  0  0  0  0  0
  159.7190  202.2970  144.3450 C   0  0  0  0  0  2  0  0  0  0  0  0
  161.6960  200.0880  146.6560 C   0  0  0  0  0  2  0  0  0  0  0  0
  160.9760  206.5520  150.6440 C   0  0  0  0  0  0  0  0  0  0  0  0
  162.0470  209.2080  149.3000 C   0  0  0  0  0  2  0  0  0  0  0  0
  160.9910  204.3540  147.7040 N   0  0  0  0  0  0  0  0  0  0  0  0
  161.0330  200.5230  147.9890 C   0  0  0  0  0  2  0  0  0  0  0  0
  160.9610  206.1970  149.3480 C   0  0  0  0  0  0  0  0  0  0  0  0
  160.9710  207.7090  152.7110 C   0  0  0  0  0  3  0  0  0  0  0  0
  161.0970  202.0190  148.3300 C   0  0  0  0  0  0  0  0  0  0  0  0
  160.8630  200.3300  145.4560 N   0  0  0  0  0  2  0  0  0  0  0  0
  162.2130  208.7080  150.7340 C   0  0  2  0  0  3  0  0  0  0  0  0
  161.0580  203.7780  150.0220 C   0  0  0  0  0  0  0  0  0  0  0  0
  161.1280  202.6900  145.8970 C   0  0  2  0  0  3  0  0  0  0  0  0
  160.9990  204.7490  149.0030 C   0  0  0  0  0  0  0  0  0  0  0  0
  161.1640  201.8590  152.0590 C   0  0  0  0  0  3  0  0  0  0  0  0
  162.1740  208.0870  148.2760 C   0  0  0  0  0  2  0  0  0  0  0  0
  161.1550  201.4580  150.7190 C   0  0  0  0  0  3  0  0  0  0  0  0
  160.9180  207.2270  148.2600 C   0  0  0  0  0  2  0  0  0  0  0  0
  160.9640  207.9370  151.1870 C   0  0  1  0  0  3  0  0  0  0  0  0
  161.1220  203.2160  152.3860 C   0  0  0  0  0  3  0  0  0  0  0  0
  161.0230  205.5790  151.6660 N   0  0  0  0  0  0  0  0  0  0  0  0
  162.4310  209.8110  151.5650 O   0  0  0  0  0  0  0  0  0  0  0  0
  161.5060  210.7680  151.1390 C   0  0  0  0  0  2  0  0  0  0  0  0
  158.7690  212.3640  151.8610 O   0  0  0  0  0  0  0  0  0  0  0  0
  159.8810  210.6200  152.9960 C   0  0  0  0  0  2  0  0  0  0  0  0
  160.9160  211.4870  152.3390 C   0  0  2  0  0  3  0  0  0  0  0  0
  158.6100  211.4280  152.8920 C   0  0  0  0  0  2  0  0  0  0  0  0
  160.1330  212.6910  151.8670 C   0  0  0  0  0  2  0  0  0  0  0  0
  1 27  1  0  0  0  0
  1 26  1  0  0  0  0
  3  7  1  6  0  0  0
  3 19  1  0  0  0  0
  4 18  1  0  0  0  0
  4 23  2  0  0  0  0
  5 11  1  0  0  0  0
  5 15  2  0  0  0  0
  7  6  1  0  0  0  0
  8 12  1  0  0  0  0
  9 25  1  0  0  0  0
  9 27  1  0  0  0  0
 10 17  1  0  0  0  0
 11 20  2  0  0  0  0
 12 15  1  0  0  0  0
 13  9  2  0  0  0  0
 14  2  2  0  0  0  0
 15  4  1  0  0  0  0
 16  3  1  0  0  0  0
 16  8  1  0  0  0  0
 17 25  1  0  0  0  0
 17 28  1  1  0  0  0
 18  1  2  0  0  0  0
 19  6  1  6  0  0  0
 19  5  1  0  0  0  0
 20 13  1  0  0  0  0
 20 18  1  0  0  0  0
 21 26  2  0  0  0  0
 22 10  1  0  0  0  0
 23 21  1  0  0  0  0
 24 22  1  0  0  0  0
 24 13  1  0  0  0  0
 25 14  1  1  0  0  0
 27  2  1  0  0  0  0
 29 28  1  0  0  0  0
 30 34  1  0  0  0  0
 30 33  1  0  0  0  0
 32 29  1  6  0  0  0
 32 31  1  0  0  0  0
 33 31  1  0  0  0  0
 34 32  1  0  0  0  0
M  END
>  <MODEL>
2

>  <REMARK>
 VINA RESULT:      -9.4      0.907      1.068
  Name = 
  3 active torsions:
  status: ('A' for Active; 'I' for Inactive)
    1  A    between atoms: C_17  and  O_28
    2  A    between atoms: O_28  and  C_29
    3  A    between atoms: C_29  and  C_32
                            x       y       z     vdW  Elec       q    Type
                         _______ _______ _______ _____ _____    ______ ____

>  <TORSDO>
F 3

$$$$
=
 OpenBabel11122414253D

 34 41  0  0  1  0  0  0  0  0999 V2000
  160.9130  204.8850  152.1390 C   0  0  0  0  0  0  0  0  0  0  0  0
  160.7230  206.2090  154.3430 C   0  0  0  0  0  3  0  0  0  0  0  0
  160.6240  204.5370  145.7730 C   0  0  1  0  0  3  0  0  0  0  0  0
  161.1250  203.8230  149.9480 C   0  0  0  0  0  0  0  0  0  0  0  0
  161.2990  205.2490  147.9860 C   0  0  0  0  0  0  0  0  0  0  0  0
  161.0460  206.6200  145.7680 C   0  0  0  0  0  2  0  0  0  0  0  0
  160.3440  205.6640  144.8040 C   0  0  0  0  0  2  0  0  0  0  0  0
  162.0390  202.6960  146.3700 C   0  0  0  0  0  2  0  0  0  0  0  0
  160.9150  207.3650  152.2970 C   0  0  0  0  0  0  0  0  0  0  0  0
  162.1450  210.2730  152.1010 C   0  0  0  0  0  2  0  0  0  0  0  0
  161.2460  206.3460  148.7870 N   0  0  0  0  0  0  0  0  0  0  0  0
  161.2340  202.6620  147.6950 C   0  0  0  0  0  2  0  0  0  0  0  0
  161.0430  207.4910  150.9650 C   0  0  0  0  0  0  0  0  0  0  0  0
  160.6870  207.7180  154.6290 C   0  0  0  0  0  3  0  0  0  0  0  0
  161.2680  203.9380  148.5500 C   0  0  0  0  0  0  0  0  0  0  0  0
  161.3460  203.3820  145.2550 N   0  0  0  0  0  2  0  0  0  0  0  0
  162.1470  209.2930  153.2730 C   0  0  2  0  0  3  0  0  0  0  0  0
  161.0510  204.9870  150.7430 C   0  0  0  0  0  0  0  0  0  0  0  0
  161.5740  205.4220  146.5300 C   0  0  2  0  0  3  0  0  0  0  0  0
  161.1120  206.2570  150.1350 C   0  0  0  0  0  0  0  0  0  0  0  0
  160.9190  202.4710  151.9640 C   0  0  0  0  0  3  0  0  0  0  0  0
  162.3780  209.5810  150.7650 C   0  0  0  0  0  2  0  0  0  0  0  0
  161.0560  202.5690  150.5760 C   0  0  0  0  0  3  0  0  0  0  0  0
  161.1270  208.8390  150.3160 C   0  0  0  0  0  2  0  0  0  0  0  0
  160.8500  208.4690  153.2920 C   0  0  1  0  0  3  0  0  0  0  0  0
  160.8480  203.6270  152.7460 C   0  0  0  0  0  3  0  0  0  0  0  0
  160.8430  206.0940  152.9070 N   0  0  0  0  0  0  0  0  0  0  0  0
  162.2770  210.0220  154.4590 O   0  0  0  0  0  0  0  0  0  0  0  0
  161.4510  211.1350  154.2880 C   0  0  0  0  0  2  0  0  0  0  0  0
  159.0490  210.2670  156.2980 O   0  0  0  0  0  0  0  0  0  0  0  0
  161.3440  210.6350  156.7060 C   0  0  0  0  0  2  0  0  0  0  0  0
  160.9020  211.5840  155.6300 C   0  0  2  0  0  3  0  0  0  0  0  0
  160.0530  210.0840  157.2600 C   0  0  0  0  0  2  0  0  0  0  0  0
  159.3960  211.4490  155.6260 C   0  0  0  0  0  2  0  0  0  0  0  0
  1 26  1  0  0  0  0
  1 27  1  0  0  0  0
  2 14  2  0  0  0  0
  3  7  1  6  0  0  0
  3 19  1  0  0  0  0
  4 23  2  0  0  0  0
  4 18  1  0  0  0  0
  5 15  2  0  0  0  0
  5 11  1  0  0  0  0
  7  6  1  0  0  0  0
  8 12  1  0  0  0  0
  9 27  1  0  0  0  0
  9 25  1  0  0  0  0
 10 17  1  0  0  0  0
 11 20  2  0  0  0  0
 12 15  1  0  0  0  0
 13  9  2  0  0  0  0
 15  4  1  0  0  0  0
 16  3  1  0  0  0  0
 16  8  1  0  0  0  0
 17 25  1  0  0  0  0
 17 28  1  1  0  0  0
 18  1  2  0  0  0  0
 19  6  1  6  0  0  0
 19  5  1  0  0  0  0
 20 18  1  0  0  0  0
 20 13  1  0  0  0  0
 21 26  2  0  0  0  0
 22 10  1  0  0  0  0
 23 21  1  0  0  0  0
 24 22  1  0  0  0  0
 24 13  1  0  0  0  0
 25 14  1  1  0  0  0
 27  2  1  0  0  0  0
 29 28  1  0  0  0  0
 30 33  1  0  0  0  0
 31 33  1  0  0  0  0
 32 29  1  6  0  0  0
 32 31  1  0  0  0  0
 34 32  1  0  0  0  0
 34 30  1  0  0  0  0
M  END
>  <MODEL>
3

>  <REMARK>
 VINA RESULT:      -8.6      1.541      2.175
  Name = 
  3 active torsions:
  status: ('A' for Active; 'I' for Inactive)
    1  A    between atoms: C_17  and  O_28
    2  A    between atoms: O_28  and  C_29
    3  A    between atoms: C_29  and  C_32
                            x       y       z     vdW  Elec       q    Type
                         _______ _______ _______ _____ _____    ______ ____

>  <TORSDO>
F 3

$$$$
=
 OpenBabel11122414253D

 34 41  0  0  1  0  0  0  0  0999 V2000
  161.7380  208.8780  151.0880 C   0  0  0  0  0  0  0  0  0  0  0  0
  161.8940  210.7930  152.8060 C   0  0  0  0  0  3  0  0  0  0  0  0
  161.6180  202.6680  149.6190 C   0  0  1  0  0  3  0  0  0  0  0  0
  161.5230  206.9310  149.6240 C   0  0  0  0  0  0  0  0  0  0  0  0
  161.0080  204.7800  150.6320 C   0  0  0  0  0  0  0  0  0  0  0  0
  160.9040  202.3450  151.5950 C   0  0  0  0  0  2  0  0  0  0  0  0
  161.6640  201.4970  150.5750 C   0  0  0  0  0  2  0  0  0  0  0  0
  160.5260  203.7040  147.7530 C   0  0  0  0  0  2  0  0  0  0  0  0
  161.3940  208.6070  153.5330 C   0  0  0  0  0  0  0  0  0  0  0  0
  159.7520  208.0330  156.1760 C   0  0  0  0  0  2  0  0  0  0  0  0
  160.9620  205.3710  151.8550 N   0  0  0  0  0  0  0  0  0  0  0  0
  161.4200  204.9320  148.0650 C   0  0  0  0  0  2  0  0  0  0  0  0
  161.1550  207.2910  153.3960 C   0  0  0  0  0  0  0  0  0  0  0  0
  161.7360  210.8100  154.3340 C   0  0  0  0  0  3  0  0  0  0  0  0
  161.2660  205.5550  149.4610 C   0  0  0  0  0  0  0  0  0  0  0  0
  161.0320  202.4270  148.3060 N   0  0  0  0  0  2  0  0  0  0  0  0
  159.9730  209.3510  155.4350 C   0  0  2  0  0  3  0  0  0  0  0  0
  161.4880  207.5040  150.9130 C   0  0  0  0  0  0  0  0  0  0  0  0
  160.6080  203.3490  150.4990 C   0  0  2  0  0  3  0  0  0  0  0  0
  161.2030  206.6960  152.0320 C   0  0  0  0  0  0  0  0  0  0  0  0
  162.0640  209.1210  148.7020 C   0  0  0  0  0  3  0  0  0  0  0  0
  159.5240  206.8640  155.2270 C   0  0  0  0  0  2  0  0  0  0  0  0
  161.8150  207.7560  148.5250 C   0  0  0  0  0  3  0  0  0  0  0  0
  160.8330  206.4310  154.5800 C   0  0  0  0  0  2  0  0  0  0  0  0
  161.3720  209.3870  154.8000 C   0  0  1  0  0  3  0  0  0  0  0  0
  162.0250  209.6830  149.9800 C   0  0  0  0  0  3  0  0  0  0  0  0
  161.6900  209.4160  152.4150 N   0  0  0  0  0  0  0  0  0  0  0  0
  159.8260  210.4000  156.3460 O   0  0  0  0  0  0  0  0  0  0  0  0
  158.4690  210.7270  156.2990 C   0  0  0  0  0  2  0  0  0  0  0  0
  156.1890  212.6780  155.0500 O   0  0  0  0  0  0  0  0  0  0  0  0
  158.5420  212.7580  154.8920 C   0  0  0  0  0  2  0  0  0  0  0  0
  158.1240  211.3170  154.9430 C   0  0  2  0  0  3  0  0  0  0  0  0
  157.2510  213.5030  154.6540 C   0  0  0  0  0  2  0  0  0  0  0  0
  156.6210  211.3700  154.7860 C   0  0  0  0  0  2  0  0  0  0  0  0
  1 27  1  0  0  0  0
  2 14  2  0  0  0  0
  3 19  1  0  0  0  0
  3  7  1  1  0  0  0
  4 18  1  0  0  0  0
  5 11  2  0  0  0  0
  7  6  1  0  0  0  0
  8 12  1  0  0  0  0
  8 16  1  0  0  0  0
  9 25  1  0  0  0  0
 11 20  1  0  0  0  0
 12 15  1  0  0  0  0
 13  9  2  0  0  0  0
 13 24  1  0  0  0  0
 15  4  2  0  0  0  0
 15  5  1  0  0  0  0
 16  3  1  0  0  0  0
 17 10  1  0  0  0  0
 17 28  1  1  0  0  0
 18  1  1  0  0  0  0
 18 20  2  0  0  0  0
 19  5  1  0  0  0  0
 19  6  1  1  0  0  0
 20 13  1  0  0  0  0
 21 26  1  0  0  0  0
 22 10  1  0  0  0  0
 23 21  2  0  0  0  0
 23  4  1  0  0  0  0
 24 22  1  0  0  0  0
 25 14  1  6  0  0  0
 25 17  1  0  0  0  0
 26  1  2  0  0  0  0
 27  2  1  0  0  0  0
 27  9  1  0  0  0  0
 29 28  1  0  0  0  0
 31 32  1  0  0  0  0
 32 29  1  1  0  0  0
 33 31  1  0  0  0  0
 33 30  1  0  0  0  0
 34 32  1  0  0  0  0
 34 30  1  0  0  0  0
M  END
>  <MODEL>
4

>  <REMARK>
 VINA RESULT:      -8.5      1.958      5.051
  Name = 
  3 active torsions:
  status: ('A' for Active; 'I' for Inactive)
    1  A    between atoms: C_17  and  O_28
    2  A    between atoms: O_28  and  C_29
    3  A    between atoms: C_29  and  C_32
                            x       y       z     vdW  Elec       q    Type
                         _______ _______ _______ _____ _____    ______ ____

>  <TORSDO>
F 3

$$$$
=
 OpenBabel11122414253D

 34 41  0  0  1  0  0  0  0  0999 V2000
  161.5800  208.2120  149.6400 C   0  0  0  0  0  0  0  0  0  0  0  0
  161.3720  206.7730  147.5120 C   0  0  0  0  0  3  0  0  0  0  0  0
  160.4290  209.2530  155.8310 C   0  0  1  0  0  3  0  0  0  0  0  0
  161.7380  209.3940  151.7750 C   0  0  0  0  0  0  0  0  0  0  0  0
  161.2120  208.1740  153.8110 C   0  0  0  0  0  0  0  0  0  0  0  0
  160.2570  207.1430  156.0220 C   0  0  0  0  0  2  0  0  0  0  0  0
  159.7060  208.3400  156.7960 C   0  0  0  0  0  2  0  0  0  0  0  0
  162.3690  210.5910  155.3910 C   0  0  0  0  0  2  0  0  0  0  0  0
  160.9250  205.8160  149.6190 C   0  0  0  0  0  0  0  0  0  0  0  0
  161.2630  202.7210  150.1830 C   0  0  0  0  0  2  0  0  0  0  0  0
  160.9820  207.0550  153.0740 N   0  0  0  0  0  0  0  0  0  0  0  0
  161.8160  210.7030  153.9460 C   0  0  0  0  0  2  0  0  0  0  0  0
  160.8080  205.7940  150.9580 C   0  0  0  0  0  0  0  0  0  0  0  0
  160.9670  205.3050  147.3060 C   0  0  0  0  0  3  0  0  0  0  0  0
  161.6290  209.3850  153.1800 C   0  0  0  0  0  0  0  0  0  0  0  0
  161.3530  210.2240  156.4040 N   0  0  0  0  0  2  0  0  0  0  0  0
  161.7130  203.5460  148.9780 C   0  0  2  0  0  3  0  0  0  0  0  0
  161.4690  208.2170  151.0430 C   0  0  0  0  0  0  0  0  0  0  0  0
  161.2030  208.0800  155.3000 C   0  0  2  0  0  3  0  0  0  0  0  0
  161.0850  207.0420  151.7200 C   0  0  0  0  0  0  0  0  0  0  0  0
  162.2210  210.5460  149.6830 C   0  0  0  0  0  3  0  0  0  0  0  0
  161.4710  203.4570  151.5000 C   0  0  0  0  0  2  0  0  0  0  0  0
  162.1130  210.5540  151.0770 C   0  0  0  0  0  3  0  0  0  0  0  0
  160.4190  204.5420  151.6840 C   0  0  0  0  0  2  0  0  0  0  0  0
  160.7120  204.6740  148.6890 C   0  0  1  0  0  3  0  0  0  0  0  0
  161.9560  209.3780  148.9640 C   0  0  0  0  0  3  0  0  0  0  0  0
  161.2990  206.9950  148.9390 N   0  0  0  0  0  0  0  0  0  0  0  0
  161.8180  202.6950  147.8740 O   0  0  0  0  0  0  0  0  0  0  0  0
  161.5810  201.4160  148.3840 C   0  0  0  0  0  2  0  0  0  0  0  0
  160.4630  201.5730  145.3360 O   0  0  0  0  0  0  0  0  0  0  0  0
  161.2060  199.7330  146.6130 C   0  0  0  0  0  2  0  0  0  0  0  0
  160.5380  200.7070  147.5390 C   0  0  2  0  0  3  0  0  0  0  0  0
  160.8310  200.2240  145.2350 C   0  0  0  0  0  2  0  0  0  0  0  0
  159.8850  201.7030  146.6070 C   0  0  0  0  0  2  0  0  0  0  0  0
  1 18  1  0  0  0  0
  2 27  1  0  0  0  0
  3 16  1  0  0  0  0
  3  7  1  1  0  0  0
  4 15  1  0  0  0  0
  5 19  1  0  0  0  0
  6  7  1  0  0  0  0
  8 16  1  0  0  0  0
  9 13  2  0  0  0  0
 10 22  1  0  0  0  0
 11  5  1  0  0  0  0
 12  8  1  0  0  0  0
 13 24  1  0  0  0  0
 13 20  1  0  0  0  0
 14  2  2  0  0  0  0
 15  5  2  0  0  0  0
 15 12  1  0  0  0  0
 17 28  1  6  0  0  0
 17 10  1  0  0  0  0
 18 20  1  0  0  0  0
 18  4  2  0  0  0  0
 19  3  1  0  0  0  0
 19  6  1  6  0  0  0
 20 11  2  0  0  0  0
 21 23  2  0  0  0  0
 22 24  1  0  0  0  0
 23  4  1  0  0  0  0
 25 14  1  6  0  0  0
 25 17  1  0  0  0  0
 25  9  1  0  0  0  0
 26  1  2  0  0  0  0
 26 21  1  0  0  0  0
 27  9  1  0  0  0  0
 27  1  1  0  0  0  0
 28 29  1  0  0  0  0
 30 34  1  0  0  0  0
 31 32  1  0  0  0  0
 32 29  1  1  0  0  0
 33 30  1  0  0  0  0
 33 31  1  0  0  0  0
 34 32  1  0  0  0  0
M  END
>  <MODEL>
5

>  <REMARK>
 VINA RESULT:      -8.3      2.924      9.179
  Name = 
  3 active torsions:
  status: ('A' for Active; 'I' for Inactive)
    1  A    between atoms: C_17  and  O_28
    2  A    between atoms: O_28  and  C_29
    3  A    between atoms: C_29  and  C_32
                            x       y       z     vdW  Elec       q    Type
                         _______ _______ _______ _____ _____    ______ ____

>  <TORSDO>
F 3

$$$$
=
 OpenBabel11122414253D

 34 41  0  0  1  0  0  0  0  0999 V2000
  160.9950  204.9290  151.4650 C   0  0  0  0  0  0  0  0  0  0  0  0
  160.9100  207.1660  152.7430 C   0  0  0  0  0  3  0  0  0  0  0  0
  160.3360  201.5050  146.1190 C   0  0  1  0  0  3  0  0  0  0  0  0
  161.0980  202.9250  150.0680 C   0  0  0  0  0  0  0  0  0  0  0  0
  161.1270  203.2030  147.6520 C   0  0  0  0  0  0  0  0  0  0  0  0
  160.7170  203.3130  145.0670 C   0  0  0  0  0  2  0  0  0  0  0  0
  159.9780  202.0150  144.7410 C   0  0  0  0  0  2  0  0  0  0  0  0
  161.8200  200.1760  147.4540 C   0  0  0  0  0  2  0  0  0  0  0  0
  160.9580  207.1670  150.3860 C   0  0  0  0  0  0  0  0  0  0  0  0
  162.1170  209.5900  148.7140 C   0  0  0  0  0  2  0  0  0  0  0  0
  161.1000  204.5520  147.8140 N   0  0  0  0  0  0  0  0  0  0  0  0
  161.0950  200.8070  148.6720 C   0  0  0  0  0  2  0  0  0  0  0  0
  161.0040  206.6210  149.1590 C   0  0  0  0  0  0  0  0  0  0  0  0
  160.8610  208.6210  152.2530 C   0  0  0  0  0  3  0  0  0  0  0  0
  161.1550  202.3380  148.7870 C   0  0  0  0  0  0  0  0  0  0  0  0
  161.0490  200.2360  146.1910 N   0  0  0  0  0  2  0  0  0  0  0  0
  162.2070  209.3110  150.2140 C   0  0  2  0  0  3  0  0  0  0  0  0
  161.0480  204.3300  150.1930 C   0  0  0  0  0  0  0  0  0  0  0  0
  161.3120  202.6360  146.2850 C   0  0  2  0  0  3  0  0  0  0  0  0
  161.0470  205.1380  149.0380 C   0  0  0  0  0  0  0  0  0  0  0  0
  161.0370  202.7390  152.4960 C   0  0  0  0  0  3  0  0  0  0  0  0
  162.2840  208.3280  147.8780 C   0  0  0  0  0  2  0  0  0  0  0  0
  161.0900  202.1410  151.2330 C   0  0  0  0  0  3  0  0  0  0  0  0
  161.0230  207.4760  147.9280 C   0  0  0  0  0  2  0  0  0  0  0  0
  160.9300  208.6180  150.7140 C   0  0  1  0  0  3  0  0  0  0  0  0
  160.9900  204.1310  152.6140 C   0  0  0  0  0  3  0  0  0  0  0  0
  160.9470  206.3590  151.5440 N   0  0  0  0  0  0  0  0  0  0  0  0
  162.3930  210.5260  150.8790 O   0  0  0  0  0  0  0  0  0  0  0  0
  162.2710  211.5000  149.8860 C   0  0  0  0  0  2  0  0  0  0  0  0
  160.5410  214.0430  150.9390 O   0  0  0  0  0  0  0  0  0  0  0  0
  160.7180  213.0810  148.7910 C   0  0  0  0  0  2  0  0  0  0  0  0
  160.8340  211.9820  149.8070 C   0  0  2  0  0  3  0  0  0  0  0  0
  160.2330  214.2670  149.5900 C   0  0  0  0  0  2  0  0  0  0  0  0
  160.4570  212.6530  151.1090 C   0  0  0  0  0  2  0  0  0  0  0  0
  1 27  1  0  0  0  0
  1 26  1  0  0  0  0
  3  7  1  6  0  0  0
  3 16  1  0  0  0  0
  3 19  1  0  0  0  0
  4 18  1  0  0  0  0
  4 23  2  0  0  0  0
  5 11  1  0  0  0  0
  5 15  2  0  0  0  0
  7  6  1  0  0  0  0
  8 12  1  0  0  0  0
  9 25  1  0  0  0  0
  9 27  1  0  0  0  0
 10 17  1  0  0  0  0
 11 20  2  0  0  0  0
 12 15  1  0  0  0  0
 13  9  2  0  0  0  0
 14  2  2  0  0  0  0
 15  4  1  0  0  0  0
 16  8  1  0  0  0  0
 17 25  1  0  0  0  0
 17 28  1  1  0  0  0
 18  1  2  0  0  0  0
 19  6  1  6  0  0  0
 19  5  1  0  0  0  0
 20 13  1  0  0  0  0
 20 18  1  0  0  0  0
 21 26  2  0  0  0  0
 22 24  1  0  0  0  0
 22 10  1  0  0  0  0
 23 21  1  0  0  0  0
 24 13  1  0  0  0  0
 25 14  1  1  0  0  0
 27  2  1  0  0  0  0
 29 28  1  0  0  0  0
 30 34  1  0  0  0  0
 31 33  1  0  0  0  0
 31 32  1  0  0  0  0
 32 29  1  1  0  0  0
 32 34  1  0  0  0  0
 33 30  1  0  0  0  0
M  END
>  <MODEL>
6

>  <REMARK>
 VINA RESULT:      -8.2      1.700      2.194
  Name = 
  3 active torsions:
  status: ('A' for Active; 'I' for Inactive)
    1  A    between atoms: C_17  and  O_28
    2  A    between atoms: O_28  and  C_29
    3  A    between atoms: C_29  and  C_32
                            x       y       z     vdW  Elec       q    Type
                         _______ _______ _______ _____ _____    ______ ____

>  <TORSDO>
F 3

$$$$
=
 OpenBabel11122414253D

 34 41  0  0  1  0  0  0  0  0999 V2000
  161.8750  208.0350  149.9300 C   0  0  0  0  0  0  0  0  0  0  0  0
  162.2280  210.1260  151.3950 C   0  0  0  0  0  3  0  0  0  0  0  0
  161.5400  201.7040  149.1930 C   0  0  1  0  0  3  0  0  0  0  0  0
  161.4900  205.9430  148.7250 C   0  0  0  0  0  0  0  0  0  0  0  0
  161.0600  203.9290  150.0170 C   0  0  0  0  0  0  0  0  0  0  0  0
  161.0310  201.6200  151.2550 C   0  0  0  0  0  2  0  0  0  0  0  0
  161.6730  200.6470  150.2660 C   0  0  0  0  0  2  0  0  0  0  0  0
  160.2720  202.5500  147.3420 C   0  0  0  0  0  2  0  0  0  0  0  0
  161.7830  208.0460  152.4120 C   0  0  0  0  0  0  0  0  0  0  0  0
  160.4170  207.8070  155.2560 C   0  0  0  0  0  2  0  0  0  0  0  0
  161.1470  204.6540  151.1640 N   0  0  0  0  0  0  0  0  0  0  0  0
  161.2060  203.7850  147.4210 C   0  0  0  0  0  2  0  0  0  0  0  0
  161.5180  206.7290  152.4500 C   0  0  0  0  0  0  0  0  0  0  0  0
  162.2280  210.3170  152.9200 C   0  0  0  0  0  3  0  0  0  0  0  0
  161.2030  204.5630  148.7460 C   0  0  0  0  0  0  0  0  0  0  0  0
  160.8190  201.3320  147.9820 N   0  0  0  0  0  2  0  0  0  0  0  0
  160.5740  209.0280  154.3520 C   0  0  2  0  0  3  0  0  0  0  0  0
  161.5940  206.6560  149.9380 C   0  0  0  0  0  0  0  0  0  0  0  0
  160.6340  202.5010  150.0880 C   0  0  2  0  0  3  0  0  0  0  0  0
  161.4190  205.9840  151.1650 C   0  0  0  0  0  0  0  0  0  0  0  0
  161.9550  208.0040  147.5110 C   0  0  0  0  0  3  0  0  0  0  0  0
  160.0810  206.5450  154.4730 C   0  0  0  0  0  2  0  0  0  0  0  0
  161.6750  206.6330  147.5160 C   0  0  0  0  0  3  0  0  0  0  0  0
  161.3110  206.0140  153.7500 C   0  0  0  0  0  2  0  0  0  0  0  0
  161.9000  208.9630  153.5790 C   0  0  1  0  0  3  0  0  0  0  0  0
  162.0540  208.7050  148.7150 C   0  0  0  0  0  3  0  0  0  0  0  0
  161.9700  208.7190  151.1850 N   0  0  0  0  0  0  0  0  0  0  0  0
  160.5330  210.1760  155.1490 O   0  0  0  0  0  0  0  0  0  0  0  0
  159.2240  210.2280  155.6340 C   0  0  0  0  0  2  0  0  0  0  0  0
  159.5740  212.6100  153.4520 O   0  0  0  0  0  0  0  0  0  0  0  0
  157.6380  211.5230  154.2510 C   0  0  0  0  0  2  0  0  0  0  0  0
  158.6300  211.6000  155.3750 C   0  0  2  0  0  3  0  0  0  0  0  0
  158.2040  212.4480  153.2010 C   0  0  0  0  0  2  0  0  0  0  0  0
  159.7060  212.5210  154.8450 C   0  0  0  0  0  2  0  0  0  0  0  0
  1 18  1  0  0  0  0
  1 27  1  0  0  0  0
  2 14  2  0  0  0  0
  3 19  1  0  0  0  0
  3  7  1  1  0  0  0
  4 15  2  0  0  0  0
  4 18  1  0  0  0  0
  5 19  1  0  0  0  0
  5 11  2  0  0  0  0
  7  6  1  0  0  0  0
  8 12  1  0  0  0  0
  8 16  1  0  0  0  0
  9 13  2  0  0  0  0
  9 25  1  0  0  0  0
 11 20  1  0  0  0  0
 12 15  1  0  0  0  0
 13 24  1  0  0  0  0
 15  5  1  0  0  0  0
 16  3  1  0  0  0  0
 17 28  1  1  0  0  0
 17 10  1  0  0  0  0
 18 20  2  0  0  0  0
 19  6  1  1  0  0  0
 20 13  1  0  0  0  0
 21 23  2  0  0  0  0
 21 26  1  0  0  0  0
 22 10  1  0  0  0  0
 23  4  1  0  0  0  0
 24 22  1  0  0  0  0
 25 14  1  6  0  0  0
 25 17  1  0  0  0  0
 26  1  2  0  0  0  0
 27  2  1  0  0  0  0
 27  9  1  0  0  0  0
 28 29  1  0  0  0  0
 30 34  1  0  0  0  0
 31 32  1  0  0  0  0
 32 29  1  6  0  0  0
 33 30  1  0  0  0  0
 33 31  1  0  0  0  0
 34 32  1  0  0  0  0
M  END
>  <MODEL>
7

>  <REMARK>
 VINA RESULT:      -8.0      1.709      4.368
  Name = 
  3 active torsions:
  status: ('A' for Active; 'I' for Inactive)
    1  A    between atoms: C_17  and  O_28
    2  A    between atoms: O_28  and  C_29
    3  A    between atoms: C_29  and  C_32
                            x       y       z     vdW  Elec       q    Type
                         _______ _______ _______ _____ _____    ______ ____

>  <TORSDO>
F 3

$$$$
=
 OpenBabel11122414253D

 34 41  0  0  1  0  0  0  0  0999 V2000
  161.4400  206.7880  148.1350 C   0  0  0  0  0  0  0  0  0  0  0  0
  161.9480  208.6990  149.7880 C   0  0  0  0  0  3  0  0  0  0  0  0
  161.4250  200.6040  146.5560 C   0  0  1  0  0  3  0  0  0  0  0  0
  160.9570  204.8390  146.7400 C   0  0  0  0  0  0  0  0  0  0  0  0
  160.9730  202.6420  147.7810 C   0  0  0  0  0  0  0  0  0  0  0  0
  161.3870  200.2030  148.6430 C   0  0  0  0  0  2  0  0  0  0  0  0
  161.8680  199.4380  147.4110 C   0  0  0  0  0  2  0  0  0  0  0  0
  159.7230  201.5430  145.1520 C   0  0  0  0  0  2  0  0  0  0  0  0
  161.8930  206.4710  150.5570 C   0  0  0  0  0  0  0  0  0  0  0  0
  161.2040  205.7270  153.5540 C   0  0  0  0  0  2  0  0  0  0  0  0
  161.2530  203.2190  148.9790 N   0  0  0  0  0  0  0  0  0  0  0  0
  160.5570  202.8490  145.2190 C   0  0  0  0  0  2  0  0  0  0  0  0
  161.7410  205.1400  150.4530 C   0  0  0  0  0  0  0  0  0  0  0  0
  162.2670  208.6920  151.2910 C   0  0  0  0  0  3  0  0  0  0  0  0
  160.7860  203.4460  146.6160 C   0  0  0  0  0  0  0  0  0  0  0  0
  160.4870  200.3170  145.4780 N   0  0  0  0  0  2  0  0  0  0  0  0
  161.0680  207.0650  152.8270 C   0  0  2  0  0  3  0  0  0  0  0  0
  161.2710  205.3980  147.9970 C   0  0  0  0  0  0  0  0  0  0  0  0
  160.6800  201.1810  147.7260 C   0  0  2  0  0  3  0  0  0  0  0  0
  161.4190  204.5600  149.1200 C   0  0  0  0  0  0  0  0  0  0  0  0
  160.9900  207.0760  145.7740 C   0  0  0  0  0  3  0  0  0  0  0  0
  160.8000  204.5480  152.6790 C   0  0  0  0  0  2  0  0  0  0  0  0
  160.8210  205.6950  145.6340 C   0  0  0  0  0  3  0  0  0  0  0  0
  161.8780  204.2460  151.6480 C   0  0  0  0  0  2  0  0  0  0  0  0
  162.1930  207.2380  151.7960 C   0  0  1  0  0  3  0  0  0  0  0  0
  161.2980  207.6240  147.0210 C   0  0  0  0  0  3  0  0  0  0  0  0
  161.7560  207.3110  149.4310 N   0  0  0  0  0  0  0  0  0  0  0  0
  161.1160  208.0900  153.7760 O   0  0  0  0  0  0  0  0  0  0  0  0
  160.6460  207.5090  154.9560 C   0  0  0  0  0  2  0  0  0  0  0  0
  162.5970  209.5510  156.5650 O   0  0  0  0  0  0  0  0  0  0  0  0
  160.5710  209.9360  155.4190 C   0  0  0  0  0  2  0  0  0  0  0  0
  160.5080  208.5680  156.0350 C   0  0  2  0  0  3  0  0  0  0  0  0
  161.7770  210.5720  156.0670 C   0  0  0  0  0  2  0  0  0  0  0  0
  161.7190  208.5230  156.9400 C   0  0  0  0  0  2  0  0  0  0  0  0
  1 27  1  0  0  0  0
  2 14  2  0  0  0  0
  3  7  1  1  0  0  0
  3 19  1  0  0  0  0
  4 18  1  0  0  0  0
  5 11  2  0  0  0  0
  7  6  1  0  0  0  0
  8 12  1  0  0  0  0
  8 16  1  0  0  0  0
  9 25  1  0  0  0  0
 11 20  1  0  0  0  0
 12 15  1  0  0  0  0
 13  9  2  0  0  0  0
 13 24  1  0  0  0  0
 15  4  2  0  0  0  0
 15  5  1  0  0  0  0
 16  3  1  0  0  0  0
 17 10  1  0  0  0  0
 17 28  1  1  0  0  0
 18  1  1  0  0  0  0
 18 20  2  0  0  0  0
 19  5  1  0  0  0  0
 19  6  1  1  0  0  0
 20 13  1  0  0  0  0
 21 26  1  0  0  0  0
 22 10  1  0  0  0  0
 23 21  2  0  0  0  0
 23  4  1  0  0  0  0
 24 22  1  0  0  0  0
 25 14  1  6  0  0  0
 25 17  1  0  0  0  0
 26  1  2  0  0  0  0
 27  2  1  0  0  0  0
 27  9  1  0  0  0  0
 28 29  1  0  0  0  0
 30 34  1  0  0  0  0
 31 32  1  0  0  0  0
 31 33  1  0  0  0  0
 32 29  1  6  0  0  0
 32 34  1  0  0  0  0
 33 30  1  0  0  0  0
M  END
>  <MODEL>
8

>  <REMARK>
 VINA RESULT:      -7.7      1.567      3.840
  Name = 
  3 active torsions:
  status: ('A' for Active; 'I' for Inactive)
    1  A    between atoms: C_17  and  O_28
    2  A    between atoms: O_28  and  C_29
    3  A    between atoms: C_29  and  C_32
                            x       y       z     vdW  Elec       q    Type
                         _______ _______ _______ _____ _____    ______ ____

>  <TORSDO>
F 3

$$$$
=
 OpenBabel11122414253D

 34 41  0  0  1  0  0  0  0  0999 V2000
  161.0500  208.2030  152.5560 C   0  0  0  0  0  0  0  0  0  0  0  0
  161.3060  205.6780  153.0070 C   0  0  0  0  0  3  0  0  0  0  0  0
  162.0600  213.3800  148.9640 C   0  0  1  0  0  3  0  0  0  0  0  0
  160.8430  210.5530  151.9150 C   0  0  0  0  0  0  0  0  0  0  0  0
  161.3240  211.1680  149.6130 C   0  0  0  0  0  0  0  0  0  0  0  0
  162.2290  212.0480  147.3170 C   0  0  0  0  0  2  0  0  0  0  0  0
  162.7620  213.4470  147.6260 C   0  0  0  0  0  2  0  0  0  0  0  0
  160.1300  213.9670  150.2600 C   0  0  0  0  0  2  0  0  0  0  0  0
  161.7070  206.5260  150.8440 C   0  0  0  0  0  0  0  0  0  0  0  0
  161.3570  204.7640  148.2400 C   0  0  0  0  0  2  0  0  0  0  0  0
  161.5700  209.8630  149.3220 N   0  0  0  0  0  0  0  0  0  0  0  0
  160.7150  213.0200  151.3390 C   0  0  0  0  0  2  0  0  0  0  0  0
  161.7930  207.4710  149.8920 C   0  0  0  0  0  0  0  0  0  0  0  0
  161.7170  204.5130  152.0930 C   0  0  0  0  0  3  0  0  0  0  0  0
  160.9200  211.5550  150.9260 C   0  0  0  0  0  0  0  0  0  0  0  0
  161.1230  214.4530  149.2750 N   0  0  0  0  0  2  0  0  0  0  0  0
  160.9340  204.4690  149.6780 C   0  0  2  0  0  3  0  0  0  0  0  0
  161.1290  209.2120  151.5790 C   0  0  0  0  0  0  0  0  0  0  0  0
  161.2990  212.1690  148.5070 C   0  0  2  0  0  3  0  0  0  0  0  0
  161.4980  208.8830  150.2590 C   0  0  0  0  0  0  0  0  0  0  0  0
  160.4060  209.8510  154.2070 C   0  0  0  0  0  3  0  0  0  0  0  0
  161.1190  206.2170  147.8510 C   0  0  0  0  0  2  0  0  0  0  0  0
  160.4830  210.8570  153.2390 C   0  0  0  0  0  3  0  0  0  0  0  0
  162.1670  207.1230  148.4830 C   0  0  0  0  0  2  0  0  0  0  0  0
  161.9410  205.0670  150.6720 C   0  0  1  0  0  3  0  0  0  0  0  0
  160.6880  208.5260  153.8680 C   0  0  0  0  0  3  0  0  0  0  0  0
  161.3470  206.8560  152.1690 N   0  0  0  0  0  0  0  0  0  0  0  0
  160.8550  203.0830  149.8400 O   0  0  0  0  0  0  0  0  0  0  0  0
  161.4330  202.5540  148.6840 C   0  0  0  0  0  2  0  0  0  0  0  0
  160.8290  201.0240  145.8810 O   0  0  0  0  0  0  0  0  0  0  0  0
  161.5810  200.1960  147.9580 C   0  0  0  0  0  2  0  0  0  0  0  0
  160.6470  201.3410  148.2210 C   0  0  2  0  0  3  0  0  0  0  0  0
  161.3810  199.8910  146.4930 C   0  0  0  0  0  2  0  0  0  0  0  0
  160.0350  201.6260  146.8680 C   0  0  0  0  0  2  0  0  0  0  0  0
  1 26  1  0  0  0  0
  3  7  1  6  0  0  0
  3 16  1  0  0  0  0
  4 23  2  0  0  0  0
  5 15  2  0  0  0  0
  6  7  1  0  0  0  0
  8 12  1  0  0  0  0
  9 27  1  0  0  0  0
 10 17  1  0  0  0  0
 11  5  1  0  0  0  0
 11 20  2  0  0  0  0
 13 20  1  0  0  0  0
 13  9  2  0  0  0  0
 14  2  2  0  0  0  0
 15 12  1  0  0  0  0
 15  4  1  0  0  0  0
 16  8  1  0  0  0  0
 17 28  1  6  0  0  0
 17 25  1  0  0  0  0
 18  4  1  0  0  0  0
 18  1  2  0  0  0  0
 19  6  1  6  0  0  0
 19  3  1  0  0  0  0
 19  5  1  0  0  0  0
 20 18  1  0  0  0  0
 22 10  1  0  0  0  0
 22 24  1  0  0  0  0
 23 21  1  0  0  0  0
 24 13  1  0  0  0  0
 25  9  1  0  0  0  0
 25 14  1  1  0  0  0
 26 21  2  0  0  0  0
 27  1  1  0  0  0  0
 27  2  1  0  0  0  0
 29 28  1  0  0  0  0
 30 33  1  0  0  0  0
 30 34  1  0  0  0  0
 31 32  1  0  0  0  0
 32 29  1  6  0  0  0
 33 31  1  0  0  0  0
 34 32  1  0  0  0  0
M  END
>  <MODEL>
9

>  <REMARK>
 VINA RESULT:      -7.1      3.409      8.628
  Name = 
  3 active torsions:
  status: ('A' for Active; 'I' for Inactive)
    1  A    between atoms: C_17  and  O_28
    2  A    between atoms: O_28  and  C_29
    3  A    between atoms: C_29  and  C_32
                            x       y       z     vdW  Elec       q    Type
                         _______ _______ _______ _____ _____    ______ ____

>  <TORSDO>
F 3

$$$$
