=
 OpenBabel11122412363D

 30 35  0  0  1  0  0  0  0  0999 V2000
  161.4150  207.7300  151.3990 C   0  0  0  0  0  0  0  0  0  0  0  0
  161.8650  210.1720  151.0290 C   0  0  0  0  0  0  0  0  0  0  0  0
  162.1020  206.6150  147.4040 N   0  0  0  0  0  2  0  0  0  0  0  0
  161.3390  206.3100  150.9240 C   0  0  0  0  0  0  0  0  0  0  0  0
  161.2160  208.0080  152.8340 C   0  0  0  0  0  3  0  0  0  0  0  0
  160.6840  204.7540  154.2080 O   0  0  0  0  0  0  0  0  0  0  0  0
  160.6150  203.1460  150.4390 C   0  0  1  0  0  3  0  0  0  0  0  0
  160.8410  205.6380  153.3230 C   0  0  0  0  0  0  0  0  0  0  0  0
  160.4600  203.9500  149.2150 N   0  0  2  0  0  0  0  0  0  0  0  0
  161.8300  205.1700  147.4670 C   0  0  1  0  0  3  0  0  0  0  0  0
  160.9690  207.0530  153.7280 C   0  0  0  0  0  0  0  0  0  0  0  0
  160.7900  205.2470  151.8650 C   0  0  2  0  0  3  0  0  0  0  0  0
  161.8720  211.1780  149.9070 C   0  0  0  0  0  3  0  0  0  0  0  0
  160.2510  202.9460  148.1670 C   0  0  0  0  0  2  0  0  0  0  0  0
  161.1800  201.7910  150.0770 C   0  0  0  0  0  2  0  0  0  0  0  0
  163.0550  210.2870  151.7500 O   0  0  0  0  0  1  0  0  0  0  0  0
  161.9370  207.0650  148.7190 N   0  0  0  0  0  0  0  0  0  0  0  0
  161.9980  210.8280  148.6240 C   0  0  0  0  0  3  0  0  0  0  0  0
  161.7020  208.7430  150.5460 C   0  0  0  0  0  0  0  0  0  0  0  0
  161.6300  206.0420  149.6320 C   0  0  0  0  0  0  0  0  0  0  0  0
  162.9700  204.4110  146.8170 C   0  0  0  0  0  1  0  0  0  0  0  0
  161.6820  204.7310  148.9460 C   0  0  1  0  0  3  0  0  0  0  0  0
  160.8530  201.6250  148.6160 C   0  0  0  0  0  2  0  0  0  0  0  0
  162.8430  203.7480  151.6070 C   0  0  0  0  0  1  0  0  0  0  0  0
  162.0740  209.4160  148.2190 C   0  0  0  0  0  3  0  0  0  0  0  0
  161.9310  208.4370  149.1150 C   0  0  2  0  0  3  0  0  0  0  0  0
  161.3170  203.8260  151.6330 C   0  0  2  0  0  3  0  0  0  0  0  0
  160.8030  207.4460  155.1630 C   0  0  0  0  0  2  0  0  0  0  0  0
  162.0030  209.0080  156.7010 C   0  0  0  0  0  1  0  0  0  0  0  0
  161.2420  208.8850  155.3930 C   0  0  0  0  0  2  0  0  0  0  0  0
  1  5  1  0  0  0  0
  2 16  1  0  0  0  0
  3 10  1  0  0  0  0
  3 17  1  0  0  0  0
  4  1  1  0  0  0  0
  5 11  2  0  0  0  0
  7 15  1  6  0  0  0
  7 27  1  0  0  0  0
  8 11  1  0  0  0  0
  8  6  2  0  0  0  0
  9 14  1  6  0  0  0
  9  7  1  0  0  0  0
 10 21  1  1  0  0  0
 10 22  1  0  0  0  0
 11 28  1  0  0  0  0
 12  4  1  6  0  0  0
 12  8  1  0  0  0  0
 13  2  2  0  0  0  0
 14 23  1  0  0  0  0
 17 26  1  0  0  0  0
 17 20  1  0  0  0  0
 18 13  1  0  0  0  0
 19  2  1  0  0  0  0
 19  1  2  0  0  0  0
 20  4  2  0  0  0  0
 22  9  1  0  0  0  0
 22 20  1  1  0  0  0
 23 15  1  0  0  0  0
 25 18  2  0  0  0  0
 26 25  1  6  0  0  0
 26 19  1  0  0  0  0
 27 24  1  6  0  0  0
 27 12  1  0  0  0  0
 28 30  1  0  0  0  0
 30 29  1  0  0  0  0
M  END
>  <MODEL>
1

>  <REMARK>
 VINA RESULT:      -6.5      0.000      0.000
  Name = 
  2 active torsions:
  status: ('A' for Active; 'I' for Inactive)
    1  A    between atoms: C_11  and  C_28
    2  A    between atoms: C_28  and  C_30
                            x       y       z     vdW  Elec       q    Type
                         _______ _______ _______ _____ _____    ______ ____

>  <TORSDO>
F 2

$$$$
=
 OpenBabel11122412363D

 30 35  0  0  1  0  0  0  0  0999 V2000
  161.1040  209.0990  152.2830 C   0  0  0  0  0  0  0  0  0  0  0  0
  161.8720  208.8590  149.9060 C   0  0  2  0  0  3  0  0  0  0  0  0
  160.0060  213.1400  151.9130 N   0  0  0  0  0  2  0  0  0  0  0  0
  160.4990  209.8870  153.4070 C   0  0  0  0  0  0  0  0  0  0  0  0
  161.3970  207.6700  152.4980 C   0  0  0  0  0  3  0  0  0  0  0  0
  160.3040  207.1300  155.8560 O   0  0  0  0  0  0  0  0  0  0  0  0
  159.6350  211.1470  156.3110 C   0  0  1  0  0  3  0  0  0  0  0  0
  160.5950  207.7710  154.8100 C   0  0  0  0  0  0  0  0  0  0  0  0
  160.1650  212.1700  155.3930 N   0  0  2  0  0  0  0  0  0  0  0  0
  159.5570  213.4350  153.2830 C   0  0  1  0  0  3  0  0  0  0  0  0
  161.1520  207.0460  153.6490 C   0  0  0  0  0  0  0  0  0  0  0  0
  160.4670  209.2760  154.8000 C   0  0  2  0  0  3  0  0  0  0  0  0
  162.3550  209.7180  148.7660 C   0  0  0  0  0  3  0  0  0  0  0  0
  159.8810  213.4320  156.0800 C   0  0  0  0  0  2  0  0  0  0  0  0
  158.4960  211.7400  157.1110 C   0  0  0  0  0  2  0  0  0  0  0  0
  160.8740  208.0030  149.4380 O   0  0  0  0  0  1  0  0  0  0  0  0
  160.3530  211.7850  151.9360 N   0  0  0  0  0  0  0  0  0  0  0  0
  162.0900  211.0240  148.6840 C   0  0  0  0  0  3  0  0  0  0  0  0
  161.3410  209.6650  151.0750 C   0  0  0  0  0  0  0  0  0  0  0  0
  160.1280  211.1650  153.1760 C   0  0  0  0  0  0  0  0  0  0  0  0
  158.1990  214.1070  153.2380 C   0  0  0  0  0  1  0  0  0  0  0  0
  159.4650  212.1180  154.0950 C   0  0  1  0  0  3  0  0  0  0  0  0
  158.7190  213.2280  157.0380 C   0  0  0  0  0  2  0  0  0  0  0  0
  157.9510  209.6340  155.0610 C   0  0  0  0  0  1  0  0  0  0  0  0
  161.3560  211.7260  149.7480 C   0  0  0  0  0  3  0  0  0  0  0  0
  161.0070  211.0940  150.8710 C   0  0  0  0  0  0  0  0  0  0  0  0
  159.3300  209.7610  155.7070 C   0  0  2  0  0  3  0  0  0  0  0  0
  161.4710  205.5880  153.7510 C   0  0  0  0  0  2  0  0  0  0  0  0
  160.7840  203.6690  152.3040 C   0  0  0  0  0  1  0  0  0  0  0  0
  161.5910  204.9530  152.3720 C   0  0  0  0  0  2  0  0  0  0  0  0
  1  5  1  0  0  0  0
  1  4  1  0  0  0  0
  2 16  1  6  0  0  0
  2 19  1  0  0  0  0
  3 17  1  0  0  0  0
  3 10  1  0  0  0  0
  5 11  2  0  0  0  0
  7 15  1  6  0  0  0
  8  6  2  0  0  0  0
  9 14  1  1  0  0  0
  9  7  1  0  0  0  0
 10 21  1  6  0  0  0
 10 22  1  0  0  0  0
 11 28  1  0  0  0  0
 11  8  1  0  0  0  0
 12  4  1  6  0  0  0
 12  8  1  0  0  0  0
 12 27  1  0  0  0  0
 13  2  1  0  0  0  0
 14 23  1  0  0  0  0
 17 20  1  0  0  0  0
 18 13  2  0  0  0  0
 18 25  1  0  0  0  0
 19  1  2  0  0  0  0
 20  4  2  0  0  0  0
 22 20  1  6  0  0  0
 22  9  1  0  0  0  0
 23 15  1  0  0  0  0
 25 26  2  0  0  0  0
 26 19  1  0  0  0  0
 26 17  1  0  0  0  0
 27 24  1  6  0  0  0
 27  7  1  0  0  0  0
 29 30  1  0  0  0  0
 30 28  1  0  0  0  0
M  END
>  <MODEL>
2

>  <REMARK>
 VINA RESULT:      -5.2      3.509      7.189
  Name = 
  2 active torsions:
  status: ('A' for Active; 'I' for Inactive)
    1  A    between atoms: C_11  and  C_28
    2  A    between atoms: C_28  and  C_30
                            x       y       z     vdW  Elec       q    Type
                         _______ _______ _______ _____ _____    ______ ____

>  <TORSDO>
F 2

$$$$
=
 OpenBabel11122412363D

 30 35  0  0  1  0  0  0  0  0999 V2000
  161.5440  207.0460  151.2000 C   0  0  0  0  0  0  0  0  0  0  0  0
  161.7980  207.3870  148.7260 C   0  0  2  0  0  3  0  0  0  0  0  0
  161.3520  211.1430  152.1230 N   0  0  0  0  0  2  0  0  0  0  0  0
  161.3470  207.5590  152.5950 C   0  0  0  0  0  0  0  0  0  0  0  0
  161.5360  205.5890  150.9750 C   0  0  0  0  0  3  0  0  0  0  0  0
  160.9680  204.2800  154.2500 O   0  0  0  0  0  0  0  0  0  0  0  0
  161.3300  208.0390  155.8410 C   0  0  1  0  0  3  0  0  0  0  0  0
  161.2060  205.1410  153.3590 C   0  0  0  0  0  0  0  0  0  0  0  0
  161.9060  209.1800  155.1100 N   0  0  2  0  0  0  0  0  0  0  0  0
  161.2360  211.0940  153.5900 C   0  0  1  0  0  3  0  0  0  0  0  0
  161.3650  204.7050  151.9560 C   0  0  0  0  0  0  0  0  0  0  0  0
  161.4260  206.5810  153.7570 C   0  0  2  0  0  3  0  0  0  0  0  0
  162.2530  208.4480  147.7570 C   0  0  0  0  0  3  0  0  0  0  0  0
  162.0460  210.2140  156.1390 C   0  0  0  0  0  2  0  0  0  0  0  0
  160.5190  208.5550  157.0090 C   0  0  0  0  0  2  0  0  0  0  0  0
  160.5630  206.8900  148.3080 O   0  0  0  0  0  1  0  0  0  0  0  0
  161.3790  209.8020  151.7240 N   0  0  0  0  0  0  0  0  0  0  0  0
  162.2840  209.7460  148.0700 C   0  0  0  0  0  3  0  0  0  0  0  0
  161.6840  207.8930  150.1510 C   0  0  0  0  0  0  0  0  0  0  0  0
  161.2430  208.8930  152.7860 C   0  0  0  0  0  0  0  0  0  0  0  0
  160.0830  211.9700  154.0360 C   0  0  0  0  0  1  0  0  0  0  0  0
  160.9910  209.6320  154.0440 C   0  0  1  0  0  3  0  0  0  0  0  0
  161.0590  209.9390  157.2610 C   0  0  0  0  0  2  0  0  0  0  0  0
  159.1470  207.2700  154.6850 C   0  0  0  0  0  1  0  0  0  0  0  0
  161.9320  210.2180  149.4180 C   0  0  0  0  0  3  0  0  0  0  0  0
  161.6550  209.3540  150.3970 C   0  0  0  0  0  0  0  0  0  0  0  0
  160.6120  206.9650  154.9990 C   0  0  2  0  0  3  0  0  0  0  0  0
  161.3540  203.2490  151.6110 C   0  0  0  0  0  2  0  0  0  0  0  0
  160.8510  201.5450  149.8540 C   0  0  0  0  0  1  0  0  0  0  0  0
  160.8150  203.0210  150.2060 C   0  0  0  0  0  2  0  0  0  0  0  0
  1  4  1  0  0  0  0
  2 16  1  6  0  0  0
  2 19  1  0  0  0  0
  3 10  1  0  0  0  0
  4 20  2  0  0  0  0
  5  1  1  0  0  0  0
  5 11  2  0  0  0  0
  7 15  1  1  0  0  0
  8 12  1  0  0  0  0
  8  6  2  0  0  0  0
  9  7  1  0  0  0  0
  9 14  1  1  0  0  0
 10 21  1  6  0  0  0
 10 22  1  0  0  0  0
 11  8  1  0  0  0  0
 12  4  1  6  0  0  0
 12 27  1  0  0  0  0
 13 18  2  0  0  0  0
 13  2  1  0  0  0  0
 14 23  1  0  0  0  0
 15 23  1  0  0  0  0
 17  3  1  0  0  0  0
 17 20  1  0  0  0  0
 18 25  1  0  0  0  0
 19 26  1  0  0  0  0
 19  1  2  0  0  0  0
 22 20  1  6  0  0  0
 22  9  1  0  0  0  0
 25 26  2  0  0  0  0
 26 17  1  0  0  0  0
 27 24  1  6  0  0  0
 27  7  1  0  0  0  0
 28 11  1  0  0  0  0
 29 30  1  0  0  0  0
 30 28  1  0  0  0  0
M  END
>  <MODEL>
3

>  <REMARK>
 VINA RESULT:      -4.5      2.344      6.163
  Name = 
  2 active torsions:
  status: ('A' for Active; 'I' for Inactive)
    1  A    between atoms: C_11  and  C_28
    2  A    between atoms: C_28  and  C_30
                            x       y       z     vdW  Elec       q    Type
                         _______ _______ _______ _____ _____    ______ ____

>  <TORSDO>
F 2

$$$$
=
 OpenBabel11122412363D

 30 35  0  0  1  0  0  0  0  0999 V2000
  161.4130  208.3330  150.1330 C   0  0  0  0  0  0  0  0  0  0  0  0
  161.7250  206.4040  148.5570 C   0  0  2  0  0  3  0  0  0  0  0  0
  160.8510  205.9400  153.5430 N   0  0  0  0  0  2  0  0  0  0  0  0
  161.1990  208.9030  151.5030 C   0  0  0  0  0  0  0  0  0  0  0  0
  161.6620  209.2580  149.0120 C   0  0  0  0  0  3  0  0  0  0  0  0
  161.5810  212.4610  150.5920 O   0  0  0  0  0  0  0  0  0  0  0  0
  160.3670  210.7270  154.1010 C   0  0  1  0  0  3  0  0  0  0  0  0
  161.4580  211.2110  150.4750 C   0  0  0  0  0  0  0  0  0  0  0  0
  159.8450  209.3530  154.1910 N   0  0  2  0  0  0  0  0  0  0  0  0
  160.6130  206.9680  154.5700 C   0  0  1  0  0  3  0  0  0  0  0  0
  161.7010  210.5810  149.1600 C   0  0  0  0  0  0  0  0  0  0  0  0
  160.9660  210.3990  151.6490 C   0  0  2  0  0  3  0  0  0  0  0  0
  161.3870  204.9380  148.4590 C   0  0  0  0  0  3  0  0  0  0  0  0
  159.3280  209.2690  155.5600 C   0  0  0  0  0  2  0  0  0  0  0  0
  160.7980  211.1870  155.4760 C   0  0  0  0  0  2  0  0  0  0  0  0
  163.0770  206.5780  148.2610 O   0  0  0  0  0  1  0  0  0  0  0  0
  161.0930  206.6610  152.3690 N   0  0  0  0  0  0  0  0  0  0  0  0
  161.1160  204.1880  149.5300 C   0  0  0  0  0  3  0  0  0  0  0  0
  161.4240  206.9940  149.9210 C   0  0  0  0  0  0  0  0  0  0  0  0
  161.0820  208.0540  152.5470 C   0  0  0  0  0  0  0  0  0  0  0  0
  161.5020  206.7020  155.7680 C   0  0  0  0  0  1  0  0  0  0  0  0
  160.9250  208.3690  153.9850 C   0  0  1  0  0  3  0  0  0  0  0  0
  160.0410  210.2950  156.4260 C   0  0  0  0  0  2  0  0  0  0  0  0
  162.8450  210.6750  153.3590 C   0  0  0  0  0  1  0  0  0  0  0  0
  161.0660  204.7680  150.8810 C   0  0  0  0  0  3  0  0  0  0  0  0
  161.2060  206.0820  151.0680 C   0  0  0  0  0  0  0  0  0  0  0  0
  161.3990  211.0060  152.9890 C   0  0  2  0  0  3  0  0  0  0  0  0
  161.9810  211.4260  147.9570 C   0  0  0  0  0  2  0  0  0  0  0  0
  160.8470  213.5380  147.2550 C   0  0  0  0  0  1  0  0  0  0  0  0
  160.7010  212.0350  147.4030 C   0  0  0  0  0  2  0  0  0  0  0  0
  1  4  1  0  0  0  0
  2 16  1  1  0  0  0
  2 19  1  0  0  0  0
  3 10  1  0  0  0  0
  4 12  1  0  0  0  0
  4 20  2  0  0  0  0
  5 11  2  0  0  0  0
  5  1  1  0  0  0  0
  7  9  1  0  0  0  0
  7 15  1  1  0  0  0
  8  6  2  0  0  0  0
  9 14  1  1  0  0  0
 10 21  1  1  0  0  0
 11  8  1  0  0  0  0
 12  8  1  6  0  0  0
 12 27  1  0  0  0  0
 13  2  1  0  0  0  0
 13 18  2  0  0  0  0
 14 23  1  0  0  0  0
 15 23  1  0  0  0  0
 17 20  1  0  0  0  0
 17  3  1  0  0  0  0
 18 25  1  0  0  0  0
 19  1  2  0  0  0  0
 19 26  1  0  0  0  0
 22 20  1  6  0  0  0
 22  9  1  0  0  0  0
 22 10  1  0  0  0  0
 25 26  2  0  0  0  0
 26 17  1  0  0  0  0
 27 24  1  1  0  0  0
 27  7  1  0  0  0  0
 28 11  1  0  0  0  0
 29 30  1  0  0  0  0
 30 28  1  0  0  0  0
M  END
>  <MODEL>
4

>  <REMARK>
 VINA RESULT:      -4.2      2.388      6.970
  Name = 
  2 active torsions:
  status: ('A' for Active; 'I' for Inactive)
    1  A    between atoms: C_11  and  C_28
    2  A    between atoms: C_28  and  C_30
                            x       y       z     vdW  Elec       q    Type
                         _______ _______ _______ _____ _____    ______ ____

>  <TORSDO>
F 2

$$$$
=
 OpenBabel11122412363D

 30 35  0  0  1  0  0  0  0  0999 V2000
  160.5440  210.4600  152.6570 C   0  0  0  0  0  0  0  0  0  0  0  0
  161.8220  210.3160  150.5010 C   0  0  2  0  0  3  0  0  0  0  0  0
  158.4590  213.9600  151.6210 N   0  0  0  0  0  2  0  0  0  0  0  0
  159.5260  211.0980  153.5530 C   0  0  0  0  0  0  0  0  0  0  0  0
  161.1750  209.1990  153.0890 C   0  0  0  0  0  3  0  0  0  0  0  0
  159.6110  208.5620  156.2360 O   0  0  0  0  0  0  0  0  0  0  0  0
  157.7640  212.2170  156.0860 C   0  0  1  0  0  3  0  0  0  0  0  0
  159.9190  209.1960  155.1900 C   0  0  0  0  0  0  0  0  0  0  0  0
  158.1640  213.2940  155.1630 N   0  0  2  0  0  0  0  0  0  0  0  0
  157.6730  214.1900  152.8440 C   0  0  1  0  0  3  0  0  0  0  0  0
  160.8840  208.6010  154.2420 C   0  0  0  0  0  0  0  0  0  0  0  0
  159.3800  210.5910  154.9800 C   0  0  2  0  0  3  0  0  0  0  0  0
  162.2690  211.2090  149.3720 C   0  0  0  0  0  3  0  0  0  0  0  0
  157.4020  214.4530  155.6340 C   0  0  0  0  0  2  0  0  0  0  0  0
  156.3660  212.4910  156.5930 C   0  0  0  0  0  2  0  0  0  0  0  0
  161.2220  209.1750  149.9660 O   0  0  0  0  0  1  0  0  0  0  0  0
  159.1590  212.7740  151.8660 N   0  0  0  0  0  0  0  0  0  0  0  0
  161.6710  212.3700  149.0910 C   0  0  0  0  0  3  0  0  0  0  0  0
  160.8570  210.9970  151.4530 C   0  0  0  0  0  0  0  0  0  0  0  0
  158.8670  212.1910  153.1100 C   0  0  0  0  0  0  0  0  0  0  0  0
  156.2210  214.4230  152.4770 C   0  0  0  0  0  1  0  0  0  0  0  0
  157.7890  212.9570  153.7760 C   0  0  1  0  0  3  0  0  0  0  0  0
  156.1720  213.9710  156.3850 C   0  0  0  0  0  2  0  0  0  0  0  0
  156.8660  210.1980  154.7410 C   0  0  0  0  0  1  0  0  0  0  0  0
  160.5670  212.8840  149.9160 C   0  0  0  0  0  3  0  0  0  0  0  0
  160.1850  212.2460  151.0250 C   0  0  0  0  0  0  0  0  0  0  0  0
  157.9910  210.7700  155.6050 C   0  0  2  0  0  3  0  0  0  0  0  0
  161.5710  207.3130  154.5710 C   0  0  0  0  0  2  0  0  0  0  0  0
  161.0270  205.4210  153.0330 C   0  0  0  0  0  1  0  0  0  0  0  0
  161.9800  206.5700  153.3080 C   0  0  0  0  0  2  0  0  0  0  0  0
  1  5  1  0  0  0  0
  1  4  1  0  0  0  0
  2 16  1  6  0  0  0
  2 19  1  0  0  0  0
  3 17  1  0  0  0  0
  3 10  1  0  0  0  0
  5 11  2  0  0  0  0
  7 15  1  6  0  0  0
  8  6  2  0  0  0  0
  9 14  1  1  0  0  0
  9  7  1  0  0  0  0
 10 21  1  6  0  0  0
 10 22  1  0  0  0  0
 11 28  1  0  0  0  0
 11  8  1  0  0  0  0
 12  4  1  6  0  0  0
 12  8  1  0  0  0  0
 12 27  1  0  0  0  0
 13  2  1  0  0  0  0
 14 23  1  0  0  0  0
 17 20  1  0  0  0  0
 18 13  2  0  0  0  0
 18 25  1  0  0  0  0
 19  1  2  0  0  0  0
 20  4  2  0  0  0  0
 22 20  1  6  0  0  0
 22  9  1  0  0  0  0
 23 15  1  0  0  0  0
 25 26  2  0  0  0  0
 26 19  1  0  0  0  0
 26 17  1  0  0  0  0
 27 24  1  6  0  0  0
 27  7  1  0  0  0  0
 29 30  1  0  0  0  0
 30 28  1  0  0  0  0
M  END
>  <MODEL>
5

>  <REMARK>
 VINA RESULT:      -4.2      4.522      7.846
  Name = 
  2 active torsions:
  status: ('A' for Active; 'I' for Inactive)
    1  A    between atoms: C_11  and  C_28
    2  A    between atoms: C_28  and  C_30
                            x       y       z     vdW  Elec       q    Type
                         _______ _______ _______ _____ _____    ______ ____

>  <TORSDO>
F 2

$$$$
=
 OpenBabel11122412363D

 30 35  0  0  1  0  0  0  0  0999 V2000
  160.8760  204.7250  148.9700 C   0  0  0  0  0  0  0  0  0  0  0  0
  160.7310  202.2410  148.6390 C   0  0  2  0  0  3  0  0  0  0  0  0
  161.2060  204.5240  153.1560 N   0  0  0  0  0  2  0  0  0  0  0  0
  161.0410  205.9390  149.8340 C   0  0  0  0  0  0  0  0  0  0  0  0
  160.8310  204.9000  147.5060 C   0  0  0  0  0  3  0  0  0  0  0  0
  161.2170  208.4290  147.1130 O   0  0  0  0  0  0  0  0  0  0  0  0
  160.9550  208.9350  151.1720 C   0  0  1  0  0  3  0  0  0  0  0  0
  161.0500  207.3300  147.7090 C   0  0  0  0  0  0  0  0  0  0  0  0
  160.4560  207.8970  152.0900 N   0  0  2  0  0  0  0  0  0  0  0  0
  161.2640  205.9530  153.5010 C   0  0  1  0  0  3  0  0  0  0  0  0
  160.9260  206.0890  146.9160 C   0  0  0  0  0  0  0  0  0  0  0  0
  160.8760  207.3160  149.2090 C   0  0  2  0  0  3  0  0  0  0  0  0
  160.3590  201.0020  149.4120 C   0  0  0  0  0  3  0  0  0  0  0  0
  160.3200  208.6030  153.3670 C   0  0  0  0  0  2  0  0  0  0  0  0
  161.7420  209.9590  151.9590 C   0  0  0  0  0  2  0  0  0  0  0  0
  161.9580  202.0320  148.0090 O   0  0  0  0  0  1  0  0  0  0  0  0
  161.1380  204.4980  151.7590 N   0  0  0  0  0  0  0  0  0  0  0  0
  160.3710  200.9540  150.7470 C   0  0  0  0  0  3  0  0  0  0  0  0
  160.8110  203.4820  149.5060 C   0  0  0  0  0  0  0  0  0  0  0  0
  161.1940  205.7700  151.1660 C   0  0  0  0  0  0  0  0  0  0  0  0
  162.4350  206.2030  154.4300 C   0  0  0  0  0  1  0  0  0  0  0  0
  161.4280  206.7940  152.2100 C   0  0  1  0  0  3  0  0  0  0  0  0
  161.2510  209.8040  153.3750 C   0  0  0  0  0  2  0  0  0  0  0  0
  163.1450  208.1340  150.0520 C   0  0  0  0  0  1  0  0  0  0  0  0
  160.6900  202.1410  151.5540 C   0  0  0  0  0  3  0  0  0  0  0  0
  160.8930  203.3280  150.9780 C   0  0  0  0  0  0  0  0  0  0  0  0
  161.6580  208.4470  149.8880 C   0  0  2  0  0  3  0  0  0  0  0  0
  160.8880  206.1480  145.4210 C   0  0  0  0  0  2  0  0  0  0  0  0
  162.9530  204.7480  145.2730 C   0  0  0  0  0  1  0  0  0  0  0  0
  161.5170  204.9070  144.8050 C   0  0  0  0  0  2  0  0  0  0  0  0
  1 19  2  0  0  0  0
  1  4  1  0  0  0  0
  2 16  1  1  0  0  0
  2 13  1  0  0  0  0
  2 19  1  0  0  0  0
  3 10  1  0  0  0  0
  4 20  2  0  0  0  0
  5  1  1  0  0  0  0
  6  8  2  0  0  0  0
  7 15  1  1  0  0  0
  7  9  1  0  0  0  0
  9 22  1  0  0  0  0
  9 14  1  1  0  0  0
 10 21  1  1  0  0  0
 11  5  2  0  0  0  0
 11  8  1  0  0  0  0
 12  8  1  6  0  0  0
 12  4  1  0  0  0  0
 12 27  1  0  0  0  0
 13 18  2  0  0  0  0
 14 23  1  0  0  0  0
 15 23  1  0  0  0  0
 17  3  1  0  0  0  0
 18 25  1  0  0  0  0
 19 26  1  0  0  0  0
 20 17  1  0  0  0  0
 22 20  1  6  0  0  0
 22 10  1  0  0  0  0
 26 25  2  0  0  0  0
 26 17  1  0  0  0  0
 27 24  1  1  0  0  0
 27  7  1  0  0  0  0
 28 11  1  0  0  0  0
 30 29  1  0  0  0  0
 30 28  1  0  0  0  0
M  END
>  <MODEL>
6

>  <REMARK>
 VINA RESULT:      -4.1      2.463      7.237
  Name = 
  2 active torsions:
  status: ('A' for Active; 'I' for Inactive)
    1  A    between atoms: C_11  and  C_28
    2  A    between atoms: C_28  and  C_30
                            x       y       z     vdW  Elec       q    Type
                         _______ _______ _______ _____ _____    ______ ____

>  <TORSDO>
F 2

$$$$
=
 OpenBabel11122412363D

 30 35  0  0  1  0  0  0  0  0999 V2000
  161.5690  207.9340  151.2340 C   0  0  0  0  0  0  0  0  0  0  0  0
  161.2720  208.3910  153.6850 C   0  0  0  0  0  0  0  0  0  0  0  0
  160.7260  203.8250  151.5180 N   0  0  0  0  0  2  0  0  0  0  0  0
  161.5410  207.0230  150.0440 C   0  0  0  0  0  0  0  0  0  0  0  0
  161.8150  209.3720  151.0190 C   0  0  0  0  0  3  0  0  0  0  0  0
  162.1600  209.5980  147.4710 O   0  0  0  0  0  0  0  0  0  0  0  0
  162.0450  205.5130  147.1740 C   0  0  1  0  0  3  0  0  0  0  0  0
  162.0430  209.0530  148.6030 C   0  0  0  0  0  0  0  0  0  0  0  0
  162.2270  204.6080  148.3220 N   0  0  2  0  0  0  0  0  0  0  0  0
  160.9040  203.4050  150.1180 C   0  0  1  0  0  3  0  0  0  0  0  0
  162.0180  209.8990  149.8140 C   0  0  0  0  0  0  0  0  0  0  0  0
  162.0380  207.5460  148.7040 C   0  0  2  0  0  3  0  0  0  0  0  0
  161.3080  207.6560  155.0000 C   0  0  0  0  0  3  0  0  0  0  0  0
  162.3470  203.2850  147.7030 C   0  0  0  0  0  2  0  0  0  0  0  0
  161.3840  204.7550  146.0440 C   0  0  0  0  0  2  0  0  0  0  0  0
  160.1080  209.1580  153.6260 O   0  0  0  0  0  1  0  0  0  0  0  0
  160.9490  205.2060  151.5060 N   0  0  0  0  0  0  0  0  0  0  0  0
  161.1330  206.3350  155.0930 C   0  0  0  0  0  3  0  0  0  0  0  0
  161.3320  207.4660  152.4840 C   0  0  0  0  0  0  0  0  0  0  0  0
  161.2060  205.7270  150.2270 C   0  0  0  0  0  0  0  0  0  0  0  0
  159.7040  202.5930  149.6760 C   0  0  0  0  0  1  0  0  0  0  0  0
  161.0530  204.6560  149.2150 C   0  0  1  0  0  3  0  0  0  0  0  0
  161.6690  203.3070  146.3440 C   0  0  0  0  0  2  0  0  0  0  0  0
  159.8860  206.9020  147.4870 C   0  0  0  0  0  1  0  0  0  0  0  0
  160.9560  205.4980  153.8960 C   0  0  0  0  0  3  0  0  0  0  0  0
  161.0530  206.0230  152.6730 C   0  0  2  0  0  3  0  0  0  0  0  0
  161.4140  206.8890  147.4670 C   0  0  2  0  0  3  0  0  0  0  0  0
  162.2380  211.3750  149.7090 C   0  0  0  0  0  2  0  0  0  0  0  0
  160.9120  212.9990  148.3490 C   0  0  0  0  0  1  0  0  0  0  0  0
  160.9170  212.1220  149.5880 C   0  0  0  0  0  2  0  0  0  0  0  0
  1 19  2  0  0  0  0
  2 13  2  0  0  0  0
  4 20  2  0  0  0  0
  4  1  1  0  0  0  0
  5  1  1  0  0  0  0
  6  8  2  0  0  0  0
  7 15  1  6  0  0  0
  7 27  1  0  0  0  0
  7  9  1  0  0  0  0
  8 11  1  0  0  0  0
  9 14  1  6  0  0  0
  9 22  1  0  0  0  0
 10 21  1  6  0  0  0
 10  3  1  0  0  0  0
 11  5  2  0  0  0  0
 12  8  1  6  0  0  0
 12  4  1  0  0  0  0
 13 18  1  0  0  0  0
 15 23  1  0  0  0  0
 16  2  1  0  0  0  0
 17  3  1  0  0  0  0
 17 26  1  0  0  0  0
 19 26  1  0  0  0  0
 19  2  1  0  0  0  0
 20 17  1  0  0  0  0
 22 10  1  0  0  0  0
 22 20  1  1  0  0  0
 23 14  1  0  0  0  0
 25 18  2  0  0  0  0
 26 25  1  1  0  0  0
 27 24  1  1  0  0  0
 27 12  1  0  0  0  0
 28 11  1  0  0  0  0
 29 30  1  0  0  0  0
 30 28  1  0  0  0  0
M  END
>  <MODEL>
7

>  <REMARK>
 VINA RESULT:      -4.0      1.711      4.929
  Name = 
  2 active torsions:
  status: ('A' for Active; 'I' for Inactive)
    1  A    between atoms: C_11  and  C_28
    2  A    between atoms: C_28  and  C_30
                            x       y       z     vdW  Elec       q    Type
                         _______ _______ _______ _____ _____    ______ ____

>  <TORSDO>
F 2

$$$$
=
 OpenBabel11122412363D

 30 35  0  0  1  0  0  0  0  0999 V2000
  161.7000  208.7590  151.6450 C   0  0  0  0  0  0  0  0  0  0  0  0
  161.6390  210.3270  153.6050 C   0  0  2  0  0  3  0  0  0  0  0  0
  160.7920  205.3220  153.8900 N   0  0  0  0  0  2  0  0  0  0  0  0
  161.5420  207.4010  151.0300 C   0  0  0  0  0  0  0  0  0  0  0  0
  161.9580  209.9100  150.7610 C   0  0  0  0  0  3  0  0  0  0  0  0
  161.9830  208.4290  147.5110 O   0  0  0  0  0  0  0  0  0  0  0  0
  161.7470  204.6950  149.1840 C   0  0  1  0  0  3  0  0  0  0  0  0
  161.9570  208.4850  148.7710 C   0  0  0  0  0  0  0  0  0  0  0  0
  162.0120  204.4230  150.6070 N   0  0  2  0  0  0  0  0  0  0  0  0
  160.8310  204.2870  152.8450 C   0  0  1  0  0  3  0  0  0  0  0  0
  162.0620  209.7990  149.4380 C   0  0  0  0  0  0  0  0  0  0  0  0
  161.9260  207.2050  149.5710 C   0  0  2  0  0  3  0  0  0  0  0  0
  161.7770  210.2910  155.1050 C   0  0  0  0  0  3  0  0  0  0  0  0
  162.0450  202.9600  150.6780 C   0  0  0  0  0  2  0  0  0  0  0  0
  160.9680  203.5410  148.5930 C   0  0  0  0  0  2  0  0  0  0  0  0
  160.4920  211.0490  153.2720 O   0  0  0  0  0  1  0  0  0  0  0  0
  161.0440  206.5200  153.2130 N   0  0  0  0  0  0  0  0  0  0  0  0
  161.5810  209.1810  155.8220 C   0  0  0  0  0  3  0  0  0  0  0  0
  161.5670  208.9460  152.9810 C   0  0  0  0  0  0  0  0  0  0  0  0
  161.1950  206.3650  151.8250 C   0  0  0  0  0  0  0  0  0  0  0  0
  159.5770  203.4400  152.9230 C   0  0  0  0  0  1  0  0  0  0  0  0
  160.9260  204.9580  151.4510 C   0  0  1  0  0  3  0  0  0  0  0  0
  161.2460  202.3860  149.5200 C   0  0  0  0  0  2  0  0  0  0  0  0
  159.6580  206.2030  148.9540 C   0  0  0  0  0  1  0  0  0  0  0  0
  161.2770  207.8950  155.1760 C   0  0  0  0  0  3  0  0  0  0  0  0
  161.2730  207.7800  153.8460 C   0  0  0  0  0  0  0  0  0  0  0  0
  161.1780  206.0860  148.8360 C   0  0  2  0  0  3  0  0  0  0  0  0
  162.3060  211.0370  148.6350 C   0  0  0  0  0  2  0  0  0  0  0  0
  161.6480  213.4190  148.2600 C   0  0  0  0  0  1  0  0  0  0  0  0
  161.4530  212.1940  149.1350 C   0  0  0  0  0  2  0  0  0  0  0  0
  1 19  2  0  0  0  0
  2 16  1  1  0  0  0
  2 13  1  0  0  0  0
  4  1  1  0  0  0  0
  4 20  2  0  0  0  0
  5  1  1  0  0  0  0
  6  8  2  0  0  0  0
  7 15  1  1  0  0  0
  7  9  1  0  0  0  0
  8 11  1  0  0  0  0
  9 14  1  6  0  0  0
  9 22  1  0  0  0  0
 10 21  1  6  0  0  0
 10  3  1  0  0  0  0
 11  5  2  0  0  0  0
 12  8  1  6  0  0  0
 12  4  1  0  0  0  0
 13 18  2  0  0  0  0
 15 23  1  0  0  0  0
 17 26  1  0  0  0  0
 17  3  1  0  0  0  0
 19  2  1  0  0  0  0
 19 26  1  0  0  0  0
 20 17  1  0  0  0  0
 22 20  1  1  0  0  0
 22 10  1  0  0  0  0
 23 14  1  0  0  0  0
 25 18  1  0  0  0  0
 26 25  2  0  0  0  0
 27 24  1  1  0  0  0
 27  7  1  0  0  0  0
 27 12  1  0  0  0  0
 28 30  1  0  0  0  0
 28 11  1  0  0  0  0
 29 30  1  0  0  0  0
M  END
>  <MODEL>
8

>  <REMARK>
 VINA RESULT:      -3.8      2.022      4.960
  Name = 
  2 active torsions:
  status: ('A' for Active; 'I' for Inactive)
    1  A    between atoms: C_11  and  C_28
    2  A    between atoms: C_28  and  C_30
                            x       y       z     vdW  Elec       q    Type
                         _______ _______ _______ _____ _____    ______ ____

>  <TORSDO>
F 2

$$$$
=
 OpenBabel11122412363D

 30 35  0  0  1  0  0  0  0  0999 V2000
  161.2910  203.5000  147.2780 C   0  0  0  0  0  0  0  0  0  0  0  0
  161.1460  203.9740  144.8170 C   0  0  2  0  0  3  0  0  0  0  0  0
  161.3650  207.5420  148.4320 N   0  0  0  0  0  2  0  0  0  0  0  0
  161.3400  203.9380  148.7110 C   0  0  0  0  0  0  0  0  0  0  0  0
  161.2070  202.0580  146.9820 C   0  0  0  0  0  3  0  0  0  0  0  0
  161.1470  200.5800  150.2330 O   0  0  0  0  0  0  0  0  0  0  0  0
  161.8670  204.2370  151.9360 C   0  0  1  0  0  3  0  0  0  0  0  0
  161.2590  201.4840  149.3620 C   0  0  0  0  0  0  0  0  0  0  0  0
  162.3470  205.4060  151.1800 N   0  0  2  0  0  0  0  0  0  0  0  0
  161.4890  207.4140  149.8930 C   0  0  1  0  0  3  0  0  0  0  0  0
  161.1750  201.1240  147.9310 C   0  0  0  0  0  0  0  0  0  0  0  0
  161.5810  202.8960  149.7920 C   0  0  2  0  0  3  0  0  0  0  0  0
  161.4650  205.0780  143.8430 C   0  0  0  0  0  3  0  0  0  0  0  0
  162.6820  206.3790  152.2240 C   0  0  0  0  0  2  0  0  0  0  0  0
  161.2730  204.7020  153.2470 C   0  0  0  0  0  2  0  0  0  0  0  0
  159.8460  203.5230  144.5830 O   0  0  0  0  0  1  0  0  0  0  0  0
  161.2890  206.2250  147.9650 N   0  0  0  0  0  0  0  0  0  0  0  0
  161.5820  206.3560  144.2130 C   0  0  0  0  0  3  0  0  0  0  0  0
  161.2810  204.4010  146.2660 C   0  0  0  0  0  0  0  0  0  0  0  0
  161.3050  205.2610  148.9860 C   0  0  0  0  0  0  0  0  0  0  0  0
  160.4500  208.2850  150.5680 C   0  0  0  0  0  1  0  0  0  0  0  0
  161.2830  205.9340  150.3040 C   0  0  1  0  0  3  0  0  0  0  0  0
  161.8850  206.0590  153.4780 C   0  0  0  0  0  2  0  0  0  0  0  0
  159.5050  203.5730  151.1180 C   0  0  0  0  0  1  0  0  0  0  0  0
  161.4690  206.7590  145.6240 C   0  0  0  0  0  3  0  0  0  0  0  0
  161.3330  205.8470  146.5880 C   0  0  0  0  0  0  0  0  0  0  0  0
  160.9930  203.2240  151.1690 C   0  0  2  0  0  3  0  0  0  0  0  0
  161.0680  199.6910  147.5170 C   0  0  0  0  0  2  0  0  0  0  0  0
  161.5800  198.1290  145.6350 C   0  0  0  0  0  1  0  0  0  0  0  0
  161.1780  199.5440  146.0060 C   0  0  0  0  0  2  0  0  0  0  0  0
  1  4  1  0  0  0  0
  2 16  1  1  0  0  0
  2 19  1  0  0  0  0
  3 10  1  0  0  0  0
  4 20  2  0  0  0  0
  5  1  1  0  0  0  0
  5 11  2  0  0  0  0
  7 15  1  1  0  0  0
  8 12  1  0  0  0  0
  8  6  2  0  0  0  0
  9  7  1  0  0  0  0
  9 14  1  1  0  0  0
 10 22  1  0  0  0  0
 10 21  1  1  0  0  0
 11  8  1  0  0  0  0
 12  4  1  6  0  0  0
 12 27  1  0  0  0  0
 13 18  2  0  0  0  0
 13  2  1  0  0  0  0
 14 23  1  0  0  0  0
 15 23  1  0  0  0  0
 17  3  1  0  0  0  0
 17 20  1  0  0  0  0
 18 25  1  0  0  0  0
 19 26  1  0  0  0  0
 19  1  2  0  0  0  0
 22 20  1  6  0  0  0
 22  9  1  0  0  0  0
 25 26  2  0  0  0  0
 26 17  1  0  0  0  0
 27 24  1  6  0  0  0
 27  7  1  0  0  0  0
 28 11  1  0  0  0  0
 29 30  1  0  0  0  0
 30 28  1  0  0  0  0
M  END
>  <MODEL>
9

>  <REMARK>
 VINA RESULT:      -3.8      2.851      6.679
  Name = 
  2 active torsions:
  status: ('A' for Active; 'I' for Inactive)
    1  A    between atoms: C_11  and  C_28
    2  A    between atoms: C_28  and  C_30
                            x       y       z     vdW  Elec       q    Type
                         _______ _______ _______ _____ _____    ______ ____

>  <TORSDO>
F 2

$$$$
