=
 OpenBabel11122412513D

 32 37  0  0  1  0  0  0  0  0999 V2000
  161.5800  201.7050  150.3720 C   0  0  0  0  0  2  0  0  0  0  0  0
  161.0050  206.8490  152.2160 C   0  0  1  0  0  3  0  0  0  0  0  0
  162.2560  209.8870  148.4550 C   0  0  0  0  0  3  0  0  0  0  0  0
  162.0930  210.9810  149.3070 C   0  0  0  0  0  3  0  0  0  0  0  0
  161.2460  207.8610  154.5830 C   0  0  0  0  0  0  0  0  0  0  0  0
  160.8650  209.1230  155.3300 C   0  0  1  0  0  3  0  0  0  0  0  0
  160.5040  204.4330  151.8110 C   0  0  1  0  0  3  0  0  0  0  0  0
  160.8560  206.0240  149.8630 C   0  0  0  0  0  2  0  0  0  0  0  0
  161.0190  211.4550  155.2800 C   0  0  2  0  0  3  0  0  0  0  0  0
  160.2700  203.6580  149.3570 C   0  0  0  0  0  2  0  0  0  0  0  0
  162.0750  208.5910  148.9410 C   0  0  0  0  0  3  0  0  0  0  0  0
  161.6170  206.9550  150.8060 C   0  0  1  0  0  3  0  0  0  0  0  0
  161.7160  208.3730  150.2790 C   0  0  0  0  0  0  0  0  0  0  0  0
  161.1610  209.2720  152.5720 C   0  0  2  0  0  3  0  0  0  0  0  0
  161.6670  210.9710  156.5680 C   0  0  0  0  0  2  0  0  0  0  0  0
  161.8470  202.2500  151.7860 C   0  0  0  0  0  2  0  0  0  0  0  0
  160.9870  204.5810  150.3460 C   0  0  2  0  0  3  0  0  0  0  0  0
  161.8840  209.4930  156.3790 C   0  0  0  0  0  2  0  0  0  0  0  0
  160.6670  203.0200  152.3880 C   0  0  0  0  0  2  0  0  0  0  0  0
  160.2560  202.1780  149.7540 C   0  0  1  0  0  3  0  0  0  0  0  0
  161.7610  210.7800  150.6480 C   0  0  0  0  0  3  0  0  0  0  0  0
  161.6020  209.4810  151.1510 C   0  0  0  0  0  0  0  0  0  0  0  0
  161.6010  210.2800  153.4400 O   0  0  0  0  0  0  0  0  0  0  0  0
  161.2310  205.4260  152.7190 C   0  0  0  0  0  2  0  0  0  0  0  0
  161.3200  206.8080  155.1950 O   0  0  0  0  0  0  0  0  0  0  0  0
  159.7620  212.2380  155.6010 C   0  0  0  0  0  1  0  0  0  0  0  0
  161.6200  207.9260  153.1170 C   0  0  2  0  0  3  0  0  0  0  0  0
  160.6860  210.2970  154.4540 N   0  0  1  0  0  0  0  0  0  0  0  0
  159.9060  201.3400  148.5350 C   0  0  0  0  0  2  0  0  0  0  0  0
  161.0420  201.3100  147.5690 C   0  0  0  0  0  0  0  0  0  0  0  0
  161.8690  200.1970  147.5030 O   0  0  0  0  0  1  0  0  0  0  0  0
  161.2330  202.2820  146.7920 O   0  0  0  0  0  0  0  0  0  0  0  0
  1 16  1  0  0  0  0
  2 24  1  1  0  0  0
  2 27  1  0  0  0  0
  3 11  2  0  0  0  0
  3  4  1  0  0  0  0
  4 21  2  0  0  0  0
  5 25  2  0  0  0  0
  5  6  1  0  0  0  0
  6 18  1  1  0  0  0
  7 19  1  1  0  0  0
  7 24  1  0  0  0  0
  8 17  1  0  0  0  0
  9 26  1  1  0  0  0
  9 15  1  0  0  0  0
 10 20  1  0  0  0  0
 11 13  1  0  0  0  0
 12  8  1  6  0  0  0
 12  2  1  0  0  0  0
 13 12  1  0  0  0  0
 13 22  2  0  0  0  0
 14 22  1  6  0  0  0
 14 27  1  0  0  0  0
 14 23  1  0  0  0  0
 16 19  1  0  0  0  0
 17 10  1  6  0  0  0
 17  7  1  0  0  0  0
 18 15  1  0  0  0  0
 20 29  1  6  0  0  0
 20  1  1  0  0  0  0
 21 22  1  0  0  0  0
 27  5  1  1  0  0  0
 28 23  1  6  0  0  0
 28  9  1  0  0  0  0
 28  6  1  0  0  0  0
 30 29  1  0  0  0  0
 31 30  1  0  0  0  0
 32 30  2  0  0  0  0
M  END
>  <MODEL>
1

>  <REMARK>
 VINA RESULT:      -9.7      0.000      0.000
  Name = 
  2 active torsions:
  status: ('A' for Active; 'I' for Inactive)
    1  A    between atoms: C_20  and  C_29
    2  A    between atoms: C_29  and  C_30
                            x       y       z     vdW  Elec       q    Type
                         _______ _______ _______ _____ _____    ______ ____

>  <TORSDO>
F 2

$$$$
=
 OpenBabel11122412513D

 32 37  0  0  1  0  0  0  0  0999 V2000
  161.9710  209.9150  154.5000 C   0  0  0  0  0  2  0  0  0  0  0  0
  161.0770  206.5880  150.2190 C   0  0  1  0  0  3  0  0  0  0  0  0
  161.2310  201.9100  151.9600 C   0  0  0  0  0  3  0  0  0  0  0  0
  161.0840  201.4370  150.6550 C   0  0  0  0  0  3  0  0  0  0  0  0
  161.6070  206.8500  147.7020 C   0  0  0  0  0  0  0  0  0  0  0  0
  161.2060  206.2280  146.3790 C   0  0  1  0  0  3  0  0  0  0  0  0
  160.8290  208.5340  151.7690 C   0  0  1  0  0  3  0  0  0  0  0  0
  160.6170  206.1560  152.6360 C   0  0  0  0  0  2  0  0  0  0  0  0
  161.0470  204.1990  145.2300 C   0  0  2  0  0  3  0  0  0  0  0  0
  160.2610  208.0280  154.2390 C   0  0  0  0  0  2  0  0  0  0  0  0
  161.3090  203.2830  152.2010 C   0  0  0  0  0  3  0  0  0  0  0  0
  161.4080  205.6800  151.4190 C   0  0  1  0  0  3  0  0  0  0  0  0
  161.2270  204.2000  151.1420 C   0  0  0  0  0  0  0  0  0  0  0  0
  160.9810  204.6820  148.6770 C   0  0  2  0  0  3  0  0  0  0  0  0
  161.9720  205.1120  144.4410 C   0  0  0  0  0  2  0  0  0  0  0  0
  162.4160  210.0970  153.0380 C   0  0  0  0  0  2  0  0  0  0  0  0
  161.0180  207.5900  152.9820 C   0  0  2  0  0  3  0  0  0  0  0  0
  162.3400  206.2260  145.3850 C   0  0  0  0  0  2  0  0  0  0  0  0
  161.2730  209.9820  152.0230 C   0  0  0  0  0  2  0  0  0  0  0  0
  160.5090  209.4790  154.6650 C   0  0  1  0  0  3  0  0  0  0  0  0
  161.0270  202.3360  149.5880 C   0  0  0  0  0  3  0  0  0  0  0  0
  161.1300  203.7150  149.8170 C   0  0  0  0  0  0  0  0  0  0  0  0
  161.4350  204.1680  147.4560 O   0  0  0  0  0  0  0  0  0  0  0  0
  161.5720  207.9950  150.5470 C   0  0  0  0  0  2  0  0  0  0  0  0
  161.9250  208.0280  147.7320 O   0  0  0  0  0  0  0  0  0  0  0  0
  159.7770  203.9490  144.4410 C   0  0  0  0  0  1  0  0  0  0  0  0
  161.7000  205.9970  148.9490 C   0  0  2  0  0  3  0  0  0  0  0  0
  160.7230  204.8380  146.5030 N   0  0  1  0  0  0  0  0  0  0  0  0
  160.0580  209.6580  156.1050 C   0  0  0  0  0  2  0  0  0  0  0  0
  159.0560  210.7580  156.2130 C   0  0  0  0  0  0  0  0  0  0  0  0
  157.9560  210.7800  155.3660 O   0  0  0  0  0  0  0  0  0  0  0  0
  159.1910  211.6480  157.0920 O   0  0  0  0  0  1  0  0  0  0  0  0
  1 20  1  0  0  0  0
  2 24  1  1  0  0  0
  2 12  1  0  0  0  0
  3 11  1  0  0  0  0
  4  3  2  0  0  0  0
  5 25  2  0  0  0  0
  6 18  1  6  0  0  0
  6 28  1  0  0  0  0
  6  5  1  0  0  0  0
  7 24  1  6  0  0  0
  7 19  1  0  0  0  0
  7 17  1  0  0  0  0
  9 26  1  6  0  0  0
  9 28  1  0  0  0  0
 10 20  1  0  0  0  0
 12  8  1  1  0  0  0
 13 12  1  0  0  0  0
 13 11  2  0  0  0  0
 14 23  1  6  0  0  0
 14 27  1  0  0  0  0
 14 22  1  0  0  0  0
 15  9  1  0  0  0  0
 15 18  1  0  0  0  0
 16  1  1  0  0  0  0
 17  8  1  6  0  0  0
 17 10  1  0  0  0  0
 19 16  1  0  0  0  0
 20 29  1  1  0  0  0
 21 22  2  0  0  0  0
 21  4  1  0  0  0  0
 22 13  1  0  0  0  0
 27  5  1  6  0  0  0
 27  2  1  0  0  0  0
 28 23  1  1  0  0  0
 29 30  1  0  0  0  0
 30 32  1  0  0  0  0
 31 30  2  0  0  0  0
M  END
>  <MODEL>
2

>  <REMARK>
 VINA RESULT:      -9.5      2.996      8.790
  Name = 
  2 active torsions:
  status: ('A' for Active; 'I' for Inactive)
    1  A    between atoms: C_20  and  C_29
    2  A    between atoms: C_29  and  C_30
                            x       y       z     vdW  Elec       q    Type
                         _______ _______ _______ _____ _____    ______ ____

>  <TORSDO>
F 2

$$$$
=
 OpenBabel11122412513D

 32 37  0  0  1  0  0  0  0  0999 V2000
  161.9520  201.4420  149.0020 C   0  0  0  0  0  2  0  0  0  0  0  0
  160.9440  206.1440  151.6620 C   0  0  1  0  0  3  0  0  0  0  0  0
  162.3310  209.8560  148.6230 C   0  0  0  0  0  3  0  0  0  0  0  0
  162.0390  210.7720  149.6360 C   0  0  0  0  0  3  0  0  0  0  0  0
  160.9340  206.7220  154.1820 C   0  0  0  0  0  0  0  0  0  0  0  0
  160.4240  207.8130  155.1020 C   0  0  1  0  0  3  0  0  0  0  0  0
  160.6130  203.8220  150.7950 C   0  0  1  0  0  3  0  0  0  0  0  0
  161.0360  205.7500  149.1970 C   0  0  0  0  0  2  0  0  0  0  0  0
  160.4530  210.1190  155.4770 C   0  0  2  0  0  3  0  0  0  0  0  0
  160.6250  203.4920  148.2320 C   0  0  0  0  0  2  0  0  0  0  0  0
  162.1830  208.4870  148.8550 C   0  0  0  0  0  3  0  0  0  0  0  0
  161.6630  206.5250  150.3540 C   0  0  1  0  0  3  0  0  0  0  0  0
  161.7270  208.0180  150.0970 C   0  0  0  0  0  0  0  0  0  0  0  0
  160.9370  208.4670  152.4520 C   0  0  2  0  0  3  0  0  0  0  0  0
  161.0180  209.4370  156.7130 C   0  0  0  0  0  2  0  0  0  0  0  0
  162.0720  201.7340  150.5090 C   0  0  0  0  0  2  0  0  0  0  0  0
  161.2060  204.2500  149.4290 C   0  0  2  0  0  3  0  0  0  0  0  0
  161.3310  208.0270  156.2880 C   0  0  0  0  0  2  0  0  0  0  0  0
  160.8050  202.3350  151.1270 C   0  0  0  0  0  2  0  0  0  0  0  0
  160.6600  201.9660  148.3590 C   0  0  1  0  0  3  0  0  0  0  0  0
  161.6090  210.3190  150.8850 C   0  0  0  0  0  3  0  0  0  0  0  0
  161.4810  208.9460  151.1350 C   0  0  0  0  0  0  0  0  0  0  0  0
  161.2470  209.3190  153.5190 O   0  0  0  0  0  0  0  0  0  0  0  0
  161.2060  204.6630  151.9260 C   0  0  0  0  0  2  0  0  0  0  0  0
  161.0160  205.5800  154.6040 O   0  0  0  0  0  0  0  0  0  0  0  0
  159.1320  210.7810  155.8150 C   0  0  0  0  0  1  0  0  0  0  0  0
  161.4230  207.0640  152.7910 C   0  0  2  0  0  3  0  0  0  0  0  0
  160.2530  209.1170  154.4330 N   0  0  1  0  0  0  0  0  0  0  0  0
  160.4580  201.3470  146.9860 C   0  0  0  0  0  2  0  0  0  0  0  0
  160.8090  202.3200  145.9110 C   0  0  0  0  0  0  0  0  0  0  0  0
  161.9560  203.0940  146.0220 O   0  0  0  0  0  1  0  0  0  0  0  0
  160.0810  202.4170  144.8890 O   0  0  0  0  0  0  0  0  0  0  0  0
  1 16  1  0  0  0  0
  2 24  1  1  0  0  0
  2 27  1  0  0  0  0
  3 11  2  0  0  0  0
  3  4  1  0  0  0  0
  4 21  2  0  0  0  0
  5 25  2  0  0  0  0
  5  6  1  0  0  0  0
  6 18  1  1  0  0  0
  7 19  1  1  0  0  0
  7 24  1  0  0  0  0
  8 17  1  0  0  0  0
  9 26  1  1  0  0  0
  9 15  1  0  0  0  0
 10 20  1  0  0  0  0
 11 13  1  0  0  0  0
 12  8  1  6  0  0  0
 12  2  1  0  0  0  0
 13 12  1  0  0  0  0
 13 22  2  0  0  0  0
 14 22  1  6  0  0  0
 14 27  1  0  0  0  0
 14 23  1  0  0  0  0
 16 19  1  0  0  0  0
 17 10  1  6  0  0  0
 17  7  1  0  0  0  0
 18 15  1  0  0  0  0
 20 29  1  6  0  0  0
 20  1  1  0  0  0  0
 21 22  1  0  0  0  0
 27  5  1  1  0  0  0
 28 23  1  6  0  0  0
 28  6  1  0  0  0  0
 28  9  1  0  0  0  0
 30 31  1  0  0  0  0
 30 29  1  0  0  0  0
 32 30  2  0  0  0  0
M  END
>  <MODEL>
3

>  <REMARK>
 VINA RESULT:      -9.2      1.161      1.344
  Name = 
  2 active torsions:
  status: ('A' for Active; 'I' for Inactive)
    1  A    between atoms: C_20  and  C_29
    2  A    between atoms: C_29  and  C_30
                            x       y       z     vdW  Elec       q    Type
                         _______ _______ _______ _____ _____    ______ ____

>  <TORSDO>
F 2

$$$$
