=
 OpenBabel11122413313D

 31 35  0  0  1  0  0  0  0  0999 V2000
  161.8820  210.1940  156.3200 C   0  0  2  0  0  3  0  0  0  0  0  0
  162.1610  209.2420  152.5880 C   0  0  2  0  0  3  0  0  0  0  0  0
  161.6980  208.0120  151.8360 C   0  0  0  0  0  0  0  0  0  0  0  0
  161.1330  205.7000  151.8390 C   0  0  0  0  0  0  0  0  0  0  0  0
  161.6350  209.2650  154.0300 C   0  0  1  0  0  3  0  0  0  0  0  0
  160.6040  210.7780  156.2310 O   0  0  0  0  0  0  0  0  0  0  0  0
  161.5210  206.8290  152.4900 N   0  0  0  0  0  0  0  0  0  0  0  0
  160.3440  210.8990  151.9170 C   0  0  2  0  0  3  0  0  0  0  0  0
  162.7540  211.0300  157.2330 C   0  0  0  0  0  1  0  0  0  0  0  0
  161.7180  209.2890  149.7320 N   0  0  0  0  0  2  0  0  0  0  0  0
  160.9420  204.4360  152.5960 C   0  0  0  0  0  1  0  0  0  0  0  0
  159.9090  211.0060  153.3750 C   0  0  0  0  0  2  0  0  0  0  0  0
  161.8390  210.5550  151.8380 C   0  0  2  0  0  3  0  0  0  0  0  0
  162.5220  210.1210  154.9350 C   0  0  0  0  0  2  0  0  0  0  0  0
  160.9150  205.7260  150.4590 C   0  0  0  0  0  3  0  0  0  0  0  0
  160.1570  209.6920  154.1150 C   0  0  2  0  0  3  0  0  0  0  0  0
  159.7690  209.8400  155.5890 C   0  0  0  0  0  2  0  0  0  0  0  0
  162.3130  210.4510  150.3850 C   0  0  0  0  0  2  0  0  0  0  0  0
  161.5180  208.0640  150.4430 C   0  0  0  0  0  0  0  0  0  0  0  0
  161.1100  206.9190  149.7600 C   0  0  0  0  0  3  0  0  0  0  0  0
  157.8630  212.3070  151.9450 O   0  0  0  0  0  0  0  0  0  0  0  0
  158.8200  212.8210  151.3040 C   0  0  0  0  0  0  0  0  0  0  0  0
  160.0850  212.1630  151.2420 N   0  0  0  0  0  2  0  0  0  0  0  0
  157.5070  213.7570  147.9300 C   0  0  0  0  0  0  0  0  0  0  0  0
  157.1730  214.4260  150.3010 C   0  0  0  0  0  2  0  0  0  0  0  0
  160.7240  214.4510  149.4610 O   0  0  0  0  0  0  0  0  0  0  0  0
  157.0180  213.5180  146.7600 N   0  0  0  0  0  2  0  0  0  0  0  0
  156.6460  213.5800  149.1410 C   0  0  0  0  0  2  0  0  0  0  0  0
  159.4900  214.2180  149.3650 C   0  0  0  0  0  0  0  0  0  0  0  0
  158.6470  214.1340  150.6050 C   0  0  2  0  0  3  0  0  0  0  0  0
  158.9080  214.0030  148.0760 N   0  0  0  0  0  2  0  0  0  0  0  0
  1  9  1  1  0  0  0
  2  3  1  6  0  0  0
  2  5  1  0  0  0  0
  3  7  1  0  0  0  0
  4  7  2  0  0  0  0
  4 11  1  0  0  0  0
  5 16  1  0  0  0  0
  5 14  1  1  0  0  0
  6  1  1  0  0  0  0
  8 23  1  6  0  0  0
  8 12  1  0  0  0  0
 10 18  1  0  0  0  0
 10 19  1  0  0  0  0
 13 18  1  6  0  0  0
 13  8  1  0  0  0  0
 13  2  1  0  0  0  0
 14  1  1  0  0  0  0
 15  4  1  0  0  0  0
 16 12  1  6  0  0  0
 16 17  1  0  0  0  0
 17  6  1  0  0  0  0
 19  3  2  0  0  0  0
 20 19  1  0  0  0  0
 20 15  2  0  0  0  0
 22 21  2  0  0  0  0
 23 22  1  0  0  0  0
 24 31  1  0  0  0  0
 24 28  1  0  0  0  0
 25 30  1  0  0  0  0
 27 24  2  0  0  0  0
 28 25  1  0  0  0  0
 29 26  2  0  0  0  0
 29 30  1  0  0  0  0
 30 22  1  6  0  0  0
 31 29  1  0  0  0  0
M  END
>  <MODEL>
1

>  <REMARK>
 VINA RESULT:      -6.0      0.000      0.000
  Name = 
  2 active torsions:
  status: ('A' for Active; 'I' for Inactive)
    1  A    between atoms: C_5  and  C_30
    2  A    between atoms: C_10  and  N_16
                            x       y       z     vdW  Elec       q    Type
                         _______ _______ _______ _____ _____    ______ ____

>  <TORSDO>
F 2

$$$$
=
 OpenBabel11122413313D

 31 35  0  0  1  0  0  0  0  0999 V2000
  162.7980  211.3110  138.7090 C   0  0  2  0  0  3  0  0  0  0  0  0
  159.2140  212.6610  139.2010 C   0  0  2  0  0  3  0  0  0  0  0  0
  157.8650  211.9910  139.0450 C   0  0  0  0  0  0  0  0  0  0  0  0
  156.5230  210.2970  138.0480 C   0  0  0  0  0  0  0  0  0  0  0  0
  160.3700  211.6570  139.1030 C   0  0  1  0  0  3  0  0  0  0  0  0
  162.9440  210.7980  140.0120 O   0  0  0  0  0  0  0  0  0  0  0  0
  157.7250  210.9050  138.2320 N   0  0  0  0  0  0  0  0  0  0  0  0
  159.4390  212.6470  141.7400 C   0  0  2  0  0  3  0  0  0  0  0  0
  164.0920  211.9690  138.2780 C   0  0  0  0  0  1  0  0  0  0  0  0
  156.8510  213.6800  140.5200 N   0  0  0  0  0  2  0  0  0  0  0  0
  156.4210  209.1090  137.1620 C   0  0  0  0  0  1  0  0  0  0  0  0
  160.6640  211.7440  141.6220 C   0  0  0  0  0  2  0  0  0  0  0  0
  159.3060  213.5200  140.4840 C   0  0  2  0  0  3  0  0  0  0  0  0
  161.6690  212.3410  138.6770 C   0  0  0  0  0  2  0  0  0  0  0  0
  155.3830  210.7880  138.6910 C   0  0  0  0  0  3  0  0  0  0  0  0
  160.5560  210.8400  140.3950 C   0  0  2  0  0  3  0  0  0  0  0  0
  161.8200  209.9850  140.2630 C   0  0  0  0  0  2  0  0  0  0  0  0
  158.0910  214.4490  140.5740 C   0  0  0  0  0  2  0  0  0  0  0  0
  156.7320  212.5290  139.6800 C   0  0  0  0  0  0  0  0  0  0  0  0
  155.4930  211.9120  139.5110 C   0  0  0  0  0  3  0  0  0  0  0  0
  159.7190  211.6990  144.4170 O   0  0  0  0  0  0  0  0  0  0  0  0
  159.7180  212.9470  144.2360 C   0  0  0  0  0  0  0  0  0  0  0  0
  159.5710  213.4870  142.9220 N   0  0  0  0  0  2  0  0  0  0  0  0
  161.7780  212.8100  147.3530 C   0  0  0  0  0  0  0  0  0  0  0  0
  161.3140  214.4070  145.5050 C   0  0  0  0  0  2  0  0  0  0  0  0
  158.1910  213.1760  146.9370 O   0  0  0  0  0  0  0  0  0  0  0  0
  162.6110  212.2730  148.1790 N   0  0  0  0  0  2  0  0  0  0  0  0
  162.2740  213.3470  146.0470 C   0  0  0  0  0  2  0  0  0  0  0  0
  159.4210  213.2550  146.6810 C   0  0  0  0  0  0  0  0  0  0  0  0
  159.8780  213.8820  145.3940 C   0  0  2  0  0  3  0  0  0  0  0  0
  160.3730  212.7180  147.6030 N   0  0  0  0  0  2  0  0  0  0  0  0
  1  9  1  1  0  0  0
  1  6  1  0  0  0  0
  2  3  1  1  0  0  0
  2 13  1  0  0  0  0
  3 19  1  0  0  0  0
  4  7  1  0  0  0  0
  4 15  2  0  0  0  0
  5 14  1  1  0  0  0
  5  2  1  0  0  0  0
  5 16  1  0  0  0  0
  6 17  1  0  0  0  0
  7  3  2  0  0  0  0
  8 23  1  1  0  0  0
 10 18  1  0  0  0  0
 11  4  1  0  0  0  0
 12  8  1  0  0  0  0
 13 18  1  1  0  0  0
 13  8  1  0  0  0  0
 14  1  1  0  0  0  0
 15 20  1  0  0  0  0
 16 17  1  6  0  0  0
 16 12  1  0  0  0  0
 19 10  1  0  0  0  0
 20 19  2  0  0  0  0
 22 21  2  0  0  0  0
 23 22  1  0  0  0  0
 24 31  1  0  0  0  0
 24 27  2  0  0  0  0
 25 28  1  0  0  0  0
 28 24  1  0  0  0  0
 29 26  2  0  0  0  0
 29 31  1  0  0  0  0
 30 22  1  6  0  0  0
 30 25  1  0  0  0  0
 30 29  1  0  0  0  0
M  END
>  <MODEL>
2

>  <REMARK>
 VINA RESULT:      -5.8      7.805     12.115
  Name = 
  2 active torsions:
  status: ('A' for Active; 'I' for Inactive)
    1  A    between atoms: C_5  and  C_30
    2  A    between atoms: C_10  and  N_16
                            x       y       z     vdW  Elec       q    Type
                         _______ _______ _______ _____ _____    ______ ____

>  <TORSDO>
F 2

$$$$
=
 OpenBabel11122413313D

 31 35  0  0  1  0  0  0  0  0999 V2000
  161.5620  210.2050  155.1730 C   0  0  2  0  0  3  0  0  0  0  0  0
  162.2420  209.3200  151.4760 C   0  0  2  0  0  3  0  0  0  0  0  0
  161.7270  208.1890  150.6100 C   0  0  0  0  0  0  0  0  0  0  0  0
  160.8550  205.9830  150.4280 C   0  0  0  0  0  0  0  0  0  0  0  0
  161.5220  209.3810  152.8300 C   0  0  1  0  0  3  0  0  0  0  0  0
  160.4030  210.9670  154.9340 O   0  0  0  0  0  0  0  0  0  0  0  0
  161.2970  207.0270  151.1780 N   0  0  0  0  0  0  0  0  0  0  0  0
  160.7870  211.2370  150.6360 C   0  0  2  0  0  3  0  0  0  0  0  0
  162.4010  210.8830  156.2360 C   0  0  0  0  0  1  0  0  0  0  0  0
  162.2260  209.5050  148.5910 N   0  0  0  0  0  2  0  0  0  0  0  0
  160.3840  204.7400  151.0920 C   0  0  0  0  0  1  0  0  0  0  0  0
  160.1650  211.3670  152.0230 C   0  0  0  0  0  2  0  0  0  0  0  0
  162.2160  210.6850  150.7490 C   0  0  2  0  0  3  0  0  0  0  0  0
  162.3790  210.0780  153.8870 C   0  0  0  0  0  2  0  0  0  0  0  0
  160.8430  206.0760  149.0340 C   0  0  0  0  0  3  0  0  0  0  0  0
  160.1210  210.0130  152.7280 C   0  0  2  0  0  3  0  0  0  0  0  0
  159.5480  210.1760  154.1400 C   0  0  0  0  0  2  0  0  0  0  0  0
  162.8750  210.5530  149.3730 C   0  0  0  0  0  2  0  0  0  0  0  0
  161.7590  208.3030  149.2090 C   0  0  0  0  0  0  0  0  0  0  0  0
  161.2990  207.2460  148.4240 C   0  0  0  0  0  3  0  0  0  0  0  0
  160.4510  211.7010  147.8410 O   0  0  0  0  0  0  0  0  0  0  0  0
  160.6210  212.7060  148.5840 C   0  0  0  0  0  0  0  0  0  0  0  0
  160.8050  212.5430  149.9910 N   0  0  0  0  0  2  0  0  0  0  0  0
  160.1330  214.0140  145.1150 C   0  0  0  0  0  0  0  0  0  0  0  0
  159.2620  214.4520  147.4020 C   0  0  0  0  0  2  0  0  0  0  0  0
  162.9110  214.4530  147.4080 O   0  0  0  0  0  0  0  0  0  0  0  0
  159.9270  213.9080  143.8460 N   0  0  0  0  0  2  0  0  0  0  0  0
  159.0130  213.7430  146.0700 C   0  0  0  0  0  2  0  0  0  0  0  0
  161.7320  214.2680  147.0070 C   0  0  0  0  0  0  0  0  0  0  0  0
  160.6230  214.0870  148.0050 C   0  0  2  0  0  3  0  0  0  0  0  0
  161.4630  214.2010  145.6040 N   0  0  0  0  0  2  0  0  0  0  0  0
  1  9  1  1  0  0  0
  2  3  1  6  0  0  0
  2  5  1  0  0  0  0
  3  7  1  0  0  0  0
  4 11  1  0  0  0  0
  4  7  2  0  0  0  0
  5 14  1  1  0  0  0
  6  1  1  0  0  0  0
  8 23  1  1  0  0  0
  8 13  1  0  0  0  0
  8 12  1  0  0  0  0
 10 19  1  0  0  0  0
 10 18  1  0  0  0  0
 13 18  1  6  0  0  0
 13  2  1  0  0  0  0
 14  1  1  0  0  0  0
 15  4  1  0  0  0  0
 16 12  1  1  0  0  0
 16  5  1  0  0  0  0
 16 17  1  0  0  0  0
 17  6  1  0  0  0  0
 19  3  2  0  0  0  0
 20 15  2  0  0  0  0
 20 19  1  0  0  0  0
 21 22  2  0  0  0  0
 22 23  1  0  0  0  0
 24 31  1  0  0  0  0
 24 28  1  0  0  0  0
 25 30  1  0  0  0  0
 27 24  2  0  0  0  0
 28 25  1  0  0  0  0
 29 26  2  0  0  0  0
 29 30  1  0  0  0  0
 30 22  1  6  0  0  0
 31 29  1  0  0  0  0
M  END
>  <MODEL>
3

>  <REMARK>
 VINA RESULT:      -4.7      1.995      2.370
  Name = 
  2 active torsions:
  status: ('A' for Active; 'I' for Inactive)
    1  A    between atoms: C_5  and  C_30
    2  A    between atoms: C_10  and  N_16
                            x       y       z     vdW  Elec       q    Type
                         _______ _______ _______ _____ _____    ______ ____

>  <TORSDO>
F 2

$$$$
=
 OpenBabel11122413313D

 31 35  0  0  1  0  0  0  0  0999 V2000
  161.6960  205.1900  144.6010 C   0  0  2  0  0  3  0  0  0  0  0  0
  160.5180  204.9520  148.2710 C   0  0  2  0  0  3  0  0  0  0  0  0
  160.7430  203.8860  149.3230 C   0  0  0  0  0  0  0  0  0  0  0  0
  161.1970  201.6160  149.8760 C   0  0  0  0  0  0  0  0  0  0  0  0
  161.3660  204.7060  147.0150 C   0  0  1  0  0  3  0  0  0  0  0  0
  162.9410  205.7840  144.8820 O   0  0  0  0  0  0  0  0  0  0  0  0
  161.0180  202.6020  148.9560 N   0  0  0  0  0  0  0  0  0  0  0  0
  162.1950  206.7110  149.0380 C   0  0  2  0  0  3  0  0  0  0  0  0
  161.0950  205.8370  143.3710 C   0  0  0  0  0  1  0  0  0  0  0  0
  160.2860  205.5340  151.0930 N   0  0  0  0  0  2  0  0  0  0  0  0
  161.5080  200.2340  149.4290 C   0  0  0  0  0  1  0  0  0  0  0  0
  162.9620  206.5450  147.7290 C   0  0  0  0  0  2  0  0  0  0  0  0
  160.7100  206.3830  148.8230 C   0  0  2  0  0  3  0  0  0  0  0  0
  160.7490  205.3750  145.7860 C   0  0  0  0  0  2  0  0  0  0  0  0
  161.0890  201.9010  151.2390 C   0  0  0  0  0  3  0  0  0  0  0  0
  162.8380  205.1150  147.2050 C   0  0  2  0  0  3  0  0  0  0  0  0
  163.5650  204.9860  145.8630 C   0  0  0  0  0  2  0  0  0  0  0  0
  159.9070  206.5510  150.1170 C   0  0  0  0  0  2  0  0  0  0  0  0
  160.5950  204.1980  150.6860 C   0  0  0  0  0  0  0  0  0  0  0  0
  160.7860  203.2030  151.6430 C   0  0  0  0  0  3  0  0  0  0  0  0
  162.4580  207.4920  151.7700 O   0  0  0  0  0  0  0  0  0  0  0  0
  162.4780  208.4020  150.8970 C   0  0  0  0  0  0  0  0  0  0  0  0
  162.3410  208.0810  149.5130 N   0  0  0  0  0  2  0  0  0  0  0  0
  160.1640  210.9320  152.3880 C   0  0  0  0  0  0  0  0  0  0  0  0
  162.4430  210.0330  152.8030 C   0  0  0  0  0  2  0  0  0  0  0  0
  162.0940  211.0550  149.3180 O   0  0  0  0  0  0  0  0  0  0  0  0
  159.0320  211.3540  152.8430 N   0  0  0  0  0  2  0  0  0  0  0  0
  160.9660  209.9590  153.1930 C   0  0  0  0  0  2  0  0  0  0  0  0
  161.7710  210.7470  150.4950 C   0  0  0  0  0  0  0  0  0  0  0  0
  162.6540  209.8340  151.2980 C   0  0  2  0  0  3  0  0  0  0  0  0
  160.5490  211.2450  151.0480 N   0  0  0  0  0  2  0  0  0  0  0  0
  1  9  1  6  0  0  0
  1  6  1  0  0  0  0
  1 14  1  0  0  0  0
  2 13  1  0  0  0  0
  2  3  1  1  0  0  0
  3 19  1  0  0  0  0
  4 15  2  0  0  0  0
  5 14  1  6  0  0  0
  5 16  1  0  0  0  0
  5  2  1  0  0  0  0
  6 17  1  0  0  0  0
  7  3  2  0  0  0  0
  7  4  1  0  0  0  0
  8 23  1  6  0  0  0
 11  4  1  0  0  0  0
 12  8  1  0  0  0  0
 13  8  1  0  0  0  0
 13 18  1  1  0  0  0
 15 20  1  0  0  0  0
 16 17  1  6  0  0  0
 16 12  1  0  0  0  0
 18 10  1  0  0  0  0
 19 10  1  0  0  0  0
 19 20  2  0  0  0  0
 22 21  2  0  0  0  0
 23 22  1  0  0  0  0
 24 27  2  0  0  0  0
 24 28  1  0  0  0  0
 25 28  1  0  0  0  0
 26 29  2  0  0  0  0
 29 31  1  0  0  0  0
 29 30  1  0  0  0  0
 30 22  1  6  0  0  0
 30 25  1  0  0  0  0
 31 24  1  0  0  0  0
M  END
>  <MODEL>
4

>  <REMARK>
 VINA RESULT:      -4.6      3.668      7.297
  Name = 
  2 active torsions:
  status: ('A' for Active; 'I' for Inactive)
    1  A    between atoms: C_5  and  C_30
    2  A    between atoms: C_10  and  N_16
                            x       y       z     vdW  Elec       q    Type
                         _______ _______ _______ _____ _____    ______ ____

>  <TORSDO>
F 2

$$$$
=
 OpenBabel11122413313D

 31 35  0  0  1  0  0  0  0  0999 V2000
  161.1830  205.3510  145.2680 C   0  0  2  0  0  3  0  0  0  0  0  0
  160.5610  205.8500  149.0460 C   0  0  2  0  0  3  0  0  0  0  0  0
  160.8560  204.9550  150.2320 C   0  0  0  0  0  0  0  0  0  0  0  0
  161.2070  202.7740  151.1160 C   0  0  0  0  0  0  0  0  0  0  0  0
  161.1850  205.3120  147.7510 C   0  0  1  0  0  3  0  0  0  0  0  0
  162.5000  205.8500  145.2660 O   0  0  0  0  0  0  0  0  0  0  0  0
  160.9690  203.6070  150.0680 N   0  0  0  0  0  0  0  0  0  0  0  0
  162.4690  207.5260  149.2510 C   0  0  2  0  0  3  0  0  0  0  0  0
  160.4560  205.8450  144.0350 C   0  0  0  0  0  1  0  0  0  0  0  0
  160.8060  206.9130  151.7230 N   0  0  0  0  0  2  0  0  0  0  0  0
  161.3350  201.3120  150.8870 C   0  0  0  0  0  1  0  0  0  0  0  0
  163.0130  207.0660  147.9020 C   0  0  0  0  0  2  0  0  0  0  0  0
  160.9470  207.3250  149.3020 C   0  0  2  0  0  3  0  0  0  0  0  0
  160.4450  205.8290  146.5170 C   0  0  0  0  0  2  0  0  0  0  0  0
  161.3300  203.2910  152.4080 C   0  0  0  0  0  3  0  0  0  0  0  0
  162.6980  205.5900  147.6640 C   0  0  2  0  0  3  0  0  0  0  0  0
  163.2000  205.1640  146.2800 C   0  0  0  0  0  2  0  0  0  0  0  0
  160.3660  207.7890  150.6410 C   0  0  0  0  0  2  0  0  0  0  0  0
  160.9430  205.5030  151.5240 C   0  0  0  0  0  0  0  0  0  0  0  0
  161.1970  204.6660  152.6090 C   0  0  0  0  0  3  0  0  0  0  0  0
  161.2640  209.7090  147.8640 O   0  0  0  0  0  0  0  0  0  0  0  0
  162.1450  209.9790  148.7250 C   0  0  0  0  0  0  0  0  0  0  0  0
  162.7940  208.9320  149.4480 N   0  0  0  0  0  2  0  0  0  0  0  0
  160.9970  213.2450  147.3130 C   0  0  0  0  0  0  0  0  0  0  0  0
  161.3270  212.2030  149.5460 C   0  0  0  0  0  2  0  0  0  0  0  0
  164.3320  211.8280  147.5110 O   0  0  0  0  0  0  0  0  0  0  0  0
  160.3050  213.9970  146.5250 N   0  0  0  0  0  2  0  0  0  0  0  0
  160.3190  212.5410  148.4460 C   0  0  0  0  0  2  0  0  0  0  0  0
  163.1330  212.0640  147.8110 C   0  0  0  0  0  0  0  0  0  0  0  0
  162.5180  211.4010  149.0100 C   0  0  2  0  0  3  0  0  0  0  0  0
  162.3550  212.9390  146.9890 N   0  0  0  0  0  2  0  0  0  0  0  0
  1  9  1  6  0  0  0
  1 14  1  0  0  0  0
  2 13  1  0  0  0  0
  2  3  1  1  0  0  0
  3 19  1  0  0  0  0
  4 15  2  0  0  0  0
  5 14  1  6  0  0  0
  5  2  1  0  0  0  0
  6  1  1  0  0  0  0
  6 17  1  0  0  0  0
  7  3  2  0  0  0  0
  7  4  1  0  0  0  0
  8 13  1  0  0  0  0
  8 23  1  6  0  0  0
 11  4  1  0  0  0  0
 12  8  1  0  0  0  0
 13 18  1  1  0  0  0
 15 20  1  0  0  0  0
 16 17  1  6  0  0  0
 16  5  1  0  0  0  0
 16 12  1  0  0  0  0
 18 10  1  0  0  0  0
 19 10  1  0  0  0  0
 19 20  2  0  0  0  0
 21 22  2  0  0  0  0
 22 23  1  0  0  0  0
 24 28  1  0  0  0  0
 26 29  2  0  0  0  0
 27 24  2  0  0  0  0
 28 25  1  0  0  0  0
 29 30  1  0  0  0  0
 30 22  1  6  0  0  0
 30 25  1  0  0  0  0
 31 24  1  0  0  0  0
 31 29  1  0  0  0  0
M  END
>  <MODEL>
5

>  <REMARK>
 VINA RESULT:      -4.3      3.919      6.444
  Name = 
  2 active torsions:
  status: ('A' for Active; 'I' for Inactive)
    1  A    between atoms: C_5  and  C_30
    2  A    between atoms: C_10  and  N_16
                            x       y       z     vdW  Elec       q    Type
                         _______ _______ _______ _____ _____    ______ ____

>  <TORSDO>
F 2

$$$$
=
 OpenBabel11122413313D

 31 35  0  0  1  0  0  0  0  0999 V2000
  161.9270  213.8060  146.7150 C   0  0  2  0  0  3  0  0  0  0  0  0
  161.6530  211.9580  150.0950 C   0  0  2  0  0  3  0  0  0  0  0  0
  160.5070  211.8410  151.0780 C   0  0  0  0  0  0  0  0  0  0  0  0
  158.5050  212.7310  152.0050 C   0  0  0  0  0  0  0  0  0  0  0  0
  161.2190  212.6250  148.7830 C   0  0  1  0  0  3  0  0  0  0  0  0
  161.4100  212.7580  145.9300 O   0  0  0  0  0  0  0  0  0  0  0  0
  159.5320  212.7930  151.1160 N   0  0  0  0  0  0  0  0  0  0  0  0
  161.5180  209.6790  148.9620 C   0  0  2  0  0  3  0  0  0  0  0  0
  163.0880  214.4530  145.9910 C   0  0  0  0  0  1  0  0  0  0  0  0
  161.5070  209.7910  152.0020 N   0  0  0  0  0  2  0  0  0  0  0  0
  157.4570  213.7850  152.0010 C   0  0  0  0  0  1  0  0  0  0  0  0
  161.2060  210.3620  147.6350 C   0  0  0  0  0  2  0  0  0  0  0  0
  162.3640  210.6070  149.8460 C   0  0  2  0  0  3  0  0  0  0  0  0
  162.4060  213.2630  148.0610 C   0  0  0  0  0  2  0  0  0  0  0  0
  158.4330  211.6800  152.9220 C   0  0  0  0  0  3  0  0  0  0  0  0
  160.4430  211.6660  147.8600 C   0  0  2  0  0  3  0  0  0  0  0  0
  160.1920  212.3640  146.5200 C   0  0  0  0  0  2  0  0  0  0  0  0
  162.7060  209.9470  151.1850 C   0  0  0  0  0  2  0  0  0  0  0  0
  160.4820  210.7880  152.0090 C   0  0  0  0  0  0  0  0  0  0  0  0
  159.4300  210.7040  152.9210 C   0  0  0  0  0  3  0  0  0  0  0  0
  160.3160  207.1110  148.6430 O   0  0  0  0  0  0  0  0  0  0  0  0
  161.5710  207.1840  148.5500 C   0  0  0  0  0  0  0  0  0  0  0  0
  162.2370  208.4370  148.7090 N   0  0  0  0  0  2  0  0  0  0  0  0
  161.3460  204.5380  145.9180 C   0  0  0  0  0  0  0  0  0  0  0  0
  163.0680  206.0410  146.8940 C   0  0  0  0  0  2  0  0  0  0  0  0
  161.3050  204.2450  149.5350 O   0  0  0  0  0  0  0  0  0  0  0  0
  160.8280  203.9560  144.8890 N   0  0  0  0  0  2  0  0  0  0  0  0
  162.0830  205.8280  145.7440 C   0  0  0  0  0  2  0  0  0  0  0  0
  161.5650  204.7070  148.3930 C   0  0  0  0  0  0  0  0  0  0  0  0
  162.3840  205.9600  148.2630 C   0  0  2  0  0  3  0  0  0  0  0  0
  161.0520  204.0520  147.2300 N   0  0  0  0  0  2  0  0  0  0  0  0
  1  9  1  6  0  0  0
  1 14  1  0  0  0  0
  2  3  1  1  0  0  0
  3  7  2  0  0  0  0
  3 19  1  0  0  0  0
  4 15  2  0  0  0  0
  5 14  1  6  0  0  0
  5  2  1  0  0  0  0
  6 17  1  0  0  0  0
  6  1  1  0  0  0  0
  7  4  1  0  0  0  0
  8 23  1  6  0  0  0
  8 13  1  0  0  0  0
 10 19  1  0  0  0  0
 11  4  1  0  0  0  0
 12 16  1  0  0  0  0
 12  8  1  0  0  0  0
 13  2  1  0  0  0  0
 13 18  1  1  0  0  0
 16 17  1  6  0  0  0
 16  5  1  0  0  0  0
 18 10  1  0  0  0  0
 19 20  2  0  0  0  0
 20 15  1  0  0  0  0
 22 21  2  0  0  0  0
 22 23  1  0  0  0  0
 24 31  1  0  0  0  0
 25 30  1  0  0  0  0
 27 24  2  0  0  0  0
 28 24  1  0  0  0  0
 28 25  1  0  0  0  0
 29 26  2  0  0  0  0
 30 29  1  0  0  0  0
 30 22  1  6  0  0  0
 31 29  1  0  0  0  0
M  END
>  <MODEL>
6

>  <REMARK>
 VINA RESULT:      -3.7      3.599      7.811
  Name = 
  2 active torsions:
  status: ('A' for Active; 'I' for Inactive)
    1  A    between atoms: C_5  and  C_30
    2  A    between atoms: C_10  and  N_16
                            x       y       z     vdW  Elec       q    Type
                         _______ _______ _______ _____ _____    ______ ____

>  <TORSDO>
F 2

$$$$
