=
 OpenBabel11122413173D

 31 35  0  0  1  0  0  0  0  0999 V2000
  160.3610  207.4470  155.6780 C   0  0  0  0  0  0  0  0  0  0  0  0
  161.9450  208.5230  152.3900 C   0  0  2  0  0  3  0  0  0  0  0  0
  161.4690  207.5500  151.3330 C   0  0  0  0  0  0  0  0  0  0  0  0
  158.7050  212.7980  151.9030 O   0  0  0  0  0  0  0  0  0  0  0  0
  159.6440  212.8920  151.0680 C   0  0  0  0  0  0  0  0  0  0  0  0
  160.7980  205.3090  150.6720 C   0  0  0  0  0  0  0  0  0  0  0  0
  161.0770  208.5140  153.6210 C   0  0  0  0  0  0  0  0  0  0  0  0
  159.3840  208.4310  155.8510 C   0  0  0  0  0  3  0  0  0  0  0  0
  161.1770  206.2180  151.6640 C   0  0  0  0  0  3  0  0  0  0  0  0
  160.8700  210.8240  151.9450 C   0  0  0  0  0  0  0  0  0  0  0  0
  160.4850  206.4480  156.5860 F   0  0  0  0  0  0  0  0  0  0  0  0
  161.7310  209.3630  149.6170 C   0  0  0  0  0  2  0  0  0  0  0  0
  160.4790  203.9050  151.0360 C   0  0  0  0  0  1  0  0  0  0  0  0
  159.9990  210.6040  152.8860 N   0  0  0  0  0  0  0  0  0  0  0  0
  162.1100  209.9550  151.8220 C   0  0  2  0  0  3  0  0  0  0  0  0
  160.7300  211.9530  151.0730 N   0  0  0  0  0  2  0  0  0  0  0  0
  161.2040  207.4860  154.5640 C   0  0  0  0  0  3  0  0  0  0  0  0
  160.7240  205.7200  149.3390 C   0  0  0  0  0  3  0  0  0  0  0  0
  160.1050  209.5140  153.8070 C   0  0  0  0  0  0  0  0  0  0  0  0
  159.2570  209.4630  154.9180 C   0  0  0  0  0  3  0  0  0  0  0  0
  162.6580  209.9430  150.5140 O   0  0  0  0  0  0  0  0  0  0  0  0
  161.4290  207.9440  149.9850 C   0  0  0  0  0  0  0  0  0  0  0  0
  161.0380  207.0380  148.9950 C   0  0  0  0  0  3  0  0  0  0  0  0
  158.1350  213.1770  147.6120 C   0  0  1  0  0  3  0  0  0  0  0  0
  158.1650  214.4510  149.7730 C   0  0  0  0  0  2  0  0  0  0  0  0
  161.6090  213.1580  148.9840 O   0  0  0  0  0  1  0  0  0  0  0  0
  157.3630  212.1610  146.7960 C   0  0  0  0  0  1  0  0  0  0  0  0
  157.3990  213.4380  148.9220 C   0  0  0  0  0  2  0  0  0  0  0  0
  160.3260  213.6460  148.7310 C   0  0  2  0  0  3  0  0  0  0  0  0
  159.6000  213.9890  150.0440 C   0  0  2  0  0  3  0  0  0  0  0  0
  159.5380  212.6460  147.8860 C   0  0  0  0  0  2  0  0  0  0  0  0
  1  8  1  0  0  0  0
  1 11  1  0  0  0  0
  2  3  1  6  0  0  0
  2  7  1  0  0  0  0
  3  9  1  0  0  0  0
  5 16  1  0  0  0  0
  5  4  2  0  0  0  0
  6 13  1  0  0  0  0
  6  9  2  0  0  0  0
  7 19  2  0  0  0  0
  7 17  1  0  0  0  0
 10 14  2  0  0  0  0
 12 22  1  0  0  0  0
 12 21  1  0  0  0  0
 14 19  1  0  0  0  0
 15 21  1  6  0  0  0
 15 10  1  0  0  0  0
 15  2  1  0  0  0  0
 16 10  1  0  0  0  0
 17  1  2  0  0  0  0
 18  6  1  0  0  0  0
 19 20  1  0  0  0  0
 20  8  2  0  0  0  0
 22  3  2  0  0  0  0
 23 18  2  0  0  0  0
 23 22  1  0  0  0  0
 24 27  1  6  0  0  0
 24 31  1  0  0  0  0
 24 28  1  0  0  0  0
 25 30  1  0  0  0  0
 28 25  1  0  0  0  0
 29 26  1  1  0  0  0
 29 30  1  0  0  0  0
 30  5  1  1  0  0  0
 31 29  1  0  0  0  0
M  END
>  <MODEL>
1

>  <REMARK>
 VINA RESULT:      -8.3      0.000      0.000
  Name = 
  1 active torsions:
  status: ('A' for Active; 'I' for Inactive)
    1  A    between atoms: C_5  and  C_30
                            x       y       z     vdW  Elec       q    Type
                         _______ _______ _______ _____ _____    ______ ____

>  <TORSDO>
F 1

$$$$
=
 OpenBabel11122413173D

 31 35  0  0  1  0  0  0  0  0999 V2000
  161.1310  206.2030  154.1030 C   0  0  0  0  0  0  0  0  0  0  0  0
  162.3440  208.2340  151.1230 C   0  0  2  0  0  3  0  0  0  0  0  0
  161.7830  207.5730  149.8820 C   0  0  0  0  0  0  0  0  0  0  0  0
  158.9800  212.3070  152.1700 O   0  0  0  0  0  0  0  0  0  0  0  0
  159.8260  212.6770  151.3130 C   0  0  0  0  0  0  0  0  0  0  0  0
  161.0970  205.5760  148.6780 C   0  0  0  0  0  0  0  0  0  0  0  0
  161.6080  207.8380  152.3750 C   0  0  0  0  0  0  0  0  0  0  0  0
  160.1560  207.0490  154.6370 C   0  0  0  0  0  3  0  0  0  0  0  0
  161.5560  206.1890  149.8480 C   0  0  0  0  0  3  0  0  0  0  0  0
  161.1800  210.5110  151.4500 C   0  0  0  0  0  0  0  0  0  0  0  0
  161.3700  204.9980  154.6750 F   0  0  0  0  0  0  0  0  0  0  0  0
  161.8280  209.8050  148.7340 C   0  0  0  0  0  2  0  0  0  0  0  0
  160.8470  204.1120  148.6570 C   0  0  0  0  0  1  0  0  0  0  0  0
  160.4150  209.9930  152.3660 N   0  0  0  0  0  0  0  0  0  0  0  0
  162.4190  209.7740  150.9710 C   0  0  2  0  0  3  0  0  0  0  0  0
  160.9260  211.8300  150.9510 N   0  0  0  0  0  2  0  0  0  0  0  0
  161.8540  206.5940  152.9720 C   0  0  0  0  0  3  0  0  0  0  0  0
  160.8770  206.3400  147.5290 C   0  0  0  0  0  3  0  0  0  0  0  0
  160.6390  208.6950  152.9270 C   0  0  0  0  0  0  0  0  0  0  0  0
  159.9110  208.2930  154.0510 C   0  0  0  0  0  3  0  0  0  0  0  0
  162.8300  210.1560  149.6690 O   0  0  0  0  0  0  0  0  0  0  0  0
  161.5960  208.3260  148.7110 C   0  0  0  0  0  0  0  0  0  0  0  0
  161.1250  207.7150  147.5450 C   0  0  0  0  0  3  0  0  0  0  0  0
  158.0130  213.8330  148.2000 C   0  0  1  0  0  3  0  0  0  0  0  0
  158.1840  214.4470  150.6280 C   0  0  0  0  0  2  0  0  0  0  0  0
  161.5920  213.6370  149.2540 O   0  0  0  0  0  1  0  0  0  0  0  0
  157.2120  213.0440  147.1870 C   0  0  0  0  0  1  0  0  0  0  0  0
  157.3850  213.6700  149.5800 C   0  0  0  0  0  2  0  0  0  0  0  0
  160.2750  214.0980  149.2450 C   0  0  2  0  0  3  0  0  0  0  0  0
  159.6530  214.0140  150.6500 C   0  0  2  0  0  3  0  0  0  0  0  0
  159.4530  213.3310  148.2100 C   0  0  0  0  0  2  0  0  0  0  0  0
  1  8  1  0  0  0  0
  1 11  1  0  0  0  0
  2  3  1  6  0  0  0
  2  7  1  0  0  0  0
  5  4  2  0  0  0  0
  6  9  2  0  0  0  0
  7 19  2  0  0  0  0
  7 17  1  0  0  0  0
  9  3  1  0  0  0  0
 10 14  2  0  0  0  0
 12 21  1  0  0  0  0
 13  6  1  0  0  0  0
 14 19  1  0  0  0  0
 15 21  1  6  0  0  0
 15  2  1  0  0  0  0
 15 10  1  0  0  0  0
 16  5  1  0  0  0  0
 16 10  1  0  0  0  0
 17  1  2  0  0  0  0
 18 23  2  0  0  0  0
 18  6  1  0  0  0  0
 19 20  1  0  0  0  0
 20  8  2  0  0  0  0
 22 12  1  0  0  0  0
 22  3  2  0  0  0  0
 23 22  1  0  0  0  0
 24 27  1  6  0  0  0
 24 31  1  0  0  0  0
 24 28  1  0  0  0  0
 25 30  1  0  0  0  0
 28 25  1  0  0  0  0
 29 26  1  1  0  0  0
 29 30  1  0  0  0  0
 30  5  1  6  0  0  0
 31 29  1  0  0  0  0
M  END
>  <MODEL>
2

>  <REMARK>
 VINA RESULT:      -6.3      1.152      1.393
  Name = 
  1 active torsions:
  status: ('A' for Active; 'I' for Inactive)
    1  A    between atoms: C_5  and  C_30
                            x       y       z     vdW  Elec       q    Type
                         _______ _______ _______ _____ _____    ______ ____

>  <TORSDO>
F 1

$$$$
=
 OpenBabel11122413173D

 31 35  0  0  1  0  0  0  0  0999 V2000
  162.0470  213.0890  147.3230 C   0  0  0  0  0  0  0  0  0  0  0  0
  159.7590  214.2460  150.1350 C   0  0  2  0  0  3  0  0  0  0  0  0
  158.3400  214.1410  149.6180 C   0  0  0  0  0  0  0  0  0  0  0  0
  160.5360  209.7510  152.9970 O   0  0  0  0  0  0  0  0  0  0  0  0
  159.9660  210.6110  153.7210 C   0  0  0  0  0  0  0  0  0  0  0  0
  156.7380  214.2790  147.7960 C   0  0  0  0  0  0  0  0  0  0  0  0
  160.7320  213.4210  149.3340 C   0  0  0  0  0  0  0  0  0  0  0  0
  162.4470  211.8340  147.7890 C   0  0  0  0  0  3  0  0  0  0  0  0
  158.0580  214.3160  148.2560 C   0  0  0  0  0  3  0  0  0  0  0  0
  160.1160  212.4580  151.9570 C   0  0  0  0  0  0  0  0  0  0  0  0
  162.4840  213.5360  146.1200 F   0  0  0  0  0  0  0  0  0  0  0  0
  157.5620  213.7880  151.9790 C   0  0  0  0  0  2  0  0  0  0  0  0
  156.4520  214.4520  146.3480 C   0  0  0  0  0  1  0  0  0  0  0  0
  160.7420  211.7030  151.1000 N   0  0  0  0  0  0  0  0  0  0  0  0
  159.8480  213.9200  151.6460 C   0  0  2  0  0  3  0  0  0  0  0  0
  159.7620  211.9500  153.2500 N   0  0  0  0  0  2  0  0  0  0  0  0
  161.1890  213.8800  148.0920 C   0  0  0  0  0  3  0  0  0  0  0  0
  155.6890  214.0830  148.6970 C   0  0  0  0  0  3  0  0  0  0  0  0
  161.1500  212.1650  149.8080 C   0  0  0  0  0  0  0  0  0  0  0  0
  162.0010  211.3730  149.0300 C   0  0  0  0  0  3  0  0  0  0  0  0
  158.7490  214.4530  152.3660 O   0  0  0  0  0  0  0  0  0  0  0  0
  157.2760  213.9820  150.5230 C   0  0  0  0  0  0  0  0  0  0  0  0
  155.9580  213.9330  150.0600 C   0  0  0  0  0  3  0  0  0  0  0  0
  159.1440  212.5310  156.8750 C   0  0  1  0  0  3  0  0  0  0  0  0
  158.0980  210.8030  155.3850 C   0  0  0  0  0  2  0  0  0  0  0  0
  161.7420  210.0270  155.9080 O   0  0  0  0  0  1  0  0  0  0  0  0
  159.2260  214.0140  157.1640 C   0  0  0  0  0  1  0  0  0  0  0  0
  158.1890  212.2950  155.7080 C   0  0  0  0  0  2  0  0  0  0  0  0
  160.4690  210.5100  156.2170 C   0  0  2  0  0  3  0  0  0  0  0  0
  159.4760  210.2070  155.0820 C   0  0  2  0  0  3  0  0  0  0  0  0
  160.5340  212.0020  156.5380 C   0  0  0  0  0  2  0  0  0  0  0  0
  1  8  2  0  0  0  0
  1 17  1  0  0  0  0
  2  7  1  6  0  0  0
  2 15  1  0  0  0  0
  3  2  1  0  0  0  0
  3 22  1  0  0  0  0
  4  5  2  0  0  0  0
  6  9  1  0  0  0  0
  6 18  2  0  0  0  0
  7 19  1  0  0  0  0
  8 20  1  0  0  0  0
  9  3  2  0  0  0  0
 10 16  1  0  0  0  0
 11  1  1  0  0  0  0
 12 21  1  0  0  0  0
 13  6  1  0  0  0  0
 14 10  2  0  0  0  0
 15 10  1  6  0  0  0
 15 21  1  0  0  0  0
 16  5  1  0  0  0  0
 17  7  2  0  0  0  0
 18 23  1  0  0  0  0
 19 14  1  0  0  0  0
 20 19  2  0  0  0  0
 22 12  1  0  0  0  0
 23 22  2  0  0  0  0
 24 27  1  6  0  0  0
 25 28  1  0  0  0  0
 28 24  1  0  0  0  0
 29 26  1  6  0  0  0
 29 31  1  0  0  0  0
 30  5  1  6  0  0  0
 30 25  1  0  0  0  0
 30 29  1  0  0  0  0
 31 24  1  0  0  0  0
M  END
>  <MODEL>
3

>  <REMARK>
 VINA RESULT:      -5.4      3.904      7.809
  Name = 
  1 active torsions:
  status: ('A' for Active; 'I' for Inactive)
    1  A    between atoms: C_5  and  C_30
                            x       y       z     vdW  Elec       q    Type
                         _______ _______ _______ _____ _____    ______ ____

>  <TORSDO>
F 1

$$$$
