=
 OpenBabel11122414053D

 28 31  0  0  1  0  0  0  0  0999 V2000
  161.0930  208.2890  155.3730 C   0  0  0  0  0  0  0  0  0  0  0  0
  158.4590  210.9620  155.5900 O   0  0  0  0  0  0  0  0  0  0  0  0
  162.5490  210.3180  156.6420 C   0  0  0  0  0  3  0  0  0  0  0  0
  160.4440  207.1460  154.6520 C   0  0  0  0  0  2  0  0  0  0  0  0
  160.1300  212.6590  154.9330 O   0  0  0  0  0  0  0  0  0  0  0  0
  159.0230  211.7630  154.4510 S   0  0  0  0  0  0  0  0  0  0  0  0
  158.2550  213.3160  152.3410 C   0  0  2  0  0  3  0  0  0  0  0  0
  159.5480  210.7240  153.1670 N   0  0  1  0  0  0  0  0  0  0  0  0
  161.8030  205.4520  151.4570 C   0  0  0  0  0  1  0  0  0  0  0  0
  161.6160  209.8270  152.2420 C   0  0  2  0  0  3  0  0  0  0  0  0
  158.8470  212.2460  151.4090 C   0  0  0  0  0  2  0  0  0  0  0  0
  157.7540  212.7570  153.6840 C   0  0  0  0  0  2  0  0  0  0  0  0
  160.9450  206.3940  152.2870 C   0  0  2  0  0  3  0  0  0  0  0  0
  161.2080  209.5550  154.7670 C   0  0  0  0  0  0  0  0  0  0  0  0
  157.2110  213.9720  151.6930 O   0  0  0  0  0  1  0  0  0  0  0  0
  160.7440  207.6370  151.6350 O   0  0  0  0  0  0  0  0  0  0  0  0
  161.9690  210.5530  155.3920 C   0  0  0  0  0  3  0  0  0  0  0  0
  161.6830  208.0590  156.6210 C   0  0  0  0  0  3  0  0  0  0  0  0
  162.3980  209.0750  157.2600 C   0  0  0  0  0  3  0  0  0  0  0  0
  161.4600  206.4870  153.7290 C   0  0  0  0  0  2  0  0  0  0  0  0
  160.9210  210.7240  151.2240 C   0  0  1  0  0  3  0  0  0  0  0  0
  161.9200  208.4150  151.7130 C   0  0  1  0  0  3  0  0  0  0  0  0
  160.0310  211.5820  152.1030 C   0  0  2  0  0  3  0  0  0  0  0  0
  160.6300  209.7600  153.3960 C   0  0  1  0  0  3  0  0  0  0  0  0
  161.5800  208.0290  149.5590 C   0  0  0  0  0  1  0  0  0  0  0  0
  162.5460  208.4700  150.4640 O   0  0  0  0  0  0  0  0  0  0  0  0
  161.9540  211.5790  150.5090 C   0  0  0  0  0  2  0  0  0  0  0  0
  161.6680  211.6220  149.0200 C   0  0  0  0  0  1  0  0  0  0  0  0
  1 18  1  0  0  0  0
  3 19  1  0  0  0  0
  4  1  1  0  0  0  0
  6  5  2  0  0  0  0
  6  2  2  0  0  0  0
  7 15  1  6  0  0  0
  7 12  1  0  0  0  0
  8 24  1  0  0  0  0
  8  6  1  1  0  0  0
  9 13  1  0  0  0  0
 10 24  1  0  0  0  0
 11 23  1  0  0  0  0
 11  7  1  0  0  0  0
 12  6  1  0  0  0  0
 13 20  1  0  0  0  0
 14  1  2  0  0  0  0
 14 17  1  0  0  0  0
 16 22  1  0  0  0  0
 16 13  1  0  0  0  0
 17  3  2  0  0  0  0
 18 19  2  0  0  0  0
 20  4  1  0  0  0  0
 21 23  1  0  0  0  0
 21 10  1  0  0  0  0
 22 10  1  0  0  0  0
 23  8  1  0  0  0  0
 24 14  1  0  0  0  0
 25 26  1  0  0  0  0
 26 22  1  0  0  0  0
 27 21  1  0  0  0  0
 28 27  1  0  0  0  0
M  END
>  <MODEL>
1

>  <REMARK>
 VINA RESULT:      -6.2      0.000      0.000
  Name = 
  2 active torsions:
  status: ('A' for Active; 'I' for Inactive)
    1  A    between atoms: C_5  and  C_24
    2  A    between atoms: O_17  and  C_25
                            x       y       z     vdW  Elec       q    Type
                         _______ _______ _______ _____ _____    ______ ____

>  <TORSDO>
F 2

$$$$
=
 OpenBabel11122414053D

 28 31  0  0  1  0  0  0  0  0999 V2000
  161.3510  208.9680  155.6150 C   0  0  0  0  0  0  0  0  0  0  0  0
  158.4110  210.8290  157.0390 O   0  0  0  0  0  0  0  0  0  0  0  0
  162.6740  211.0670  156.9140 C   0  0  0  0  0  3  0  0  0  0  0  0
  160.7630  207.8300  154.8360 C   0  0  0  0  0  2  0  0  0  0  0  0
  159.4570  212.9720  156.3930 O   0  0  0  0  0  0  0  0  0  0  0  0
  158.4590  211.9170  156.0040 S   0  0  0  0  0  0  0  0  0  0  0  0
  156.8330  213.5440  154.5350 C   0  0  2  0  0  3  0  0  0  0  0  0
  158.7930  211.2610  154.4350 N   0  0  1  0  0  0  0  0  0  0  0  0
  161.4680  207.0610  151.1160 C   0  0  0  0  0  1  0  0  0  0  0  0
  160.6490  211.0680  152.8680 C   0  0  2  0  0  3  0  0  0  0  0  0
  157.3360  212.8200  153.2760 C   0  0  0  0  0  2  0  0  0  0  0  0
  156.8540  212.6710  155.8010 C   0  0  0  0  0  2  0  0  0  0  0  0
  160.7130  207.6140  152.3140 C   0  0  2  0  0  3  0  0  0  0  0  0
  161.0360  210.3030  155.2930 C   0  0  0  0  0  0  0  0  0  0  0  0
  155.5400  214.0140  154.3170 O   0  0  0  0  0  1  0  0  0  0  0  0
  160.0920  208.8560  152.0200 O   0  0  0  0  0  0  0  0  0  0  0  0
  161.7290  211.3460  155.9230 C   0  0  0  0  0  3  0  0  0  0  0  0
  162.3030  208.6960  156.6030 C   0  0  0  0  0  3  0  0  0  0  0  0
  162.9540  209.7430  157.2610 C   0  0  0  0  0  3  0  0  0  0  0  0
  161.5860  207.6010  153.5750 C   0  0  0  0  0  2  0  0  0  0  0  0
  159.5310  211.9130  152.2700 C   0  0  1  0  0  3  0  0  0  0  0  0
  161.0640  209.8790  151.9840 C   0  0  1  0  0  3  0  0  0  0  0  0
  158.7750  212.3700  153.5030 C   0  0  2  0  0  3  0  0  0  0  0  0
  160.0640  210.5730  154.1810 C   0  0  1  0  0  3  0  0  0  0  0  0
  162.6730  210.3960  150.5520 C   0  0  0  0  0  1  0  0  0  0  0  0
  161.2870  210.2880  150.6660 O   0  0  0  0  0  0  0  0  0  0  0  0
  160.1290  213.1030  151.5350 C   0  0  0  0  0  2  0  0  0  0  0  0
  159.3360  213.4010  150.2780 C   0  0  0  0  0  1  0  0  0  0  0  0
  1 18  1  0  0  0  0
  3 19  1  0  0  0  0
  4  1  1  0  0  0  0
  6  5  2  0  0  0  0
  6  2  2  0  0  0  0
  7 15  1  6  0  0  0
  7 12  1  0  0  0  0
  8  6  1  1  0  0  0
  9 13  1  0  0  0  0
 10 24  1  0  0  0  0
 11 23  1  0  0  0  0
 11  7  1  0  0  0  0
 12  6  1  0  0  0  0
 13 20  1  0  0  0  0
 14  1  2  0  0  0  0
 14 17  1  0  0  0  0
 16 13  1  0  0  0  0
 17  3  2  0  0  0  0
 18 19  2  0  0  0  0
 20  4  1  0  0  0  0
 21 10  1  0  0  0  0
 21 23  1  0  0  0  0
 22 16  1  0  0  0  0
 22 10  1  0  0  0  0
 23  8  1  0  0  0  0
 24  8  1  0  0  0  0
 24 14  1  0  0  0  0
 25 26  1  0  0  0  0
 26 22  1  0  0  0  0
 27 21  1  0  0  0  0
 28 27  1  0  0  0  0
M  END
>  <MODEL>
2

>  <REMARK>
 VINA RESULT:      -5.0      1.429      1.857
  Name = 
  2 active torsions:
  status: ('A' for Active; 'I' for Inactive)
    1  A    between atoms: C_5  and  C_24
    2  A    between atoms: O_17  and  C_25
                            x       y       z     vdW  Elec       q    Type
                         _______ _______ _______ _____ _____    ______ ____

>  <TORSDO>
F 2

$$$$
=
 OpenBabel11122414053D

 28 31  0  0  1  0  0  0  0  0999 V2000
  162.6100  211.1900  139.4820 C   0  0  0  0  0  0  0  0  0  0  0  0
  162.7070  212.1690  143.1100 O   0  0  0  0  0  0  0  0  0  0  0  0
  163.7920  213.7220  139.2810 C   0  0  0  0  0  3  0  0  0  0  0  0
  161.9370  209.8510  139.4470 C   0  0  0  0  0  2  0  0  0  0  0  0
  161.9800  214.4530  142.5120 O   0  0  0  0  0  0  0  0  0  0  0  0
  161.5350  213.1030  143.0020 S   0  0  0  0  0  0  0  0  0  0  0  0
  159.3590  213.9760  144.4000 C   0  0  2  0  0  3  0  0  0  0  0  0
  160.2980  212.4270  141.9940 N   0  0  1  0  0  0  0  0  0  0  0  0
  158.8210  208.9620  137.3450 C   0  0  0  0  0  1  0  0  0  0  0  0
  159.4150  212.6670  139.7360 C   0  0  2  0  0  3  0  0  0  0  0  0
  158.4750  213.3190  143.3270 C   0  0  0  0  0  2  0  0  0  0  0  0
  160.7240  213.2890  144.5810 C   0  0  0  0  0  2  0  0  0  0  0  0
  159.6090  209.3700  138.5790 C   0  0  2  0  0  3  0  0  0  0  0  0
  161.9490  212.3180  140.0090 C   0  0  0  0  0  0  0  0  0  0  0  0
  158.6810  213.9890  145.6180 O   0  0  0  0  0  1  0  0  0  0  0  0
  158.9030  210.3160  139.3670 O   0  0  0  0  0  0  0  0  0  0  0  0
  162.5320  213.5850  139.8710 C   0  0  0  0  0  3  0  0  0  0  0  0
  163.8670  211.3360  138.8860 C   0  0  0  0  0  3  0  0  0  0  0  0
  164.4630  212.5970  138.7980 C   0  0  0  0  0  3  0  0  0  0  0  0
  161.0460  209.7630  138.2160 C   0  0  0  0  0  2  0  0  0  0  0  0
  158.3590  213.0510  140.7650 C   0  0  1  0  0  3  0  0  0  0  0  0
  158.9490  211.5840  138.7470 C   0  0  1  0  0  3  0  0  0  0  0  0
  159.1990  213.3720  141.9870 C   0  0  2  0  0  3  0  0  0  0  0  0
  160.5700  212.1520  140.5790 C   0  0  1  0  0  3  0  0  0  0  0  0
  157.9840  212.5660  137.0120 C   0  0  0  0  0  1  0  0  0  0  0  0
  157.7000  211.9030  138.2060 O   0  0  0  0  0  0  0  0  0  0  0  0
  157.6090  214.2840  140.2890 C   0  0  0  0  0  2  0  0  0  0  0  0
  156.1120  214.0700  140.4000 C   0  0  0  0  0  1  0  0  0  0  0  0
  1 14  1  0  0  0  0
  3 17  1  0  0  0  0
  4  1  1  0  0  0  0
  5  6  2  0  0  0  0
  6  2  2  0  0  0  0
  6 12  1  0  0  0  0
  7 12  1  0  0  0  0
  7 15  1  1  0  0  0
  8  6  1  6  0  0  0
  9 13  1  0  0  0  0
 10 24  1  0  0  0  0
 10 21  1  0  0  0  0
 11  7  1  0  0  0  0
 13 16  1  0  0  0  0
 14 24  1  0  0  0  0
 17 14  2  0  0  0  0
 18  1  2  0  0  0  0
 19 18  1  0  0  0  0
 19  3  2  0  0  0  0
 20 13  1  0  0  0  0
 20  4  1  0  0  0  0
 21 23  1  0  0  0  0
 22 16  1  0  0  0  0
 22 10  1  0  0  0  0
 23  8  1  0  0  0  0
 23 11  1  0  0  0  0
 24  8  1  0  0  0  0
 25 26  1  0  0  0  0
 26 22  1  0  0  0  0
 27 28  1  0  0  0  0
 27 21  1  0  0  0  0
M  END
>  <MODEL>
3

>  <REMARK>
 VINA RESULT:      -4.9      9.928     13.433
  Name = 
  2 active torsions:
  status: ('A' for Active; 'I' for Inactive)
    1  A    between atoms: C_5  and  C_24
    2  A    between atoms: O_17  and  C_25
                            x       y       z     vdW  Elec       q    Type
                         _______ _______ _______ _____ _____    ______ ____

>  <TORSDO>
F 2

$$$$
