=
 OpenBabel11122412393D

 30 35  0  0  1  0  0  0  0  0999 V2000
  161.2050  208.8320  152.0500 C   0  0  0  0  0  0  0  0  0  0  0  0
  162.0470  208.5490  149.7130 C   0  0  2  0  0  3  0  0  0  0  0  0
  160.0490  212.8850  151.6190 C   0  0  0  0  0  2  0  0  0  0  0  0
  160.6070  209.6410  153.1540 C   0  0  0  0  0  0  0  0  0  0  0  0
  161.4890  207.4850  152.2900 O   0  0  0  0  0  0  0  0  0  0  0  0
  160.6660  207.0560  155.7120 O   0  0  0  0  0  0  0  0  0  0  0  0
  160.9440  211.0650  155.8100 C   0  0  1  0  0  3  0  0  0  0  0  0
  160.6880  207.6050  154.5760 C   0  0  0  0  0  0  0  0  0  0  0  0
  160.5250  212.2140  154.9770 N   0  0  2  0  0  0  0  0  0  0  0  0
  159.3850  213.1240  152.9800 C   0  0  1  0  0  3  0  0  0  0  0  0
  160.8700  206.7550  153.3480 C   0  0  2  0  0  3  0  0  0  0  0  0
  160.4500  209.0200  154.4510 N   0  0  0  0  0  0  0  0  0  0  0  0
  162.5140  209.4000  148.5600 C   0  0  0  0  0  3  0  0  0  0  0  0
  159.8250  213.1090  155.8910 C   0  0  0  0  0  2  0  0  0  0  0  0
  160.9560  211.5130  157.2610 C   0  0  0  0  0  2  0  0  0  0  0  0
  161.0000  207.5730  149.2040 C   0  0  0  0  0  1  0  0  0  0  0  0
  160.5030  211.5140  151.6530 N   0  0  0  0  0  0  0  0  0  0  0  0
  162.2340  210.7040  148.4710 C   0  0  0  0  0  3  0  0  0  0  0  0
  161.4820  209.3740  150.8460 C   0  0  0  0  0  0  0  0  0  0  0  0
  160.2780  210.9260  152.9160 C   0  0  0  0  0  0  0  0  0  0  0  0
  157.8930  213.3170  152.7850 C   0  0  0  0  0  1  0  0  0  0  0  0
  159.6310  211.8780  153.8580 C   0  0  1  0  0  3  0  0  0  0  0  0
  160.4550  212.9350  157.2510 C   0  0  0  0  0  2  0  0  0  0  0  0
  158.6140  209.9270  155.8520 C   0  0  0  0  0  1  0  0  0  0  0  0
  161.5120  211.3880  149.5070 N   0  0  0  0  0  0  0  0  0  0  0  0
  161.1610  210.7970  150.6090 C   0  0  0  0  0  0  0  0  0  0  0  0
  160.1200  209.7700  155.6660 C   0  0  2  0  0  3  0  0  0  0  0  0
  161.6330  205.6220  153.6380 O   0  0  0  0  0  0  0  0  0  0  0  0
  160.9090  203.9720  152.0880 C   0  0  0  0  0  1  0  0  0  0  0  0
  161.9200  205.0570  152.3950 C   0  0  0  0  0  2  0  0  0  0  0  0
  1  5  1  0  0  0  0
  1  4  1  0  0  0  0
  2 16  1  6  0  0  0
  2 19  1  0  0  0  0
  3 17  1  0  0  0  0
  3 10  1  0  0  0  0
  4 12  1  0  0  0  0
  5 11  1  0  0  0  0
  7 15  1  1  0  0  0
  8  6  2  0  0  0  0
  9  7  1  0  0  0  0
  9 14  1  1  0  0  0
 10 21  1  6  0  0  0
 10 22  1  0  0  0  0
 11 28  1  1  0  0  0
 11  8  1  0  0  0  0
 12  8  1  0  0  0  0
 12 27  1  0  0  0  0
 13  2  1  0  0  0  0
 14 23  1  0  0  0  0
 17 20  1  0  0  0  0
 18 13  2  0  0  0  0
 18 25  1  0  0  0  0
 19  1  2  0  0  0  0
 20  4  2  0  0  0  0
 22 20  1  6  0  0  0
 22  9  1  0  0  0  0
 23 15  1  0  0  0  0
 25 26  2  0  0  0  0
 26 19  1  0  0  0  0
 26 17  1  0  0  0  0
 27  7  1  0  0  0  0
 27 24  1  6  0  0  0
 29 30  1  0  0  0  0
 30 28  1  0  0  0  0
M  END
>  <MODEL>
1

>  <REMARK>
 VINA RESULT:      -5.7      0.000      0.000
  Name = 
  2 active torsions:
  status: ('A' for Active; 'I' for Inactive)
    1  A    between atoms: C_11  and  O_28
    2  A    between atoms: O_28  and  C_30
                            x       y       z     vdW  Elec       q    Type
                         _______ _______ _______ _____ _____    ______ ____

>  <TORSDO>
F 2

$$$$
=
 OpenBabel11122412393D

 30 35  0  0  1  0  0  0  0  0999 V2000
  161.6190  207.9390  151.2660 C   0  0  0  0  0  0  0  0  0  0  0  0
  162.2200  208.1350  148.8470 C   0  0  2  0  0  3  0  0  0  0  0  0
  160.6430  212.0250  151.8140 C   0  0  0  0  0  2  0  0  0  0  0  0
  161.1720  208.5130  152.5700 C   0  0  0  0  0  0  0  0  0  0  0  0
  161.8540  206.5630  151.1890 O   0  0  0  0  0  0  0  0  0  0  0  0
  161.3360  205.4410  154.5120 O   0  0  0  0  0  0  0  0  0  0  0  0
  161.8330  209.3260  155.4150 C   0  0  1  0  0  3  0  0  0  0  0  0
  161.2790  206.2180  153.5190 C   0  0  0  0  0  0  0  0  0  0  0  0
  161.3980  210.6380  154.8900 N   0  0  2  0  0  0  0  0  0  0  0  0
  160.1230  211.9890  153.2560 C   0  0  1  0  0  3  0  0  0  0  0  0
  161.3000  205.6450  152.1280 C   0  0  2  0  0  3  0  0  0  0  0  0
  161.1050  207.6350  153.7180 N   0  0  0  0  0  0  0  0  0  0  0  0
  162.6200  209.1970  147.8550 C   0  0  0  0  0  3  0  0  0  0  0  0
  160.8360  211.3390  156.0380 C   0  0  0  0  0  2  0  0  0  0  0  0
  162.0060  209.4530  156.9190 C   0  0  0  0  0  2  0  0  0  0  0  0
  161.0800  207.3230  148.2560 C   0  0  0  0  0  1  0  0  0  0  0  0
  161.0250  210.6640  151.5130 N   0  0  0  0  0  0  0  0  0  0  0  0
  162.4020  210.4980  148.0710 C   0  0  0  0  0  3  0  0  0  0  0  0
  161.8090  208.7170  150.1790 C   0  0  0  0  0  0  0  0  0  0  0  0
  160.8900  209.8280  152.6420 C   0  0  0  0  0  0  0  0  0  0  0  0
  158.6320  212.2660  153.2610 C   0  0  0  0  0  1  0  0  0  0  0  0
  160.3850  210.5780  153.8240 C   0  0  1  0  0  3  0  0  0  0  0  0
  161.5810  210.8600  157.2580 C   0  0  0  0  0  2  0  0  0  0  0  0
  159.4600  208.2790  155.4600 C   0  0  0  0  0  1  0  0  0  0  0  0
  161.8180  210.9670  149.2950 N   0  0  0  0  0  0  0  0  0  0  0  0
  161.5420  210.1670  150.2800 C   0  0  0  0  0  0  0  0  0  0  0  0
  160.9320  208.1180  155.0910 C   0  0  2  0  0  3  0  0  0  0  0  0
  162.0260  204.4520  152.0950 O   0  0  0  0  0  0  0  0  0  0  0  0
  160.8140  203.6140  150.2300 C   0  0  0  0  0  1  0  0  0  0  0  0
  161.1000  203.4820  151.7120 C   0  0  0  0  0  2  0  0  0  0  0  0
  1  4  1  0  0  0  0
  2 16  1  6  0  0  0
  2 19  1  0  0  0  0
  3 10  1  0  0  0  0
  4 20  2  0  0  0  0
  4 12  1  0  0  0  0
  5  1  1  0  0  0  0
  5 11  1  0  0  0  0
  7 15  1  1  0  0  0
  8 12  1  0  0  0  0
  8  6  2  0  0  0  0
  9  7  1  0  0  0  0
  9 14  1  1  0  0  0
 10 21  1  6  0  0  0
 10 22  1  0  0  0  0
 11 28  1  1  0  0  0
 11  8  1  0  0  0  0
 12 27  1  0  0  0  0
 13 18  2  0  0  0  0
 13  2  1  0  0  0  0
 14 23  1  0  0  0  0
 15 23  1  0  0  0  0
 17  3  1  0  0  0  0
 17 20  1  0  0  0  0
 18 25  1  0  0  0  0
 19 26  1  0  0  0  0
 19  1  2  0  0  0  0
 22 20  1  6  0  0  0
 22  9  1  0  0  0  0
 25 26  2  0  0  0  0
 26 17  1  0  0  0  0
 27  7  1  0  0  0  0
 27 24  1  6  0  0  0
 29 30  1  0  0  0  0
 30 28  1  0  0  0  0
M  END
>  <MODEL>
2

>  <REMARK>
 VINA RESULT:      -5.1      1.201      1.578
  Name = 
  2 active torsions:
  status: ('A' for Active; 'I' for Inactive)
    1  A    between atoms: C_11  and  O_28
    2  A    between atoms: O_28  and  C_30
                            x       y       z     vdW  Elec       q    Type
                         _______ _______ _______ _____ _____    ______ ____

>  <TORSDO>
F 2

$$$$
=
 OpenBabel11122412393D

 30 35  0  0  1  0  0  0  0  0999 V2000
  161.4500  210.6350  150.4630 C   0  0  0  0  0  0  0  0  0  0  0  0
  161.6730  212.0810  148.4370 C   0  0  2  0  0  3  0  0  0  0  0  0
  159.3290  213.4640  152.7980 C   0  0  0  0  0  2  0  0  0  0  0  0
  161.0030  210.3790  151.8660 C   0  0  0  0  0  0  0  0  0  0  0  0
  162.0870  209.6030  149.7690 O   0  0  0  0  0  0  0  0  0  0  0  0
  162.3350  207.0080  152.1720 O   0  0  0  0  0  0  0  0  0  0  0  0
  161.7090  209.9940  154.7890 C   0  0  1  0  0  3  0  0  0  0  0  0
  161.9250  208.0810  151.6500 C   0  0  0  0  0  0  0  0  0  0  0  0
  160.8320  211.1780  154.9120 N   0  0  2  0  0  0  0  0  0  0  0  0
  159.0190  212.6160  154.0370 C   0  0  1  0  0  3  0  0  0  0  0  0
  161.9580  208.2360  150.1540 C   0  0  2  0  0  3  0  0  0  0  0  0
  161.3460  209.1120  152.4740 N   0  0  0  0  0  0  0  0  0  0  0  0
  161.6060  213.5400  148.0660 C   0  0  0  0  0  3  0  0  0  0  0  0
  160.2180  211.0600  156.2300 C   0  0  0  0  0  2  0  0  0  0  0  0
  162.0090  209.4810  156.1870 C   0  0  0  0  0  2  0  0  0  0  0  0
  160.7790  211.2980  147.4910 C   0  0  0  0  0  1  0  0  0  0  0  0
  160.0750  212.5940  151.9180 N   0  0  0  0  0  0  0  0  0  0  0  0
  161.0230  214.4530  148.8490 C   0  0  0  0  0  3  0  0  0  0  0  0
  161.2610  211.8320  149.8690 C   0  0  0  0  0  0  0  0  0  0  0  0
  160.3390  211.3480  152.5260 C   0  0  0  0  0  0  0  0  0  0  0  0
  157.5270  212.3550  154.1080 C   0  0  0  0  0  1  0  0  0  0  0  0
  159.7690  211.2740  153.8980 C   0  0  1  0  0  3  0  0  0  0  0  0
  161.2140  210.3580  157.1200 C   0  0  0  0  0  2  0  0  0  0  0  0
  159.7990  208.3250  154.2470 C   0  0  0  0  0  1  0  0  0  0  0  0
  160.4710  214.1020  150.1260 N   0  0  0  0  0  0  0  0  0  0  0  0
  160.5730  212.9040  150.6170 C   0  0  0  0  0  0  0  0  0  0  0  0
  161.1940  208.8400  153.9060 C   0  0  2  0  0  3  0  0  0  0  0  0
  163.0080  207.4980  149.6030 O   0  0  0  0  0  0  0  0  0  0  0  0
  161.3400  206.5710  148.1860 C   0  0  0  0  0  1  0  0  0  0  0  0
  162.6550  207.3190  148.2650 C   0  0  0  0  0  2  0  0  0  0  0  0
  1  4  1  0  0  0  0
  2 16  1  6  0  0  0
  2 19  1  0  0  0  0
  3 10  1  0  0  0  0
  4 12  1  0  0  0  0
  4 20  2  0  0  0  0
  5 11  1  0  0  0  0
  5  1  1  0  0  0  0
  7  9  1  0  0  0  0
  7 15  1  1  0  0  0
  8  6  2  0  0  0  0
  8 12  1  0  0  0  0
  9 14  1  1  0  0  0
 10 21  1  6  0  0  0
 11 28  1  1  0  0  0
 11  8  1  0  0  0  0
 12 27  1  0  0  0  0
 13  2  1  0  0  0  0
 13 18  2  0  0  0  0
 14 23  1  0  0  0  0
 15 23  1  0  0  0  0
 17 20  1  0  0  0  0
 17  3  1  0  0  0  0
 18 25  1  0  0  0  0
 19  1  2  0  0  0  0
 19 26  1  0  0  0  0
 22 20  1  6  0  0  0
 22 10  1  0  0  0  0
 22  9  1  0  0  0  0
 25 26  2  0  0  0  0
 26 17  1  0  0  0  0
 27 24  1  6  0  0  0
 27  7  1  0  0  0  0
 29 30  1  0  0  0  0
 30 28  1  0  0  0  0
M  END
>  <MODEL>
3

>  <REMARK>
 VINA RESULT:      -4.8      1.875      2.932
  Name = 
  2 active torsions:
  status: ('A' for Active; 'I' for Inactive)
    1  A    between atoms: C_11  and  O_28
    2  A    between atoms: O_28  and  C_30
                            x       y       z     vdW  Elec       q    Type
                         _______ _______ _______ _____ _____    ______ ____

>  <TORSDO>
F 2

$$$$
=
 OpenBabel11122412393D

 30 35  0  0  1  0  0  0  0  0999 V2000
  161.0280  208.8870  151.6750 C   0  0  0  0  0  0  0  0  0  0  0  0
  161.5850  206.8100  150.4000 C   0  0  2  0  0  3  0  0  0  0  0  0
  160.5270  206.9840  155.4270 C   0  0  0  0  0  2  0  0  0  0  0  0
  160.6530  209.6130  152.9250 C   0  0  0  0  0  0  0  0  0  0  0  0
  161.2270  209.6290  150.5080 O   0  0  0  0  0  0  0  0  0  0  0  0
  160.4240  212.9430  151.4790 O   0  0  0  0  0  0  0  0  0  0  0  0
  158.5640  211.1100  154.5340 C   0  0  1  0  0  3  0  0  0  0  0  0
  160.7270  211.7260  151.6180 C   0  0  0  0  0  0  0  0  0  0  0  0
  158.8300  209.9960  155.4700 N   0  0  2  0  0  0  0  0  0  0  0  0
  160.3090  208.2080  156.3260 C   0  0  1  0  0  3  0  0  0  0  0  0
  161.5030  211.0280  150.5350 C   0  0  2  0  0  3  0  0  0  0  0  0
  160.4100  211.0370  152.8430 N   0  0  0  0  0  0  0  0  0  0  0  0
  161.4260  205.3170  150.5290 C   0  0  0  0  0  3  0  0  0  0  0  0
  158.5910  210.5520  156.7980 C   0  0  0  0  0  2  0  0  0  0  0  0
  157.6890  212.1270  155.2460 C   0  0  0  0  0  2  0  0  0  0  0  0
  163.0370  207.1170  150.0760 C   0  0  0  0  0  1  0  0  0  0  0  0
  160.7000  207.5160  154.0950 N   0  0  0  0  0  0  0  0  0  0  0  0
  161.1690  204.7220  151.6980 C   0  0  0  0  0  3  0  0  0  0  0  0
  161.1650  207.5440  151.6510 C   0  0  0  0  0  0  0  0  0  0  0  0
  160.5120  208.9140  154.0680 C   0  0  0  0  0  0  0  0  0  0  0  0
  161.4970  208.3670  157.2550 C   0  0  0  0  0  1  0  0  0  0  0  0
  160.1960  209.4530  155.4190 C   0  0  1  0  0  3  0  0  0  0  0  0
  157.5210  211.6050  156.6510 C   0  0  0  0  0  2  0  0  0  0  0  0
  160.8280  212.3130  154.9300 C   0  0  0  0  0  1  0  0  0  0  0  0
  160.9740  205.4820  152.9000 N   0  0  0  0  0  0  0  0  0  0  0  0
  160.9630  206.7810  152.9010 C   0  0  0  0  0  0  0  0  0  0  0  0
  159.7950  211.8110  153.9260 C   0  0  2  0  0  3  0  0  0  0  0  0
  161.2170  211.5820  149.2850 O   0  0  0  0  0  0  0  0  0  0  0  0
  162.8830  212.5120  147.8680 C   0  0  0  0  0  1  0  0  0  0  0  0
  162.3160  211.2540  148.4900 C   0  0  0  0  0  2  0  0  0  0  0  0
  1  4  1  0  0  0  0
  2 16  1  1  0  0  0
  2 13  1  0  0  0  0
  2 19  1  0  0  0  0
  3 10  1  0  0  0  0
  4 20  2  0  0  0  0
  5 11  1  0  0  0  0
  5  1  1  0  0  0  0
  6  8  2  0  0  0  0
  7 15  1  1  0  0  0
  7  9  1  0  0  0  0
  8 12  1  0  0  0  0
  9 14  1  1  0  0  0
 10 21  1  1  0  0  0
 11 28  1  6  0  0  0
 11  8  1  0  0  0  0
 12  4  1  0  0  0  0
 12 27  1  0  0  0  0
 13 18  2  0  0  0  0
 15 23  1  0  0  0  0
 17  3  1  0  0  0  0
 18 25  1  0  0  0  0
 19  1  2  0  0  0  0
 19 26  1  0  0  0  0
 20 17  1  0  0  0  0
 22 20  1  6  0  0  0
 22  9  1  0  0  0  0
 22 10  1  0  0  0  0
 23 14  1  0  0  0  0
 25 26  2  0  0  0  0
 26 17  1  0  0  0  0
 27  7  1  0  0  0  0
 27 24  1  1  0  0  0
 29 30  1  0  0  0  0
 30 28  1  0  0  0  0
M  END
>  <MODEL>
4

>  <REMARK>
 VINA RESULT:      -4.6      2.134      4.902
  Name = 
  2 active torsions:
  status: ('A' for Active; 'I' for Inactive)
    1  A    between atoms: C_11  and  O_28
    2  A    between atoms: O_28  and  C_30
                            x       y       z     vdW  Elec       q    Type
                         _______ _______ _______ _____ _____    ______ ____

>  <TORSDO>
F 2

$$$$
=
 OpenBabel11122412393D

 30 35  0  0  1  0  0  0  0  0999 V2000
  160.4100  209.6580  153.5680 C   0  0  0  0  0  0  0  0  0  0  0  0
  159.4190  211.6370  154.7310 C   0  0  0  0  0  0  0  0  0  0  0  0
  161.1740  211.6360  149.8990 C   0  0  0  0  0  2  0  0  0  0  0  0
  161.0190  208.9880  152.3800 C   0  0  0  0  0  0  0  0  0  0  0  0
  160.2630  208.9210  154.7460 O   0  0  0  0  0  0  0  0  0  0  0  0
  161.3810  205.6790  153.8460 O   0  0  0  0  0  0  0  0  0  0  0  0
  160.7650  207.0030  150.1020 C   0  0  1  0  0  3  0  0  0  0  0  0
  161.2250  206.9280  153.7540 C   0  0  0  0  0  0  0  0  0  0  0  0
  161.0170  208.2310  149.3180 N   0  0  2  0  0  0  0  0  0  0  0  0
  161.9180  210.5280  149.1430 C   0  0  1  0  0  3  0  0  0  0  0  0
  161.0230  207.7420  155.0030 C   0  0  2  0  0  3  0  0  0  0  0  0
  161.3290  207.5780  152.4730 N   0  0  0  0  0  0  0  0  0  0  0  0
  158.7930  212.9640  154.3880 C   0  0  0  0  0  3  0  0  0  0  0  0
  161.7060  207.7780  148.1140 C   0  0  0  0  0  2  0  0  0  0  0  0
  160.8250  205.8170  149.1550 C   0  0  0  0  0  2  0  0  0  0  0  0
  160.5040  211.8660  155.7690 C   0  0  0  0  0  1  0  0  0  0  0  0
  160.8450  211.0640  151.1850 N   0  0  0  0  0  0  0  0  0  0  0  0
  158.9510  213.5440  153.1940 C   0  0  0  0  0  3  0  0  0  0  0  0
  159.9950  210.9420  153.5200 C   0  0  0  0  0  0  0  0  0  0  0  0
  161.2160  209.7050  151.2560 C   0  0  0  0  0  0  0  0  0  0  0  0
  163.3670  210.9330  148.9570 C   0  0  0  0  0  1  0  0  0  0  0  0
  161.8490  209.2400  149.9920 C   0  0  1  0  0  3  0  0  0  0  0  0
  161.1990  206.3900  147.8110 C   0  0  0  0  0  2  0  0  0  0  0  0
  163.1810  206.7940  151.0200 C   0  0  0  0  0  1  0  0  0  0  0  0
  159.6880  212.9050  152.1420 N   0  0  0  0  0  0  0  0  0  0  0  0
  160.1730  211.7070  152.2670 C   0  0  2  0  0  3  0  0  0  0  0  0
  161.6850  206.7550  151.3140 C   0  0  2  0  0  3  0  0  0  0  0  0
  160.3850  206.9860  155.9900 O   0  0  0  0  0  0  0  0  0  0  0  0
  161.8730  208.3560  157.2400 C   0  0  0  0  0  1  0  0  0  0  0  0
  160.4850  207.7560  157.1490 C   0  0  0  0  0  2  0  0  0  0  0  0
  1  5  1  0  0  0  0
  2 16  1  0  0  0  0
  3 17  1  0  0  0  0
  4 12  1  0  0  0  0
  4  1  1  0  0  0  0
  5 11  1  0  0  0  0
  7 15  1  6  0  0  0
  7 27  1  0  0  0  0
  8  6  2  0  0  0  0
  8 11  1  0  0  0  0
  9 14  1  6  0  0  0
  9 22  1  0  0  0  0
  9  7  1  0  0  0  0
 10 21  1  1  0  0  0
 10  3  1  0  0  0  0
 10 22  1  0  0  0  0
 11 28  1  1  0  0  0
 12  8  1  0  0  0  0
 13  2  2  0  0  0  0
 17 20  1  0  0  0  0
 17 26  1  0  0  0  0
 18 13  1  0  0  0  0
 19  1  2  0  0  0  0
 19  2  1  0  0  0  0
 20  4  2  0  0  0  0
 22 20  1  1  0  0  0
 23 14  1  0  0  0  0
 23 15  1  0  0  0  0
 25 18  2  0  0  0  0
 26 25  1  6  0  0  0
 26 19  1  0  0  0  0
 27 24  1  6  0  0  0
 27 12  1  0  0  0  0
 28 30  1  0  0  0  0
 30 29  1  0  0  0  0
M  END
>  <MODEL>
5

>  <REMARK>
 VINA RESULT:      -4.3      1.526      5.701
  Name = 
  2 active torsions:
  status: ('A' for Active; 'I' for Inactive)
    1  A    between atoms: C_11  and  O_28
    2  A    between atoms: O_28  and  C_30
                            x       y       z     vdW  Elec       q    Type
                         _______ _______ _______ _____ _____    ______ ____

>  <TORSDO>
F 2

$$$$
=
 OpenBabel11122412393D

 30 35  0  0  1  0  0  0  0  0999 V2000
  161.5090  207.2570  151.1090 C   0  0  0  0  0  0  0  0  0  0  0  0
  161.6550  209.7490  150.9780 C   0  0  0  0  0  0  0  0  0  0  0  0
  162.3300  206.5470  147.0140 C   0  0  0  0  0  2  0  0  0  0  0  0
  161.5570  205.8930  150.5010 C   0  0  0  0  0  0  0  0  0  0  0  0
  161.2910  207.3650  152.4850 O   0  0  0  0  0  0  0  0  0  0  0  0
  160.7860  204.0110  153.5170 O   0  0  0  0  0  0  0  0  0  0  0  0
  160.0920  203.3940  149.6060 C   0  0  1  0  0  3  0  0  0  0  0  0
  161.1450  204.9610  152.7680 C   0  0  0  0  0  0  0  0  0  0  0  0
  160.6790  203.8000  148.3110 N   0  0  2  0  0  0  0  0  0  0  0  0
  162.3980  205.0150  147.0120 C   0  0  1  0  0  3  0  0  0  0  0  0
  161.5300  206.2800  153.3790 C   0  0  2  0  0  3  0  0  0  0  0  0
  161.2690  204.7550  151.3470 N   0  0  0  0  0  0  0  0  0  0  0  0
  161.5800  210.8410  149.9420 C   0  0  0  0  0  3  0  0  0  0  0  0
  160.8850  202.5540  147.5810 C   0  0  0  0  0  2  0  0  0  0  0  0
  159.4830  202.0130  149.4360 C   0  0  0  0  0  2  0  0  0  0  0  0
  162.9090  209.9540  151.8110 C   0  0  0  0  0  1  0  0  0  0  0  0
  162.0380  206.9130  148.3810 N   0  0  0  0  0  0  0  0  0  0  0  0
  161.7410  210.6040  148.6370 C   0  0  0  0  0  3  0  0  0  0  0  0
  161.6600  208.3700  150.3610 C   0  0  0  0  0  0  0  0  0  0  0  0
  161.8210  205.7750  149.1850 C   0  0  0  0  0  0  0  0  0  0  0  0
  163.8240  204.5750  146.7410 C   0  0  0  0  0  1  0  0  0  0  0  0
  161.9620  204.5150  148.4050 C   0  0  1  0  0  3  0  0  0  0  0  0
  159.8050  201.5980  148.0230 C   0  0  0  0  0  2  0  0  0  0  0  0
  162.3320  202.6200  150.6620 C   0  0  0  0  0  1  0  0  0  0  0  0
  161.9410  209.2740  148.1360 N   0  0  0  0  0  0  0  0  0  0  0  0
  161.9030  208.2310  148.9100 C   0  0  2  0  0  3  0  0  0  0  0  0
  161.0340  203.4060  150.8260 C   0  0  2  0  0  3  0  0  0  0  0  0
  160.8320  206.4970  154.5690 O   0  0  0  0  0  0  0  0  0  0  0  0
  160.0820  208.2400  156.0020 C   0  0  0  0  0  1  0  0  0  0  0  0
  160.8320  207.8830  154.7350 C   0  0  0  0  0  2  0  0  0  0  0  0
  1  5  1  0  0  0  0
  2 16  1  0  0  0  0
  3 17  1  0  0  0  0
  4  1  1  0  0  0  0
  4 12  1  0  0  0  0
  5 11  1  0  0  0  0
  7 15  1  6  0  0  0
  7 27  1  0  0  0  0
  8 11  1  0  0  0  0
  8  6  2  0  0  0  0
  9 14  1  6  0  0  0
  9 22  1  0  0  0  0
  9  7  1  0  0  0  0
 10 21  1  1  0  0  0
 10  3  1  0  0  0  0
 10 22  1  0  0  0  0
 11 28  1  1  0  0  0
 12  8  1  0  0  0  0
 13  2  2  0  0  0  0
 14 23  1  0  0  0  0
 17 26  1  0  0  0  0
 17 20  1  0  0  0  0
 18 13  1  0  0  0  0
 19  2  1  0  0  0  0
 19  1  2  0  0  0  0
 20  4  2  0  0  0  0
 22 20  1  1  0  0  0
 23 15  1  0  0  0  0
 25 18  2  0  0  0  0
 26 25  1  6  0  0  0
 26 19  1  0  0  0  0
 27 24  1  6  0  0  0
 27 12  1  0  0  0  0
 28 30  1  0  0  0  0
 30 29  1  0  0  0  0
M  END
>  <MODEL>
6

>  <REMARK>
 VINA RESULT:      -4.3      3.103      7.271
  Name = 
  2 active torsions:
  status: ('A' for Active; 'I' for Inactive)
    1  A    between atoms: C_11  and  O_28
    2  A    between atoms: O_28  and  C_30
                            x       y       z     vdW  Elec       q    Type
                         _______ _______ _______ _____ _____    ______ ____

>  <TORSDO>
F 2

$$$$
=
 OpenBabel11122412393D

 30 35  0  0  1  0  0  0  0  0999 V2000
  160.4550  210.5420  151.7440 C   0  0  0  0  0  0  0  0  0  0  0  0
  161.3670  208.7020  150.3190 C   0  0  2  0  0  3  0  0  0  0  0  0
  160.5240  208.3640  155.3780 C   0  0  0  0  0  2  0  0  0  0  0  0
  159.9970  211.1020  153.0510 C   0  0  0  0  0  0  0  0  0  0  0  0
  160.4450  211.3750  150.6230 O   0  0  0  0  0  0  0  0  0  0  0  0
  159.0270  214.3900  151.8350 O   0  0  0  0  0  0  0  0  0  0  0  0
  157.7210  212.0390  154.8220 C   0  0  1  0  0  3  0  0  0  0  0  0
  159.5780  213.2560  151.8840 C   0  0  0  0  0  0  0  0  0  0  0  0
  158.2510  210.9530  155.6740 N   0  0  2  0  0  0  0  0  0  0  0  0
  160.1020  209.4630  156.3610 C   0  0  1  0  0  3  0  0  0  0  0  0
  160.4310  212.7970  150.7330 C   0  0  2  0  0  3  0  0  0  0  0  0
  159.4640  212.4470  153.0710 N   0  0  0  0  0  0  0  0  0  0  0  0
  161.5220  207.2030  150.3550 C   0  0  0  0  0  3  0  0  0  0  0  0
  157.9640  211.3690  157.0420 C   0  0  0  0  0  2  0  0  0  0  0  0
  156.6900  212.8110  155.6280 C   0  0  0  0  0  2  0  0  0  0  0  0
  162.7090  209.3210  149.9690 C   0  0  0  0  0  1  0  0  0  0  0  0
  160.5240  208.9960  154.0790 N   0  0  0  0  0  0  0  0  0  0  0  0
  161.4450  206.5020  151.4900 C   0  0  0  0  0  3  0  0  0  0  0  0
  160.8620  209.2600  151.6290 C   0  0  0  0  0  0  0  0  0  0  0  0
  160.0540  210.3240  154.1500 C   0  0  0  0  0  0  0  0  0  0  0  0
  161.2720  209.8100  157.2610 C   0  0  0  0  0  1  0  0  0  0  0  0
  159.6960  210.7070  155.5430 C   0  0  1  0  0  3  0  0  0  0  0  0
  156.6960  212.1860  157.0000 C   0  0  0  0  0  2  0  0  0  0  0  0
  159.7070  213.6590  155.2230 C   0  0  0  0  0  1  0  0  0  0  0  0
  161.1530  207.1350  152.7440 N   0  0  0  0  0  0  0  0  0  0  0  0
  160.8770  208.4010  152.8310 C   0  0  0  0  0  0  0  0  0  0  0  0
  158.7540  213.0130  154.2210 C   0  0  2  0  0  3  0  0  0  0  0  0
  159.9810  213.3510  149.5320 O   0  0  0  0  0  0  0  0  0  0  0  0
  160.7870  212.4680  147.4770 C   0  0  0  0  0  1  0  0  0  0  0  0
  161.0930  213.3240  148.6890 C   0  0  0  0  0  2  0  0  0  0  0  0
  1  4  1  0  0  0  0
  2 16  1  1  0  0  0
  2 13  1  0  0  0  0
  2 19  1  0  0  0  0
  3 10  1  0  0  0  0
  4 12  1  0  0  0  0
  4 20  2  0  0  0  0
  5 11  1  0  0  0  0
  5  1  1  0  0  0  0
  6  8  2  0  0  0  0
  7 15  1  1  0  0  0
  7  9  1  0  0  0  0
  8 12  1  0  0  0  0
  9 14  1  1  0  0  0
 10 21  1  1  0  0  0
 11 28  1  6  0  0  0
 11  8  1  0  0  0  0
 12 27  1  0  0  0  0
 13 18  2  0  0  0  0
 15 23  1  0  0  0  0
 17 20  1  0  0  0  0
 17  3  1  0  0  0  0
 18 25  1  0  0  0  0
 19  1  2  0  0  0  0
 19 26  1  0  0  0  0
 22 20  1  6  0  0  0
 22  9  1  0  0  0  0
 22 10  1  0  0  0  0
 23 14  1  0  0  0  0
 25 26  2  0  0  0  0
 26 17  1  0  0  0  0
 27  7  1  0  0  0  0
 27 24  1  1  0  0  0
 29 30  1  0  0  0  0
 30 28  1  0  0  0  0
M  END
>  <MODEL>
7

>  <REMARK>
 VINA RESULT:      -3.9      2.581      5.006
  Name = 
  2 active torsions:
  status: ('A' for Active; 'I' for Inactive)
    1  A    between atoms: C_11  and  O_28
    2  A    between atoms: O_28  and  C_30
                            x       y       z     vdW  Elec       q    Type
                         _______ _______ _______ _____ _____    ______ ____

>  <TORSDO>
F 2

$$$$
=
 OpenBabel11122412393D

 30 35  0  0  1  0  0  0  0  0999 V2000
  161.2810  206.1590  150.3470 C   0  0  0  0  0  0  0  0  0  0  0  0
  160.9210  203.7170  149.9510 C   0  0  2  0  0  3  0  0  0  0  0  0
  160.7040  206.0180  154.5420 C   0  0  0  0  0  2  0  0  0  0  0  0
  161.3520  207.3610  151.2310 C   0  0  0  0  0  0  0  0  0  0  0  0
  161.5500  206.3170  148.9850 O   0  0  0  0  0  0  0  0  0  0  0  0
  162.0550  209.8090  148.6340 O   0  0  0  0  0  0  0  0  0  0  0  0
  160.1380  209.9780  152.1630 C   0  0  1  0  0  3  0  0  0  0  0  0
  161.9470  208.6970  149.2220 C   0  0  0  0  0  0  0  0  0  0  0  0
  160.1430  209.2500  153.4490 N   0  0  2  0  0  0  0  0  0  0  0  0
  161.0400  207.4680  154.9120 C   0  0  1  0  0  3  0  0  0  0  0  0
  162.2820  207.4320  148.4800 C   0  0  2  0  0  3  0  0  0  0  0  0
  161.5930  208.6490  150.6180 N   0  0  0  0  0  0  0  0  0  0  0  0
  160.2890  202.5330  150.6350 C   0  0  0  0  0  3  0  0  0  0  0  0
  160.2950  210.2810  154.4690 C   0  0  0  0  0  2  0  0  0  0  0  0
  159.7660  211.4240  152.4400 C   0  0  0  0  0  2  0  0  0  0  0  0
  162.3310  203.3380  149.5290 C   0  0  0  0  0  1  0  0  0  0  0  0
  160.8570  205.9460  153.1070 N   0  0  0  0  0  0  0  0  0  0  0  0
  160.0140  202.5230  151.9440 C   0  0  0  0  0  3  0  0  0  0  0  0
  160.9530  204.9430  150.8330 C   0  0  0  0  0  0  0  0  0  0  0  0
  161.1480  207.2100  152.5540 C   0  0  0  0  0  0  0  0  0  0  0  0
  162.3310  207.4980  155.7080 C   0  0  0  0  0  1  0  0  0  0  0  0
  161.2250  208.2640  153.6020 C   0  0  1  0  0  3  0  0  0  0  0  0
  159.6330  211.5290  153.9380 C   0  0  0  0  0  2  0  0  0  0  0  0
  162.7060  210.3290  152.0650 C   0  0  0  0  0  1  0  0  0  0  0  0
  160.2580  203.6720  152.7690 N   0  0  0  0  0  0  0  0  0  0  0  0
  160.6850  204.7970  152.2790 C   0  0  0  0  0  0  0  0  0  0  0  0
  161.4340  209.9200  151.3290 C   0  0  2  0  0  3  0  0  0  0  0  0
  162.0260  207.5760  147.1150 O   0  0  0  0  0  0  0  0  0  0  0  0
  162.3290  205.6880  145.7020 C   0  0  0  0  0  1  0  0  0  0  0  0
  161.4480  206.3650  146.7320 C   0  0  0  0  0  2  0  0  0  0  0  0
  1 19  2  0  0  0  0
  1  4  1  0  0  0  0
  2 16  1  1  0  0  0
  2 13  1  0  0  0  0
  2 19  1  0  0  0  0
  3 10  1  0  0  0  0
  4 20  2  0  0  0  0
  5  1  1  0  0  0  0
  6  8  2  0  0  0  0
  7 15  1  1  0  0  0
  7  9  1  0  0  0  0
  8 12  1  0  0  0  0
  9 22  1  0  0  0  0
  9 14  1  1  0  0  0
 10 21  1  1  0  0  0
 11 28  1  6  0  0  0
 11  5  1  0  0  0  0
 11  8  1  0  0  0  0
 12  4  1  0  0  0  0
 12 27  1  0  0  0  0
 13 18  2  0  0  0  0
 15 23  1  0  0  0  0
 17  3  1  0  0  0  0
 18 25  1  0  0  0  0
 19 26  1  0  0  0  0
 20 17  1  0  0  0  0
 22 20  1  6  0  0  0
 22 10  1  0  0  0  0
 23 14  1  0  0  0  0
 26 25  2  0  0  0  0
 26 17  1  0  0  0  0
 27 24  1  1  0  0  0
 27  7  1  0  0  0  0
 29 30  1  0  0  0  0
 30 28  1  0  0  0  0
M  END
>  <MODEL>
8

>  <REMARK>
 VINA RESULT:      -2.8      2.496      5.639
  Name = 
  2 active torsions:
  status: ('A' for Active; 'I' for Inactive)
    1  A    between atoms: C_11  and  O_28
    2  A    between atoms: O_28  and  C_30
                            x       y       z     vdW  Elec       q    Type
                         _______ _______ _______ _____ _____    ______ ____

>  <TORSDO>
F 2

$$$$
=
 OpenBabel11122412393D

 30 35  0  0  1  0  0  0  0  0999 V2000
  160.8120  211.4810  150.7030 C   0  0  0  0  0  0  0  0  0  0  0  0
  161.5470  212.2090  148.4270 C   0  0  2  0  0  3  0  0  0  0  0  0
  157.8270  214.4510  151.1750 C   0  0  0  0  0  2  0  0  0  0  0  0
  159.9640  211.6120  151.9260 C   0  0  0  0  0  0  0  0  0  0  0  0
  161.7220  210.4230  150.6340 O   0  0  0  0  0  0  0  0  0  0  0  0
  161.4070  208.8440  153.7920 O   0  0  0  0  0  0  0  0  0  0  0  0
  159.7290  212.3370  154.8610 C   0  0  1  0  0  3  0  0  0  0  0  0
  161.0960  209.5910  152.8240 C   0  0  0  0  0  0  0  0  0  0  0  0
  158.7620  213.3050  154.3000 N   0  0  2  0  0  0  0  0  0  0  0  0
  157.2090  214.0070  152.5070 C   0  0  1  0  0  3  0  0  0  0  0  0
  161.5920  209.2560  151.4430 C   0  0  2  0  0  3  0  0  0  0  0  0
  160.2000  210.7010  153.0240 N   0  0  0  0  0  0  0  0  0  0  0  0
  161.4800  213.4280  147.5440 C   0  0  0  0  0  3  0  0  0  0  0  0
  157.7720  213.5050  155.3530 C   0  0  0  0  0  2  0  0  0  0  0  0
  159.6090  212.3710  156.3740 C   0  0  0  0  0  2  0  0  0  0  0  0
  161.0710  211.0060  147.6320 C   0  0  0  0  0  1  0  0  0  0  0  0
  158.8850  213.5030  150.9110 N   0  0  0  0  0  0  0  0  0  0  0  0
  160.6030  214.4150  147.7500 C   0  0  0  0  0  3  0  0  0  0  0  0
  160.7230  212.3620  149.6840 C   0  0  0  0  0  0  0  0  0  0  0  0
  159.0440  212.5960  151.9800 C   0  0  0  0  0  0  0  0  0  0  0  0
  155.8000  213.5010  152.2650 C   0  0  0  0  0  1  0  0  0  0  0  0
  158.0750  212.8620  153.0770 C   0  0  1  0  0  3  0  0  0  0  0  0
  158.4870  213.3330  156.6710 C   0  0  0  0  0  2  0  0  0  0  0  0
  158.2390  210.2490  154.4760 C   0  0  0  0  0  1  0  0  0  0  0  0
  159.7030  214.3970  148.8680 N   0  0  0  0  0  0  0  0  0  0  0  0
  159.7430  213.4650  149.7720 C   0  0  0  0  0  0  0  0  0  0  0  0
  159.6220  210.8830  154.3580 C   0  0  2  0  0  3  0  0  0  0  0  0
  162.8210  208.5960  151.5050 O   0  0  0  0  0  0  0  0  0  0  0  0
  161.9600  207.3610  149.6660 C   0  0  0  0  0  1  0  0  0  0  0  0
  162.5530  207.3020  151.0590 C   0  0  0  0  0  2  0  0  0  0  0  0
  1  4  1  0  0  0  0
  2 16  1  6  0  0  0
  2 19  1  0  0  0  0
  3 10  1  0  0  0  0
  4 20  2  0  0  0  0
  4 12  1  0  0  0  0
  5  1  1  0  0  0  0
  5 11  1  0  0  0  0
  7 15  1  1  0  0  0
  8 12  1  0  0  0  0
  8  6  2  0  0  0  0
  9  7  1  0  0  0  0
  9 14  1  1  0  0  0
 10 21  1  6  0  0  0
 10 22  1  0  0  0  0
 11 28  1  1  0  0  0
 11  8  1  0  0  0  0
 12 27  1  0  0  0  0
 13 18  2  0  0  0  0
 13  2  1  0  0  0  0
 14 23  1  0  0  0  0
 15 23  1  0  0  0  0
 17  3  1  0  0  0  0
 17 20  1  0  0  0  0
 18 25  1  0  0  0  0
 19 26  1  0  0  0  0
 19  1  2  0  0  0  0
 22 20  1  6  0  0  0
 22  9  1  0  0  0  0
 25 26  2  0  0  0  0
 26 17  1  0  0  0  0
 27 24  1  6  0  0  0
 27  7  1  0  0  0  0
 29 30  1  0  0  0  0
 30 28  1  0  0  0  0
M  END
>  <MODEL>
9

>  <REMARK>
 VINA RESULT:      -2.7      1.977      2.919
  Name = 
  2 active torsions:
  status: ('A' for Active; 'I' for Inactive)
    1  A    between atoms: C_11  and  O_28
    2  A    between atoms: O_28  and  C_30
                            x       y       z     vdW  Elec       q    Type
                         _______ _______ _______ _____ _____    ______ ____

>  <TORSDO>
F 2

$$$$
