=
 OpenBabel11122412543D

 32 38  0  0  1  0  0  0  0  0999 V2000
  162.3250  211.7200  150.1320 C   0  0  1  0  0  3  0  0  0  0  0  0
  160.9340  206.8310  148.8920 C   0  0  1  0  0  3  0  0  0  0  0  0
  161.0410  204.8400  153.4100 C   0  0  0  0  0  3  0  0  0  0  0  0
  160.8870  203.5660  152.8620 C   0  0  0  0  0  3  0  0  0  0  0  0
  160.9260  205.1990  146.8770 C   0  0  0  0  0  0  0  0  0  0  0  0
  161.0120  203.8790  146.4460 C   0  0  0  0  0  0  0  0  0  0  0  0
  161.4090  209.2820  148.7490 C   0  0  1  0  0  3  0  0  0  0  0  0
  161.2590  208.1670  150.8830 O   0  0  0  0  0  0  0  0  0  0  0  0
  161.1600  201.7190  146.6260 N   0  0  0  0  0  0  0  0  0  0  0  0
  161.9880  210.4760  150.9700 C   0  0  2  0  0  3  0  0  0  0  0  0
  161.2390  205.9410  152.5730 C   0  0  0  0  0  3  0  0  0  0  0  0
  161.5970  206.9350  150.2860 C   0  0  1  0  0  3  0  0  0  0  0  0
  161.2610  205.7770  151.1800 C   0  0  0  0  0  0  0  0  0  0  0  0
  161.1530  204.3050  149.1610 C   0  0  0  0  0  0  0  0  0  0  0  0
  161.0060  202.0440  145.3470 N   0  0  0  0  0  0  0  0  0  0  0  0
  162.5210  211.4750  148.6470 C   0  0  0  0  0  3  0  0  0  0  0  0
  161.9680  209.1530  150.1750 C   0  0  2  0  0  3  0  0  0  0  0  0
  160.9090  203.3670  145.2030 N   0  0  0  0  0  0  0  0  0  0  0  0
  162.1340  210.3600  148.0120 C   0  0  0  0  0  3  0  0  0  0  0  0
  160.8890  211.4500  150.5650 C   0  0  1  0  0  3  0  0  0  0  0  0
  160.9330  203.3910  151.4770 C   0  0  0  0  0  3  0  0  0  0  0  0
  161.1260  204.4920  150.6270 C   0  0  0  0  0  0  0  0  0  0  0  0
  161.2120  203.0320  148.6550 N   0  0  0  0  0  0  0  0  0  0  0  0
  161.5510  207.9430  148.0350 C   0  0  0  0  0  2  0  0  0  0  0  0
  160.6330  206.2680  145.8750 C   0  0  0  0  0  1  0  0  0  0  0  0
  161.2610  200.3640  147.1380 C   0  0  0  0  0  1  0  0  0  0  0  0
  161.0610  205.4380  148.2810 C   0  0  0  0  0  0  0  0  0  0  0  0
  161.1650  202.8620  147.3170 C   0  0  0  0  0  0  0  0  0  0  0  0
  160.5600  212.2990  151.6980 N   0  0  0  0  0  2  0  0  0  0  0  0
  159.7530  211.8360  152.7800 C   0  0  0  0  0  0  0  0  0  0  0  0
  159.4680  212.6870  153.8380 O   0  0  0  0  0  1  0  0  0  0  0  0
  159.2950  210.6620  152.7830 O   0  0  0  0  0  0  0  0  0  0  0  0
  1 16  1  6  0  0  0
  1 20  1  0  0  0  0
  1 10  1  0  0  0  0
  2 24  1  6  0  0  0
  2 12  1  0  0  0  0
  4  3  1  0  0  0  0
  5 27  1  0  0  0  0
  6  5  2  0  0  0  0
  6 28  1  0  0  0  0
  7 19  1  6  0  0  0
  7 17  1  0  0  0  0
  9 26  1  0  0  0  0
  9 28  1  0  0  0  0
 11  3  2  0  0  0  0
 12  8  1  0  0  0  0
 12 13  1  0  0  0  0
 13 11  1  0  0  0  0
 14 22  1  0  0  0  0
 15  9  1  0  0  0  0
 17  8  1  0  0  0  0
 17 10  1  0  0  0  0
 18 15  2  0  0  0  0
 18  6  1  0  0  0  0
 19 16  2  0  0  0  0
 20 10  1  0  0  0  0
 20 29  1  0  0  0  0
 21  4  2  0  0  0  0
 22 13  2  0  0  0  0
 22 21  1  0  0  0  0
 23 14  1  0  0  0  0
 24  7  1  0  0  0  0
 25  5  1  0  0  0  0
 27  2  1  0  0  0  0
 27 14  2  0  0  0  0
 28 23  2  0  0  0  0
 29 30  1  0  0  0  0
 30 32  2  0  0  0  0
 30 31  1  0  0  0  0
M  END
>  <MODEL>
1

>  <REMARK>
 VINA RESULT:      -7.8      0.000      0.000
  Name = 
  1 active torsions:
  status: ('A' for Active; 'I' for Inactive)
    1  A    between atoms: C_20  and  N_29
                            x       y       z     vdW  Elec       q    Type
                         _______ _______ _______ _____ _____    ______ ____

>  <TORSDO>
F 1

$$$$
=
 OpenBabel11122412543D

 32 38  0  0  1  0  0  0  0  0999 V2000
  161.6360  202.0850  149.0830 C   0  0  1  0  0  3  0  0  0  0  0  0
  160.8220  206.4030  151.9220 C   0  0  1  0  0  3  0  0  0  0  0  0
  162.1160  209.7810  148.5610 C   0  0  0  0  0  3  0  0  0  0  0  0
  162.0620  210.7820  149.5320 C   0  0  0  0  0  3  0  0  0  0  0  0
  160.6810  207.1820  154.3920 C   0  0  0  0  0  0  0  0  0  0  0  0
  160.8880  208.2120  155.3020 C   0  0  0  0  0  0  0  0  0  0  0  0
  160.8660  204.0180  151.1720 C   0  0  1  0  0  3  0  0  0  0  0  0
  161.3110  205.8160  149.6270 O   0  0  0  0  0  0  0  0  0  0  0  0
  161.4090  210.2090  155.9830 N   0  0  0  0  0  0  0  0  0  0  0  0
  161.6690  203.5860  148.7510 C   0  0  2  0  0  3  0  0  0  0  0  0
  161.9720  208.4410  148.9300 C   0  0  0  0  0  3  0  0  0  0  0  0
  161.7170  206.6530  150.6870 C   0  0  1  0  0  3  0  0  0  0  0  0
  161.7490  208.0950  150.2700 C   0  0  0  0  0  0  0  0  0  0  0  0
  161.4850  208.7490  152.6700 C   0  0  0  0  0  0  0  0  0  0  0  0
  160.9600  209.4980  157.0120 N   0  0  0  0  0  0  0  0  0  0  0  0
  161.5760  201.7430  150.5600 C   0  0  0  0  0  3  0  0  0  0  0  0
  161.7040  204.5140  149.9840 C   0  0  2  0  0  3  0  0  0  0  0  0
  160.6290  208.2640  156.6250 N   0  0  0  0  0  0  0  0  0  0  0  0
  161.2540  202.6190  151.5220 C   0  0  0  0  0  3  0  0  0  0  0  0
  160.3730  202.7980  148.6160 C   0  0  1  0  0  3  0  0  0  0  0  0
  161.8650  210.4430  150.8730 C   0  0  0  0  0  3  0  0  0  0  0  0
  161.7130  209.1000  151.2520 C   0  0  0  0  0  0  0  0  0  0  0  0
  161.6450  209.7160  153.6280 N   0  0  0  0  0  0  0  0  0  0  0  0
  161.0760  204.9550  152.3560 C   0  0  0  0  0  2  0  0  0  0  0  0
  160.0340  205.9200  154.8640 C   0  0  0  0  0  1  0  0  0  0  0  0
  161.8190  211.6010  156.0450 C   0  0  0  0  0  1  0  0  0  0  0  0
  161.0460  207.4280  153.0310 C   0  0  0  0  0  0  0  0  0  0  0  0
  161.3670  209.4110  154.9140 C   0  0  0  0  0  0  0  0  0  0  0  0
  160.1390  202.4950  147.2140 N   0  0  0  0  0  2  0  0  0  0  0  0
  160.6130  201.2910  146.6110 C   0  0  0  0  0  0  0  0  0  0  0  0
  160.3630  201.0510  145.2670 O   0  0  0  0  0  0  0  0  0  0  0  0
  161.2570  200.4460  147.2870 O   0  0  0  0  0  1  0  0  0  0  0  0
  1 16  1  1  0  0  0
  2 24  1  1  0  0  0
  2 27  1  0  0  0  0
  3 11  2  0  0  0  0
  3  4  1  0  0  0  0
  4 21  2  0  0  0  0
  5 25  1  0  0  0  0
  5  6  1  0  0  0  0
  6 18  1  0  0  0  0
  7 19  1  1  0  0  0
  7 24  1  0  0  0  0
  8 17  1  0  0  0  0
  8 12  1  0  0  0  0
  9 26  1  0  0  0  0
  9 15  1  0  0  0  0
 10  1  1  0  0  0  0
 10 17  1  0  0  0  0
 11 13  1  0  0  0  0
 12  2  1  0  0  0  0
 13 12  1  0  0  0  0
 13 22  2  0  0  0  0
 14 27  1  0  0  0  0
 14 23  2  0  0  0  0
 16 19  2  0  0  0  0
 17  7  1  0  0  0  0
 18 15  2  0  0  0  0
 20 10  1  0  0  0  0
 20  1  1  0  0  0  0
 21 22  1  0  0  0  0
 22 14  1  0  0  0  0
 23 28  1  0  0  0  0
 27  5  2  0  0  0  0
 28  6  2  0  0  0  0
 28  9  1  0  0  0  0
 29 20  1  0  0  0  0
 30 29  1  0  0  0  0
 30 32  1  0  0  0  0
 31 30  2  0  0  0  0
M  END
>  <MODEL>
2

>  <REMARK>
 VINA RESULT:      -7.0      3.342      8.848
  Name = 
  1 active torsions:
  status: ('A' for Active; 'I' for Inactive)
    1  A    between atoms: C_20  and  N_29
                            x       y       z     vdW  Elec       q    Type
                         _______ _______ _______ _____ _____    ______ ____

>  <TORSDO>
F 1

$$$$
=
 OpenBabel11122412543D

 32 38  0  0  1  0  0  0  0  0999 V2000
  162.0760  203.3760  146.5870 C   0  0  1  0  0  3  0  0  0  0  0  0
  160.9870  206.5160  150.6280 C   0  0  1  0  0  3  0  0  0  0  0  0
  162.3310  210.8260  148.6270 C   0  0  0  0  0  3  0  0  0  0  0  0
  162.1980  211.4530  149.8670 C   0  0  0  0  0  3  0  0  0  0  0  0
  160.7020  206.4420  153.2050 C   0  0  0  0  0  0  0  0  0  0  0  0
  160.8320  207.1220  154.4110 C   0  0  0  0  0  0  0  0  0  0  0  0
  161.1440  204.5080  149.1460 C   0  0  1  0  0  3  0  0  0  0  0  0
  161.6040  206.7190  148.2970 O   0  0  0  0  0  0  0  0  0  0  0  0
  161.2540  208.7940  155.7330 N   0  0  0  0  0  0  0  0  0  0  0  0
  162.0760  204.9030  146.7650 C   0  0  2  0  0  3  0  0  0  0  0  0
  162.2130  209.4370  148.5310 C   0  0  0  0  0  3  0  0  0  0  0  0
  161.9310  207.1700  149.5930 C   0  0  1  0  0  3  0  0  0  0  0  0
  161.9370  208.6690  149.6710 C   0  0  0  0  0  0  0  0  0  0  0  0
  161.5370  208.4980  152.1350 C   0  0  0  0  0  0  0  0  0  0  0  0
  160.7790  207.7780  156.4460 N   0  0  0  0  0  0  0  0  0  0  0  0
  161.9560  202.5690  147.8670 C   0  0  0  0  0  3  0  0  0  0  0  0
  162.0220  205.3780  148.2330 C   0  0  2  0  0  3  0  0  0  0  0  0
  160.5070  206.7340  155.6610 N   0  0  0  0  0  0  0  0  0  0  0  0
  161.5600  203.0780  149.0420 C   0  0  0  0  0  3  0  0  0  0  0  0
  160.8140  204.1830  146.3070 C   0  0  1  0  0  3  0  0  0  0  0  0
  161.9480  210.6920  151.0110 C   0  0  0  0  0  3  0  0  0  0  0  0
  161.8220  209.2970  150.9240 C   0  0  0  0  0  0  0  0  0  0  0  0
  161.6190  209.1010  153.3630 N   0  0  0  0  0  0  0  0  0  0  0  0
  161.2670  205.0090  150.5800 C   0  0  0  0  0  2  0  0  0  0  0  0
  160.0740  205.0860  153.2030 C   0  0  0  0  0  1  0  0  0  0  0  0
  161.6160  210.0940  156.2670 C   0  0  0  0  0  1  0  0  0  0  0  0
  161.1240  207.1260  152.0200 C   0  0  0  0  0  0  0  0  0  0  0  0
  161.2900  208.3890  154.4610 C   0  0  0  0  0  0  0  0  0  0  0  0
  160.6590  204.3530  144.8730 N   0  0  0  0  0  2  0  0  0  0  0  0
  161.3920  205.3360  144.1440 C   0  0  0  0  0  0  0  0  0  0  0  0
  161.2060  205.4570  142.7730 O   0  0  0  0  0  0  0  0  0  0  0  0
  162.2050  206.0980  144.7320 O   0  0  0  0  0  1  0  0  0  0  0  0
  1 10  1  0  0  0  0
  1 16  1  1  0  0  0
  2 24  1  1  0  0  0
  2 27  1  0  0  0  0
  3  4  1  0  0  0  0
  4 21  2  0  0  0  0
  5  6  1  0  0  0  0
  6 28  2  0  0  0  0
  6 18  1  0  0  0  0
  7 19  1  1  0  0  0
  7 24  1  0  0  0  0
  8 12  1  0  0  0  0
  9 26  1  0  0  0  0
  9 15  1  0  0  0  0
 10 17  1  0  0  0  0
 11  3  2  0  0  0  0
 11 13  1  0  0  0  0
 12 13  1  0  0  0  0
 12  2  1  0  0  0  0
 13 22  2  0  0  0  0
 14 23  2  0  0  0  0
 16 19  2  0  0  0  0
 17  8  1  0  0  0  0
 17  7  1  0  0  0  0
 18 15  2  0  0  0  0
 20  1  1  0  0  0  0
 20 10  1  0  0  0  0
 22 21  1  0  0  0  0
 22 14  1  0  0  0  0
 23 28  1  0  0  0  0
 25  5  1  0  0  0  0
 27 14  1  0  0  0  0
 27  5  2  0  0  0  0
 28  9  1  0  0  0  0
 29 20  1  0  0  0  0
 30 32  1  0  0  0  0
 30 29  1  0  0  0  0
 31 30  2  0  0  0  0
M  END
>  <MODEL>
3

>  <REMARK>
 VINA RESULT:      -6.0      3.140      8.105
  Name = 
  1 active torsions:
  status: ('A' for Active; 'I' for Inactive)
    1  A    between atoms: C_20  and  N_29
                            x       y       z     vdW  Elec       q    Type
                         _______ _______ _______ _____ _____    ______ ____

>  <TORSDO>
F 1

$$$$
=
 OpenBabel11122412543D

 32 38  0  0  1  0  0  0  0  0999 V2000
  161.9670  210.0570  153.9590 C   0  0  1  0  0  3  0  0  0  0  0  0
  160.8240  206.7630  150.0590 C   0  0  1  0  0  3  0  0  0  0  0  0
  160.5730  202.5690  152.6540 C   0  0  0  0  0  3  0  0  0  0  0  0
  160.5030  201.8310  151.4710 C   0  0  0  0  0  3  0  0  0  0  0  0
  161.0410  206.5520  147.4830 C   0  0  0  0  0  0  0  0  0  0  0  0
  161.2000  205.7040  146.3930 C   0  0  0  0  0  0  0  0  0  0  0  0
  161.2450  208.8520  151.3660 C   0  0  1  0  0  3  0  0  0  0  0  0
  160.9310  206.7330  152.4760 O   0  0  0  0  0  0  0  0  0  0  0  0
  161.3890  203.8150  145.3350 N   0  0  0  0  0  0  0  0  0  0  0  0
  161.5890  208.5680  153.9140 C   0  0  2  0  0  3  0  0  0  0  0  0
  160.8170  203.9430  152.6050 C   0  0  0  0  0  3  0  0  0  0  0  0
  161.3540  206.0440  151.3210 C   0  0  1  0  0  3  0  0  0  0  0  0
  160.9700  204.5930  151.3720 C   0  0  0  0  0  0  0  0  0  0  0  0
  161.0840  204.5200  148.8740 C   0  0  0  0  0  0  0  0  0  0  0  0
  161.3430  204.8090  144.4550 N   0  0  0  0  0  0  0  0  0  0  0  0
  162.3040  210.6870  152.6200 C   0  0  0  0  0  3  0  0  0  0  0  0
  161.6760  207.9250  152.5140 C   0  0  2  0  0  3  0  0  0  0  0  0
  161.2240  205.9850  145.0740 N   0  0  0  0  0  0  0  0  0  0  0  0
  162.0050  210.1360  151.4340 C   0  0  0  0  0  3  0  0  0  0  0  0
  160.5060  209.6330  154.0340 C   0  0  1  0  0  3  0  0  0  0  0  0
  160.6790  202.4670  150.2400 C   0  0  0  0  0  3  0  0  0  0  0  0
  160.9190  203.8480  150.1810 C   0  0  0  0  0  0  0  0  0  0  0  0
  161.2220  203.7530  147.7470 N   0  0  0  0  0  0  0  0  0  0  0  0
  161.4860  208.1460  150.0380 C   0  0  0  0  0  2  0  0  0  0  0  0
  160.8130  208.0090  147.2380 C   0  0  0  0  0  1  0  0  0  0  0  0
  161.4780  202.4050  145.0010 C   0  0  0  0  0  1  0  0  0  0  0  0
  161.0420  205.9540  148.7830 C   0  0  0  0  0  0  0  0  0  0  0  0
  161.3010  204.3680  146.5470 C   0  0  0  0  0  0  0  0  0  0  0  0
  160.0530  209.7050  155.4120 N   0  0  0  0  0  2  0  0  0  0  0  0
  159.4020  210.8620  155.9350 C   0  0  0  0  0  0  0  0  0  0  0  0
  158.9880  210.8790  157.2600 O   0  0  0  0  0  1  0  0  0  0  0  0
  159.2000  211.8690  155.2050 O   0  0  0  0  0  0  0  0  0  0  0  0
  1 16  1  6  0  0  0
  1 20  1  0  0  0  0
  2 24  1  6  0  0  0
  2 12  1  0  0  0  0
  4  3  2  0  0  0  0
  5 27  1  0  0  0  0
  6 28  1  0  0  0  0
  6  5  2  0  0  0  0
  7 24  1  6  0  0  0
  7 19  1  0  0  0  0
  7 17  1  0  0  0  0
  8 17  1  0  0  0  0
  9 28  1  0  0  0  0
 10  1  1  0  0  0  0
 10 20  1  0  0  0  0
 11  3  1  0  0  0  0
 12 13  1  0  0  0  0
 12  8  1  0  0  0  0
 13 11  2  0  0  0  0
 14 22  1  0  0  0  0
 15 18  2  0  0  0  0
 15  9  1  0  0  0  0
 17 10  1  0  0  0  0
 18  6  1  0  0  0  0
 19 16  2  0  0  0  0
 20 29  1  0  0  0  0
 21  4  1  0  0  0  0
 22 21  2  0  0  0  0
 22 13  1  0  0  0  0
 23 14  1  0  0  0  0
 25  5  1  0  0  0  0
 26  9  1  0  0  0  0
 27 14  2  0  0  0  0
 27  2  1  0  0  0  0
 28 23  2  0  0  0  0
 29 30  1  0  0  0  0
 30 31  1  0  0  0  0
 32 30  2  0  0  0  0
M  END
>  <MODEL>
4

>  <REMARK>
 VINA RESULT:      -6.0      1.928      2.621
  Name = 
  1 active torsions:
  status: ('A' for Active; 'I' for Inactive)
    1  A    between atoms: C_20  and  N_29
                            x       y       z     vdW  Elec       q    Type
                         _______ _______ _______ _____ _____    ______ ____

>  <TORSDO>
F 1

$$$$
=
 OpenBabel11122412543D

 32 38  0  0  1  0  0  0  0  0999 V2000
  162.0350  213.9950  146.7810 C   0  0  1  0  0  3  0  0  0  0  0  0
  160.4040  211.3190  150.9710 C   0  0  1  0  0  3  0  0  0  0  0  0
  156.9420  214.4530  152.5760 C   0  0  0  0  0  3  0  0  0  0  0  0
  156.8090  213.7170  153.7540 C   0  0  0  0  0  3  0  0  0  0  0  0
  161.2200  209.5010  152.6320 C   0  0  0  0  0  0  0  0  0  0  0  0
  161.1640  208.9970  153.9260 C   0  0  0  0  0  0  0  0  0  0  0  0
  161.5640  211.9420  148.8450 C   0  0  1  0  0  3  0  0  0  0  0  0
  159.7370  213.2650  149.6980 O   0  0  0  0  0  0  0  0  0  0  0  0
  160.5020  208.8460  155.9900 N   0  0  0  0  0  0  0  0  0  0  0  0
  160.8820  214.1970  147.7770 C   0  0  2  0  0  3  0  0  0  0  0  0
  157.9550  214.1390  151.6670 C   0  0  0  0  0  3  0  0  0  0  0  0
  159.9910  212.8090  151.0080 C   0  0  1  0  0  3  0  0  0  0  0  0
  158.8280  213.0700  151.9190 C   0  0  0  0  0  0  0  0  0  0  0  0
  159.6240  211.2150  153.3960 C   0  0  0  0  0  0  0  0  0  0  0  0
  161.3240  207.8380  155.7170 N   0  0  0  0  0  0  0  0  0  0  0  0
  163.0640  212.9520  147.1760 C   0  0  0  0  0  3  0  0  0  0  0  0
  160.9880  213.3500  149.0630 C   0  0  2  0  0  3  0  0  0  0  0  0
  161.7470  207.9010  154.4530 N   0  0  0  0  0  0  0  0  0  0  0  0
  162.8730  212.0300  148.1310 C   0  0  0  0  0  3  0  0  0  0  0  0
  160.6710  213.3710  146.5150 C   0  0  1  0  0  3  0  0  0  0  0  0
  157.6900  212.6670  154.0250 C   0  0  0  0  0  3  0  0  0  0  0  0
  158.7070  212.3400  153.1150 C   0  0  0  0  0  0  0  0  0  0  0  0
  159.6120  210.6450  154.6430 N   0  0  0  0  0  0  0  0  0  0  0  0
  161.7260  211.2550  150.1960 C   0  0  0  0  0  2  0  0  0  0  0  0
  161.9880  208.7480  151.5950 C   0  0  0  0  0  1  0  0  0  0  0  0
  159.8320  209.0580  157.2610 C   0  0  0  0  0  1  0  0  0  0  0  0
  160.4730  210.6910  152.3610 C   0  0  0  0  0  0  0  0  0  0  0  0
  160.3990  209.5730  154.8750 C   0  0  0  0  0  0  0  0  0  0  0  0
  159.9590  214.1700  145.5320 N   0  0  0  0  0  2  0  0  0  0  0  0
  159.1930  213.5740  144.4860 C   0  0  0  0  0  0  0  0  0  0  0  0
  158.5320  214.3830  143.5720 O   0  0  0  0  0  0  0  0  0  0  0  0
  159.1120  212.3210  144.3830 O   0  0  0  0  0  1  0  0  0  0  0  0
  1 16  1  1  0  0  0
  1 10  1  0  0  0  0
  2 24  1  1  0  0  0
  2 12  1  0  0  0  0
  2 27  1  0  0  0  0
  3  4  1  0  0  0  0
  4 21  2  0  0  0  0
  5  6  1  0  0  0  0
  6 18  1  0  0  0  0
  6 28  2  0  0  0  0
  7 19  1  1  0  0  0
  7 17  1  0  0  0  0
  7 24  1  0  0  0  0
  8 12  1  0  0  0  0
  9 26  1  0  0  0  0
 10 17  1  0  0  0  0
 11 13  1  0  0  0  0
 11  3  2  0  0  0  0
 12 13  1  0  0  0  0
 13 22  2  0  0  0  0
 14 23  2  0  0  0  0
 15  9  1  0  0  0  0
 16 19  2  0  0  0  0
 17  8  1  0  0  0  0
 18 15  2  0  0  0  0
 20  1  1  0  0  0  0
 20 10  1  0  0  0  0
 22 14  1  0  0  0  0
 22 21  1  0  0  0  0
 23 28  1  0  0  0  0
 25  5  1  0  0  0  0
 27  5  2  0  0  0  0
 27 14  1  0  0  0  0
 28  9  1  0  0  0  0
 29 20  1  0  0  0  0
 30 29  1  0  0  0  0
 31 30  2  0  0  0  0
 32 30  1  0  0  0  0
M  END
>  <MODEL>
5

>  <REMARK>
 VINA RESULT:      -5.5      5.424      8.101
  Name = 
  1 active torsions:
  status: ('A' for Active; 'I' for Inactive)
    1  A    between atoms: C_20  and  N_29
                            x       y       z     vdW  Elec       q    Type
                         _______ _______ _______ _____ _____    ______ ____

>  <TORSDO>
F 1

$$$$
=
 OpenBabel11122412543D

 32 38  0  0  1  0  0  0  0  0999 V2000
  161.4530  213.8920  145.9070 C   0  0  1  0  0  3  0  0  0  0  0  0
  160.1810  211.9750  150.6060 C   0  0  1  0  0  3  0  0  0  0  0  0
  155.9700  214.4530  151.3250 C   0  0  0  0  0  3  0  0  0  0  0  0
  155.9240  214.0090  152.6470 C   0  0  0  0  0  3  0  0  0  0  0  0
  161.2710  210.8620  152.6790 C   0  0  0  0  0  0  0  0  0  0  0  0
  161.2360  210.6820  154.0570 C   0  0  0  0  0  0  0  0  0  0  0  0
  161.3200  212.3390  148.4100 C   0  0  1  0  0  3  0  0  0  0  0  0
  159.1750  213.3370  148.8780 O   0  0  0  0  0  0  0  0  0  0  0  0
  160.4740  210.8690  156.0840 N   0  0  0  0  0  0  0  0  0  0  0  0
  160.2120  214.0370  146.8030 C   0  0  2  0  0  3  0  0  0  0  0  0
  157.0950  214.1900  150.5390 C   0  0  0  0  0  3  0  0  0  0  0  0
  159.4290  213.2820  150.2630 C   0  0  1  0  0  3  0  0  0  0  0  0
  158.1710  213.4600  151.0630 C   0  0  0  0  0  0  0  0  0  0  0  0
  159.2650  212.2630  152.9680 C   0  0  0  0  0  0  0  0  0  0  0  0
  161.5270  210.0580  156.0830 N   0  0  0  0  0  0  0  0  0  0  0  0
  162.6640  213.2590  146.5650 C   0  0  0  0  0  3  0  0  0  0  0  0
  160.4160  213.5730  148.2610 C   0  0  2  0  0  3  0  0  0  0  0  0
  162.0180  209.9210  154.8500 N   0  0  0  0  0  0  0  0  0  0  0  0
  162.6220  212.5730  147.7170 C   0  0  0  0  0  3  0  0  0  0  0  0
  160.2960  212.9080  145.7840 C   0  0  1  0  0  3  0  0  0  0  0  0
  157.0030  213.3030  153.1840 C   0  0  0  0  0  3  0  0  0  0  0  0
  158.1350  213.0280  152.4010 C   0  0  0  0  0  0  0  0  0  0  0  0
  159.2930  212.0210  154.3170 N   0  0  0  0  0  0  0  0  0  0  0  0
  161.5350  212.0540  149.8920 C   0  0  0  0  0  2  0  0  0  0  0  0
  162.2700  210.0950  151.8750 C   0  0  0  0  0  1  0  0  0  0  0  0
  159.6790  211.2060  157.2510 C   0  0  0  0  0  1  0  0  0  0  0  0
  160.2880  211.7320  152.1090 C   0  0  0  0  0  0  0  0  0  0  0  0
  160.2890  211.2620  154.8210 C   0  0  0  0  0  0  0  0  0  0  0  0
  159.4940  213.2510  144.6220 N   0  0  0  0  0  2  0  0  0  0  0  0
  159.7720  212.7170  143.3270 C   0  0  0  0  0  0  0  0  0  0  0  0
  158.9750  213.0770  142.2500 O   0  0  0  0  0  0  0  0  0  0  0  0
  160.7360  211.9250  143.1530 O   0  0  0  0  0  1  0  0  0  0  0  0
  1 16  1  1  0  0  0
  1 10  1  0  0  0  0
  2 24  1  1  0  0  0
  2 27  1  0  0  0  0
  3  4  1  0  0  0  0
  4 21  2  0  0  0  0
  5  6  1  0  0  0  0
  6 28  2  0  0  0  0
  6 18  1  0  0  0  0
  7 19  1  6  0  0  0
  7 24  1  0  0  0  0
  8 12  1  0  0  0  0
  9 26  1  0  0  0  0
 10 17  1  0  0  0  0
 11 13  1  0  0  0  0
 11  3  2  0  0  0  0
 12  2  1  0  0  0  0
 12 13  1  0  0  0  0
 13 22  2  0  0  0  0
 14 23  2  0  0  0  0
 15  9  1  0  0  0  0
 16 19  2  0  0  0  0
 17  7  1  0  0  0  0
 17  8  1  0  0  0  0
 18 15  2  0  0  0  0
 20  1  1  0  0  0  0
 20 10  1  0  0  0  0
 22 14  1  0  0  0  0
 22 21  1  0  0  0  0
 23 28  1  0  0  0  0
 25  5  1  0  0  0  0
 27  5  2  0  0  0  0
 27 14  1  0  0  0  0
 28  9  1  0  0  0  0
 29 20  1  0  0  0  0
 30 29  1  0  0  0  0
 31 30  2  0  0  0  0
 32 30  1  0  0  0  0
M  END
>  <MODEL>
6

>  <REMARK>
 VINA RESULT:      -5.3      6.251      8.955
  Name = 
  1 active torsions:
  status: ('A' for Active; 'I' for Inactive)
    1  A    between atoms: C_20  and  N_29
                            x       y       z     vdW  Elec       q    Type
                         _______ _______ _______ _____ _____    ______ ____

>  <TORSDO>
F 1

$$$$
