=
 OpenBabel11122414353D

 34 40  0  0  1  0  0  0  0  0999 V2000
  160.9590  207.6580  154.2180 C   0  0  1  0  0  3  0  0  0  0  0  0
  161.4190  205.4790  153.2900 C   0  0  0  0  0  2  0  0  0  0  0  0
  158.3420  213.6700  153.1840 C   0  0  0  0  0  0  0  0  0  0  0  0
  160.1350  209.9690  154.8590 C   0  0  0  0  0  0  0  0  0  0  0  0
  159.9120  211.7200  153.1800 C   0  0  0  0  0  0  0  0  0  0  0  0
  159.9070  213.3810  151.2440 C   0  0  0  0  0  1  0  0  0  0  0  0
  157.3760  213.7910  152.3830 O   0  0  0  0  0  0  0  0  0  0  0  0
  159.2160  213.6560  155.5040 C   0  0  0  0  0  2  0  0  0  0  0  0
  161.6430  207.3360  152.0040 C   0  0  2  0  0  3  0  0  0  0  0  0
  161.4640  207.1980  148.7970 C   0  0  0  0  0  3  0  0  0  0  0  0
  160.3100  210.8180  152.2380 N   0  0  0  0  0  0  0  0  0  0  0  0
  159.2600  212.1450  155.6850 C   0  0  0  0  0  2  0  0  0  0  0  0
  160.9610  208.5670  151.4110 C   0  0  1  0  0  3  0  0  0  0  0  0
  161.8710  204.9680  151.9290 C   0  0  0  0  0  2  0  0  0  0  0  0
  159.8120  211.3040  154.5440 C   0  0  0  0  0  0  0  0  0  0  0  0
  158.1700  213.9990  154.5570 N   0  0  0  0  0  2  0  0  0  0  0  0
  161.0910  206.1640  149.8330 C   0  0  2  0  0  3  0  0  0  0  0  0
  160.5560  209.0830  153.8580 C   0  0  0  0  0  0  0  0  0  0  0  0
  159.6700  213.1450  152.7330 C   0  0  1  0  0  3  0  0  0  0  0  0
  160.6430  209.5350  152.5280 C   0  0  0  0  0  0  0  0  0  0  0  0
  160.3340  208.1130  156.5770 C   0  0  0  0  0  2  0  0  0  0  0  0
  161.7580  208.4940  149.0210 C   0  0  0  0  0  3  0  0  0  0  0  0
  159.9550  209.4720  156.1960 N   0  0  0  0  0  2  0  0  0  0  0  0
  161.8710  209.1800  150.3580 C   0  0  0  0  0  2  0  0  0  0  0  0
  162.0200  206.2070  151.0550 C   0  0  1  0  0  3  0  0  0  0  0  0
  160.1300  207.1610  155.4040 C   0  0  0  0  0  2  0  0  0  0  0  0
  160.8080  206.7770  153.0540 N   0  0  2  0  0  0  0  0  0  0  0  0
  161.1160  204.9010  149.2330 O   0  0  0  0  0  0  0  0  0  0  0  0
  161.4560  205.1450  147.9000 C   0  0  0  0  0  2  0  0  0  0  0  0
  160.7600  201.7070  146.9500 N   0  0  0  0  0  2  0  0  0  0  0  0
  161.2570  203.7770  145.8350 C   0  0  0  0  0  2  0  0  0  0  0  0
  161.8370  203.8440  147.2180 C   0  0  2  0  0  3  0  0  0  0  0  0
  160.9620  202.3110  145.6380 C   0  0  0  0  0  2  0  0  0  0  0  0
  161.2120  202.6760  147.9430 C   0  0  0  0  0  2  0  0  0  0  0  0
  1 26  1  1  0  0  0
  3 16  1  0  0  0  0
  4 23  1  0  0  0  0
  5 15  2  0  0  0  0
  6 19  1  0  0  0  0
  7  3  2  0  0  0  0
  8 12  1  0  0  0  0
  9 27  1  0  0  0  0
 10 22  2  0  0  0  0
 10 17  1  0  0  0  0
 11 20  2  0  0  0  0
 11  5  1  0  0  0  0
 13  9  1  0  0  0  0
 13 20  1  0  0  0  0
 14  2  1  0  0  0  0
 15  4  1  0  0  0  0
 15 12  1  0  0  0  0
 16  8  1  0  0  0  0
 17 25  1  0  0  0  0
 18  1  1  0  0  0  0
 18  4  2  0  0  0  0
 19  5  1  0  0  0  0
 19  3  1  0  0  0  0
 20 18  1  0  0  0  0
 22 24  1  0  0  0  0
 23 21  1  0  0  0  0
 24 13  1  0  0  0  0
 25 14  1  0  0  0  0
 25  9  1  0  0  0  0
 26 21  1  0  0  0  0
 27  2  1  0  0  0  0
 27  1  1  0  0  0  0
 28 17  1  0  0  0  0
 29 28  1  0  0  0  0
 30 34  1  0  0  0  0
 31 32  1  0  0  0  0
 32 29  1  0  0  0  0
 32 34  1  0  0  0  0
 33 31  1  0  0  0  0
 33 30  1  0  0  0  0
M  END
>  <MODEL>
1

>  <REMARK>
 VINA RESULT:     -10.4      0.000      0.000
  Name = 
  3 active torsions:
  status: ('A' for Active; 'I' for Inactive)
    1  A    between atoms: C_17  and  O_28
    2  A    between atoms: O_28  and  C_29
    3  A    between atoms: C_29  and  C_32
                            x       y       z     vdW  Elec       q    Type
                         _______ _______ _______ _____ _____    ______ ____

>  <TORSDO>
F 3

$$$$
=
 OpenBabel11122414353D

 34 40  0  0  1  0  0  0  0  0999 V2000
  161.9420  208.0470  149.9910 C   0  0  1  0  0  3  0  0  0  0  0  0
  161.7200  210.0720  151.2830 C   0  0  0  0  0  2  0  0  0  0  0  0
  159.9510  201.7690  149.1620 C   0  0  0  0  0  0  0  0  0  0  0  0
  161.7380  205.8180  148.7990 C   0  0  0  0  0  0  0  0  0  0  0  0
  161.1270  203.8040  150.0260 C   0  0  0  0  0  0  0  0  0  0  0  0
  160.6060  201.8510  151.5830 C   0  0  0  0  0  1  0  0  0  0  0  0
  158.7780  201.4470  149.4930 O   0  0  0  0  0  0  0  0  0  0  0  0
  161.6320  202.2290  147.3990 C   0  0  0  0  0  2  0  0  0  0  0  0
  161.6820  208.0520  152.3150 C   0  0  2  0  0  3  0  0  0  0  0  0
  160.2790  207.6480  155.1800 C   0  0  0  0  0  3  0  0  0  0  0  0
  161.0130  204.5660  151.1500 N   0  0  0  0  0  0  0  0  0  0  0  0
  161.5410  203.7480  147.4360 C   0  0  0  0  0  2  0  0  0  0  0  0
  160.9960  206.6920  152.4350 C   0  0  1  0  0  3  0  0  0  0  0  0
  161.5490  210.3850  152.7630 C   0  0  0  0  0  2  0  0  0  0  0  0
  161.5000  204.4290  148.7950 C   0  0  0  0  0  0  0  0  0  0  0  0
  160.3600  201.6580  147.8050 N   0  0  0  0  0  2  0  0  0  0  0  0
  160.1950  208.8070  154.2160 C   0  0  2  0  0  3  0  0  0  0  0  0
  161.6250  206.5560  149.9850 C   0  0  0  0  0  0  0  0  0  0  0  0
  160.9250  202.3110  150.1620 C   0  0  1  0  0  3  0  0  0  0  0  0
  161.2580  205.9000  151.1740 C   0  0  0  0  0  0  0  0  0  0  0  0
  162.3280  207.9400  147.5410 C   0  0  0  0  0  2  0  0  0  0  0  0
  160.8050  206.4310  154.9350 C   0  0  0  0  0  3  0  0  0  0  0  0
  162.0170  206.5120  147.5720 N   0  0  0  0  0  2  0  0  0  0  0  0
  161.5090  205.9850  153.6790 C   0  0  0  0  0  2  0  0  0  0  0  0
  161.5160  209.0350  153.4660 C   0  0  1  0  0  3  0  0  0  0  0  0
  161.5680  208.6690  148.6430 C   0  0  0  0  0  2  0  0  0  0  0  0
  161.2440  208.7110  151.0970 N   0  0  2  0  0  0  0  0  0  0  0  0
  159.8220  209.9530  154.9250 O   0  0  0  0  0  0  0  0  0  0  0  0
  160.0940  209.6500  156.2620 C   0  0  0  0  0  2  0  0  0  0  0  0
  160.3650  213.2000  156.9890 N   0  0  0  0  0  2  0  0  0  0  0  0
  158.6040  211.6020  156.6410 C   0  0  0  0  0  2  0  0  0  0  0  0
  159.8130  210.8610  157.1330 C   0  0  2  0  0  3  0  0  0  0  0  0
  158.9160  213.0460  156.9500 C   0  0  0  0  0  2  0  0  0  0  0  0
  160.9400  211.8590  157.0110 C   0  0  0  0  0  2  0  0  0  0  0  0
  1 26  1  6  0  0  0
  1 27  1  0  0  0  0
  2 14  1  0  0  0  0
  3  7  2  0  0  0  0
  3 19  1  0  0  0  0
  4 18  1  0  0  0  0
  5 19  1  0  0  0  0
  5 11  2  0  0  0  0
  8 12  1  0  0  0  0
  8 16  1  0  0  0  0
  9 13  1  0  0  0  0
  9 25  1  0  0  0  0
 11 20  1  0  0  0  0
 12 15  1  0  0  0  0
 13 24  1  0  0  0  0
 14 25  1  0  0  0  0
 15  4  2  0  0  0  0
 15  5  1  0  0  0  0
 16  3  1  0  0  0  0
 17 28  1  0  0  0  0
 17 10  1  0  0  0  0
 18  1  1  0  0  0  0
 18 20  2  0  0  0  0
 19  6  1  0  0  0  0
 20 13  1  0  0  0  0
 21 23  1  0  0  0  0
 21 26  1  0  0  0  0
 22 10  2  0  0  0  0
 23  4  1  0  0  0  0
 24 22  1  0  0  0  0
 25 17  1  0  0  0  0
 27  2  1  0  0  0  0
 27  9  1  0  0  0  0
 28 29  1  0  0  0  0
 29 32  1  0  0  0  0
 30 34  1  0  0  0  0
 31 33  1  0  0  0  0
 31 32  1  0  0  0  0
 33 30  1  0  0  0  0
 34 32  1  0  0  0  0
M  END
>  <MODEL>
2

>  <REMARK>
 VINA RESULT:      -8.1      2.207      9.415
  Name = 
  3 active torsions:
  status: ('A' for Active; 'I' for Inactive)
    1  A    between atoms: C_17  and  O_28
    2  A    between atoms: O_28  and  C_29
    3  A    between atoms: C_29  and  C_32
                            x       y       z     vdW  Elec       q    Type
                         _______ _______ _______ _____ _____    ______ ____

>  <TORSDO>
F 3

$$$$
=
 OpenBabel11122414353D

 34 40  0  0  1  0  0  0  0  0999 V2000
  161.9700  208.1290  150.0300 C   0  0  1  0  0  3  0  0  0  0  0  0
  161.7780  210.1800  151.2840 C   0  0  0  0  0  2  0  0  0  0  0  0
  159.9290  201.8490  149.3510 C   0  0  0  0  0  0  0  0  0  0  0  0
  161.7370  205.8780  148.8850 C   0  0  0  0  0  0  0  0  0  0  0  0
  161.1290  203.8920  150.1590 C   0  0  0  0  0  0  0  0  0  0  0  0
  160.6170  201.9740  151.7610 C   0  0  0  0  0  1  0  0  0  0  0  0
  158.7590  201.5410  149.7040 O   0  0  0  0  0  0  0  0  0  0  0  0
  161.5900  202.2630  147.5570 C   0  0  0  0  0  2  0  0  0  0  0  0
  161.7410  208.1810  152.3570 C   0  0  2  0  0  3  0  0  0  0  0  0
  160.3740  207.8420  155.2470 C   0  0  0  0  0  3  0  0  0  0  0  0
  161.0360  204.6770  151.2700 N   0  0  0  0  0  0  0  0  0  0  0  0
  161.5090  203.7830  147.5660 C   0  0  0  0  0  2  0  0  0  0  0  0
  161.0480  206.8280  152.5120 C   0  0  1  0  0  3  0  0  0  0  0  0
  161.6280  210.5240  152.7600 C   0  0  0  0  0  2  0  0  0  0  0  0
  161.4900  204.4900  148.9120 C   0  0  0  0  0  0  0  0  0  0  0  0
  160.3200  201.7080  147.9910 N   0  0  0  0  0  2  0  0  0  0  0  0
  160.2840  208.9820  154.2610 C   0  0  2  0  0  3  0  0  0  0  0  0
  161.6440  206.6400  150.0570 C   0  0  0  0  0  0  0  0  0  0  0  0
  160.9200  202.4040  150.3280 C   0  0  1  0  0  3  0  0  0  0  0  0
  161.2890  206.0100  151.2640 C   0  0  0  0  0  0  0  0  0  0  0  0
  162.3240  207.9710  147.5770 C   0  0  0  0  0  2  0  0  0  0  0  0
  160.8890  206.6180  155.0190 C   0  0  0  0  0  3  0  0  0  0  0  0
  162.0040  206.5460  147.6410 N   0  0  0  0  0  2  0  0  0  0  0  0
  161.5730  206.1420  153.7640 C   0  0  0  0  0  2  0  0  0  0  0  0
  161.5970  209.1870  153.4900 C   0  0  1  0  0  3  0  0  0  0  0  0
  161.5830  208.7260  148.6750 C   0  0  0  0  0  2  0  0  0  0  0  0
  161.2910  208.8190  151.1320 N   0  0  2  0  0  0  0  0  0  0  0  0
  159.9270  210.1450  154.9530 O   0  0  0  0  0  0  0  0  0  0  0  0
  158.6520  209.8810  155.4590 C   0  0  0  0  0  2  0  0  0  0  0  0
  157.1240  212.8630  154.0500 N   0  0  0  0  0  2  0  0  0  0  0  0
  156.4140  210.9530  155.3260 C   0  0  0  0  0  2  0  0  0  0  0  0
  157.8740  211.1770  155.5980 C   0  0  2  0  0  3  0  0  0  0  0  0
  155.9660  212.2430  154.6830 C   0  0  0  0  0  2  0  0  0  0  0  0
  158.3070  212.1580  154.5350 C   0  0  0  0  0  2  0  0  0  0  0  0
  1 26  1  6  0  0  0
  1 18  1  0  0  0  0
  1 27  1  0  0  0  0
  2 14  1  0  0  0  0
  3  7  2  0  0  0  0
  3 19  1  0  0  0  0
  4 15  2  0  0  0  0
  4 18  1  0  0  0  0
  5 19  1  0  0  0  0
  5 11  2  0  0  0  0
  8 12  1  0  0  0  0
  8 16  1  0  0  0  0
  9 13  1  0  0  0  0
  9 25  1  0  0  0  0
 12 15  1  0  0  0  0
 13 24  1  0  0  0  0
 14 25  1  0  0  0  0
 15  5  1  0  0  0  0
 16  3  1  0  0  0  0
 17 28  1  0  0  0  0
 17 10  1  0  0  0  0
 18 20  2  0  0  0  0
 19  6  1  0  0  0  0
 20 11  1  0  0  0  0
 20 13  1  0  0  0  0
 21 23  1  0  0  0  0
 21 26  1  0  0  0  0
 22 10  2  0  0  0  0
 23  4  1  0  0  0  0
 24 22  1  0  0  0  0
 25 17  1  0  0  0  0
 27  2  1  0  0  0  0
 27  9  1  0  0  0  0
 28 29  1  0  0  0  0
 29 32  1  0  0  0  0
 30 34  1  0  0  0  0
 30 33  1  0  0  0  0
 31 32  1  0  0  0  0
 33 31  1  0  0  0  0
 34 32  1  0  0  0  0
M  END
>  <MODEL>
3

>  <REMARK>
 VINA RESULT:      -8.0      2.153      9.137
  Name = 
  3 active torsions:
  status: ('A' for Active; 'I' for Inactive)
    1  A    between atoms: C_17  and  O_28
    2  A    between atoms: O_28  and  C_29
    3  A    between atoms: C_29  and  C_32
                            x       y       z     vdW  Elec       q    Type
                         _______ _______ _______ _____ _____    ______ ____

>  <TORSDO>
F 3

$$$$
=
 OpenBabel11122414353D

 34 40  0  0  1  0  0  0  0  0999 V2000
  161.4430  208.0690  149.4450 C   0  0  1  0  0  3  0  0  0  0  0  0
  161.7990  206.5530  147.6020 C   0  0  0  0  0  2  0  0  0  0  0  0
  161.5460  208.8890  156.0310 C   0  0  0  0  0  0  0  0  0  0  0  0
  161.3620  209.3690  151.6210 C   0  0  0  0  0  0  0  0  0  0  0  0
  160.8310  208.2500  153.7190 C   0  0  0  0  0  0  0  0  0  0  0  0
  160.1200  206.8470  155.7270 C   0  0  0  0  0  1  0  0  0  0  0  0
  162.3580  208.2160  156.7220 O   0  0  0  0  0  0  0  0  0  0  0  0
  160.8480  211.0550  155.0480 C   0  0  0  0  0  2  0  0  0  0  0  0
  160.8330  205.8120  149.5170 C   0  0  2  0  0  3  0  0  0  0  0  0
  160.9050  202.7080  150.3510 C   0  0  0  0  0  3  0  0  0  0  0  0
  160.7610  207.0740  153.0320 N   0  0  0  0  0  0  0  0  0  0  0  0
  161.3860  210.8130  153.6450 C   0  0  0  0  0  2  0  0  0  0  0  0
  160.9710  205.6230  151.0260 C   0  0  1  0  0  3  0  0  0  0  0  0
  161.5120  205.0780  147.3570 C   0  0  0  0  0  2  0  0  0  0  0  0
  161.1420  209.4520  153.0100 C   0  0  0  0  0  0  0  0  0  0  0  0
  161.6430  210.3070  156.0070 N   0  0  0  0  0  2  0  0  0  0  0  0
  161.6870  203.4430  149.2890 C   0  0  2  0  0  3  0  0  0  0  0  0
  161.2620  208.1390  150.9570 C   0  0  0  0  0  0  0  0  0  0  0  0
  160.4960  208.2270  155.1940 C   0  0  1  0  0  3  0  0  0  0  0  0
  160.9510  206.9800  151.6930 C   0  0  0  0  0  0  0  0  0  0  0  0
  161.9560  210.4980  149.4270 C   0  0  0  0  0  2  0  0  0  0  0  0
  160.1540  203.2580  151.3260 C   0  0  0  0  0  3  0  0  0  0  0  0
  161.7760  210.5280  150.8780 N   0  0  0  0  0  2  0  0  0  0  0  0
  159.8510  204.7210  151.5190 C   0  0  0  0  0  2  0  0  0  0  0  0
  160.8670  204.5680  148.6400 C   0  0  1  0  0  3  0  0  0  0  0  0
  162.4520  209.1250  148.9880 C   0  0  0  0  0  2  0  0  0  0  0  0
  161.8630  206.7210  149.0450 N   0  0  2  0  0  0  0  0  0  0  0  0
  162.1150  202.5210  148.3290 O   0  0  0  0  0  0  0  0  0  0  0  0
  160.9380  201.9740  147.8100 C   0  0  0  0  0  2  0  0  0  0  0  0
  160.5340  199.4160  145.2610 N   0  0  0  0  0  2  0  0  0  0  0  0
  160.0630  201.7610  145.4940 C   0  0  0  0  0  2  0  0  0  0  0  0
  161.1950  201.4200  146.4210 C   0  0  2  0  0  3  0  0  0  0  0  0
  159.9890  200.5750  144.5640 C   0  0  0  0  0  2  0  0  0  0  0  0
  161.2060  199.9100  146.4590 C   0  0  0  0  0  2  0  0  0  0  0  0
  1 26  1  1  0  0  0
  1 18  1  0  0  0  0
  2 27  1  0  0  0  0
  3  7  2  0  0  0  0
  4 15  1  0  0  0  0
  5 19  1  0  0  0  0
  8 16  1  0  0  0  0
  9 13  1  0  0  0  0
 10 22  2  0  0  0  0
 11  5  1  0  0  0  0
 12  8  1  0  0  0  0
 13 24  1  0  0  0  0
 13 20  1  0  0  0  0
 14  2  1  0  0  0  0
 14 25  1  0  0  0  0
 15 12  1  0  0  0  0
 15  5  2  0  0  0  0
 16  3  1  0  0  0  0
 17 10  1  0  0  0  0
 18  4  2  0  0  0  0
 18 20  1  0  0  0  0
 19  6  1  0  0  0  0
 19  3  1  0  0  0  0
 20 11  2  0  0  0  0
 21 23  1  0  0  0  0
 22 24  1  0  0  0  0
 23  4  1  0  0  0  0
 25 17  1  0  0  0  0
 25  9  1  0  0  0  0
 26 21  1  0  0  0  0
 27  1  1  0  0  0  0
 27  9  1  0  0  0  0
 28 17  1  0  0  0  0
 29 28  1  0  0  0  0
 30 34  1  0  0  0  0
 31 32  1  0  0  0  0
 32 34  1  0  0  0  0
 32 29  1  0  0  0  0
 33 30  1  0  0  0  0
 33 31  1  0  0  0  0
M  END
>  <MODEL>
4

>  <REMARK>
 VINA RESULT:      -7.6      2.494      4.644
  Name = 
  3 active torsions:
  status: ('A' for Active; 'I' for Inactive)
    1  A    between atoms: C_17  and  O_28
    2  A    between atoms: O_28  and  C_29
    3  A    between atoms: C_29  and  C_32
                            x       y       z     vdW  Elec       q    Type
                         _______ _______ _______ _____ _____    ______ ____

>  <TORSDO>
F 3

$$$$
=
 OpenBabel11122414353D

 34 40  0  0  1  0  0  0  0  0999 V2000
  161.9930  207.2640  148.5370 C   0  0  1  0  0  3  0  0  0  0  0  0
  161.9650  209.5390  149.3360 C   0  0  0  0  0  2  0  0  0  0  0  0
  159.7340  201.0780  149.3750 C   0  0  0  0  0  0  0  0  0  0  0  0
  161.6020  204.8340  147.9210 C   0  0  0  0  0  0  0  0  0  0  0  0
  161.0530  203.1900  149.6320 C   0  0  0  0  0  0  0  0  0  0  0  0
  160.6290  201.6770  151.6420 C   0  0  0  0  0  1  0  0  0  0  0  0
  158.5900  200.9040  149.8760 O   0  0  0  0  0  0  0  0  0  0  0  0
  161.2450  201.0310  147.4100 C   0  0  0  0  0  2  0  0  0  0  0  0
  161.9660  207.8140  150.8110 C   0  0  2  0  0  3  0  0  0  0  0  0
  160.8430  208.1520  153.8040 C   0  0  0  0  0  3  0  0  0  0  0  0
  161.0760  204.1950  150.5540 N   0  0  0  0  0  0  0  0  0  0  0  0
  161.2060  202.5210  147.1010 C   0  0  0  0  0  2  0  0  0  0  0  0
  161.2530  206.5560  151.3040 C   0  0  1  0  0  3  0  0  0  0  0  0
  161.9510  210.1920  150.7120 C   0  0  0  0  0  2  0  0  0  0  0  0
  161.3210  203.4960  148.2620 C   0  0  0  0  0  0  0  0  0  0  0  0
  160.0020  200.6370  148.0500 N   0  0  0  0  0  2  0  0  0  0  0  0
  160.7000  209.0620  152.6080 C   0  0  2  0  0  3  0  0  0  0  0  0
  161.6300  205.8300  148.9070 C   0  0  0  0  0  0  0  0  0  0  0  0
  160.8190  201.7810  150.1310 C   0  0  1  0  0  3  0  0  0  0  0  0
  161.3630  205.4840  150.2450 C   0  0  0  0  0  0  0  0  0  0  0  0
  162.1310  206.5780  146.1550 C   0  0  0  0  0  2  0  0  0  0  0  0
  161.3030  206.8850  153.8030 C   0  0  0  0  0  3  0  0  0  0  0  0
  161.7800  205.2140  146.5460 N   0  0  0  0  0  2  0  0  0  0  0  0
  161.8650  206.1260  152.6280 C   0  0  0  0  0  2  0  0  0  0  0  0
  161.9460  209.0410  151.7110 C   0  0  1  0  0  3  0  0  0  0  0  0
  161.5080  207.5790  147.1210 C   0  0  0  0  0  2  0  0  0  0  0  0
  161.4300  208.1990  149.5160 N   0  0  2  0  0  0  0  0  0  0  0  0
  160.4350  210.3590  153.0610 O   0  0  0  0  0  0  0  0  0  0  0  0
  161.0700  210.4390  154.3030 C   0  0  0  0  0  2  0  0  0  0  0  0
  158.2130  212.5550  155.0600 N   0  0  0  0  0  2  0  0  0  0  0  0
  159.3550  210.7040  156.0830 C   0  0  0  0  0  2  0  0  0  0  0  0
  160.3330  211.4210  155.1970 C   0  0  2  0  0  3  0  0  0  0  0  0
  158.2170  211.6830  156.2290 C   0  0  0  0  0  2  0  0  0  0  0  0
  159.4760  212.3410  154.3600 C   0  0  0  0  0  2  0  0  0  0  0  0
  1 26  1  6  0  0  0
  1 18  1  0  0  0  0
  1 27  1  0  0  0  0
  2 27  1  0  0  0  0
  2 14  1  0  0  0  0
  3  7  2  0  0  0  0
  3 19  1  0  0  0  0
  4 15  2  0  0  0  0
  4 18  1  0  0  0  0
  5 19  1  0  0  0  0
  5 11  2  0  0  0  0
  8 16  1  0  0  0  0
  9 13  1  0  0  0  0
  9 25  1  0  0  0  0
 12  8  1  0  0  0  0
 12 15  1  0  0  0  0
 13 24  1  0  0  0  0
 14 25  1  0  0  0  0
 15  5  1  0  0  0  0
 16  3  1  0  0  0  0
 17 28  1  0  0  0  0
 17 10  1  0  0  0  0
 18 20  2  0  0  0  0
 19  6  1  0  0  0  0
 20 11  1  0  0  0  0
 20 13  1  0  0  0  0
 21 23  1  0  0  0  0
 21 26  1  0  0  0  0
 22 10  2  0  0  0  0
 23  4  1  0  0  0  0
 24 22  1  0  0  0  0
 25 17  1  0  0  0  0
 27  9  1  0  0  0  0
 28 29  1  0  0  0  0
 29 32  1  0  0  0  0
 30 33  1  0  0  0  0
 31 33  1  0  0  0  0
 32 31  1  0  0  0  0
 34 30  1  0  0  0  0
 34 32  1  0  0  0  0
M  END
>  <MODEL>
5

>  <REMARK>
 VINA RESULT:      -7.6      2.104      9.478
  Name = 
  3 active torsions:
  status: ('A' for Active; 'I' for Inactive)
    1  A    between atoms: C_17  and  O_28
    2  A    between atoms: O_28  and  C_29
    3  A    between atoms: C_29  and  C_32
                            x       y       z     vdW  Elec       q    Type
                         _______ _______ _______ _____ _____    ______ ____

>  <TORSDO>
F 3

$$$$
