=
 OpenBabel11122412353D

 30 35  0  0  1  0  0  0  0  0999 V2000
  161.5930  204.4370  147.9240 C   0  0  0  0  0  0  0  0  0  0  0  0
  161.5540  202.3660  146.5460 C   0  0  0  0  0  0  0  0  0  0  0  0
  160.5980  202.3520  151.3260 N   0  0  0  0  0  2  0  0  0  0  0  0
  161.4940  205.0690  149.1920 C   0  0  0  0  0  0  0  0  0  0  0  0
  161.8610  205.2290  146.8030 O   0  0  0  0  0  0  0  0  0  0  0  0
  162.0070  208.7090  148.2360 C   0  0  0  0  0  1  0  0  0  0  0  0
  161.0150  207.1630  151.4810 C   0  0  1  0  0  3  0  0  0  0  0  0
  162.2860  207.2130  148.1060 C   0  0  2  0  0  3  0  0  0  0  0  0
  160.6040  205.9040  152.2340 C   0  0  2  0  0  3  0  0  0  0  0  0
  160.5360  203.4130  152.1580 C   0  0  0  0  0  0  0  0  0  0  0  0
  161.6640  206.6380  146.8280 C   0  0  2  0  0  3  0  0  0  0  0  0
  161.8810  206.4580  149.3060 N   0  0  0  0  0  0  0  0  0  0  0  0
  161.3750  200.9820  146.4690 C   0  0  0  0  0  3  0  0  0  0  0  0
  161.2710  206.0120  153.5900 C   0  0  0  0  0  2  0  0  0  0  0  0
  161.2750  208.2120  152.5510 C   0  0  0  0  0  2  0  0  0  0  0  0
  161.8590  203.0560  145.3790 O   0  0  0  0  0  1  0  0  0  0  0  0
  160.9570  202.9140  150.1590 C   0  0  0  0  0  0  0  0  0  0  0  0
  161.0660  200.2380  147.6080 C   0  0  0  0  0  3  0  0  0  0  0  0
  161.4250  203.0300  147.7900 C   0  0  0  0  0  0  0  0  0  0  0  0
  161.1180  204.2710  150.2950 C   0  0  0  0  0  0  0  0  0  0  0  0
  160.1710  203.2990  153.3600 O   0  0  0  0  0  0  0  0  0  0  0  0
  160.8570  204.6040  151.5860 N   0  0  0  0  0  0  0  0  0  0  0  0
  161.3040  207.4950  153.8910 C   0  0  0  0  0  2  0  0  0  0  0  0
  163.4420  206.3170  151.2270 C   0  0  0  0  0  1  0  0  0  0  0  0
  160.9310  200.8740  148.8410 C   0  0  0  0  0  3  0  0  0  0  0  0
  161.1090  202.2580  148.9390 C   0  0  0  0  0  0  0  0  0  0  0  0
  162.2450  207.0280  150.5950 C   0  0  2  0  0  3  0  0  0  0  0  0
  160.1710  206.9480  146.7290 C   0  0  0  0  0  2  0  0  0  0  0  0
  160.5470  206.1970  144.6900 C   0  0  0  0  0  1  0  0  0  0  0  0
  159.5960  206.1890  145.7090 O   0  0  0  0  0  0  0  0  0  0  0  0
  1  4  1  0  0  0  0
  2 19  1  0  0  0  0
  3 10  1  0  0  0  0
  4 12  1  0  0  0  0
  4 20  2  0  0  0  0
  5 11  1  0  0  0  0
  5  1  1  0  0  0  0
  7  9  1  0  0  0  0
  7 15  1  1  0  0  0
  8  6  1  1  0  0  0
  8 12  1  0  0  0  0
  9 14  1  1  0  0  0
 10 21  2  0  0  0  0
 11 28  1  1  0  0  0
 11  8  1  0  0  0  0
 12 27  1  0  0  0  0
 13  2  2  0  0  0  0
 13 18  1  0  0  0  0
 14 23  1  0  0  0  0
 15 23  1  0  0  0  0
 16  2  1  0  0  0  0
 17 20  1  0  0  0  0
 17  3  1  0  0  0  0
 18 25  2  0  0  0  0
 19  1  2  0  0  0  0
 19 26  1  0  0  0  0
 20 22  1  0  0  0  0
 22 10  1  0  0  0  0
 22  9  1  0  0  0  0
 25 26  1  0  0  0  0
 26 17  2  0  0  0  0
 27 24  1  1  0  0  0
 27  7  1  0  0  0  0
 29 30  1  0  0  0  0
 30 28  1  0  0  0  0
M  END
>  <MODEL>
1

>  <REMARK>
 VINA RESULT:      -6.2      0.000      0.000
  Name = 
  2 active torsions:
  status: ('A' for Active; 'I' for Inactive)
    1  A    between atoms: C_11  and  C_28
    2  A    between atoms: C_28  and  O_30
                            x       y       z     vdW  Elec       q    Type
                         _______ _______ _______ _____ _____    ______ ____

>  <TORSDO>
F 2

$$$$
=
 OpenBabel11122412353D

 30 35  0  0  1  0  0  0  0  0999 V2000
  160.3350  212.0980  152.1390 C   0  0  0  0  0  0  0  0  0  0  0  0
  160.8310  212.9580  149.8580 C   0  0  0  0  0  0  0  0  0  0  0  0
  161.9540  208.4250  151.2520 N   0  0  0  0  0  2  0  0  0  0  0  0
  160.4270  211.0630  153.1070 C   0  0  0  0  0  0  0  0  0  0  0  0
  159.7010  213.2930  152.4970 O   0  0  0  0  0  0  0  0  0  0  0  0
  158.5890  212.6350  156.0350 C   0  0  0  0  0  1  0  0  0  0  0  0
  159.8750  209.1690  155.5490 C   0  0  1  0  0  3  0  0  0  0  0  0
  159.5170  212.6840  154.8240 C   0  0  2  0  0  3  0  0  0  0  0  0
  160.4950  208.1480  154.6040 C   0  0  2  0  0  3  0  0  0  0  0  0
  161.6870  207.8350  152.4360 C   0  0  0  0  0  0  0  0  0  0  0  0
  158.8390  213.3630  153.6280 C   0  0  2  0  0  3  0  0  0  0  0  0
  160.0570  211.3570  154.4740 N   0  0  0  0  0  0  0  0  0  0  0  0
  161.3720  212.7410  148.5870 C   0  0  0  0  0  3  0  0  0  0  0  0
  161.4760  207.3620  155.4500 C   0  0  0  0  0  2  0  0  0  0  0  0
  159.9520  208.5440  156.9320 C   0  0  0  0  0  2  0  0  0  0  0  0
  160.2600  214.1960  150.1270 O   0  0  0  0  0  1  0  0  0  0  0  0
  161.4910  209.6730  151.4330 C   0  0  0  0  0  0  0  0  0  0  0  0
  161.9560  211.5170  148.2610 C   0  0  0  0  0  3  0  0  0  0  0  0
  160.8740  211.9320  150.8330 C   0  0  0  0  0  0  0  0  0  0  0  0
  160.9740  209.8270  152.6950 C   0  0  0  0  0  0  0  0  0  0  0  0
  161.9310  206.6160  152.6460 O   0  0  0  0  0  0  0  0  0  0  0  0
  161.1030  208.6480  153.3570 N   0  0  0  0  0  0  0  0  0  0  0  0
  160.8590  207.3280  156.8310 C   0  0  0  0  0  2  0  0  0  0  0  0
  162.0700  210.5240  155.6560 C   0  0  0  0  0  1  0  0  0  0  0  0
  162.0040  210.4930  149.2050 C   0  0  0  0  0  3  0  0  0  0  0  0
  161.4710  210.6920  150.4830 C   0  0  0  0  0  0  0  0  0  0  0  0
  160.5450  210.5350  155.5720 C   0  0  2  0  0  3  0  0  0  0  0  0
  157.4980  212.7160  153.2880 C   0  0  0  0  0  2  0  0  0  0  0  0
  155.5690  213.5140  153.9990 C   0  0  0  0  0  1  0  0  0  0  0  0
  156.5490  213.7040  153.0260 O   0  0  0  0  0  0  0  0  0  0  0  0
  1  5  1  0  0  0  0
  1  4  1  0  0  0  0
  2 16  1  0  0  0  0
  2 19  1  0  0  0  0
  3 17  1  0  0  0  0
  3 10  1  0  0  0  0
  4 12  1  0  0  0  0
  5 11  1  0  0  0  0
  7 27  1  0  0  0  0
  7 15  1  1  0  0  0
  8  6  1  1  0  0  0
  9 14  1  1  0  0  0
  9  7  1  0  0  0  0
 10 21  2  0  0  0  0
 10 22  1  0  0  0  0
 11 28  1  6  0  0  0
 11  8  1  0  0  0  0
 12  8  1  0  0  0  0
 12 27  1  0  0  0  0
 13  2  2  0  0  0  0
 14 23  1  0  0  0  0
 17 20  1  0  0  0  0
 18 13  1  0  0  0  0
 18 25  2  0  0  0  0
 19  1  2  0  0  0  0
 20  4  2  0  0  0  0
 20 22  1  0  0  0  0
 22  9  1  0  0  0  0
 23 15  1  0  0  0  0
 25 26  1  0  0  0  0
 26 19  1  0  0  0  0
 26 17  2  0  0  0  0
 27 24  1  6  0  0  0
 30 28  1  0  0  0  0
 30 29  1  0  0  0  0
M  END
>  <MODEL>
2

>  <REMARK>
 VINA RESULT:      -6.0      5.337      8.266
  Name = 
  2 active torsions:
  status: ('A' for Active; 'I' for Inactive)
    1  A    between atoms: C_11  and  C_28
    2  A    between atoms: C_28  and  O_30
                            x       y       z     vdW  Elec       q    Type
                         _______ _______ _______ _____ _____    ______ ____

>  <TORSDO>
F 2

$$$$
=
 OpenBabel11122412353D

 30 35  0  0  1  0  0  0  0  0999 V2000
  160.8060  211.1180  151.9880 C   0  0  0  0  0  0  0  0  0  0  0  0
  161.4620  211.5760  149.6330 C   0  0  0  0  0  0  0  0  0  0  0  0
  161.7670  207.1370  151.6240 N   0  0  0  0  0  2  0  0  0  0  0  0
  160.7080  210.2170  153.0820 C   0  0  0  0  0  0  0  0  0  0  0  0
  160.3870  212.4400  152.1730 O   0  0  0  0  0  0  0  0  0  0  0  0
  159.1490  212.4480  155.7310 C   0  0  0  0  0  1  0  0  0  0  0  0
  159.8150  208.7800  155.7260 C   0  0  1  0  0  3  0  0  0  0  0  0
  160.0810  212.1790  154.5510 C   0  0  2  0  0  3  0  0  0  0  0  0
  160.2550  207.5530  154.9370 C   0  0  2  0  0  3  0  0  0  0  0  0
  161.3920  206.7610  152.8640 C   0  0  0  0  0  0  0  0  0  0  0  0
  159.5410  212.8030  153.2590 C   0  0  2  0  0  3  0  0  0  0  0  0
  160.3850  210.7460  154.3890 N   0  0  0  0  0  0  0  0  0  0  0  0
  161.9670  211.1060  148.4170 C   0  0  0  0  0  3  0  0  0  0  0  0
  161.0780  206.7280  155.9050 C   0  0  0  0  0  2  0  0  0  0  0  0
  159.7710  208.3360  157.1790 C   0  0  0  0  0  2  0  0  0  0  0  0
  161.1140  212.9180  149.7250 O   0  0  0  0  0  1  0  0  0  0  0  0
  161.5280  208.4590  151.6310 C   0  0  0  0  0  0  0  0  0  0  0  0
  162.3320  209.7680  148.2660 C   0  0  0  0  0  3  0  0  0  0  0  0
  161.3180  210.6930  150.7310 C   0  0  0  0  0  0  0  0  0  0  0  0
  161.0340  208.8630  152.8470 C   0  0  0  0  0  0  0  0  0  0  0  0
  161.4180  205.5560  153.2340 O   0  0  0  0  0  0  0  0  0  0  0  0
  160.9510  207.7750  153.6560 N   0  0  0  0  0  0  0  0  0  0  0  0
  160.4530  206.9800  157.2610 C   0  0  0  0  0  2  0  0  0  0  0  0
  162.2120  209.7400  155.7280 C   0  0  0  0  0  1  0  0  0  0  0  0
  162.1930  208.8820  149.3340 C   0  0  0  0  0  3  0  0  0  0  0  0
  161.6930  209.3340  150.5600 C   0  0  0  0  0  0  0  0  0  0  0  0
  160.7120  210.0020  155.5970 C   0  0  2  0  0  3  0  0  0  0  0  0
  158.1100  212.3580  152.9630 C   0  0  0  0  0  2  0  0  0  0  0  0
  156.7550  214.0230  153.4680 C   0  0  0  0  0  1  0  0  0  0  0  0
  157.3950  213.4100  152.3920 O   0  0  0  0  0  0  0  0  0  0  0  0
  1  5  1  0  0  0  0
  1  4  1  0  0  0  0
  2 16  1  0  0  0  0
  2 19  1  0  0  0  0
  3 17  1  0  0  0  0
  3 10  1  0  0  0  0
  4 12  1  0  0  0  0
  5 11  1  0  0  0  0
  7 15  1  1  0  0  0
  8  6  1  1  0  0  0
  9  7  1  0  0  0  0
  9 14  1  1  0  0  0
 10 21  2  0  0  0  0
 10 22  1  0  0  0  0
 11 28  1  6  0  0  0
 11  8  1  0  0  0  0
 12  8  1  0  0  0  0
 12 27  1  0  0  0  0
 13  2  2  0  0  0  0
 14 23  1  0  0  0  0
 15 23  1  0  0  0  0
 17 20  1  0  0  0  0
 18 13  1  0  0  0  0
 18 25  2  0  0  0  0
 19  1  2  0  0  0  0
 20  4  2  0  0  0  0
 20 22  1  0  0  0  0
 22  9  1  0  0  0  0
 25 26  1  0  0  0  0
 26 19  1  0  0  0  0
 26 17  2  0  0  0  0
 27  7  1  0  0  0  0
 27 24  1  6  0  0  0
 30 28  1  0  0  0  0
 30 29  1  0  0  0  0
M  END
>  <MODEL>
3

>  <REMARK>
 VINA RESULT:      -5.7      4.808      7.423
  Name = 
  2 active torsions:
  status: ('A' for Active; 'I' for Inactive)
    1  A    between atoms: C_11  and  C_28
    2  A    between atoms: C_28  and  O_30
                            x       y       z     vdW  Elec       q    Type
                         _______ _______ _______ _____ _____    ______ ____

>  <TORSDO>
F 2

$$$$
=
 OpenBabel11122412353D

 30 35  0  0  1  0  0  0  0  0999 V2000
  160.5190  209.0890  153.5210 C   0  0  0  0  0  0  0  0  0  0  0  0
  160.9760  206.6760  153.9200 C   0  0  0  0  0  0  0  0  0  0  0  0
  161.9660  208.8650  149.6790 N   0  0  0  0  0  2  0  0  0  0  0  0
  160.4970  210.2050  152.6420 C   0  0  0  0  0  0  0  0  0  0  0  0
  160.0790  209.2670  154.8360 O   0  0  0  0  0  0  0  0  0  0  0  0
  159.2210  212.9330  154.9550 C   0  0  0  0  0  1  0  0  0  0  0  0
  160.5500  213.1190  151.4770 C   0  0  1  0  0  3  0  0  0  0  0  0
  159.2610  211.4990  154.4300 C   0  0  2  0  0  3  0  0  0  0  0  0
  161.2250  212.3980  150.3170 C   0  0  2  0  0  3  0  0  0  0  0  0
  161.8140  210.1690  149.3670 C   0  0  0  0  0  0  0  0  0  0  0  0
  159.9760  210.5640  155.4130 C   0  0  2  0  0  3  0  0  0  0  0  0
  159.8280  211.4130  153.0720 N   0  0  0  0  0  0  0  0  0  0  0  0
  161.4410  205.4490  153.4380 C   0  0  0  0  0  3  0  0  0  0  0  0
  160.5650  212.9430  149.0670 C   0  0  0  0  0  2  0  0  0  0  0  0
  160.0880  214.4530  150.9140 C   0  0  0  0  0  2  0  0  0  0  0  0
  160.5210  206.7380  155.2320 O   0  0  0  0  0  1  0  0  0  0  0  0
  161.4840  208.8020  150.9320 C   0  0  0  0  0  0  0  0  0  0  0  0
  161.9110  205.3290  152.1300 C   0  0  0  0  0  3  0  0  0  0  0  0
  160.9760  207.8160  153.0790 C   0  0  0  0  0  0  0  0  0  0  0  0
  161.0440  210.0330  151.3510 C   0  0  0  0  0  0  0  0  0  0  0  0
  162.2070  210.6440  148.2680 O   0  0  0  0  0  0  0  0  0  0  0  0
  161.2430  210.9230  150.3440 N   0  0  0  0  0  0  0  0  0  0  0  0
  160.2250  214.3800  149.4020 C   0  0  0  0  0  2  0  0  0  0  0  0
  158.3530  211.8110  151.1210 C   0  0  0  0  0  1  0  0  0  0  0  0
  161.9240  206.4400  151.2890 C   0  0  0  0  0  3  0  0  0  0  0  0
  161.4600  207.6760  151.7520 C   0  0  0  0  0  0  0  0  0  0  0  0
  159.3660  212.3960  152.1030 C   0  0  2  0  0  3  0  0  0  0  0  0
  161.3690  211.0740  155.7770 C   0  0  0  0  0  2  0  0  0  0  0  0
  162.7170  209.8690  157.0390 C   0  0  0  0  0  1  0  0  0  0  0  0
  161.6530  210.7660  157.1080 O   0  0  0  0  0  0  0  0  0  0  0  0
  1  5  1  0  0  0  0
  2 16  1  0  0  0  0
  3 17  1  0  0  0  0
  4 12  1  0  0  0  0
  4  1  2  0  0  0  0
  5 11  1  0  0  0  0
  7 15  1  6  0  0  0
  7 27  1  0  0  0  0
  8  6  1  1  0  0  0
  8 11  1  0  0  0  0
  9 14  1  6  0  0  0
  9 22  1  0  0  0  0
  9  7  1  0  0  0  0
 10  3  1  0  0  0  0
 10 22  1  0  0  0  0
 11 28  1  6  0  0  0
 12  8  1  0  0  0  0
 13  2  1  0  0  0  0
 14 23  1  0  0  0  0
 17 20  2  0  0  0  0
 17 26  1  0  0  0  0
 18 13  2  0  0  0  0
 19  1  1  0  0  0  0
 19  2  2  0  0  0  0
 20  4  1  0  0  0  0
 21 10  2  0  0  0  0
 22 20  1  0  0  0  0
 23 15  1  0  0  0  0
 25 26  2  0  0  0  0
 25 18  1  0  0  0  0
 26 19  1  0  0  0  0
 27 24  1  6  0  0  0
 27 12  1  0  0  0  0
 28 30  1  0  0  0  0
 29 30  1  0  0  0  0
M  END
>  <MODEL>
4

>  <REMARK>
 VINA RESULT:      -4.7      4.392      8.083
  Name = 
  2 active torsions:
  status: ('A' for Active; 'I' for Inactive)
    1  A    between atoms: C_11  and  C_28
    2  A    between atoms: C_28  and  O_30
                            x       y       z     vdW  Elec       q    Type
                         _______ _______ _______ _____ _____    ______ ____

>  <TORSDO>
F 2

$$$$
=
 OpenBabel11122412353D

 30 35  0  0  1  0  0  0  0  0999 V2000
  160.7740  211.1130  153.2010 C   0  0  0  0  0  0  0  0  0  0  0  0
  161.0830  210.5270  155.5990 C   0  0  0  0  0  0  0  0  0  0  0  0
  157.2680  213.1050  154.0000 N   0  0  0  0  0  2  0  0  0  0  0  0
  160.0450  211.7900  152.1870 C   0  0  0  0  0  0  0  0  0  0  0  0
  161.9170  210.3940  152.8340 O   0  0  0  0  0  0  0  0  0  0  0  0
  162.0340  210.8350  149.0960 C   0  0  0  0  0  1  0  0  0  0  0  0
  158.7810  212.6240  149.4370 C   0  0  1  0  0  3  0  0  0  0  0  0
  161.9040  211.2180  150.5680 C   0  0  2  0  0  3  0  0  0  0  0  0
  157.6520  213.0760  150.3540 C   0  0  2  0  0  3  0  0  0  0  0  0
  156.9690  213.4330  152.7250 C   0  0  0  0  0  0  0  0  0  0  0  0
  162.1500  210.0130  151.4830 C   0  0  2  0  0  3  0  0  0  0  0  0
  160.6240  211.8860  150.8650 N   0  0  0  0  0  0  0  0  0  0  0  0
  160.6280  210.6020  156.9190 C   0  0  0  0  0  3  0  0  0  0  0  0
  157.2590  214.4520  149.8580 C   0  0  0  0  0  2  0  0  0  0  0  0
  158.5500  213.3440  148.1190 C   0  0  0  0  0  2  0  0  0  0  0  0
  162.2540  209.8220  155.3460 O   0  0  0  0  0  1  0  0  0  0  0  0
  158.4410  212.4630  153.8720 C   0  0  0  0  0  0  0  0  0  0  0  0
  159.4580  211.2950  157.2310 C   0  0  0  0  0  3  0  0  0  0  0  0
  160.3580  211.1610  154.5600 C   0  0  0  0  0  0  0  0  0  0  0  0
  158.8370  212.4210  152.5580 C   0  0  0  0  0  0  0  0  0  0  0  0
  155.8920  214.0140  152.4190 O   0  0  0  0  0  0  0  0  0  0  0  0
  157.8980  213.0530  151.8080 N   0  0  0  0  0  0  0  0  0  0  0  0
  157.4920  214.4080  148.3630 C   0  0  0  0  0  2  0  0  0  0  0  0
  160.4190  214.3270  150.4790 C   0  0  0  0  0  1  0  0  0  0  0  0
  158.7280  211.9210  156.2220 C   0  0  0  0  0  3  0  0  0  0  0  0
  159.1690  211.8610  154.8960 C   0  0  0  0  0  0  0  0  0  0  0  0
  160.1900  212.9180  149.9340 C   0  0  2  0  0  3  0  0  0  0  0  0
  161.2520  208.8300  151.1240 C   0  0  0  0  0  2  0  0  0  0  0  0
  162.2020  206.9090  151.6410 C   0  0  0  0  0  1  0  0  0  0  0  0
  161.3140  207.8650  152.1290 O   0  0  0  0  0  0  0  0  0  0  0  0
  1 19  1  0  0  0  0
  2 13  1  0  0  0  0
  4 20  1  0  0  0  0
  4  1  2  0  0  0  0
  5  1  1  0  0  0  0
  7 15  1  6  0  0  0
  7 27  1  0  0  0  0
  7  9  1  0  0  0  0
  8  6  1  6  0  0  0
  8 12  1  0  0  0  0
  8 11  1  0  0  0  0
  9 14  1  6  0  0  0
  9 22  1  0  0  0  0
 10  3  1  0  0  0  0
 11 28  1  6  0  0  0
 11  5  1  0  0  0  0
 12  4  1  0  0  0  0
 13 18  2  0  0  0  0
 15 23  1  0  0  0  0
 16  2  1  0  0  0  0
 17  3  1  0  0  0  0
 17 26  1  0  0  0  0
 19 26  1  0  0  0  0
 19  2  2  0  0  0  0
 20 17  2  0  0  0  0
 21 10  2  0  0  0  0
 22 20  1  0  0  0  0
 22 10  1  0  0  0  0
 23 14  1  0  0  0  0
 25 18  1  0  0  0  0
 26 25  2  0  0  0  0
 27 24  1  1  0  0  0
 27 12  1  0  0  0  0
 28 30  1  0  0  0  0
 29 30  1  0  0  0  0
M  END
>  <MODEL>
5

>  <REMARK>
 VINA RESULT:      -4.2      5.735      9.420
  Name = 
  2 active torsions:
  status: ('A' for Active; 'I' for Inactive)
    1  A    between atoms: C_11  and  C_28
    2  A    between atoms: C_28  and  O_30
                            x       y       z     vdW  Elec       q    Type
                         _______ _______ _______ _____ _____    ______ ____

>  <TORSDO>
F 2

$$$$
=
 OpenBabel11122412353D

 30 35  0  0  1  0  0  0  0  0999 V2000
  161.3590  208.3190  152.0210 C   0  0  0  0  0  0  0  0  0  0  0  0
  161.0190  207.3280  154.2770 C   0  0  0  0  0  0  0  0  0  0  0  0
  159.8640  211.9490  153.2430 N   0  0  0  0  0  2  0  0  0  0  0  0
  161.3160  209.4450  151.1560 C   0  0  0  0  0  0  0  0  0  0  0  0
  161.8110  207.1000  151.5070 O   0  0  0  0  0  0  0  0  0  0  0  0
  162.5000  207.9050  147.8920 C   0  0  0  0  0  1  0  0  0  0  0  0
  161.1100  211.2870  148.6220 C   0  0  1  0  0  3  0  0  0  0  0  0
  162.5180  208.0620  149.4110 C   0  0  2  0  0  3  0  0  0  0  0  0
  160.4520  212.2160  149.6340 C   0  0  2  0  0  3  0  0  0  0  0  0
  159.9510  212.5750  152.0500 C   0  0  0  0  0  0  0  0  0  0  0  0
  161.8630  206.8610  150.1040 C   0  0  2  0  0  3  0  0  0  0  0  0
  161.9340  209.3420  149.8520 N   0  0  0  0  0  0  0  0  0  0  0  0
  160.6040  207.4830  155.6030 C   0  0  0  0  0  3  0  0  0  0  0  0
  161.0660  213.5790  149.3860 C   0  0  0  0  0  2  0  0  0  0  0  0
  161.5020  212.1720  147.4500 C   0  0  0  0  0  2  0  0  0  0  0  0
  161.4920  206.0850  153.8770 O   0  0  0  0  0  1  0  0  0  0  0  0
  160.3670  210.7330  152.9750 C   0  0  0  0  0  0  0  0  0  0  0  0
  160.1200  208.7080  156.0610 C   0  0  0  0  0  3  0  0  0  0  0  0
  160.9530  208.4230  153.3800 C   0  0  0  0  0  0  0  0  0  0  0  0
  160.7570  210.6400  151.6620 C   0  0  0  0  0  0  0  0  0  0  0  0
  159.5200  213.7470  151.8770 O   0  0  0  0  0  0  0  0  0  0  0  0
  160.5020  211.8280  151.0550 N   0  0  0  0  0  0  0  0  0  0  0  0
  161.3440  213.6160  147.8980 C   0  0  0  0  0  2  0  0  0  0  0  0
  163.3590  211.3700  149.8870 C   0  0  0  0  0  1  0  0  0  0  0  0
  160.0430  209.7960  155.1920 C   0  0  0  0  0  3  0  0  0  0  0  0
  160.4570  209.6630  153.8620 C   0  0  0  0  0  0  0  0  0  0  0  0
  162.3350  210.5340  149.1200 C   0  0  2  0  0  3  0  0  0  0  0  0
  160.4530  206.5970  149.5780 C   0  0  0  0  0  2  0  0  0  0  0  0
  160.8320  204.4250  149.6150 C   0  0  0  0  0  1  0  0  0  0  0  0
  160.4560  205.4640  148.7650 O   0  0  0  0  0  0  0  0  0  0  0  0
  1 19  1  0  0  0  0
  2 13  1  0  0  0  0
  4 20  1  0  0  0  0
  4  1  2  0  0  0  0
  5  1  1  0  0  0  0
  7 15  1  6  0  0  0
  7 27  1  0  0  0  0
  7  9  1  0  0  0  0
  8  6  1  6  0  0  0
  8 12  1  0  0  0  0
  8 11  1  0  0  0  0
  9 14  1  1  0  0  0
  9 22  1  0  0  0  0
 10  3  1  0  0  0  0
 11 28  1  6  0  0  0
 11  5  1  0  0  0  0
 12  4  1  0  0  0  0
 13 18  2  0  0  0  0
 15 23  1  0  0  0  0
 16  2  1  0  0  0  0
 17  3  1  0  0  0  0
 17 26  1  0  0  0  0
 19 26  1  0  0  0  0
 19  2  2  0  0  0  0
 20 17  2  0  0  0  0
 21 10  2  0  0  0  0
 22 20  1  0  0  0  0
 22 10  1  0  0  0  0
 23 14  1  0  0  0  0
 25 18  1  0  0  0  0
 26 25  2  0  0  0  0
 27 12  1  0  0  0  0
 27 24  1  1  0  0  0
 30 28  1  0  0  0  0
 30 29  1  0  0  0  0
M  END
>  <MODEL>
6

>  <REMARK>
 VINA RESULT:      -4.2      3.645      7.321
  Name = 
  2 active torsions:
  status: ('A' for Active; 'I' for Inactive)
    1  A    between atoms: C_11  and  C_28
    2  A    between atoms: C_28  and  O_30
                            x       y       z     vdW  Elec       q    Type
                         _______ _______ _______ _____ _____    ______ ____

>  <TORSDO>
F 2

$$$$
=
 OpenBabel11122412353D

 30 35  0  0  1  0  0  0  0  0999 V2000
  161.0890  203.9630  150.3560 C   0  0  0  0  0  0  0  0  0  0  0  0
  161.1410  204.5580  152.7720 C   0  0  0  0  0  0  0  0  0  0  0  0
  161.2670  207.9170  149.2410 N   0  0  0  0  0  2  0  0  0  0  0  0
  161.1510  204.3590  148.9930 C   0  0  0  0  0  0  0  0  0  0  0  0
  160.9530  202.6030  150.6510 O   0  0  0  0  0  0  0  0  0  0  0  0
  160.7520  201.0120  147.2430 C   0  0  0  0  0  1  0  0  0  0  0  0
  160.7980  204.4810  145.8760 C   0  0  1  0  0  3  0  0  0  0  0  0
  161.2710  201.9110  148.3630 C   0  0  2  0  0  3  0  0  0  0  0  0
  160.8040  205.9770  146.1640 C   0  0  2  0  0  3  0  0  0  0  0  0
  161.1890  207.7170  147.9080 C   0  0  0  0  0  0  0  0  0  0  0  0
  160.5050  201.6740  149.6700 C   0  0  2  0  0  3  0  0  0  0  0  0
  161.2860  203.3350  147.9800 N   0  0  0  0  0  0  0  0  0  0  0  0
  161.2130  205.5430  153.7610 C   0  0  0  0  0  3  0  0  0  0  0  0
  161.7170  206.5830  145.1180 C   0  0  0  0  0  2  0  0  0  0  0  0
  161.0820  204.3500  144.3890 C   0  0  0  0  0  2  0  0  0  0  0  0
  161.0500  203.2300  153.1700 O   0  0  0  0  0  1  0  0  0  0  0  0
  161.2520  206.6650  149.7280 C   0  0  0  0  0  0  0  0  0  0  0  0
  161.3040  206.8920  153.4190 C   0  0  0  0  0  3  0  0  0  0  0  0
  161.1630  204.9240  151.4030 C   0  0  0  0  0  0  0  0  0  0  0  0
  161.1810  205.7430  148.7130 C   0  0  0  0  0  0  0  0  0  0  0  0
  161.1230  208.6750  147.0910 O   0  0  0  0  0  0  0  0  0  0  0  0
  161.1490  206.4110  147.5310 N   0  0  0  0  0  0  0  0  0  0  0  0
  161.5350  205.7140  143.8930 C   0  0  0  0  0  2  0  0  0  0  0  0
  163.2250  204.2260  146.7190 C   0  0  0  0  0  1  0  0  0  0  0  0
  161.3230  207.2720  152.0780 C   0  0  0  0  0  3  0  0  0  0  0  0
  161.2560  206.3020  151.0730 C   0  0  0  0  0  0  0  0  0  0  0  0
  161.8080  203.6560  146.6600 C   0  0  2  0  0  3  0  0  0  0  0  0
  158.9960  201.8160  149.4820 C   0  0  0  0  0  2  0  0  0  0  0  0
  157.2370  200.7200  148.7310 C   0  0  0  0  0  1  0  0  0  0  0  0
  158.3980  200.5570  149.4840 O   0  0  0  0  0  0  0  0  0  0  0  0
  1  5  1  0  0  0  0
  1 19  1  0  0  0  0
  2 16  1  0  0  0  0
  2 13  1  0  0  0  0
  3 17  1  0  0  0  0
  4  1  2  0  0  0  0
  7 15  1  6  0  0  0
  7  9  1  0  0  0  0
  7 27  1  0  0  0  0
  8  6  1  6  0  0  0
  8 11  1  0  0  0  0
  9 14  1  6  0  0  0
  9 22  1  0  0  0  0
 10  3  1  0  0  0  0
 11 28  1  6  0  0  0
 11  5  1  0  0  0  0
 12  8  1  0  0  0  0
 12  4  1  0  0  0  0
 17 26  1  0  0  0  0
 18 13  2  0  0  0  0
 19  2  2  0  0  0  0
 20  4  1  0  0  0  0
 20 17  2  0  0  0  0
 21 10  2  0  0  0  0
 22 10  1  0  0  0  0
 22 20  1  0  0  0  0
 23 15  1  0  0  0  0
 23 14  1  0  0  0  0
 25 18  1  0  0  0  0
 26 19  1  0  0  0  0
 26 25  2  0  0  0  0
 27 24  1  1  0  0  0
 27 12  1  0  0  0  0
 28 30  1  0  0  0  0
 29 30  1  0  0  0  0
M  END
>  <MODEL>
7

>  <REMARK>
 VINA RESULT:      -4.1      1.956      6.372
  Name = 
  2 active torsions:
  status: ('A' for Active; 'I' for Inactive)
    1  A    between atoms: C_11  and  C_28
    2  A    between atoms: C_28  and  O_30
                            x       y       z     vdW  Elec       q    Type
                         _______ _______ _______ _____ _____    ______ ____

>  <TORSDO>
F 2

$$$$
=
 OpenBabel11122412353D

 30 35  0  0  1  0  0  0  0  0999 V2000
  161.3910  204.6200  148.9140 C   0  0  0  0  0  0  0  0  0  0  0  0
  161.2050  202.2100  148.3230 C   0  0  0  0  0  0  0  0  0  0  0  0
  160.4870  203.8610  152.8520 N   0  0  0  0  0  2  0  0  0  0  0  0
  161.3800  205.6470  149.8950 C   0  0  0  0  0  0  0  0  0  0  0  0
  161.6330  204.9710  147.5820 O   0  0  0  0  0  0  0  0  0  0  0  0
  161.9840  208.7180  147.7440 C   0  0  0  0  0  1  0  0  0  0  0  0
  161.0960  208.4130  151.3520 C   0  0  1  0  0  3  0  0  0  0  0  0
  162.1980  207.2540  148.1200 C   0  0  2  0  0  3  0  0  0  0  0  0
  160.6750  207.5060  152.5010 C   0  0  2  0  0  3  0  0  0  0  0  0
  160.5070  205.1420  153.2770 C   0  0  0  0  0  0  0  0  0  0  0  0
  161.4920  206.3150  147.1340 C   0  0  2  0  0  3  0  0  0  0  0  0
  161.8250  206.9710  149.5170 N   0  0  0  0  0  0  0  0  0  0  0  0
  160.9690  200.8930  148.7260 C   0  0  0  0  0  3  0  0  0  0  0  0
  161.4120  208.0300  153.7160 C   0  0  0  0  0  2  0  0  0  0  0  0
  161.4490  209.7460  151.9920 C   0  0  0  0  0  2  0  0  0  0  0  0
  161.4780  202.4490  146.9810 O   0  0  0  0  0  1  0  0  0  0  0  0
  160.8090  203.9760  151.5530 C   0  0  0  0  0  0  0  0  0  0  0  0
  160.6890  200.5950  150.0600 C   0  0  0  0  0  3  0  0  0  0  0  0
  161.1630  203.2620  149.2710 C   0  0  0  0  0  0  0  0  0  0  0  0
  161.0290  205.2890  151.2150 C   0  0  0  0  0  0  0  0  0  0  0  0
  160.1990  205.4600  154.4570 O   0  0  0  0  0  0  0  0  0  0  0  0
  160.8450  206.0520  152.3240 N   0  0  0  0  0  0  0  0  0  0  0  0
  161.5160  209.5230  153.4950 C   0  0  0  0  0  2  0  0  0  0  0  0
  163.4720  207.4040  151.3180 C   0  0  0  0  0  1  0  0  0  0  0  0
  160.6390  201.6160  151.0070 C   0  0  0  0  0  3  0  0  0  0  0  0
  160.8760  202.9410  150.6240 C   0  0  0  0  0  0  0  0  0  0  0  0
  162.2740  207.9220  150.5230 C   0  0  2  0  0  3  0  0  0  0  0  0
  160.0100  206.6510  146.9860 C   0  0  0  0  0  2  0  0  0  0  0  0
  160.5590  206.0500  144.9370 C   0  0  0  0  0  1  0  0  0  0  0  0
  159.4980  206.0430  145.8400 O   0  0  0  0  0  0  0  0  0  0  0  0
  1 19  2  0  0  0  0
  1  4  1  0  0  0  0
  2 13  2  0  0  0  0
  2 19  1  0  0  0  0
  3 10  1  0  0  0  0
  4 20  2  0  0  0  0
  5  1  1  0  0  0  0
  7 15  1  1  0  0  0
  7  9  1  0  0  0  0
  8  6  1  6  0  0  0
  8 12  1  0  0  0  0
  9 14  1  1  0  0  0
 10 21  2  0  0  0  0
 11 28  1  1  0  0  0
 11  5  1  0  0  0  0
 11  8  1  0  0  0  0
 12  4  1  0  0  0  0
 12 27  1  0  0  0  0
 13 18  1  0  0  0  0
 15 23  1  0  0  0  0
 16  2  1  0  0  0  0
 17  3  1  0  0  0  0
 18 25  2  0  0  0  0
 19 26  1  0  0  0  0
 20 17  1  0  0  0  0
 20 22  1  0  0  0  0
 22  9  1  0  0  0  0
 22 10  1  0  0  0  0
 23 14  1  0  0  0  0
 26 25  1  0  0  0  0
 26 17  2  0  0  0  0
 27 24  1  1  0  0  0
 27  7  1  0  0  0  0
 29 30  1  0  0  0  0
 30 28  1  0  0  0  0
M  END
>  <MODEL>
8

>  <REMARK>
 VINA RESULT:      -3.9      1.164      1.553
  Name = 
  2 active torsions:
  status: ('A' for Active; 'I' for Inactive)
    1  A    between atoms: C_11  and  C_28
    2  A    between atoms: C_28  and  O_30
                            x       y       z     vdW  Elec       q    Type
                         _______ _______ _______ _____ _____    ______ ____

>  <TORSDO>
F 2

$$$$
=
 OpenBabel11122412353D

 30 35  0  0  1  0  0  0  0  0999 V2000
  160.5490  211.7240  151.6960 C   0  0  0  0  0  0  0  0  0  0  0  0
  161.0570  213.3000  149.8380 C   0  0  0  0  0  0  0  0  0  0  0  0
  162.2580  208.5780  149.6730 N   0  0  0  0  0  2  0  0  0  0  0  0
  160.6500  210.4270  152.2670 C   0  0  0  0  0  0  0  0  0  0  0  0
  159.8860  212.7210  152.4170 O   0  0  0  0  0  0  0  0  0  0  0  0
  158.7410  210.9100  155.5150 C   0  0  0  0  0  1  0  0  0  0  0  0
  160.1070  207.8220  153.9330 C   0  0  1  0  0  3  0  0  0  0  0  0
  159.6840  211.3730  154.4060 C   0  0  2  0  0  3  0  0  0  0  0  0
  160.7610  207.1820  152.7150 C   0  0  2  0  0  3  0  0  0  0  0  0
  161.9880  207.6250  150.5890 C   0  0  0  0  0  0  0  0  0  0  0  0
  159.0070  212.3990  153.4900 C   0  0  2  0  0  3  0  0  0  0  0  0
  160.2570  210.2460  153.6470 N   0  0  0  0  0  0  0  0  0  0  0  0
  161.6180  213.5250  148.5780 C   0  0  0  0  0  3  0  0  0  0  0  0
  161.7480  206.1770  153.2710 C   0  0  0  0  0  2  0  0  0  0  0  0
  160.1790  206.7750  155.0320 C   0  0  0  0  0  2  0  0  0  0  0  0
  160.4560  214.3690  150.4910 O   0  0  0  0  0  1  0  0  0  0  0  0
  161.7660  209.6890  150.2480 C   0  0  0  0  0  0  0  0  0  0  0  0
  162.2330  212.4880  147.8760 C   0  0  0  0  0  3  0  0  0  0  0  0
  161.1080  212.0080  150.4190 C   0  0  0  0  0  0  0  0  0  0  0  0
  161.2290  209.4070  151.4800 C   0  0  0  0  0  0  0  0  0  0  0  0
  162.2550  206.4100  150.3880 O   0  0  0  0  0  0  0  0  0  0  0  0
  161.3740  208.0770  151.7160 N   0  0  0  0  0  0  0  0  0  0  0  0
  161.1130  205.6760  154.5510 C   0  0  0  0  0  2  0  0  0  0  0  0
  162.2710  209.0990  154.5260 C   0  0  0  0  0  1  0  0  0  0  0  0
  162.2900  211.2090  148.4290 C   0  0  0  0  0  3  0  0  0  0  0  0
  161.7370  210.9640  149.6900 C   0  0  0  0  0  0  0  0  0  0  0  0
  160.7470  209.1140  154.4210 C   0  0  2  0  0  3  0  0  0  0  0  0
  157.6840  211.8810  152.9300 C   0  0  0  0  0  2  0  0  0  0  0  0
  155.9670  212.7810  153.9790 C   0  0  0  0  0  1  0  0  0  0  0  0
  156.7640  212.9250  152.8450 O   0  0  0  0  0  0  0  0  0  0  0  0
  1  4  1  0  0  0  0
  1  5  1  0  0  0  0
  2 19  1  0  0  0  0
  2 16  1  0  0  0  0
  3 17  1  0  0  0  0
  3 10  1  0  0  0  0
  4 12  1  0  0  0  0
  5 11  1  0  0  0  0
  7 27  1  0  0  0  0
  7 15  1  1  0  0  0
  8  6  1  1  0  0  0
  9 14  1  1  0  0  0
  9  7  1  0  0  0  0
 10 22  1  0  0  0  0
 11 28  1  6  0  0  0
 11  8  1  0  0  0  0
 12  8  1  0  0  0  0
 12 27  1  0  0  0  0
 13  2  2  0  0  0  0
 14 23  1  0  0  0  0
 17 20  1  0  0  0  0
 18 25  2  0  0  0  0
 18 13  1  0  0  0  0
 19  1  2  0  0  0  0
 20 22  1  0  0  0  0
 20  4  2  0  0  0  0
 21 10  2  0  0  0  0
 22  9  1  0  0  0  0
 23 15  1  0  0  0  0
 25 26  1  0  0  0  0
 26 17  2  0  0  0  0
 26 19  1  0  0  0  0
 27 24  1  6  0  0  0
 30 28  1  0  0  0  0
 30 29  1  0  0  0  0
M  END
>  <MODEL>
9

>  <REMARK>
 VINA RESULT:      -3.9      4.540      7.935
  Name = 
  2 active torsions:
  status: ('A' for Active; 'I' for Inactive)
    1  A    between atoms: C_11  and  C_28
    2  A    between atoms: C_28  and  O_30
                            x       y       z     vdW  Elec       q    Type
                         _______ _______ _______ _____ _____    ______ ____

>  <TORSDO>
F 2

$$$$
