=
 OpenBabel11122412393D

 30 35  0  0  1  0  0  0  0  0999 V2000
  161.0470  204.7750  148.8040 C   0  0  0  0  0  0  0  0  0  0  0  0
  161.0220  202.3630  148.2270 C   0  0  0  0  0  0  0  0  0  0  0  0
  161.0390  203.9490  152.8340 N   0  0  0  0  0  2  0  0  0  0  0  0
  161.1010  205.8010  149.7850 C   0  0  0  0  0  0  0  0  0  0  0  0
  161.0270  205.1230  147.4480 O   0  0  0  0  0  0  0  0  0  0  0  0
  161.2560  208.6900  147.5740 O   0  0  0  0  0  0  0  0  0  0  0  0
  160.7660  208.5240  151.3140 C   0  0  1  0  0  3  0  0  0  0  0  0
  161.1200  207.4990  147.9670 C   0  0  0  0  0  0  0  0  0  0  0  0
  160.7330  207.5860  152.5110 C   0  0  2  0  0  3  0  0  0  0  0  0
  161.0000  205.2270  153.2660 C   0  0  0  0  0  0  0  0  0  0  0  0
  160.6940  206.4360  146.9930 C   0  0  1  0  0  3  0  0  0  0  0  0
  161.2980  207.1630  149.3520 N   0  0  0  0  0  0  0  0  0  0  0  0
  161.0220  201.0270  148.6430 C   0  0  0  0  0  3  0  0  0  0  0  0
  161.6550  208.2090  153.5390 C   0  0  0  0  0  2  0  0  0  0  0  0
  161.0570  209.9010  151.8890 C   0  0  0  0  0  2  0  0  0  0  0  0
  161.0010  202.6180  146.8950 F   0  0  0  0  0  0  0  0  0  0  0  0
  161.0740  204.0890  151.4990 C   0  0  0  0  0  0  0  0  0  0  0  0
  161.0440  200.7060  150.0010 C   0  0  0  0  0  3  0  0  0  0  0  0
  161.0450  203.4050  149.1830 C   0  0  0  0  0  0  0  0  0  0  0  0
  161.0690  205.4150  151.1430 C   0  0  0  0  0  0  0  0  0  0  0  0
  160.9060  205.5160  154.4890 O   0  0  0  0  0  0  0  0  0  0  0  0
  161.0290  206.1610  152.2780 N   0  0  0  0  0  0  0  0  0  0  0  0
  161.5270  209.7020  153.3230 C   0  0  0  0  0  2  0  0  0  0  0  0
  163.2030  207.8750  150.7570 C   0  0  0  0  0  1  0  0  0  0  0  0
  161.0650  201.7200  150.9580 C   0  0  0  0  0  3  0  0  0  0  0  0
  161.0680  203.0620  150.5590 C   0  0  0  0  0  0  0  0  0  0  0  0
  161.8000  208.1940  150.2470 C   0  0  2  0  0  3  0  0  0  0  0  0
  161.1520  206.6700  145.6770 O   0  0  0  0  0  0  0  0  0  0  0  0
  160.8660  204.7370  144.3120 C   0  0  0  0  0  1  0  0  0  0  0  0
  161.8010  205.5120  145.2170 C   0  0  0  0  0  2  0  0  0  0  0  0
  1 19  2  0  0  0  0
  1  4  1  0  0  0  0
  2 13  2  0  0  0  0
  2 19  1  0  0  0  0
  3 10  1  0  0  0  0
  4 20  2  0  0  0  0
  5  1  1  0  0  0  0
  6  8  2  0  0  0  0
  7 15  1  1  0  0  0
  7  9  1  0  0  0  0
  8 12  1  0  0  0  0
  9 14  1  1  0  0  0
 10 21  2  0  0  0  0
 11 28  1  6  0  0  0
 11  5  1  0  0  0  0
 11  8  1  0  0  0  0
 12  4  1  0  0  0  0
 12 27  1  0  0  0  0
 13 18  1  0  0  0  0
 15 23  1  0  0  0  0
 16  2  1  0  0  0  0
 17  3  1  0  0  0  0
 18 25  2  0  0  0  0
 19 26  1  0  0  0  0
 20 17  1  0  0  0  0
 20 22  1  0  0  0  0
 22  9  1  0  0  0  0
 22 10  1  0  0  0  0
 23 14  1  0  0  0  0
 26 25  1  0  0  0  0
 26 17  2  0  0  0  0
 27 24  1  1  0  0  0
 27  7  1  0  0  0  0
 29 30  1  0  0  0  0
 30 28  1  0  0  0  0
M  END
>  <MODEL>
1

>  <REMARK>
 VINA RESULT:      -7.8      0.000      0.000
  Name = 
  2 active torsions:
  status: ('A' for Active; 'I' for Inactive)
    1  A    between atoms: C_11  and  O_28
    2  A    between atoms: O_28  and  C_30
                            x       y       z     vdW  Elec       q    Type
                         _______ _______ _______ _____ _____    ______ ____

>  <TORSDO>
F 2

$$$$
=
 OpenBabel11122412393D

 30 35  0  0  1  0  0  0  0  0999 V2000
  161.4000  208.6630  151.9000 C   0  0  0  0  0  0  0  0  0  0  0  0
  161.0260  209.5270  154.1950 C   0  0  0  0  0  0  0  0  0  0  0  0
  160.9620  204.7690  153.1510 N   0  0  0  0  0  2  0  0  0  0  0  0
  161.4630  207.5690  150.9960 C   0  0  0  0  0  0  0  0  0  0  0  0
  161.5820  209.9640  151.4150 O   0  0  0  0  0  0  0  0  0  0  0  0
  162.0000  209.4170  147.9050 O   0  0  0  0  0  0  0  0  0  0  0  0
  162.1760  205.7050  148.5720 C   0  0  1  0  0  3  0  0  0  0  0  0
  161.8870  209.1650  149.1360 C   0  0  0  0  0  0  0  0  0  0  0  0
  161.9500  204.6300  149.6250 C   0  0  2  0  0  3  0  0  0  0  0  0
  161.2020  204.1830  151.9590 C   0  0  0  0  0  0  0  0  0  0  0  0
  162.1820  210.2380  150.1470 C   0  0  1  0  0  3  0  0  0  0  0  0
  161.5500  207.8420  149.5830 N   0  0  0  0  0  0  0  0  0  0  0  0
  160.7520  209.2780  155.5440 C   0  0  0  0  0  3  0  0  0  0  0  0
  161.0850  203.5830  148.9560 C   0  0  0  0  0  2  0  0  0  0  0  0
  162.1010  204.9810  147.2370 C   0  0  0  0  0  2  0  0  0  0  0  0
  161.1910  210.8160  153.8030 F   0  0  0  0  0  0  0  0  0  0  0  0
  161.0510  206.0770  152.8610 C   0  0  0  0  0  0  0  0  0  0  0  0
  160.5720  207.9720  156.0020 C   0  0  0  0  0  3  0  0  0  0  0  0
  161.1240  208.4550  153.2790 C   0  0  0  0  0  0  0  0  0  0  0  0
  161.3240  206.2680  151.5280 C   0  0  0  0  0  0  0  0  0  0  0  0
  161.2570  202.9310  151.8290 O   0  0  0  0  0  0  0  0  0  0  0  0
  161.4160  205.0500  150.9340 N   0  0  0  0  0  0  0  0  0  0  0  0
  161.4980  203.6080  147.4990 C   0  0  0  0  0  2  0  0  0  0  0  0
  159.7090  206.4610  148.6810 C   0  0  0  0  0  1  0  0  0  0  0  0
  160.6670  206.9010  155.1140 C   0  0  0  0  0  3  0  0  0  0  0  0
  160.9380  207.1330  153.7610 C   0  0  0  0  0  0  0  0  0  0  0  0
  161.1810  206.8550  148.5800 C   0  0  2  0  0  3  0  0  0  0  0  0
  161.8730  211.5370  149.6880 O   0  0  0  0  0  0  0  0  0  0  0  0
  160.3360  213.3510  149.8660 C   0  0  0  0  0  1  0  0  0  0  0  0
  160.8250  212.0510  150.4700 C   0  0  0  0  0  2  0  0  0  0  0  0
  1 19  1  0  0  0  0
  2 13  1  0  0  0  0
  4 20  1  0  0  0  0
  4  1  2  0  0  0  0
  5  1  1  0  0  0  0
  6  8  2  0  0  0  0
  7 15  1  6  0  0  0
  7 27  1  0  0  0  0
  7  9  1  0  0  0  0
  8 12  1  0  0  0  0
  8 11  1  0  0  0  0
  9 14  1  6  0  0  0
  9 22  1  0  0  0  0
 10  3  1  0  0  0  0
 11 28  1  6  0  0  0
 11  5  1  0  0  0  0
 12  4  1  0  0  0  0
 13 18  2  0  0  0  0
 15 23  1  0  0  0  0
 16  2  1  0  0  0  0
 17  3  1  0  0  0  0
 17 26  1  0  0  0  0
 19 26  1  0  0  0  0
 19  2  2  0  0  0  0
 20 17  2  0  0  0  0
 21 10  2  0  0  0  0
 22 20  1  0  0  0  0
 22 10  1  0  0  0  0
 23 14  1  0  0  0  0
 25 18  1  0  0  0  0
 26 25  2  0  0  0  0
 27 24  1  1  0  0  0
 27 12  1  0  0  0  0
 28 30  1  0  0  0  0
 29 30  1  0  0  0  0
M  END
>  <MODEL>
2

>  <REMARK>
 VINA RESULT:      -7.5      2.787      6.019
  Name = 
  2 active torsions:
  status: ('A' for Active; 'I' for Inactive)
    1  A    between atoms: C_11  and  O_28
    2  A    between atoms: O_28  and  C_30
                            x       y       z     vdW  Elec       q    Type
                         _______ _______ _______ _____ _____    ______ ____

>  <TORSDO>
F 2

$$$$
=
 OpenBabel11122412393D

 30 35  0  0  1  0  0  0  0  0999 V2000
  161.3170  208.7960  151.5980 C   0  0  0  0  0  0  0  0  0  0  0  0
  161.7020  211.0680  150.6790 C   0  0  0  0  0  0  0  0  0  0  0  0
  161.5960  207.0930  147.8630 N   0  0  0  0  0  2  0  0  0  0  0  0
  161.2210  207.3920  151.3990 C   0  0  0  0  0  0  0  0  0  0  0  0
  161.1890  209.3150  152.8910 O   0  0  0  0  0  0  0  0  0  0  0  0
  160.7820  206.3600  154.8630 O   0  0  0  0  0  0  0  0  0  0  0  0
  160.4600  204.3580  151.6780 C   0  0  1  0  0  3  0  0  0  0  0  0
  160.8740  207.0990  153.8450 C   0  0  0  0  0  0  0  0  0  0  0  0
  160.6360  204.4100  150.1680 C   0  0  2  0  0  3  0  0  0  0  0  0
  161.3450  205.8210  148.2410 C   0  0  0  0  0  0  0  0  0  0  0  0
  160.6110  208.5740  153.9680 C   0  0  1  0  0  3  0  0  0  0  0  0
  161.1580  206.5330  152.5560 N   0  0  0  0  0  0  0  0  0  0  0  0
  161.9550  211.8920  149.5780 C   0  0  0  0  0  3  0  0  0  0  0  0
  161.4670  203.1940  149.8150 C   0  0  0  0  0  2  0  0  0  0  0  0
  160.5200  202.8830  152.0390 C   0  0  0  0  0  2  0  0  0  0  0  0
  161.5910  211.6480  151.9000 F   0  0  0  0  0  0  0  0  0  0  0  0
  161.5590  207.7600  149.0280 C   0  0  0  0  0  0  0  0  0  0  0  0
  162.0800  211.3490  148.2980 C   0  0  0  0  0  3  0  0  0  0  0  0
  161.5730  209.6700  150.5060 C   0  0  0  0  0  0  0  0  0  0  0  0
  161.3060  206.9080  150.0750 C   0  0  0  0  0  0  0  0  0  0  0  0
  161.2430  204.8840  147.4050 O   0  0  0  0  0  0  0  0  0  0  0  0
  161.1730  205.6510  149.5790 N   0  0  0  0  0  0  0  0  0  0  0  0
  161.0680  202.1420  150.8280 C   0  0  0  0  0  2  0  0  0  0  0  0
  162.9530  204.9020  152.0790 C   0  0  0  0  0  1  0  0  0  0  0  0
  161.9540  209.9740  148.1080 C   0  0  0  0  0  3  0  0  0  0  0  0
  161.7040  209.1340  149.1990 C   0  0  0  0  0  0  0  0  0  0  0  0
  161.4980  205.1200  152.4880 C   0  0  2  0  0  3  0  0  0  0  0  0
  160.9740  209.1020  155.2260 O   0  0  0  0  0  0  0  0  0  0  0  0
  162.6150  210.5900  156.1060 C   0  0  0  0  0  1  0  0  0  0  0  0
  161.5770  210.3560  155.0290 C   0  0  0  0  0  2  0  0  0  0  0  0
  1  5  1  0  0  0  0
  2 16  1  0  0  0  0
  3 10  1  0  0  0  0
  3 17  1  0  0  0  0
  4  1  1  0  0  0  0
  4 12  1  0  0  0  0
  5 11  1  0  0  0  0
  7 15  1  1  0  0  0
  7 27  1  0  0  0  0
  8 11  1  0  0  0  0
  8  6  2  0  0  0  0
  9 14  1  1  0  0  0
  9  7  1  0  0  0  0
 10 22  1  0  0  0  0
 11 28  1  1  0  0  0
 12  8  1  0  0  0  0
 13  2  2  0  0  0  0
 14 23  1  0  0  0  0
 17 26  2  0  0  0  0
 17 20  1  0  0  0  0
 18 13  1  0  0  0  0
 19  2  1  0  0  0  0
 19  1  2  0  0  0  0
 20  4  2  0  0  0  0
 21 10  2  0  0  0  0
 22 20  1  0  0  0  0
 22  9  1  0  0  0  0
 23 15  1  0  0  0  0
 25 18  2  0  0  0  0
 25 26  1  0  0  0  0
 26 19  1  0  0  0  0
 27 24  1  6  0  0  0
 27 12  1  0  0  0  0
 30 28  1  0  0  0  0
 30 29  1  0  0  0  0
M  END
>  <MODEL>
3

>  <REMARK>
 VINA RESULT:      -6.6      2.677      7.220
  Name = 
  2 active torsions:
  status: ('A' for Active; 'I' for Inactive)
    1  A    between atoms: C_11  and  O_28
    2  A    between atoms: O_28  and  C_30
                            x       y       z     vdW  Elec       q    Type
                         _______ _______ _______ _____ _____    ______ ____

>  <TORSDO>
F 2

$$$$
=
 OpenBabel11122412393D

 30 35  0  0  1  0  0  0  0  0999 V2000
  161.3990  208.0980  151.5200 C   0  0  0  0  0  0  0  0  0  0  0  0
  161.8360  210.4660  150.9250 C   0  0  0  0  0  0  0  0  0  0  0  0
  161.5280  206.9430  147.5730 N   0  0  0  0  0  2  0  0  0  0  0  0
  161.2520  206.7410  151.1250 C   0  0  0  0  0  0  0  0  0  0  0  0
  161.3200  208.4290  152.8780 O   0  0  0  0  0  0  0  0  0  0  0  0
  160.8650  205.2330  154.4170 O   0  0  0  0  0  0  0  0  0  0  0  0
  160.3980  203.7220  150.9880 C   0  0  1  0  0  3  0  0  0  0  0  0
  160.9560  206.1080  153.5120 C   0  0  0  0  0  0  0  0  0  0  0  0
  160.5370  203.9850  149.4970 C   0  0  2  0  0  3  0  0  0  0  0  0
  161.2440  205.6380  147.7720 C   0  0  0  0  0  0  0  0  0  0  0  0
  160.7450  207.5570  153.8530 C   0  0  1  0  0  3  0  0  0  0  0  0
  161.1880  205.7250  152.1480 N   0  0  0  0  0  0  0  0  0  0  0  0
  162.0880  211.4330  149.9460 C   0  0  0  0  0  3  0  0  0  0  0  0
  161.3180  202.8090  148.9490 C   0  0  0  0  0  2  0  0  0  0  0  0
  160.4180  202.2090  151.1330 C   0  0  0  0  0  2  0  0  0  0  0  0
  161.7740  210.8670  152.2190 F   0  0  0  0  0  0  0  0  0  0  0  0
  161.5430  207.4360  148.8220 C   0  0  0  0  0  0  0  0  0  0  0  0
  162.1640  211.0760  148.5990 C   0  0  0  0  0  3  0  0  0  0  0  0
  161.6560  209.1120  150.5580 C   0  0  0  0  0  0  0  0  0  0  0  0
  161.2870  206.4500  149.7430 C   0  0  0  0  0  0  0  0  0  0  0  0
  161.0910  204.8350  146.8140 O   0  0  0  0  0  0  0  0  0  0  0  0
  161.1010  205.2810  149.0760 N   0  0  0  0  0  0  0  0  0  0  0  0
  160.9110  201.6340  149.8120 C   0  0  0  0  0  2  0  0  0  0  0  0
  162.9160  204.1280  151.3890 C   0  0  0  0  0  1  0  0  0  0  0  0
  161.9870  209.7470  148.2170 C   0  0  0  0  0  3  0  0  0  0  0  0
  161.7370  208.7660  149.1840 C   0  0  0  0  0  0  0  0  0  0  0  0
  161.4810  204.3280  151.8690 C   0  0  2  0  0  3  0  0  0  0  0  0
  161.1570  207.8870  155.1630 O   0  0  0  0  0  0  0  0  0  0  0  0
  160.0740  207.2590  157.1920 C   0  0  0  0  0  1  0  0  0  0  0  0
  160.0130  208.1180  155.9470 C   0  0  0  0  0  2  0  0  0  0  0  0
  1  5  1  0  0  0  0
  2 16  1  0  0  0  0
  3 10  1  0  0  0  0
  3 17  1  0  0  0  0
  4  1  1  0  0  0  0
  4 12  1  0  0  0  0
  5 11  1  0  0  0  0
  7 15  1  6  0  0  0
  7 27  1  0  0  0  0
  8 11  1  0  0  0  0
  8  6  2  0  0  0  0
  9 14  1  1  0  0  0
  9  7  1  0  0  0  0
 10 22  1  0  0  0  0
 11 28  1  1  0  0  0
 12  8  1  0  0  0  0
 13  2  2  0  0  0  0
 14 23  1  0  0  0  0
 17 26  2  0  0  0  0
 17 20  1  0  0  0  0
 18 13  1  0  0  0  0
 19  2  1  0  0  0  0
 19  1  2  0  0  0  0
 20  4  2  0  0  0  0
 21 10  2  0  0  0  0
 22  9  1  0  0  0  0
 22 20  1  0  0  0  0
 23 15  1  0  0  0  0
 25 18  2  0  0  0  0
 25 26  1  0  0  0  0
 26 19  1  0  0  0  0
 27 24  1  6  0  0  0
 27 12  1  0  0  0  0
 28 30  1  0  0  0  0
 30 29  1  0  0  0  0
M  END
>  <MODEL>
4

>  <REMARK>
 VINA RESULT:      -6.5      2.522      7.214
  Name = 
  2 active torsions:
  status: ('A' for Active; 'I' for Inactive)
    1  A    between atoms: C_11  and  O_28
    2  A    between atoms: O_28  and  C_30
                            x       y       z     vdW  Elec       q    Type
                         _______ _______ _______ _____ _____    ______ ____

>  <TORSDO>
F 2

$$$$
=
 OpenBabel11122412393D

 30 35  0  0  1  0  0  0  0  0999 V2000
  161.7590  206.6340  148.2800 C   0  0  0  0  0  0  0  0  0  0  0  0
  161.9480  205.5650  146.0490 C   0  0  0  0  0  0  0  0  0  0  0  0
  160.7810  203.0560  150.0590 N   0  0  0  0  0  2  0  0  0  0  0  0
  161.5390  206.5220  149.6790 C   0  0  0  0  0  0  0  0  0  0  0  0
  162.0650  207.8860  147.7320 O   0  0  0  0  0  0  0  0  0  0  0  0
  162.1510  209.9850  150.6260 O   0  0  0  0  0  0  0  0  0  0  0  0
  160.7580  207.1250  152.6600 C   0  0  1  0  0  3  0  0  0  0  0  0
  161.9570  208.9630  149.9110 C   0  0  0  0  0  0  0  0  0  0  0  0
  160.4580  205.6340  152.6440 C   0  0  2  0  0  3  0  0  0  0  0  0
  160.5990  203.5360  151.3080 C   0  0  0  0  0  0  0  0  0  0  0  0
  161.8150  209.1120  148.4210 C   0  0  1  0  0  3  0  0  0  0  0  0
  161.7970  207.6700  150.5140 N   0  0  0  0  0  0  0  0  0  0  0  0
  161.8850  204.4120  145.2590 C   0  0  0  0  0  3  0  0  0  0  0  0
  161.0780  205.0820  153.9110 C   0  0  0  0  0  2  0  0  0  0  0  0
  160.8570  207.5000  154.1300 C   0  0  0  0  0  2  0  0  0  0  0  0
  162.2500  206.7410  145.4430 F   0  0  0  0  0  0  0  0  0  0  0  0
  161.1410  204.1520  149.3710 C   0  0  0  0  0  0  0  0  0  0  0  0
  161.5800  203.1760  145.8300 C   0  0  0  0  0  3  0  0  0  0  0  0
  161.7040  205.4880  147.4400 C   0  0  0  0  0  0  0  0  0  0  0  0
  161.1850  205.2540  150.1900 C   0  0  0  0  0  0  0  0  0  0  0  0
  160.1980  202.8040  152.2530 O   0  0  0  0  0  0  0  0  0  0  0  0
  160.8440  204.8660  151.4460 N   0  0  0  0  0  0  0  0  0  0  0  0
  160.9650  206.2040  154.9220 C   0  0  0  0  0  2  0  0  0  0  0  0
  163.2750  206.7160  152.2510 C   0  0  0  0  0  1  0  0  0  0  0  0
  161.3340  203.0810  147.1990 C   0  0  0  0  0  3  0  0  0  0  0  0
  161.3960  204.2230  148.0050 C   0  0  0  0  0  0  0  0  0  0  0  0
  162.0320  207.5480  151.9440 C   0  0  2  0  0  3  0  0  0  0  0  0
  162.5770  210.1780  147.8930 O   0  0  0  0  0  0  0  0  0  0  0  0
  162.6860  212.5590  147.8860 C   0  0  0  0  0  1  0  0  0  0  0  0
  161.7880  211.3410  147.9040 C   0  0  0  0  0  2  0  0  0  0  0  0
  1  4  1  0  0  0  0
  2 19  1  0  0  0  0
  3 10  1  0  0  0  0
  4 20  2  0  0  0  0
  4 12  1  0  0  0  0
  5  1  1  0  0  0  0
  5 11  1  0  0  0  0
  7 15  1  1  0  0  0
  8 12  1  0  0  0  0
  8  6  2  0  0  0  0
  9  7  1  0  0  0  0
  9 14  1  1  0  0  0
 10 22  1  0  0  0  0
 10 21  2  0  0  0  0
 11 28  1  6  0  0  0
 11  8  1  0  0  0  0
 12 27  1  0  0  0  0
 13 18  1  0  0  0  0
 13  2  2  0  0  0  0
 14 23  1  0  0  0  0
 15 23  1  0  0  0  0
 16  2  1  0  0  0  0
 17  3  1  0  0  0  0
 17 20  1  0  0  0  0
 18 25  2  0  0  0  0
 19 26  1  0  0  0  0
 19  1  2  0  0  0  0
 20 22  1  0  0  0  0
 22  9  1  0  0  0  0
 25 26  1  0  0  0  0
 26 17  2  0  0  0  0
 27 24  1  6  0  0  0
 27  7  1  0  0  0  0
 28 30  1  0  0  0  0
 29 30  1  0  0  0  0
M  END
>  <MODEL>
5

>  <REMARK>
 VINA RESULT:      -5.9      2.130      3.582
  Name = 
  2 active torsions:
  status: ('A' for Active; 'I' for Inactive)
    1  A    between atoms: C_11  and  O_28
    2  A    between atoms: O_28  and  C_30
                            x       y       z     vdW  Elec       q    Type
                         _______ _______ _______ _____ _____    ______ ____

>  <TORSDO>
F 2

$$$$
=
 OpenBabel11122412393D

 30 35  0  0  1  0  0  0  0  0999 V2000
  161.4080  207.8040  151.0550 C   0  0  0  0  0  0  0  0  0  0  0  0
  161.6250  205.5930  149.9510 C   0  0  0  0  0  0  0  0  0  0  0  0
  160.4560  206.0610  154.6580 N   0  0  0  0  0  2  0  0  0  0  0  0
  161.1780  208.5720  152.2280 C   0  0  0  0  0  0  0  0  0  0  0  0
  161.7030  208.4590  149.8540 O   0  0  0  0  0  0  0  0  0  0  0  0
  161.7430  211.8940  150.8480 O   0  0  0  0  0  0  0  0  0  0  0  0
  160.3670  210.8680  154.2110 C   0  0  1  0  0  3  0  0  0  0  0  0
  161.5660  210.6470  150.9110 C   0  0  0  0  0  0  0  0  0  0  0  0
  160.0840  209.6780  155.1150 C   0  0  2  0  0  3  0  0  0  0  0  0
  160.2590  207.2040  155.3490 C   0  0  0  0  0  0  0  0  0  0  0  0
  161.4350  209.8470  149.6450 C   0  0  1  0  0  3  0  0  0  0  0  0
  161.4170  209.9940  152.1820 N   0  0  0  0  0  0  0  0  0  0  0  0
  161.5810  204.1980  150.0360 C   0  0  0  0  0  3  0  0  0  0  0  0
  160.7010  210.0290  156.4530 C   0  0  0  0  0  2  0  0  0  0  0  0
  160.4500  212.0680  155.1410 C   0  0  0  0  0  2  0  0  0  0  0  0
  161.9180  206.1520  148.7510 F   0  0  0  0  0  0  0  0  0  0  0  0
  160.8080  206.5080  153.4420 C   0  0  0  0  0  0  0  0  0  0  0  0
  161.2860  203.5690  151.2470 C   0  0  0  0  0  3  0  0  0  0  0  0
  161.3720  206.3830  151.0960 C   0  0  0  0  0  0  0  0  0  0  0  0
  160.8340  207.8810  153.4110 C   0  0  0  0  0  0  0  0  0  0  0  0
  159.8590  207.2010  156.5440 O   0  0  0  0  0  0  0  0  0  0  0  0
  160.4880  208.3420  154.6410 N   0  0  0  0  0  0  0  0  0  0  0  0
  160.5670  211.5330  156.5610 C   0  0  0  0  0  2  0  0  0  0  0  0
  162.8920  210.3280  154.1370 C   0  0  0  0  0  1  0  0  0  0  0  0
  161.0310  204.3310  152.3860 C   0  0  0  0  0  3  0  0  0  0  0  0
  161.0740  205.7280  152.3200 C   0  0  0  0  0  0  0  0  0  0  0  0
  161.6420  210.7800  153.3850 C   0  0  2  0  0  3  0  0  0  0  0  0
  162.1880  210.3740  148.5720 O   0  0  0  0  0  0  0  0  0  0  0  0
  162.2600  212.5070  147.5130 C   0  0  0  0  0  1  0  0  0  0  0  0
  161.4010  211.3210  147.8950 C   0  0  0  0  0  2  0  0  0  0  0  0
  1 19  2  0  0  0  0
  1  4  1  0  0  0  0
  2 13  2  0  0  0  0
  2 19  1  0  0  0  0
  3 10  1  0  0  0  0
  4 20  2  0  0  0  0
  5  1  1  0  0  0  0
  6  8  2  0  0  0  0
  7  9  1  0  0  0  0
  7 15  1  1  0  0  0
  8 12  1  0  0  0  0
  9 14  1  1  0  0  0
 10 21  2  0  0  0  0
 11 28  1  6  0  0  0
 11  5  1  0  0  0  0
 11  8  1  0  0  0  0
 12  4  1  0  0  0  0
 12 27  1  0  0  0  0
 13 18  1  0  0  0  0
 14 23  1  0  0  0  0
 15 23  1  0  0  0  0
 16  2  1  0  0  0  0
 17  3  1  0  0  0  0
 18 25  2  0  0  0  0
 19 26  1  0  0  0  0
 20 17  1  0  0  0  0
 20 22  1  0  0  0  0
 22  9  1  0  0  0  0
 22 10  1  0  0  0  0
 26 25  1  0  0  0  0
 26 17  2  0  0  0  0
 27 24  1  1  0  0  0
 27  7  1  0  0  0  0
 29 30  1  0  0  0  0
 30 28  1  0  0  0  0
M  END
>  <MODEL>
6

>  <REMARK>
 VINA RESULT:      -5.7      2.719      4.088
  Name = 
  2 active torsions:
  status: ('A' for Active; 'I' for Inactive)
    1  A    between atoms: C_11  and  O_28
    2  A    between atoms: O_28  and  C_30
                            x       y       z     vdW  Elec       q    Type
                         _______ _______ _______ _____ _____    ______ ____

>  <TORSDO>
F 2

$$$$
=
 OpenBabel11122412393D

 30 35  0  0  1  0  0  0  0  0999 V2000
  161.4640  208.1040  149.7060 C   0  0  0  0  0  0  0  0  0  0  0  0
  161.6040  206.1600  148.1710 C   0  0  0  0  0  0  0  0  0  0  0  0
  160.8520  205.6610  152.9590 N   0  0  0  0  0  2  0  0  0  0  0  0
  161.3320  208.6200  151.0230 C   0  0  0  0  0  0  0  0  0  0  0  0
  161.6450  208.9910  148.6380 O   0  0  0  0  0  0  0  0  0  0  0  0
  161.7400  212.1630  150.2870 O   0  0  0  0  0  0  0  0  0  0  0  0
  160.6770  210.4580  153.4840 C   0  0  1  0  0  3  0  0  0  0  0  0
  161.5810  210.9230  150.1160 C   0  0  0  0  0  0  0  0  0  0  0  0
  160.4870  209.1060  154.1540 C   0  0  2  0  0  3  0  0  0  0  0  0
  160.7060  206.6400  153.8770 C   0  0  0  0  0  0  0  0  0  0  0  0
  161.3460  210.3850  148.7320 C   0  0  1  0  0  3  0  0  0  0  0  0
  161.5510  210.0290  151.2400 N   0  0  0  0  0  0  0  0  0  0  0  0
  161.5810  204.7750  147.9800 C   0  0  0  0  0  3  0  0  0  0  0  0
  161.2170  209.2030  155.4780 C   0  0  0  0  0  2  0  0  0  0  0  0
  160.8310  211.4530  154.6230 C   0  0  0  0  0  2  0  0  0  0  0  0
  161.7840  206.9530  147.0850 F   0  0  0  0  0  0  0  0  0  0  0  0
  161.0910  206.3480  151.8300 C   0  0  0  0  0  0  0  0  0  0  0  0
  161.4000  203.9120  149.0630 C   0  0  0  0  0  3  0  0  0  0  0  0
  161.4450  206.7030  149.4670 C   0  0  0  0  0  0  0  0  0  0  0  0
  161.1000  207.7000  152.0700 C   0  0  0  0  0  0  0  0  0  0  0  0
  160.4140  206.3910  155.0770 O   0  0  0  0  0  0  0  0  0  0  0  0
  160.8600  207.9010  153.3920 N   0  0  0  0  0  0  0  0  0  0  0  0
  161.0780  210.6530  155.8940 C   0  0  0  0  0  2  0  0  0  0  0  0
  163.1900  210.0110  153.0900 C   0  0  0  0  0  1  0  0  0  0  0  0
  161.2400  204.4280  150.3480 C   0  0  0  0  0  3  0  0  0  0  0  0
  161.2630  205.8120  150.5570 C   0  0  0  0  0  0  0  0  0  0  0  0
  161.8750  210.5680  152.5520 C   0  0  2  0  0  3  0  0  0  0  0  0
  161.9960  211.1320  147.7250 O   0  0  0  0  0  0  0  0  0  0  0  0
  161.6940  213.3570  146.9260 C   0  0  0  0  0  1  0  0  0  0  0  0
  161.0600  211.9990  147.1360 C   0  0  0  0  0  2  0  0  0  0  0  0
  1  4  1  0  0  0  0
  2 19  1  0  0  0  0
  3 10  1  0  0  0  0
  4 12  1  0  0  0  0
  4 20  2  0  0  0  0
  5 11  1  0  0  0  0
  5  1  1  0  0  0  0
  7  9  1  0  0  0  0
  7 15  1  1  0  0  0
  8  6  2  0  0  0  0
  8 12  1  0  0  0  0
  9 14  1  1  0  0  0
 10 21  2  0  0  0  0
 11 28  1  6  0  0  0
 11  8  1  0  0  0  0
 12 27  1  0  0  0  0
 13  2  2  0  0  0  0
 13 18  1  0  0  0  0
 14 23  1  0  0  0  0
 15 23  1  0  0  0  0
 16  2  1  0  0  0  0
 17 20  1  0  0  0  0
 17  3  1  0  0  0  0
 18 25  2  0  0  0  0
 19  1  2  0  0  0  0
 19 26  1  0  0  0  0
 20 22  1  0  0  0  0
 22 10  1  0  0  0  0
 22  9  1  0  0  0  0
 25 26  1  0  0  0  0
 26 17  2  0  0  0  0
 27 24  1  1  0  0  0
 27  7  1  0  0  0  0
 29 30  1  0  0  0  0
 30 28  1  0  0  0  0
M  END
>  <MODEL>
7

>  <REMARK>
 VINA RESULT:      -5.7      2.386      3.762
  Name = 
  2 active torsions:
  status: ('A' for Active; 'I' for Inactive)
    1  A    between atoms: C_11  and  O_28
    2  A    between atoms: O_28  and  C_30
                            x       y       z     vdW  Elec       q    Type
                         _______ _______ _______ _____ _____    ______ ____

>  <TORSDO>
F 2

$$$$
=
 OpenBabel11122412393D

 30 35  0  0  1  0  0  0  0  0999 V2000
  161.4940  206.2920  150.4350 C   0  0  0  0  0  0  0  0  0  0  0  0
  161.1240  205.6550  152.8030 C   0  0  0  0  0  0  0  0  0  0  0  0
  160.9470  202.4170  149.1680 N   0  0  0  0  0  2  0  0  0  0  0  0
  161.5360  205.9340  149.0600 C   0  0  0  0  0  0  0  0  0  0  0  0
  161.7140  207.6250  150.8030 O   0  0  0  0  0  0  0  0  0  0  0  0
  162.1470  209.2290  147.6360 O   0  0  0  0  0  0  0  0  0  0  0  0
  162.2230  205.8280  145.9980 C   0  0  1  0  0  3  0  0  0  0  0  0
  162.0170  208.3060  148.4860 C   0  0  0  0  0  0  0  0  0  0  0  0
  161.9600  204.3470  146.2220 C   0  0  2  0  0  3  0  0  0  0  0  0
  161.1820  202.6350  147.8570 C   0  0  0  0  0  0  0  0  0  0  0  0
  162.3310  208.5750  149.9320 C   0  0  1  0  0  3  0  0  0  0  0  0
  161.6420  206.9820  148.0750 N   0  0  0  0  0  0  0  0  0  0  0  0
  160.8310  204.6700  153.7520 C   0  0  0  0  0  3  0  0  0  0  0  0
  161.0740  203.9130  145.0730 C   0  0  0  0  0  2  0  0  0  0  0  0
  162.1400  206.0280  144.4930 C   0  0  0  0  0  2  0  0  0  0  0  0
  161.3240  206.9240  153.2400 F   0  0  0  0  0  0  0  0  0  0  0  0
  161.0710  203.6440  149.6990 C   0  0  0  0  0  0  0  0  0  0  0  0
  160.6150  203.3480  153.3580 C   0  0  0  0  0  3  0  0  0  0  0  0
  161.2010  205.3220  151.4320 C   0  0  0  0  0  0  0  0  0  0  0  0
  161.3600  204.5730  148.7300 C   0  0  0  0  0  0  0  0  0  0  0  0
  161.2060  201.6960  147.0170 O   0  0  0  0  0  0  0  0  0  0  0  0
  161.4270  203.9330  147.5330 N   0  0  0  0  0  0  0  0  0  0  0  0
  161.5000  204.7780  143.9050 C   0  0  0  0  0  2  0  0  0  0  0  0
  159.7750  206.4390  146.5500 C   0  0  0  0  0  1  0  0  0  0  0  0
  160.6900  202.9990  152.0110 C   0  0  0  0  0  3  0  0  0  0  0  0
  160.9780  203.9740  151.0480 C   0  0  0  0  0  0  0  0  0  0  0  0
  161.2560  206.7800  146.6870 C   0  0  2  0  0  3  0  0  0  0  0  0
  162.0580  209.9040  150.3240 O   0  0  0  0  0  0  0  0  0  0  0  0
  160.8300  210.6000  152.2440 C   0  0  0  0  0  1  0  0  0  0  0  0
  162.1090  209.9770  151.7260 C   0  0  0  0  0  2  0  0  0  0  0  0
  1  5  1  0  0  0  0
  1 19  1  0  0  0  0
  2 16  1  0  0  0  0
  2 13  1  0  0  0  0
  3 17  1  0  0  0  0
  4  1  2  0  0  0  0
  6  8  2  0  0  0  0
  7 15  1  6  0  0  0
  7  9  1  0  0  0  0
  7 27  1  0  0  0  0
  8 11  1  0  0  0  0
  9 14  1  6  0  0  0
  9 22  1  0  0  0  0
 10  3  1  0  0  0  0
 11 28  1  1  0  0  0
 11  5  1  0  0  0  0
 12  8  1  0  0  0  0
 12  4  1  0  0  0  0
 17 26  1  0  0  0  0
 18 13  2  0  0  0  0
 19  2  2  0  0  0  0
 20  4  1  0  0  0  0
 20 17  2  0  0  0  0
 21 10  2  0  0  0  0
 22 10  1  0  0  0  0
 22 20  1  0  0  0  0
 23 15  1  0  0  0  0
 23 14  1  0  0  0  0
 25 18  1  0  0  0  0
 26 19  1  0  0  0  0
 26 25  2  0  0  0  0
 27 24  1  1  0  0  0
 27 12  1  0  0  0  0
 28 30  1  0  0  0  0
 30 29  1  0  0  0  0
M  END
>  <MODEL>
8

>  <REMARK>
 VINA RESULT:      -5.4      2.449      5.681
  Name = 
  2 active torsions:
  status: ('A' for Active; 'I' for Inactive)
    1  A    between atoms: C_11  and  O_28
    2  A    between atoms: O_28  and  C_30
                            x       y       z     vdW  Elec       q    Type
                         _______ _______ _______ _____ _____    ______ ____

>  <TORSDO>
F 2

$$$$
=
 OpenBabel11122412393D

 30 35  0  0  1  0  0  0  0  0999 V2000
  161.5190  207.6230  151.0650 C   0  0  0  0  0  0  0  0  0  0  0  0
  161.1670  207.6860  153.5200 C   0  0  0  0  0  0  0  0  0  0  0  0
  161.1530  203.5270  150.9820 N   0  0  0  0  0  2  0  0  0  0  0  0
  161.5840  206.8840  149.8530 C   0  0  0  0  0  0  0  0  0  0  0  0
  161.6770  209.0140  151.0290 O   0  0  0  0  0  0  0  0  0  0  0  0
  162.0510  209.6480  147.5290 O   0  0  0  0  0  0  0  0  0  0  0  0
  162.2880  205.9250  146.9470 C   0  0  1  0  0  3  0  0  0  0  0  0
  161.9600  209.0070  148.6120 C   0  0  0  0  0  0  0  0  0  0  0  0
  162.0910  204.5620  147.5940 C   0  0  2  0  0  3  0  0  0  0  0  0
  161.3840  203.3660  149.6620 C   0  0  0  0  0  0  0  0  0  0  0  0
  162.2550  209.6970  149.9140 C   0  0  1  0  0  3  0  0  0  0  0  0
  161.6470  207.6050  148.6060 N   0  0  0  0  0  0  0  0  0  0  0  0
  160.9150  207.0060  154.7160 C   0  0  0  0  0  3  0  0  0  0  0  0
  161.2310  203.7750  146.6280 C   0  0  0  0  0  2  0  0  0  0  0  0
  162.2030  205.6750  145.4500 C   0  0  0  0  0  2  0  0  0  0  0  0
  161.3080  209.0340  153.5680 F   0  0  0  0  0  0  0  0  0  0  0  0
  161.2190  204.8590  151.1330 C   0  0  0  0  0  0  0  0  0  0  0  0
  160.7610  205.6180  154.7250 C   0  0  0  0  0  3  0  0  0  0  0  0
  161.2660  206.9720  152.3030 C   0  0  0  0  0  0  0  0  0  0  0  0
  161.4700  205.4790  149.9330 C   0  0  0  0  0  0  0  0  0  0  0  0
  161.4540  202.2250  149.1300 O   0  0  0  0  0  0  0  0  0  0  0  0
  161.5710  204.5230  148.9730 N   0  0  0  0  0  0  0  0  0  0  0  0
  161.6230  204.2810  145.2550 C   0  0  0  0  0  2  0  0  0  0  0  0
  159.8120  206.5600  147.3200 C   0  0  0  0  0  1  0  0  0  0  0  0
  160.8570  204.8970  153.5360 C   0  0  0  0  0  3  0  0  0  0  0  0
  161.1050  205.5620  152.3290 C   0  0  0  0  0  0  0  0  0  0  0  0
  161.2770  206.9920  147.3390 C   0  0  2  0  0  3  0  0  0  0  0  0
  161.9210  211.0690  149.9060 O   0  0  0  0  0  0  0  0  0  0  0  0
  160.2000  212.2830  151.0230 C   0  0  0  0  0  1  0  0  0  0  0  0
  161.4330  211.4190  151.1770 C   0  0  0  0  0  2  0  0  0  0  0  0
  1 19  1  0  0  0  0
  2 16  1  0  0  0  0
  2 13  1  0  0  0  0
  3 17  1  0  0  0  0
  4 20  1  0  0  0  0
  4  1  2  0  0  0  0
  5  1  1  0  0  0  0
  6  8  2  0  0  0  0
  7 15  1  6  0  0  0
  7 27  1  0  0  0  0
  7  9  1  0  0  0  0
  8 11  1  0  0  0  0
  9 14  1  6  0  0  0
  9 22  1  0  0  0  0
 10  3  1  0  0  0  0
 11 28  1  6  0  0  0
 11  5  1  0  0  0  0
 12  8  1  0  0  0  0
 12  4  1  0  0  0  0
 13 18  2  0  0  0  0
 17 26  1  0  0  0  0
 19 26  1  0  0  0  0
 19  2  2  0  0  0  0
 20 17  2  0  0  0  0
 21 10  2  0  0  0  0
 22 10  1  0  0  0  0
 22 20  1  0  0  0  0
 23 15  1  0  0  0  0
 23 14  1  0  0  0  0
 25 18  1  0  0  0  0
 26 25  2  0  0  0  0
 27 24  1  1  0  0  0
 27 12  1  0  0  0  0
 28 30  1  0  0  0  0
 29 30  1  0  0  0  0
M  END
>  <MODEL>
9

>  <REMARK>
 VINA RESULT:      -5.3      2.540      5.742
  Name = 
  2 active torsions:
  status: ('A' for Active; 'I' for Inactive)
    1  A    between atoms: C_11  and  O_28
    2  A    between atoms: O_28  and  C_30
                            x       y       z     vdW  Elec       q    Type
                         _______ _______ _______ _____ _____    ______ ____

>  <TORSDO>
F 2

$$$$
