=
 OpenBabel11122412473D

 32 37  0  0  1  0  0  0  0  0999 V2000
  161.7910  208.2050  151.3080 C   0  0  1  0  0  3  0  0  0  0  0  0
  160.2060  207.8900  155.9790 C   0  0  0  0  0  3  0  0  0  0  0  0
  159.7790  209.2140  155.9400 C   0  0  0  0  0  3  0  0  0  0  0  0
  161.7130  210.5020  150.2740 C   0  0  0  0  0  0  0  0  0  0  0  0
  161.3640  211.9390  150.4590 C   0  0  1  0  0  3  0  0  0  0  0  0
  161.4340  206.0590  150.1520 N   0  0  0  0  0  0  0  0  0  0  0  0
  161.9450  206.0330  152.5810 C   0  0  0  0  0  2  0  0  0  0  0  0
  159.7850  213.4050  150.9070 C   0  0  1  0  0  3  0  0  0  0  0  0
  160.8120  207.3230  154.8580 C   0  0  0  0  0  3  0  0  0  0  0  0
  161.5870  207.4860  152.6090 C   0  0  0  0  0  0  0  0  0  0  0  0
  161.0070  208.0670  153.6800 C   0  0  0  0  0  0  0  0  0  0  0  0
  160.7280  210.1680  152.5330 C   0  0  0  0  0  0  0  0  0  0  0  0
  160.4010  213.7940  149.6330 N   0  0  0  0  0  2  0  0  0  0  0  0
  161.2000  205.3450  151.4290 C   0  0  2  0  0  3  0  0  0  0  0  0
  161.2530  212.7330  149.2560 N   0  0  0  0  0  2  0  0  0  0  0  0
  159.9580  209.9710  154.7830 C   0  0  0  0  0  3  0  0  0  0  0  0
  160.5690  209.4190  153.6430 C   0  0  0  0  0  0  0  0  0  0  0  0
  160.2800  211.6260  152.4910 C   0  0  0  0  0  2  0  0  0  0  0  0
  160.9940  207.4590  150.2420 C   0  0  0  0  0  2  0  0  0  0  0  0
  162.3300  210.1000  149.2520 O   0  0  0  0  0  0  0  0  0  0  0  0
  158.2840  213.6080  150.8270 C   0  0  0  0  0  1  0  0  0  0  0  0
  161.3960  209.6150  151.3670 N   0  0  0  0  0  0  0  0  0  0  0  0
  160.0800  212.0040  151.0960 N   0  0  2  0  0  0  0  0  0  0  0  0
  161.0640  203.1270  152.3360 O   0  0  0  0  0  0  0  0  0  0  0  0
  161.6960  203.9030  151.3470 C   0  0  1  0  0  3  0  0  0  0  0  0
  160.5710  202.9950  151.0270 C   0  0  1  0  0  3  0  0  0  0  0  0
  161.0860  201.7690  150.4430 N   0  0  0  0  0  2  0  0  0  0  0  0
  160.6120  201.7120  149.0710 C   0  0  0  0  0  3  0  0  0  0  0  0
  159.1430  201.3440  149.0600 C   0  0  0  0  0  1  0  0  0  0  0  0
  161.3930  200.6640  148.3010 C   0  0  0  0  0  1  0  0  0  0  0  0
  161.5910  205.1060  147.8390 C   0  0  0  0  0  1  0  0  0  0  0  0
  160.7030  205.4260  149.0430 C   0  0  0  0  0  2  0  0  0  0  0  0
  1 19  1  6  0  0  0
  1 22  1  0  0  0  0
  1 10  1  0  0  0  0
  3  2  1  0  0  0  0
  4  5  1  0  0  0  0
  4 22  1  0  0  0  0
  5 15  1  6  0  0  0
  5 23  1  0  0  0  0
  6 19  1  0  0  0  0
  6 14  1  0  0  0  0
  7 10  1  0  0  0  0
  8 21  1  6  0  0  0
  8 23  1  0  0  0  0
  9  2  2  0  0  0  0
 10 11  2  0  0  0  0
 11  9  1  0  0  0  0
 12 17  2  0  0  0  0
 13  8  1  0  0  0  0
 14  7  1  1  0  0  0
 15 13  1  0  0  0  0
 16  3  2  0  0  0  0
 17 11  1  0  0  0  0
 17 16  1  0  0  0  0
 18 12  1  0  0  0  0
 20  4  2  0  0  0  0
 22 12  1  0  0  0  0
 23 18  1  1  0  0  0
 25 14  1  0  0  0  0
 25 24  1  1  0  0  0
 26 27  1  6  0  0  0
 26 25  1  0  0  0  0
 26 24  1  0  0  0  0
 28 27  1  0  0  0  0
 29 28  1  0  0  0  0
 30 28  1  0  0  0  0
 31 32  1  0  0  0  0
 32  6  1  0  0  0  0
M  END
>  <MODEL>
1

>  <REMARK>
 VINA RESULT:      -8.4      0.000      0.000
  Name = 
  4 active torsions:
  status: ('A' for Active; 'I' for Inactive)
    1  A    between atoms: N_7  and  C_19
    2  A    between atoms: C_10  and  C_17
    3  A    between atoms: C_20  and  N_29
    4  A    between atoms: N_29  and  C_30
                            x       y       z     vdW  Elec       q    Type
                         _______ _______ _______ _____ _____    ______ ____

>  <TORSDO>
F 4

$$$$
=
 OpenBabel11122412473D

 32 37  0  0  1  0  0  0  0  0999 V2000
  161.9180  208.0140  150.6480 C   0  0  1  0  0  3  0  0  0  0  0  0
  160.4940  207.3840  155.3390 C   0  0  0  0  0  3  0  0  0  0  0  0
  160.1260  208.7240  155.4250 C   0  0  0  0  0  3  0  0  0  0  0  0
  161.9060  210.3910  149.8070 C   0  0  0  0  0  0  0  0  0  0  0  0
  161.6290  211.8210  150.1200 C   0  0  1  0  0  3  0  0  0  0  0  0
  161.4220  205.9880  149.3380 N   0  0  0  0  0  0  0  0  0  0  0  0
  162.0210  205.7400  151.7350 C   0  0  0  0  0  2  0  0  0  0  0  0
  160.1370  213.3100  150.7490 C   0  0  1  0  0  3  0  0  0  0  0  0
  161.0320  206.8860  154.1520 C   0  0  0  0  0  3  0  0  0  0  0  0
  161.7300  207.2000  151.8940 C   0  0  0  0  0  0  0  0  0  0  0  0
  161.2170  207.7150  153.0310 C   0  0  0  0  0  0  0  0  0  0  0  0
  160.9910  209.9130  152.0700 C   0  0  0  0  0  0  0  0  0  0  0  0
  160.7220  213.7770  149.4870 N   0  0  0  0  0  2  0  0  0  0  0  0
  161.2030  205.1820  150.5620 C   0  0  2  0  0  3  0  0  0  0  0  0
  161.5110  212.7150  148.9910 N   0  0  0  0  0  2  0  0  0  0  0  0
  160.2970  209.5650  154.3260 C   0  0  0  0  0  3  0  0  0  0  0  0
  160.8400  209.0830  153.1210 C   0  0  0  0  0  0  0  0  0  0  0  0
  160.6090  211.3880  152.1630 C   0  0  0  0  0  2  0  0  0  0  0  0
  161.0490  207.3930  149.5580 C   0  0  0  0  0  2  0  0  0  0  0  0
  162.4660  210.0480  148.7310 O   0  0  0  0  0  0  0  0  0  0  0  0
  158.6440  213.5820  150.7460 C   0  0  0  0  0  1  0  0  0  0  0  0
  161.5900  209.4300  150.8370 N   0  0  0  0  0  0  0  0  0  0  0  0
  160.3750  211.8870  150.8130 N   0  0  2  0  0  0  0  0  0  0  0  0
  160.6290  202.8660  150.8220 O   0  0  0  0  0  0  0  0  0  0  0  0
  161.6300  203.7320  150.3450 C   0  0  1  0  0  3  0  0  0  0  0  0
  160.6820  203.0540  149.4310 C   0  0  1  0  0  3  0  0  0  0  0  0
  161.3320  201.9090  148.8180 N   0  0  0  0  0  2  0  0  0  0  0  0
  160.7850  201.7690  147.4780 C   0  0  0  0  0  3  0  0  0  0  0  0
  161.0640  200.3720  146.9640 C   0  0  0  0  0  1  0  0  0  0  0  0
  161.4350  202.7790  146.5520 C   0  0  0  0  0  1  0  0  0  0  0  0
  160.7710  206.3160  146.9400 C   0  0  0  0  0  1  0  0  0  0  0  0
  160.6230  205.4800  148.2120 C   0  0  0  0  0  2  0  0  0  0  0  0
  1 19  1  6  0  0  0
  1 22  1  0  0  0  0
  1 10  1  0  0  0  0
  2  3  1  0  0  0  0
  4  5  1  0  0  0  0
  4 22  1  0  0  0  0
  5 15  1  6  0  0  0
  5 23  1  0  0  0  0
  6 19  1  0  0  0  0
  6 14  1  0  0  0  0
  7 10  1  0  0  0  0
  8 21  1  6  0  0  0
  8 23  1  0  0  0  0
  9  2  2  0  0  0  0
 10 11  2  0  0  0  0
 11 17  1  0  0  0  0
 11  9  1  0  0  0  0
 12 18  1  0  0  0  0
 12 17  2  0  0  0  0
 13  8  1  0  0  0  0
 14  7  1  1  0  0  0
 15 13  1  0  0  0  0
 16  3  2  0  0  0  0
 17 16  1  0  0  0  0
 20  4  2  0  0  0  0
 22 12  1  0  0  0  0
 23 18  1  1  0  0  0
 25 14  1  0  0  0  0
 25 24  1  1  0  0  0
 26 27  1  6  0  0  0
 26 25  1  0  0  0  0
 26 24  1  0  0  0  0
 28 27  1  0  0  0  0
 29 28  1  0  0  0  0
 30 28  1  0  0  0  0
 31 32  1  0  0  0  0
 32  6  1  0  0  0  0
M  END
>  <MODEL>
2

>  <REMARK>
 VINA RESULT:      -7.4      1.008      1.140
  Name = 
  4 active torsions:
  status: ('A' for Active; 'I' for Inactive)
    1  A    between atoms: N_7  and  C_19
    2  A    between atoms: C_10  and  C_17
    3  A    between atoms: C_20  and  N_29
    4  A    between atoms: N_29  and  C_30
                            x       y       z     vdW  Elec       q    Type
                         _______ _______ _______ _____ _____    ______ ____

>  <TORSDO>
F 4

$$$$
=
 OpenBabel11122412473D

 32 37  0  0  1  0  0  0  0  0999 V2000
  160.7400  206.9410  151.9950 C   0  0  1  0  0  3  0  0  0  0  0  0
  162.0950  210.3040  148.6370 C   0  0  0  0  0  3  0  0  0  0  0  0
  162.3320  211.2370  149.6420 C   0  0  0  0  0  3  0  0  0  0  0  0
  160.5490  207.7720  154.3670 C   0  0  0  0  0  0  0  0  0  0  0  0
  160.6810  208.9310  155.2940 C   0  0  1  0  0  3  0  0  0  0  0  0
  161.4590  204.6970  151.2770 N   0  0  0  0  0  0  0  0  0  0  0  0
  160.8250  206.3560  149.5430 C   0  0  0  0  0  2  0  0  0  0  0  0
  162.0090  210.4690  156.1380 C   0  0  1  0  0  3  0  0  0  0  0  0
  161.6370  209.0280  148.9660 C   0  0  0  0  0  3  0  0  0  0  0  0
  160.9720  207.4150  150.5910 C   0  0  0  0  0  0  0  0  0  0  0  0
  161.4040  208.6610  150.3040 C   0  0  0  0  0  0  0  0  0  0  0  0
  161.4460  209.3050  152.6260 C   0  0  0  0  0  0  0  0  0  0  0  0
  161.4150  209.7330  157.2610 N   0  0  0  0  0  2  0  0  0  0  0  0
  161.7220  205.1620  149.8950 C   0  0  2  0  0  3  0  0  0  0  0  0
  160.7430  208.6220  156.7040 N   0  0  0  0  0  2  0  0  0  0  0  0
  162.1110  210.8950  150.9760 C   0  0  0  0  0  3  0  0  0  0  0  0
  161.6480  209.6150  151.3290 C   0  0  0  0  0  0  0  0  0  0  0  0
  161.6840  210.3290  153.7320 C   0  0  0  0  0  2  0  0  0  0  0  0
  161.6910  205.7750  152.2490 C   0  0  0  0  0  2  0  0  0  0  0  0
  160.0520  206.6780  154.7460 O   0  0  0  0  0  0  0  0  0  0  0  0
  163.4690  210.7550  156.4360 C   0  0  0  0  0  1  0  0  0  0  0  0
  160.9270  207.9980  152.9930 N   0  0  0  0  0  0  0  0  0  0  0  0
  161.9050  209.6110  154.9820 N   0  0  2  0  0  0  0  0  0  0  0  0
  160.3690  204.4300  148.0510 O   0  0  0  0  0  0  0  0  0  0  0  0
  161.4400  204.0530  148.8830 C   0  0  1  0  0  3  0  0  0  0  0  0
  161.6580  204.5520  147.5060 C   0  0  1  0  0  3  0  0  0  0  0  0
  161.9100  203.4320  146.6160 N   0  0  0  0  0  2  0  0  0  0  0  0
  161.9040  203.9510  145.2580 C   0  0  0  0  0  3  0  0  0  0  0  0
  162.3320  205.4030  145.2730 C   0  0  0  0  0  1  0  0  0  0  0  0
  160.5070  203.8480  144.6770 C   0  0  0  0  0  1  0  0  0  0  0  0
  161.5760  202.2500  151.8090 C   0  0  0  0  0  1  0  0  0  0  0  0
  162.3320  203.5690  151.6380 C   0  0  0  0  0  2  0  0  0  0  0  0
  1 19  1  1  0  0  0
  1 22  1  0  0  0  0
  2  9  2  0  0  0  0
  2  3  1  0  0  0  0
  3 16  2  0  0  0  0
  4 20  2  0  0  0  0
  5  4  1  6  0  0  0
  5 15  1  0  0  0  0
  6 32  1  0  0  0  0
  6 19  1  0  0  0  0
  7 10  1  0  0  0  0
  8 21  1  1  0  0  0
  8 13  1  0  0  0  0
  9 11  1  0  0  0  0
 10  1  1  0  0  0  0
 11 10  2  0  0  0  0
 11 17  1  0  0  0  0
 12 22  1  0  0  0  0
 12 18  1  0  0  0  0
 14  7  1  6  0  0  0
 14  6  1  0  0  0  0
 15 13  1  0  0  0  0
 16 17  1  0  0  0  0
 17 12  2  0  0  0  0
 22  4  1  0  0  0  0
 23 18  1  6  0  0  0
 23  5  1  0  0  0  0
 23  8  1  0  0  0  0
 25 24  1  6  0  0  0
 25 14  1  0  0  0  0
 26 27  1  6  0  0  0
 26 24  1  0  0  0  0
 26 25  1  0  0  0  0
 28 29  1  0  0  0  0
 28 27  1  0  0  0  0
 30 28  1  0  0  0  0
 32 31  1  0  0  0  0
M  END
>  <MODEL>
3

>  <REMARK>
 VINA RESULT:      -6.3      2.889      5.009
  Name = 
  4 active torsions:
  status: ('A' for Active; 'I' for Inactive)
    1  A    between atoms: N_7  and  C_19
    2  A    between atoms: C_10  and  C_17
    3  A    between atoms: C_20  and  N_29
    4  A    between atoms: N_29  and  C_30
                            x       y       z     vdW  Elec       q    Type
                         _______ _______ _______ _____ _____    ______ ____

>  <TORSDO>
F 4

$$$$
=
 OpenBabel11122412473D

 32 37  0  0  1  0  0  0  0  0999 V2000
  161.8530  206.5920  148.8250 C   0  0  1  0  0  3  0  0  0  0  0  0
  160.8770  203.1950  152.2790 C   0  0  0  0  0  3  0  0  0  0  0  0
  160.6620  204.1940  153.2250 C   0  0  0  0  0  3  0  0  0  0  0  0
  162.0000  208.9740  149.6370 C   0  0  0  0  0  0  0  0  0  0  0  0
  161.9080  209.9000  150.8010 C   0  0  1  0  0  3  0  0  0  0  0  0
  161.0120  205.8340  146.6370 N   0  0  0  0  0  0  0  0  0  0  0  0
  161.8330  204.1360  148.2510 C   0  0  0  0  0  2  0  0  0  0  0  0
  160.6550  210.6940  152.4260 C   0  0  1  0  0  3  0  0  0  0  0  0
  161.2310  203.5380  150.9740 C   0  0  0  0  0  3  0  0  0  0  0  0
  161.7140  205.1820  149.3170 C   0  0  0  0  0  0  0  0  0  0  0  0
  161.3810  204.8830  150.5890 C   0  0  0  0  0  0  0  0  0  0  0  0
  161.2860  207.2030  151.2310 C   0  0  0  0  0  0  0  0  0  0  0  0
  161.1480  211.8370  151.6490 N   0  0  0  0  0  2  0  0  0  0  0  0
  160.8410  204.4440  147.1210 C   0  0  2  0  0  3  0  0  0  0  0  0
  161.7640  211.3050  150.4950 N   0  0  0  0  0  2  0  0  0  0  0  0
  160.8020  205.5340  152.8660 C   0  0  0  0  0  3  0  0  0  0  0  0
  161.1610  205.9010  151.5560 C   0  0  0  0  0  0  0  0  0  0  0  0
  161.0710  208.3030  152.2680 C   0  0  0  0  0  2  0  0  0  0  0  0
  160.8130  206.8000  147.7270 C   0  0  0  0  0  2  0  0  0  0  0  0
  162.4030  209.3690  148.5110 O   0  0  0  0  0  0  0  0  0  0  0  0
  159.2070  210.9310  152.8120 C   0  0  0  0  0  1  0  0  0  0  0  0
  161.6960  207.5860  149.8910 N   0  0  0  0  0  0  0  0  0  0  0  0
  160.7480  209.5390  151.5640 N   0  0  2  0  0  0  0  0  0  0  0  0
  162.3290  202.8060  146.1930 O   0  0  0  0  0  0  0  0  0  0  0  0
  161.0890  203.4400  145.9970 C   0  0  1  0  0  3  0  0  0  0  0  0
  161.1870  202.0710  146.5500 C   0  0  1  0  0  3  0  0  0  0  0  0
  160.8950  201.1020  145.5080 N   0  0  0  0  0  2  0  0  0  0  0  0
  160.7940  199.8000  146.1450 C   0  0  0  0  0  3  0  0  0  0  0  0
  161.4940  199.8400  147.4870 C   0  0  0  0  0  1  0  0  0  0  0  0
  161.4540  198.7500  145.2710 C   0  0  0  0  0  1  0  0  0  0  0  0
  160.6660  206.1280  144.1720 C   0  0  0  0  0  1  0  0  0  0  0  0
  160.0490  206.1520  145.5710 C   0  0  0  0  0  2  0  0  0  0  0  0
  1 19  1  6  0  0  0
  1 10  1  0  0  0  0
  1 22  1  0  0  0  0
  2  3  1  0  0  0  0
  4 22  1  0  0  0  0
  5  4  1  6  0  0  0
  5 23  1  0  0  0  0
  6 14  1  0  0  0  0
  6 19  1  0  0  0  0
  7 10  1  0  0  0  0
  8 21  1  6  0  0  0
  9  2  2  0  0  0  0
 10 11  2  0  0  0  0
 11  9  1  0  0  0  0
 11 17  1  0  0  0  0
 12 17  2  0  0  0  0
 12 18  1  0  0  0  0
 13  8  1  0  0  0  0
 14  7  1  1  0  0  0
 15  5  1  0  0  0  0
 15 13  1  0  0  0  0
 16  3  2  0  0  0  0
 17 16  1  0  0  0  0
 20  4  2  0  0  0  0
 22 12  1  0  0  0  0
 23 18  1  1  0  0  0
 23  8  1  0  0  0  0
 24 26  1  0  0  0  0
 25 24  1  1  0  0  0
 25 26  1  0  0  0  0
 25 14  1  0  0  0  0
 26 27  1  6  0  0  0
 27 28  1  0  0  0  0
 28 29  1  0  0  0  0
 30 28  1  0  0  0  0
 31 32  1  0  0  0  0
 32  6  1  0  0  0  0
M  END
>  <MODEL>
4

>  <REMARK>
 VINA RESULT:      -5.4      2.395      3.967
  Name = 
  4 active torsions:
  status: ('A' for Active; 'I' for Inactive)
    1  A    between atoms: N_7  and  C_19
    2  A    between atoms: C_10  and  C_17
    3  A    between atoms: C_20  and  N_29
    4  A    between atoms: N_29  and  C_30
                            x       y       z     vdW  Elec       q    Type
                         _______ _______ _______ _____ _____    ______ ____

>  <TORSDO>
F 4

$$$$
