=
 OpenBabel11122412423D

 30 35  0  0  1  0  0  0  0  0999 V2000
  161.1000  205.5900  149.7960 C   0  0  2  0  0  3  0  0  0  0  0  0
  161.3350  203.1010  149.7010 C   0  0  1  0  0  3  0  0  0  0  0  0
  161.4110  205.3140  153.9250 O   0  0  0  0  0  0  0  0  0  0  0  0
  160.8580  206.8660  150.6300 C   0  0  2  0  0  3  0  0  0  0  0  0
  160.7730  205.8870  148.3400 C   0  0  0  0  0  2  0  0  0  0  0  0
  161.9720  209.2750  148.2720 O   0  0  0  0  0  0  0  0  0  0  0  0
  160.5720  209.5560  151.8280 C   0  0  1  0  0  3  0  0  0  0  0  0
  161.8340  208.1510  148.7360 C   0  0  0  0  0  0  0  0  0  0  0  0
  160.5450  208.8460  153.1800 C   0  0  2  0  0  3  0  0  0  0  0  0
  161.3550  206.6630  154.2510 C   0  0  0  0  0  0  0  0  0  0  0  0
  161.7320  206.9570  147.8040 C   0  0  2  0  0  3  0  0  0  0  0  0
  161.9050  207.9220  150.2360 C   0  0  1  0  0  3  0  0  0  0  0  0
  161.2680  201.8050  150.4930 C   0  0  0  0  0  2  0  0  0  0  0  0
  161.2980  209.7650  154.1190 C   0  0  0  0  0  2  0  0  0  0  0  0
  160.5280  211.0370  152.1770 C   0  0  0  0  0  2  0  0  0  0  0  0
  160.8950  202.8650  148.3990 O   0  0  0  0  0  1  0  0  0  0  0  0
  161.3930  205.2260  152.5110 C   0  0  2  0  0  3  0  0  0  0  0  0
  161.7140  202.0510  151.8540 N   0  0  0  0  0  2  0  0  0  0  0  0
  160.5160  204.2440  150.3350 C   0  0  1  0  0  3  0  0  0  0  0  0
  160.7500  206.5320  152.1170 C   0  0  1  0  0  3  0  0  0  0  0  0
  161.4380  207.0860  155.4340 O   0  0  0  0  0  0  0  0  0  0  0  0
  161.1370  207.5080  153.1210 N   0  0  0  0  0  0  0  0  0  0  0  0
  161.0130  211.1690  153.6150 C   0  0  0  0  0  2  0  0  0  0  0  0
  162.7940  209.9400  151.0620 O   0  0  0  0  0  0  0  0  0  0  0  0
  160.6460  202.7850  152.5150 C   0  0  0  0  0  2  0  0  0  0  0  0
  160.4770  204.1790  151.9050 C   0  0  1  0  0  3  0  0  0  0  0  0
  161.8130  209.2100  151.0250 C   0  0  0  0  0  0  0  0  0  0  0  0
  161.3070  207.3680  146.4740 N   0  0  0  0  0  2  0  0  0  0  0  0
  161.2910  205.6640  144.7540 C   0  0  0  0  0  1  0  0  0  0  0  0
  160.5340  206.2740  145.9140 C   0  0  0  0  0  2  0  0  0  0  0  0
  1  5  1  6  0  0  0
  1 19  1  0  0  0  0
  1  4  1  0  0  0  0
  2 16  1  6  0  0  0
  2 19  1  0  0  0  0
  2 13  1  0  0  0  0
  3 10  1  0  0  0  0
  4 20  1  0  0  0  0
  6  8  2  0  0  0  0
  7 15  1  0  0  0  0
  7  9  1  0  0  0  0
  8 12  1  0  0  0  0
  9 14  1  0  0  0  0
 10 21  2  0  0  0  0
 11  5  1  0  0  0  0
 11  8  1  0  0  0  0
 12  4  1  0  0  0  0
 12 27  1  0  0  0  0
 13 18  1  0  0  0  0
 15 23  1  0  0  0  0
 17  3  1  0  0  0  0
 18 25  1  0  0  0  0
 19 26  1  0  0  0  0
 20 17  1  0  0  0  0
 20 22  1  0  0  0  0
 22  9  1  0  0  0  0
 22 10  1  0  0  0  0
 23 14  1  0  0  0  0
 26 17  1  0  0  0  0
 26 25  1  0  0  0  0
 27 24  2  0  0  0  0
 27  7  1  0  0  0  0
 28 11  1  0  0  0  0
 29 30  1  0  0  0  0
 30 28  1  0  0  0  0
M  END
>  <MODEL>
1

>  <REMARK>
 VINA RESULT:      -8.0      0.000      0.000
  Name = 
  2 active torsions:
  status: ('A' for Active; 'I' for Inactive)
    1  A    between atoms: C_11  and  N_28
    2  A    between atoms: N_28  and  C_30
                            x       y       z     vdW  Elec       q    Type
                         _______ _______ _______ _____ _____    ______ ____

>  <TORSDO>
F 2

$$$$
=
 OpenBabel11122412423D

 30 35  0  0  1  0  0  0  0  0999 V2000
  161.2760  207.7110  151.3830 C   0  0  2  0  0  3  0  0  0  0  0  0
  161.9440  210.0960  151.0320 C   0  0  1  0  0  3  0  0  0  0  0  0
  162.4140  206.9700  147.4610 O   0  0  0  0  0  0  0  0  0  0  0  0
  160.9660  206.3220  150.7870 C   0  0  2  0  0  3  0  0  0  0  0  0
  160.6290  207.8110  152.7560 C   0  0  0  0  0  2  0  0  0  0  0  0
  161.1460  204.4000  153.7670 O   0  0  0  0  0  0  0  0  0  0  0  0
  160.4220  203.4920  150.1140 C   0  0  1  0  0  3  0  0  0  0  0  0
  161.3090  205.3920  153.0690 C   0  0  0  0  0  0  0  0  0  0  0  0
  160.7840  203.8640  148.6780 C   0  0  2  0  0  3  0  0  0  0  0  0
  162.1730  205.6030  147.4070 C   0  0  0  0  0  0  0  0  0  0  0  0
  161.2540  206.7740  153.6970 C   0  0  2  0  0  3  0  0  0  0  0  0
  161.7050  205.2530  151.6090 C   0  0  1  0  0  3  0  0  0  0  0  0
  162.2700  211.1680  150.0040 C   0  0  0  0  0  2  0  0  0  0  0  0
  161.5190  202.6560  148.1360 C   0  0  0  0  0  2  0  0  0  0  0  0
  160.1730  201.9910  150.0660 C   0  0  0  0  0  2  0  0  0  0  0  0
  161.3160  210.6890  152.1270 O   0  0  0  0  0  1  0  0  0  0  0  0
  162.1430  207.3880  148.7880 C   0  0  2  0  0  3  0  0  0  0  0  0
  162.9140  210.5520  148.8560 N   0  0  0  0  0  2  0  0  0  0  0  0
  161.0650  208.9610  150.4690 C   0  0  1  0  0  3  0  0  0  0  0  0
  161.2070  206.3110  149.2780 C   0  0  1  0  0  3  0  0  0  0  0  0
  162.4000  204.9080  146.3810 O   0  0  0  0  0  0  0  0  0  0  0  0
  161.5910  205.0840  148.6020 N   0  0  0  0  0  0  0  0  0  0  0  0
  160.8900  201.4620  148.8310 C   0  0  0  0  0  2  0  0  0  0  0  0
  162.3470  202.9950  151.4240 O   0  0  0  0  0  0  0  0  0  0  0  0
  161.8740  209.8390  148.1300 C   0  0  0  0  0  2  0  0  0  0  0  0
  161.3380  208.6630  148.9500 C   0  0  1  0  0  3  0  0  0  0  0  0
  161.5290  203.8410  151.0920 C   0  0  0  0  0  0  0  0  0  0  0  0
  160.5150  206.7470  154.9510 N   0  0  0  0  0  2  0  0  0  0  0  0
  160.5700  207.6280  157.2060 C   0  0  0  0  0  1  0  0  0  0  0  0
  161.0370  207.8200  155.7790 C   0  0  0  0  0  2  0  0  0  0  0  0
  1  5  1  1  0  0  0
  2 16  1  1  0  0  0
  3 17  1  0  0  0  0
  4  1  1  0  0  0  0
  4 12  1  0  0  0  0
  5 11  1  0  0  0  0
  7 27  1  0  0  0  0
  8 11  1  0  0  0  0
  8  6  2  0  0  0  0
  9  7  1  0  0  0  0
 10  3  1  0  0  0  0
 10 22  1  0  0  0  0
 11 28  1  0  0  0  0
 12  8  1  0  0  0  0
 13  2  1  0  0  0  0
 14  9  1  0  0  0  0
 14 23  1  0  0  0  0
 15  7  1  0  0  0  0
 17 26  1  0  0  0  0
 17 20  1  0  0  0  0
 18 13  1  0  0  0  0
 19  2  1  0  0  0  0
 19  1  1  0  0  0  0
 20  4  1  0  0  0  0
 21 10  2  0  0  0  0
 22  9  1  0  0  0  0
 22 20  1  0  0  0  0
 23 15  1  0  0  0  0
 25 18  1  0  0  0  0
 25 26  1  0  0  0  0
 26 19  1  0  0  0  0
 27 24  2  0  0  0  0
 27 12  1  0  0  0  0
 28 30  1  0  0  0  0
 30 29  1  0  0  0  0
M  END
>  <MODEL>
2

>  <REMARK>
 VINA RESULT:      -7.3      1.998      7.296
  Name = 
  2 active torsions:
  status: ('A' for Active; 'I' for Inactive)
    1  A    between atoms: C_11  and  N_28
    2  A    between atoms: N_28  and  C_30
                            x       y       z     vdW  Elec       q    Type
                         _______ _______ _______ _____ _____    ______ ____

>  <TORSDO>
F 2

$$$$
=
 OpenBabel11122412423D

 30 35  0  0  1  0  0  0  0  0999 V2000
  161.6970  208.1570  151.3950 C   0  0  2  0  0  3  0  0  0  0  0  0
  161.1400  208.6830  153.7760 C   0  0  1  0  0  3  0  0  0  0  0  0
  160.4590  204.2630  152.1200 O   0  0  0  0  0  0  0  0  0  0  0  0
  161.9300  207.1040  150.2910 C   0  0  2  0  0  3  0  0  0  0  0  0
  162.3720  209.4570  150.9820 C   0  0  0  0  0  2  0  0  0  0  0  0
  161.7070  209.2290  147.4570 O   0  0  0  0  0  0  0  0  0  0  0  0
  162.3240  205.4680  147.8570 C   0  0  1  0  0  3  0  0  0  0  0  0
  161.5810  208.9280  148.6360 C   0  0  0  0  0  0  0  0  0  0  0  0
  161.9560  204.2650  148.7220 C   0  0  2  0  0  3  0  0  0  0  0  0
  160.6320  203.7270  150.8500 C   0  0  0  0  0  0  0  0  0  0  0  0
  161.7130  209.9960  149.7060 C   0  0  2  0  0  3  0  0  0  0  0  0
  161.1540  207.5250  149.0330 C   0  0  1  0  0  3  0  0  0  0  0  0
  160.8500  208.1050  155.1520 C   0  0  0  0  0  2  0  0  0  0  0  0
  161.1540  203.3590  147.8110 C   0  0  0  0  0  2  0  0  0  0  0  0
  162.5000  204.8910  146.4600 C   0  0  0  0  0  2  0  0  0  0  0  0
  161.8150  209.8950  153.9230 O   0  0  0  0  0  1  0  0  0  0  0  0
  160.7720  205.6430  152.0350 C   0  0  2  0  0  3  0  0  0  0  0  0
  160.1570  206.8360  155.0030 N   0  0  0  0  0  2  0  0  0  0  0  0
  161.9540  207.7310  152.8770 C   0  0  1  0  0  3  0  0  0  0  0  0
  161.6630  205.6950  150.8200 C   0  0  1  0  0  3  0  0  0  0  0  0
  160.3540  202.5320  150.5680 O   0  0  0  0  0  0  0  0  0  0  0  0
  161.2080  204.6460  149.9230 N   0  0  0  0  0  0  0  0  0  0  0  0
  161.7370  203.5730  146.4250 C   0  0  0  0  0  2  0  0  0  0  0  0
  160.4000  206.5850  147.0090 O   0  0  0  0  0  0  0  0  0  0  0  0
  161.1480  205.8730  154.5490 C   0  0  0  0  0  2  0  0  0  0  0  0
  161.6400  206.2130  153.1410 C   0  0  1  0  0  3  0  0  0  0  0  0
  161.2520  206.5420  147.8850 C   0  0  0  0  0  0  0  0  0  0  0  0
  162.4720  211.1370  149.2130 N   0  0  0  0  0  2  0  0  0  0  0  0
  161.6530  212.7550  147.6080 C   0  0  0  0  0  1  0  0  0  0  0  0
  161.5300  212.2270  149.0210 C   0  0  0  0  0  2  0  0  0  0  0  0
  1  5  1  6  0  0  0
  1 19  1  0  0  0  0
  2 16  1  1  0  0  0
  2 13  1  0  0  0  0
  4 20  1  0  0  0  0
  4  1  1  0  0  0  0
  6  8  2  0  0  0  0
  7 27  1  0  0  0  0
  7  9  1  0  0  0  0
  8 12  1  0  0  0  0
  8 11  1  0  0  0  0
  9 22  1  0  0  0  0
 10  3  1  0  0  0  0
 11  5  1  0  0  0  0
 12  4  1  0  0  0  0
 14  9  1  0  0  0  0
 15  7  1  0  0  0  0
 17  3  1  0  0  0  0
 17 26  1  0  0  0  0
 18 13  1  0  0  0  0
 19 26  1  0  0  0  0
 19  2  1  0  0  0  0
 20 17  1  0  0  0  0
 21 10  2  0  0  0  0
 22 20  1  0  0  0  0
 22 10  1  0  0  0  0
 23 15  1  0  0  0  0
 23 14  1  0  0  0  0
 24 27  2  0  0  0  0
 25 18  1  0  0  0  0
 26 25  1  0  0  0  0
 27 12  1  0  0  0  0
 28 11  1  0  0  0  0
 29 30  1  0  0  0  0
 30 28  1  0  0  0  0
M  END
>  <MODEL>
3

>  <REMARK>
 VINA RESULT:      -6.6      2.200      5.575
  Name = 
  2 active torsions:
  status: ('A' for Active; 'I' for Inactive)
    1  A    between atoms: C_11  and  N_28
    2  A    between atoms: N_28  and  C_30
                            x       y       z     vdW  Elec       q    Type
                         _______ _______ _______ _____ _____    ______ ____

>  <TORSDO>
F 2

$$$$
=
 OpenBabel11122412423D

 30 35  0  0  1  0  0  0  0  0999 V2000
  161.4260  207.6960  149.1040 C   0  0  2  0  0  3  0  0  0  0  0  0
  161.7570  205.9260  147.3680 C   0  0  1  0  0  3  0  0  0  0  0  0
  161.3770  204.6820  151.9570 O   0  0  0  0  0  0  0  0  0  0  0  0
  161.0650  208.0760  150.5560 C   0  0  2  0  0  3  0  0  0  0  0  0
  161.2200  208.9130  148.2140 C   0  0  0  0  0  2  0  0  0  0  0  0
  162.2990  211.4040  150.5690 O   0  0  0  0  0  0  0  0  0  0  0  0
  160.5780  209.2470  153.2290 C   0  0  1  0  0  3  0  0  0  0  0  0
  162.1600  210.2690  150.1330 C   0  0  0  0  0  0  0  0  0  0  0  0
  160.4560  207.8100  153.7310 C   0  0  2  0  0  3  0  0  0  0  0  0
  161.2450  205.4530  153.1040 C   0  0  0  0  0  0  0  0  0  0  0  0
  162.1850  210.0280  148.6340 C   0  0  2  0  0  3  0  0  0  0  0  0
  162.1050  209.0810  151.0780 C   0  0  1  0  0  3  0  0  0  0  0  0
  161.6660  204.4390  147.0610 C   0  0  0  0  0  2  0  0  0  0  0  0
  161.0880  207.8220  155.1060 C   0  0  0  0  0  2  0  0  0  0  0  0
  160.4510  210.0990  154.4840 C   0  0  0  0  0  2  0  0  0  0  0  0
  161.4440  206.6500  146.2180 O   0  0  0  0  0  1  0  0  0  0  0  0
  161.4880  205.5770  150.8630 C   0  0  2  0  0  3  0  0  0  0  0  0
  161.9800  203.6810  148.2610 N   0  0  0  0  0  2  0  0  0  0  0  0
  160.8450  206.3630  148.5320 C   0  0  1  0  0  3  0  0  0  0  0  0
  160.8370  206.8250  151.4040 C   0  0  1  0  0  3  0  0  0  0  0  0
  161.2060  204.9590  154.2610 O   0  0  0  0  0  0  0  0  0  0  0  0
  161.0980  206.8470  152.8330 N   0  0  0  0  0  0  0  0  0  0  0  0
  160.8010  209.2040  155.6650 C   0  0  0  0  0  2  0  0  0  0  0  0
  162.8450  209.9720  153.1290 O   0  0  0  0  0  0  0  0  0  0  0  0
  160.8310  203.8090  149.1440 C   0  0  0  0  0  2  0  0  0  0  0  0
  160.6680  205.2510  149.6290 C   0  0  1  0  0  3  0  0  0  0  0  0
  161.8970  209.4950  152.5200 C   0  0  0  0  0  0  0  0  0  0  0  0
  161.8660  211.2470  147.9050 N   0  0  0  0  0  2  0  0  0  0  0  0
  162.7060  213.5160  147.7960 C   0  0  0  0  0  1  0  0  0  0  0  0
  163.0760  212.0500  147.8630 C   0  0  0  0  0  2  0  0  0  0  0  0
  1  5  1  6  0  0  0
  1  4  1  0  0  0  0
  2 16  1  6  0  0  0
  2 19  1  0  0  0  0
  3 10  1  0  0  0  0
  4 12  1  0  0  0  0
  4 20  1  0  0  0  0
  5 11  1  0  0  0  0
  7  9  1  0  0  0  0
  7 15  1  0  0  0  0
  8  6  2  0  0  0  0
  8 12  1  0  0  0  0
  9 14  1  0  0  0  0
 10 21  2  0  0  0  0
 11  8  1  0  0  0  0
 12 27  1  0  0  0  0
 13  2  1  0  0  0  0
 13 18  1  0  0  0  0
 14 23  1  0  0  0  0
 15 23  1  0  0  0  0
 17 20  1  0  0  0  0
 17  3  1  0  0  0  0
 18 25  1  0  0  0  0
 19  1  1  0  0  0  0
 19 26  1  0  0  0  0
 20 22  1  0  0  0  0
 22 10  1  0  0  0  0
 22  9  1  0  0  0  0
 25 26  1  0  0  0  0
 26 17  1  0  0  0  0
 27 24  2  0  0  0  0
 27  7  1  0  0  0  0
 28 11  1  0  0  0  0
 29 30  1  0  0  0  0
 30 28  1  0  0  0  0
M  END
>  <MODEL>
4

>  <REMARK>
 VINA RESULT:      -6.1      2.095      3.261
  Name = 
  2 active torsions:
  status: ('A' for Active; 'I' for Inactive)
    1  A    between atoms: C_11  and  N_28
    2  A    between atoms: N_28  and  C_30
                            x       y       z     vdW  Elec       q    Type
                         _______ _______ _______ _____ _____    ______ ____

>  <TORSDO>
F 2

$$$$
=
 OpenBabel11122412423D

 30 35  0  0  1  0  0  0  0  0999 V2000
  161.0520  210.8320  150.7050 C   0  0  2  0  0  3  0  0  0  0  0  0
  160.2920  212.3490  148.8660 C   0  0  1  0  0  3  0  0  0  0  0  0
  158.8280  213.1480  153.3340 O   0  0  0  0  0  0  0  0  0  0  0  0
  161.1870  210.5470  152.2160 C   0  0  2  0  0  3  0  0  0  0  0  0
  162.0710  209.9870  149.9550 C   0  0  0  0  0  2  0  0  0  0  0  0
  161.8970  207.0730  152.0520 O   0  0  0  0  0  0  0  0  0  0  0  0
  161.5330  209.5290  154.9720 C   0  0  1  0  0  3  0  0  0  0  0  0
  161.5300  208.1570  151.6190 C   0  0  0  0  0  0  0  0  0  0  0  0
  160.7660  210.7690  155.4250 C   0  0  2  0  0  3  0  0  0  0  0  0
  159.0530  212.4420  154.5090 C   0  0  0  0  0  0  0  0  0  0  0  0
  161.7540  208.5000  150.1560 C   0  0  2  0  0  3  0  0  0  0  0  0
  160.7270  209.1060  152.4910 C   0  0  1  0  0  3  0  0  0  0  0  0
  159.6720  213.6960  148.5290 C   0  0  0  0  0  2  0  0  0  0  0  0
  159.9140  210.2990  156.5850 C   0  0  0  0  0  2  0  0  0  0  0  0
  161.7700  208.7410  156.2530 C   0  0  0  0  0  2  0  0  0  0  0  0
  161.2070  212.0040  147.8720 O   0  0  0  0  0  1  0  0  0  0  0  0
  159.4700  212.4350  152.2910 C   0  0  2  0  0  3  0  0  0  0  0  0
  158.7270  214.0630  149.5690 N   0  0  0  0  0  2  0  0  0  0  0  0
  160.9780  212.3250  150.2470 C   0  0  1  0  0  3  0  0  0  0  0  0
  160.5160  211.6480  153.0380 C   0  0  1  0  0  3  0  0  0  0  0  0
  158.5430  212.7690  155.6130 O   0  0  0  0  0  0  0  0  0  0  0  0
  159.9620  211.3530  154.3480 N   0  0  0  0  0  0  0  0  0  0  0  0
  160.7280  209.2100  157.2600 C   0  0  0  0  0  2  0  0  0  0  0  0
  160.0770  207.7630  154.3140 O   0  0  0  0  0  0  0  0  0  0  0  0
  159.5160  214.4530  150.7280 C   0  0  0  0  0  2  0  0  0  0  0  0
  160.2770  213.2550  151.3020 C   0  0  1  0  0  3  0  0  0  0  0  0
  160.7560  208.7150  153.9540 C   0  0  0  0  0  0  0  0  0  0  0  0
  162.8270  207.6940  149.5910 N   0  0  0  0  0  2  0  0  0  0  0  0
  161.0870  206.5870  148.3220 C   0  0  0  0  0  1  0  0  0  0  0  0
  162.4140  207.3100  148.2520 C   0  0  0  0  0  2  0  0  0  0  0  0
  1  5  1  6  0  0  0
  1  4  1  0  0  0  0
  2 16  1  6  0  0  0
  2 19  1  0  0  0  0
  3 10  1  0  0  0  0
  4 12  1  0  0  0  0
  4 20  1  0  0  0  0
  5 11  1  0  0  0  0
  7  9  1  0  0  0  0
  7 15  1  0  0  0  0
  8  6  2  0  0  0  0
  8 12  1  0  0  0  0
  9 14  1  0  0  0  0
 10 21  2  0  0  0  0
 11  8  1  0  0  0  0
 12 27  1  0  0  0  0
 13  2  1  0  0  0  0
 13 18  1  0  0  0  0
 14 23  1  0  0  0  0
 15 23  1  0  0  0  0
 17 20  1  0  0  0  0
 17  3  1  0  0  0  0
 18 25  1  0  0  0  0
 19  1  1  0  0  0  0
 19 26  1  0  0  0  0
 20 22  1  0  0  0  0
 22 10  1  0  0  0  0
 22  9  1  0  0  0  0
 25 26  1  0  0  0  0
 26 17  1  0  0  0  0
 27 24  2  0  0  0  0
 27  7  1  0  0  0  0
 28 11  1  0  0  0  0
 30 29  1  0  0  0  0
 30 28  1  0  0  0  0
M  END
>  <MODEL>
5

>  <REMARK>
 VINA RESULT:      -5.2      3.106      6.482
  Name = 
  2 active torsions:
  status: ('A' for Active; 'I' for Inactive)
    1  A    between atoms: C_11  and  N_28
    2  A    between atoms: N_28  and  C_30
                            x       y       z     vdW  Elec       q    Type
                         _______ _______ _______ _____ _____    ______ ____

>  <TORSDO>
F 2

$$$$
