=
 OpenBabel11122414363D

 34 40  0  0  1  0  0  0  0  0999 V2000
  161.0550  204.0690  151.1660 C   0  0  0  0  0  0  0  0  0  0  0  0
  161.0040  205.8750  153.0060 C   0  0  0  0  0  2  0  0  0  0  0  0
  160.1100  202.4490  144.9420 C   0  0  0  0  0  0  0  0  0  0  0  0
  161.0850  202.5280  149.2660 C   0  0  0  0  0  0  0  0  0  0  0  0
  161.1050  203.4540  147.0090 C   0  0  0  0  0  0  0  0  0  0  0  0
  161.2880  204.6820  144.7840 C   0  0  0  0  0  1  0  0  0  0  0  0
  158.9430  203.0090  144.1960 C   0  0  0  0  0  1  0  0  0  0  0  0
  161.2390  200.5880  145.9030 C   0  0  0  0  0  2  0  0  0  0  0  0
  161.0450  206.5190  150.7410 C   0  0  0  0  0  0  0  0  0  0  0  0
  162.5120  209.0630  149.8860 C   0  0  0  0  0  3  0  0  0  0  0  0
  161.0880  204.7030  147.5540 N   0  0  0  0  0  0  0  0  0  0  0  0
  161.0350  200.8650  147.3890 C   0  0  0  0  0  2  0  0  0  0  0  0
  161.0370  206.3240  149.4140 C   0  0  0  0  0  0  0  0  0  0  0  0
  161.1220  207.4030  152.9310 C   0  0  0  0  0  2  0  0  0  0  0  0
  161.1030  202.3110  147.8690 C   0  0  0  0  0  0  0  0  0  0  0  0
  160.1680  201.1790  145.1380 N   0  0  0  0  0  0  0  0  0  0  0  0
  161.8810  208.9570  151.0670 C   0  0  0  0  0  0  0  0  0  0  0  0
  161.0690  203.8420  149.7760 C   0  0  0  0  0  0  0  0  0  0  0  0
  161.1910  203.3380  145.5040 C   0  0  2  0  0  3  0  0  0  0  0  0
  161.0650  204.9320  148.8910 C   0  0  0  0  0  0  0  0  0  0  0  0
  161.0620  201.6820  151.5540 C   0  0  0  0  0  3  0  0  0  0  0  0
  162.5190  208.1060  148.7320 C   0  0  0  0  0  2  0  0  0  0  0  0
  161.0790  201.4540  150.1750 C   0  0  0  0  0  3  0  0  0  0  0  0
  161.1590  207.4850  148.4920 C   0  0  0  0  0  2  0  0  0  0  0  0
  160.9340  207.8220  151.4600 C   0  0  1  0  0  3  0  0  0  0  0  0
  161.0510  202.9880  152.0510 C   0  0  0  0  0  3  0  0  0  0  0  0
  161.0480  205.4240  151.6330 N   0  0  0  0  0  0  0  0  0  0  0  0
  162.0480  210.0480  151.9260 O   0  0  0  0  0  0  0  0  0  0  0  0
  161.0020  210.8770  152.2760 N   0  0  0  0  0  0  0  0  0  0  0  0
  159.7240  212.1080  155.3870 N   0  0  0  0  0  2  0  0  0  0  0  0
  161.5990  210.7410  154.6430 C   0  0  0  0  0  2  0  0  0  0  0  0
  160.7870  211.2010  153.5100 C   0  0  0  0  0  0  0  0  0  0  0  0
  160.9890  211.4970  155.8100 C   0  0  0  0  0  2  0  0  0  0  0  0
  159.6850  212.0770  153.9280 C   0  0  0  0  0  2  0  0  0  0  0  0
  1 27  1  0  0  0  0
  1 26  1  0  0  0  0
  3 16  2  0  0  0  0
  3 19  1  0  0  0  0
  4 18  1  0  0  0  0
  4 23  2  0  0  0  0
  5 11  1  0  0  0  0
  5 15  2  0  0  0  0
  7  3  1  0  0  0  0
  8 12  1  0  0  0  0
  9 25  1  0  0  0  0
  9 27  1  0  0  0  0
 10 17  2  0  0  0  0
 11 20  2  0  0  0  0
 12 15  1  0  0  0  0
 13  9  2  0  0  0  0
 14  2  1  0  0  0  0
 15  4  1  0  0  0  0
 16  8  1  0  0  0  0
 17 25  1  0  0  0  0
 17 28  1  0  0  0  0
 18  1  2  0  0  0  0
 19  6  1  6  0  0  0
 19  5  1  0  0  0  0
 20 13  1  0  0  0  0
 20 18  1  0  0  0  0
 21 26  2  0  0  0  0
 22 10  1  0  0  0  0
 23 21  1  0  0  0  0
 24 22  1  0  0  0  0
 24 13  1  0  0  0  0
 25 14  1  1  0  0  0
 27  2  1  0  0  0  0
 28 29  1  0  0  0  0
 29 32  2  0  0  0  0
 30 33  1  0  0  0  0
 31 33  1  0  0  0  0
 32 34  1  0  0  0  0
 32 31  1  0  0  0  0
 34 30  1  0  0  0  0
M  END
>  <MODEL>
1

>  <REMARK>
 VINA RESULT:     -11.1      0.000      0.000
  Name = 
  2 active torsions:
  status: ('A' for Active; 'I' for Inactive)
    1  A    between atoms: C_17  and  O_28
    2  A    between atoms: O_28  and  N_29
                            x       y       z     vdW  Elec       q    Type
                         _______ _______ _______ _____ _____    ______ ____

>  <TORSDO>
F 2

$$$$
=
 OpenBabel11122414363D

 34 40  0  0  1  0  0  0  0  0999 V2000
  160.7910  204.8640  151.8890 C   0  0  0  0  0  0  0  0  0  0  0  0
  160.5430  206.4830  153.8820 C   0  0  0  0  0  2  0  0  0  0  0  0
  160.7250  203.9110  145.4600 C   0  0  0  0  0  0  0  0  0  0  0  0
  161.0380  203.5150  149.8640 C   0  0  0  0  0  0  0  0  0  0  0  0
  161.4390  204.6510  147.7430 C   0  0  0  0  0  0  0  0  0  0  0  0
  162.0100  206.0750  145.7090 C   0  0  0  0  0  1  0  0  0  0  0  0
  159.7090  204.6090  144.6140 C   0  0  0  0  0  1  0  0  0  0  0  0
  161.6130  201.9030  146.3760 C   0  0  0  0  0  2  0  0  0  0  0  0
  160.9520  207.3400  151.7250 C   0  0  0  0  0  0  0  0  0  0  0  0
  162.6420  209.8630  151.3640 C   0  0  0  0  0  3  0  0  0  0  0  0
  161.3960  205.8410  148.4070 N   0  0  0  0  0  0  0  0  0  0  0  0
  161.2000  202.0470  147.8360 C   0  0  0  0  0  2  0  0  0  0  0  0
  161.1360  207.2750  150.3990 C   0  0  0  0  0  0  0  0  0  0  0  0
  160.7370  208.0010  153.9840 C   0  0  0  0  0  2  0  0  0  0  0  0
  161.2580  203.4330  148.4690 C   0  0  0  0  0  0  0  0  0  0  0  0
  160.6960  202.6270  145.5290 N   0  0  0  0  0  0  0  0  0  0  0  0
  161.8360  209.6810  152.4230 C   0  0  0  0  0  0  0  0  0  0  0  0
  161.0040  204.7710  150.5010 C   0  0  0  0  0  0  0  0  0  0  0  0
  161.7470  204.6760  146.2630 C   0  0  2  0  0  3  0  0  0  0  0  0
  161.1810  205.9400  149.7430 C   0  0  0  0  0  0  0  0  0  0  0  0
  160.6340  202.4540  152.0240 C   0  0  0  0  0  3  0  0  0  0  0  0
  162.7820  209.0240  150.1290 C   0  0  0  0  0  2  0  0  0  0  0  0
  160.8490  202.3600  150.6450 C   0  0  0  0  0  3  0  0  0  0  0  0
  161.4460  208.5100  149.6310 C   0  0  0  0  0  2  0  0  0  0  0  0
  160.7920  208.5710  152.5530 C   0  0  1  0  0  3  0  0  0  0  0  0
  160.6060  203.7040  152.6470 C   0  0  0  0  0  3  0  0  0  0  0  0
  160.7730  206.1650  152.4900 N   0  0  0  0  0  0  0  0  0  0  0  0
  161.9200  210.6720  153.4060 O   0  0  0  0  0  0  0  0  0  0  0  0
  160.8530  211.4880  153.7220 N   0  0  0  0  0  0  0  0  0  0  0  0
  159.1050  212.2540  156.7520 N   0  0  0  0  0  2  0  0  0  0  0  0
  161.0400  210.9270  156.0940 C   0  0  0  0  0  2  0  0  0  0  0  0
  160.4430  211.6140  154.9420 C   0  0  0  0  0  0  0  0  0  0  0  0
  160.2630  211.5110  157.2610 C   0  0  0  0  0  2  0  0  0  0  0  0
  159.3110  212.4690  155.3230 C   0  0  0  0  0  2  0  0  0  0  0  0
  1 27  1  0  0  0  0
  1 26  1  0  0  0  0
  2 14  1  0  0  0  0
  3 16  2  0  0  0  0
  3 19  1  0  0  0  0
  4 18  1  0  0  0  0
  4 23  2  0  0  0  0
  5 11  1  0  0  0  0
  5 15  2  0  0  0  0
  7  3  1  0  0  0  0
  8 12  1  0  0  0  0
  9 27  1  0  0  0  0
  9 25  1  0  0  0  0
 10 17  2  0  0  0  0
 11 20  2  0  0  0  0
 12 15  1  0  0  0  0
 13  9  2  0  0  0  0
 15  4  1  0  0  0  0
 16  8  1  0  0  0  0
 17 25  1  0  0  0  0
 17 28  1  0  0  0  0
 18  1  2  0  0  0  0
 19  6  1  6  0  0  0
 19  5  1  0  0  0  0
 20 13  1  0  0  0  0
 20 18  1  0  0  0  0
 21 26  2  0  0  0  0
 22 10  1  0  0  0  0
 23 21  1  0  0  0  0
 24 22  1  0  0  0  0
 24 13  1  0  0  0  0
 25 14  1  1  0  0  0
 27  2  1  0  0  0  0
 28 29  1  0  0  0  0
 29 32  2  0  0  0  0
 30 33  1  0  0  0  0
 31 33  1  0  0  0  0
 32 34  1  0  0  0  0
 32 31  1  0  0  0  0
 34 30  1  0  0  0  0
M  END
>  <MODEL>
2

>  <REMARK>
 VINA RESULT:      -8.7      1.222      1.437
  Name = 
  2 active torsions:
  status: ('A' for Active; 'I' for Inactive)
    1  A    between atoms: C_17  and  O_28
    2  A    between atoms: O_28  and  N_29
                            x       y       z     vdW  Elec       q    Type
                         _______ _______ _______ _____ _____    ______ ____

>  <TORSDO>
F 2

$$$$
=
 OpenBabel11122414363D

 34 40  0  0  1  0  0  0  0  0999 V2000
  161.6950  207.9670  149.6320 C   0  0  0  0  0  0  0  0  0  0  0  0
  161.6130  206.3040  147.6610 C   0  0  0  0  0  2  0  0  0  0  0  0
  159.8810  209.5110  155.6800 C   0  0  0  0  0  0  0  0  0  0  0  0
  161.6840  209.3750  151.6320 C   0  0  0  0  0  0  0  0  0  0  0  0
  161.0240  208.3800  153.7590 C   0  0  0  0  0  0  0  0  0  0  0  0
  160.4560  207.0530  155.8600 C   0  0  0  0  0  1  0  0  0  0  0  0
  158.4870  209.2200  156.1360 C   0  0  0  0  0  1  0  0  0  0  0  0
  161.5810  211.0780  155.1230 C   0  0  0  0  0  2  0  0  0  0  0  0
  161.0340  205.5770  149.8260 C   0  0  0  0  0  0  0  0  0  0  0  0
  161.6690  202.7200  150.7140 C   0  0  0  0  0  3  0  0  0  0  0  0
  160.8340  207.1950  153.1120 N   0  0  0  0  0  0  0  0  0  0  0  0
  161.6310  210.9210  153.6070 C   0  0  0  0  0  2  0  0  0  0  0  0
  160.7970  205.7140  151.1380 C   0  0  0  0  0  0  0  0  0  0  0  0
  161.3580  204.7920  147.6210 C   0  0  0  0  0  2  0  0  0  0  0  0
  161.4630  209.5230  153.0210 C   0  0  0  0  0  0  0  0  0  0  0  0
  160.2680  210.7350  155.6130 N   0  0  0  0  0  0  0  0  0  0  0  0
  161.3370  203.0250  149.4490 C   0  0  0  0  0  0  0  0  0  0  0  0
  161.4730  208.1260  151.0130 C   0  0  0  0  0  0  0  0  0  0  0  0
  160.8210  208.4090  155.2580 C   0  0  2  0  0  3  0  0  0  0  0  0
  161.0350  207.0340  151.7800 C   0  0  0  0  0  0  0  0  0  0  0  0
  162.3310  210.2940  149.4670 C   0  0  0  0  0  3  0  0  0  0  0  0
  161.6560  203.5980  151.9300 C   0  0  0  0  0  2  0  0  0  0  0  0
  162.1140  210.4540  150.8390 C   0  0  0  0  0  3  0  0  0  0  0  0
  160.4550  204.5210  151.9590 C   0  0  0  0  0  2  0  0  0  0  0  0
  160.7790  204.3710  148.9850 C   0  0  1  0  0  3  0  0  0  0  0  0
  162.1230  209.0520  148.8630 C   0  0  0  0  0  3  0  0  0  0  0  0
  161.4740  206.6750  149.0520 N   0  0  0  0  0  0  0  0  0  0  0  0
  161.4230  201.9620  148.5430 O   0  0  0  0  0  0  0  0  0  0  0  0
  160.7350  201.9560  147.3480 N   0  0  0  0  0  0  0  0  0  0  0  0
  160.4910  199.6520  144.6170 N   0  0  0  0  0  2  0  0  0  0  0  0
  161.5780  199.7280  146.7970 C   0  0  0  0  0  2  0  0  0  0  0  0
  160.7960  200.9440  146.5440 C   0  0  0  0  0  0  0  0  0  0  0  0
  161.2060  198.8490  145.6160 C   0  0  0  0  0  2  0  0  0  0  0  0
  160.0810  200.8960  145.2610 C   0  0  0  0  0  2  0  0  0  0  0  0
  1 18  1  0  0  0  0
  2 27  1  0  0  0  0
  3  7  1  0  0  0  0
  4 15  1  0  0  0  0
  5 19  1  0  0  0  0
  8 16  1  0  0  0  0
  9 13  2  0  0  0  0
 10 22  1  0  0  0  0
 11  5  1  0  0  0  0
 12  8  1  0  0  0  0
 13 20  1  0  0  0  0
 13 24  1  0  0  0  0
 14  2  1  0  0  0  0
 15 12  1  0  0  0  0
 15  5  2  0  0  0  0
 16  3  2  0  0  0  0
 17 10  2  0  0  0  0
 18  4  2  0  0  0  0
 18 20  1  0  0  0  0
 19  3  1  0  0  0  0
 19  6  1  6  0  0  0
 20 11  2  0  0  0  0
 21 23  2  0  0  0  0
 22 24  1  0  0  0  0
 23  4  1  0  0  0  0
 25 14  1  6  0  0  0
 25 17  1  0  0  0  0
 25  9  1  0  0  0  0
 26 21  1  0  0  0  0
 26  1  2  0  0  0  0
 27  1  1  0  0  0  0
 27  9  1  0  0  0  0
 28 17  1  0  0  0  0
 29 28  1  0  0  0  0
 30 34  1  0  0  0  0
 30 33  1  0  0  0  0
 32 31  1  0  0  0  0
 32 29  2  0  0  0  0
 33 31  1  0  0  0  0
 34 32  1  0  0  0  0
M  END
>  <MODEL>
3

>  <REMARK>
 VINA RESULT:      -8.1      2.200      9.571
  Name = 
  2 active torsions:
  status: ('A' for Active; 'I' for Inactive)
    1  A    between atoms: C_17  and  O_28
    2  A    between atoms: O_28  and  N_29
                            x       y       z     vdW  Elec       q    Type
                         _______ _______ _______ _____ _____    ______ ____

>  <TORSDO>
F 2

$$$$
