=
 OpenBabel11122413193D

 31 35  0  0  0  0  0  0  0  0999 V2000
  161.3150  205.3590  145.7650 C   0  0  0  0  0  0  0  0  0  0  0  0
  161.0550  204.5660  149.4400 C   0  0  0  0  0  0  0  0  0  0  0  0
  161.0950  203.1410  149.5590 C   0  0  0  0  0  0  0  0  0  0  0  0
  161.2500  200.8950  148.6030 C   0  0  0  0  0  0  0  0  0  0  0  0
  161.1270  205.2790  148.2020 C   0  0  0  0  0  0  0  0  0  0  0  0
  161.2640  206.7520  145.7910 C   0  0  0  0  0  3  0  0  0  0  0  0
  161.2120  202.2830  148.4500 C   0  0  0  0  0  3  0  0  0  0  0  0
  160.8870  206.7250  150.6190 C   0  0  0  0  0  0  0  0  0  0  0  0
  161.4410  204.6440  144.4680 C   0  0  0  0  0  1  0  0  0  0  0  0
  160.9000  203.3450  151.9700 C   0  0  0  0  0  3  0  0  0  0  0  0
  161.3660  200.0780  147.4870 O   0  0  0  0  0  1  0  0  0  0  0  0
  160.9590  207.3950  149.4000 C   0  0  0  0  0  3  0  0  0  0  0  0
  160.9340  205.3220  150.6460 C   0  0  0  0  0  0  0  0  0  0  0  0
  161.2470  204.6350  146.9560 C   0  0  0  0  0  3  0  0  0  0  0  0
  161.1700  200.3320  149.8750 C   0  0  0  0  0  3  0  0  0  0  0  0
  161.0770  206.6970  148.2060 C   0  0  0  0  0  0  0  0  0  0  0  0
  161.1450  207.4190  147.0100 C   0  0  0  0  0  3  0  0  0  0  0  0
  160.8620  204.6910  151.8480 N   0  0  0  0  0  0  0  0  0  0  0  0
  161.0160  202.5460  150.8430 C   0  0  0  0  0  0  0  0  0  0  0  0
  161.0530  201.1560  150.9940 C   0  0  0  0  0  3  0  0  0  0  0  0
  162.3470  209.1260  151.4830 O   0  0  0  0  0  0  0  0  0  0  0  0
  161.4920  208.6210  152.2560 C   0  0  0  0  0  0  0  0  0  0  0  0
  160.7640  207.4480  151.8570 N   0  0  0  0  0  2  0  0  0  0  0  0
  160.7310  210.5150  156.0430 C   0  0  0  0  0  0  0  0  0  0  0  0
  161.3310  210.6200  153.7070 C   0  0  0  0  0  3  0  0  0  0  0  0
  160.6710  206.7240  154.7360 Cl  0  0  0  0  0  0  0  0  0  0  0  0
  160.4920  211.1510  157.2530 O   0  0  0  0  0  1  0  0  0  0  0  0
  161.0910  211.2620  154.9220 C   0  0  0  0  0  3  0  0  0  0  0  0
  160.8510  208.4740  154.7330 C   0  0  0  0  0  0  0  0  0  0  0  0
  161.2190  209.2250  153.5860 C   0  0  0  0  0  0  0  0  0  0  0  0
  160.6130  209.1290  155.9460 C   0  0  0  0  0  3  0  0  0  0  0  0
  1  6  2  0  0  0  0
  1 14  1  0  0  0  0
  2  3  2  0  0  0  0
  2 13  1  0  0  0  0
  3 19  1  0  0  0  0
  4 15  1  0  0  0  0
  5 16  1  0  0  0  0
  5  2  1  0  0  0  0
  6 17  1  0  0  0  0
  7  4  2  0  0  0  0
  7  3  1  0  0  0  0
  8 13  1  0  0  0  0
  8 23  1  0  0  0  0
  9  1  1  0  0  0  0
 11  4  1  0  0  0  0
 12  8  2  0  0  0  0
 13 18  2  0  0  0  0
 14  5  2  0  0  0  0
 15 20  2  0  0  0  0
 16 12  1  0  0  0  0
 17 16  2  0  0  0  0
 18 10  1  0  0  0  0
 19 20  1  0  0  0  0
 19 10  2  0  0  0  0
 21 22  2  0  0  0  0
 22 30  1  0  0  0  0
 23 22  1  0  0  0  0
 24 27  1  0  0  0  0
 25 28  1  0  0  0  0
 28 24  2  0  0  0  0
 29 26  1  0  0  0  0
 29 31  2  0  0  0  0
 30 25  2  0  0  0  0
 30 29  1  0  0  0  0
 31 24  1  0  0  0  0
M  END
>  <MODEL>
1

>  <REMARK>
 VINA RESULT:      -9.6      0.000      0.000
  Name = 
  2 active torsions:
  status: ('A' for Active; 'I' for Inactive)
    1  A    between atoms: C_5  and  C_30
    2  A    between atoms: C_10  and  N_16
                            x       y       z     vdW  Elec       q    Type
                         _______ _______ _______ _____ _____    ______ ____

>  <TORSDO>
F 2

$$$$
=
 OpenBabel11122413193D

 31 35  0  0  0  0  0  0  0  0999 V2000
  161.1060  201.5050  149.8120 C   0  0  0  0  0  0  0  0  0  0  0  0
  161.2060  205.2540  149.4390 C   0  0  0  0  0  0  0  0  0  0  0  0
  161.1910  205.5300  148.0360 C   0  0  0  0  0  0  0  0  0  0  0  0
  161.1320  204.8260  145.6940 C   0  0  0  0  0  0  0  0  0  0  0  0
  161.1780  203.9420  150.0090 C   0  0  0  0  0  0  0  0  0  0  0  0
  161.1250  201.3770  151.2000 C   0  0  0  0  0  3  0  0  0  0  0  0
  161.1460  204.5200  147.0570 C   0  0  0  0  0  3  0  0  0  0  0  0
  161.2700  206.1900  151.7190 C   0  0  0  0  0  0  0  0  0  0  0  0
  161.0570  200.2920  148.9550 C   0  0  0  0  0  1  0  0  0  0  0  0
  161.2650  207.9090  148.5100 C   0  0  0  0  0  3  0  0  0  0  0  0
  161.0870  203.8040  144.7550 O   0  0  0  0  0  1  0  0  0  0  0  0
  161.2420  204.9020  152.2480 C   0  0  0  0  0  3  0  0  0  0  0  0
  161.2520  206.3720  150.3270 C   0  0  0  0  0  0  0  0  0  0  0  0
  161.1320  202.7720  149.2270 C   0  0  0  0  0  3  0  0  0  0  0  0
  161.1630  206.1550  145.2780 C   0  0  0  0  0  3  0  0  0  0  0  0
  161.1970  203.7890  151.4190 C   0  0  0  0  0  0  0  0  0  0  0  0
  161.1710  202.5180  152.0010 C   0  0  0  0  0  3  0  0  0  0  0  0
  161.2800  207.6390  149.8360 N   0  0  0  0  0  0  0  0  0  0  0  0
  161.2210  206.8750  147.5890 C   0  0  0  0  0  0  0  0  0  0  0  0
  161.2080  207.1790  146.2240 C   0  0  0  0  0  3  0  0  0  0  0  0
  160.5180  206.3860  154.5550 O   0  0  0  0  0  0  0  0  0  0  0  0
  160.9430  207.4140  153.9640 C   0  0  0  0  0  0  0  0  0  0  0  0
  161.3170  207.3430  152.5780 N   0  0  0  0  0  2  0  0  0  0  0  0
  161.3560  211.0810  156.1730 C   0  0  0  0  0  0  0  0  0  0  0  0
  161.5650  208.6830  155.9950 C   0  0  0  0  0  3  0  0  0  0  0  0
  160.0710  210.1500  152.4900 Cl  0  0  0  0  0  0  0  0  0  0  0  0
  161.4990  212.2500  156.9060 O   0  0  0  0  0  1  0  0  0  0  0  0
  161.7100  209.8570  156.7350 C   0  0  0  0  0  3  0  0  0  0  0  0
  160.7080  209.9610  154.1180 C   0  0  0  0  0  0  0  0  0  0  0  0
  161.0650  208.7080  154.6820 C   0  0  0  0  0  0  0  0  0  0  0  0
  160.8580  211.1300  154.8710 C   0  0  0  0  0  3  0  0  0  0  0  0
  1  6  1  0  0  0  0
  2  5  2  0  0  0  0
  2 13  1  0  0  0  0
  3  2  1  0  0  0  0
  4  7  1  0  0  0  0
  5 16  1  0  0  0  0
  6 17  2  0  0  0  0
  7  3  2  0  0  0  0
  8 12  1  0  0  0  0
  8 23  1  0  0  0  0
  9  1  1  0  0  0  0
 10 18  2  0  0  0  0
 11  4  1  0  0  0  0
 13  8  2  0  0  0  0
 14  1  2  0  0  0  0
 14  5  1  0  0  0  0
 15  4  2  0  0  0  0
 15 20  1  0  0  0  0
 16 17  1  0  0  0  0
 16 12  2  0  0  0  0
 18 13  1  0  0  0  0
 19  3  1  0  0  0  0
 19 10  1  0  0  0  0
 20 19  2  0  0  0  0
 22 21  2  0  0  0  0
 22 30  1  0  0  0  0
 23 22  1  0  0  0  0
 24 28  1  0  0  0  0
 24 27  1  0  0  0  0
 25 28  2  0  0  0  0
 26 29  1  0  0  0  0
 29 30  2  0  0  0  0
 29 31  1  0  0  0  0
 30 25  1  0  0  0  0
 31 24  2  0  0  0  0
M  END
>  <MODEL>
2

>  <REMARK>
 VINA RESULT:      -9.5      1.703      4.203
  Name = 
  2 active torsions:
  status: ('A' for Active; 'I' for Inactive)
    1  A    between atoms: C_5  and  C_30
    2  A    between atoms: C_10  and  N_16
                            x       y       z     vdW  Elec       q    Type
                         _______ _______ _______ _____ _____    ______ ____

>  <TORSDO>
F 2

$$$$
=
 OpenBabel11122413193D

 31 35  0  0  0  0  0  0  0  0999 V2000
  161.1740  201.4140  149.7740 C   0  0  0  0  0  0  0  0  0  0  0  0
  161.1850  205.1640  149.4030 C   0  0  0  0  0  0  0  0  0  0  0  0
  161.2080  205.4400  147.9990 C   0  0  0  0  0  0  0  0  0  0  0  0
  161.2450  204.7350  145.6570 C   0  0  0  0  0  0  0  0  0  0  0  0
  161.1740  203.8510  149.9710 C   0  0  0  0  0  0  0  0  0  0  0  0
  161.1510  201.2860  151.1620 C   0  0  0  0  0  3  0  0  0  0  0  0
  161.2230  204.4290  147.0200 C   0  0  0  0  0  3  0  0  0  0  0  0
  161.1490  206.1010  151.6830 C   0  0  0  0  0  0  0  0  0  0  0  0
  161.1870  200.2000  148.9160 C   0  0  0  0  0  1  0  0  0  0  0  0
  161.2030  207.8200  148.4750 C   0  0  0  0  0  3  0  0  0  0  0  0
  161.2590  203.7130  144.7180 O   0  0  0  0  0  1  0  0  0  0  0  0
  161.1390  204.8120  152.2110 C   0  0  0  0  0  3  0  0  0  0  0  0
  161.1710  206.2820  150.2910 C   0  0  0  0  0  0  0  0  0  0  0  0
  161.1860  202.6810  149.1890 C   0  0  0  0  0  3  0  0  0  0  0  0
  161.2540  206.0650  145.2410 C   0  0  0  0  0  3  0  0  0  0  0  0
  161.1510  203.6980  151.3810 C   0  0  0  0  0  0  0  0  0  0  0  0
  161.1400  202.4270  151.9630 C   0  0  0  0  0  3  0  0  0  0  0  0
  161.1810  207.5500  149.8000 N   0  0  0  0  0  0  0  0  0  0  0  0
  161.2170  206.7850  147.5530 C   0  0  0  0  0  0  0  0  0  0  0  0
  161.2400  207.0890  146.1870 C   0  0  0  0  0  3  0  0  0  0  0  0
  160.4580  206.2440  154.5370 O   0  0  0  0  0  0  0  0  0  0  0  0
  160.7940  207.2980  153.9370 C   0  0  0  0  0  0  0  0  0  0  0  0
  161.1360  207.2540  152.5420 N   0  0  0  0  0  2  0  0  0  0  0  0
  160.9650  211.1370  155.8700 C   0  0  0  0  0  0  0  0  0  0  0  0
  161.0860  209.7550  153.8940 C   0  0  0  0  0  3  0  0  0  0  0  0
  160.3450  207.3810  157.1330 Cl  0  0  0  0  0  0  0  0  0  0  0  0
  161.0250  212.3870  156.4700 O   0  0  0  0  0  1  0  0  0  0  0  0
  161.1470  211.0130  154.4940 C   0  0  0  0  0  3  0  0  0  0  0  0
  160.6570  208.7350  156.0550 C   0  0  0  0  0  0  0  0  0  0  0  0
  160.8430  208.5980  154.6540 C   0  0  0  0  0  0  0  0  0  0  0  0
  160.7220  210.0020  156.6440 C   0  0  0  0  0  3  0  0  0  0  0  0
  1  6  1  0  0  0  0
  2  5  2  0  0  0  0
  2 13  1  0  0  0  0
  3  2  1  0  0  0  0
  4  7  1  0  0  0  0
  5 16  1  0  0  0  0
  6 17  2  0  0  0  0
  7  3  2  0  0  0  0
  8 12  1  0  0  0  0
  8 23  1  0  0  0  0
  9  1  1  0  0  0  0
 10 18  2  0  0  0  0
 11  4  1  0  0  0  0
 13  8  2  0  0  0  0
 14  1  2  0  0  0  0
 14  5  1  0  0  0  0
 15  4  2  0  0  0  0
 15 20  1  0  0  0  0
 16 17  1  0  0  0  0
 16 12  2  0  0  0  0
 18 13  1  0  0  0  0
 19  3  1  0  0  0  0
 19 10  1  0  0  0  0
 20 19  2  0  0  0  0
 22 21  2  0  0  0  0
 22 30  1  0  0  0  0
 23 22  1  0  0  0  0
 24 27  1  0  0  0  0
 24 31  1  0  0  0  0
 25 28  1  0  0  0  0
 25 30  2  0  0  0  0
 28 24  2  0  0  0  0
 29 31  2  0  0  0  0
 29 26  1  0  0  0  0
 30 29  1  0  0  0  0
M  END
>  <MODEL>
3

>  <REMARK>
 VINA RESULT:      -9.2      1.562      4.085
  Name = 
  2 active torsions:
  status: ('A' for Active; 'I' for Inactive)
    1  A    between atoms: C_5  and  C_30
    2  A    between atoms: C_10  and  N_16
                            x       y       z     vdW  Elec       q    Type
                         _______ _______ _______ _____ _____    ______ ____

>  <TORSDO>
F 2

$$$$
=
 OpenBabel11122413193D

 31 35  0  0  0  0  0  0  0  0999 V2000
  161.4610  212.7170  149.7600 C   0  0  0  0  0  0  0  0  0  0  0  0
  161.1320  209.4300  151.5740 C   0  0  0  0  0  0  0  0  0  0  0  0
  160.8640  209.7400  152.9450 C   0  0  0  0  0  0  0  0  0  0  0  0
  160.4970  211.3240  154.7720 C   0  0  0  0  0  0  0  0  0  0  0  0
  161.3250  210.4050  150.5450 C   0  0  0  0  0  0  0  0  0  0  0  0
  161.7170  212.2780  148.4620 C   0  0  0  0  0  3  0  0  0  0  0  0
  160.7610  211.0580  153.4260 C   0  0  0  0  0  3  0  0  0  0  0  0
  161.4710  207.6580  149.8940 C   0  0  0  0  0  0  0  0  0  0  0  0
  161.3940  214.1730  150.0520 C   0  0  0  0  0  1  0  0  0  0  0  0
  160.7810  207.3680  153.4560 C   0  0  0  0  0  3  0  0  0  0  0  0
  160.4010  212.6370  155.2130 O   0  0  0  0  0  1  0  0  0  0  0  0
  161.6560  208.6270  148.9110 C   0  0  0  0  0  3  0  0  0  0  0  0
  161.2110  208.0500  151.2170 C   0  0  0  0  0  0  0  0  0  0  0  0
  161.2690  211.7900  150.7860 C   0  0  0  0  0  3  0  0  0  0  0  0
  160.3300  210.2720  155.6700 C   0  0  0  0  0  3  0  0  0  0  0  0
  161.5870  209.9800  149.2170 C   0  0  0  0  0  0  0  0  0  0  0  0
  161.7790  210.9110  148.1920 C   0  0  0  0  0  3  0  0  0  0  0  0
  161.0350  207.0850  152.1580 N   0  0  0  0  0  0  0  0  0  0  0  0
  160.6900  208.6860  153.8770 C   0  0  0  0  0  0  0  0  0  0  0  0
  160.4260  208.9540  155.2240 C   0  0  0  0  0  3  0  0  0  0  0  0
  160.0910  206.1990  147.7470 O   0  0  0  0  0  0  0  0  0  0  0  0
  160.8570  205.5660  148.5200 C   0  0  0  0  0  0  0  0  0  0  0  0
  161.5440  206.2570  149.5770 N   0  0  0  0  0  2  0  0  0  0  0  0
  161.4160  201.3130  148.1990 C   0  0  0  0  0  0  0  0  0  0  0  0
  160.8210  203.2800  149.4670 C   0  0  0  0  0  3  0  0  0  0  0  0
  161.8380  204.4000  145.6740 Cl  0  0  0  0  0  0  0  0  0  0  0  0
  161.5890  199.9390  148.1220 O   0  0  0  0  0  1  0  0  0  0  0  0
  160.9940  201.8970  149.3920 C   0  0  0  0  0  3  0  0  0  0  0  0
  161.4940  203.4990  147.1450 C   0  0  0  0  0  0  0  0  0  0  0  0
  161.0650  204.1050  148.3550 C   0  0  0  0  0  0  0  0  0  0  0  0
  161.6640  202.1120  147.0830 C   0  0  0  0  0  3  0  0  0  0  0  0
  1  9  1  0  0  0  0
  1 14  1  0  0  0  0
  2  3  1  0  0  0  0
  3  7  2  0  0  0  0
  3 19  1  0  0  0  0
  4 11  1  0  0  0  0
  4 15  2  0  0  0  0
  5 14  2  0  0  0  0
  5  2  1  0  0  0  0
  6  1  2  0  0  0  0
  7  4  1  0  0  0  0
  8 13  1  0  0  0  0
 10 19  1  0  0  0  0
 12 16  1  0  0  0  0
 12  8  2  0  0  0  0
 13  2  2  0  0  0  0
 13 18  1  0  0  0  0
 16  5  1  0  0  0  0
 17  6  1  0  0  0  0
 17 16  2  0  0  0  0
 18 10  2  0  0  0  0
 19 20  2  0  0  0  0
 20 15  1  0  0  0  0
 21 22  2  0  0  0  0
 22 23  1  0  0  0  0
 23  8  1  0  0  0  0
 24 28  1  0  0  0  0
 26 29  1  0  0  0  0
 27 24  1  0  0  0  0
 28 25  2  0  0  0  0
 29 30  2  0  0  0  0
 30 22  1  0  0  0  0
 30 25  1  0  0  0  0
 31 29  1  0  0  0  0
 31 24  2  0  0  0  0
M  END
>  <MODEL>
4

>  <REMARK>
 VINA RESULT:      -7.3      2.884      8.347
  Name = 
  2 active torsions:
  status: ('A' for Active; 'I' for Inactive)
    1  A    between atoms: C_5  and  C_30
    2  A    between atoms: C_10  and  N_16
                            x       y       z     vdW  Elec       q    Type
                         _______ _______ _______ _____ _____    ______ ____

>  <TORSDO>
F 2

$$$$
=
 OpenBabel11122413193D

 31 35  0  0  0  0  0  0  0  0999 V2000
  161.4850  212.5980  149.7950 C   0  0  0  0  0  0  0  0  0  0  0  0
  161.1170  209.3580  151.6850 C   0  0  0  0  0  0  0  0  0  0  0  0
  160.8450  209.7030  153.0460 C   0  0  0  0  0  0  0  0  0  0  0  0
  160.4840  211.3330  154.8330 C   0  0  0  0  0  0  0  0  0  0  0  0
  161.3240  210.3060  150.6340 C   0  0  0  0  0  0  0  0  0  0  0  0
  161.7430  212.1260  148.5090 C   0  0  0  0  0  3  0  0  0  0  0  0
  160.7510  211.0330  153.4960 C   0  0  0  0  0  3  0  0  0  0  0  0
  161.4490  207.5430  150.0490 C   0  0  0  0  0  0  0  0  0  0  0  0
  161.4290  214.0610  150.0520 C   0  0  0  0  0  1  0  0  0  0  0  0
  160.7380  207.3450  153.6140 C   0  0  0  0  0  3  0  0  0  0  0  0
  160.3980  212.6570  155.2420 O   0  0  0  0  0  1  0  0  0  0  0  0
  161.6470  208.4870  149.0440 C   0  0  0  0  0  3  0  0  0  0  0  0
  161.1860  207.9690  151.3610 C   0  0  0  0  0  0  0  0  0  0  0  0
  161.2790  211.6970  150.8410 C   0  0  0  0  0  3  0  0  0  0  0  0
  160.3020  210.3050  155.7560 C   0  0  0  0  0  3  0  0  0  0  0  0
  161.5880  209.8470  149.3170 C   0  0  0  0  0  0  0  0  0  0  0  0
  161.7940  210.7520  148.2720 C   0  0  0  0  0  3  0  0  0  0  0  0
  160.9960  207.0280  152.3240 N   0  0  0  0  0  0  0  0  0  0  0  0
  160.6570  208.6730  154.0020 C   0  0  0  0  0  0  0  0  0  0  0  0
  160.3890  208.9760  155.3410 C   0  0  0  0  0  3  0  0  0  0  0  0
  160.1460  206.0620  147.8690 O   0  0  0  0  0  0  0  0  0  0  0  0
  160.8620  205.4320  148.6920 C   0  0  0  0  0  0  0  0  0  0  0  0
  161.5100  206.1350  149.7660 N   0  0  0  0  0  2  0  0  0  0  0  0
  161.4350  201.2010  148.1760 C   0  0  0  0  0  0  0  0  0  0  0  0
  161.3380  203.4460  147.2950 C   0  0  0  0  0  3  0  0  0  0  0  0
  160.6060  203.5610  151.3100 Cl  0  0  0  0  0  0  0  0  0  0  0  0
  161.6240  199.8400  147.9830 O   0  0  0  0  0  1  0  0  0  0  0  0
  161.5280  202.0780  147.0970 C   0  0  0  0  0  3  0  0  0  0  0  0
  160.9580  203.0620  149.6610 C   0  0  0  0  0  0  0  0  0  0  0  0
  161.0500  203.9650  148.5690 C   0  0  0  0  0  0  0  0  0  0  0  0
  161.1500  201.6930  149.4500 C   0  0  0  0  0  3  0  0  0  0  0  0
  1  9  1  0  0  0  0
  1 14  1  0  0  0  0
  2  3  1  0  0  0  0
  3  7  2  0  0  0  0
  3 19  1  0  0  0  0
  4 11  1  0  0  0  0
  4 15  2  0  0  0  0
  5 14  2  0  0  0  0
  5  2  1  0  0  0  0
  6  1  2  0  0  0  0
  7  4  1  0  0  0  0
  8 13  1  0  0  0  0
 10 19  1  0  0  0  0
 12 16  1  0  0  0  0
 12  8  2  0  0  0  0
 13  2  2  0  0  0  0
 13 18  1  0  0  0  0
 16  5  1  0  0  0  0
 17  6  1  0  0  0  0
 17 16  2  0  0  0  0
 18 10  2  0  0  0  0
 19 20  2  0  0  0  0
 20 15  1  0  0  0  0
 21 22  2  0  0  0  0
 22 23  1  0  0  0  0
 23  8  1  0  0  0  0
 24 31  1  0  0  0  0
 25 30  2  0  0  0  0
 27 24  1  0  0  0  0
 28 25  1  0  0  0  0
 28 24  2  0  0  0  0
 29 26  1  0  0  0  0
 30 22  1  0  0  0  0
 30 29  1  0  0  0  0
 31 29  2  0  0  0  0
M  END
>  <MODEL>
5

>  <REMARK>
 VINA RESULT:      -7.2      2.426      8.200
  Name = 
  2 active torsions:
  status: ('A' for Active; 'I' for Inactive)
    1  A    between atoms: C_5  and  C_30
    2  A    between atoms: C_10  and  N_16
                            x       y       z     vdW  Elec       q    Type
                         _______ _______ _______ _____ _____    ______ ____

>  <TORSDO>
F 2

$$$$
=
 OpenBabel11122413193D

 31 35  0  0  0  0  0  0  0  0999 V2000
  161.8450  210.5000  149.8690 C   0  0  0  0  0  0  0  0  0  0  0  0
  161.3110  206.9520  151.0250 C   0  0  0  0  0  0  0  0  0  0  0  0
  161.1790  206.9970  152.4490 C   0  0  0  0  0  0  0  0  0  0  0  0
  161.1150  208.2010  154.5770 C   0  0  0  0  0  0  0  0  0  0  0  0
  161.5280  208.0960  150.1940 C   0  0  0  0  0  0  0  0  0  0  0  0
  161.9570  210.3150  148.4920 C   0  0  0  0  0  3  0  0  0  0  0  0
  161.2490  208.1930  153.1870 C   0  0  0  0  0  3  0  0  0  0  0  0
  161.3390  205.5390  149.0050 C   0  0  0  0  0  0  0  0  0  0  0  0
  161.9520  211.8650  150.4460 C   0  0  0  0  0  1  0  0  0  0  0  0
  160.8870  204.5880  152.4900 C   0  0  0  0  0  3  0  0  0  0  0  0
  161.1890  209.3990  155.2750 O   0  0  0  0  0  1  0  0  0  0  0  0
  161.5500  206.6690  148.2190 C   0  0  0  0  0  3  0  0  0  0  0  0
  161.2200  205.6730  150.3980 C   0  0  0  0  0  0  0  0  0  0  0  0
  161.6340  209.4030  150.7060 C   0  0  0  0  0  3  0  0  0  0  0  0
  160.9060  207.0060  155.2640 C   0  0  0  0  0  3  0  0  0  0  0  0
  161.6450  207.9310  148.7900 C   0  0  0  0  0  0  0  0  0  0  0  0
  161.8570  209.0320  147.9540 C   0  0  0  0  0  3  0  0  0  0  0  0
  161.0140  204.5550  151.1440 N   0  0  0  0  0  0  0  0  0  0  0  0
  160.9650  205.7950  153.1680 C   0  0  0  0  0  0  0  0  0  0  0  0
  160.8310  205.8040  154.5600 C   0  0  0  0  0  3  0  0  0  0  0  0
  161.2080  204.8300  146.1550 O   0  0  0  0  0  0  0  0  0  0  0  0
  161.1780  203.9100  147.0140 C   0  0  0  0  0  0  0  0  0  0  0  0
  161.2410  204.2310  148.4140 N   0  0  0  0  0  2  0  0  0  0  0  0
  160.9690  199.7460  145.9570 C   0  0  0  0  0  0  0  0  0  0  0  0
  161.6350  201.5180  147.4550 C   0  0  0  0  0  3  0  0  0  0  0  0
  159.7170  203.1460  144.2380 Cl  0  0  0  0  0  0  0  0  0  0  0  0
  160.9150  198.3970  145.6390 O   0  0  0  0  0  1  0  0  0  0  0  0
  161.5820  200.1610  147.1380 C   0  0  0  0  0  3  0  0  0  0  0  0
  160.4560  202.0540  145.4020 C   0  0  0  0  0  0  0  0  0  0  0  0
  161.0790  202.4870  146.6020 C   0  0  0  0  0  0  0  0  0  0  0  0
  160.4100  200.6900  145.0950 C   0  0  0  0  0  3  0  0  0  0  0  0
  1  9  1  0  0  0  0
  1 14  1  0  0  0  0
  2  3  1  0  0  0  0
  3 19  2  0  0  0  0
  3  7  1  0  0  0  0
  4 15  1  0  0  0  0
  4 11  1  0  0  0  0
  5 14  2  0  0  0  0
  5  2  1  0  0  0  0
  6  1  2  0  0  0  0
  7  4  2  0  0  0  0
  8 13  1  0  0  0  0
 10 19  1  0  0  0  0
 12 16  1  0  0  0  0
 12  8  2  0  0  0  0
 13  2  2  0  0  0  0
 13 18  1  0  0  0  0
 16  5  1  0  0  0  0
 17  6  1  0  0  0  0
 17 16  2  0  0  0  0
 18 10  2  0  0  0  0
 19 20  1  0  0  0  0
 20 15  2  0  0  0  0
 21 22  2  0  0  0  0
 22 23  1  0  0  0  0
 23  8  1  0  0  0  0
 24 28  1  0  0  0  0
 26 29  1  0  0  0  0
 27 24  1  0  0  0  0
 28 25  2  0  0  0  0
 29 30  2  0  0  0  0
 30 22  1  0  0  0  0
 30 25  1  0  0  0  0
 31 29  1  0  0  0  0
 31 24  2  0  0  0  0
M  END
>  <MODEL>
6

>  <REMARK>
 VINA RESULT:      -7.0      3.000      8.315
  Name = 
  2 active torsions:
  status: ('A' for Active; 'I' for Inactive)
    1  A    between atoms: C_5  and  C_30
    2  A    between atoms: C_10  and  N_16
                            x       y       z     vdW  Elec       q    Type
                         _______ _______ _______ _____ _____    ______ ____

>  <TORSDO>
F 2

$$$$
=
 OpenBabel11122413193D

 31 35  0  0  0  0  0  0  0  0999 V2000
  160.9650  210.1430  154.4510 C   0  0  0  0  0  0  0  0  0  0  0  0
  161.3500  209.1020  150.8490 C   0  0  0  0  0  0  0  0  0  0  0  0
  161.4300  210.3040  150.0780 C   0  0  0  0  0  0  0  0  0  0  0  0
  161.4500  212.7400  149.8680 C   0  0  0  0  0  0  0  0  0  0  0  0
  161.1990  209.0590  152.2710 C   0  0  0  0  0  0  0  0  0  0  0  0
  160.9000  208.9010  155.0800 C   0  0  0  0  0  3  0  0  0  0  0  0
  161.3680  211.5870  150.6520 C   0  0  0  0  0  3  0  0  0  0  0  0
  161.3560  206.6370  150.8230 C   0  0  0  0  0  0  0  0  0  0  0  0
  160.8780  211.3890  155.2570 C   0  0  0  0  0  1  0  0  0  0  0  0
  161.6490  208.9820  148.0540 C   0  0  0  0  0  3  0  0  0  0  0  0
  161.3850  213.9920  150.4660 O   0  0  0  0  0  1  0  0  0  0  0  0
  161.2080  206.6230  152.2080 C   0  0  0  0  0  3  0  0  0  0  0  0
  161.4270  207.8630  150.1440 C   0  0  0  0  0  0  0  0  0  0  0  0
  161.1120  210.2180  153.0650 C   0  0  0  0  0  3  0  0  0  0  0  0
  161.5980  212.6350  148.4860 C   0  0  0  0  0  3  0  0  0  0  0  0
  161.1300  207.8050  152.9320 C   0  0  0  0  0  0  0  0  0  0  0  0
  160.9820  207.7340  154.3200 C   0  0  0  0  0  3  0  0  0  0  0  0
  161.5710  207.8500  148.7910 N   0  0  0  0  0  0  0  0  0  0  0  0
  161.5810  210.2210  148.6710 C   0  0  0  0  0  0  0  0  0  0  0  0
  161.6630  211.3770  147.8880 C   0  0  0  0  0  3  0  0  0  0  0  0
  160.0810  204.0520  151.4060 O   0  0  0  0  0  0  0  0  0  0  0  0
  160.8030  204.1590  150.3800 C   0  0  0  0  0  0  0  0  0  0  0  0
  161.4370  205.4120  150.0740 N   0  0  0  0  0  2  0  0  0  0  0  0
  161.3960  200.7060  147.8840 C   0  0  0  0  0  0  0  0  0  0  0  0
  161.0150  201.7160  150.0440 C   0  0  0  0  0  3  0  0  0  0  0  0
  161.2270  204.6570  147.2190 Cl  0  0  0  0  0  0  0  0  0  0  0  0
  161.5850  199.5760  147.1010 O   0  0  0  0  0  1  0  0  0  0  0  0
  161.2050  200.5780  149.2590 C   0  0  0  0  0  3  0  0  0  0  0  0
  161.2060  203.1200  148.0730 C   0  0  0  0  0  0  0  0  0  0  0  0
  161.0120  203.0010  149.4740 C   0  0  0  0  0  0  0  0  0  0  0  0
  161.3960  201.9710  147.2970 C   0  0  0  0  0  3  0  0  0  0  0  0
  1  6  1  0  0  0  0
  1  9  1  0  0  0  0
  2  5  1  0  0  0  0
  3  7  2  0  0  0  0
  3  2  1  0  0  0  0
  4 11  1  0  0  0  0
  4  7  1  0  0  0  0
  5 16  2  0  0  0  0
  5 14  1  0  0  0  0
  8 12  2  0  0  0  0
 10 19  1  0  0  0  0
 10 18  2  0  0  0  0
 12 16  1  0  0  0  0
 13  8  1  0  0  0  0
 13  2  2  0  0  0  0
 14  1  2  0  0  0  0
 15  4  2  0  0  0  0
 16 17  1  0  0  0  0
 17  6  2  0  0  0  0
 18 13  1  0  0  0  0
 19  3  1  0  0  0  0
 20 15  1  0  0  0  0
 20 19  2  0  0  0  0
 22 21  2  0  0  0  0
 23 22  1  0  0  0  0
 23  8  1  0  0  0  0
 24 28  1  0  0  0  0
 26 29  1  0  0  0  0
 27 24  1  0  0  0  0
 28 25  2  0  0  0  0
 29 30  2  0  0  0  0
 30 25  1  0  0  0  0
 30 22  1  0  0  0  0
 31 24  2  0  0  0  0
 31 29  1  0  0  0  0
M  END
>  <MODEL>
7

>  <REMARK>
 VINA RESULT:      -7.0      2.803      8.932
  Name = 
  2 active torsions:
  status: ('A' for Active; 'I' for Inactive)
    1  A    between atoms: C_5  and  C_30
    2  A    between atoms: C_10  and  N_16
                            x       y       z     vdW  Elec       q    Type
                         _______ _______ _______ _____ _____    ______ ____

>  <TORSDO>
F 2

$$$$
