=
 OpenBabel11122412303D

 30 35  0  0  1  0  0  0  0  0999 V2000
  161.3340  205.9280  150.0930 C   0  0  0  0  0  0  0  0  0  0  0  0
  161.0280  203.4330  149.9650 C   0  0  0  0  0  0  0  0  0  0  0  0
  161.0860  205.8270  154.2860 N   0  0  0  0  0  0  0  0  0  0  0  0
  161.4220  207.1080  150.8960 C   0  0  0  0  0  0  0  0  0  0  0  0
  161.4490  206.0600  148.7030 C   0  0  0  0  0  3  0  0  0  0  0  0
  161.8540  209.6960  148.2610 O   0  0  0  0  0  1  0  0  0  0  0  0
  160.3820  209.8510  151.9680 C   0  0  1  0  0  3  0  0  0  0  0  0
  161.6910  208.4580  148.8780 C   0  0  0  0  0  0  0  0  0  0  0  0
  160.3710  209.0460  153.2750 C   0  0  2  0  0  3  0  0  0  0  0  0
  161.2560  207.0760  154.5800 C   0  0  0  0  0  0  0  0  0  0  0  0
  161.6350  207.2980  148.0970 C   0  0  0  0  0  0  0  0  0  0  0  0
  161.5800  208.3780  150.2770 C   0  0  0  0  0  0  0  0  0  0  0  0
  160.8310  202.2170  150.6270 C   0  0  0  0  0  3  0  0  0  0  0  0
  160.4810  209.9990  154.3720 N   0  0  0  0  0  2  0  0  0  0  0  0
  160.2330  211.2960  152.3800 C   0  0  0  0  0  2  0  0  0  0  0  0
  161.1150  203.4010  148.5780 O   0  0  0  0  0  1  0  0  0  0  0  0
  161.1300  205.7360  152.8720 C   0  0  0  0  0  0  0  0  0  0  0  0
  160.7330  202.1690  152.0160 C   0  0  0  0  0  3  0  0  0  0  0  0
  161.1320  204.6460  150.7020 C   0  0  0  0  0  0  0  0  0  0  0  0
  161.3260  206.9580  152.2900 C   0  0  0  0  0  0  0  0  0  0  0  0
  161.3360  207.5410  155.9930 C   0  0  0  0  0  1  0  0  0  0  0  0
  161.4590  207.9710  153.3810 C   0  0  1  0  0  3  0  0  0  0  0  0
  159.9380  211.2470  153.8600 C   0  0  0  0  0  2  0  0  0  0  0  0
  162.9530  209.9520  151.6960 C   0  0  0  0  0  1  0  0  0  0  0  0
  160.8310  203.3400  152.7600 C   0  0  0  0  0  3  0  0  0  0  0  0
  161.0270  204.5680  152.1210 C   0  0  0  0  0  0  0  0  0  0  0  0
  161.6020  209.6720  151.0480 C   0  0  2  0  0  3  0  0  0  0  0  0
  161.7340  207.3680  146.6070 C   0  0  0  0  0  2  0  0  0  0  0  0
  160.1370  206.2030  145.2610 O   0  0  0  0  0  1  0  0  0  0  0  0
  161.3290  206.0480  145.9710 C   0  0  0  0  0  2  0  0  0  0  0  0
  1 19  2  0  0  0  0
  1  4  1  0  0  0  0
  2 13  2  0  0  0  0
  2 19  1  0  0  0  0
  3 10  2  0  0  0  0
  4 20  2  0  0  0  0
  5  1  1  0  0  0  0
  6  8  1  0  0  0  0
  7 15  1  1  0  0  0
  7  9  1  0  0  0  0
  8 12  2  0  0  0  0
  9 22  1  0  0  0  0
  9 14  1  1  0  0  0
 10 21  1  0  0  0  0
 11  5  2  0  0  0  0
 11  8  1  0  0  0  0
 12  4  1  0  0  0  0
 12 27  1  0  0  0  0
 13 18  1  0  0  0  0
 15 23  1  0  0  0  0
 16  2  1  0  0  0  0
 17  3  1  0  0  0  0
 18 25  2  0  0  0  0
 19 26  1  0  0  0  0
 20 17  1  0  0  0  0
 22 20  1  6  0  0  0
 22 10  1  0  0  0  0
 23 14  1  0  0  0  0
 26 25  1  0  0  0  0
 26 17  2  0  0  0  0
 27 24  1  1  0  0  0
 27  7  1  0  0  0  0
 28 11  1  0  0  0  0
 29 30  1  0  0  0  0
 30 28  1  0  0  0  0
M  END
>  <MODEL>
1

>  <REMARK>
 VINA RESULT:      -8.0      0.000      0.000
  Name = 
  2 active torsions:
  status: ('A' for Active; 'I' for Inactive)
    1  A    between atoms: C_11  and  C_28
    2  A    between atoms: C_28  and  C_30
                            x       y       z     vdW  Elec       q    Type
                         _______ _______ _______ _____ _____    ______ ____

>  <TORSDO>
F 2

$$$$
=
 OpenBabel11122412303D

 30 35  0  0  1  0  0  0  0  0999 V2000
  161.4670  207.8710  151.5060 C   0  0  0  0  0  0  0  0  0  0  0  0
  161.5940  210.3300  150.9810 C   0  0  0  0  0  0  0  0  0  0  0  0
  162.3180  206.8880  147.5100 N   0  0  0  0  0  0  0  0  0  0  0  0
  161.5420  206.5190  151.0460 C   0  0  0  0  0  0  0  0  0  0  0  0
  161.1990  208.0990  152.8610 C   0  0  0  0  0  3  0  0  0  0  0  0
  160.8140  204.6870  154.2000 O   0  0  0  0  0  1  0  0  0  0  0  0
  160.3310  203.7240  150.3560 C   0  0  1  0  0  3  0  0  0  0  0  0
  161.0400  205.7280  153.3030 C   0  0  0  0  0  0  0  0  0  0  0  0
  160.8000  204.1510  148.9580 C   0  0  2  0  0  3  0  0  0  0  0  0
  162.3290  205.5950  147.5640 C   0  0  0  0  0  0  0  0  0  0  0  0
  160.9970  207.0510  153.7550 C   0  0  0  0  0  0  0  0  0  0  0  0
  161.3050  205.4480  151.9510 C   0  0  0  0  0  0  0  0  0  0  0  0
  161.7950  211.3410  150.0370 C   0  0  0  0  0  3  0  0  0  0  0  0
  161.0120  202.9360  148.1810 N   0  0  0  0  0  2  0  0  0  0  0  0
  160.0340  202.2470  150.2500 C   0  0  0  0  0  2  0  0  0  0  0  0
  161.3290  210.7170  152.2900 O   0  0  0  0  0  1  0  0  0  0  0  0
  162.0160  207.3450  148.8180 C   0  0  0  0  0  0  0  0  0  0  0  0
  162.0640  211.0320  148.7050 C   0  0  0  0  0  3  0  0  0  0  0  0
  161.6620  208.9610  150.5940 C   0  0  0  0  0  0  0  0  0  0  0  0
  161.8330  206.3060  149.6880 C   0  0  0  0  0  0  0  0  0  0  0  0
  162.6810  204.7690  146.3770 C   0  0  0  0  0  1  0  0  0  0  0  0
  162.0540  205.0320  148.9380 C   0  0  1  0  0  3  0  0  0  0  0  0
  160.1400  201.9360  148.7770 C   0  0  0  0  0  2  0  0  0  0  0  0
  162.6870  203.4120  151.3820 C   0  0  0  0  0  1  0  0  0  0  0  0
  162.1360  209.7030  148.3020 C   0  0  0  0  0  3  0  0  0  0  0  0
  161.9370  208.6730  149.2270 C   0  0  0  0  0  0  0  0  0  0  0  0
  161.2890  204.0020  151.5280 C   0  0  2  0  0  3  0  0  0  0  0  0
  160.6990  207.3670  155.1860 C   0  0  0  0  0  2  0  0  0  0  0  0
  162.0950  208.5720  156.7080 O   0  0  0  0  0  1  0  0  0  0  0  0
  161.2840  208.7140  155.5800 C   0  0  0  0  0  2  0  0  0  0  0  0
  1  5  2  0  0  0  0
  2 16  1  0  0  0  0
  3 10  2  0  0  0  0
  3 17  1  0  0  0  0
  4  1  1  0  0  0  0
  4 12  2  0  0  0  0
  5 11  1  0  0  0  0
  7 15  1  6  0  0  0
  7 27  1  0  0  0  0
  8 11  2  0  0  0  0
  8  6  1  0  0  0  0
  9 14  1  6  0  0  0
  9  7  1  0  0  0  0
 11 28  1  0  0  0  0
 12  8  1  0  0  0  0
 13  2  2  0  0  0  0
 14 23  1  0  0  0  0
 17 26  1  0  0  0  0
 17 20  2  0  0  0  0
 18 13  1  0  0  0  0
 19  2  1  0  0  0  0
 19  1  1  0  0  0  0
 20  4  1  0  0  0  0
 21 10  1  0  0  0  0
 22 10  1  6  0  0  0
 22  9  1  0  0  0  0
 22 20  1  0  0  0  0
 23 15  1  0  0  0  0
 25 18  2  0  0  0  0
 25 26  1  0  0  0  0
 26 19  2  0  0  0  0
 27 24  1  6  0  0  0
 27 12  1  0  0  0  0
 28 30  1  0  0  0  0
 30 29  1  0  0  0  0
M  END
>  <MODEL>
2

>  <REMARK>
 VINA RESULT:      -7.4      3.031      7.255
  Name = 
  2 active torsions:
  status: ('A' for Active; 'I' for Inactive)
    1  A    between atoms: C_11  and  C_28
    2  A    between atoms: C_28  and  C_30
                            x       y       z     vdW  Elec       q    Type
                         _______ _______ _______ _____ _____    ______ ____

>  <TORSDO>
F 2

$$$$
=
 OpenBabel11122412303D

 30 35  0  0  1  0  0  0  0  0999 V2000
  161.2240  209.1370  151.6340 C   0  0  0  0  0  0  0  0  0  0  0  0
  161.1660  211.5350  150.8700 C   0  0  0  0  0  0  0  0  0  0  0  0
  162.2430  207.8430  147.7690 N   0  0  0  0  0  0  0  0  0  0  0  0
  161.4180  207.7580  151.3120 C   0  0  0  0  0  0  0  0  0  0  0  0
  160.9070  209.4730  152.9560 C   0  0  0  0  0  3  0  0  0  0  0  0
  160.7670  206.1870  154.6190 O   0  0  0  0  0  1  0  0  0  0  0  0
  160.4520  204.8180  150.8830 C   0  0  1  0  0  3  0  0  0  0  0  0
  160.9290  207.1510  153.6270 C   0  0  0  0  0  0  0  0  0  0  0  0
  160.9170  205.1440  149.4570 C   0  0  2  0  0  3  0  0  0  0  0  0
  162.3570  206.5670  147.9500 C   0  0  0  0  0  0  0  0  0  0  0  0
  160.7690  208.5040  153.9460 C   0  0  0  0  0  0  0  0  0  0  0  0
  161.2470  206.7640  152.3150 C   0  0  0  0  0  0  0  0  0  0  0  0
  161.3070  212.4630  149.8340 C   0  0  0  0  0  3  0  0  0  0  0  0
  161.2440  203.8810  148.8070 N   0  0  0  0  0  2  0  0  0  0  0  0
  160.2770  203.3190  150.9200 C   0  0  0  0  0  2  0  0  0  0  0  0
  160.8400  212.0240  152.1300 O   0  0  0  0  0  1  0  0  0  0  0  0
  161.8750  208.3980  149.0200 C   0  0  0  0  0  0  0  0  0  0  0  0
  161.6300  212.0480  148.5440 C   0  0  0  0  0  3  0  0  0  0  0  0
  161.3520  210.1460  150.6220 C   0  0  0  0  0  0  0  0  0  0  0  0
  161.7560  207.4370  149.9860 C   0  0  0  0  0  0  0  0  0  0  0  0
  162.8010  205.6600  146.8560 C   0  0  0  0  0  1  0  0  0  0  0  0
  162.0960  206.1190  149.3690 C   0  0  1  0  0  3  0  0  0  0  0  0
  160.4410  202.8750  149.4860 C   0  0  0  0  0  2  0  0  0  0  0  0
  162.8000  204.8030  151.9700 C   0  0  0  0  0  1  0  0  0  0  0  0
  161.8180  210.6970  148.2750 C   0  0  0  0  0  3  0  0  0  0  0  0
  161.6810  209.7490  149.2940 C   0  0  0  0  0  0  0  0  0  0  0  0
  161.3560  205.2870  152.0360 C   0  0  2  0  0  3  0  0  0  0  0  0
  160.4140  208.9320  155.3340 C   0  0  0  0  0  2  0  0  0  0  0  0
  162.1640  208.4090  156.8780 O   0  0  0  0  0  1  0  0  0  0  0  0
  161.6410  209.4300  156.0820 C   0  0  0  0  0  2  0  0  0  0  0  0
  1  5  2  0  0  0  0
  2 16  1  0  0  0  0
  3 10  2  0  0  0  0
  3 17  1  0  0  0  0
  4  1  1  0  0  0  0
  4 12  2  0  0  0  0
  5 11  1  0  0  0  0
  7 15  1  6  0  0  0
  7 27  1  0  0  0  0
  8 11  2  0  0  0  0
  8  6  1  0  0  0  0
  9 14  1  1  0  0  0
  9  7  1  0  0  0  0
 11 28  1  0  0  0  0
 12  8  1  0  0  0  0
 13  2  2  0  0  0  0
 14 23  1  0  0  0  0
 17 26  1  0  0  0  0
 17 20  2  0  0  0  0
 18 13  1  0  0  0  0
 19  2  1  0  0  0  0
 19  1  1  0  0  0  0
 20  4  1  0  0  0  0
 21 10  1  0  0  0  0
 22 10  1  6  0  0  0
 22  9  1  0  0  0  0
 22 20  1  0  0  0  0
 23 15  1  0  0  0  0
 25 18  2  0  0  0  0
 25 26  1  0  0  0  0
 26 19  2  0  0  0  0
 27 24  1  6  0  0  0
 27 12  1  0  0  0  0
 28 30  1  0  0  0  0
 30 29  1  0  0  0  0
M  END
>  <MODEL>
3

>  <REMARK>
 VINA RESULT:      -7.0      3.056      7.240
  Name = 
  2 active torsions:
  status: ('A' for Active; 'I' for Inactive)
    1  A    between atoms: C_11  and  C_28
    2  A    between atoms: C_28  and  C_30
                            x       y       z     vdW  Elec       q    Type
                         _______ _______ _______ _____ _____    ______ ____

>  <TORSDO>
F 2

$$$$
=
 OpenBabel11122412303D

 30 35  0  0  1  0  0  0  0  0999 V2000
  161.4700  207.4890  150.9110 C   0  0  0  0  0  0  0  0  0  0  0  0
  161.3870  205.1980  149.8700 C   0  0  0  0  0  0  0  0  0  0  0  0
  160.6040  205.8890  154.6990 N   0  0  0  0  0  0  0  0  0  0  0  0
  161.3410  208.3040  152.0780 C   0  0  0  0  0  0  0  0  0  0  0  0
  161.7820  208.1110  149.6960 C   0  0  0  0  0  3  0  0  0  0  0  0
  161.9560  211.6720  150.6270 O   0  0  0  0  0  1  0  0  0  0  0  0
  159.9350  210.4600  153.8480 C   0  0  1  0  0  3  0  0  0  0  0  0
  161.8020  210.2920  150.7350 C   0  0  0  0  0  0  0  0  0  0  0  0
  159.7930  209.2400  154.7700 C   0  0  2  0  0  3  0  0  0  0  0  0
  160.6270  206.9530  155.4340 C   0  0  0  0  0  0  0  0  0  0  0  0
  161.9560  209.4880  149.6010 C   0  0  0  0  0  0  0  0  0  0  0  0
  161.4880  209.7150  151.9780 C   0  0  0  0  0  0  0  0  0  0  0  0
  161.1910  203.8220  150.0220 C   0  0  0  0  0  3  0  0  0  0  0  0
  159.6600  209.7400  156.1330 N   0  0  0  0  0  2  0  0  0  0  0  0
  159.6110  211.6580  154.7080 C   0  0  0  0  0  2  0  0  0  0  0  0
  161.6840  205.6660  148.5950 O   0  0  0  0  0  1  0  0  0  0  0  0
  160.8660  206.3100  153.3710 C   0  0  0  0  0  0  0  0  0  0  0  0
  160.8890  203.2780  151.2690 C   0  0  0  0  0  3  0  0  0  0  0  0
  161.2810  206.0690  150.9910 C   0  0  0  0  0  0  0  0  0  0  0  0
  161.0490  207.6630  153.2940 C   0  0  0  0  0  0  0  0  0  0  0  0
  160.4560  206.8830  156.9120 C   0  0  0  0  0  1  0  0  0  0  0  0
  160.9350  208.2220  154.6760 C   0  0  1  0  0  3  0  0  0  0  0  0
  159.1020  211.0770  156.0050 C   0  0  0  0  0  2  0  0  0  0  0  0
  162.5020  210.7060  154.0680 C   0  0  0  0  0  1  0  0  0  0  0  0
  160.7810  204.1070  152.3800 C   0  0  0  0  0  3  0  0  0  0  0  0
  160.9710  205.4870  152.2540 C   0  0  0  0  0  0  0  0  0  0  0  0
  161.2900  210.6480  153.1440 C   0  0  2  0  0  3  0  0  0  0  0  0
  162.2730  210.0880  148.2690 C   0  0  0  0  0  2  0  0  0  0  0  0
  161.8890  212.2760  147.3820 O   0  0  0  0  0  1  0  0  0  0  0  0
  161.2470  211.1450  147.8900 C   0  0  0  0  0  2  0  0  0  0  0  0
  1 19  2  0  0  0  0
  1  4  1  0  0  0  0
  2 13  2  0  0  0  0
  2 19  1  0  0  0  0
  3 10  2  0  0  0  0
  4 20  2  0  0  0  0
  5  1  1  0  0  0  0
  6  8  1  0  0  0  0
  7 15  1  1  0  0  0
  7  9  1  0  0  0  0
  8 12  2  0  0  0  0
  9 14  1  1  0  0  0
 10 21  1  0  0  0  0
 11  5  2  0  0  0  0
 11  8  1  0  0  0  0
 12  4  1  0  0  0  0
 12 27  1  0  0  0  0
 13 18  1  0  0  0  0
 15 23  1  0  0  0  0
 16  2  1  0  0  0  0
 17  3  1  0  0  0  0
 18 25  2  0  0  0  0
 19 26  1  0  0  0  0
 20 17  1  0  0  0  0
 22 20  1  6  0  0  0
 22  9  1  0  0  0  0
 22 10  1  0  0  0  0
 23 14  1  0  0  0  0
 26 25  1  0  0  0  0
 26 17  2  0  0  0  0
 27  7  1  0  0  0  0
 27 24  1  1  0  0  0
 28 11  1  0  0  0  0
 29 30  1  0  0  0  0
 30 28  1  0  0  0  0
M  END
>  <MODEL>
4

>  <REMARK>
 VINA RESULT:      -6.7      1.671      2.469
  Name = 
  2 active torsions:
  status: ('A' for Active; 'I' for Inactive)
    1  A    between atoms: C_11  and  C_28
    2  A    between atoms: C_28  and  C_30
                            x       y       z     vdW  Elec       q    Type
                         _______ _______ _______ _____ _____    ______ ____

>  <TORSDO>
F 2

$$$$
=
 OpenBabel11122412303D

 30 35  0  0  1  0  0  0  0  0999 V2000
  161.4420  208.1400  151.2040 C   0  0  0  0  0  0  0  0  0  0  0  0
  161.3960  208.3050  153.7160 C   0  0  0  0  0  0  0  0  0  0  0  0
  160.6920  204.0100  151.3780 N   0  0  0  0  0  0  0  0  0  0  0  0
  161.3460  207.3270  150.0320 C   0  0  0  0  0  0  0  0  0  0  0  0
  161.6740  209.5120  151.0440 C   0  0  0  0  0  3  0  0  0  0  0  0
  161.9260  209.8740  147.3850 O   0  0  0  0  0  1  0  0  0  0  0  0
  162.5040  205.9270  147.4920 C   0  0  1  0  0  3  0  0  0  0  0  0
  161.7560  209.2920  148.6390 C   0  0  0  0  0  0  0  0  0  0  0  0
  162.0910  204.6880  148.3000 C   0  0  2  0  0  3  0  0  0  0  0  0
  160.6450  203.7080  150.1210 C   0  0  0  0  0  0  0  0  0  0  0  0
  161.8200  210.0890  149.7870 C   0  0  0  0  0  0  0  0  0  0  0  0
  161.5260  207.9100  148.7470 C   0  0  0  0  0  0  0  0  0  0  0  0
  161.2520  207.6700  154.9530 C   0  0  0  0  0  3  0  0  0  0  0  0
  161.8720  203.6040  147.3510 N   0  0  0  0  0  2  0  0  0  0  0  0
  162.7650  205.4270  146.0910 C   0  0  0  0  0  2  0  0  0  0  0  0
  161.6300  209.6760  153.7220 O   0  0  0  0  0  1  0  0  0  0  0  0
  160.9650  205.3990  151.4500 C   0  0  0  0  0  0  0  0  0  0  0  0
  161.0170  206.2990  155.0270 C   0  0  0  0  0  3  0  0  0  0  0  0
  161.3050  207.5580  152.5080 C   0  0  0  0  0  0  0  0  0  0  0  0
  161.0930  205.9560  150.2070 C   0  0  0  0  0  0  0  0  0  0  0  0
  160.3090  202.3320  149.6610 C   0  0  0  0  0  1  0  0  0  0  0  0
  160.8620  204.8810  149.1950 C   0  0  1  0  0  3  0  0  0  0  0  0
  162.6980  203.9230  146.1970 C   0  0  0  0  0  2  0  0  0  0  0  0
  160.1100  206.7730  146.9920 C   0  0  0  0  0  1  0  0  0  0  0  0
  160.9230  205.5460  153.8620 C   0  0  0  0  0  3  0  0  0  0  0  0
  161.0650  206.1570  152.6130 C   0  0  0  0  0  0  0  0  0  0  0  0
  161.5180  207.1070  147.4720 C   0  0  2  0  0  3  0  0  0  0  0  0
  162.0810  211.5590  149.6890 C   0  0  0  0  0  2  0  0  0  0  0  0
  160.6240  212.8180  148.2710 O   0  0  0  0  0  1  0  0  0  0  0  0
  160.7790  212.3370  149.5720 C   0  0  0  0  0  2  0  0  0  0  0  0
  1 19  1  0  0  0  0
  2 16  1  0  0  0  0
  2 13  1  0  0  0  0
  3 17  1  0  0  0  0
  4 20  1  0  0  0  0
  4  1  2  0  0  0  0
  5  1  1  0  0  0  0
  6  8  1  0  0  0  0
  7 15  1  6  0  0  0
  7  9  1  0  0  0  0
  8 12  2  0  0  0  0
  8 11  1  0  0  0  0
  9 14  1  6  0  0  0
  9 22  1  0  0  0  0
 10  3  2  0  0  0  0
 11  5  2  0  0  0  0
 12  4  1  0  0  0  0
 13 18  2  0  0  0  0
 15 23  1  0  0  0  0
 17 26  1  0  0  0  0
 19 26  1  0  0  0  0
 19  2  2  0  0  0  0
 20 17  2  0  0  0  0
 21 10  1  0  0  0  0
 22 10  1  1  0  0  0
 22 20  1  0  0  0  0
 23 14  1  0  0  0  0
 25 18  1  0  0  0  0
 26 25  2  0  0  0  0
 27 24  1  1  0  0  0
 27  7  1  0  0  0  0
 27 12  1  0  0  0  0
 28 11  1  0  0  0  0
 29 30  1  0  0  0  0
 30 28  1  0  0  0  0
M  END
>  <MODEL>
5

>  <REMARK>
 VINA RESULT:      -6.4      2.403      5.649
  Name = 
  2 active torsions:
  status: ('A' for Active; 'I' for Inactive)
    1  A    between atoms: C_11  and  C_28
    2  A    between atoms: C_28  and  C_30
                            x       y       z     vdW  Elec       q    Type
                         _______ _______ _______ _____ _____    ______ ____

>  <TORSDO>
F 2

$$$$
=
 OpenBabel11122412303D

 30 35  0  0  1  0  0  0  0  0999 V2000
  161.1820  208.8800  151.9530 C   0  0  0  0  0  0  0  0  0  0  0  0
  162.0930  208.8760  149.6050 C   0  0  0  0  0  0  0  0  0  0  0  0
  160.1190  212.9310  151.6230 N   0  0  0  0  0  0  0  0  0  0  0  0
  160.5720  209.6030  153.0240 C   0  0  0  0  0  0  0  0  0  0  0  0
  161.4810  207.5260  152.1490 C   0  0  0  0  0  3  0  0  0  0  0  0
  160.3900  206.9480  155.6220 O   0  0  0  0  0  1  0  0  0  0  0  0
  160.5450  210.9300  155.8510 C   0  0  1  0  0  3  0  0  0  0  0  0
  160.6380  207.5940  154.4130 C   0  0  0  0  0  0  0  0  0  0  0  0
  160.3350  212.1770  154.9820 C   0  0  2  0  0  3  0  0  0  0  0  0
  159.5760  213.1450  152.7780 C   0  0  0  0  0  0  0  0  0  0  0  0
  161.2090  206.8820  153.3520 C   0  0  0  0  0  0  0  0  0  0  0  0
  160.3210  208.9550  154.2650 C   0  0  0  0  0  0  0  0  0  0  0  0
  162.3520  209.5760  148.4230 C   0  0  0  0  0  3  0  0  0  0  0  0
  159.6640  213.1740  155.8080 N   0  0  0  0  0  2  0  0  0  0  0  0
  160.2120  211.3570  157.2610 C   0  0  0  0  0  2  0  0  0  0  0  0
  162.4550  207.5350  149.6490 O   0  0  0  0  0  1  0  0  0  0  0  0
  160.5440  211.5790  151.6210 C   0  0  0  0  0  0  0  0  0  0  0  0
  162.0190  210.9240  148.3040 C   0  0  0  0  0  3  0  0  0  0  0  0
  161.4800  209.5320  150.7100 C   0  0  0  0  0  0  0  0  0  0  0  0
  160.2580  210.9550  152.8040 C   0  0  0  0  0  0  0  0  0  0  0  0
  158.9490  214.4530  153.1150 C   0  0  0  0  0  1  0  0  0  0  0  0
  159.5540  211.9370  153.6850 C   0  0  1  0  0  3  0  0  0  0  0  0
  160.0300  212.8530  157.1790 C   0  0  0  0  0  2  0  0  0  0  0  0
  158.2410  209.8460  155.3870 C   0  0  0  0  0  1  0  0  0  0  0  0
  161.4190  211.5880  149.3680 C   0  0  0  0  0  3  0  0  0  0  0  0
  161.1500  210.9100  150.5620 C   0  0  0  0  0  0  0  0  0  0  0  0
  159.7540  209.6680  155.4650 C   0  0  2  0  0  3  0  0  0  0  0  0
  161.5690  205.4380  153.5000 C   0  0  0  0  0  2  0  0  0  0  0  0
  160.8780  203.4560  152.3540 O   0  0  0  0  0  1  0  0  0  0  0  0
  161.4610  204.7110  152.1690 C   0  0  0  0  0  2  0  0  0  0  0  0
  1  5  2  0  0  0  0
  1  4  1  0  0  0  0
  2 16  1  0  0  0  0
  2 19  1  0  0  0  0
  3 10  2  0  0  0  0
  4 12  2  0  0  0  0
  5 11  1  0  0  0  0
  7 15  1  1  0  0  0
  8  6  1  0  0  0  0
  9 14  1  1  0  0  0
  9  7  1  0  0  0  0
 10 21  1  0  0  0  0
 11 28  1  0  0  0  0
 11  8  2  0  0  0  0
 12  8  1  0  0  0  0
 12 27  1  0  0  0  0
 13  2  2  0  0  0  0
 14 23  1  0  0  0  0
 17  3  1  0  0  0  0
 17 20  2  0  0  0  0
 18 13  1  0  0  0  0
 18 25  2  0  0  0  0
 19  1  1  0  0  0  0
 20  4  1  0  0  0  0
 20 22  1  0  0  0  0
 22 10  1  6  0  0  0
 22  9  1  0  0  0  0
 23 15  1  0  0  0  0
 25 26  1  0  0  0  0
 26 19  2  0  0  0  0
 26 17  1  0  0  0  0
 27 24  1  6  0  0  0
 27  7  1  0  0  0  0
 30 29  1  0  0  0  0
 30 28  1  0  0  0  0
M  END
>  <MODEL>
6

>  <REMARK>
 VINA RESULT:      -5.6      2.647      5.929
  Name = 
  2 active torsions:
  status: ('A' for Active; 'I' for Inactive)
    1  A    between atoms: C_11  and  C_28
    2  A    between atoms: C_28  and  C_30
                            x       y       z     vdW  Elec       q    Type
                         _______ _______ _______ _____ _____    ______ ____

>  <TORSDO>
F 2

$$$$
=
 OpenBabel11122412303D

 30 35  0  0  1  0  0  0  0  0999 V2000
  160.8010  210.5170  151.5540 C   0  0  0  0  0  0  0  0  0  0  0  0
  161.8660  208.6400  150.2570 C   0  0  0  0  0  0  0  0  0  0  0  0
  160.5420  208.1100  154.9880 N   0  0  0  0  0  0  0  0  0  0  0  0
  160.2310  210.9850  152.7780 C   0  0  0  0  0  0  0  0  0  0  0  0
  160.8630  211.4000  150.4690 C   0  0  0  0  0  3  0  0  0  0  0  0
  159.2920  214.4510  151.8120 O   0  0  0  0  0  1  0  0  0  0  0  0
  157.8700  211.9520  154.5810 C   0  0  1  0  0  3  0  0  0  0  0  0
  159.7940  213.1540  151.7420 C   0  0  0  0  0  0  0  0  0  0  0  0
  158.2560  210.6700  155.3310 C   0  0  2  0  0  3  0  0  0  0  0  0
  160.0170  208.9350  155.8360 C   0  0  0  0  0  0  0  0  0  0  0  0
  160.3790  212.7020  150.5550 C   0  0  0  0  0  0  0  0  0  0  0  0
  159.7080  212.3050  152.8590 C   0  0  0  0  0  0  0  0  0  0  0  0
  162.3260  207.3200  150.2260 C   0  0  0  0  0  3  0  0  0  0  0  0
  157.8180  210.8270  156.7130 N   0  0  0  0  0  2  0  0  0  0  0  0
  156.9690  212.7170  155.5200 C   0  0  0  0  0  2  0  0  0  0  0  0
  161.9900  209.3910  149.0940 O   0  0  0  0  0  1  0  0  0  0  0  0
  160.6620  208.8130  153.7630 C   0  0  0  0  0  0  0  0  0  0  0  0
  162.2340  206.5050  151.3520 C   0  0  0  0  0  3  0  0  0  0  0  0
  161.2930  209.1740  151.4460 C   0  0  0  0  0  0  0  0  0  0  0  0
  160.1950  210.0950  153.8650 C   0  0  0  0  0  0  0  0  0  0  0  0
  159.8040  208.5570  157.2610 C   0  0  0  0  0  1  0  0  0  0  0  0
  159.7440  210.3100  155.2740 C   0  0  1  0  0  3  0  0  0  0  0  0
  156.7090  211.7670  156.6650 C   0  0  0  0  0  2  0  0  0  0  0  0
  160.0040  213.2950  155.1630 C   0  0  0  0  0  1  0  0  0  0  0  0
  161.6800  207.0030  152.5260 C   0  0  0  0  0  3  0  0  0  0  0  0
  161.2110  208.3190  152.5830 C   0  0  0  0  0  0  0  0  0  0  0  0
  159.0220  212.8450  154.0870 C   0  0  2  0  0  3  0  0  0  0  0  0
  160.4630  213.5880  149.3520 C   0  0  0  0  0  2  0  0  0  0  0  0
  160.7370  212.4340  147.2760 O   0  0  0  0  0  1  0  0  0  0  0  0
  161.4370  213.0260  148.3290 C   0  0  0  0  0  2  0  0  0  0  0  0
  1  4  1  0  0  0  0
  2 19  1  0  0  0  0
  3 10  2  0  0  0  0
  4 12  1  0  0  0  0
  4 20  2  0  0  0  0
  5 11  2  0  0  0  0
  5  1  1  0  0  0  0
  7  9  1  0  0  0  0
  7 15  1  1  0  0  0
  8  6  1  0  0  0  0
  8 12  2  0  0  0  0
  9 14  1  1  0  0  0
 10 21  1  0  0  0  0
 11  8  1  0  0  0  0
 12 27  1  0  0  0  0
 13  2  2  0  0  0  0
 13 18  1  0  0  0  0
 15 23  1  0  0  0  0
 16  2  1  0  0  0  0
 17 20  1  0  0  0  0
 17  3  1  0  0  0  0
 18 25  2  0  0  0  0
 19  1  2  0  0  0  0
 19 26  1  0  0  0  0
 22 20  1  6  0  0  0
 22  9  1  0  0  0  0
 22 10  1  0  0  0  0
 23 14  1  0  0  0  0
 25 26  1  0  0  0  0
 26 17  2  0  0  0  0
 27  7  1  0  0  0  0
 27 24  1  1  0  0  0
 28 11  1  0  0  0  0
 29 30  1  0  0  0  0
 30 28  1  0  0  0  0
M  END
>  <MODEL>
7

>  <REMARK>
 VINA RESULT:      -5.3      2.729      4.892
  Name = 
  2 active torsions:
  status: ('A' for Active; 'I' for Inactive)
    1  A    between atoms: C_11  and  C_28
    2  A    between atoms: C_28  and  C_30
                            x       y       z     vdW  Elec       q    Type
                         _______ _______ _______ _____ _____    ______ ____

>  <TORSDO>
F 2

$$$$
=
 OpenBabel11122412303D

 30 35  0  0  1  0  0  0  0  0999 V2000
  161.3600  207.0280  150.7170 C   0  0  0  0  0  0  0  0  0  0  0  0
  161.2030  206.6410  153.2000 C   0  0  0  0  0  0  0  0  0  0  0  0
  160.7380  202.9430  149.9570 N   0  0  0  0  0  0  0  0  0  0  0  0
  161.3400  206.4870  149.3940 C   0  0  0  0  0  0  0  0  0  0  0  0
  161.5530  208.4070  150.8690 C   0  0  0  0  0  3  0  0  0  0  0  0
  161.9460  209.5620  147.3920 O   0  0  0  0  0  1  0  0  0  0  0  0
  162.6480  205.7000  146.6690 C   0  0  1  0  0  3  0  0  0  0  0  0
  161.7430  208.7170  148.4800 C   0  0  0  0  0  0  0  0  0  0  0  0
  162.2420  204.3070  147.1690 C   0  0  2  0  0  3  0  0  0  0  0  0
  160.7540  202.9210  148.6630 C   0  0  0  0  0  0  0  0  0  0  0  0
  161.7320  209.2470  149.7750 C   0  0  0  0  0  0  0  0  0  0  0  0
  161.5540  207.3390  148.2760 C   0  0  0  0  0  0  0  0  0  0  0  0
  161.0280  205.7480  154.2610 C   0  0  0  0  0  3  0  0  0  0  0  0
  162.0980  203.4500  145.9980 N   0  0  0  0  0  2  0  0  0  0  0  0
  162.9840  205.5240  145.2070 C   0  0  0  0  0  2  0  0  0  0  0  0
  161.3920  207.9820  153.5130 O   0  0  0  0  0  1  0  0  0  0  0  0
  160.9620  204.2890  150.3410 C   0  0  0  0  0  0  0  0  0  0  0  0
  160.8350  204.3890  154.0260 C   0  0  0  0  0  3  0  0  0  0  0  0
  161.1870  206.1730  151.8560 C   0  0  0  0  0  0  0  0  0  0  0  0
  161.1240  205.1060  149.2550 C   0  0  0  0  0  0  0  0  0  0  0  0
  160.4830  201.6700  147.9010 C   0  0  0  0  0  1  0  0  0  0  0  0
  160.9710  204.2710  148.0240 C   0  0  1  0  0  3  0  0  0  0  0  0
  162.9610  204.0310  144.9820 C   0  0  0  0  0  2  0  0  0  0  0  0
  160.2500  206.5800  146.2500 C   0  0  0  0  0  1  0  0  0  0  0  0
  160.8140  203.9060  152.7230 C   0  0  0  0  0  3  0  0  0  0  0  0
  160.9890  204.7780  151.6430 C   0  0  0  0  0  0  0  0  0  0  0  0
  161.6260  206.8340  146.8580 C   0  0  2  0  0  3  0  0  0  0  0  0
  161.9490  210.7080  150.0110 C   0  0  0  0  0  2  0  0  0  0  0  0
  160.3550  211.7070  151.4870 O   0  0  0  0  0  1  0  0  0  0  0  0
  161.6050  211.0860  151.4430 C   0  0  0  0  0  2  0  0  0  0  0  0
  1  5  1  0  0  0  0
  1 19  1  0  0  0  0
  2 16  1  0  0  0  0
  2 13  1  0  0  0  0
  3 17  1  0  0  0  0
  4  1  2  0  0  0  0
  6  8  1  0  0  0  0
  7 15  1  6  0  0  0
  7 27  1  0  0  0  0
  7  9  1  0  0  0  0
  8 11  1  0  0  0  0
  9 14  1  6  0  0  0
  9 22  1  0  0  0  0
 10  3  2  0  0  0  0
 11 28  1  0  0  0  0
 11  5  2  0  0  0  0
 12  8  2  0  0  0  0
 12  4  1  0  0  0  0
 17 26  1  0  0  0  0
 18 13  2  0  0  0  0
 19  2  2  0  0  0  0
 20  4  1  0  0  0  0
 20 17  2  0  0  0  0
 21 10  1  0  0  0  0
 22 10  1  1  0  0  0
 22 20  1  0  0  0  0
 23 15  1  0  0  0  0
 23 14  1  0  0  0  0
 25 18  1  0  0  0  0
 26 19  1  0  0  0  0
 26 25  2  0  0  0  0
 27 24  1  1  0  0  0
 27 12  1  0  0  0  0
 28 30  1  0  0  0  0
 30 29  1  0  0  0  0
M  END
>  <MODEL>
8

>  <REMARK>
 VINA RESULT:      -5.2      2.633      5.943
  Name = 
  2 active torsions:
  status: ('A' for Active; 'I' for Inactive)
    1  A    between atoms: C_11  and  C_28
    2  A    between atoms: C_28  and  C_30
                            x       y       z     vdW  Elec       q    Type
                         _______ _______ _______ _____ _____    ______ ____

>  <TORSDO>
F 2

$$$$
=
 OpenBabel11122412303D

 30 35  0  0  1  0  0  0  0  0999 V2000
  161.5350  207.8940  150.7890 C   0  0  0  0  0  0  0  0  0  0  0  0
  162.0460  208.8080  148.4990 C   0  0  0  0  0  0  0  0  0  0  0  0
  160.7930  211.7610  152.2560 N   0  0  0  0  0  0  0  0  0  0  0  0
  161.1740  208.1440  152.1490 C   0  0  0  0  0  0  0  0  0  0  0  0
  161.7420  206.5690  150.3870 C   0  0  0  0  0  3  0  0  0  0  0  0
  161.1870  204.6790  153.5020 O   0  0  0  0  0  1  0  0  0  0  0  0
  161.7270  208.2400  155.2220 C   0  0  1  0  0  3  0  0  0  0  0  0
  161.2900  205.7480  152.6150 C   0  0  0  0  0  0  0  0  0  0  0  0
  161.4880  209.7340  154.9580 C   0  0  2  0  0  3  0  0  0  0  0  0
  160.4670  211.5080  153.4830 C   0  0  0  0  0  0  0  0  0  0  0  0
  161.6140  205.5060  151.2760 C   0  0  0  0  0  0  0  0  0  0  0  0
  161.0730  207.0610  153.0660 C   0  0  0  0  0  0  0  0  0  0  0  0
  162.1690  209.9140  147.6540 C   0  0  0  0  0  3  0  0  0  0  0  0
  161.0520  210.3320  156.2140 N   0  0  0  0  0  2  0  0  0  0  0  0
  161.6670  208.0790  156.7220 C   0  0  0  0  0  2  0  0  0  0  0  0
  162.2910  207.5530  147.9530 O   0  0  0  0  0  1  0  0  0  0  0  0
  161.0910  210.5140  151.6520 C   0  0  0  0  0  0  0  0  0  0  0  0
  161.9410  211.2040  148.1290 C   0  0  0  0  0  3  0  0  0  0  0  0
  161.6820  208.9810  149.8640 C   0  0  0  0  0  0  0  0  0  0  0  0
  160.9490  209.4760  152.5320 C   0  0  0  0  0  0  0  0  0  0  0  0
  160.0220  212.5860  154.4090 C   0  0  0  0  0  1  0  0  0  0  0  0
  160.4880  210.0410  153.8380 C   0  0  1  0  0  3  0  0  0  0  0  0
  161.6070  209.4880  157.2610 C   0  0  0  0  0  2  0  0  0  0  0  0
  159.2920  207.4670  154.8100 C   0  0  0  0  0  1  0  0  0  0  0  0
  161.5830  211.4010  149.4580 C   0  0  0  0  0  3  0  0  0  0  0  0
  161.4540  210.3100  150.3240 C   0  0  0  0  0  0  0  0  0  0  0  0
  160.7750  207.2490  154.5310 C   0  0  2  0  0  3  0  0  0  0  0  0
  161.8650  204.1160  150.7830 C   0  0  0  0  0  2  0  0  0  0  0  0
  161.3590  203.8310  148.4640 O   0  0  0  0  0  1  0  0  0  0  0  0
  160.8270  203.7090  149.7490 C   0  0  0  0  0  2  0  0  0  0  0  0
  1  4  1  0  0  0  0
  2 19  1  0  0  0  0
  3 10  2  0  0  0  0
  4 20  1  0  0  0  0
  4 12  2  0  0  0  0
  5  1  2  0  0  0  0
  5 11  1  0  0  0  0
  7 15  1  1  0  0  0
  8 12  1  0  0  0  0
  8  6  1  0  0  0  0
  9  7  1  0  0  0  0
  9 14  1  1  0  0  0
 10 22  1  0  0  0  0
 10 21  1  0  0  0  0
 11  8  2  0  0  0  0
 12 27  1  0  0  0  0
 13 18  1  0  0  0  0
 13  2  2  0  0  0  0
 14 23  1  0  0  0  0
 15 23  1  0  0  0  0
 16  2  1  0  0  0  0
 17  3  1  0  0  0  0
 17 20  2  0  0  0  0
 18 25  2  0  0  0  0
 19 26  2  0  0  0  0
 19  1  1  0  0  0  0
 22 20  1  6  0  0  0
 22  9  1  0  0  0  0
 25 26  1  0  0  0  0
 26 17  1  0  0  0  0
 27 24  1  6  0  0  0
 27  7  1  0  0  0  0
 28 11  1  0  0  0  0
 29 30  1  0  0  0  0
 30 28  1  0  0  0  0
M  END
>  <MODEL>
9

>  <REMARK>
 VINA RESULT:      -5.1      1.864      5.073
  Name = 
  2 active torsions:
  status: ('A' for Active; 'I' for Inactive)
    1  A    between atoms: C_11  and  C_28
    2  A    between atoms: C_28  and  C_30
                            x       y       z     vdW  Elec       q    Type
                         _______ _______ _______ _____ _____    ______ ____

>  <TORSDO>
F 2

$$$$
