=
 OpenBabel11122414243D

 34 41  0  0  1  0  0  0  0  0999 V2000
  160.7210  207.3920  154.0520 C   0  0  0  0  0  0  0  0  0  0  0  0
  161.2710  205.0720  153.0910 C   0  0  0  0  0  2  0  0  0  0  0  0
  158.5290  213.4040  153.1030 C   0  0  2  0  0  3  0  0  0  0  0  0
  160.1390  209.6330  154.7550 C   0  0  0  0  0  0  0  0  0  0  0  0
  159.7470  211.3540  152.9400 C   0  0  1  0  0  3  0  0  0  0  0  0
  159.5350  213.5030  151.4000 C   0  0  0  0  0  2  0  0  0  0  0  0
  158.4420  214.2030  151.9560 O   0  0  0  0  0  0  0  0  0  0  0  0
  158.8970  213.2470  155.4790 C   0  0  0  0  0  3  0  0  0  0  0  0
  161.3620  206.9690  151.6860 C   0  0  0  0  0  0  0  0  0  0  0  0
  161.8000  206.7920  148.4670 C   0  0  0  0  0  2  0  0  0  0  0  0
  160.8230  210.6440  152.1260 C   0  0  0  0  0  2  0  0  0  0  0  0
  158.8760  211.7270  155.3640 C   0  0  0  0  0  2  0  0  0  0  0  0
  161.2140  208.2760  151.3640 C   0  0  0  0  0  0  0  0  0  0  0  0
  161.4950  204.5990  151.6500 C   0  0  0  0  0  2  0  0  0  0  0  0
  159.9770  211.1070  154.4590 C   0  0  1  0  0  3  0  0  0  0  0  0
  158.7020  214.0620  154.4230 C   0  0  0  0  0  3  0  0  0  0  0  0
  161.0850  205.8620  149.4560 C   0  0  2  0  0  3  0  0  0  0  0  0
  160.5630  208.7470  153.7470 C   0  0  0  0  0  0  0  0  0  0  0  0
  159.8510  212.8450  152.7170 C   0  0  1  0  0  3  0  0  0  0  0  0
  160.8120  209.2070  152.4000 N   0  0  0  0  0  0  0  0  0  0  0  0
  160.1140  207.8490  156.3350 C   0  0  0  0  0  3  0  0  0  0  0  0
  162.3570  208.0690  149.1010 C   0  0  0  0  0  2  0  0  0  0  0  0
  159.9500  209.1630  156.0210 N   0  0  0  0  0  0  0  0  0  0  0  0
  161.3010  208.7750  149.9380 C   0  0  0  0  0  2  0  0  0  0  0  0
  161.8060  205.8470  150.8090 C   0  0  1  0  0  3  0  0  0  0  0  0
  160.4970  206.9350  155.3530 C   0  0  0  0  0  3  0  0  0  0  0  0
  161.1180  206.5090  153.0010 N   0  0  0  0  0  0  0  0  0  0  0  0
  161.0250  204.5800  148.9030 O   0  0  0  0  0  0  0  0  0  0  0  0
  161.2720  204.7650  147.5410 C   0  0  0  0  0  2  0  0  0  0  0  0
  160.3250  201.6950  146.9680 O   0  0  0  0  0  0  0  0  0  0  0  0
  161.3310  203.2950  145.5550 C   0  0  0  0  0  2  0  0  0  0  0  0
  161.8620  203.5000  146.9440 C   0  0  2  0  0  3  0  0  0  0  0  0
  160.6380  201.9570  145.6270 C   0  0  0  0  0  2  0  0  0  0  0  0
  161.3540  202.2990  147.7090 C   0  0  0  0  0  2  0  0  0  0  0  0
  1 26  1  0  0  0  0
  3 16  1  1  0  0  0
  4 23  2  0  0  0  0
  5 11  1  6  0  0  0
  5 15  1  0  0  0  0
  6  7  1  0  0  0  0
  7  3  1  0  0  0  0
  9 27  1  0  0  0  0
 10 22  1  0  0  0  0
 10 17  1  0  0  0  0
 11 20  1  0  0  0  0
 12  8  1  0  0  0  0
 13  9  2  0  0  0  0
 13 20  1  0  0  0  0
 14  2  1  0  0  0  0
 15  4  1  0  0  0  0
 15 12  1  1  0  0  0
 16  8  2  0  0  0  0
 17 28  1  6  0  0  0
 17 25  1  0  0  0  0
 18  1  2  0  0  0  0
 18  4  1  0  0  0  0
 19  6  1  6  0  0  0
 19  5  1  0  0  0  0
 19  3  1  0  0  0  0
 20 18  1  0  0  0  0
 22 24  1  0  0  0  0
 23 21  1  0  0  0  0
 24 13  1  0  0  0  0
 25 14  1  1  0  0  0
 25  9  1  0  0  0  0
 26 21  2  0  0  0  0
 27  2  1  0  0  0  0
 27  1  1  0  0  0  0
 29 28  1  0  0  0  0
 30 34  1  0  0  0  0
 31 33  1  0  0  0  0
 31 32  1  0  0  0  0
 32 29  1  1  0  0  0
 32 34  1  0  0  0  0
 33 30  1  0  0  0  0
M  END
>  <MODEL>
1

>  <REMARK>
 VINA RESULT:      -9.5      0.000      0.000
  Name = 
  3 active torsions:
  status: ('A' for Active; 'I' for Inactive)
    1  A    between atoms: C_17  and  O_28
    2  A    between atoms: O_28  and  C_29
    3  A    between atoms: C_29  and  C_32
                            x       y       z     vdW  Elec       q    Type
                         _______ _______ _______ _____ _____    ______ ____

>  <TORSDO>
F 3

$$$$
=
 OpenBabel11122414243D

 34 41  0  0  1  0  0  0  0  0999 V2000
  161.5080  209.4640  151.0160 C   0  0  0  0  0  0  0  0  0  0  0  0
  161.0720  211.4090  152.6400 C   0  0  0  0  0  2  0  0  0  0  0  0
  160.5260  203.2790  149.3890 C   0  0  2  0  0  3  0  0  0  0  0  0
  161.7890  207.5100  149.6160 C   0  0  0  0  0  0  0  0  0  0  0  0
  161.0730  205.2800  150.5770 C   0  0  1  0  0  3  0  0  0  0  0  0
  160.7250  202.7480  151.2860 C   0  0  0  0  0  2  0  0  0  0  0  0
  160.1500  202.1580  150.1390 O   0  0  0  0  0  0  0  0  0  0  0  0
  161.8060  204.2030  147.5680 C   0  0  0  0  0  3  0  0  0  0  0  0
  160.9910  209.1850  153.4330 C   0  0  0  0  0  0  0  0  0  0  0  0
  159.9960  208.3890  156.4260 C   0  0  0  0  0  2  0  0  0  0  0  0
  161.5230  205.7970  151.9390 C   0  0  0  0  0  2  0  0  0  0  0  0
  161.3990  205.6030  148.0160 C   0  0  0  0  0  2  0  0  0  0  0  0
  161.0200  207.8350  153.3310 C   0  0  0  0  0  0  0  0  0  0  0  0
  160.5630  211.4270  154.0850 C   0  0  0  0  0  2  0  0  0  0  0  0
  161.8530  206.0090  149.4450 C   0  0  1  0  0  3  0  0  0  0  0  0
  161.3760  203.0850  148.1870 C   0  0  0  0  0  3  0  0  0  0  0  0
  159.5710  209.5110  155.4700 C   0  0  2  0  0  3  0  0  0  0  0  0
  161.5440  208.0720  150.8830 C   0  0  0  0  0  0  0  0  0  0  0  0
  161.4050  203.8110  150.4640 C   0  0  1  0  0  3  0  0  0  0  0  0
  161.3060  207.2400  152.0400 N   0  0  0  0  0  0  0  0  0  0  0  0
  162.0260  209.6870  148.6770 C   0  0  0  0  0  3  0  0  0  0  0  0
  161.0360  207.4310  155.8420 C   0  0  0  0  0  2  0  0  0  0  0  0
  162.0450  208.3320  148.5580 N   0  0  0  0  0  0  0  0  0  0  0  0
  160.6130  206.9260  154.4710 C   0  0  0  0  0  2  0  0  0  0  0  0
  160.7660  210.0130  154.6530 C   0  0  1  0  0  3  0  0  0  0  0  0
  161.7500  210.2810  149.9090 C   0  0  0  0  0  3  0  0  0  0  0  0
  161.2210  210.0070  152.3060 N   0  0  0  0  0  0  0  0  0  0  0  0
  158.9990  210.5450  156.2170 O   0  0  0  0  0  0  0  0  0  0  0  0
  157.7020  210.6760  155.7150 C   0  0  0  0  0  2  0  0  0  0  0  0
  158.5710  213.8210  155.6560 O   0  0  0  0  0  0  0  0  0  0  0  0
  156.6000  212.7440  154.9320 C   0  0  0  0  0  2  0  0  0  0  0  0
  157.1160  212.0110  156.1360 C   0  0  2  0  0  3  0  0  0  0  0  0
  157.3950  214.0260  154.9210 C   0  0  0  0  0  2  0  0  0  0  0  0
  158.2200  212.9030  156.6590 C   0  0  0  0  0  2  0  0  0  0  0  0
  1 27  1  0  0  0  0
  2 14  1  0  0  0  0
  3 16  1  6  0  0  0
  3  7  1  0  0  0  0
  3 19  1  0  0  0  0
  4 18  2  0  0  0  0
  5 11  1  1  0  0  0
  7  6  1  0  0  0  0
  8 12  1  0  0  0  0
  8 16  2  0  0  0  0
  9 25  1  0  0  0  0
 11 20  1  0  0  0  0
 13  9  2  0  0  0  0
 13 24  1  0  0  0  0
 15 12  1  6  0  0  0
 15  4  1  0  0  0  0
 15  5  1  0  0  0  0
 17 28  1  1  0  0  0
 17 10  1  0  0  0  0
 18  1  1  0  0  0  0
 18 20  1  0  0  0  0
 19  5  1  0  0  0  0
 19  6  1  1  0  0  0
 20 13  1  0  0  0  0
 21 26  1  0  0  0  0
 22 10  1  0  0  0  0
 23 21  2  0  0  0  0
 23  4  1  0  0  0  0
 24 22  1  0  0  0  0
 25 14  1  6  0  0  0
 25 17  1  0  0  0  0
 26  1  2  0  0  0  0
 27  2  1  0  0  0  0
 27  9  1  0  0  0  0
 29 28  1  0  0  0  0
 30 34  1  0  0  0  0
 31 32  1  0  0  0  0
 32 29  1  6  0  0  0
 32 34  1  0  0  0  0
 33 31  1  0  0  0  0
 33 30  1  0  0  0  0
M  END
>  <MODEL>
2

>  <REMARK>
 VINA RESULT:      -9.4      1.873      9.156
  Name = 
  3 active torsions:
  status: ('A' for Active; 'I' for Inactive)
    1  A    between atoms: C_17  and  O_28
    2  A    between atoms: O_28  and  C_29
    3  A    between atoms: C_29  and  C_32
                            x       y       z     vdW  Elec       q    Type
                         _______ _______ _______ _____ _____    ______ ____

>  <TORSDO>
F 3

$$$$
=
 OpenBabel11122414243D

 34 41  0  0  1  0  0  0  0  0999 V2000
  160.7750  207.6960  154.7510 C   0  0  0  0  0  0  0  0  0  0  0  0
  161.5830  205.6860  153.3660 C   0  0  0  0  0  2  0  0  0  0  0  0
  157.8550  213.4660  154.9560 C   0  0  2  0  0  3  0  0  0  0  0  0
  159.9390  209.6750  155.8660 C   0  0  0  0  0  0  0  0  0  0  0  0
  159.3090  211.6490  154.4110 C   0  0  1  0  0  3  0  0  0  0  0  0
  158.8100  214.0090  153.3090 C   0  0  0  0  0  2  0  0  0  0  0  0
  157.6510  214.4520  153.9830 O   0  0  0  0  0  0  0  0  0  0  0  0
  158.2840  212.9070  157.2610 C   0  0  0  0  0  3  0  0  0  0  0  0
  161.4170  207.8120  152.3510 C   0  0  0  0  0  0  0  0  0  0  0  0
  161.8140  208.3060  149.1590 C   0  0  0  0  0  2  0  0  0  0  0  0
  160.4480  211.2430  153.4820 C   0  0  0  0  0  2  0  0  0  0  0  0
  158.4450  211.4440  156.8570 C   0  0  0  0  0  2  0  0  0  0  0  0
  161.1070  209.1290  152.2840 C   0  0  0  0  0  0  0  0  0  0  0  0
  161.8350  205.5270  151.8630 C   0  0  0  0  0  2  0  0  0  0  0  0
  159.5950  211.1470  155.8560 C   0  0  1  0  0  3  0  0  0  0  0  0
  157.9720  213.8770  156.3790 C   0  0  0  0  0  3  0  0  0  0  0  0
  161.2350  207.1240  149.9490 C   0  0  2  0  0  3  0  0  0  0  0  0
  160.4480  209.0560  154.7090 C   0  0  0  0  0  0  0  0  0  0  0  0
  159.2280  213.1560  154.4770 C   0  0  1  0  0  3  0  0  0  0  0  0
  160.6150  209.7900  153.4760 N   0  0  0  0  0  0  0  0  0  0  0  0
  160.1590  207.6340  157.0760 C   0  0  0  0  0  3  0  0  0  0  0  0
  162.2240  209.4970  150.0280 C   0  0  0  0  0  2  0  0  0  0  0  0
  159.8320  208.9530  157.0180 N   0  0  0  0  0  0  0  0  0  0  0  0
  161.1060  209.8970  150.9790 C   0  0  0  0  0  2  0  0  0  0  0  0
  161.9770  206.9410  151.2770 C   0  0  1  0  0  3  0  0  0  0  0  0
  160.6320  206.9760  155.9400 C   0  0  0  0  0  3  0  0  0  0  0  0
  161.2550  207.0850  153.5520 N   0  0  0  0  0  0  0  0  0  0  0  0
  161.3200  205.9730  149.1610 O   0  0  0  0  0  0  0  0  0  0  0  0
  160.5870  206.2720  148.0100 C   0  0  0  0  0  2  0  0  0  0  0  0
  162.5220  205.8650  145.4140 O   0  0  0  0  0  0  0  0  0  0  0  0
  162.0940  204.4620  147.2620 C   0  0  0  0  0  2  0  0  0  0  0  0
  160.8350  205.2160  146.9480 C   0  0  2  0  0  3  0  0  0  0  0  0
  162.9700  204.7030  146.0580 C   0  0  0  0  0  2  0  0  0  0  0  0
  161.1340  205.8900  145.6280 C   0  0  0  0  0  2  0  0  0  0  0  0
  1 26  1  0  0  0  0
  2 27  1  0  0  0  0
  3 16  1  1  0  0  0
  4 23  2  0  0  0  0
  5 11  1  6  0  0  0
  5 19  1  0  0  0  0
  5 15  1  0  0  0  0
  6  7  1  0  0  0  0
  7  3  1  0  0  0  0
  9 27  1  0  0  0  0
 10 17  1  0  0  0  0
 10 22  1  0  0  0  0
 12  8  1  0  0  0  0
 13  9  2  0  0  0  0
 13 20  1  0  0  0  0
 14  2  1  0  0  0  0
 15  4  1  0  0  0  0
 15 12  1  1  0  0  0
 16  8  2  0  0  0  0
 17 28  1  6  0  0  0
 17 25  1  0  0  0  0
 18  1  2  0  0  0  0
 18  4  1  0  0  0  0
 19  6  1  6  0  0  0
 19  3  1  0  0  0  0
 20 11  1  0  0  0  0
 20 18  1  0  0  0  0
 22 24  1  0  0  0  0
 23 21  1  0  0  0  0
 24 13  1  0  0  0  0
 25 14  1  1  0  0  0
 25  9  1  0  0  0  0
 26 21  2  0  0  0  0
 27  1  1  0  0  0  0
 29 28  1  0  0  0  0
 30 34  1  0  0  0  0
 30 33  1  0  0  0  0
 32 31  1  0  0  0  0
 32 29  1  1  0  0  0
 33 31  1  0  0  0  0
 34 32  1  0  0  0  0
M  END
>  <MODEL>
3

>  <REMARK>
 VINA RESULT:      -8.8      1.579      1.924
  Name = 
  3 active torsions:
  status: ('A' for Active; 'I' for Inactive)
    1  A    between atoms: C_17  and  O_28
    2  A    between atoms: O_28  and  C_29
    3  A    between atoms: C_29  and  C_32
                            x       y       z     vdW  Elec       q    Type
                         _______ _______ _______ _____ _____    ______ ____

>  <TORSDO>
F 3

$$$$
=
 OpenBabel11122414243D

 34 41  0  0  1  0  0  0  0  0999 V2000
  161.6810  208.2970  150.2210 C   0  0  0  0  0  0  0  0  0  0  0  0
  161.4300  210.3560  151.7400 C   0  0  0  0  0  2  0  0  0  0  0  0
  160.2200  202.1170  148.9840 C   0  0  2  0  0  3  0  0  0  0  0  0
  161.7830  206.2520  148.9320 C   0  0  0  0  0  0  0  0  0  0  0  0
  160.9400  204.1370  150.0390 C   0  0  1  0  0  3  0  0  0  0  0  0
  160.4370  201.6800  150.9030 C   0  0  0  0  0  2  0  0  0  0  0  0
  159.7880  201.0690  149.8080 O   0  0  0  0  0  0  0  0  0  0  0  0
  161.5080  202.8420  147.0810 C   0  0  0  0  0  3  0  0  0  0  0  0
  161.2160  208.1930  152.6630 C   0  0  0  0  0  0  0  0  0  0  0  0
  160.2560  207.6400  155.7220 C   0  0  0  0  0  2  0  0  0  0  0  0
  161.4650  204.6970  151.3570 C   0  0  0  0  0  2  0  0  0  0  0  0
  161.2140  204.2910  147.4560 C   0  0  0  0  0  2  0  0  0  0  0  0
  161.1470  206.8400  152.6390 C   0  0  0  0  0  0  0  0  0  0  0  0
  160.9660  210.4920  153.1940 C   0  0  0  0  0  2  0  0  0  0  0  0
  161.7370  204.7430  148.8470 C   0  0  1  0  0  3  0  0  0  0  0  0
  161.0190  201.7950  147.7740 C   0  0  0  0  0  3  0  0  0  0  0  0
  159.8820  208.7340  154.7120 C   0  0  2  0  0  3  0  0  0  0  0  0
  161.6150  206.9010  150.1690 C   0  0  0  0  0  0  0  0  0  0  0  0
  161.1650  202.6430  150.0030 C   0  0  1  0  0  3  0  0  0  0  0  0
  161.3530  206.1540  151.3790 N   0  0  0  0  0  0  0  0  0  0  0  0
  162.1450  208.3500  147.8610 C   0  0  0  0  0  3  0  0  0  0  0  0
  161.2090  206.5790  155.1690 C   0  0  0  0  0  2  0  0  0  0  0  0
  162.0650  206.9920  147.8210 N   0  0  0  0  0  0  0  0  0  0  0  0
  160.7110  206.0290  153.8400 C   0  0  0  0  0  2  0  0  0  0  0  0
  161.0850  209.1030  153.8380 C   0  0  1  0  0  3  0  0  0  0  0  0
  161.9470  209.0310  149.0630 C   0  0  0  0  0  3  0  0  0  0  0  0
  161.4710  208.9310  151.4850 N   0  0  0  0  0  0  0  0  0  0  0  0
  159.4070  209.8470  155.4120 O   0  0  0  0  0  0  0  0  0  0  0  0
  160.2940  210.0050  156.4790 C   0  0  0  0  0  2  0  0  0  0  0  0
  159.7690  213.1660  155.8610 O   0  0  0  0  0  0  0  0  0  0  0  0
  158.4960  211.5920  157.0750 C   0  0  0  0  0  2  0  0  0  0  0  0
  159.9480  211.2600  157.2600 C   0  0  2  0  0  3  0  0  0  0  0  0
  158.5160  212.9700  156.4590 C   0  0  0  0  0  2  0  0  0  0  0  0
  160.6720  212.4430  156.6570 C   0  0  0  0  0  2  0  0  0  0  0  0
  1 27  1  0  0  0  0
  2 14  1  0  0  0  0
  3 16  1  6  0  0  0
  3  7  1  0  0  0  0
  3 19  1  0  0  0  0
  4 18  2  0  0  0  0
  5 11  1  1  0  0  0
  7  6  1  0  0  0  0
  8 12  1  0  0  0  0
  8 16  2  0  0  0  0
  9 25  1  0  0  0  0
 11 20  1  0  0  0  0
 13  9  2  0  0  0  0
 13 24  1  0  0  0  0
 15 12  1  6  0  0  0
 15  4  1  0  0  0  0
 15  5  1  0  0  0  0
 17 28  1  1  0  0  0
 17 10  1  0  0  0  0
 18  1  1  0  0  0  0
 18 20  1  0  0  0  0
 19  5  1  0  0  0  0
 19  6  1  1  0  0  0
 20 13  1  0  0  0  0
 21 26  1  0  0  0  0
 22 10  1  0  0  0  0
 23 21  2  0  0  0  0
 23  4  1  0  0  0  0
 24 22  1  0  0  0  0
 25 14  1  6  0  0  0
 25 17  1  0  0  0  0
 26  1  2  0  0  0  0
 27  2  1  0  0  0  0
 27  9  1  0  0  0  0
 28 29  1  0  0  0  0
 30 33  1  0  0  0  0
 30 34  1  0  0  0  0
 31 32  1  0  0  0  0
 32 29  1  6  0  0  0
 33 31  1  0  0  0  0
 34 32  1  0  0  0  0
M  END
>  <MODEL>
4

>  <REMARK>
 VINA RESULT:      -8.7      2.077      9.410
  Name = 
  3 active torsions:
  status: ('A' for Active; 'I' for Inactive)
    1  A    between atoms: C_17  and  O_28
    2  A    between atoms: O_28  and  C_29
    3  A    between atoms: C_29  and  C_32
                            x       y       z     vdW  Elec       q    Type
                         _______ _______ _______ _____ _____    ______ ____

>  <TORSDO>
F 3

$$$$
=
 OpenBabel11122414243D

 34 41  0  0  1  0  0  0  0  0999 V2000
  161.7110  208.1670  149.9310 C   0  0  0  0  0  0  0  0  0  0  0  0
  161.5500  210.1800  151.5230 C   0  0  0  0  0  2  0  0  0  0  0  0
  160.0890  202.0600  148.5420 C   0  0  2  0  0  3  0  0  0  0  0  0
  161.7320  206.1640  148.5740 C   0  0  0  0  0  0  0  0  0  0  0  0
  160.8830  204.0300  149.6390 C   0  0  1  0  0  3  0  0  0  0  0  0
  160.3580  201.5560  150.4390 C   0  0  0  0  0  2  0  0  0  0  0  0
  159.6630  200.9940  149.3450 O   0  0  0  0  0  0  0  0  0  0  0  0
  161.3310  202.8230  146.6230 C   0  0  0  0  0  3  0  0  0  0  0  0
  161.3230  207.9910  152.3820 C   0  0  0  0  0  0  0  0  0  0  0  0
  160.4490  207.3570  155.4510 C   0  0  0  0  0  2  0  0  0  0  0  0
  161.4600  204.5360  150.9560 C   0  0  0  0  0  2  0  0  0  0  0  0
  161.0770  204.2640  147.0540 C   0  0  0  0  0  2  0  0  0  0  0  0
  161.2260  206.6420  152.3170 C   0  0  0  0  0  0  0  0  0  0  0  0
  161.1350  210.2770  152.9950 C   0  0  0  0  0  2  0  0  0  0  0  0
  161.6530  204.6600  148.4420 C   0  0  1  0  0  3  0  0  0  0  0  0
  160.8430  201.7630  147.2980 C   0  0  0  0  0  3  0  0  0  0  0  0
  160.0650  208.4900  154.4900 C   0  0  2  0  0  3  0  0  0  0  0  0
  161.6160  206.7750  149.8360 C   0  0  0  0  0  0  0  0  0  0  0  0
  161.0760  202.5350  149.5470 C   0  0  1  0  0  3  0  0  0  0  0  0
  161.3780  205.9940  151.0290 N   0  0  0  0  0  0  0  0  0  0  0  0
  162.1020  208.2890  147.5600 C   0  0  0  0  0  3  0  0  0  0  0  0
  161.3620  206.2960  154.8330 C   0  0  0  0  0  2  0  0  0  0  0  0
  161.9930  206.9350  147.4790 N   0  0  0  0  0  0  0  0  0  0  0  0
  160.8120  205.8000  153.5040 C   0  0  0  0  0  2  0  0  0  0  0  0
  161.2470  208.8640  153.5890 C   0  0  1  0  0  3  0  0  0  0  0  0
  161.9560  208.9340  148.7890 C   0  0  0  0  0  3  0  0  0  0  0  0
  161.5540  208.7630  151.2200 N   0  0  0  0  0  0  0  0  0  0  0  0
  159.6350  209.5880  155.2400 O   0  0  0  0  0  0  0  0  0  0  0  0
  159.8070  209.2020  156.5720 C   0  0  0  0  0  2  0  0  0  0  0  0
  162.9260  210.1030  156.2420 O   0  0  0  0  0  0  0  0  0  0  0  0
  160.9560  211.3860  156.4460 C   0  0  0  0  0  2  0  0  0  0  0  0
  160.7860  210.1370  157.2600 C   0  0  2  0  0  3  0  0  0  0  0  0
  162.4300  211.4090  156.1230 C   0  0  0  0  0  2  0  0  0  0  0  0
  162.1630  209.5120  157.2610 C   0  0  0  0  0  2  0  0  0  0  0  0
  1 27  1  0  0  0  0
  2 14  1  0  0  0  0
  3 16  1  6  0  0  0
  3  7  1  0  0  0  0
  3 19  1  0  0  0  0
  4 18  2  0  0  0  0
  5 11  1  1  0  0  0
  7  6  1  0  0  0  0
  8 12  1  0  0  0  0
  8 16  2  0  0  0  0
  9 25  1  0  0  0  0
 11 20  1  0  0  0  0
 13  9  2  0  0  0  0
 13 24  1  0  0  0  0
 15 12  1  6  0  0  0
 15  4  1  0  0  0  0
 15  5  1  0  0  0  0
 17 28  1  1  0  0  0
 17 10  1  0  0  0  0
 18  1  1  0  0  0  0
 18 20  1  0  0  0  0
 19  5  1  0  0  0  0
 19  6  1  1  0  0  0
 20 13  1  0  0  0  0
 21 26  1  0  0  0  0
 22 10  1  0  0  0  0
 23 21  2  0  0  0  0
 23  4  1  0  0  0  0
 24 22  1  0  0  0  0
 25 14  1  6  0  0  0
 25 17  1  0  0  0  0
 26  1  2  0  0  0  0
 27  2  1  0  0  0  0
 27  9  1  0  0  0  0
 28 29  1  0  0  0  0
 30 34  1  0  0  0  0
 31 32  1  0  0  0  0
 32 29  1  6  0  0  0
 32 34  1  0  0  0  0
 33 30  1  0  0  0  0
 33 31  1  0  0  0  0
M  END
>  <MODEL>
5

>  <REMARK>
 VINA RESULT:      -8.3      2.413      9.206
  Name = 
  3 active torsions:
  status: ('A' for Active; 'I' for Inactive)
    1  A    between atoms: C_17  and  O_28
    2  A    between atoms: O_28  and  C_29
    3  A    between atoms: C_29  and  C_32
                            x       y       z     vdW  Elec       q    Type
                         _______ _______ _______ _____ _____    ______ ____

>  <TORSDO>
F 3

$$$$
=
 OpenBabel11122414243D

 34 41  0  0  1  0  0  0  0  0999 V2000
  161.8110  207.9030  149.7230 C   0  0  0  0  0  0  0  0  0  0  0  0
  161.7630  210.0750  151.0980 C   0  0  0  0  0  2  0  0  0  0  0  0
  160.0140  201.7220  149.0670 C   0  0  2  0  0  3  0  0  0  0  0  0
  161.7290  205.7680  148.5860 C   0  0  0  0  0  0  0  0  0  0  0  0
  160.8950  203.7780  149.9100 C   0  0  1  0  0  3  0  0  0  0  0  0
  160.3660  201.4140  150.9910 C   0  0  0  0  0  2  0  0  0  0  0  0
  159.6090  200.7570  149.9970 O   0  0  0  0  0  0  0  0  0  0  0  0
  161.1730  202.2510  147.0210 C   0  0  0  0  0  3  0  0  0  0  0  0
  161.5390  207.9940  152.1940 C   0  0  0  0  0  0  0  0  0  0  0  0
  160.8050  207.7060  155.3500 C   0  0  0  0  0  2  0  0  0  0  0  0
  161.5450  204.4060  151.1370 C   0  0  0  0  0  2  0  0  0  0  0  0
  160.9670  203.7340  147.3090 C   0  0  0  0  0  2  0  0  0  0  0  0
  161.4150  206.6480  152.2770 C   0  0  0  0  0  0  0  0  0  0  0  0
  161.4220  210.3350  152.5690 C   0  0  0  0  0  2  0  0  0  0  0  0
  161.6170  204.2610  148.6180 C   0  0  1  0  0  3  0  0  0  0  0  0
  160.7010  201.2790  147.8270 C   0  0  0  0  0  3  0  0  0  0  0  0
  160.3950  208.7400  154.2940 C   0  0  2  0  0  3  0  0  0  0  0  0
  161.6860  206.5110  149.7800 C   0  0  0  0  0  0  0  0  0  0  0  0
  161.0570  202.2770  149.9690 C   0  0  1  0  0  3  0  0  0  0  0  0
  161.4920  205.8660  151.0590 N   0  0  0  0  0  0  0  0  0  0  0  0
  162.0870  207.7660  147.3370 C   0  0  0  0  0  3  0  0  0  0  0  0
  161.6680  206.5650  154.8070 C   0  0  0  0  0  2  0  0  0  0  0  0
  161.9500  206.4140  147.4050 N   0  0  0  0  0  0  0  0  0  0  0  0
  161.0450  205.9450  153.5650 C   0  0  0  0  0  2  0  0  0  0  0  0
  161.5380  208.9910  153.3040 C   0  0  1  0  0  3  0  0  0  0  0  0
  162.0120  208.5390  148.4960 C   0  0  0  0  0  3  0  0  0  0  0  0
  161.7270  208.6350  150.9480 N   0  0  0  0  0  0  0  0  0  0  0  0
  160.0220  209.9210  154.9430 O   0  0  0  0  0  0  0  0  0  0  0  0
  158.6490  209.7880  155.1670 C   0  0  0  0  0  2  0  0  0  0  0  0
  155.8470  211.0720  156.2370 O   0  0  0  0  0  0  0  0  0  0  0  0
  158.0890  211.6730  156.6630 C   0  0  0  0  0  2  0  0  0  0  0  0
  158.0030  211.1590  155.2550 C   0  0  2  0  0  3  0  0  0  0  0  0
  156.6480  211.8730  157.0630 C   0  0  0  0  0  2  0  0  0  0  0  0
  156.5180  211.0320  155.0040 C   0  0  0  0  0  2  0  0  0  0  0  0
  1 18  1  0  0  0  0
  1 27  1  0  0  0  0
  2 14  1  0  0  0  0
  3 16  1  6  0  0  0
  3 19  1  0  0  0  0
  3  7  1  0  0  0  0
  4 15  1  0  0  0  0
  4 18  2  0  0  0  0
  5 19  1  0  0  0  0
  5 11  1  1  0  0  0
  7  6  1  0  0  0  0
  8 12  1  0  0  0  0
  8 16  2  0  0  0  0
  9 13  2  0  0  0  0
  9 25  1  0  0  0  0
 13 24  1  0  0  0  0
 15 12  1  6  0  0  0
 15  5  1  0  0  0  0
 17 28  1  1  0  0  0
 17 10  1  0  0  0  0
 18 20  1  0  0  0  0
 19  6  1  1  0  0  0
 20 11  1  0  0  0  0
 20 13  1  0  0  0  0
 21 23  2  0  0  0  0
 21 26  1  0  0  0  0
 22 10  1  0  0  0  0
 23  4  1  0  0  0  0
 24 22  1  0  0  0  0
 25 14  1  6  0  0  0
 25 17  1  0  0  0  0
 26  1  2  0  0  0  0
 27  2  1  0  0  0  0
 27  9  1  0  0  0  0
 28 29  1  0  0  0  0
 30 33  1  0  0  0  0
 31 33  1  0  0  0  0
 32 29  1  1  0  0  0
 32 31  1  0  0  0  0
 34 32  1  0  0  0  0
 34 30  1  0  0  0  0
M  END
>  <MODEL>
6

>  <REMARK>
 VINA RESULT:      -7.8      2.298      9.396
  Name = 
  3 active torsions:
  status: ('A' for Active; 'I' for Inactive)
    1  A    between atoms: C_17  and  O_28
    2  A    between atoms: O_28  and  C_29
    3  A    between atoms: C_29  and  C_32
                            x       y       z     vdW  Elec       q    Type
                         _______ _______ _______ _____ _____    ______ ____

>  <TORSDO>
F 3

$$$$
=
 OpenBabel11122414243D

 34 41  0  0  1  0  0  0  0  0999 V2000
  161.6780  208.5090  149.6820 C   0  0  0  0  0  0  0  0  0  0  0  0
  161.9010  207.1560  147.5070 C   0  0  0  0  0  2  0  0  0  0  0  0
  161.7750  208.6550  156.1490 C   0  0  2  0  0  3  0  0  0  0  0  0
  161.5080  209.5950  151.8370 C   0  0  0  0  0  0  0  0  0  0  0  0
  161.2900  208.1070  153.8740 C   0  0  1  0  0  3  0  0  0  0  0  0
  160.7650  206.9520  156.2030 C   0  0  0  0  0  2  0  0  0  0  0  0
  161.5790  207.6600  157.1150 O   0  0  0  0  0  0  0  0  0  0  0  0
  161.5140  210.9560  155.4810 C   0  0  0  0  0  3  0  0  0  0  0  0
  161.1750  206.0820  149.4810 C   0  0  0  0  0  0  0  0  0  0  0  0
  160.7690  202.8620  149.7190 C   0  0  0  0  0  2  0  0  0  0  0  0
  160.4920  207.1440  153.0020 C   0  0  0  0  0  2  0  0  0  0  0  0
  162.0280  210.5920  154.0920 C   0  0  0  0  0  2  0  0  0  0  0  0
  160.8830  205.9860  150.8000 C   0  0  0  0  0  0  0  0  0  0  0  0
  161.8210  205.6500  147.2380 C   0  0  0  0  0  2  0  0  0  0  0  0
  161.1760  209.5540  153.3120 C   0  0  1  0  0  3  0  0  0  0  0  0
  161.4170  210.0580  156.4810 C   0  0  0  0  0  3  0  0  0  0  0  0
  161.7630  203.7130  148.9170 C   0  0  2  0  0  3  0  0  0  0  0  0
  161.3810  208.4380  151.0460 C   0  0  0  0  0  0  0  0  0  0  0  0
  160.7020  208.1290  155.2650 C   0  0  1  0  0  3  0  0  0  0  0  0
  160.9750  207.1760  151.6220 N   0  0  0  0  0  0  0  0  0  0  0  0
  162.1380  210.8590  149.9180 C   0  0  0  0  0  3  0  0  0  0  0  0
  159.8360  203.6740  150.6200 C   0  0  0  0  0  2  0  0  0  0  0  0
  161.8600  210.7730  151.2470 N   0  0  0  0  0  0  0  0  0  0  0  0
  160.6170  204.6590  151.4780 C   0  0  0  0  0  2  0  0  0  0  0  0
  161.1080  205.0140  148.4410 C   0  0  1  0  0  3  0  0  0  0  0  0
  162.0590  209.7250  149.1080 C   0  0  0  0  0  3  0  0  0  0  0  0
  161.5750  207.3110  148.9100 N   0  0  0  0  0  0  0  0  0  0  0  0
  162.2300  202.9590  147.8370 O   0  0  0  0  0  0  0  0  0  0  0  0
  161.1050  202.2840  147.3580 C   0  0  0  0  0  2  0  0  0  0  0  0
  159.1070  201.6500  144.8570 O   0  0  0  0  0  0  0  0  0  0  0  0
  160.7220  203.3440  145.1590 C   0  0  0  0  0  2  0  0  0  0  0  0
  161.2090  202.1060  145.8540 C   0  0  2  0  0  3  0  0  0  0  0  0
  159.5730  202.8540  144.3120 C   0  0  0  0  0  2  0  0  0  0  0  0
  160.2420  201.0330  145.4060 C   0  0  0  0  0  2  0  0  0  0  0  0
  1 18  1  0  0  0  0
  2 27  1  0  0  0  0
  3 16  1  1  0  0  0
  3  7  1  0  0  0  0
  4 15  1  0  0  0  0
  5 11  1  6  0  0  0
  5 19  1  0  0  0  0
  6  7  1  0  0  0  0
  8 16  2  0  0  0  0
  9 13  2  0  0  0  0
 10 22  1  0  0  0  0
 12  8  1  0  0  0  0
 13 24  1  0  0  0  0
 13 20  1  0  0  0  0
 14  2  1  0  0  0  0
 15  5  1  0  0  0  0
 15 12  1  1  0  0  0
 17 28  1  6  0  0  0
 17 10  1  0  0  0  0
 18 20  1  0  0  0  0
 18  4  2  0  0  0  0
 19  3  1  0  0  0  0
 19  6  1  1  0  0  0
 20 11  1  0  0  0  0
 21 23  2  0  0  0  0
 22 24  1  0  0  0  0
 23  4  1  0  0  0  0
 25 14  1  6  0  0  0
 25 17  1  0  0  0  0
 25  9  1  0  0  0  0
 26  1  2  0  0  0  0
 26 21  1  0  0  0  0
 27  9  1  0  0  0  0
 27  1  1  0  0  0  0
 29 28  1  0  0  0  0
 30 34  1  0  0  0  0
 31 32  1  0  0  0  0
 32 29  1  1  0  0  0
 33 30  1  0  0  0  0
 33 31  1  0  0  0  0
 34 32  1  0  0  0  0
M  END
>  <MODEL>
7

>  <REMARK>
 VINA RESULT:      -7.6      2.653      4.463
  Name = 
  3 active torsions:
  status: ('A' for Active; 'I' for Inactive)
    1  A    between atoms: C_17  and  O_28
    2  A    between atoms: O_28  and  C_29
    3  A    between atoms: C_29  and  C_32
                            x       y       z     vdW  Elec       q    Type
                         _______ _______ _______ _____ _____    ______ ____

>  <TORSDO>
F 3

$$$$
=
 OpenBabel11122414243D

 34 41  0  0  1  0  0  0  0  0999 V2000
  160.8890  204.8540  152.3150 C   0  0  0  0  0  0  0  0  0  0  0  0
  161.0040  206.0650  154.5800 C   0  0  0  0  0  2  0  0  0  0  0  0
  162.2370  204.8000  145.9880 C   0  0  2  0  0  3  0  0  0  0  0  0
  160.8880  203.8860  150.0970 C   0  0  0  0  0  0  0  0  0  0  0  0
  161.4600  205.4160  148.1630 C   0  0  1  0  0  3  0  0  0  0  0  0
  161.7180  206.7070  145.8600 C   0  0  0  0  0  2  0  0  0  0  0  0
  162.4940  205.8280  145.0720 O   0  0  0  0  0  0  0  0  0  0  0  0
  161.2810  202.6340  146.4360 C   0  0  0  0  0  3  0  0  0  0  0  0
  160.9800  207.3250  152.5830 C   0  0  0  0  0  0  0  0  0  0  0  0
  161.4480  210.5430  152.4920 C   0  0  0  0  0  2  0  0  0  0  0  0
  160.7700  206.5370  148.9320 C   0  0  0  0  0  2  0  0  0  0  0  0
  161.5810  202.8280  147.9190 C   0  0  0  0  0  2  0  0  0  0  0  0
  160.9910  207.5160  151.2420 C   0  0  0  0  0  0  0  0  0  0  0  0
  161.2520  207.5360  154.9310 C   0  0  0  0  0  2  0  0  0  0  0  0
  160.8780  204.0380  148.5930 C   0  0  1  0  0  3  0  0  0  0  0  0
  161.6140  203.5440  145.4990 C   0  0  0  0  0  3  0  0  0  0  0  0
  162.0170  209.4500  153.4070 C   0  0  2  0  0  3  0  0  0  0  0  0
  160.8990  205.0220  150.9270 C   0  0  0  0  0  0  0  0  0  0  0  0
  161.1760  205.5710  146.6870 C   0  0  1  0  0  3  0  0  0  0  0  0
  160.9440  206.3560  150.3730 N   0  0  0  0  0  0  0  0  0  0  0  0
  160.7840  202.4690  152.0110 C   0  0  0  0  0  3  0  0  0  0  0  0
  160.5410  210.0160  151.3780 C   0  0  0  0  0  2  0  0  0  0  0  0
  160.8080  202.6470  150.6620 N   0  0  0  0  0  0  0  0  0  0  0  0
  161.2060  208.8780  150.6180 C   0  0  0  0  0  2  0  0  0  0  0  0
  160.9750  208.3560  153.6610 C   0  0  1  0  0  3  0  0  0  0  0  0
  160.8310  203.5710  152.8660 C   0  0  0  0  0  3  0  0  0  0  0  0
  160.9370  206.0240  153.1340 N   0  0  0  0  0  0  0  0  0  0  0  0
  162.4320  210.0390  154.6050 O   0  0  0  0  0  0  0  0  0  0  0  0
  161.5250  211.0780  154.8270 C   0  0  0  0  0  2  0  0  0  0  0  0
  159.5530  212.7950  156.7790 O   0  0  0  0  0  0  0  0  0  0  0  0
  159.4300  210.5600  156.0300 C   0  0  0  0  0  2  0  0  0  0  0  0
  160.8780  210.9190  156.1910 C   0  0  2  0  0  3  0  0  0  0  0  0
  158.7000  211.6840  156.7250 C   0  0  0  0  0  2  0  0  0  0  0  0
  160.8460  212.2590  156.8910 C   0  0  0  0  0  2  0  0  0  0  0  0
  1 26  1  0  0  0  0
  1 27  1  0  0  0  0
  2 14  1  0  0  0  0
  3 16  1  6  0  0  0
  3 19  1  0  0  0  0
  4 23  2  0  0  0  0
  4 18  1  0  0  0  0
  5 15  1  0  0  0  0
  5 11  1  1  0  0  0
  7  6  1  0  0  0  0
  7  3  1  0  0  0  0
  8 12  1  0  0  0  0
  9 27  1  0  0  0  0
  9 25  1  0  0  0  0
 10 17  1  0  0  0  0
 11 20  1  0  0  0  0
 13  9  2  0  0  0  0
 15 12  1  6  0  0  0
 15  4  1  0  0  0  0
 16  8  2  0  0  0  0
 17 25  1  0  0  0  0
 17 28  1  1  0  0  0
 18  1  2  0  0  0  0
 19  6  1  6  0  0  0
 19  5  1  0  0  0  0
 20 18  1  0  0  0  0
 20 13  1  0  0  0  0
 21 26  2  0  0  0  0
 22 10  1  0  0  0  0
 23 21  1  0  0  0  0
 24 13  1  0  0  0  0
 24 22  1  0  0  0  0
 25 14  1  1  0  0  0
 27  2  1  0  0  0  0
 28 29  1  0  0  0  0
 30 34  1  0  0  0  0
 31 32  1  0  0  0  0
 31 33  1  0  0  0  0
 32 29  1  6  0  0  0
 32 34  1  0  0  0  0
 33 30  1  0  0  0  0
M  END
>  <MODEL>
8

>  <REMARK>
 VINA RESULT:      -7.3      2.338      8.742
  Name = 
  3 active torsions:
  status: ('A' for Active; 'I' for Inactive)
    1  A    between atoms: C_17  and  O_28
    2  A    between atoms: O_28  and  C_29
    3  A    between atoms: C_29  and  C_32
                            x       y       z     vdW  Elec       q    Type
                         _______ _______ _______ _____ _____    ______ ____

>  <TORSDO>
F 3

$$$$
