=
 OpenBabel11122412333D

 30 35  0  0  1  0  0  0  0  0999 V2000
  161.2280  208.2840  150.3110 C   0  0  1  0  0  3  0  0  0  0  0  0
  161.1530  206.1940  148.8300 C   0  0  0  0  0  0  0  0  0  0  0  0
  161.0690  205.7490  153.8410 C   0  0  0  0  0  2  0  0  0  0  0  0
  161.4920  208.7660  151.7590 C   0  0  1  0  0  3  0  0  0  0  0  0
  162.1600  209.0570  149.3940 C   0  0  0  0  0  2  0  0  0  0  0  0
  161.1830  212.2910  150.8070 O   0  0  0  0  0  0  0  0  0  0  0  0
  159.8140  210.5090  153.9100 C   0  0  1  0  0  3  0  0  0  0  0  0
  161.4070  211.0510  150.7280 C   0  0  0  0  0  0  0  0  0  0  0  0
  159.8270  209.1930  154.6840 C   0  0  2  0  0  3  0  0  0  0  0  0
  160.8260  206.8840  154.7650 C   0  0  0  0  0  0  0  0  0  0  0  0
  161.8410  210.4780  149.4790 N   0  0  0  0  0  0  0  0  0  0  0  0
  161.2000  210.2050  151.8790 N   0  0  0  0  0  0  0  0  0  0  0  0
  161.1200  204.8050  148.6800 C   0  0  0  0  0  3  0  0  0  0  0  0
  160.2260  209.5710  156.0960 C   0  0  0  0  0  2  0  0  0  0  0  0
  159.5040  211.5840  154.9390 C   0  0  0  0  0  2  0  0  0  0  0  0
  161.0470  206.9940  147.6990 O   0  0  0  0  0  1  0  0  0  0  0  0
  161.4410  206.5230  152.5980 C   0  0  2  0  0  3  0  0  0  0  0  0
  161.1870  203.9690  149.7960 C   0  0  0  0  0  3  0  0  0  0  0  0
  161.2790  206.7660  150.1150 C   0  0  0  0  0  0  0  0  0  0  0  0
  160.7010  207.8440  152.6890 C   0  0  1  0  0  3  0  0  0  0  0  0
  160.6940  206.7290  156.0080 O   0  0  0  0  0  0  0  0  0  0  0  0
  160.6930  208.1540  154.1150 N   0  0  0  0  0  0  0  0  0  0  0  0
  159.6350  210.9470  156.3130 C   0  0  0  0  0  2  0  0  0  0  0  0
  162.3950  210.7010  153.9920 C   0  0  0  0  0  1  0  0  0  0  0  0
  161.2690  204.5180  151.0750 C   0  0  0  0  0  3  0  0  0  0  0  0
  161.2810  205.9070  151.2430 C   0  0  0  0  0  0  0  0  0  0  0  0
  161.1130  210.8620  153.1800 C   0  0  2  0  0  3  0  0  0  0  0  0
  161.8430  211.2580  148.2500 C   0  0  0  0  0  2  0  0  0  0  0  0
  162.7750  213.4300  147.9910 O   0  0  0  0  0  1  0  0  0  0  0  0
  163.1100  212.0870  148.1570 C   0  0  0  0  0  2  0  0  0  0  0  0
  1  5  1  6  0  0  0
  1  4  1  0  0  0  0
  2 19  1  0  0  0  0
  3 10  1  0  0  0  0
  4 12  1  6  0  0  0
  4 20  1  0  0  0  0
  5 11  1  0  0  0  0
  7  9  1  0  0  0  0
  7 15  1  1  0  0  0
  8  6  2  0  0  0  0
  8 12  1  0  0  0  0
  9 14  1  1  0  0  0
 10 21  2  0  0  0  0
 11  8  1  0  0  0  0
 12 27  1  0  0  0  0
 13  2  2  0  0  0  0
 13 18  1  0  0  0  0
 14 23  1  0  0  0  0
 15 23  1  0  0  0  0
 16  2  1  0  0  0  0
 17 20  1  0  0  0  0
 17  3  1  1  0  0  0
 18 25  2  0  0  0  0
 19  1  1  0  0  0  0
 19 26  2  0  0  0  0
 20 22  1  1  0  0  0
 22  9  1  0  0  0  0
 22 10  1  0  0  0  0
 25 26  1  0  0  0  0
 26 17  1  0  0  0  0
 27  7  1  0  0  0  0
 27 24  1  1  0  0  0
 28 11  1  0  0  0  0
 29 30  1  0  0  0  0
 30 28  1  0  0  0  0
M  END
>  <MODEL>
1

>  <REMARK>
 VINA RESULT:      -8.0      0.000      0.000
  Name = 
  2 active torsions:
  status: ('A' for Active; 'I' for Inactive)
    1  A    between atoms: N_11  and  C_28
    2  A    between atoms: C_28  and  C_30
                            x       y       z     vdW  Elec       q    Type
                         _______ _______ _______ _____ _____    ______ ____

>  <TORSDO>
F 2

$$$$
=
 OpenBabel11122412333D

 30 35  0  0  1  0  0  0  0  0999 V2000
  161.2650  206.1480  150.0700 C   0  0  1  0  0  3  0  0  0  0  0  0
  160.8820  203.6190  149.9270 C   0  0  0  0  0  0  0  0  0  0  0  0
  161.1980  205.8800  154.4100 C   0  0  0  0  0  2  0  0  0  0  0  0
  161.6950  207.2820  151.0330 C   0  0  1  0  0  3  0  0  0  0  0  0
  162.1760  206.2080  148.8550 C   0  0  0  0  0  2  0  0  0  0  0  0
  161.6080  209.7920  148.3640 O   0  0  0  0  0  0  0  0  0  0  0  0
  160.3680  210.0800  151.9780 C   0  0  1  0  0  3  0  0  0  0  0  0
  161.7160  208.6780  148.9490 C   0  0  0  0  0  0  0  0  0  0  0  0
  160.3360  209.3750  153.3320 C   0  0  2  0  0  3  0  0  0  0  0  0
  161.1360  207.3510  154.5970 C   0  0  0  0  0  0  0  0  0  0  0  0
  161.9890  207.4890  148.1830 N   0  0  0  0  0  0  0  0  0  0  0  0
  161.5390  208.5930  150.3790 N   0  0  0  0  0  0  0  0  0  0  0  0
  160.7170  202.3720  150.5380 C   0  0  0  0  0  3  0  0  0  0  0  0
  160.8870  210.3860  154.3150 C   0  0  0  0  0  2  0  0  0  0  0  0
  160.2420  211.5630  152.2870 C   0  0  0  0  0  2  0  0  0  0  0  0
  160.7460  203.7120  148.5470 O   0  0  0  0  0  1  0  0  0  0  0  0
  161.5250  205.8370  152.9350 C   0  0  2  0  0  3  0  0  0  0  0  0
  160.8090  202.2450  151.9250 C   0  0  0  0  0  3  0  0  0  0  0  0
  161.1680  204.7590  150.7080 C   0  0  0  0  0  0  0  0  0  0  0  0
  160.9130  207.0870  152.3330 C   0  0  1  0  0  3  0  0  0  0  0  0
  161.1000  207.8880  155.7360 O   0  0  0  0  0  0  0  0  0  0  0  0
  161.0560  208.0970  153.3760 N   0  0  0  0  0  0  0  0  0  0  0  0
  160.4380  211.7310  153.7850 C   0  0  0  0  0  2  0  0  0  0  0  0
  162.9530  209.9780  151.8710 C   0  0  0  0  0  1  0  0  0  0  0  0
  161.0500  203.3690  152.7150 C   0  0  0  0  0  3  0  0  0  0  0  0
  161.1950  204.6270  152.1200 C   0  0  0  0  0  0  0  0  0  0  0  0
  161.6230  209.8400  151.1350 C   0  0  2  0  0  3  0  0  0  0  0  0
  161.9500  207.5010  146.7280 C   0  0  0  0  0  2  0  0  0  0  0  0
  160.2940  206.3510  145.4670 O   0  0  0  0  0  1  0  0  0  0  0  0
  161.4610  206.1630  146.2050 C   0  0  0  0  0  2  0  0  0  0  0  0
  1  5  1  6  0  0  0
  1 19  1  0  0  0  0
  1  4  1  0  0  0  0
  2 13  2  0  0  0  0
  2 19  1  0  0  0  0
  3 10  1  0  0  0  0
  4 12  1  6  0  0  0
  4 20  1  0  0  0  0
  6  8  2  0  0  0  0
  7 15  1  1  0  0  0
  7  9  1  0  0  0  0
  8 12  1  0  0  0  0
  9 22  1  0  0  0  0
  9 14  1  1  0  0  0
 10 21  2  0  0  0  0
 11  5  1  0  0  0  0
 11  8  1  0  0  0  0
 12 27  1  0  0  0  0
 13 18  1  0  0  0  0
 15 23  1  0  0  0  0
 16  2  1  0  0  0  0
 17  3  1  1  0  0  0
 18 25  2  0  0  0  0
 19 26  2  0  0  0  0
 20 17  1  0  0  0  0
 20 22  1  1  0  0  0
 22 10  1  0  0  0  0
 23 14  1  0  0  0  0
 26 25  1  0  0  0  0
 26 17  1  0  0  0  0
 27 24  1  1  0  0  0
 27  7  1  0  0  0  0
 28 11  1  0  0  0  0
 29 30  1  0  0  0  0
 30 28  1  0  0  0  0
M  END
>  <MODEL>
2

>  <REMARK>
 VINA RESULT:      -7.5      1.824      2.955
  Name = 
  2 active torsions:
  status: ('A' for Active; 'I' for Inactive)
    1  A    between atoms: N_11  and  C_28
    2  A    between atoms: C_28  and  C_30
                            x       y       z     vdW  Elec       q    Type
                         _______ _______ _______ _____ _____    ______ ____

>  <TORSDO>
F 2

$$$$
=
 OpenBabel11122412333D

 30 35  0  0  1  0  0  0  0  0999 V2000
  160.9620  209.5380  152.0050 C   0  0  1  0  0  3  0  0  0  0  0  0
  160.7380  211.9830  151.2730 C   0  0  0  0  0  0  0  0  0  0  0  0
  162.2700  208.4910  147.9920 C   0  0  0  0  0  2  0  0  0  0  0  0
  161.5860  208.1780  151.6040 C   0  0  1  0  0  3  0  0  0  0  0  0
  161.4410  209.8670  153.4080 C   0  0  0  0  0  2  0  0  0  0  0  0
  160.4890  206.5820  154.7160 O   0  0  0  0  0  0  0  0  0  0  0  0
  160.4190  205.1930  151.1450 C   0  0  1  0  0  3  0  0  0  0  0  0
  160.8550  207.4710  153.8980 C   0  0  0  0  0  0  0  0  0  0  0  0
  160.8620  205.4590  149.7090 C   0  0  2  0  0  3  0  0  0  0  0  0
  162.1620  207.0310  148.2320 C   0  0  0  0  0  0  0  0  0  0  0  0
  160.9610  208.8430  154.3290 N   0  0  0  0  0  0  0  0  0  0  0  0
  161.1390  207.1200  152.5270 N   0  0  0  0  0  0  0  0  0  0  0  0
  160.8630  212.9850  150.3060 C   0  0  0  0  0  3  0  0  0  0  0  0
  161.6170  204.2140  149.2930 C   0  0  0  0  0  2  0  0  0  0  0  0
  160.2880  203.6830  151.2590 C   0  0  0  0  0  2  0  0  0  0  0  0
  160.1730  212.3040  152.5020 O   0  0  0  0  0  1  0  0  0  0  0  0
  162.1230  208.9820  149.4130 C   0  0  2  0  0  3  0  0  0  0  0  0
  161.3920  212.6930  149.0480 C   0  0  0  0  0  3  0  0  0  0  0  0
  161.1700  210.6690  150.9930 C   0  0  0  0  0  0  0  0  0  0  0  0
  161.2640  207.9560  150.1260 C   0  0  1  0  0  3  0  0  0  0  0  0
  162.4440  206.1770  147.3510 O   0  0  0  0  0  0  0  0  0  0  0  0
  161.6520  206.6830  149.5250 N   0  0  0  0  0  0  0  0  0  0  0  0
  160.9280  203.0790  150.0190 C   0  0  0  0  0  2  0  0  0  0  0  0
  162.8420  205.3880  152.0360 C   0  0  0  0  0  1  0  0  0  0  0  0
  161.7840  211.3900  148.7400 C   0  0  0  0  0  3  0  0  0  0  0  0
  161.6450  210.3730  149.6900 C   0  0  0  0  0  0  0  0  0  0  0  0
  161.3630  205.7070  152.2360 C   0  0  2  0  0  3  0  0  0  0  0  0
  160.4700  209.2660  155.6320 C   0  0  0  0  0  2  0  0  0  0  0  0
  162.3290  208.5400  156.9250 O   0  0  0  0  0  1  0  0  0  0  0  0
  161.6290  209.6760  156.5210 C   0  0  0  0  0  2  0  0  0  0  0  0
  1  5  1  1  0  0  0
  2 16  1  0  0  0  0
  3 10  1  0  0  0  0
  4  1  1  0  0  0  0
  4 12  1  1  0  0  0
  5 11  1  0  0  0  0
  7 15  1  6  0  0  0
  7 27  1  0  0  0  0
  8 11  1  0  0  0  0
  8  6  2  0  0  0  0
  9 14  1  1  0  0  0
  9  7  1  0  0  0  0
 10 22  1  0  0  0  0
 11 28  1  0  0  0  0
 12  8  1  0  0  0  0
 13  2  2  0  0  0  0
 14 23  1  0  0  0  0
 17  3  1  6  0  0  0
 17 26  1  0  0  0  0
 17 20  1  0  0  0  0
 18 13  1  0  0  0  0
 19  2  1  0  0  0  0
 19  1  1  0  0  0  0
 20 22  1  6  0  0  0
 20  4  1  0  0  0  0
 21 10  2  0  0  0  0
 22  9  1  0  0  0  0
 23 15  1  0  0  0  0
 25 18  2  0  0  0  0
 25 26  1  0  0  0  0
 26 19  2  0  0  0  0
 27 24  1  6  0  0  0
 27 12  1  0  0  0  0
 28 30  1  0  0  0  0
 30 29  1  0  0  0  0
M  END
>  <MODEL>
3

>  <REMARK>
 VINA RESULT:      -7.3      1.778      6.604
  Name = 
  2 active torsions:
  status: ('A' for Active; 'I' for Inactive)
    1  A    between atoms: N_11  and  C_28
    2  A    between atoms: C_28  and  C_30
                            x       y       z     vdW  Elec       q    Type
                         _______ _______ _______ _____ _____    ______ ____

>  <TORSDO>
F 2

$$$$
=
 OpenBabel11122412333D

 30 35  0  0  1  0  0  0  0  0999 V2000
  161.7110  208.5120  151.3490 C   0  0  1  0  0  3  0  0  0  0  0  0
  161.7730  208.9930  153.8650 C   0  0  0  0  0  0  0  0  0  0  0  0
  160.4680  204.4310  152.1940 C   0  0  0  0  0  2  0  0  0  0  0  0
  161.1760  207.5130  150.2930 C   0  0  1  0  0  3  0  0  0  0  0  0
  161.2130  209.8950  150.9660 C   0  0  0  0  0  2  0  0  0  0  0  0
  162.3810  209.5730  147.5110 O   0  0  0  0  0  0  0  0  0  0  0  0
  162.5360  205.7670  147.9300 C   0  0  1  0  0  3  0  0  0  0  0  0
  161.9560  209.2450  148.6540 C   0  0  0  0  0  0  0  0  0  0  0  0
  162.0740  204.6020  148.8010 C   0  0  2  0  0  3  0  0  0  0  0  0
  160.6720  203.9770  150.7960 C   0  0  0  0  0  0  0  0  0  0  0  0
  161.7610  210.2550  149.6630 N   0  0  0  0  0  0  0  0  0  0  0  0
  161.6930  207.8580  148.9570 N   0  0  0  0  0  0  0  0  0  0  0  0
  161.5810  208.5920  155.1900 C   0  0  0  0  0  3  0  0  0  0  0  0
  161.4020  203.6380  147.8450 C   0  0  0  0  0  2  0  0  0  0  0  0
  162.7660  205.1780  146.5480 C   0  0  0  0  0  2  0  0  0  0  0  0
  162.3180  210.2470  153.6170 O   0  0  0  0  0  1  0  0  0  0  0  0
  160.5850  205.9230  151.9830 C   0  0  2  0  0  3  0  0  0  0  0  0
  161.0710  207.3250  155.4800 C   0  0  0  0  0  3  0  0  0  0  0  0
  161.4280  208.1280  152.8050 C   0  0  0  0  0  0  0  0  0  0  0  0
  161.5100  206.1080  150.7960 C   0  0  1  0  0  3  0  0  0  0  0  0
  160.4450  202.7930  150.4290 O   0  0  0  0  0  0  0  0  0  0  0  0
  161.2060  204.9790  149.9220 N   0  0  0  0  0  0  0  0  0  0  0  0
  162.1650  203.7810  146.5460 C   0  0  0  0  0  2  0  0  0  0  0  0
  160.1060  206.5780  147.5490 C   0  0  0  0  0  1  0  0  0  0  0  0
  160.7640  206.4420  154.4450 C   0  0  0  0  0  3  0  0  0  0  0  0
  160.9710  206.8220  153.1150 C   0  0  0  0  0  0  0  0  0  0  0  0
  161.5620  206.9440  147.8260 C   0  0  2  0  0  3  0  0  0  0  0  0
  162.2250  211.6200  149.4670 C   0  0  0  0  0  2  0  0  0  0  0  0
  161.0310  212.5550  147.6360 O   0  0  0  0  0  1  0  0  0  0  0  0
  161.0750  212.5070  149.0280 C   0  0  0  0  0  2  0  0  0  0  0  0
  1  5  1  6  0  0  0
  1 19  1  0  0  0  0
  2 13  1  0  0  0  0
  4 12  1  6  0  0  0
  4 20  1  0  0  0  0
  4  1  1  0  0  0  0
  6  8  2  0  0  0  0
  7 15  1  6  0  0  0
  7  9  1  0  0  0  0
  8 12  1  0  0  0  0
  8 11  1  0  0  0  0
  9 14  1  6  0  0  0
  9 22  1  0  0  0  0
 10  3  1  0  0  0  0
 11  5  1  0  0  0  0
 13 18  2  0  0  0  0
 16  2  1  0  0  0  0
 17  3  1  1  0  0  0
 17 26  1  0  0  0  0
 19 26  1  0  0  0  0
 19  2  2  0  0  0  0
 20 22  1  6  0  0  0
 20 17  1  0  0  0  0
 21 10  2  0  0  0  0
 22 10  1  0  0  0  0
 23 15  1  0  0  0  0
 23 14  1  0  0  0  0
 25 18  1  0  0  0  0
 26 25  2  0  0  0  0
 27 24  1  1  0  0  0
 27  7  1  0  0  0  0
 27 12  1  0  0  0  0
 28 11  1  0  0  0  0
 29 30  1  0  0  0  0
 30 28  1  0  0  0  0
M  END
>  <MODEL>
4

>  <REMARK>
 VINA RESULT:      -5.7      2.115      5.770
  Name = 
  2 active torsions:
  status: ('A' for Active; 'I' for Inactive)
    1  A    between atoms: N_11  and  C_28
    2  A    between atoms: C_28  and  C_30
                            x       y       z     vdW  Elec       q    Type
                         _______ _______ _______ _____ _____    ______ ____

>  <TORSDO>
F 2

$$$$
=
 OpenBabel11122412333D

 30 35  0  0  1  0  0  0  0  0999 V2000
  160.8250  209.8430  151.6390 C   0  0  1  0  0  3  0  0  0  0  0  0
  161.6550  207.8100  150.3170 C   0  0  0  0  0  0  0  0  0  0  0  0
  160.8020  207.4360  155.2610 C   0  0  0  0  0  2  0  0  0  0  0  0
  160.6630  210.4040  153.0740 C   0  0  1  0  0  3  0  0  0  0  0  0
  161.6290  210.8530  150.8390 C   0  0  0  0  0  2  0  0  0  0  0  0
  159.4810  213.6450  151.8380 O   0  0  0  0  0  0  0  0  0  0  0  0
  158.1760  211.5730  154.7850 C   0  0  1  0  0  3  0  0  0  0  0  0
  160.0790  212.5340  151.8850 C   0  0  0  0  0  0  0  0  0  0  0  0
  158.4460  210.3380  155.6410 C   0  0  2  0  0  3  0  0  0  0  0  0
  160.0640  208.4530  156.0490 C   0  0  0  0  0  0  0  0  0  0  0  0
  160.8850  212.1060  150.7700 N   0  0  0  0  0  0  0  0  0  0  0  0
  159.9330  211.6830  153.0410 N   0  0  0  0  0  0  0  0  0  0  0  0
  162.0720  206.4770  150.2610 C   0  0  0  0  0  3  0  0  0  0  0  0
  158.4480  210.8420  157.0690 C   0  0  0  0  0  2  0  0  0  0  0  0
  157.3740  212.5140  155.6680 C   0  0  0  0  0  2  0  0  0  0  0  0
  161.5190  208.5200  149.1300 O   0  0  0  0  0  1  0  0  0  0  0  0
  161.1410  208.2680  154.0470 C   0  0  2  0  0  3  0  0  0  0  0  0
  162.1840  205.7200  151.4290 C   0  0  0  0  0  3  0  0  0  0  0  0
  161.3670  208.4120  151.5610 C   0  0  0  0  0  0  0  0  0  0  0  0
  160.0340  209.2960  153.9200 C   0  0  1  0  0  3  0  0  0  0  0  0
  159.7630  208.2840  157.2600 O   0  0  0  0  0  0  0  0  0  0  0  0
  159.6740  209.6100  155.2990 N   0  0  0  0  0  0  0  0  0  0  0  0
  157.4400  211.9700  157.0870 C   0  0  0  0  0  2  0  0  0  0  0  0
  160.5180  212.5570  155.2850 C   0  0  0  0  0  1  0  0  0  0  0  0
  161.8640  206.2870  152.6620 C   0  0  0  0  0  3  0  0  0  0  0  0
  161.4240  207.6130  152.7320 C   0  0  0  0  0  0  0  0  0  0  0  0
  159.4170  212.3000  154.2600 C   0  0  2  0  0  3  0  0  0  0  0  0
  160.8740  212.8290  149.5060 C   0  0  0  0  0  2  0  0  0  0  0  0
  161.1470  211.8030  147.3780 O   0  0  0  0  0  1  0  0  0  0  0  0
  161.8380  212.1870  148.5260 C   0  0  0  0  0  2  0  0  0  0  0  0
  1  5  1  6  0  0  0
  1  4  1  0  0  0  0
  2 19  1  0  0  0  0
  3 10  1  0  0  0  0
  4 12  1  6  0  0  0
  4 20  1  0  0  0  0
  6  8  2  0  0  0  0
  7  9  1  0  0  0  0
  7 15  1  1  0  0  0
  8 12  1  0  0  0  0
  9 14  1  1  0  0  0
 10 21  2  0  0  0  0
 11  5  1  0  0  0  0
 11  8  1  0  0  0  0
 12 27  1  0  0  0  0
 13  2  2  0  0  0  0
 13 18  1  0  0  0  0
 14 23  1  0  0  0  0
 15 23  1  0  0  0  0
 16  2  1  0  0  0  0
 17  3  1  1  0  0  0
 18 25  2  0  0  0  0
 19  1  1  0  0  0  0
 19 26  2  0  0  0  0
 20 17  1  0  0  0  0
 20 22  1  1  0  0  0
 22  9  1  0  0  0  0
 22 10  1  0  0  0  0
 25 26  1  0  0  0  0
 26 17  1  0  0  0  0
 27  7  1  0  0  0  0
 27 24  1  1  0  0  0
 28 11  1  0  0  0  0
 29 30  1  0  0  0  0
 30 28  1  0  0  0  0
M  END
>  <MODEL>
5

>  <REMARK>
 VINA RESULT:      -5.7      1.613      2.291
  Name = 
  2 active torsions:
  status: ('A' for Active; 'I' for Inactive)
    1  A    between atoms: N_11  and  C_28
    2  A    between atoms: C_28  and  C_30
                            x       y       z     vdW  Elec       q    Type
                         _______ _______ _______ _____ _____    ______ ____

>  <TORSDO>
F 2

$$$$
=
 OpenBabel11122412333D

 30 35  0  0  1  0  0  0  0  0999 V2000
  160.4580  210.7100  151.6080 C   0  0  1  0  0  3  0  0  0  0  0  0
  161.5440  208.4080  151.3090 C   0  0  0  0  0  0  0  0  0  0  0  0
  159.3760  209.6350  155.6800 C   0  0  0  0  0  2  0  0  0  0  0  0
  159.9350  211.7020  152.6760 C   0  0  1  0  0  3  0  0  0  0  0  0
  161.4820  211.4460  150.7610 C   0  0  0  0  0  2  0  0  0  0  0  0
  159.2420  214.2800  150.1640 O   0  0  0  0  0  0  0  0  0  0  0  0
  157.1190  213.2210  153.1740 C   0  0  1  0  0  3  0  0  0  0  0  0
  159.7660  213.2840  150.7350 C   0  0  0  0  0  0  0  0  0  0  0  0
  157.1060  212.3550  154.4310 C   0  0  2  0  0  3  0  0  0  0  0  0
  158.4880  210.8100  155.8580 C   0  0  0  0  0  0  0  0  0  0  0  0
  160.8290  212.5600  150.0840 N   0  0  0  0  0  0  0  0  0  0  0  0
  159.2850  212.8540  152.0270 N   0  0  0  0  0  0  0  0  0  0  0  0
  161.9150  207.1580  151.8130 C   0  0  0  0  0  3  0  0  0  0  0  0
  156.7400  213.3010  155.5560 C   0  0  0  0  0  2  0  0  0  0  0  0
  156.1410  214.3520  153.4460 C   0  0  0  0  0  2  0  0  0  0  0  0
  161.7580  208.6780  149.9630 O   0  0  0  0  0  1  0  0  0  0  0  0
  160.0590  210.0390  154.3940 C   0  0  2  0  0  3  0  0  0  0  0  0
  161.6820  206.8360  153.1510 C   0  0  0  0  0  3  0  0  0  0  0  0
  160.9520  209.3680  152.1580 C   0  0  0  0  0  0  0  0  0  0  0  0
  159.0620  210.9000  153.6430 C   0  0  1  0  0  3  0  0  0  0  0  0
  157.8650  211.0310  156.9300 O   0  0  0  0  0  0  0  0  0  0  0  0
  158.3540  211.6300  154.6910 N   0  0  0  0  0  0  0  0  0  0  0  0
  155.8030  214.3110  154.9280 C   0  0  0  0  0  2  0  0  0  0  0  0
  159.2720  214.4520  153.9210 C   0  0  0  0  0  1  0  0  0  0  0  0
  161.0600  207.7580  153.9930 C   0  0  0  0  0  3  0  0  0  0  0  0
  160.6630  209.0050  153.4980 C   0  0  0  0  0  0  0  0  0  0  0  0
  158.4800  213.8070  152.7860 C   0  0  2  0  0  3  0  0  0  0  0  0
  161.1840  212.8240  148.6970 C   0  0  0  0  0  2  0  0  0  0  0  0
  163.3890  212.6490  147.8240 O   0  0  0  0  0  1  0  0  0  0  0  0
  162.2990  211.8950  148.2550 C   0  0  0  0  0  2  0  0  0  0  0  0
  1  5  1  1  0  0  0
  1 19  1  0  0  0  0
  1  4  1  0  0  0  0
  2 13  2  0  0  0  0
  2 19  1  0  0  0  0
  3 10  1  0  0  0  0
  4 12  1  6  0  0  0
  4 20  1  0  0  0  0
  6  8  2  0  0  0  0
  7 15  1  1  0  0  0
  7  9  1  0  0  0  0
  8 12  1  0  0  0  0
  9 22  1  0  0  0  0
  9 14  1  1  0  0  0
 10 21  2  0  0  0  0
 11  8  1  0  0  0  0
 11  5  1  0  0  0  0
 12 27  1  0  0  0  0
 13 18  1  0  0  0  0
 15 23  1  0  0  0  0
 16  2  1  0  0  0  0
 17  3  1  1  0  0  0
 18 25  2  0  0  0  0
 19 26  2  0  0  0  0
 20 17  1  0  0  0  0
 20 22  1  1  0  0  0
 22 10  1  0  0  0  0
 23 14  1  0  0  0  0
 26 25  1  0  0  0  0
 26 17  1  0  0  0  0
 27  7  1  0  0  0  0
 27 24  1  1  0  0  0
 28 11  1  0  0  0  0
 29 30  1  0  0  0  0
 30 28  1  0  0  0  0
M  END
>  <MODEL>
6

>  <REMARK>
 VINA RESULT:      -5.5      2.558      3.797
  Name = 
  2 active torsions:
  status: ('A' for Active; 'I' for Inactive)
    1  A    between atoms: N_11  and  C_28
    2  A    between atoms: C_28  and  C_30
                            x       y       z     vdW  Elec       q    Type
                         _______ _______ _______ _____ _____    ______ ____

>  <TORSDO>
F 2

$$$$
