=
 OpenBabel11122414053D

 28 32  0  0  1  0  0  0  0  0999 V2000
  161.6920  210.7830  150.4760 C   0  0  0  0  0  0  0  0  0  0  0  0
  157.8670  212.8610  152.4700 O   0  0  0  0  0  1  0  0  0  0  0  0
  161.5610  207.8450  156.1220 O   0  0  0  0  0  0  0  0  0  0  0  0
  160.6840  213.2710  149.6730 C   0  0  0  0  0  3  0  0  0  0  0  0
  161.8770  210.1620  155.8680 N   0  0  0  0  0  0  0  0  0  0  0  0
  162.3030  209.4670  150.8140 C   0  0  0  0  0  2  0  0  0  0  0  0
  157.4800  211.0800  153.9760 C   0  0  0  0  0  1  0  0  0  0  0  0
  158.2960  212.3410  153.6900 C   0  0  1  0  0  0  0  0  0  0  0  0
  158.6800  212.9470  155.9350 C   0  0  2  0  0  3  0  0  0  0  0  0
  159.8000  212.0460  153.6090 C   0  0  1  0  0  3  0  0  0  0  0  0
  160.3130  206.6480  151.7930 O   0  0  0  0  0  0  0  0  0  0  0  0
  161.4870  210.3200  153.5280 C   0  0  1  0  0  3  0  0  0  0  0  0
  160.0830  212.8070  155.8120 O   0  0  0  0  0  0  0  0  0  0  0  0
  158.0730  213.3250  154.6990 O   0  0  0  0  0  0  0  0  0  0  0  0
  161.1380  207.5940  151.8780 C   0  0  0  0  0  0  0  0  0  0  0  0
  160.8310  211.4980  151.3560 C   0  0  0  0  0  0  0  0  0  0  0  0
  161.5520  208.8730  155.3920 C   0  0  0  0  0  0  0  0  0  0  0  0
  158.3670  213.9890  156.9880 C   0  0  0  0  0  1  0  0  0  0  0  0
  161.8560  207.8290  153.1680 C   0  0  0  0  0  2  0  0  0  0  0  0
  160.3350  212.7400  150.9140 C   0  0  0  0  0  3  0  0  0  0  0  0
  162.0350  211.3250  149.2310 C   0  0  0  0  0  3  0  0  0  0  0  0
  161.5370  212.5630  148.8300 C   0  0  0  0  0  3  0  0  0  0  0  0
  161.3240  208.4420  150.7860 O   0  0  0  0  0  0  0  0  0  0  0  0
  161.6230  211.1440  154.8310 C   0  0  1  0  0  3  0  0  0  0  0  0
  161.1220  208.8870  153.9760 C   0  0  2  0  0  3  0  0  0  0  0  0
  160.2280  211.6890  154.9910 C   0  0  2  0  0  3  0  0  0  0  0  0
  162.1350  210.4900  157.2610 C   0  0  0  0  0  1  0  0  0  0  0  0
  160.3430  210.9400  152.6970 C   0  0  2  0  0  3  0  0  0  0  0  0
  1  6  1  0  0  0  0
  1 16  1  0  0  0  0
  2  8  1  0  0  0  0
  4 20  1  0  0  0  0
  5 27  1  0  0  0  0
  8  7  1  1  0  0  0
  8 14  1  0  0  0  0
  9 18  1  1  0  0  0
 10  8  1  0  0  0  0
 10 26  1  0  0  0  0
 11 15  2  0  0  0  0
 12 25  1  0  0  0  0
 12 24  1  0  0  0  0
 13  9  1  0  0  0  0
 14  9  1  0  0  0  0
 15 19  1  0  0  0  0
 16 28  1  0  0  0  0
 17  5  1  0  0  0  0
 17  3  2  0  0  0  0
 19 25  1  0  0  0  0
 20 16  2  0  0  0  0
 21  1  2  0  0  0  0
 22 21  1  0  0  0  0
 22  4  2  0  0  0  0
 23  6  1  0  0  0  0
 23 15  1  0  0  0  0
 24 26  1  0  0  0  0
 24  5  1  0  0  0  0
 25 17  1  0  0  0  0
 26 13  1  0  0  0  0
 28 12  1  0  0  0  0
 28 10  1  0  0  0  0
M  END
>  <MODEL>
1

>  <REMARK>
 VINA RESULT:      -5.0      0.000      0.000
  Name = 
  0 active torsions:
  status: ('A' for Active; 'I' for Inactive)
                            x       y       z     vdW  Elec       q    Type
                         _______ _______ _______ _____ _____    ______ ____

>  <TORSDO>
F 0

$$$$
=
 OpenBabel11122414053D

 28 32  0  0  1  0  0  0  0  0999 V2000
  161.0870  207.6110  152.5180 C   0  0  0  0  0  0  0  0  0  0  0  0
  160.7630  209.6560  156.8350 O   0  0  0  0  0  1  0  0  0  0  0  0
  160.0510  213.6750  150.8790 O   0  0  0  0  0  0  0  0  0  0  0  0
  160.4540  206.2040  154.8560 C   0  0  0  0  0  3  0  0  0  0  0  0
  158.5140  212.3760  152.0970 N   0  0  0  0  0  0  0  0  0  0  0  0
  161.4260  208.2580  151.2190 C   0  0  0  0  0  2  0  0  0  0  0  0
  161.3250  211.8100  156.0390 C   0  0  0  0  0  1  0  0  0  0  0  0
  160.2160  210.7690  156.2000 C   0  0  1  0  0  0  0  0  0  0  0  0
  158.4180  212.2870  156.3360 C   0  0  2  0  0  3  0  0  0  0  0  0
  159.6300  210.3390  154.8480 C   0  0  1  0  0  3  0  0  0  0  0  0
  163.8130  210.9260  150.9930 O   0  0  0  0  0  0  0  0  0  0  0  0
  159.8720  210.4560  152.4480 C   0  0  1  0  0  3  0  0  0  0  0  0
  157.8100  211.7880  155.1590 O   0  0  0  0  0  0  0  0  0  0  0  0
  159.1630  211.2780  157.0180 O   0  0  0  0  0  0  0  0  0  0  0  0
  162.7060  210.3290  150.9560 C   0  0  0  0  0  0  0  0  0  0  0  0
  160.6240  208.3320  153.6550 C   0  0  0  0  0  0  0  0  0  0  0  0
  159.7790  212.6250  151.5210 C   0  0  0  0  0  0  0  0  0  0  0  0
  157.3530  212.8380  157.2600 C   0  0  0  0  0  1  0  0  0  0  0  0
  161.4750  211.0890  150.5780 C   0  0  0  0  0  2  0  0  0  0  0  0
  160.3270  207.5920  154.8160 C   0  0  0  0  0  3  0  0  0  0  0  0
  161.2130  206.2180  152.5690 C   0  0  0  0  0  3  0  0  0  0  0  0
  160.8970  205.5160  153.7300 C   0  0  0  0  0  3  0  0  0  0  0  0
  162.6380  208.9860  151.3260 O   0  0  0  0  0  0  0  0  0  0  0  0
  158.5700  211.1650  152.8930 C   0  0  1  0  0  3  0  0  0  0  0  0
  160.7590  211.5610  151.8330 C   0  0  2  0  0  3  0  0  0  0  0  0
  158.8920  211.5210  154.3210 C   0  0  2  0  0  3  0  0  0  0  0  0
  157.4190  213.3320  152.1350 C   0  0  0  0  0  1  0  0  0  0  0  0
  160.5370  209.8610  153.7080 C   0  0  2  0  0  3  0  0  0  0  0  0
  1 21  2  0  0  0  0
  1 16  1  0  0  0  0
  3 17  2  0  0  0  0
  5 27  1  0  0  0  0
  5 24  1  0  0  0  0
  6 23  1  0  0  0  0
  6  1  1  0  0  0  0
  8  7  1  6  0  0  0
  8  2  1  0  0  0  0
  8 14  1  0  0  0  0
  9 14  1  0  0  0  0
  9 18  1  1  0  0  0
 10  8  1  0  0  0  0
 12 24  1  0  0  0  0
 12 28  1  0  0  0  0
 13  9  1  0  0  0  0
 15 11  2  0  0  0  0
 15 23  1  0  0  0  0
 16 28  1  0  0  0  0
 16 20  2  0  0  0  0
 17 25  1  0  0  0  0
 17  5  1  0  0  0  0
 19 15  1  0  0  0  0
 19 25  1  0  0  0  0
 20  4  1  0  0  0  0
 21 22  1  0  0  0  0
 22  4  2  0  0  0  0
 24 26  1  0  0  0  0
 25 12  1  0  0  0  0
 26 10  1  0  0  0  0
 26 13  1  0  0  0  0
 28 10  1  0  0  0  0
M  END
>  <MODEL>
2

>  <REMARK>
 VINA RESULT:      -3.1      1.957      4.764
  Name = 
  0 active torsions:
  status: ('A' for Active; 'I' for Inactive)
                            x       y       z     vdW  Elec       q    Type
                         _______ _______ _______ _____ _____    ______ ____

>  <TORSDO>
F 0

$$$$
=
 OpenBabel11122414053D

 28 32  0  0  1  0  0  0  0  0999 V2000
  161.2060  207.7910  150.6990 C   0  0  0  0  0  0  0  0  0  0  0  0
  161.9560  208.7750  155.3240 O   0  0  0  0  0  1  0  0  0  0  0  0
  159.9540  214.0320  150.7970 O   0  0  0  0  0  0  0  0  0  0  0  0
  161.1090  205.8630  152.7300 C   0  0  0  0  0  3  0  0  0  0  0  0
  158.7180  212.4380  152.0060 N   0  0  0  0  0  0  0  0  0  0  0  0
  161.2440  208.7300  149.5430 C   0  0  0  0  0  2  0  0  0  0  0  0
  162.3640  211.0720  154.9390 C   0  0  0  0  0  1  0  0  0  0  0  0
  161.3010  209.9870  155.1110 C   0  0  1  0  0  0  0  0  0  0  0  0
  159.6210  211.3730  156.0110 C   0  0  2  0  0  3  0  0  0  0  0  0
  160.4030  209.8600  153.8710 C   0  0  1  0  0  3  0  0  0  0  0  0
  163.5720  211.4540  149.3860 O   0  0  0  0  0  0  0  0  0  0  0  0
  160.0750  210.5340  151.5760 C   0  0  1  0  0  3  0  0  0  0  0  0
  158.7410  211.1390  154.9270 O   0  0  0  0  0  0  0  0  0  0  0  0
  160.4820  210.2590  156.2470 O   0  0  0  0  0  0  0  0  0  0  0  0
  162.4740  210.8460  149.4730 C   0  0  0  0  0  0  0  0  0  0  0  0
  161.0410  208.2150  152.0480 C   0  0  0  0  0  0  0  0  0  0  0  0
  159.8170  212.8540  151.2240 C   0  0  0  0  0  0  0  0  0  0  0  0
  158.8170  211.6620  157.2610 C   0  0  0  0  0  1  0  0  0  0  0  0
  161.2060  211.6320  149.5800 C   0  0  0  0  0  2  0  0  0  0  0  0
  161.0080  207.2190  153.0430 C   0  0  0  0  0  3  0  0  0  0  0  0
  161.3070  206.4280  150.3960 C   0  0  0  0  0  3  0  0  0  0  0  0
  161.2570  205.4670  151.4040 C   0  0  0  0  0  3  0  0  0  0  0  0
  162.4640  209.4520  149.5280 O   0  0  0  0  0  0  0  0  0  0  0  0
  158.9320  211.0790  152.4650 C   0  0  1  0  0  3  0  0  0  0  0  0
  160.8180  211.7790  151.0420 C   0  0  2  0  0  3  0  0  0  0  0  0
  159.5890  211.1070  153.8200 C   0  0  2  0  0  3  0  0  0  0  0  0
  157.6850  213.3230  152.5200 C   0  0  0  0  0  1  0  0  0  0  0  0
  161.0040  209.6870  152.4720 C   0  0  2  0  0  3  0  0  0  0  0  0
  1 16  1  0  0  0  0
  3 17  2  0  0  0  0
  4 20  1  0  0  0  0
  5 24  1  0  0  0  0
  5 27  1  0  0  0  0
  6  1  1  0  0  0  0
  8  7  1  6  0  0  0
  8  2  1  0  0  0  0
  8 14  1  0  0  0  0
  9 14  1  0  0  0  0
  9 18  1  1  0  0  0
 10  8  1  0  0  0  0
 11 15  2  0  0  0  0
 12 24  1  0  0  0  0
 12 28  1  0  0  0  0
 13  9  1  0  0  0  0
 15 23  1  0  0  0  0
 15 19  1  0  0  0  0
 16 28  1  0  0  0  0
 16 20  2  0  0  0  0
 17  5  1  0  0  0  0
 19 25  1  0  0  0  0
 21  1  2  0  0  0  0
 21 22  1  0  0  0  0
 22  4  2  0  0  0  0
 23  6  1  0  0  0  0
 24 26  1  0  0  0  0
 25 17  1  0  0  0  0
 25 12  1  0  0  0  0
 26 10  1  0  0  0  0
 26 13  1  0  0  0  0
 28 10  1  0  0  0  0
M  END
>  <MODEL>
3

>  <REMARK>
 VINA RESULT:      -2.8      2.027      4.788
  Name = 
  0 active torsions:
  status: ('A' for Active; 'I' for Inactive)
                            x       y       z     vdW  Elec       q    Type
                         _______ _______ _______ _____ _____    ______ ____

>  <TORSDO>
F 0

$$$$
