=
 OpenBabel11122413523D

 37 43  0  0  1  0  0  0  0  0999 V2000
  161.4360  210.1250  148.2090 C   0  0  0  0  0  2  0  0  0  0  0  0
  161.3860  205.8200  146.1790 C   0  0  0  0  0  0  0  0  0  0  0  0
  160.8310  206.0010  150.3660 C   0  0  0  0  0  0  0  0  0  0  0  0
  162.0780  211.4910  147.9300 C   0  0  2  0  0  3  0  0  0  0  0  0
  161.0020  209.2980  152.0620 O   0  0  0  0  0  0  0  0  0  0  0  0
  161.1060  204.6380  148.3230 C   0  0  0  0  0  0  0  0  0  0  0  0
  161.3500  207.3530  150.5960 C   0  0  0  0  0  0  0  0  0  0  0  0
  161.0730  212.5280  150.1360 C   0  0  2  0  0  3  0  0  0  0  0  0
  160.5030  205.8850  148.9040 C   0  0  2  0  0  3  0  0  0  0  0  0
  161.6410  208.0290  151.9340 C   0  0  2  0  0  3  0  0  0  0  0  0
  161.2550  203.5770  149.0590 N   0  0  0  0  0  0  0  0  0  0  0  0
  162.2610  212.4040  149.1610 C   0  0  0  0  0  2  0  0  0  0  0  0
  161.1580  207.0510  148.3300 N   0  0  0  0  0  0  0  0  0  0  0  0
  159.9630  205.8790  145.6520 C   0  0  0  0  0  1  0  0  0  0  0  0
  161.7900  204.8940  152.3840 C   0  0  0  0  0  3  0  0  0  0  0  0
  160.8130  203.5630  150.4590 C   0  0  0  0  0  2  0  0  0  0  0  0
  161.6970  207.1030  146.9670 C   0  0  0  0  0  2  0  0  0  0  0  0
  161.2060  211.6310  151.3750 C   0  0  0  0  0  2  0  0  0  0  0  0
  161.3000  210.1660  150.9880 C   0  0  1  0  0  3  0  0  0  0  0  0
  161.0720  204.9010  151.1040 C   0  0  0  0  0  0  0  0  0  0  0  0
  161.5910  207.8970  149.3950 C   0  0  0  0  0  0  0  0  0  0  0  0
  161.5510  204.6580  146.9980 O   0  0  0  0  0  0  0  0  0  0  0  0
  161.2930  207.1820  153.0890 N   0  0  0  0  0  0  0  0  0  0  0  0
  162.3310  205.7300  144.9990 C   0  0  0  0  0  1  0  0  0  0  0  0
  162.5430  209.8950  150.3830 O   0  0  0  0  0  0  0  0  0  0  0  0
  159.8410  212.3430  149.5050 O   0  0  0  0  0  1  0  0  0  0  0  0
  162.2580  209.2410  149.1650 C   0  0  2  0  0  3  0  0  0  0  0  0
  161.8940  205.8940  153.2550 C   0  0  0  0  0  3  0  0  0  0  0  0
  160.1700  206.9530  155.2640 C   0  0  0  0  0  3  0  0  0  0  0  0
  160.7950  207.7660  154.3060 C   0  0  0  0  0  0  0  0  0  0  0  0
  160.9670  209.1330  154.5750 C   0  0  0  0  0  3  0  0  0  0  0  0
  160.6730  211.0710  156.0320 N   0  0  0  0  0  1  0  0  0  0  0  0
  159.8690  208.8680  156.7150 C   0  0  0  0  0  3  0  0  0  0  0  0
  160.5010  209.6830  155.7720 C   0  0  0  0  0  0  0  0  0  0  0  0
  159.7060  207.5030  156.4630 C   0  0  0  0  0  3  0  0  0  0  0  0
  162.1190  213.3280  146.4840 C   0  0  0  0  0  1  0  0  0  0  0  0
  161.3190  212.1910  146.9070 N   0  0  0  0  0  2  0  0  0  0  0  0
  2 17  1  0  0  0  0
  2 22  1  0  0  0  0
  3  7  1  0  0  0  0
  3 20  2  0  0  0  0
  4 37  1  6  0  0  0
  4  1  1  0  0  0  0
  4 12  1  0  0  0  0
  6 11  2  0  0  0  0
  8 26  1  6  0  0  0
  8 18  1  0  0  0  0
  9  6  1  6  0  0  0
  9  3  1  0  0  0  0
 10  7  1  6  0  0  0
 10  5  1  0  0  0  0
 10 23  1  0  0  0  0
 11 16  1  0  0  0  0
 12  8  1  0  0  0  0
 13  9  1  0  0  0  0
 13 21  1  0  0  0  0
 14  2  1  0  0  0  0
 15 28  2  0  0  0  0
 16 20  1  0  0  0  0
 17 13  1  0  0  0  0
 19 18  1  1  0  0  0
 19  5  1  0  0  0  0
 20 15  1  0  0  0  0
 21  7  2  0  0  0  0
 22  6  1  0  0  0  0
 23 28  1  0  0  0  0
 23 30  1  0  0  0  0
 24  2  1  0  0  0  0
 25 19  1  0  0  0  0
 27  1  1  6  0  0  0
 27 21  1  0  0  0  0
 27 25  1  0  0  0  0
 29 35  1  0  0  0  0
 30 31  1  0  0  0  0
 30 29  2  0  0  0  0
 31 34  2  0  0  0  0
 34 32  1  0  0  0  0
 34 33  1  0  0  0  0
 35 33  2  0  0  0  0
 36 37  1  0  0  0  0
M  END
>  <MODEL>
1

>  <REMARK>
 VINA RESULT:      -8.3      0.000      0.000
  Name = 
  2 active torsions:
  status: ('A' for Active; 'I' for Inactive)
    1  A    between atoms: C_4  and  N_37
    2  A    between atoms: N_23  and  C_30
                            x       y       z     vdW  Elec       q    Type
                         _______ _______ _______ _____ _____    ______ ____

>  <TORSDO>
F 2

$$$$
=
 OpenBabel11122413523D

 37 43  0  0  1  0  0  0  0  0999 V2000
  161.3240  207.9420  151.8980 C   0  0  0  0  0  2  0  0  0  0  0  0
  159.4440  210.6340  155.3440 C   0  0  0  0  0  0  0  0  0  0  0  0
  159.7320  212.3380  151.4860 C   0  0  0  0  0  0  0  0  0  0  0  0
  162.3340  206.7920  151.7960 C   0  0  2  0  0  3  0  0  0  0  0  0
  161.3190  210.3740  148.7660 O   0  0  0  0  0  0  0  0  0  0  0  0
  159.1580  212.5920  153.8760 C   0  0  0  0  0  0  0  0  0  0  0  0
  160.7160  211.4140  150.9120 C   0  0  0  0  0  0  0  0  0  0  0  0
  162.1520  206.7280  149.1660 C   0  0  2  0  0  3  0  0  0  0  0  0
  159.1320  211.6710  152.6910 C   0  0  2  0  0  3  0  0  0  0  0  0
  161.4510  211.5370  149.5790 C   0  0  2  0  0  3  0  0  0  0  0  0
  159.0620  213.8770  153.7090 N   0  0  0  0  0  0  0  0  0  0  0  0
  163.0340  206.6390  150.4280 C   0  0  0  0  0  2  0  0  0  0  0  0
  160.0350  210.5530  152.9270 N   0  0  0  0  0  0  0  0  0  0  0  0
  158.0580  210.0130  155.3310 C   0  0  0  0  0  1  0  0  0  0  0  0
  160.5940  214.4530  150.4840 C   0  0  0  0  0  3  0  0  0  0  0  0
  158.8970  214.4530  152.3690 C   0  0  0  0  0  2  0  0  0  0  0  0
  160.3090  209.9850  154.2510 C   0  0  0  0  0  2  0  0  0  0  0  0
  162.1860  208.1080  148.4950 C   0  0  0  0  0  2  0  0  0  0  0  0
  161.7020  209.1930  149.4410 C   0  0  1  0  0  3  0  0  0  0  0  0
  159.7070  213.6780  151.3620 C   0  0  0  0  0  0  0  0  0  0  0  0
  160.9110  210.4360  151.8080 C   0  0  0  0  0  0  0  0  0  0  0  0
  159.3430  212.0480  155.1500 O   0  0  0  0  0  0  0  0  0  0  0  0
  161.0430  212.7280  148.8110 N   0  0  0  0  0  0  0  0  0  0  0  0
  160.0770  210.3640  156.6930 C   0  0  0  0  0  1  0  0  0  0  0  0
  162.6490  209.4180  150.4590 O   0  0  0  0  0  0  0  0  0  0  0  0
  160.8400  206.3080  149.3990 O   0  0  0  0  0  1  0  0  0  0  0  0
  161.9480  209.3330  151.6800 C   0  0  2  0  0  3  0  0  0  0  0  0
  161.1850  214.0380  149.3680 C   0  0  0  0  0  3  0  0  0  0  0  0
  159.7960  212.3850  146.7210 C   0  0  0  0  0  3  0  0  0  0  0  0
  160.9980  212.6950  147.3730 C   0  0  0  0  0  0  0  0  0  0  0  0
  162.1300  213.0170  146.6080 C   0  0  0  0  0  3  0  0  0  0  0  0
  163.2200  213.3250  144.4440 N   0  0  0  0  0  1  0  0  0  0  0  0
  160.8670  212.6840  144.5700 C   0  0  0  0  0  3  0  0  0  0  0  0
  162.0670  213.0060  145.2120 C   0  0  0  0  0  0  0  0  0  0  0  0
  159.7320  212.3760  145.3240 C   0  0  0  0  0  3  0  0  0  0  0  0
  161.2020  205.6940  153.5220 C   0  0  0  0  0  1  0  0  0  0  0  0
  161.6940  205.5410  152.1630 N   0  0  0  0  0  2  0  0  0  0  0  0
  2 24  1  0  0  0  0
  4  1  1  0  0  0  0
  4 37  1  6  0  0  0
  5 19  1  0  0  0  0
  6 22  1  0  0  0  0
  7  3  1  0  0  0  0
  7 21  2  0  0  0  0
  8 26  1  1  0  0  0
  8 12  1  0  0  0  0
  9  3  1  6  0  0  0
  9 13  1  0  0  0  0
  9  6  1  0  0  0  0
 10  5  1  6  0  0  0
 10  7  1  0  0  0  0
 11  6  2  0  0  0  0
 12  4  1  0  0  0  0
 13 17  1  0  0  0  0
 14  2  1  0  0  0  0
 15 20  1  0  0  0  0
 16 11  1  0  0  0  0
 17  2  1  0  0  0  0
 18  8  1  0  0  0  0
 19 18  1  6  0  0  0
 19 25  1  0  0  0  0
 20  3  2  0  0  0  0
 20 16  1  0  0  0  0
 21 13  1  0  0  0  0
 22  2  1  0  0  0  0
 23 28  1  0  0  0  0
 23 10  1  0  0  0  0
 25 27  1  0  0  0  0
 27 21  1  0  0  0  0
 27  1  1  6  0  0  0
 28 15  2  0  0  0  0
 29 30  1  0  0  0  0
 30 23  1  0  0  0  0
 31 30  2  0  0  0  0
 32 34  1  0  0  0  0
 33 34  2  0  0  0  0
 33 35  1  0  0  0  0
 34 31  1  0  0  0  0
 35 29  2  0  0  0  0
 37 36  1  0  0  0  0
M  END
>  <MODEL>
2

>  <REMARK>
 VINA RESULT:      -6.6      2.284      8.448
  Name = 
  2 active torsions:
  status: ('A' for Active; 'I' for Inactive)
    1  A    between atoms: C_4  and  N_37
    2  A    between atoms: N_23  and  C_30
                            x       y       z     vdW  Elec       q    Type
                         _______ _______ _______ _____ _____    ______ ____

>  <TORSDO>
F 2

$$$$
=
 OpenBabel11122413523D

 37 43  0  0  1  0  0  0  0  0999 V2000
  161.2630  207.8940  151.8960 C   0  0  0  0  0  2  0  0  0  0  0  0
  159.2900  210.4940  155.3600 C   0  0  0  0  0  0  0  0  0  0  0  0
  159.7260  212.3170  151.5700 C   0  0  1  0  0  3  0  0  0  0  0  0
  162.2660  206.7370  151.7910 C   0  0  2  0  0  3  0  0  0  0  0  0
  161.3870  210.4230  148.8450 O   0  0  0  0  0  0  0  0  0  0  0  0
  159.0720  212.5000  153.9460 C   0  0  0  0  0  0  0  0  0  0  0  0
  160.7200  211.4010  151.0010 C   0  0  0  0  0  0  0  0  0  0  0  0
  162.1740  206.7580  149.1570 C   0  0  2  0  0  3  0  0  0  0  0  0
  159.0790  211.6170  152.7320 C   0  0  2  0  0  3  0  0  0  0  0  0
  161.5020  211.5590  149.6990 C   0  0  2  0  0  3  0  0  0  0  0  0
  158.9930  213.7910  153.8170 N   0  0  0  0  0  0  0  0  0  0  0  0
  163.0110  206.6210  150.4440 C   0  0  0  0  0  2  0  0  0  0  0  0
  159.9630  210.4840  152.9630 N   0  0  0  0  0  0  0  0  0  0  0  0
  157.8990  209.8880  155.2790 C   0  0  0  0  0  1  0  0  0  0  0  0
  160.6410  214.4530  150.6660 C   0  0  0  0  0  3  0  0  0  0  0  0
  158.8800  214.4110  152.4910 C   0  0  0  0  0  2  0  0  0  0  0  0
  160.1870  209.8710  154.2770 C   0  0  0  0  0  2  0  0  0  0  0  0
  162.2430  208.1580  148.5320 C   0  0  0  0  0  2  0  0  0  0  0  0
  161.7370  209.2180  149.4940 C   0  0  1  0  0  3  0  0  0  0  0  0
  159.7170  213.6600  151.4880 C   0  0  2  0  0  3  0  0  0  0  0  0
  160.8760  210.3930  151.8710 C   0  0  0  0  0  0  0  0  0  0  0  0
  159.2080  211.9150  155.2080 O   0  0  0  0  0  0  0  0  0  0  0  0
  161.1320  212.7770  148.9550 N   0  0  0  0  0  0  0  0  0  0  0  0
  159.8740  210.1760  156.7210 C   0  0  0  0  0  1  0  0  0  0  0  0
  162.6500  209.4010  150.5510 O   0  0  0  0  0  0  0  0  0  0  0  0
  160.8510  206.3450  149.3310 O   0  0  0  0  0  1  0  0  0  0  0  0
  161.9070  209.2850  151.7440 C   0  0  2  0  0  3  0  0  0  0  0  0
  161.2660  214.0680  149.5580 C   0  0  0  0  0  3  0  0  0  0  0  0
  162.3400  212.9900  146.8250 C   0  0  0  0  0  3  0  0  0  0  0  0
  161.1360  212.7900  147.5170 C   0  0  0  0  0  0  0  0  0  0  0  0
  159.9580  212.5560  146.7890 C   0  0  0  0  0  3  0  0  0  0  0  0
  158.7820  212.3170  144.6620 N   0  0  0  0  0  1  0  0  0  0  0  0
  161.1830  212.7580  144.7110 C   0  0  0  0  0  3  0  0  0  0  0  0
  159.9810  212.5460  145.3910 C   0  0  0  0  0  0  0  0  0  0  0  0
  162.3630  212.9770  145.4280 C   0  0  0  0  0  3  0  0  0  0  0  0
  161.1640  205.5540  153.4800 C   0  0  0  0  0  1  0  0  0  0  0  0
  161.6030  205.4820  152.0970 N   0  0  0  0  0  2  0  0  0  0  0  0
  2 24  1  0  0  0  0
  3  7  1  1  0  0  0
  3  9  1  0  0  0  0
  4  1  1  0  0  0  0
  4 37  1  6  0  0  0
  5 19  1  0  0  0  0
  6 22  1  0  0  0  0
  7 21  2  0  0  0  0
  8 26  1  1  0  0  0
  8 12  1  0  0  0  0
  9 13  1  0  0  0  0
  9  6  1  1  0  0  0
 10  5  1  6  0  0  0
 10  7  1  0  0  0  0
 11  6  2  0  0  0  0
 12  4  1  0  0  0  0
 13 17  1  0  0  0  0
 14  2  1  0  0  0  0
 16 11  1  0  0  0  0
 17  2  1  0  0  0  0
 18  8  1  0  0  0  0
 19 18  1  6  0  0  0
 19 25  1  0  0  0  0
 20 15  1  1  0  0  0
 20  3  1  0  0  0  0
 20 16  1  0  0  0  0
 21 13  1  0  0  0  0
 22  2  1  0  0  0  0
 23 28  1  0  0  0  0
 23 10  1  0  0  0  0
 25 27  1  0  0  0  0
 27 21  1  0  0  0  0
 27  1  1  6  0  0  0
 28 15  2  0  0  0  0
 29 30  1  0  0  0  0
 30 23  1  0  0  0  0
 31 30  2  0  0  0  0
 32 34  1  0  0  0  0
 33 34  2  0  0  0  0
 33 35  1  0  0  0  0
 34 31  1  0  0  0  0
 35 29  2  0  0  0  0
 37 36  1  0  0  0  0
M  END
>  <MODEL>
3

>  <REMARK>
 VINA RESULT:      -6.1      2.273      8.425
  Name = 
  2 active torsions:
  status: ('A' for Active; 'I' for Inactive)
    1  A    between atoms: C_4  and  N_37
    2  A    between atoms: N_23  and  C_30
                            x       y       z     vdW  Elec       q    Type
                         _______ _______ _______ _____ _____    ______ ____

>  <TORSDO>
F 2

$$$$
