=
 OpenBabel11122414393D

 34 40  0  0  1  0  0  0  0  0999 V2000
  161.1070  208.1930  154.1130 C   0  0  1  0  0  3  0  0  0  0  0  0
  162.0780  206.1850  153.1420 C   0  0  0  0  0  2  0  0  0  0  0  0
  157.5450  213.3330  153.0920 C   0  0  0  0  0  0  0  0  0  0  0  0
  159.9760  210.2610  154.9670 C   0  0  2  0  0  3  0  0  0  0  0  0
  159.8220  212.2520  153.4020 C   0  0  2  0  0  3  0  0  0  0  0  0
  159.4710  214.0830  151.6230 C   0  0  0  0  0  1  0  0  0  0  0  0
  156.8140  213.1920  152.0770 O   0  0  0  0  0  0  0  0  0  0  0  0
  157.7840  213.4470  155.5990 C   0  0  0  0  0  2  0  0  0  0  0  0
  162.0560  208.1310  151.9940 C   0  0  2  0  0  3  0  0  0  0  0  0
  161.5730  208.2270  148.8570 C   0  0  0  0  0  2  0  0  0  0  0  0
  160.0400  211.2690  152.2500 C   0  0  0  0  0  2  0  0  0  0  0  0
  158.8710  212.3720  155.7960 C   0  0  0  0  0  2  0  0  0  0  0  0
  161.2760  209.3650  151.5070 C   0  0  1  0  0  3  0  0  0  0  0  0
  162.6960  205.8520  151.7850 C   0  0  0  0  0  2  0  0  0  0  0  0
  159.1550  211.4920  154.5730 C   0  0  2  0  0  3  0  0  0  0  0  0
  156.9730  213.2420  154.3990 N   0  0  0  0  0  2  0  0  0  0  0  0
  161.6930  206.9690  149.7360 C   0  0  1  0  0  3  0  0  0  0  0  0
  160.2740  209.4220  153.7120 C   0  0  1  0  0  3  0  0  0  0  0  0
  159.0320  213.5010  152.9610 C   0  0  1  0  0  3  0  0  0  0  0  0
  160.9640  210.2160  152.6750 N   0  0  2  0  0  0  0  0  0  0  0  0
  160.0960  208.4640  156.3580 C   0  0  0  0  0  2  0  0  0  0  0  0
  162.5410  209.3480  149.2400 C   0  0  0  0  0  2  0  0  0  0  0  0
  159.2410  209.4780  155.8840 O   0  0  0  0  0  0  0  0  0  0  0  0
  162.0730  210.1610  150.4570 C   0  0  0  0  0  2  0  0  0  0  0  0
  162.5950  207.1400  150.9770 C   0  0  1  0  0  3  0  0  0  0  0  0
  160.3890  207.4570  155.2430 C   0  0  0  0  0  2  0  0  0  0  0  0
  161.2520  207.3630  152.9230 N   0  0  2  0  0  0  0  0  0  0  0  0
  160.4130  206.5280  150.0930 O   0  0  0  0  0  0  0  0  0  0  0  0
  160.1150  205.5940  149.2120 O   0  0  0  0  0  0  0  0  0  0  0  0
  160.4800  202.3450  149.3430 O   0  0  0  0  0  0  0  0  0  0  0  0
  161.3990  203.9500  148.1100 C   0  0  0  0  0  3  0  0  0  0  0  0
  161.0670  204.5930  149.4150 C   0  0  2  0  0  3  0  0  0  0  0  0
  161.0450  202.6810  148.1280 C   0  0  0  0  0  3  0  0  0  0  0  0
  160.4490  203.4550  150.2220 C   0  0  0  0  0  2  0  0  0  0  0  0
  1 26  1  1  0  0  0
  3 16  1  0  0  0  0
  4 23  1  1  0  0  0
  5 11  1  6  0  0  0
  5 15  1  0  0  0  0
  6 19  1  0  0  0  0
  7  3  2  0  0  0  0
  8 12  1  0  0  0  0
  9 27  1  0  0  0  0
 10 22  1  0  0  0  0
 10 17  1  0  0  0  0
 11 20  1  0  0  0  0
 13  9  1  0  0  0  0
 13 20  1  0  0  0  0
 14  2  1  0  0  0  0
 15  4  1  0  0  0  0
 15 12  1  0  0  0  0
 16  8  1  0  0  0  0
 17 28  1  0  0  0  0
 17 25  1  0  0  0  0
 18  1  1  0  0  0  0
 18  4  1  0  0  0  0
 19  3  1  0  0  0  0
 19  5  1  0  0  0  0
 20 18  1  0  0  0  0
 22 24  1  0  0  0  0
 23 21  1  0  0  0  0
 24 13  1  0  0  0  0
 25 14  1  0  0  0  0
 25  9  1  0  0  0  0
 26 21  1  0  0  0  0
 27  2  1  0  0  0  0
 27  1  1  0  0  0  0
 29 32  1  0  0  0  0
 29 28  1  0  0  0  0
 30 34  1  0  0  0  0
 31 33  2  0  0  0  0
 31 32  1  0  0  0  0
 32 34  1  0  0  0  0
 33 30  1  0  0  0  0
M  END
>  <MODEL>
1

>  <REMARK>
 VINA RESULT:      -8.1      0.000      0.000
  Name = 
  3 active torsions:
  status: ('A' for Active; 'I' for Inactive)
    1  A    between atoms: C_17  and  O_28
    2  A    between atoms: O_28  and  O_29
    3  A    between atoms: O_29  and  C_32
                            x       y       z     vdW  Elec       q    Type
                         _______ _______ _______ _____ _____    ______ ____

>  <TORSDO>
F 3

$$$$
=
 OpenBabel11122414393D

 34 40  0  0  1  0  0  0  0  0999 V2000
  161.5600  210.3510  152.2600 C   0  0  1  0  0  3  0  0  0  0  0  0
  160.9610  211.8730  154.0600 C   0  0  0  0  0  2  0  0  0  0  0  0
  160.6420  204.6330  149.6880 C   0  0  0  0  0  0  0  0  0  0  0  0
  162.0090  208.6860  150.4400 C   0  0  2  0  0  3  0  0  0  0  0  0
  162.0500  206.2300  151.0730 C   0  0  2  0  0  3  0  0  0  0  0  0
  161.7700  203.7700  151.7890 C   0  0  0  0  0  1  0  0  0  0  0  0
  159.5480  204.1320  150.0590 O   0  0  0  0  0  0  0  0  0  0  0  0
  162.0390  205.7120  147.8890 C   0  0  0  0  0  2  0  0  0  0  0  0
  161.2770  209.6730  154.4640 C   0  0  2  0  0  3  0  0  0  0  0  0
  159.4950  208.0740  156.5490 C   0  0  0  0  0  2  0  0  0  0  0  0
  161.2460  206.6130  152.3170 C   0  0  0  0  0  2  0  0  0  0  0  0
  162.4850  206.9800  148.6430 C   0  0  0  0  0  2  0  0  0  0  0  0
  161.0020  208.2100  154.0770 C   0  0  1  0  0  3  0  0  0  0  0  0
  160.6570  211.6950  155.5470 C   0  0  0  0  0  2  0  0  0  0  0  0
  161.7440  207.2580  149.9580 C   0  0  2  0  0  3  0  0  0  0  0  0
  160.7690  205.1660  148.3670 N   0  0  0  0  0  2  0  0  0  0  0  0
  159.4350  209.5820  156.2470 C   0  0  1  0  0  3  0  0  0  0  0  0
  161.2820  208.9170  151.7760 C   0  0  1  0  0  3  0  0  0  0  0  0
  161.7960  204.7710  150.6410 C   0  0  1  0  0  3  0  0  0  0  0  0
  161.6830  207.9250  152.7950 N   0  0  2  0  0  0  0  0  0  0  0  0
  161.9470  210.8890  149.8740 C   0  0  0  0  0  2  0  0  0  0  0  0
  160.9130  207.5000  156.5720 C   0  0  0  0  0  2  0  0  0  0  0  0
  161.5220  209.6040  149.4840 O   0  0  0  0  0  0  0  0  0  0  0  0
  161.4800  207.2350  155.1690 C   0  0  0  0  0  2  0  0  0  0  0  0
  160.7780  210.1980  155.8000 C   0  0  1  0  0  3  0  0  0  0  0  0
  161.2060  211.3280  151.1400 C   0  0  0  0  0  2  0  0  0  0  0  0
  160.7500  210.5680  153.4540 N   0  0  2  0  0  0  0  0  0  0  0  0
  158.4230  209.8290  155.3110 O   0  0  0  0  0  0  0  0  0  0  0  0
  157.6710  210.7630  155.8570 O   0  0  0  0  0  0  0  0  0  0  0  0
  155.7610  213.2240  154.8590 O   0  0  0  0  0  0  0  0  0  0  0  0
  157.4330  212.0960  153.9250 C   0  0  0  0  0  3  0  0  0  0  0  0
  156.7730  211.1320  154.8530 C   0  0  2  0  0  3  0  0  0  0  0  0
  156.8180  213.2610  153.9700 C   0  0  0  0  0  3  0  0  0  0  0  0
  155.6350  211.9480  155.4600 C   0  0  0  0  0  2  0  0  0  0  0  0
  1 26  1  6  0  0  0
  1 27  1  0  0  0  0
  2 14  1  0  0  0  0
  3  7  2  0  0  0  0
  3 19  1  0  0  0  0
  4 23  1  6  0  0  0
  4 18  1  0  0  0  0
  5 11  1  1  0  0  0
  8 16  1  0  0  0  0
  8 12  1  0  0  0  0
  9 25  1  0  0  0  0
 10 22  1  0  0  0  0
 11 20  1  0  0  0  0
 12 15  1  0  0  0  0
 13  9  1  0  0  0  0
 13 24  1  0  0  0  0
 14 25  1  0  0  0  0
 15  4  1  0  0  0  0
 15  5  1  0  0  0  0
 16  3  1  0  0  0  0
 17 10  1  0  0  0  0
 18  1  1  0  0  0  0
 18 20  1  0  0  0  0
 19  5  1  0  0  0  0
 19  6  1  0  0  0  0
 20 13  1  0  0  0  0
 21 26  1  0  0  0  0
 23 21  1  0  0  0  0
 24 22  1  0  0  0  0
 25 17  1  0  0  0  0
 27  2  1  0  0  0  0
 27  9  1  0  0  0  0
 28 29  1  0  0  0  0
 28 17  1  0  0  0  0
 30 34  1  0  0  0  0
 31 33  2  0  0  0  0
 31 32  1  0  0  0  0
 32 34  1  0  0  0  0
 32 29  1  0  0  0  0
 33 30  1  0  0  0  0
M  END
>  <MODEL>
2

>  <REMARK>
 VINA RESULT:      -5.9      1.781      7.994
  Name = 
  3 active torsions:
  status: ('A' for Active; 'I' for Inactive)
    1  A    between atoms: C_17  and  O_28
    2  A    between atoms: O_28  and  O_29
    3  A    between atoms: O_29  and  C_32
                            x       y       z     vdW  Elec       q    Type
                         _______ _______ _______ _____ _____    ______ ____

>  <TORSDO>
F 3

$$$$
