=
 OpenBabel11122414373D

 34 40  0  0  1  0  0  0  0  0999 V2000
  161.3500  210.1490  151.1310 C   0  0  0  0  0  0  0  0  0  0  0  0
  162.0950  209.0170  149.1220 O   0  0  0  0  0  0  0  0  0  0  0  0
  161.4470  210.9920  157.0020 C   0  0  1  0  0  3  0  0  0  0  0  0
  160.1990  211.0730  153.0700 C   0  0  0  0  0  0  0  0  0  0  0  0
  160.1560  209.7830  155.2230 N   0  0  2  0  0  0  0  0  0  0  0  0
  162.3260  209.0750  155.9140 O   0  0  0  0  0  1  0  0  0  0  0  0
  162.6990  211.5510  157.2600 O   0  0  0  0  0  1  0  0  0  0  0  0
  160.2900  212.6890  155.7540 O   0  0  0  0  0  0  0  0  0  0  0  0
  162.1240  207.7290  151.0950 C   0  0  1  0  0  3  0  0  0  0  0  0
  161.4960  204.7590  151.0300 C   0  0  0  0  0  2  0  0  0  0  0  0
  160.2000  208.5620  154.3960 C   0  0  0  0  0  2  0  0  0  0  0  0
  159.1560  212.0990  155.1940 C   0  0  0  0  0  2  0  0  0  0  0  0
  161.1120  207.5150  152.2460 C   0  0  2  0  0  3  0  0  0  0  0  0
  161.6040  207.7510  148.7750 C   0  0  0  0  0  2  0  0  0  0  0  0
  159.5200  210.8370  154.4030 C   0  0  1  0  0  3  0  0  0  0  0  0
  160.3930  212.0940  157.0110 C   0  0  0  0  0  2  0  0  0  0  0  0
  160.9720  205.7290  150.0770 N   0  0  0  0  0  0  0  0  0  0  0  0
  160.8650  210.0050  152.4410 C   0  0  0  0  0  0  0  0  0  0  0  0
  161.5050  210.1880  155.6950 C   0  0  2  0  0  3  0  0  0  0  0  0
  161.1400  208.7250  153.1850 C   0  0  1  0  0  3  0  0  0  0  0  0
  160.5030  212.4220  151.0730 C   0  0  0  0  0  3  0  0  0  0  0  0
  160.9030  205.0140  152.4050 C   0  0  0  0  0  2  0  0  0  0  0  0
  160.0060  212.2730  152.3690 C   0  0  0  0  0  3  0  0  0  0  0  0
  161.5030  206.2630  153.0280 C   0  0  0  0  0  2  0  0  0  0  0  0
  161.9840  206.7830  149.9010 C   0  0  2  0  0  3  0  0  0  0  0  0
  161.1690  211.3610  150.4540 C   0  0  0  0  0  3  0  0  0  0  0  0
  161.9790  209.0380  150.4720 N   0  0  0  0  0  0  0  0  0  0  0  0
  160.8380  204.9940  148.8260 C   0  0  0  0  0  2  0  0  0  0  0  0
  160.9880  203.5060  149.0900 C   0  0  0  0  0  2  0  0  0  0  0  0
  160.8370  201.7910  146.0410 N   0  0  0  0  0  2  0  0  0  0  0  0
  161.7130  203.8380  146.8900 C   0  0  0  0  0  2  0  0  0  0  0  0
  161.6680  202.8730  147.9730 N   0  0  0  0  0  0  0  0  0  0  0  0
  161.2030  203.1390  145.6510 C   0  0  0  0  0  2  0  0  0  0  0  0
  160.7970  201.8120  147.4940 C   0  0  0  0  0  2  0  0  0  0  0  0
  1 18  1  0  0  0  0
  2 27  1  0  0  0  0
  3 16  1  0  0  0  0
  3  7  1  6  0  0  0
  4 15  1  0  0  0  0
  5 11  1  6  0  0  0
  5 19  1  0  0  0  0
  8 16  1  0  0  0  0
  9 27  1  6  0  0  0
  9 13  1  0  0  0  0
 10 22  1  0  0  0  0
 12  8  1  0  0  0  0
 13 24  1  1  0  0  0
 13 20  1  0  0  0  0
 14  2  1  0  0  0  0
 15 12  1  1  0  0  0
 15  5  1  0  0  0  0
 17 10  1  0  0  0  0
 18  4  2  0  0  0  0
 18 20  1  0  0  0  0
 19  6  1  1  0  0  0
 19  3  1  0  0  0  0
 20 11  1  1  0  0  0
 21 23  2  0  0  0  0
 22 24  1  0  0  0  0
 23  4  1  0  0  0  0
 25 14  1  6  0  0  0
 25 17  1  0  0  0  0
 25  9  1  0  0  0  0
 26 21  1  0  0  0  0
 26  1  2  0  0  0  0
 27  1  1  0  0  0  0
 28 29  1  0  0  0  0
 28 17  1  0  0  0  0
 30 34  1  0  0  0  0
 31 32  1  0  0  0  0
 32 29  1  0  0  0  0
 33 30  1  0  0  0  0
 33 31  1  0  0  0  0
 34 32  1  0  0  0  0
M  END
>  <MODEL>
1

>  <REMARK>
 VINA RESULT:      -8.9      0.000      0.000
  Name = 
  3 active torsions:
  status: ('A' for Active; 'I' for Inactive)
    1  A    between atoms: N_17  and  C_28
    2  A    between atoms: C_28  and  C_29
    3  A    between atoms: C_29  and  N_32
                            x       y       z     vdW  Elec       q    Type
                         _______ _______ _______ _____ _____    ______ ____

>  <TORSDO>
F 3

$$$$
=
 OpenBabel11122414373D

 34 40  0  0  1  0  0  0  0  0999 V2000
  160.9490  211.0900  151.5320 C   0  0  0  0  0  0  0  0  0  0  0  0
  162.1190  209.6400  149.9820 O   0  0  0  0  0  0  0  0  0  0  0  0
  159.9950  213.2450  156.9750 C   0  0  1  0  0  3  0  0  0  0  0  0
  159.4110  212.2700  153.0090 C   0  0  0  0  0  0  0  0  0  0  0  0
  159.1350  211.5060  155.3850 N   0  0  2  0  0  0  0  0  0  0  0  0
  161.2180  211.2630  156.5190 O   0  0  0  0  0  1  0  0  0  0  0  0
  161.1280  214.0060  157.2590 O   0  0  0  0  0  1  0  0  0  0  0  0
  158.9050  214.4490  155.2030 O   0  0  0  0  0  0  0  0  0  0  0  0
  161.9430  208.8470  152.1940 C   0  0  1  0  0  3  0  0  0  0  0  0
  161.6180  205.8840  152.7690 C   0  0  0  0  0  2  0  0  0  0  0  0
  159.4300  210.1460  154.8940 C   0  0  0  0  0  2  0  0  0  0  0  0
  157.9390  213.6040  154.6540 C   0  0  0  0  0  2  0  0  0  0  0  0
  160.7790  208.7690  153.2110 C   0  0  2  0  0  3  0  0  0  0  0  0
  161.8140  208.2750  149.8900 C   0  0  0  0  0  2  0  0  0  0  0  0
  158.5460  212.2540  154.2520 C   0  0  1  0  0  3  0  0  0  0  0  0
  158.8550  214.1730  156.5700 C   0  0  0  0  0  2  0  0  0  0  0  0
  161.1700  206.5350  151.5450 N   0  0  0  0  0  0  0  0  0  0  0  0
  160.2700  211.1830  152.7570 C   0  0  0  0  0  0  0  0  0  0  0  0
  160.3430  212.1800  155.9240 C   0  0  2  0  0  3  0  0  0  0  0  0
  160.5380  210.1530  153.8220 C   0  0  1  0  0  3  0  0  0  0  0  0
  159.9130  213.1590  150.8050 C   0  0  0  0  0  3  0  0  0  0  0  0
  160.7850  206.3630  153.9450 C   0  0  0  0  0  2  0  0  0  0  0  0
  159.2250  213.2430  152.0160 C   0  0  0  0  0  3  0  0  0  0  0  0
  161.1530  207.7880  154.3210 C   0  0  0  0  0  2  0  0  0  0  0  0
  162.0930  207.6450  151.2590 C   0  0  2  0  0  3  0  0  0  0  0  0
  160.7680  212.0830  150.5620 C   0  0  0  0  0  3  0  0  0  0  0  0
  161.7810  209.9510  151.2570 N   0  0  0  0  0  0  0  0  0  0  0  0
  161.3140  205.5250  150.5050 C   0  0  0  0  0  2  0  0  0  0  0  0
  161.1850  204.1410  151.1160 C   0  0  0  0  0  2  0  0  0  0  0  0
  161.0970  202.2340  148.1810 N   0  0  0  0  0  2  0  0  0  0  0  0
  160.8410  201.9030  150.5270 C   0  0  0  0  0  2  0  0  0  0  0  0
  160.4580  203.2670  150.2110 N   0  0  0  0  0  0  0  0  0  0  0  0
  161.2270  201.2370  149.2270 C   0  0  0  0  0  2  0  0  0  0  0  0
  160.9880  203.5050  148.8780 C   0  0  0  0  0  2  0  0  0  0  0  0
  1 18  1  0  0  0  0
  2 27  1  0  0  0  0
  3  7  1  6  0  0  0
  4 15  1  0  0  0  0
  5 11  1  6  0  0  0
  5 19  1  0  0  0  0
  8 16  1  0  0  0  0
  9 27  1  6  0  0  0
  9 13  1  0  0  0  0
 10 22  1  0  0  0  0
 12  8  1  0  0  0  0
 13 20  1  0  0  0  0
 13 24  1  1  0  0  0
 14  2  1  0  0  0  0
 15 12  1  1  0  0  0
 15  5  1  0  0  0  0
 16  3  1  0  0  0  0
 17 10  1  0  0  0  0
 18  4  2  0  0  0  0
 18 20  1  0  0  0  0
 19  6  1  1  0  0  0
 19  3  1  0  0  0  0
 20 11  1  1  0  0  0
 21 23  2  0  0  0  0
 22 24  1  0  0  0  0
 23  4  1  0  0  0  0
 25 14  1  6  0  0  0
 25 17  1  0  0  0  0
 25  9  1  0  0  0  0
 26 21  1  0  0  0  0
 26  1  2  0  0  0  0
 27  1  1  0  0  0  0
 28 29  1  0  0  0  0
 28 17  1  0  0  0  0
 30 34  1  0  0  0  0
 30 33  1  0  0  0  0
 32 31  1  0  0  0  0
 32 29  1  0  0  0  0
 33 31  1  0  0  0  0
 34 32  1  0  0  0  0
M  END
>  <MODEL>
2

>  <REMARK>
 VINA RESULT:      -7.9      1.484      2.107
  Name = 
  3 active torsions:
  status: ('A' for Active; 'I' for Inactive)
    1  A    between atoms: N_17  and  C_28
    2  A    between atoms: C_28  and  C_29
    3  A    between atoms: C_29  and  N_32
                            x       y       z     vdW  Elec       q    Type
                         _______ _______ _______ _____ _____    ______ ____

>  <TORSDO>
F 3

$$$$
=
 OpenBabel11122414373D

 34 40  0  0  1  0  0  0  0  0999 V2000
  160.7180  212.0790  150.9540 C   0  0  0  0  0  0  0  0  0  0  0  0
  162.0830  211.0820  149.2180 O   0  0  0  0  0  0  0  0  0  0  0  0
  159.4100  213.0820  156.6520 C   0  0  1  0  0  3  0  0  0  0  0  0
  159.0210  212.7840  152.5560 C   0  0  0  0  0  0  0  0  0  0  0  0
  158.7980  211.5730  154.7440 N   0  0  2  0  0  0  0  0  0  0  0  0
  160.8740  211.3720  155.8990 O   0  0  0  0  0  1  0  0  0  0  0  0
  160.4380  213.9050  157.1130 O   0  0  0  0  0  1  0  0  0  0  0  0
  158.2150  214.4530  155.0820 O   0  0  0  0  0  0  0  0  0  0  0  0
  161.9660  209.8850  151.2440 C   0  0  1  0  0  3  0  0  0  0  0  0
  161.9930  206.8490  151.2680 C   0  0  0  0  0  2  0  0  0  0  0  0
  159.2650  210.3690  154.0310 C   0  0  0  0  0  2  0  0  0  0  0  0
  157.3690  213.6160  154.3520 C   0  0  0  0  0  2  0  0  0  0  0  0
  160.8020  209.4880  152.1840 C   0  0  2  0  0  3  0  0  0  0  0  0
  161.9480  209.7300  148.8720 C   0  0  0  0  0  2  0  0  0  0  0  0
  158.1430  212.4410  153.7410 C   0  0  1  0  0  3  0  0  0  0  0  0
  158.1730  213.9290  156.3740 C   0  0  0  0  0  2  0  0  0  0  0  0
  161.4910  207.6560  150.1630 N   0  0  0  0  0  0  0  0  0  0  0  0
  160.0100  211.8680  152.1480 C   0  0  0  0  0  0  0  0  0  0  0  0
  159.9050  212.2740  155.4430 C   0  0  2  0  0  3  0  0  0  0  0  0
  160.3830  210.7000  153.0220 C   0  0  1  0  0  3  0  0  0  0  0  0
  159.4510  214.1120  150.5680 C   0  0  0  0  0  3  0  0  0  0  0  0
  161.0870  207.0060  152.4760 C   0  0  0  0  0  2  0  0  0  0  0  0
  158.7360  213.8930  151.7460 C   0  0  0  0  0  3  0  0  0  0  0  0
  161.2710  208.3720  153.1150 C   0  0  0  0  0  2  0  0  0  0  0  0
  162.2770  208.8990  150.1160 C   0  0  2  0  0  3  0  0  0  0  0  0
  160.4350  213.2040  150.1700 C   0  0  0  0  0  3  0  0  0  0  0  0
  161.6870  211.1140  150.5140 N   0  0  0  0  0  0  0  0  0  0  0  0
  161.7760  206.8750  148.9660 C   0  0  0  0  0  2  0  0  0  0  0  0
  160.8750  205.6530  148.9270 C   0  0  0  0  0  2  0  0  0  0  0  0
  161.8710  205.8210  145.5740 N   0  0  0  0  0  2  0  0  0  0  0  0
  161.9700  204.2750  147.3840 C   0  0  0  0  0  2  0  0  0  0  0  0
  160.8110  205.1300  147.5730 N   0  0  0  0  0  0  0  0  0  0  0  0
  162.6320  204.7030  146.0970 C   0  0  0  0  0  2  0  0  0  0  0  0
  161.0250  206.2530  146.6750 C   0  0  0  0  0  2  0  0  0  0  0  0
  1 18  1  0  0  0  0
  2 27  1  0  0  0  0
  3  7  1  6  0  0  0
  4 15  1  0  0  0  0
  5 11  1  6  0  0  0
  5 19  1  0  0  0  0
  8 16  1  0  0  0  0
  9 27  1  6  0  0  0
  9 13  1  0  0  0  0
 10 22  1  0  0  0  0
 12  8  1  0  0  0  0
 13 20  1  0  0  0  0
 13 24  1  1  0  0  0
 14  2  1  0  0  0  0
 15 12  1  1  0  0  0
 15  5  1  0  0  0  0
 16  3  1  0  0  0  0
 17 10  1  0  0  0  0
 18  4  2  0  0  0  0
 18 20  1  0  0  0  0
 19  6  1  1  0  0  0
 19  3  1  0  0  0  0
 20 11  1  6  0  0  0
 21 23  2  0  0  0  0
 22 24  1  0  0  0  0
 23  4  1  0  0  0  0
 25 14  1  6  0  0  0
 25 17  1  0  0  0  0
 25  9  1  0  0  0  0
 26 21  1  0  0  0  0
 26  1  2  0  0  0  0
 27  1  1  0  0  0  0
 28 17  1  0  0  0  0
 29 28  1  0  0  0  0
 30 33  1  0  0  0  0
 30 34  1  0  0  0  0
 31 32  1  0  0  0  0
 32 29  1  0  0  0  0
 33 31  1  0  0  0  0
 34 32  1  0  0  0  0
M  END
>  <MODEL>
3

>  <REMARK>
 VINA RESULT:      -7.7      1.732      2.442
  Name = 
  3 active torsions:
  status: ('A' for Active; 'I' for Inactive)
    1  A    between atoms: N_17  and  C_28
    2  A    between atoms: C_28  and  C_29
    3  A    between atoms: C_29  and  N_32
                            x       y       z     vdW  Elec       q    Type
                         _______ _______ _______ _____ _____    ______ ____

>  <TORSDO>
F 3

$$$$
=
 OpenBabel11122414373D

 34 40  0  0  1  0  0  0  0  0999 V2000
  161.4290  205.1550  152.0080 C   0  0  0  0  0  0  0  0  0  0  0  0
  161.6030  206.0350  154.2590 O   0  0  0  0  0  0  0  0  0  0  0  0
  162.9080  205.1480  146.2640 C   0  0  1  0  0  3  0  0  0  0  0  0
  160.8250  204.4470  149.7550 C   0  0  0  0  0  0  0  0  0  0  0  0
  161.1520  206.0220  147.8270 N   0  0  2  0  0  0  0  0  0  0  0  0
  163.3510  206.9410  147.7540 O   0  0  0  0  0  1  0  0  0  0  0  0
  164.2300  204.7030  146.2380 O   0  0  0  0  0  1  0  0  0  0  0  0
  161.6540  203.2310  146.9890 O   0  0  0  0  0  0  0  0  0  0  0  0
  161.9600  207.5860  152.5210 C   0  0  1  0  0  3  0  0  0  0  0  0
  161.0770  210.4770  152.8030 C   0  0  0  0  0  2  0  0  0  0  0  0
  160.9030  207.1160  148.7860 C   0  0  0  0  0  2  0  0  0  0  0  0
  160.3760  203.6720  147.3370 C   0  0  0  0  0  2  0  0  0  0  0  0
  161.2160  207.9010  151.2010 C   0  0  2  0  0  3  0  0  0  0  0  0
  160.9390  207.2110  154.6350 C   0  0  0  0  0  2  0  0  0  0  0  0
  160.4430  204.8300  148.3400 C   0  0  1  0  0  3  0  0  0  0  0  0
  161.9840  204.0010  145.8730 C   0  0  0  0  0  2  0  0  0  0  0  0
  160.4400  209.3550  153.4810 N   0  0  0  0  0  0  0  0  0  0  0  0
  161.2370  205.4540  150.6490 C   0  0  0  0  0  0  0  0  0  0  0  0
  162.6020  205.7640  147.6370 C   0  0  2  0  0  3  0  0  0  0  0  0
  161.5590  206.8380  150.1530 C   0  0  1  0  0  3  0  0  0  0  0  0
  160.7920  202.8520  151.5860 C   0  0  0  0  0  3  0  0  0  0  0  0
  160.8310  210.3850  151.3080 C   0  0  0  0  0  2  0  0  0  0  0  0
  160.5860  203.1530  150.2390 C   0  0  0  0  0  3  0  0  0  0  0  0
  161.6620  209.2700  150.6930 C   0  0  0  0  0  2  0  0  0  0  0  0
  161.4760  208.3460  153.7570 C   0  0  2  0  0  3  0  0  0  0  0  0
  161.2070  203.8520  152.4690 C   0  0  0  0  0  3  0  0  0  0  0  0
  161.7950  206.1970  152.9270 N   0  0  0  0  0  0  0  0  0  0  0  0
  159.9660  209.9000  154.7470 C   0  0  0  0  0  2  0  0  0  0  0  0
  160.2170  211.3970  154.7850 C   0  0  0  0  0  2  0  0  0  0  0  0
  157.1390  212.9250  154.1150 N   0  0  0  0  0  2  0  0  0  0  0  0
  157.9760  211.0930  155.3870 C   0  0  0  0  0  2  0  0  0  0  0  0
  159.0290  212.0850  155.2620 N   0  0  0  0  0  0  0  0  0  0  0  0
  156.7630  211.6410  154.6740 C   0  0  0  0  0  2  0  0  0  0  0  0
  158.5900  212.9630  154.1890 C   0  0  0  0  0  2  0  0  0  0  0  0
  1 26  1  0  0  0  0
  1 27  1  0  0  0  0
  2 14  1  0  0  0  0
  3  7  1  1  0  0  0
  3 19  1  0  0  0  0
  4 23  2  0  0  0  0
  4 18  1  0  0  0  0
  5 15  1  0  0  0  0
  5 11  1  1  0  0  0
  8 12  1  0  0  0  0
  9 27  1  1  0  0  0
  9 25  1  0  0  0  0
 10 17  1  0  0  0  0
 13 24  1  6  0  0  0
 13  9  1  0  0  0  0
 15 12  1  6  0  0  0
 15  4  1  0  0  0  0
 16  3  1  0  0  0  0
 16  8  1  0  0  0  0
 17 25  1  0  0  0  0
 17 28  1  0  0  0  0
 18  1  2  0  0  0  0
 19  6  1  6  0  0  0
 19  5  1  0  0  0  0
 20 11  1  6  0  0  0
 20 18  1  0  0  0  0
 20 13  1  0  0  0  0
 21 26  2  0  0  0  0
 22 10  1  0  0  0  0
 23 21  1  0  0  0  0
 24 22  1  0  0  0  0
 25 14  1  1  0  0  0
 27  2  1  0  0  0  0
 28 29  1  0  0  0  0
 29 32  1  0  0  0  0
 30 34  1  0  0  0  0
 30 33  1  0  0  0  0
 32 31  1  0  0  0  0
 33 31  1  0  0  0  0
 34 32  1  0  0  0  0
M  END
>  <MODEL>
4

>  <REMARK>
 VINA RESULT:      -6.7      2.473      8.930
  Name = 
  3 active torsions:
  status: ('A' for Active; 'I' for Inactive)
    1  A    between atoms: N_17  and  C_28
    2  A    between atoms: C_28  and  C_29
    3  A    between atoms: C_29  and  N_32
                            x       y       z     vdW  Elec       q    Type
                         _______ _______ _______ _____ _____    ______ ____

>  <TORSDO>
F 3

$$$$
=
 OpenBabel11122414373D

 34 40  0  0  1  0  0  0  0  0999 V2000
  160.8320  207.2930  153.5420 C   0  0  0  0  0  0  0  0  0  0  0  0
  160.8350  205.5920  151.8160 O   0  0  0  0  0  0  0  0  0  0  0  0
  159.2810  212.6240  155.6290 C   0  0  1  0  0  3  0  0  0  0  0  0
  161.2790  209.0430  155.1780 C   0  0  0  0  0  0  0  0  0  0  0  0
  161.1790  211.4530  154.4800 N   0  0  2  0  0  0  0  0  0  0  0  0
  159.1540  211.9970  153.3430 O   0  0  0  0  0  1  0  0  0  0  0  0
  157.9040  212.5370  155.8390 O   0  0  0  0  0  1  0  0  0  0  0  0
  160.2220  211.1320  157.2610 O   0  0  0  0  0  0  0  0  0  0  0  0
  160.7040  207.8190  151.0590 C   0  0  1  0  0  3  0  0  0  0  0  0
  162.0430  208.6700  148.4710 C   0  0  0  0  0  2  0  0  0  0  0  0
  161.6140  210.9990  153.1460 C   0  0  0  0  0  2  0  0  0  0  0  0
  161.5600  210.9260  156.9180 C   0  0  0  0  0  2  0  0  0  0  0  0
  161.4680  209.1170  151.4190 C   0  0  2  0  0  3  0  0  0  0  0  0
  161.6850  205.6830  150.7050 C   0  0  0  0  0  2  0  0  0  0  0  0
  161.6950  210.4720  155.4600 C   0  0  1  0  0  3  0  0  0  0  0  0
  160.0030  212.4780  156.9630 C   0  0  0  0  0  2  0  0  0  0  0  0
  162.5030  207.5700  149.3080 N   0  0  0  0  0  0  0  0  0  0  0  0
  161.0470  208.6470  153.8470 C   0  0  0  0  0  0  0  0  0  0  0  0
  159.7030  211.5970  154.5690 C   0  0  2  0  0  3  0  0  0  0  0  0
  160.9430  209.6700  152.7470 C   0  0  1  0  0  3  0  0  0  0  0  0
  161.0850  206.7280  155.8870 C   0  0  0  0  0  3  0  0  0  0  0  0
  162.2480  209.9900  149.1920 C   0  0  0  0  0  2  0  0  0  0  0  0
  161.3150  208.0710  156.1890 C   0  0  0  0  0  3  0  0  0  0  0  0
  161.2400  210.1510  150.3190 C   0  0  0  0  0  2  0  0  0  0  0  0
  161.3240  206.9670  149.9500 C   0  0  2  0  0  3  0  0  0  0  0  0
  160.8490  206.3400  154.5670 C   0  0  0  0  0  3  0  0  0  0  0  0
  160.6510  206.8850  152.1760 N   0  0  0  0  0  0  0  0  0  0  0  0
  163.0780  206.6040  148.3810 C   0  0  0  0  0  2  0  0  0  0  0  0
  162.2050  206.5030  147.1430 C   0  0  0  0  0  2  0  0  0  0  0  0
  161.2980  203.2880  146.0910 N   0  0  0  0  0  2  0  0  0  0  0  0
  161.8810  205.3820  145.1140 C   0  0  0  0  0  2  0  0  0  0  0  0
  162.5220  205.2870  146.4130 N   0  0  0  0  0  0  0  0  0  0  0  0
  161.1190  204.0960  144.9000 C   0  0  0  0  0  2  0  0  0  0  0  0
  161.8360  204.1970  147.0900 C   0  0  0  0  0  2  0  0  0  0  0  0
  1 18  2  0  0  0  0
  1 26  1  0  0  0  0
  2 27  1  0  0  0  0
  3  7  1  1  0  0  0
  3 16  1  0  0  0  0
  4 15  1  0  0  0  0
  4 23  2  0  0  0  0
  5 11  1  6  0  0  0
  5 19  1  0  0  0  0
  5 15  1  0  0  0  0
  9 13  1  0  0  0  0
  9 27  1  1  0  0  0
 10 22  1  0  0  0  0
 10 17  1  0  0  0  0
 12  8  1  0  0  0  0
 13 24  1  6  0  0  0
 13 20  1  0  0  0  0
 14  2  1  0  0  0  0
 15 12  1  1  0  0  0
 16  8  1  0  0  0  0
 17 25  1  0  0  0  0
 18  4  1  0  0  0  0
 19  6  1  6  0  0  0
 19  3  1  0  0  0  0
 20 11  1  1  0  0  0
 20 18  1  0  0  0  0
 21 23  1  0  0  0  0
 22 24  1  0  0  0  0
 25 14  1  1  0  0  0
 25  9  1  0  0  0  0
 26 21  2  0  0  0  0
 27  1  1  0  0  0  0
 28 17  1  0  0  0  0
 29 28  1  0  0  0  0
 30 34  1  0  0  0  0
 31 32  1  0  0  0  0
 32 34  1  0  0  0  0
 32 29  1  0  0  0  0
 33 31  1  0  0  0  0
 33 30  1  0  0  0  0
M  END
>  <MODEL>
5

>  <REMARK>
 VINA RESULT:      -6.3      1.812      3.606
  Name = 
  3 active torsions:
  status: ('A' for Active; 'I' for Inactive)
    1  A    between atoms: N_17  and  C_28
    2  A    between atoms: C_28  and  C_29
    3  A    between atoms: C_29  and  N_32
                            x       y       z     vdW  Elec       q    Type
                         _______ _______ _______ _____ _____    ______ ____

>  <TORSDO>
F 3

$$$$
=
 OpenBabel11122414373D

 34 40  0  0  1  0  0  0  0  0999 V2000
  161.4180  205.0910  151.7540 C   0  0  0  0  0  0  0  0  0  0  0  0
  161.5710  206.0600  153.9710 O   0  0  0  0  0  0  0  0  0  0  0  0
  162.9460  204.8650  146.0270 C   0  0  1  0  0  3  0  0  0  0  0  0
  160.8360  204.2920  149.5270 C   0  0  0  0  0  0  0  0  0  0  0  0
  161.1730  205.7910  147.5410 N   0  0  2  0  0  0  0  0  0  0  0  0
  163.3680  206.7170  147.4500 O   0  0  0  0  0  1  0  0  0  0  0  0
  164.2690  204.4250  146.0300 O   0  0  0  0  0  1  0  0  0  0  0  0
  161.6940  202.9710  146.8180 O   0  0  0  0  0  0  0  0  0  0  0  0
  161.9350  207.5430  152.1760 C   0  0  1  0  0  3  0  0  0  0  0  0
  161.0370  210.4380  152.3360 C   0  0  0  0  0  2  0  0  0  0  0  0
  160.9110  206.9210  148.4530 C   0  0  0  0  0  2  0  0  0  0  0  0
  160.4120  203.4200  147.1370 C   0  0  0  0  0  2  0  0  0  0  0  0
  161.2010  207.8020  150.8380 C   0  0  2  0  0  3  0  0  0  0  0  0
  160.8980  207.2460  154.2940 C   0  0  0  0  0  2  0  0  0  0  0  0
  160.4640  204.6160  148.0950 C   0  0  1  0  0  3  0  0  0  0  0  0
  162.0290  203.6980  145.6750 C   0  0  0  0  0  2  0  0  0  0  0  0
  160.4000  209.3410  153.0530 N   0  0  0  0  0  0  0  0  0  0  0  0
  161.2370  205.3350  150.3840 C   0  0  0  0  0  0  0  0  0  0  0  0
  162.6250  205.5320  147.3730 C   0  0  2  0  0  3  0  0  0  0  0  0
  161.5570  206.7000  149.8360 C   0  0  1  0  0  3  0  0  0  0  0  0
  160.7950  202.7710  151.4190 C   0  0  0  0  0  3  0  0  0  0  0  0
  160.8040  210.2860  150.8440 C   0  0  0  0  0  2  0  0  0  0  0  0
  160.5990  203.0170  150.0600 C   0  0  0  0  0  3  0  0  0  0  0  0
  161.6450  209.1520  150.2800 C   0  0  0  0  0  2  0  0  0  0  0  0
  161.4370  208.3490  153.3770 C   0  0  2  0  0  3  0  0  0  0  0  0
  161.1980  203.8060  152.2650 C   0  0  0  0  0  3  0  0  0  0  0  0
  161.7730  206.1700  152.6350 N   0  0  0  0  0  0  0  0  0  0  0  0
  159.9120  209.9330  154.2920 C   0  0  0  0  0  2  0  0  0  0  0  0
  160.5930  211.2710  154.5220 C   0  0  0  0  0  2  0  0  0  0  0  0
  161.8960  209.5170  157.2580 N   0  0  0  0  0  2  0  0  0  0  0  0
  162.6560  211.0570  155.6060 C   0  0  0  0  0  2  0  0  0  0  0  0
  161.2380  211.2790  155.8240 N   0  0  0  0  0  0  0  0  0  0  0  0
  163.0800  209.9470  156.5390 C   0  0  0  0  0  2  0  0  0  0  0  0
  160.7780  210.0950  156.5310 C   0  0  0  0  0  2  0  0  0  0  0  0
  1 26  1  0  0  0  0
  1 27  1  0  0  0  0
  2 14  1  0  0  0  0
  3  7  1  1  0  0  0
  3 19  1  0  0  0  0
  4 23  2  0  0  0  0
  4 18  1  0  0  0  0
  5 15  1  0  0  0  0
  5 11  1  1  0  0  0
  8 12  1  0  0  0  0
  9 27  1  1  0  0  0
  9 25  1  0  0  0  0
 10 17  1  0  0  0  0
 13 24  1  6  0  0  0
 13  9  1  0  0  0  0
 15 12  1  6  0  0  0
 15  4  1  0  0  0  0
 16  3  1  0  0  0  0
 16  8  1  0  0  0  0
 17 25  1  0  0  0  0
 17 28  1  0  0  0  0
 18  1  2  0  0  0  0
 19  6  1  6  0  0  0
 19  5  1  0  0  0  0
 20 11  1  6  0  0  0
 20 18  1  0  0  0  0
 20 13  1  0  0  0  0
 21 26  2  0  0  0  0
 22 10  1  0  0  0  0
 23 21  1  0  0  0  0
 24 22  1  0  0  0  0
 25 14  1  1  0  0  0
 27  2  1  0  0  0  0
 28 29  1  0  0  0  0
 29 32  1  0  0  0  0
 31 32  1  0  0  0  0
 31 33  1  0  0  0  0
 32 34  1  0  0  0  0
 33 30  1  0  0  0  0
 34 30  1  0  0  0  0
M  END
>  <MODEL>
6

>  <REMARK>
 VINA RESULT:      -6.1      2.434      8.919
  Name = 
  3 active torsions:
  status: ('A' for Active; 'I' for Inactive)
    1  A    between atoms: N_17  and  C_28
    2  A    between atoms: C_28  and  C_29
    3  A    between atoms: C_29  and  N_32
                            x       y       z     vdW  Elec       q    Type
                         _______ _______ _______ _____ _____    ______ ____

>  <TORSDO>
F 3

$$$$
=
 OpenBabel11122414373D

 34 40  0  0  1  0  0  0  0  0999 V2000
  160.8310  206.5450  152.6410 C   0  0  0  0  0  0  0  0  0  0  0  0
  160.6690  204.6860  151.0950 O   0  0  0  0  0  0  0  0  0  0  0  0
  159.7060  212.1510  154.2190 C   0  0  1  0  0  3  0  0  0  0  0  0
  161.4440  208.4120  154.0830 C   0  0  0  0  0  0  0  0  0  0  0  0
  161.4860  210.7430  153.1500 N   0  0  2  0  0  0  0  0  0  0  0  0
  159.4700  211.3120  152.0110 O   0  0  0  0  0  1  0  0  0  0  0  0
  158.3340  212.1820  154.4680 O   0  0  0  0  0  1  0  0  0  0  0  0
  160.5930  210.7650  155.9700 O   0  0  0  0  0  0  0  0  0  0  0  0
  160.6660  206.8320  150.1220 C   0  0  1  0  0  3  0  0  0  0  0  0
  161.9810  207.3280  147.4310 C   0  0  0  0  0  2  0  0  0  0  0  0
  161.8500  210.1300  151.8580 C   0  0  0  0  0  2  0  0  0  0  0  0
  161.9030  210.4320  155.6190 C   0  0  0  0  0  2  0  0  0  0  0  0
  161.5260  208.1020  150.3320 C   0  0  2  0  0  3  0  0  0  0  0  0
  161.4900  204.6080  149.9610 C   0  0  0  0  0  2  0  0  0  0  0  0
  161.9640  209.8290  154.2110 C   0  0  1  0  0  3  0  0  0  0  0  0
  160.4570  212.0870  155.5440 C   0  0  0  0  0  2  0  0  0  0  0  0
  162.3900  206.2860  148.3640 N   0  0  0  0  0  0  0  0  0  0  0  0
  161.1470  207.9040  152.8040 C   0  0  0  0  0  0  0  0  0  0  0  0
  160.0270  210.9980  153.2570 C   0  0  2  0  0  3  0  0  0  0  0  0
  161.0790  208.8180  151.6100 C   0  0  1  0  0  3  0  0  0  0  0  0
  161.1160  206.1980  155.0250 C   0  0  0  0  0  3  0  0  0  0  0  0
  162.2960  208.6960  148.0120 C   0  0  0  0  0  2  0  0  0  0  0  0
  161.4450  207.5440  155.1850 C   0  0  0  0  0  3  0  0  0  0  0  0
  161.3350  209.0360  149.1400 C   0  0  0  0  0  2  0  0  0  0  0  0
  161.1930  205.8330  149.0900 C   0  0  2  0  0  3  0  0  0  0  0  0
  160.8150  205.6990  153.7560 C   0  0  0  0  0  3  0  0  0  0  0  0
  160.5830  206.0190  151.3270 N   0  0  0  0  0  0  0  0  0  0  0  0
  162.8710  205.1960  147.5250 C   0  0  0  0  0  2  0  0  0  0  0  0
  162.7060  205.5670  146.0620 C   0  0  0  0  0  2  0  0  0  0  0  0
  160.8300  202.6370  145.6690 N   0  0  0  0  0  2  0  0  0  0  0  0
  161.1910  204.6870  144.5110 C   0  0  0  0  0  2  0  0  0  0  0  0
  162.3800  204.3830  145.2860 N   0  0  0  0  0  0  0  0  0  0  0  0
  160.2110  203.5610  144.7380 C   0  0  0  0  0  2  0  0  0  0  0  0
  161.9580  203.3610  146.2320 C   0  0  0  0  0  2  0  0  0  0  0  0
  1 18  2  0  0  0  0
  1 26  1  0  0  0  0
  2 27  1  0  0  0  0
  3  7  1  1  0  0  0
  3 16  1  0  0  0  0
  4 15  1  0  0  0  0
  4 23  2  0  0  0  0
  5 11  1  6  0  0  0
  5 19  1  0  0  0  0
  5 15  1  0  0  0  0
  9 13  1  0  0  0  0
  9 27  1  1  0  0  0
 10 22  1  0  0  0  0
 10 17  1  0  0  0  0
 12  8  1  0  0  0  0
 13 24  1  6  0  0  0
 13 20  1  0  0  0  0
 14  2  1  0  0  0  0
 15 12  1  1  0  0  0
 16  8  1  0  0  0  0
 17 25  1  0  0  0  0
 18  4  1  0  0  0  0
 19  6  1  6  0  0  0
 19  3  1  0  0  0  0
 20 11  1  1  0  0  0
 20 18  1  0  0  0  0
 21 23  1  0  0  0  0
 22 24  1  0  0  0  0
 25 14  1  1  0  0  0
 25  9  1  0  0  0  0
 26 21  2  0  0  0  0
 27  1  1  0  0  0  0
 28 17  1  0  0  0  0
 29 28  1  0  0  0  0
 30 34  1  0  0  0  0
 31 33  1  0  0  0  0
 31 32  1  0  0  0  0
 32 29  1  0  0  0  0
 32 34  1  0  0  0  0
 33 30  1  0  0  0  0
M  END
>  <MODEL>
7

>  <REMARK>
 VINA RESULT:      -5.9      1.883      3.714
  Name = 
  3 active torsions:
  status: ('A' for Active; 'I' for Inactive)
    1  A    between atoms: N_17  and  C_28
    2  A    between atoms: C_28  and  C_29
    3  A    between atoms: C_29  and  N_32
                            x       y       z     vdW  Elec       q    Type
                         _______ _______ _______ _____ _____    ______ ____

>  <TORSDO>
F 3

$$$$
