=
 OpenBabel11122414223D

 34 41  0  0  1  0  0  0  0  0999 V2000
  160.9200  207.8790  154.1590 C   0  0  0  0  0  0  0  0  0  0  0  0
  162.2460  206.1730  152.8210 C   0  0  0  0  0  2  0  0  0  0  0  0
  159.7420  213.4020  155.9060 C   0  0  2  0  0  3  0  0  0  0  0  0
  159.2690  209.4080  155.0570 C   0  0  0  0  0  0  0  0  0  0  0  0
  159.0350  211.7370  154.1000 N   0  0  1  0  0  0  0  0  0  0  0  0
  160.9550  211.6930  155.5830 O   0  0  0  0  0  0  0  0  0  0  0  0
  160.7220  212.5460  156.6770 C   0  0  0  0  0  2  0  0  0  0  0  0
  157.9650  211.8980  157.0060 C   0  0  0  0  0  2  0  0  0  0  0  0
  162.2750  208.4900  152.1110 C   0  0  2  0  0  3  0  0  0  0  0  0
  161.7170  208.9820  149.0300 C   0  0  0  0  0  2  0  0  0  0  0  0
  159.5370  211.1870  152.8320 C   0  0  0  0  0  2  0  0  0  0  0  0
  157.3900  211.0200  155.9160 C   0  0  0  0  0  2  0  0  0  0  0  0
  161.1300  209.4680  151.7700 C   0  0  1  0  0  3  0  0  0  0  0  0
  163.0110  206.2380  151.5070 C   0  0  0  0  0  2  0  0  0  0  0  0
  158.4190  210.6320  154.8590 C   0  0  2  0  0  3  0  0  0  0  0  0
  158.3100  213.2740  156.4490 C   0  0  0  0  0  2  0  0  0  0  0  0
  161.8810  207.6020  149.6930 C   0  0  1  0  0  3  0  0  0  0  0  0
  160.2520  209.1130  154.0990 C   0  0  0  0  0  0  0  0  0  0  0  0
  160.1300  212.4850  154.7640 C   0  0  2  0  0  3  0  0  0  0  0  0
  160.6490  210.1410  153.0610 C   0  0  2  0  0  3  0  0  0  0  0  0
  159.6270  207.3120  156.1170 C   0  0  0  0  0  3  0  0  0  0  0  0
  162.4120  209.9850  149.7280 O   0  0  0  0  0  0  0  0  0  0  0  0
  158.9740  208.5020  156.0290 N   0  0  0  0  0  0  0  0  0  0  0  0
  161.5420  210.5070  150.7070 C   0  0  0  0  0  2  0  0  0  0  0  0
  162.7940  207.6380  150.9410 C   0  0  1  0  0  3  0  0  0  0  0  0
  160.6050  206.9750  155.1780 C   0  0  0  0  0  3  0  0  0  0  0  0
  161.8620  207.5380  153.1290 N   0  0  0  0  0  0  0  0  0  0  0  0
  160.6190  207.0870  150.0120 O   0  0  0  0  0  0  0  0  0  0  0  0
  160.2440  206.3200  148.9060 C   0  0  0  0  0  2  0  0  0  0  0  0
  161.2950  202.8240  148.5960 C   0  0  0  0  0  3  0  0  0  0  0  0
  160.3450  204.2880  150.3920 C   0  0  0  0  0  3  0  0  0  0  0  0
  160.5740  204.8900  149.1590 C   0  0  0  0  0  0  0  0  0  0  0  0
  160.8270  202.6890  150.2020 S   0  0  0  0  0  0  0  0  0  0  0  0
  161.0880  204.0920  148.1830 N   0  0  0  0  0  0  0  0  0  0  0  0
  1 26  1  0  0  0  0
  2 27  1  0  0  0  0
  3 16  1  1  0  0  0
  3  7  1  0  0  0  0
  4 23  2  0  0  0  0
  5 11  1  6  0  0  0
  5 19  1  0  0  0  0
  5 15  1  0  0  0  0
  6  7  1  0  0  0  0
  9 27  1  1  0  0  0
 10 17  1  0  0  0  0
 10 22  1  0  0  0  0
 12  8  1  0  0  0  0
 13 24  1  6  0  0  0
 13  9  1  0  0  0  0
 13 20  1  0  0  0  0
 14  2  1  0  0  0  0
 15  4  1  0  0  0  0
 15 12  1  1  0  0  0
 16  8  1  0  0  0  0
 17 28  1  1  0  0  0
 17 25  1  0  0  0  0
 18  1  2  0  0  0  0
 18  4  1  0  0  0  0
 19  6  1  1  0  0  0
 19  3  1  0  0  0  0
 20 11  1  6  0  0  0
 20 18  1  0  0  0  0
 22 24  1  0  0  0  0
 23 21  1  0  0  0  0
 25 14  1  1  0  0  0
 25  9  1  0  0  0  0
 26 21  2  0  0  0  0
 27  1  1  0  0  0  0
 29 32  1  0  0  0  0
 29 28  1  0  0  0  0
 30 33  1  0  0  0  0
 32 31  2  0  0  0  0
 33 31  1  0  0  0  0
 34 30  2  0  0  0  0
 34 32  1  0  0  0  0
M  END
>  <MODEL>
1

>  <REMARK>
 VINA RESULT:      -6.0      0.000      0.000
  Name = 
  3 active torsions:
  status: ('A' for Active; 'I' for Inactive)
    1  A    between atoms: C_17  and  O_28
    2  A    between atoms: O_28  and  C_29
    3  A    between atoms: C_29  and  C_32
                            x       y       z     vdW  Elec       q    Type
                         _______ _______ _______ _____ _____    ______ ____

>  <TORSDO>
F 3

$$$$
=
 OpenBabel11122414223D

 34 41  0  0  1  0  0  0  0  0999 V2000
  161.4970  210.2070  151.3420 C   0  0  0  0  0  0  0  0  0  0  0  0
  161.5620  211.7210  149.3020 C   0  0  0  0  0  2  0  0  0  0  0  0
  161.3000  209.2750  157.1760 C   0  0  2  0  0  3  0  0  0  0  0  0
  160.9160  208.6750  153.1270 C   0  0  0  0  0  0  0  0  0  0  0  0
  159.7130  209.5170  155.1860 N   0  0  1  0  0  0  0  0  0  0  0  0
  162.0640  210.0850  155.3710 O   0  0  0  0  0  0  0  0  0  0  0  0
  162.6280  209.4000  156.4630 C   0  0  0  0  0  2  0  0  0  0  0  0
  161.2190  206.9520  156.0670 C   0  0  0  0  0  2  0  0  0  0  0  0
  160.7150  212.6130  151.3910 C   0  0  2  0  0  3  0  0  0  0  0  0
  157.9510  214.1510  151.1990 C   0  0  0  0  0  2  0  0  0  0  0  0
  159.1450  210.5720  154.3340 C   0  0  0  0  0  2  0  0  0  0  0  0
  160.1490  207.0080  154.9990 C   0  0  0  0  0  2  0  0  0  0  0  0
  159.5910  212.1230  152.3300 C   0  0  1  0  0  3  0  0  0  0  0  0
  161.0400  213.1230  149.0220 C   0  0  0  0  0  2  0  0  0  0  0  0
  160.0540  208.3710  154.3210 C   0  0  2  0  0  3  0  0  0  0  0  0
  160.8210  207.8180  157.2570 C   0  0  0  0  0  2  0  0  0  0  0  0
  158.7530  213.6140  150.0000 C   0  0  1  0  0  3  0  0  0  0  0  0
  160.8540  209.9610  152.5660 C   0  0  0  0  0  0  0  0  0  0  0  0
  160.8080  210.0970  156.0020 C   0  0  2  0  0  3  0  0  0  0  0  0
  160.1720  211.0930  153.3060 C   0  0  2  0  0  3  0  0  0  0  0  0
  162.2430  207.9110  151.3120 C   0  0  0  0  0  3  0  0  0  0  0  0
  158.7810  214.4510  152.2930 O   0  0  0  0  0  0  0  0  0  0  0  0
  161.5950  207.6860  152.4860 N   0  0  0  0  0  0  0  0  0  0  0  0
  158.9000  213.2830  153.0740 C   0  0  0  0  0  2  0  0  0  0  0  0
  160.2750  213.5640  150.2660 C   0  0  1  0  0  3  0  0  0  0  0  0
  162.1980  209.1720  150.7140 C   0  0  0  0  0  3  0  0  0  0  0  0
  161.3600  211.4940  150.7210 N   0  0  0  0  0  0  0  0  0  0  0  0
  158.2660  212.3500  149.6440 O   0  0  0  0  0  0  0  0  0  0  0  0
  157.0120  212.5850  149.0750 C   0  0  0  0  0  2  0  0  0  0  0  0
  158.0030  212.9210  145.5640 C   0  0  0  0  0  3  0  0  0  0  0  0
  156.5980  214.2040  147.1910 C   0  0  0  0  0  3  0  0  0  0  0  0
  157.1830  213.0350  147.6670 C   0  0  0  0  0  0  0  0  0  0  0  0
  157.0870  214.3260  145.5880 S   0  0  0  0  0  0  0  0  0  0  0  0
  157.9490  212.3400  146.7820 N   0  0  0  0  0  0  0  0  0  0  0  0
  1 18  1  0  0  0  0
  2 27  1  0  0  0  0
  3  7  1  6  0  0  0
  3 16  1  0  0  0  0
  4 15  1  0  0  0  0
  5 11  1  6  0  0  0
  5 19  1  0  0  0  0
  6  7  1  0  0  0  0
  8 16  1  0  0  0  0
  9 27  1  6  0  0  0
  9 13  1  0  0  0  0
 10 22  1  0  0  0  0
 12  8  1  0  0  0  0
 13 24  1  1  0  0  0
 13 20  1  0  0  0  0
 14  2  1  0  0  0  0
 15 12  1  1  0  0  0
 15  5  1  0  0  0  0
 17 28  1  1  0  0  0
 17 25  1  0  0  0  0
 17 10  1  0  0  0  0
 18  4  2  0  0  0  0
 18 20  1  0  0  0  0
 19  6  1  6  0  0  0
 19  3  1  0  0  0  0
 20 11  1  6  0  0  0
 21 23  2  0  0  0  0
 22 24  1  0  0  0  0
 23  4  1  0  0  0  0
 25 14  1  6  0  0  0
 25  9  1  0  0  0  0
 26 21  1  0  0  0  0
 26  1  2  0  0  0  0
 27  1  1  0  0  0  0
 29 28  1  0  0  0  0
 30 33  1  0  0  0  0
 30 34  2  0  0  0  0
 31 32  2  0  0  0  0
 32 29  1  0  0  0  0
 33 31  1  0  0  0  0
 34 32  1  0  0  0  0
M  END
>  <MODEL>
2

>  <REMARK>
 VINA RESULT:      -3.7      3.990      6.107
  Name = 
  3 active torsions:
  status: ('A' for Active; 'I' for Inactive)
    1  A    between atoms: C_17  and  O_28
    2  A    between atoms: O_28  and  C_29
    3  A    between atoms: C_29  and  C_32
                            x       y       z     vdW  Elec       q    Type
                         _______ _______ _______ _____ _____    ______ ____

>  <TORSDO>
F 3

$$$$
=
 OpenBabel11122414223D

 34 41  0  0  1  0  0  0  0  0999 V2000
  157.8690  212.7970  137.7480 C   0  0  0  0  0  0  0  0  0  0  0  0
  160.2560  213.3660  137.0870 C   0  0  0  0  0  2  0  0  0  0  0  0
  153.3350  209.0450  138.3040 C   0  0  2  0  0  3  0  0  0  0  0  0
  155.7930  212.2880  138.8890 C   0  0  0  0  0  0  0  0  0  0  0  0
  155.3110  209.9290  139.6640 N   0  0  1  0  0  0  0  0  0  0  0  0
  154.8840  210.0690  137.2800 O   0  0  0  0  0  0  0  0  0  0  0  0
  153.5170  209.8460  137.0340 C   0  0  0  0  0  2  0  0  0  0  0  0
  152.5470  211.2880  139.2960 C   0  0  0  0  0  2  0  0  0  0  0  0
  159.6840  211.0500  137.5140 C   0  0  2  0  0  3  0  0  0  0  0  0
  161.6550  209.4890  139.4450 C   0  0  0  0  0  2  0  0  0  0  0  0
  156.7660  209.7430  139.7670 C   0  0  0  0  0  2  0  0  0  0  0  0
  153.6220  211.7500  140.2550 C   0  0  0  0  0  2  0  0  0  0  0  0
  159.0430  210.3660  138.7420 C   0  0  1  0  0  3  0  0  0  0  0  0
  161.5420  212.5570  137.0120 C   0  0  0  0  0  2  0  0  0  0  0  0
  155.0280  211.3710  139.8030 C   0  0  2  0  0  3  0  0  0  0  0  0
  152.4370  209.7670  139.3210 C   0  0  0  0  0  2  0  0  0  0  0  0
  161.8740  210.9200  138.9190 C   0  0  1  0  0  3  0  0  0  0  0  0
  157.0590  211.8800  138.4370 C   0  0  0  0  0  0  0  0  0  0  0  0
  154.8300  209.2620  138.4290 C   0  0  2  0  0  3  0  0  0  0  0  0
  157.5170  210.4480  138.6160 C   0  0  2  0  0  3  0  0  0  0  0  0
  156.1260  214.4530  137.9710 C   0  0  0  0  0  3  0  0  0  0  0  0
  160.8720  208.7220  138.5640 O   0  0  0  0  0  0  0  0  0  0  0  0
  155.3650  213.5590  138.6570 N   0  0  0  0  0  0  0  0  0  0  0  0
  159.5200  208.9100  138.9180 C   0  0  0  0  0  2  0  0  0  0  0  0
  161.2170  211.1640  137.5410 C   0  0  1  0  0  3  0  0  0  0  0  0
  157.3950  214.0930  137.5130 C   0  0  0  0  0  3  0  0  0  0  0  0
  159.1980  212.4120  137.3640 N   0  0  0  0  0  0  0  0  0  0  0  0
  161.4060  211.8400  139.8660 O   0  0  0  0  0  0  0  0  0  0  0  0
  162.4210  211.9340  140.8210 C   0  0  0  0  0  2  0  0  0  0  0  0
  161.8570  212.9580  144.2930 C   0  0  0  0  0  3  0  0  0  0  0  0
  160.4900  211.9790  142.4380 C   0  0  0  0  0  3  0  0  0  0  0  0
  161.8240  212.2440  142.1500 C   0  0  0  0  0  0  0  0  0  0  0  0
  160.2780  212.4500  144.0370 S   0  0  0  0  0  0  0  0  0  0  0  0
  162.5670  212.7740  143.1600 N   0  0  0  0  0  0  0  0  0  0  0  0
  1 18  1  0  0  0  0
  2 27  1  0  0  0  0
  3  7  1  6  0  0  0
  3 19  1  0  0  0  0
  3 16  1  0  0  0  0
  4 15  1  0  0  0  0
  5 11  1  6  0  0  0
  5 15  1  0  0  0  0
  7  6  1  0  0  0  0
  8 16  1  0  0  0  0
  8 12  1  0  0  0  0
  9 27  1  1  0  0  0
  9 25  1  0  0  0  0
  9 13  1  0  0  0  0
 13 24  1  6  0  0  0
 14  2  1  0  0  0  0
 15 12  1  6  0  0  0
 17 10  1  0  0  0  0
 17 28  1  1  0  0  0
 18 20  1  0  0  0  0
 18  4  2  0  0  0  0
 19  6  1  6  0  0  0
 19  5  1  0  0  0  0
 20 13  1  0  0  0  0
 20 11  1  1  0  0  0
 21 23  2  0  0  0  0
 22 24  1  0  0  0  0
 22 10  1  0  0  0  0
 23  4  1  0  0  0  0
 25 14  1  1  0  0  0
 25 17  1  0  0  0  0
 26  1  2  0  0  0  0
 26 21  1  0  0  0  0
 27  1  1  0  0  0  0
 28 29  1  0  0  0  0
 29 32  1  0  0  0  0
 31 33  1  0  0  0  0
 32 31  2  0  0  0  0
 32 34  1  0  0  0  0
 33 30  1  0  0  0  0
 34 30  2  0  0  0  0
M  END
>  <MODEL>
3

>  <REMARK>
 VINA RESULT:      -3.5     11.685     15.332
  Name = 
  3 active torsions:
  status: ('A' for Active; 'I' for Inactive)
    1  A    between atoms: C_17  and  O_28
    2  A    between atoms: O_28  and  C_29
    3  A    between atoms: C_29  and  C_32
                            x       y       z     vdW  Elec       q    Type
                         _______ _______ _______ _____ _____    ______ ____

>  <TORSDO>
F 3

$$$$
=
 OpenBabel11122414223D

 34 41  0  0  1  0  0  0  0  0999 V2000
  160.4700  210.8480  151.5030 C   0  0  0  0  0  0  0  0  0  0  0  0
  159.6870  209.8810  153.7190 C   0  0  0  0  0  2  0  0  0  0  0  0
  159.6380  214.0000  146.5730 C   0  0  2  0  0  3  0  0  0  0  0  0
  161.5020  212.1110  149.7120 C   0  0  0  0  0  0  0  0  0  0  0  0
  160.4980  214.3080  148.9610 N   0  0  1  0  0  0  0  0  0  0  0  0
  159.2090  212.4920  147.9990 O   0  0  0  0  0  0  0  0  0  0  0  0
  159.3300  212.5200  146.5980 C   0  0  0  0  0  2  0  0  0  0  0  0
  162.0930  213.2230  146.5320 C   0  0  0  0  0  2  0  0  0  0  0  0
  158.5200  211.7980  152.8060 C   0  0  2  0  0  3  0  0  0  0  0  0
  158.0340  214.1920  154.8250 C   0  0  0  0  0  2  0  0  0  0  0  0
  159.9710  214.4510  150.3260 C   0  0  0  0  0  2  0  0  0  0  0  0
  162.6880  213.5630  147.8800 C   0  0  0  0  0  2  0  0  0  0  0  0
  159.0280  213.1860  152.3590 C   0  0  1  0  0  3  0  0  0  0  0  0
  158.6630  210.3260  154.7530 C   0  0  0  0  0  2  0  0  0  0  0  0
  161.6870  213.4350  149.0230 C   0  0  2  0  0  3  0  0  0  0  0  0
  161.0790  214.2840  146.1210 C   0  0  0  0  0  2  0  0  0  0  0  0
  158.6300  212.8220  155.1990 C   0  0  1  0  0  3  0  0  0  0  0  0
  160.5260  212.0100  150.7170 C   0  0  0  0  0  0  0  0  0  0  0  0
  159.3950  213.8830  148.0640 C   0  0  2  0  0  3  0  0  0  0  0  0
  159.4910  213.1000  150.8990 C   0  0  2  0  0  3  0  0  0  0  0  0
  162.3260  209.9490  150.2480 C   0  0  0  0  0  3  0  0  0  0  0  0
  157.1820  214.1060  153.7100 O   0  0  0  0  0  0  0  0  0  0  0  0
  162.3790  211.0910  149.5110 N   0  0  0  0  0  0  0  0  0  0  0  0
  157.9700  214.2900  152.5550 C   0  0  0  0  0  2  0  0  0  0  0  0
  158.1290  211.6780  154.2880 C   0  0  1  0  0  3  0  0  0  0  0  0
  161.3770  209.8100  151.2630 C   0  0  0  0  0  3  0  0  0  0  0  0
  159.5320  210.7770  152.5890 N   0  0  0  0  0  0  0  0  0  0  0  0
  160.0280  212.9030  155.1770 O   0  0  0  0  0  0  0  0  0  0  0  0
  160.4240  212.8020  156.5130 C   0  0  0  0  0  2  0  0  0  0  0  0
  163.0350  210.2330  156.5500 C   0  0  0  0  0  3  0  0  0  0  0  0
  160.6400  210.4060  157.2590 C   0  0  0  0  0  3  0  0  0  0  0  0
  161.2060  211.5500  156.7060 C   0  0  0  0  0  0  0  0  0  0  0  0
  161.8630  209.2540  157.2460 S   0  0  0  0  0  0  0  0  0  0  0  0
  162.5070  211.4540  156.3180 N   0  0  0  0  0  0  0  0  0  0  0  0
  1 27  1  0  0  0  0
  2 14  1  0  0  0  0
  3 16  1  1  0  0  0
  3  7  1  0  0  0  0
  3 19  1  0  0  0  0
  4 18  1  0  0  0  0
  5 15  1  0  0  0  0
  5 11  1  1  0  0  0
  7  6  1  0  0  0  0
  8 12  1  0  0  0  0
  9 27  1  1  0  0  0
  9 25  1  0  0  0  0
 10 17  1  0  0  0  0
 13 24  1  6  0  0  0
 13  9  1  0  0  0  0
 15 12  1  6  0  0  0
 15  4  1  0  0  0  0
 16  8  1  0  0  0  0
 17 28  1  6  0  0  0
 18 20  1  0  0  0  0
 18  1  2  0  0  0  0
 19  6  1  6  0  0  0
 19  5  1  0  0  0  0
 20 11  1  1  0  0  0
 20 13  1  0  0  0  0
 21 26  2  0  0  0  0
 22 10  1  0  0  0  0
 23  4  2  0  0  0  0
 23 21  1  0  0  0  0
 24 22  1  0  0  0  0
 25 14  1  1  0  0  0
 25 17  1  0  0  0  0
 26  1  1  0  0  0  0
 27  2  1  0  0  0  0
 28 29  1  0  0  0  0
 29 32  1  0  0  0  0
 30 33  1  0  0  0  0
 32 31  2  0  0  0  0
 33 31  1  0  0  0  0
 34 30  2  0  0  0  0
 34 32  1  0  0  0  0
M  END
>  <MODEL>
4

>  <REMARK>
 VINA RESULT:      -3.0      3.738      7.797
  Name = 
  3 active torsions:
  status: ('A' for Active; 'I' for Inactive)
    1  A    between atoms: C_17  and  O_28
    2  A    between atoms: O_28  and  C_29
    3  A    between atoms: C_29  and  C_32
                            x       y       z     vdW  Elec       q    Type
                         _______ _______ _______ _____ _____    ______ ____

>  <TORSDO>
F 3

$$$$
