=
 OpenBabel11122414033D

 28 32  0  0  1  0  0  0  0  0999 V2000
  161.5970  211.9290  149.6160 C   0  0  0  0  0  0  0  0  0  0  0  0
  158.6950  213.8300  152.9270 O   0  0  0  0  0  0  0  0  0  0  0  0
  160.4720  206.6320  152.6710 O   0  0  0  0  0  0  0  0  0  0  0  0
  159.4890  213.7490  149.2660 C   0  0  0  0  0  3  0  0  0  0  0  0
  161.3490  208.5040  153.7870 N   0  0  0  0  0  0  0  0  0  0  0  0
  162.6870  210.9070  149.6050 C   0  0  0  0  0  2  0  0  0  0  0  0
  157.8110  211.5380  153.1430 O   0  0  0  0  0  0  0  0  0  0  0  0
  158.9190  212.4760  153.5380 S   0  0  0  0  0  0  0  0  0  0  0  0
  160.0860  212.1630  156.0160 C   0  0  0  0  0  0  0  0  0  0  0  0
  160.4630  211.8450  153.0490 N   0  0  1  0  0  0  0  0  0  0  0  0
  161.3640  207.7780  148.2370 O   0  0  0  0  0  0  0  0  0  0  0  0
  161.4630  209.9890  151.9410 C   0  0  1  0  0  3  0  0  0  0  0  0
  161.2470  211.4820  155.3430 C   0  0  0  0  0  2  0  0  0  0  0  0
  158.9640  212.6420  155.2620 N   0  0  0  0  0  2  0  0  0  0  0  0
  161.8830  208.5450  149.0890 C   0  0  0  0  0  0  0  0  0  0  0  0
  160.5300  211.9600  150.5660 C   0  0  0  0  0  0  0  0  0  0  0  0
  160.8950  207.8180  152.6400 C   0  0  0  0  0  0  0  0  0  0  0  0
  160.1150  212.3380  157.2610 O   0  0  0  0  0  0  0  0  0  0  0  0
  162.0390  208.0630  150.4950 C   0  0  0  0  0  2  0  0  0  0  0  0
  159.4810  212.8650  150.3440 C   0  0  0  0  0  3  0  0  0  0  0  0
  161.5910  212.8260  148.5380 C   0  0  0  0  0  3  0  0  0  0  0  0
  160.5510  213.7370  148.3670 C   0  0  0  0  0  3  0  0  0  0  0  0
  162.3330  209.8400  148.6800 N   0  0  0  0  0  2  0  0  0  0  0  0
  161.7390  209.8570  153.4420 C   0  0  1  0  0  3  0  0  0  0  0  0
  160.9690  208.6380  151.4110 C   0  0  2  0  0  3  0  0  0  0  0  0
  160.7710  210.8390  154.0520 C   0  0  2  0  0  3  0  0  0  0  0  0
  161.5000  207.9130  155.1070 C   0  0  0  0  0  1  0  0  0  0  0  0
  160.3980  211.0740  151.8040 C   0  0  2  0  0  3  0  0  0  0  0  0
  1 16  1  0  0  0  0
  2  8  2  0  0  0  0
  4 20  1  0  0  0  0
  5 27  1  0  0  0  0
  6  1  1  0  0  0  0
  7  8  2  0  0  0  0
  8 14  1  0  0  0  0
  9 18  2  0  0  0  0
 10  8  1  1  0  0  0
 10 26  1  0  0  0  0
 11 15  2  0  0  0  0
 12 24  1  0  0  0  0
 13  9  1  0  0  0  0
 14  9  1  0  0  0  0
 15 19  1  0  0  0  0
 16 28  1  0  0  0  0
 17  3  2  0  0  0  0
 17  5  1  0  0  0  0
 19 25  1  0  0  0  0
 20 16  2  0  0  0  0
 21  1  2  0  0  0  0
 22 21  1  0  0  0  0
 22  4  2  0  0  0  0
 23 15  1  0  0  0  0
 23  6  1  0  0  0  0
 24  5  1  0  0  0  0
 24 26  1  0  0  0  0
 25 12  1  0  0  0  0
 25 17  1  0  0  0  0
 26 13  1  0  0  0  0
 28 12  1  0  0  0  0
 28 10  1  0  0  0  0
M  END
>  <MODEL>
1

>  <REMARK>
 VINA RESULT:      -5.0      0.000      0.000
  Name = 
  0 active torsions:
  status: ('A' for Active; 'I' for Inactive)
                            x       y       z     vdW  Elec       q    Type
                         _______ _______ _______ _____ _____    ______ ____

>  <TORSDO>
F 0

$$$$
=
 OpenBabel11122414033D

 28 32  0  0  1  0  0  0  0  0999 V2000
  161.0830  207.5970  149.9800 C   0  0  0  0  0  0  0  0  0  0  0  0
  162.5220  205.9230  145.7230 O   0  0  0  0  0  0  0  0  0  0  0  0
  162.4690  201.8560  151.9270 O   0  0  0  0  0  0  0  0  0  0  0  0
  162.7660  208.8150  148.0930 C   0  0  0  0  0  3  0  0  0  0  0  0
  160.9450  202.1990  150.1720 N   0  0  0  0  0  0  0  0  0  0  0  0
  160.2820  207.0680  151.1250 C   0  0  0  0  0  2  0  0  0  0  0  0
  163.7880  204.2760  147.0510 O   0  0  0  0  0  0  0  0  0  0  0  0
  162.4410  204.6320  146.4850 S   0  0  0  0  0  0  0  0  0  0  0  0
  160.7530  202.5880  145.7260 C   0  0  0  0  0  0  0  0  0  0  0  0
  161.2550  204.7550  147.7500 N   0  0  1  0  0  0  0  0  0  0  0  0
  162.5610  206.1160  153.8280 O   0  0  0  0  0  0  0  0  0  0  0  0
  161.0090  204.5690  150.1120 C   0  0  1  0  0  3  0  0  0  0  0  0
  159.9870  202.7940  147.0050 C   0  0  0  0  0  2  0  0  0  0  0  0
  161.9050  203.3820  145.4110 N   0  0  0  0  0  2  0  0  0  0  0  0
  161.6820  205.9600  152.9410 C   0  0  0  0  0  0  0  0  0  0  0  0
  161.8270  206.7820  149.0720 C   0  0  0  0  0  0  0  0  0  0  0  0
  161.8230  202.6430  151.1830 C   0  0  0  0  0  0  0  0  0  0  0  0
  160.3570  201.7190  144.9080 O   0  0  0  0  0  0  0  0  0  0  0  0
  161.2660  204.5720  152.5750 C   0  0  0  0  0  2  0  0  0  0  0  0
  162.6770  207.4260  148.1590 C   0  0  0  0  0  3  0  0  0  0  0  0
  161.1820  208.9930  149.8980 C   0  0  0  0  0  3  0  0  0  0  0  0
  162.0090  209.6010  148.9560 C   0  0  0  0  0  3  0  0  0  0  0  0
  161.0890  207.1120  152.3350 N   0  0  0  0  0  2  0  0  0  0  0  0
  160.3790  203.3310  149.4650 C   0  0  1  0  0  3  0  0  0  0  0  0
  161.9040  204.1170  151.2710 C   0  0  2  0  0  3  0  0  0  0  0  0
  160.9160  203.3750  148.0570 C   0  0  2  0  0  3  0  0  0  0  0  0
  160.5800  200.8120  149.9340 C   0  0  0  0  0  1  0  0  0  0  0  0
  161.8130  205.2550  149.0100 C   0  0  2  0  0  3  0  0  0  0  0  0
  1  6  1  0  0  0  0
  2  8  2  0  0  0  0
  4 20  2  0  0  0  0
  4 22  1  0  0  0  0
  5 17  1  0  0  0  0
  6 23  1  0  0  0  0
  8  7  2  0  0  0  0
  9 13  1  0  0  0  0
 10  8  1  6  0  0  0
 10 26  1  0  0  0  0
 10 28  1  0  0  0  0
 12 25  1  0  0  0  0
 13 26  1  0  0  0  0
 14  9  1  0  0  0  0
 14  8  1  0  0  0  0
 15 11  2  0  0  0  0
 16  1  2  0  0  0  0
 17 25  1  0  0  0  0
 17  3  2  0  0  0  0
 18  9  2  0  0  0  0
 19 15  1  0  0  0  0
 20 16  1  0  0  0  0
 21  1  1  0  0  0  0
 22 21  2  0  0  0  0
 23 15  1  0  0  0  0
 24 12  1  0  0  0  0
 24  5  1  0  0  0  0
 25 19  1  0  0  0  0
 26 24  1  0  0  0  0
 27  5  1  0  0  0  0
 28 16  1  0  0  0  0
 28 12  1  0  0  0  0
M  END
>  <MODEL>
2

>  <REMARK>
 VINA RESULT:      -3.9      4.899      8.416
  Name = 
  0 active torsions:
  status: ('A' for Active; 'I' for Inactive)
                            x       y       z     vdW  Elec       q    Type
                         _______ _______ _______ _____ _____    ______ ____

>  <TORSDO>
F 0

$$$$
=
 OpenBabel11122414033D

 28 32  0  0  1  0  0  0  0  0999 V2000
  160.5990  209.0640  153.8580 C   0  0  0  0  0  0  0  0  0  0  0  0
  158.6570  211.8280  157.2610 O   0  0  0  0  0  0  0  0  0  0  0  0
  160.2870  214.2500  150.4410 O   0  0  0  0  0  0  0  0  0  0  0  0
  161.3150  209.2810  156.5620 C   0  0  0  0  0  3  0  0  0  0  0  0
  158.3650  213.3550  151.4520 N   0  0  0  0  0  0  0  0  0  0  0  0
  160.4120  208.8840  152.3860 C   0  0  0  0  0  2  0  0  0  0  0  0
  159.6200  213.6990  155.9740 O   0  0  0  0  0  0  0  0  0  0  0  0
  158.4750  212.7280  156.0720 S   0  0  0  0  0  0  0  0  0  0  0  0
  155.9820  213.5470  155.2260 C   0  0  0  0  0  0  0  0  0  0  0  0
  158.3410  211.7840  154.6190 N   0  0  1  0  0  0  0  0  0  0  0  0
  163.1480  210.5680  150.6290 O   0  0  0  0  0  0  0  0  0  0  0  0
  159.3610  211.4690  152.4900 C   0  0  1  0  0  3  0  0  0  0  0  0
  156.1980  212.7710  153.9550 C   0  0  0  0  0  2  0  0  0  0  0  0
  156.9840  213.5930  156.2510 N   0  0  0  0  0  2  0  0  0  0  0  0
  161.9600  210.3240  150.9650 C   0  0  0  0  0  0  0  0  0  0  0  0
  160.3150  210.2730  154.5640 C   0  0  0  0  0  0  0  0  0  0  0  0
  159.7390  213.3490  151.1310 C   0  0  0  0  0  0  0  0  0  0  0  0
  154.8900  214.1450  155.4000 O   0  0  0  0  0  0  0  0  0  0  0  0
  160.8820  211.2710  150.5450 C   0  0  0  0  0  2  0  0  0  0  0  0
  160.7110  210.3530  155.9080 C   0  0  0  0  0  3  0  0  0  0  0  0
  161.2060  207.9940  154.5300 C   0  0  0  0  0  3  0  0  0  0  0  0
  161.5540  208.0950  155.8750 C   0  0  0  0  0  3  0  0  0  0  0  0
  161.6760  209.1350  151.7090 N   0  0  0  0  0  2  0  0  0  0  0  0
  158.0380  212.2120  152.2820 C   0  0  1  0  0  3  0  0  0  0  0  0
  160.4560  212.1810  151.6870 C   0  0  2  0  0  3  0  0  0  0  0  0
  157.6880  212.6740  153.6740 C   0  0  2  0  0  3  0  0  0  0  0  0
  157.3940  214.3130  150.9470 C   0  0  0  0  0  1  0  0  0  0  0  0
  159.6390  211.5160  153.9900 C   0  0  2  0  0  3  0  0  0  0  0  0
  1 21  2  0  0  0  0
  1 16  1  0  0  0  0
  3 17  2  0  0  0  0
  5 24  1  0  0  0  0
  6  1  1  0  0  0  0
  7  8  2  0  0  0  0
  8 14  1  0  0  0  0
  8  2  2  0  0  0  0
  9 18  2  0  0  0  0
  9 14  1  0  0  0  0
 10  8  1  1  0  0  0
 11 15  2  0  0  0  0
 12 28  1  0  0  0  0
 13  9  1  0  0  0  0
 15 23  1  0  0  0  0
 16 20  2  0  0  0  0
 17  5  1  0  0  0  0
 17 25  1  0  0  0  0
 19 15  1  0  0  0  0
 19 25  1  0  0  0  0
 20  4  1  0  0  0  0
 21 22  1  0  0  0  0
 22  4  2  0  0  0  0
 23  6  1  0  0  0  0
 24 12  1  0  0  0  0
 24 26  1  0  0  0  0
 25 12  1  0  0  0  0
 26 13  1  0  0  0  0
 26 10  1  0  0  0  0
 27  5  1  0  0  0  0
 28 16  1  0  0  0  0
 28 10  1  0  0  0  0
M  END
>  <MODEL>
3

>  <REMARK>
 VINA RESULT:      -3.8      2.410      5.285
  Name = 
  0 active torsions:
  status: ('A' for Active; 'I' for Inactive)
                            x       y       z     vdW  Elec       q    Type
                         _______ _______ _______ _____ _____    ______ ____

>  <TORSDO>
F 0

$$$$
=
 OpenBabel11122414033D

 28 32  0  0  1  0  0  0  0  0999 V2000
  160.6530  203.6870  149.2270 C   0  0  0  0  0  0  0  0  0  0  0  0
  161.3630  204.9820  153.7900 O   0  0  0  0  0  0  0  0  0  0  0  0
  163.9210  208.8300  147.9860 O   0  0  0  0  0  0  0  0  0  0  0  0
  161.4340  202.0950  151.4020 C   0  0  0  0  0  3  0  0  0  0  0  0
  161.9710  208.9270  149.2930 N   0  0  0  0  0  0  0  0  0  0  0  0
  160.3300  204.3930  147.9500 C   0  0  0  0  0  2  0  0  0  0  0  0
  163.3040  206.2170  152.9020 O   0  0  0  0  0  0  0  0  0  0  0  0
  161.8130  206.2380  153.1000 S   0  0  0  0  0  0  0  0  0  0  0  0
  160.5780  208.6650  153.5290 C   0  0  0  0  0  0  0  0  0  0  0  0
  160.9910  206.4140  151.5780 N   0  0  1  0  0  0  0  0  0  0  0  0
  163.3800  204.6700  145.9430 O   0  0  0  0  0  0  0  0  0  0  0  0
  161.4020  206.6250  149.2410 C   0  0  1  0  0  3  0  0  0  0  0  0
  160.1300  208.6510  152.0920 C   0  0  0  0  0  2  0  0  0  0  0  0
  161.3680  207.6000  154.0750 N   0  0  0  0  0  2  0  0  0  0  0  0
  162.3780  205.0660  146.5940 C   0  0  0  0  0  0  0  0  0  0  0  0
  161.3310  204.2900  150.3320 C   0  0  0  0  0  0  0  0  0  0  0  0
  162.9290  208.2520  148.5060 C   0  0  0  0  0  0  0  0  0  0  0  0
  160.2290  209.6190  154.2700 O   0  0  0  0  0  0  0  0  0  0  0  0
  162.2580  206.5200  146.9200 C   0  0  0  0  0  2  0  0  0  0  0  0
  161.7280  203.4570  151.3890 C   0  0  0  0  0  3  0  0  0  0  0  0
  160.3640  202.3160  149.2560 C   0  0  0  0  0  3  0  0  0  0  0  0
  160.7410  201.5250  150.3390 C   0  0  0  0  0  3  0  0  0  0  0  0
  161.3750  204.1200  146.9750 N   0  0  0  0  0  2  0  0  0  0  0  0
  160.9730  207.9940  149.7780 C   0  0  1  0  0  3  0  0  0  0  0  0
  162.6440  206.8080  148.3630 C   0  0  2  0  0  3  0  0  0  0  0  0
  161.1100  207.8300  151.2710 C   0  0  2  0  0  3  0  0  0  0  0  0
  161.9310  210.3640  149.5070 C   0  0  0  0  0  1  0  0  0  0  0  0
  161.6980  205.7660  150.4690 C   0  0  2  0  0  3  0  0  0  0  0  0
  1 21  2  0  0  0  0
  1 16  1  0  0  0  0
  3 17  2  0  0  0  0
  5 27  1  0  0  0  0
  5 24  1  0  0  0  0
  6  1  1  0  0  0  0
  7  8  2  0  0  0  0
  8  2  2  0  0  0  0
  8 14  1  0  0  0  0
  9 14  1  0  0  0  0
  9 18  2  0  0  0  0
 10  8  1  1  0  0  0
 11 15  2  0  0  0  0
 12 24  1  0  0  0  0
 12 28  1  0  0  0  0
 13  9  1  0  0  0  0
 15 19  1  0  0  0  0
 15 23  1  0  0  0  0
 16 28  1  0  0  0  0
 16 20  2  0  0  0  0
 17  5  1  0  0  0  0
 19 25  1  0  0  0  0
 20  4  1  0  0  0  0
 21 22  1  0  0  0  0
 22  4  2  0  0  0  0
 23  6  1  0  0  0  0
 24 26  1  0  0  0  0
 25 17  1  0  0  0  0
 25 12  1  0  0  0  0
 26 10  1  0  0  0  0
 26 13  1  0  0  0  0
 28 10  1  0  0  0  0
M  END
>  <MODEL>
4

>  <REMARK>
 VINA RESULT:      -3.6      3.735      6.822
  Name = 
  0 active torsions:
  status: ('A' for Active; 'I' for Inactive)
                            x       y       z     vdW  Elec       q    Type
                         _______ _______ _______ _____ _____    ______ ____

>  <TORSDO>
F 0

$$$$
=
 OpenBabel11122414033D

 28 32  0  0  1  0  0  0  0  0999 V2000
  162.3870  206.1070  151.2290 C   0  0  0  0  0  0  0  0  0  0  0  0
  160.3320  201.7750  151.1840 O   0  0  0  0  0  0  0  0  0  0  0  0
  160.0810  206.4960  145.4670 O   0  0  0  0  0  0  0  0  0  0  0  0
  160.8290  204.8830  153.2170 C   0  0  0  0  0  3  0  0  0  0  0  0
  161.5030  204.7290  146.0790 N   0  0  0  0  0  0  0  0  0  0  0  0
  163.1580  206.9380  150.2550 C   0  0  0  0  0  2  0  0  0  0  0  0
  158.8790  202.7300  149.4350 O   0  0  0  0  0  0  0  0  0  0  0  0
  160.2220  202.1190  149.7260 S   0  0  0  0  0  0  0  0  0  0  0  0
  161.4240  200.5940  147.7680 C   0  0  0  0  0  0  0  0  0  0  0  0
  161.5030  203.2000  149.2670 N   0  0  1  0  0  0  0  0  0  0  0  0
  160.9530  209.5300  148.9030 O   0  0  0  0  0  0  0  0  0  0  0  0
  161.8900  205.3570  148.3340 C   0  0  1  0  0  3  0  0  0  0  0  0
  162.3110  201.7670  147.4490 C   0  0  0  0  0  2  0  0  0  0  0  0
  160.4240  200.6720  148.7940 N   0  0  0  0  0  2  0  0  0  0  0  0
  161.7140  208.5290  148.8850 C   0  0  0  0  0  0  0  0  0  0  0  0
  161.4330  205.1090  150.8590 C   0  0  0  0  0  0  0  0  0  0  0  0
  160.8060  205.9300  146.3290 C   0  0  0  0  0  0  0  0  0  0  0  0
  161.5810  199.5170  147.1380 O   0  0  0  0  0  0  0  0  0  0  0  0
  161.8280  207.7300  147.6270 C   0  0  0  0  0  2  0  0  0  0  0  0
  160.6550  204.5370  151.8770 C   0  0  0  0  0  3  0  0  0  0  0  0
  162.5510  206.4410  152.5800 C   0  0  0  0  0  3  0  0  0  0  0  0
  161.7870  205.8280  153.5700 C   0  0  0  0  0  3  0  0  0  0  0  0
  162.4690  208.2050  150.0570 N   0  0  0  0  0  2  0  0  0  0  0  0
  162.2190  204.3080  147.2680 C   0  0  1  0  0  3  0  0  0  0  0  0
  161.0160  206.4450  147.6990 C   0  0  2  0  0  3  0  0  0  0  0  0
  161.5940  203.0530  147.8240 C   0  0  2  0  0  3  0  0  0  0  0  0
  161.5760  204.0590  144.7910 C   0  0  0  0  0  1  0  0  0  0  0  0
  161.1500  204.6120  149.4420 C   0  0  2  0  0  3  0  0  0  0  0  0
  1 21  1  0  0  0  0
  3 17  2  0  0  0  0
  4 22  1  0  0  0  0
  5 17  1  0  0  0  0
  5 24  1  0  0  0  0
  6  1  1  0  0  0  0
  7  8  2  0  0  0  0
  8  2  2  0  0  0  0
  9 14  1  0  0  0  0
 10 28  1  0  0  0  0
 10  8  1  6  0  0  0
 12 28  1  0  0  0  0
 13  9  1  0  0  0  0
 13 26  1  0  0  0  0
 14  8  1  0  0  0  0
 15 11  2  0  0  0  0
 15 23  1  0  0  0  0
 16  1  2  0  0  0  0
 16 20  1  0  0  0  0
 17 25  1  0  0  0  0
 18  9  2  0  0  0  0
 19 25  1  0  0  0  0
 19 15  1  0  0  0  0
 20  4  2  0  0  0  0
 21 22  2  0  0  0  0
 23  6  1  0  0  0  0
 24 26  1  0  0  0  0
 24 12  1  0  0  0  0
 25 12  1  0  0  0  0
 26 10  1  0  0  0  0
 27  5  1  0  0  0  0
 28 16  1  0  0  0  0
M  END
>  <MODEL>
5

>  <REMARK>
 VINA RESULT:      -2.7      5.118      9.008
  Name = 
  0 active torsions:
  status: ('A' for Active; 'I' for Inactive)
                            x       y       z     vdW  Elec       q    Type
                         _______ _______ _______ _____ _____    ______ ____

>  <TORSDO>
F 0

$$$$
=
 OpenBabel11122414033D

 28 32  0  0  1  0  0  0  0  0999 V2000
  160.8210  206.6900  151.4070 C   0  0  0  0  0  0  0  0  0  0  0  0
  161.1710  209.1240  155.5230 O   0  0  0  0  0  0  0  0  0  0  0  0
  163.0280  211.9440  148.9180 O   0  0  0  0  0  0  0  0  0  0  0  0
  161.8590  205.8330  153.8690 C   0  0  0  0  0  3  0  0  0  0  0  0
  161.0720  211.9560  150.2200 N   0  0  0  0  0  0  0  0  0  0  0  0
  160.3880  207.0020  150.0100 C   0  0  0  0  0  2  0  0  0  0  0  0
  162.8450  210.4770  154.3200 O   0  0  0  0  0  0  0  0  0  0  0  0
  161.3760  210.2490  154.5490 S   0  0  0  0  0  0  0  0  0  0  0  0
  159.6760  212.4170  154.4380 C   0  0  0  0  0  0  0  0  0  0  0  0
  160.5660  209.9010  153.0510 N   0  0  1  0  0  0  0  0  0  0  0  0
  163.3610  207.4000  147.9100 O   0  0  0  0  0  0  0  0  0  0  0  0
  160.9710  209.6390  150.7190 C   0  0  1  0  0  3  0  0  0  0  0  0
  159.2680  211.9810  153.0570 C   0  0  0  0  0  2  0  0  0  0  0  0
  160.6510  211.6850  155.1940 N   0  0  0  0  0  2  0  0  0  0  0  0
  162.2890  207.7310  148.4790 C   0  0  0  0  0  0  0  0  0  0  0  0
  161.3440  207.6550  152.3220 C   0  0  0  0  0  0  0  0  0  0  0  0
  162.1600  211.3190  149.5850 C   0  0  0  0  0  0  0  0  0  0  0  0
  159.1310  213.4290  154.9470 O   0  0  0  0  0  0  0  0  0  0  0  0
  161.8760  209.1680  148.4620 C   0  0  0  0  0  2  0  0  0  0  0  0
  161.8770  207.1860  153.5320 C   0  0  0  0  0  3  0  0  0  0  0  0
  160.8080  205.3340  151.7600 C   0  0  0  0  0  3  0  0  0  0  0  0
  161.3130  204.9070  152.9860 C   0  0  0  0  0  3  0  0  0  0  0  0
  161.4860  206.7210  149.0960 N   0  0  0  0  0  2  0  0  0  0  0  0
  160.2700  210.9830  150.9350 C   0  0  1  0  0  3  0  0  0  0  0  0
  162.1700  209.8540  149.7880 C   0  0  2  0  0  3  0  0  0  0  0  0
  160.4070  211.2010  152.4210 C   0  0  2  0  0  3  0  0  0  0  0  0
  160.7440  213.3670  150.0960 C   0  0  0  0  0  1  0  0  0  0  0  0
  161.4080  209.1650  152.1030 C   0  0  2  0  0  3  0  0  0  0  0  0
  1 21  2  0  0  0  0
  1 16  1  0  0  0  0
  3 17  2  0  0  0  0
  5 24  1  0  0  0  0
  6  1  1  0  0  0  0
  7  8  2  0  0  0  0
  8 14  1  0  0  0  0
  8  2  2  0  0  0  0
  9 18  2  0  0  0  0
  9 14  1  0  0  0  0
 10  8  1  1  0  0  0
 11 15  2  0  0  0  0
 12 24  1  0  0  0  0
 12 28  1  0  0  0  0
 13  9  1  0  0  0  0
 15 23  1  0  0  0  0
 16 20  2  0  0  0  0
 17 25  1  0  0  0  0
 17  5  1  0  0  0  0
 19 15  1  0  0  0  0
 19 25  1  0  0  0  0
 20  4  1  0  0  0  0
 21 22  1  0  0  0  0
 22  4  2  0  0  0  0
 23  6  1  0  0  0  0
 24 26  1  0  0  0  0
 25 12  1  0  0  0  0
 26 10  1  0  0  0  0
 26 13  1  0  0  0  0
 27  5  1  0  0  0  0
 28 16  1  0  0  0  0
 28 10  1  0  0  0  0
M  END
>  <MODEL>
6

>  <REMARK>
 VINA RESULT:      -2.6      2.297      4.926
  Name = 
  0 active torsions:
  status: ('A' for Active; 'I' for Inactive)
                            x       y       z     vdW  Elec       q    Type
                         _______ _______ _______ _____ _____    ______ ____

>  <TORSDO>
F 0

$$$$
=
 OpenBabel11122414033D

 28 32  0  0  1  0  0  0  0  0999 V2000
  161.2410  210.4800  156.1270 C   0  0  0  0  0  0  0  0  0  0  0  0
  162.1960  207.5940  152.4180 O   0  0  0  0  0  0  0  0  0  0  0  0
  156.9190  212.8070  152.3100 O   0  0  0  0  0  0  0  0  0  0  0  0
  161.6770  207.7080  156.1270 C   0  0  0  0  0  3  0  0  0  0  0  0
  159.1800  212.7430  151.6730 N   0  0  0  0  0  0  0  0  0  0  0  0
  160.9040  211.9260  156.3010 C   0  0  0  0  0  2  0  0  0  0  0  0
  159.8820  208.0900  151.7270 O   0  0  0  0  0  0  0  0  0  0  0  0
  161.3010  208.5890  151.7370 S   0  0  0  0  0  0  0  0  0  0  0  0
  162.1670  210.1310  149.6220 C   0  0  0  0  0  0  0  0  0  0  0  0
  161.4040  210.1320  152.5310 N   0  0  1  0  0  0  0  0  0  0  0  0
  157.3080  212.2350  156.9240 O   0  0  0  0  0  0  0  0  0  0  0  0
  160.0680  211.7610  153.6420 C   0  0  1  0  0  3  0  0  0  0  0  0
  162.0010  211.3500  150.4880 C   0  0  0  0  0  2  0  0  0  0  0  0
  161.8550  208.8190  150.1120 N   0  0  0  0  0  2  0  0  0  0  0  0
  158.4020  212.4060  156.3250 C   0  0  0  0  0  0  0  0  0  0  0  0
  160.9670  209.7260  154.9440 C   0  0  0  0  0  0  0  0  0  0  0  0
  158.1200  212.5350  152.5820 C   0  0  0  0  0  0  0  0  0  0  0  0
  162.6130  210.2650  148.4540 O   0  0  0  0  0  0  0  0  0  0  0  0
  158.3910  213.0170  154.9610 C   0  0  0  0  0  2  0  0  0  0  0  0
  161.1730  208.3390  154.9910 C   0  0  0  0  0  3  0  0  0  0  0  0
  161.7500  209.8320  157.2610 C   0  0  0  0  0  3  0  0  0  0  0  0
  161.9770  208.4570  157.2610 C   0  0  0  0  0  3  0  0  0  0  0  0
  159.6200  212.0380  156.9790 N   0  0  0  0  0  2  0  0  0  0  0  0
  160.4330  212.3040  152.2570 C   0  0  1  0  0  3  0  0  0  0  0  0
  158.5670  211.9690  153.8720 C   0  0  2  0  0  3  0  0  0  0  0  0
  160.9320  211.0790  151.5340 C   0  0  2  0  0  3  0  0  0  0  0  0
  159.0550  213.3910  150.3790 C   0  0  0  0  0  1  0  0  0  0  0  0
  160.4380  210.2800  153.6230 C   0  0  2  0  0  3  0  0  0  0  0  0
  1  6  1  0  0  0  0
  1 21  1  0  0  0  0
  3 17  2  0  0  0  0
  4 22  1  0  0  0  0
  5 24  1  0  0  0  0
  5 17  1  0  0  0  0
  6 23  1  0  0  0  0
  7  8  2  0  0  0  0
  8  2  2  0  0  0  0
  9 14  1  0  0  0  0
  9 13  1  0  0  0  0
 10  8  1  6  0  0  0
 10 28  1  0  0  0  0
 12 25  1  0  0  0  0
 13 26  1  0  0  0  0
 14  8  1  0  0  0  0
 15 11  2  0  0  0  0
 15 23  1  0  0  0  0
 16 20  1  0  0  0  0
 16  1  2  0  0  0  0
 17 25  1  0  0  0  0
 18  9  2  0  0  0  0
 19 15  1  0  0  0  0
 20  4  2  0  0  0  0
 21 22  2  0  0  0  0
 24 12  1  0  0  0  0
 25 19  1  0  0  0  0
 26 24  1  0  0  0  0
 26 10  1  0  0  0  0
 27  5  1  0  0  0  0
 28 12  1  0  0  0  0
 28 16  1  0  0  0  0
M  END
>  <MODEL>
7

>  <REMARK>
 VINA RESULT:      -2.5      1.995      6.816
  Name = 
  0 active torsions:
  status: ('A' for Active; 'I' for Inactive)
                            x       y       z     vdW  Elec       q    Type
                         _______ _______ _______ _____ _____    ______ ____

>  <TORSDO>
F 0

$$$$
=
 OpenBabel11122414033D

 28 32  0  0  1  0  0  0  0  0999 V2000
  160.5380  205.6630  150.9450 C   0  0  0  0  0  0  0  0  0  0  0  0
  160.5080  206.7840  155.6070 O   0  0  0  0  0  0  0  0  0  0  0  0
  163.1180  211.2870  150.3200 O   0  0  0  0  0  0  0  0  0  0  0  0
  161.2900  204.0790  153.1360 C   0  0  0  0  0  3  0  0  0  0  0  0
  161.0360  211.0270  151.3790 N   0  0  0  0  0  0  0  0  0  0  0  0
  160.2630  206.3870  149.6670 C   0  0  0  0  0  2  0  0  0  0  0  0
  162.3310  208.3360  155.0150 O   0  0  0  0  0  0  0  0  0  0  0  0
  160.8410  208.1300  155.0280 S   0  0  0  0  0  0  0  0  0  0  0  0
  159.2140  210.3250  155.3960 C   0  0  0  0  0  0  0  0  0  0  0  0
  160.1860  208.2720  153.4250 N   0  0  1  0  0  0  0  0  0  0  0  0
  163.4500  207.2160  148.0640 O   0  0  0  0  0  0  0  0  0  0  0  0
  160.8290  208.6730  151.1670 C   0  0  1  0  0  3  0  0  0  0  0  0
  158.9440  210.3280  153.9160 C   0  0  0  0  0  2  0  0  0  0  0  0
  160.0860  209.3550  155.9930 N   0  0  0  0  0  2  0  0  0  0  0  0
  162.3310  207.4250  148.6020 C   0  0  0  0  0  0  0  0  0  0  0  0
  160.9840  206.2940  152.1470 C   0  0  0  0  0  0  0  0  0  0  0  0
  162.1700  210.5430  150.6910 C   0  0  0  0  0  0  0  0  0  0  0  0
  158.6410  211.1750  156.1250 O   0  0  0  0  0  0  0  0  0  0  0  0
  161.9560  208.8250  148.9670 C   0  0  0  0  0  2  0  0  0  0  0  0
  161.3760  205.4680  153.2130 C   0  0  0  0  0  3  0  0  0  0  0  0
  160.4560  204.2660  150.8840 C   0  0  0  0  0  3  0  0  0  0  0  0
  160.8190  203.4770  151.9730 C   0  0  0  0  0  3  0  0  0  0  0  0
  161.4440  206.3240  148.8180 N   0  0  0  0  0  2  0  0  0  0  0  0
  160.1400  209.9330  151.7000 C   0  0  1  0  0  3  0  0  0  0  0  0
  162.1240  209.0840  150.4570 C   0  0  2  0  0  3  0  0  0  0  0  0
  160.1250  209.7050  153.1900 C   0  0  2  0  0  3  0  0  0  0  0  0
  160.7550  212.4280  151.6430 C   0  0  0  0  0  1  0  0  0  0  0  0
  161.1060  207.7980  152.3870 C   0  0  2  0  0  3  0  0  0  0  0  0
  1 16  1  0  0  0  0
  3 17  2  0  0  0  0
  4 20  1  0  0  0  0
  5 27  1  0  0  0  0
  5 24  1  0  0  0  0
  6  1  1  0  0  0  0
  7  8  2  0  0  0  0
  8  2  2  0  0  0  0
  8 14  1  0  0  0  0
  9 14  1  0  0  0  0
  9 18  2  0  0  0  0
 10  8  1  1  0  0  0
 11 15  2  0  0  0  0
 12 24  1  0  0  0  0
 12 28  1  0  0  0  0
 13  9  1  0  0  0  0
 15 23  1  0  0  0  0
 15 19  1  0  0  0  0
 16 28  1  0  0  0  0
 16 20  2  0  0  0  0
 17  5  1  0  0  0  0
 19 25  1  0  0  0  0
 21  1  2  0  0  0  0
 21 22  1  0  0  0  0
 22  4  2  0  0  0  0
 23  6  1  0  0  0  0
 24 26  1  0  0  0  0
 25 17  1  0  0  0  0
 25 12  1  0  0  0  0
 26 10  1  0  0  0  0
 26 13  1  0  0  0  0
 28 10  1  0  0  0  0
M  END
>  <MODEL>
8

>  <REMARK>
 VINA RESULT:      -2.1      2.610      5.285
  Name = 
  0 active torsions:
  status: ('A' for Active; 'I' for Inactive)
                            x       y       z     vdW  Elec       q    Type
                         _______ _______ _______ _____ _____    ______ ____

>  <TORSDO>
F 0

$$$$
