=
 OpenBabel11122413063D

 31 35  0  0  1  0  0  0  0  0999 V2000
  160.9390  206.5520  146.6790 C   0  0  0  0  0  0  0  0  0  0  0  0
  160.3100  205.1530  150.1620 C   0  0  2  0  0  3  0  0  0  0  0  0
  160.7700  203.7000  150.1290 C   0  0  0  0  0  0  0  0  0  0  0  0
  161.2310  201.6750  148.8540 C   0  0  0  0  0  0  0  0  0  0  0  0
  160.8890  205.9910  149.0430 C   0  0  0  0  0  0  0  0  0  0  0  0
  161.9780  207.4540  146.9100 C   0  0  0  0  0  3  0  0  0  0  0  0
  160.8900  203.0280  148.9020 C   0  0  0  0  0  3  0  0  0  0  0  0
  162.0000  206.2170  151.7070 C   0  0  2  0  0  3  0  0  0  0  0  0
  160.4460  206.3740  145.3930 O   0  0  0  0  0  1  0  0  0  0  0  0
  160.8450  203.6030  152.6780 C   0  0  0  0  0  2  0  0  0  0  0  0
  161.3620  201.0350  147.6290 O   0  0  0  0  0  1  0  0  0  0  0  0
  162.3980  207.2560  150.6610 C   0  0  0  0  0  2  0  0  0  0  0  0
  160.5270  205.8200  151.5310 C   0  0  2  0  0  3  0  0  0  0  0  0
  160.3940  205.8270  147.7410 C   0  0  0  0  0  3  0  0  0  0  0  0
  161.4360  200.9660  150.0360 C   0  0  0  0  0  3  0  0  0  0  0  0
  161.9350  206.9120  149.2740 C   0  0  0  0  0  0  0  0  0  0  0  0
  162.4660  207.6400  148.2050 C   0  0  0  0  0  3  0  0  0  0  0  0
  160.0340  204.8950  152.6440 C   0  0  0  0  0  2  0  0  0  0  0  0
  160.9420  202.9610  151.3260 C   0  0  0  0  0  0  0  0  0  0  0  0
  161.2930  201.6080  151.2670 C   0  0  0  0  0  3  0  0  0  0  0  0
  160.5470  208.3790  152.8630 O   0  0  0  0  0  0  0  0  0  0  0  0
  161.4540  207.8470  153.5620 C   0  0  0  0  0  0  0  0  0  0  0  0
  162.2240  206.7650  153.0390 N   0  0  0  0  0  2  0  0  0  0  0  0
  159.4110  209.9310  155.5320 C   0  0  0  0  0  0  0  0  0  0  0  0
  160.7680  207.8710  155.9860 C   0  0  0  0  0  2  0  0  0  0  0  0
  162.8720  210.3850  154.0600 N   0  0  0  0  0  1  0  0  0  0  0  0
  158.1020  210.6370  155.6010 C   0  0  0  0  0  1  0  0  0  0  0  0
  159.4950  208.6800  156.0130 C   0  0  0  0  0  3  0  0  0  0  0  0
  161.8840  209.8940  155.0060 C   0  0  2  0  0  3  0  0  0  0  0  0
  161.7660  208.3660  154.9360 C   0  0  2  0  0  3  0  0  0  0  0  0
  160.5390  210.5790  154.7680 C   0  0  0  0  0  2  0  0  0  0  0  0
  1  6  2  0  0  0  0
  1 14  1  0  0  0  0
  2  5  1  6  0  0  0
  2 13  1  0  0  0  0
  3  2  1  0  0  0  0
  3 19  1  0  0  0  0
  4  7  1  0  0  0  0
  4 15  2  0  0  0  0
  5 16  1  0  0  0  0
  6 17  1  0  0  0  0
  7  3  2  0  0  0  0
  8 23  1  1  0  0  0
  9  1  1  0  0  0  0
 11  4  1  0  0  0  0
 12  8  1  0  0  0  0
 13  8  1  0  0  0  0
 13 18  1  1  0  0  0
 14  5  2  0  0  0  0
 15 20  1  0  0  0  0
 16 12  1  0  0  0  0
 17 16  2  0  0  0  0
 18 10  1  0  0  0  0
 19 10  1  0  0  0  0
 20 19  2  0  0  0  0
 21 22  2  0  0  0  0
 23 22  1  0  0  0  0
 24 27  1  0  0  0  0
 24 28  2  0  0  0  0
 25 28  1  0  0  0  0
 29 26  1  6  0  0  0
 30 22  1  6  0  0  0
 30 29  1  0  0  0  0
 30 25  1  0  0  0  0
 31 29  1  0  0  0  0
 31 24  1  0  0  0  0
M  END
>  <MODEL>
1

>  <REMARK>
 VINA RESULT:      -7.2      0.000      0.000
  Name = 
  2 active torsions:
  status: ('A' for Active; 'I' for Inactive)
    1  A    between atoms: C_5  and  C_30
    2  A    between atoms: C_10  and  N_16
                            x       y       z     vdW  Elec       q    Type
                         _______ _______ _______ _____ _____    ______ ____

>  <TORSDO>
F 2

$$$$
=
 OpenBabel11122413063D

 31 35  0  0  1  0  0  0  0  0999 V2000
  161.1830  203.8730  145.6430 C   0  0  0  0  0  0  0  0  0  0  0  0
  160.5420  205.7120  148.9130 C   0  0  2  0  0  3  0  0  0  0  0  0
  160.9140  204.7430  150.0300 C   0  0  0  0  0  0  0  0  0  0  0  0
  161.2290  202.4520  150.7990 C   0  0  0  0  0  0  0  0  0  0  0  0
  161.1470  205.3470  147.5750 C   0  0  0  0  0  0  0  0  0  0  0  0
  162.2790  204.5670  145.1280 C   0  0  0  0  0  3  0  0  0  0  0  0
  160.9700  203.3630  149.7730 C   0  0  0  0  0  3  0  0  0  0  0  0
  162.3230  207.4900  149.1280 C   0  0  2  0  0  3  0  0  0  0  0  0
  160.6560  202.7930  144.9490 O   0  0  0  0  0  1  0  0  0  0  0  0
  161.0340  206.6470  151.7240 C   0  0  0  0  0  2  0  0  0  0  0  0
  161.2970  201.0950  150.5200 O   0  0  0  0  0  1  0  0  0  0  0  0
  162.7610  207.3170  147.6750 C   0  0  0  0  0  2  0  0  0  0  0  0
  160.8260  207.1810  149.2740 C   0  0  2  0  0  3  0  0  0  0  0  0
  160.6170  204.2630  146.8590 C   0  0  0  0  0  3  0  0  0  0  0  0
  161.4150  202.9060  152.1040 C   0  0  0  0  0  3  0  0  0  0  0  0
  162.2510  206.0530  147.0450 C   0  0  0  0  0  0  0  0  0  0  0  0
  162.8030  205.6590  145.8220 C   0  0  0  0  0  3  0  0  0  0  0  0
  160.3010  207.4810  150.6790 C   0  0  0  0  0  2  0  0  0  0  0  0
  161.0660  205.1910  151.3660 C   0  0  0  0  0  0  0  0  0  0  0  0
  161.3350  204.2710  152.3840 C   0  0  0  0  0  3  0  0  0  0  0  0
  161.3160  209.8480  147.8860 O   0  0  0  0  0  0  0  0  0  0  0  0
  162.0620  209.9940  148.8930 C   0  0  0  0  0  0  0  0  0  0  0  0
  162.6060  208.8530  149.5580 N   0  0  0  0  0  2  0  0  0  0  0  0
  160.4880  213.0210  148.0220 C   0  0  0  0  0  0  0  0  0  0  0  0
  161.2860  212.0170  150.1790 C   0  0  0  0  0  2  0  0  0  0  0  0
  164.0240  211.7430  147.5550 N   0  0  0  0  0  1  0  0  0  0  0  0
  159.3860  213.6350  147.2320 C   0  0  0  0  0  1  0  0  0  0  0  0
  160.2450  212.6550  149.2910 C   0  0  0  0  0  3  0  0  0  0  0  0
  162.9020  212.3130  148.2820 C   0  0  2  0  0  3  0  0  0  0  0  0
  162.4230  211.3660  149.3880 C   0  0  2  0  0  3  0  0  0  0  0  0
  161.7750  212.6730  147.3140 C   0  0  0  0  0  2  0  0  0  0  0  0
  1 14  1  0  0  0  0
  2  5  1  6  0  0  0
  2 13  1  0  0  0  0
  2  3  1  0  0  0  0
  3 19  1  0  0  0  0
  4 15  2  0  0  0  0
  6  1  2  0  0  0  0
  6 17  1  0  0  0  0
  7  3  2  0  0  0  0
  7  4  1  0  0  0  0
  8 13  1  0  0  0  0
  8 23  1  6  0  0  0
  9  1  1  0  0  0  0
 11  4  1  0  0  0  0
 12  8  1  0  0  0  0
 13 18  1  1  0  0  0
 14  5  2  0  0  0  0
 15 20  1  0  0  0  0
 16  5  1  0  0  0  0
 16 12  1  0  0  0  0
 17 16  2  0  0  0  0
 18 10  1  0  0  0  0
 19 10  1  0  0  0  0
 19 20  2  0  0  0  0
 21 22  2  0  0  0  0
 22 23  1  0  0  0  0
 24 28  2  0  0  0  0
 27 24  1  0  0  0  0
 28 25  1  0  0  0  0
 29 26  1  6  0  0  0
 29 30  1  0  0  0  0
 30 22  1  6  0  0  0
 30 25  1  0  0  0  0
 31 24  1  0  0  0  0
 31 29  1  0  0  0  0
M  END
>  <MODEL>
2

>  <REMARK>
 VINA RESULT:      -7.2      3.320      4.644
  Name = 
  2 active torsions:
  status: ('A' for Active; 'I' for Inactive)
    1  A    between atoms: C_5  and  C_30
    2  A    between atoms: C_10  and  N_16
                            x       y       z     vdW  Elec       q    Type
                         _______ _______ _______ _____ _____    ______ ____

>  <TORSDO>
F 2

$$$$
=
 OpenBabel11122413063D

 31 35  0  0  1  0  0  0  0  0999 V2000
  160.8540  204.4320  145.1120 C   0  0  0  0  0  0  0  0  0  0  0  0
  160.4730  205.2410  148.8110 C   0  0  2  0  0  3  0  0  0  0  0  0
  160.8990  203.9890  149.5700 C   0  0  0  0  0  0  0  0  0  0  0  0
  161.2170  201.5730  149.6180 C   0  0  0  0  0  0  0  0  0  0  0  0
  160.9790  205.2800  147.3860 C   0  0  0  0  0  0  0  0  0  0  0  0
  161.9270  205.2450  144.7450 C   0  0  0  0  0  3  0  0  0  0  0  0
  160.9090  202.7440  148.9210 C   0  0  0  0  0  3  0  0  0  0  0  0
  162.3020  206.8780  149.4070 C   0  0  2  0  0  3  0  0  0  0  0  0
  160.2580  203.6010  144.1730 O   0  0  0  0  0  1  0  0  0  0  0  0
  161.1730  205.3180  151.7310 C   0  0  0  0  0  2  0  0  0  0  0  0
  161.2370  200.3560  148.9530 O   0  0  0  0  0  1  0  0  0  0  0  0
  162.6370  207.1360  147.9390 C   0  0  0  0  0  2  0  0  0  0  0  0
  160.8110  206.5420  149.5620 C   0  0  2  0  0  3  0  0  0  0  0  0
  160.3800  204.4520  146.4260 C   0  0  0  0  0  3  0  0  0  0  0  0
  161.5000  201.6290  150.9820 C   0  0  0  0  0  3  0  0  0  0  0  0
  162.0590  206.1090  147.0070 C   0  0  0  0  0  0  0  0  0  0  0  0
  162.5190  206.0880  145.6870 C   0  0  0  0  0  3  0  0  0  0  0  0
  160.3890  206.4210  151.0270 C   0  0  0  0  0  2  0  0  0  0  0  0
  161.1500  204.0290  150.9640 C   0  0  0  0  0  0  0  0  0  0  0  0
  161.4670  202.8530  151.6510 C   0  0  0  0  0  3  0  0  0  0  0  0
  161.4610  209.5390  148.8280 O   0  0  0  0  0  0  0  0  0  0  0  0
  162.1800  209.3650  149.8500 C   0  0  0  0  0  0  0  0  0  0  0  0
  162.6410  208.0580  150.1920 N   0  0  0  0  0  2  0  0  0  0  0  0
  160.2630  210.9190  152.3620 C   0  0  0  0  0  0  0  0  0  0  0  0
  162.6520  210.1740  152.1890 C   0  0  0  0  0  2  0  0  0  0  0  0
  161.7140  212.1780  149.0970 N   0  0  0  0  0  1  0  0  0  0  0  0
  158.9670  210.8900  153.0960 C   0  0  0  0  0  1  0  0  0  0  0  0
  161.2990  210.2220  152.8550 C   0  0  0  0  0  3  0  0  0  0  0  0
  161.7340  211.7830  150.4950 C   0  0  2  0  0  3  0  0  0  0  0  0
  162.5950  210.5310  150.7020 C   0  0  2  0  0  3  0  0  0  0  0  0
  160.3080  211.5820  151.0070 C   0  0  0  0  0  2  0  0  0  0  0  0
  1 14  1  0  0  0  0
  2  5  1  6  0  0  0
  2 13  1  0  0  0  0
  2  3  1  0  0  0  0
  3 19  1  0  0  0  0
  4 15  2  0  0  0  0
  6  1  2  0  0  0  0
  6 17  1  0  0  0  0
  7  3  2  0  0  0  0
  7  4  1  0  0  0  0
  8 13  1  0  0  0  0
  8 23  1  1  0  0  0
  9  1  1  0  0  0  0
 11  4  1  0  0  0  0
 12  8  1  0  0  0  0
 13 18  1  1  0  0  0
 14  5  2  0  0  0  0
 15 20  1  0  0  0  0
 16  5  1  0  0  0  0
 16 12  1  0  0  0  0
 17 16  2  0  0  0  0
 18 10  1  0  0  0  0
 19 20  2  0  0  0  0
 19 10  1  0  0  0  0
 21 22  2  0  0  0  0
 22 23  1  0  0  0  0
 24 28  2  0  0  0  0
 24 27  1  0  0  0  0
 25 28  1  0  0  0  0
 29 26  1  6  0  0  0
 29 30  1  0  0  0  0
 29 31  1  0  0  0  0
 30 22  1  6  0  0  0
 30 25  1  0  0  0  0
 31 24  1  0  0  0  0
M  END
>  <MODEL>
3

>  <REMARK>
 VINA RESULT:      -6.6      2.370      2.994
  Name = 
  2 active torsions:
  status: ('A' for Active; 'I' for Inactive)
    1  A    between atoms: C_5  and  C_30
    2  A    between atoms: C_10  and  N_16
                            x       y       z     vdW  Elec       q    Type
                         _______ _______ _______ _____ _____    ______ ____

>  <TORSDO>
F 2

$$$$
=
 OpenBabel11122413063D

 31 35  0  0  1  0  0  0  0  0999 V2000
  161.2390  205.2640  145.4170 C   0  0  0  0  0  0  0  0  0  0  0  0
  160.4410  204.6620  149.0890 C   0  0  2  0  0  3  0  0  0  0  0  0
  160.8310  203.2170  149.3810 C   0  0  0  0  0  0  0  0  0  0  0  0
  161.2310  200.9510  148.5780 C   0  0  0  0  0  0  0  0  0  0  0  0
  161.0920  205.2190  147.8420 C   0  0  0  0  0  0  0  0  0  0  0  0
  162.3130  206.1510  145.4930 C   0  0  0  0  0  3  0  0  0  0  0  0
  160.9550  202.2960  148.3270 C   0  0  0  0  0  3  0  0  0  0  0  0
  162.1360  205.9590  150.4410 C   0  0  2  0  0  3  0  0  0  0  0  0
  160.7760  204.8380  144.1790 O   0  0  0  0  0  1  0  0  0  0  0  0
  160.8270  203.6590  151.8930 C   0  0  0  0  0  2  0  0  0  0  0  0
  161.3660  200.0620  147.5220 O   0  0  0  0  0  1  0  0  0  0  0  0
  162.6130  206.7350  149.2150 C   0  0  0  0  0  2  0  0  0  0  0  0
  160.6500  205.5950  150.2950 C   0  0  2  0  0  3  0  0  0  0  0  0
  160.6280  204.8030  146.5850 C   0  0  0  0  0  3  0  0  0  0  0  0
  161.3670  200.5010  149.8910 C   0  0  0  0  0  3  0  0  0  0  0  0
  162.1750  206.1240  147.9150 C   0  0  0  0  0  0  0  0  0  0  0  0
  162.7720  206.5870  146.7380 C   0  0  0  0  0  3  0  0  0  0  0  0
  160.0810  204.9470  151.5580 C   0  0  0  0  0  2  0  0  0  0  0  0
  160.9320  202.7420  150.7120 C   0  0  0  0  0  0  0  0  0  0  0  0
  161.2190  201.3940  150.9530 C   0  0  0  0  0  3  0  0  0  0  0  0
  160.8310  208.4280  151.0090 O   0  0  0  0  0  0  0  0  0  0  0  0
  161.6540  207.9940  151.8620 C   0  0  0  0  0  0  0  0  0  0  0  0
  162.3470  206.7660  151.6350 N   0  0  0  0  0  2  0  0  0  0  0  0
  159.7370  210.6350  153.1850 C   0  0  0  0  0  0  0  0  0  0  0  0
  160.8540  208.6160  154.1690 C   0  0  0  0  0  2  0  0  0  0  0  0
  163.2940  210.4440  151.8980 N   0  0  0  0  0  1  0  0  0  0  0  0
  158.5030  211.4500  153.0070 C   0  0  0  0  0  1  0  0  0  0  0  0
  159.6690  209.5200  153.9300 C   0  0  0  0  0  3  0  0  0  0  0  0
  162.2160  210.2640  152.8560 C   0  0  2  0  0  3  0  0  0  0  0  0
  161.9480  208.7760  153.1100 C   0  0  2  0  0  3  0  0  0  0  0  0
  160.9610  210.9950  152.3800 C   0  0  0  0  0  2  0  0  0  0  0  0
  1  6  2  0  0  0  0
  1 14  1  0  0  0  0
  2  5  1  6  0  0  0
  2  3  1  0  0  0  0
  2 13  1  0  0  0  0
  3 19  1  0  0  0  0
  4 15  2  0  0  0  0
  5 16  1  0  0  0  0
  6 17  1  0  0  0  0
  7  4  1  0  0  0  0
  7  3  2  0  0  0  0
  8 23  1  1  0  0  0
  9  1  1  0  0  0  0
 11  4  1  0  0  0  0
 12  8  1  0  0  0  0
 13  8  1  0  0  0  0
 13 18  1  1  0  0  0
 14  5  2  0  0  0  0
 15 20  1  0  0  0  0
 16 12  1  0  0  0  0
 17 16  2  0  0  0  0
 18 10  1  0  0  0  0
 19 20  2  0  0  0  0
 19 10  1  0  0  0  0
 21 22  2  0  0  0  0
 23 22  1  0  0  0  0
 24 28  2  0  0  0  0
 27 24  1  0  0  0  0
 28 25  1  0  0  0  0
 29 26  1  6  0  0  0
 29 30  1  0  0  0  0
 30 22  1  6  0  0  0
 30 25  1  0  0  0  0
 31 29  1  0  0  0  0
 31 24  1  0  0  0  0
M  END
>  <MODEL>
4

>  <REMARK>
 VINA RESULT:      -6.5      1.465      1.654
  Name = 
  2 active torsions:
  status: ('A' for Active; 'I' for Inactive)
    1  A    between atoms: C_5  and  C_30
    2  A    between atoms: C_10  and  N_16
                            x       y       z     vdW  Elec       q    Type
                         _______ _______ _______ _____ _____    ______ ____

>  <TORSDO>
F 2

$$$$
=
 OpenBabel11122413063D

 31 35  0  0  1  0  0  0  0  0999 V2000
  161.9390  206.4770  147.5430 C   0  0  0  0  0  0  0  0  0  0  0  0
  162.3520  209.1280  150.2420 C   0  0  2  0  0  3  0  0  0  0  0  0
  161.7370  210.4070  149.6840 C   0  0  0  0  0  0  0  0  0  0  0  0
  161.0800  211.7510  147.7600 C   0  0  0  0  0  0  0  0  0  0  0  0
  161.8870  207.8770  149.5280 C   0  0  0  0  0  0  0  0  0  0  0  0
  161.0000  205.6190  148.1180 C   0  0  0  0  0  3  0  0  0  0  0  0
  161.5650  210.5570  148.2980 C   0  0  0  0  0  3  0  0  0  0  0  0
  160.7610  208.5390  152.1130 C   0  0  2  0  0  3  0  0  0  0  0  0
  162.4310  206.2160  146.2720 O   0  0  0  0  0  1  0  0  0  0  0  0
  161.6080  211.4340  152.0160 C   0  0  0  0  0  2  0  0  0  0  0  0
  160.9020  211.8720  146.3900 O   0  0  0  0  0  1  0  0  0  0  0  0
  160.4970  207.1490  151.5360 C   0  0  0  0  0  2  0  0  0  0  0  0
  162.1850  208.9980  151.7670 C   0  0  2  0  0  3  0  0  0  0  0  0
  162.3830  207.5980  148.2460 C   0  0  0  0  0  3  0  0  0  0  0  0
  160.7790  212.8220  148.6000 C   0  0  0  0  0  3  0  0  0  0  0  0
  160.9430  207.0010  150.1100 C   0  0  0  0  0  0  0  0  0  0  0  0
  160.5120  205.8760  149.4010 C   0  0  0  0  0  3  0  0  0  0  0  0
  162.5550  210.3180  152.4440 C   0  0  0  0  0  2  0  0  0  0  0  0
  161.4650  211.5140  150.5250 C   0  0  0  0  0  0  0  0  0  0  0  0
  160.9700  212.7020  149.9780 C   0  0  0  0  0  3  0  0  0  0  0  0
  159.1720  210.3690  153.6120 O   0  0  0  0  0  0  0  0  0  0  0  0
  159.7580  209.4500  154.2480 C   0  0  0  0  0  0  0  0  0  0  0  0
  160.5750  208.5040  153.5580 N   0  0  0  0  0  2  0  0  0  0  0  0
  162.2050  210.3580  156.6110 C   0  0  0  0  0  0  0  0  0  0  0  0
  159.7310  210.7250  156.4210 C   0  0  0  0  0  2  0  0  0  0  0  0
  160.5280  207.0610  155.7950 N   0  0  0  0  0  1  0  0  0  0  0  0
  163.5690  210.9290  156.7910 C   0  0  0  0  0  1  0  0  0  0  0  0
  161.1540  211.1940  156.6050 C   0  0  0  0  0  3  0  0  0  0  0  0
  160.6390  208.3860  156.3810 C   0  0  2  0  0  3  0  0  0  0  0  0
  159.6380  209.3560  155.7430 C   0  0  2  0  0  3  0  0  0  0  0  0
  162.0760  208.8950  156.2660 C   0  0  0  0  0  2  0  0  0  0  0  0
  1  6  2  0  0  0  0
  1 14  1  0  0  0  0
  2  5  1  6  0  0  0
  2 13  1  0  0  0  0
  3  2  1  0  0  0  0
  3 19  1  0  0  0  0
  4  7  1  0  0  0  0
  4 15  2  0  0  0  0
  5 16  1  0  0  0  0
  6 17  1  0  0  0  0
  7  3  2  0  0  0  0
  8 23  1  1  0  0  0
  9  1  1  0  0  0  0
 10 18  1  0  0  0  0
 11  4  1  0  0  0  0
 12  8  1  0  0  0  0
 13  8  1  0  0  0  0
 13 18  1  1  0  0  0
 14  5  2  0  0  0  0
 15 20  1  0  0  0  0
 16 12  1  0  0  0  0
 17 16  2  0  0  0  0
 19 10  1  0  0  0  0
 20 19  2  0  0  0  0
 21 22  2  0  0  0  0
 23 22  1  0  0  0  0
 24 27  1  0  0  0  0
 25 28  1  0  0  0  0
 28 24  2  0  0  0  0
 29 26  1  6  0  0  0
 30 22  1  6  0  0  0
 30 29  1  0  0  0  0
 30 25  1  0  0  0  0
 31 29  1  0  0  0  0
 31 24  1  0  0  0  0
M  END
>  <MODEL>
5

>  <REMARK>
 VINA RESULT:      -5.2      2.720      5.568
  Name = 
  2 active torsions:
  status: ('A' for Active; 'I' for Inactive)
    1  A    between atoms: C_5  and  C_30
    2  A    between atoms: C_10  and  N_16
                            x       y       z     vdW  Elec       q    Type
                         _______ _______ _______ _____ _____    ______ ____

>  <TORSDO>
F 2

$$$$
=
 OpenBabel11122413063D

 31 35  0  0  1  0  0  0  0  0999 V2000
  162.0530  212.7160  148.0280 C   0  0  0  0  0  0  0  0  0  0  0  0
  159.6950  213.8510  150.7910 C   0  0  2  0  0  3  0  0  0  0  0  0
  158.2990  213.8770  150.1790 C   0  0  0  0  0  0  0  0  0  0  0  0
  156.8770  214.0510  148.2080 C   0  0  0  0  0  0  0  0  0  0  0  0
  160.6770  213.0050  150.0100 C   0  0  0  0  0  0  0  0  0  0  0  0
  162.4360  211.4500  148.4730 C   0  0  0  0  0  3  0  0  0  0  0  0
  158.1440  213.9440  148.7850 C   0  0  0  0  0  3  0  0  0  0  0  0
  159.5200  211.9510  152.4470 C   0  0  2  0  0  3  0  0  0  0  0  0
  162.5380  213.2050  146.8230 O   0  0  0  0  0  1  0  0  0  0  0  0
  157.2200  213.9050  152.4910 C   0  0  0  0  0  2  0  0  0  0  0  0
  156.7460  214.0990  146.8270 O   0  0  0  0  0  1  0  0  0  0  0  0
  160.7050  211.2150  151.8240 C   0  0  0  0  0  2  0  0  0  0  0  0
  159.6900  213.4690  152.2830 C   0  0  2  0  0  3  0  0  0  0  0  0
  161.1810  213.4920  148.7950 C   0  0  0  0  0  3  0  0  0  0  0  0
  155.7450  214.1140  149.0190 C   0  0  0  0  0  3  0  0  0  0  0  0
  161.0740  211.7260  150.4610 C   0  0  0  0  0  0  0  0  0  0  0  0
  161.9560  210.9620  149.6900 C   0  0  0  0  0  3  0  0  0  0  0  0
  158.6070  214.2610  153.0170 C   0  0  0  0  0  2  0  0  0  0  0  0
  157.1450  213.9820  150.9950 C   0  0  0  0  0  0  0  0  0  0  0  0
  155.8800  214.0790  150.4070 C   0  0  0  0  0  3  0  0  0  0  0  0
  160.0750  209.3810  153.5450 O   0  0  0  0  0  0  0  0  0  0  0  0
  159.7220  210.2920  154.3440 C   0  0  0  0  0  0  0  0  0  0  0  0
  159.4220  211.6000  153.8570 N   0  0  0  0  0  2  0  0  0  0  0  0
  162.2040  210.6580  156.8160 C   0  0  0  0  0  0  0  0  0  0  0  0
  159.7730  211.2600  156.6690 C   0  0  0  0  0  2  0  0  0  0  0  0
  160.2640  207.6580  155.5560 N   0  0  0  0  0  1  0  0  0  0  0  0
  163.6090  211.0790  157.0750 C   0  0  0  0  0  1  0  0  0  0  0  0
  161.2280  211.5740  156.9190 C   0  0  0  0  0  3  0  0  0  0  0  0
  160.4790  208.8780  156.3160 C   0  0  2  0  0  3  0  0  0  0  0  0
  159.5740  210.0080  155.8120 C   0  0  2  0  0  3  0  0  0  0  0  0
  161.9560  209.2720  156.2750 C   0  0  0  0  0  2  0  0  0  0  0  0
  1  6  2  0  0  0  0
  1 14  1  0  0  0  0
  2  5  1  6  0  0  0
  2 13  1  0  0  0  0
  3  2  1  0  0  0  0
  3 19  1  0  0  0  0
  4  7  1  0  0  0  0
  4 15  2  0  0  0  0
  5 16  1  0  0  0  0
  6 17  1  0  0  0  0
  7  3  2  0  0  0  0
  8 23  1  1  0  0  0
  9  1  1  0  0  0  0
 10 18  1  0  0  0  0
 11  4  1  0  0  0  0
 12  8  1  0  0  0  0
 13  8  1  0  0  0  0
 13 18  1  1  0  0  0
 14  5  2  0  0  0  0
 15 20  1  0  0  0  0
 16 12  1  0  0  0  0
 17 16  2  0  0  0  0
 19 10  1  0  0  0  0
 20 19  2  0  0  0  0
 21 22  2  0  0  0  0
 23 22  1  0  0  0  0
 24 28  2  0  0  0  0
 24 27  1  0  0  0  0
 25 28  1  0  0  0  0
 29 26  1  6  0  0  0
 30 22  1  6  0  0  0
 30 29  1  0  0  0  0
 30 25  1  0  0  0  0
 31 29  1  0  0  0  0
 31 24  1  0  0  0  0
M  END
>  <MODEL>
6

>  <REMARK>
 VINA RESULT:      -5.2      5.582      7.917
  Name = 
  2 active torsions:
  status: ('A' for Active; 'I' for Inactive)
    1  A    between atoms: C_5  and  C_30
    2  A    between atoms: C_10  and  N_16
                            x       y       z     vdW  Elec       q    Type
                         _______ _______ _______ _____ _____    ______ ____

>  <TORSDO>
F 2

$$$$
=
 OpenBabel11122413063D

 31 35  0  0  1  0  0  0  0  0999 V2000
  160.8240  201.6070  149.0670 C   0  0  0  0  0  0  0  0  0  0  0  0
  162.2770  204.9990  149.9990 C   0  0  2  0  0  3  0  0  0  0  0  0
  161.7120  205.9980  148.9950 C   0  0  0  0  0  0  0  0  0  0  0  0
  160.7580  206.4500  146.7990 C   0  0  0  0  0  0  0  0  0  0  0  0
  161.4800  203.7150  150.0820 C   0  0  0  0  0  0  0  0  0  0  0  0
  159.9640  201.3540  150.1350 C   0  0  0  0  0  3  0  0  0  0  0  0
  161.2040  205.5470  147.7660 C   0  0  0  0  0  3  0  0  0  0  0  0
  161.1680  205.7160  152.1520 C   0  0  2  0  0  3  0  0  0  0  0  0
  160.9270  200.6940  148.0260 O   0  0  0  0  0  1  0  0  0  0  0  0
  162.3350  207.9590  150.5030 C   0  0  0  0  0  2  0  0  0  0  0  0
  160.2440  205.9820  145.5980 O   0  0  0  0  0  1  0  0  0  0  0  0
  160.5810  204.3260  152.3870 C   0  0  0  0  0  2  0  0  0  0  0  0
  162.5000  205.6110  151.3940 C   0  0  2  0  0  3  0  0  0  0  0  0
  161.5820  202.7800  149.0420 C   0  0  0  0  0  3  0  0  0  0  0  0
  160.8310  207.8210  147.0400 C   0  0  0  0  0  3  0  0  0  0  0  0
  160.6140  203.4510  151.1670 C   0  0  0  0  0  0  0  0  0  0  0  0
  159.8680  202.2680  151.1870 C   0  0  0  0  0  3  0  0  0  0  0  0
  163.2050  206.9610  151.2620 C   0  0  0  0  0  2  0  0  0  0  0  0
  161.8190  207.3940  149.2140 C   0  0  0  0  0  0  0  0  0  0  0  0
  161.3590  208.2900  148.2440 C   0  0  0  0  0  3  0  0  0  0  0  0
  160.3920  208.3910  152.7570 O   0  0  0  0  0  0  0  0  0  0  0  0
  160.9450  207.7230  153.6740 C   0  0  0  0  0  0  0  0  0  0  0  0
  161.3640  206.3800  153.4340 N   0  0  0  0  0  2  0  0  0  0  0  0
  159.0260  210.2210  155.2490 C   0  0  0  0  0  0  0  0  0  0  0  0
  160.0720  208.0720  156.0120 C   0  0  0  0  0  2  0  0  0  0  0  0
  162.6240  210.1150  154.0700 N   0  0  0  0  0  1  0  0  0  0  0  0
  157.8140  211.0780  155.1310 C   0  0  0  0  0  1  0  0  0  0  0  0
  158.9120  209.0240  155.8470 C   0  0  0  0  0  3  0  0  0  0  0  0
  161.5090  209.8410  154.9610 C   0  0  2  0  0  3  0  0  0  0  0  0
  161.2060  208.3390  155.0190 C   0  0  2  0  0  3  0  0  0  0  0  0
  160.2840  210.6520  154.5370 C   0  0  0  0  0  2  0  0  0  0  0  0
  1  6  1  0  0  0  0
  2  3  1  6  0  0  0
  2  5  1  0  0  0  0
  2 13  1  0  0  0  0
  3 19  1  0  0  0  0
  4 15  2  0  0  0  0
  4  7  1  0  0  0  0
  5 16  2  0  0  0  0
  6 17  2  0  0  0  0
  7  3  2  0  0  0  0
  8 12  1  0  0  0  0
  8 23  1  1  0  0  0
  9  1  1  0  0  0  0
 10 18  1  0  0  0  0
 11  4  1  0  0  0  0
 13 18  1  6  0  0  0
 13  8  1  0  0  0  0
 14  1  2  0  0  0  0
 14  5  1  0  0  0  0
 15 20  1  0  0  0  0
 16 17  1  0  0  0  0
 16 12  1  0  0  0  0
 19 10  1  0  0  0  0
 20 19  2  0  0  0  0
 21 22  2  0  0  0  0
 23 22  1  0  0  0  0
 24 28  2  0  0  0  0
 27 24  1  0  0  0  0
 28 25  1  0  0  0  0
 29 26  1  6  0  0  0
 29 30  1  0  0  0  0
 30 22  1  6  0  0  0
 30 25  1  0  0  0  0
 31 29  1  0  0  0  0
 31 24  1  0  0  0  0
M  END
>  <MODEL>
7

>  <REMARK>
 VINA RESULT:      -4.9      0.856      3.932
  Name = 
  2 active torsions:
  status: ('A' for Active; 'I' for Inactive)
    1  A    between atoms: C_5  and  C_30
    2  A    between atoms: C_10  and  N_16
                            x       y       z     vdW  Elec       q    Type
                         _______ _______ _______ _____ _____    ______ ____

>  <TORSDO>
F 2

$$$$
=
 OpenBabel11122413063D

 31 35  0  0  1  0  0  0  0  0999 V2000
  161.8720  206.4560  147.4360 C   0  0  0  0  0  0  0  0  0  0  0  0
  162.3860  209.1220  150.1020 C   0  0  2  0  0  3  0  0  0  0  0  0
  161.7760  210.4050  149.5480 C   0  0  0  0  0  0  0  0  0  0  0  0
  161.0930  211.7430  147.6290 C   0  0  0  0  0  0  0  0  0  0  0  0
  161.8870  207.8730  149.4100 C   0  0  0  0  0  0  0  0  0  0  0  0
  160.9350  205.6160  148.0400 C   0  0  0  0  0  3  0  0  0  0  0  0
  161.5740  210.5470  148.1660 C   0  0  0  0  0  3  0  0  0  0  0  0
  160.8310  208.5710  152.0150 C   0  0  2  0  0  3  0  0  0  0  0  0
  162.3310  206.1780  146.1560 O   0  0  0  0  0  1  0  0  0  0  0  0
  161.7160  211.4530  151.8740 C   0  0  0  0  0  2  0  0  0  0  0  0
  160.8850  211.8560  146.2620 O   0  0  0  0  0  1  0  0  0  0  0  0
  160.5340  207.1810  151.4560 C   0  0  0  0  0  2  0  0  0  0  0  0
  162.2530  209.0060  151.6320 C   0  0  2  0  0  3  0  0  0  0  0  0
  162.3490  207.5760  148.1200 C   0  0  0  0  0  3  0  0  0  0  0  0
  160.8270  212.8250  148.4670 C   0  0  0  0  0  3  0  0  0  0  0  0
  160.9440  207.0150  150.0210 C   0  0  0  0  0  0  0  0  0  0  0  0
  160.4810  205.8900  149.3320 C   0  0  0  0  0  3  0  0  0  0  0  0
  162.6570  210.3260  152.2890 C   0  0  0  0  0  2  0  0  0  0  0  0
  161.5400  211.5230  150.3860 C   0  0  0  0  0  0  0  0  0  0  0  0
  161.0490  212.7140  149.8410 C   0  0  0  0  0  3  0  0  0  0  0  0
  159.3330  210.4570  153.5390 O   0  0  0  0  0  0  0  0  0  0  0  0
  159.9060  209.5240  154.1670 C   0  0  0  0  0  0  0  0  0  0  0  0
  160.6780  208.5510  153.4640 N   0  0  0  0  0  2  0  0  0  0  0  0
  159.9840  212.2260  156.4240 C   0  0  0  0  0  0  0  0  0  0  0  0
  158.5820  210.1560  156.2150 C   0  0  0  0  0  2  0  0  0  0  0  0
  162.2610  209.2400  155.9200 N   0  0  0  0  0  1  0  0  0  0  0  0
  160.0600  213.7080  156.5450 C   0  0  0  0  0  1  0  0  0  0  0  0
  158.7750  211.6470  156.3480 C   0  0  0  0  0  3  0  0  0  0  0  0
  161.0770  209.9460  156.3830 C   0  0  2  0  0  3  0  0  0  0  0  0
  159.8190  209.4430  155.6640 C   0  0  2  0  0  3  0  0  0  0  0  0
  161.2630  211.4540  156.2140 C   0  0  0  0  0  2  0  0  0  0  0  0
  1  6  2  0  0  0  0
  1 14  1  0  0  0  0
  2  5  1  6  0  0  0
  2 13  1  0  0  0  0
  3  2  1  0  0  0  0
  3 19  1  0  0  0  0
  4  7  1  0  0  0  0
  4 15  2  0  0  0  0
  5 16  1  0  0  0  0
  6 17  1  0  0  0  0
  7  3  2  0  0  0  0
  8 23  1  1  0  0  0
  9  1  1  0  0  0  0
 10 18  1  0  0  0  0
 11  4  1  0  0  0  0
 12  8  1  0  0  0  0
 13  8  1  0  0  0  0
 13 18  1  1  0  0  0
 14  5  2  0  0  0  0
 15 20  1  0  0  0  0
 16 12  1  0  0  0  0
 17 16  2  0  0  0  0
 19 10  1  0  0  0  0
 20 19  2  0  0  0  0
 21 22  2  0  0  0  0
 23 22  1  0  0  0  0
 24 27  1  0  0  0  0
 25 28  1  0  0  0  0
 28 24  2  0  0  0  0
 29 26  1  6  0  0  0
 30 22  1  6  0  0  0
 30 25  1  0  0  0  0
 30 29  1  0  0  0  0
 31 29  1  0  0  0  0
 31 24  1  0  0  0  0
M  END
>  <MODEL>
8

>  <REMARK>
 VINA RESULT:      -4.8      2.750      5.449
  Name = 
  2 active torsions:
  status: ('A' for Active; 'I' for Inactive)
    1  A    between atoms: C_5  and  C_30
    2  A    between atoms: C_10  and  N_16
                            x       y       z     vdW  Elec       q    Type
                         _______ _______ _______ _____ _____    ______ ____

>  <TORSDO>
F 2

$$$$
=
 OpenBabel11122413063D

 31 35  0  0  1  0  0  0  0  0999 V2000
  161.0060  207.1110  155.4420 C   0  0  0  0  0  0  0  0  0  0  0  0
  161.9560  208.2880  151.9510 C   0  0  2  0  0  3  0  0  0  0  0  0
  161.4120  207.2430  150.9830 C   0  0  0  0  0  0  0  0  0  0  0  0
  160.6860  204.9560  150.5580 C   0  0  0  0  0  0  0  0  0  0  0  0
  161.3000  208.2440  153.3130 C   0  0  0  0  0  0  0  0  0  0  0  0
  160.0550  208.0600  155.8220 C   0  0  0  0  0  3  0  0  0  0  0  0
  161.1090  205.9510  151.4420 C   0  0  0  0  0  3  0  0  0  0  0  0
  160.5240  210.3020  151.4290 C   0  0  2  0  0  3  0  0  0  0  0  0
  161.3330  206.0730  156.3040 O   0  0  0  0  0  1  0  0  0  0  0  0
  161.6310  208.8590  149.0200 C   0  0  0  0  0  2  0  0  0  0  0  0
  160.3760  203.6910  151.0360 O   0  0  0  0  0  1  0  0  0  0  0  0
  160.0680  210.4330  152.8810 C   0  0  0  0  0  2  0  0  0  0  0  0
  161.9410  209.7120  151.3670 C   0  0  2  0  0  3  0  0  0  0  0  0
  161.6280  207.2050  154.1960 C   0  0  0  0  0  3  0  0  0  0  0  0
  160.5800  205.2330  149.1960 C   0  0  0  0  0  3  0  0  0  0  0  0
  160.3430  209.2080  153.7040 C   0  0  0  0  0  0  0  0  0  0  0  0
  159.7340  209.1100  154.9590 C   0  0  0  0  0  3  0  0  0  0  0  0
  162.5060  209.6980  149.9460 C   0  0  0  0  0  2  0  0  0  0  0  0
  161.3380  207.5030  149.5920 C   0  0  0  0  0  0  0  0  0  0  0  0
  160.9040  206.5030  148.7160 C   0  0  0  0  0  3  0  0  0  0  0  0
  158.4890  212.2620  151.8050 O   0  0  0  0  0  0  0  0  0  0  0  0
  159.4420  212.5530  151.0310 C   0  0  0  0  0  0  0  0  0  0  0  0
  160.4900  211.6130  150.7930 N   0  0  0  0  0  2  0  0  0  0  0  0
  158.1310  213.2440  147.8360 C   0  0  0  0  0  0  0  0  0  0  0  0
  158.0700  214.4240  150.0490 C   0  0  0  0  0  2  0  0  0  0  0  0
  161.6410  213.3920  149.2530 N   0  0  0  0  0  1  0  0  0  0  0  0
  157.3950  212.6720  146.6740 C   0  0  0  0  0  1  0  0  0  0  0  0
  157.4270  213.8220  148.8230 C   0  0  0  0  0  3  0  0  0  0  0  0
  160.2840  213.8530  149.0150 C   0  0  2  0  0  3  0  0  0  0  0  0
  159.4730  213.8740  150.3160 C   0  0  2  0  0  3  0  0  0  0  0  0
  159.6150  212.9920  147.9430 C   0  0  0  0  0  2  0  0  0  0  0  0
  1  6  1  0  0  0  0
  1  9  1  0  0  0  0
  2  3  1  6  0  0  0
  2  5  1  0  0  0  0
  3  7  1  0  0  0  0
  4 11  1  0  0  0  0
  4  7  2  0  0  0  0
  5 16  2  0  0  0  0
  5 14  1  0  0  0  0
  8 23  1  1  0  0  0
  8 12  1  0  0  0  0
 10 19  1  0  0  0  0
 10 18  1  0  0  0  0
 12 16  1  0  0  0  0
 13 18  1  6  0  0  0
 13  8  1  0  0  0  0
 13  2  1  0  0  0  0
 14  1  2  0  0  0  0
 15  4  1  0  0  0  0
 16 17  1  0  0  0  0
 17  6  2  0  0  0  0
 19  3  2  0  0  0  0
 20 15  2  0  0  0  0
 20 19  1  0  0  0  0
 22 21  2  0  0  0  0
 23 22  1  0  0  0  0
 24 31  1  0  0  0  0
 24 28  2  0  0  0  0
 25 30  1  0  0  0  0
 27 24  1  0  0  0  0
 28 25  1  0  0  0  0
 29 26  1  1  0  0  0
 29 30  1  0  0  0  0
 30 22  1  6  0  0  0
 31 29  1  0  0  0  0
M  END
>  <MODEL>
9

>  <REMARK>
 VINA RESULT:      -4.8      3.941      6.538
  Name = 
  2 active torsions:
  status: ('A' for Active; 'I' for Inactive)
    1  A    between atoms: C_5  and  C_30
    2  A    between atoms: C_10  and  N_16
                            x       y       z     vdW  Elec       q    Type
                         _______ _______ _______ _____ _____    ______ ____

>  <TORSDO>
F 2

$$$$
