=
 OpenBabel11122412493D

 32 37  0  0  1  0  0  0  0  0999 V2000
  159.1460  210.8190  154.1150 C   0  0  0  0  0  2  0  0  0  0  0  0
  160.8860  213.2510  149.3310 C   0  0  1  0  0  3  0  0  0  0  0  0
  156.0890  213.7840  149.0380 C   0  0  0  0  0  2  0  0  0  0  0  0
  156.1580  213.8610  147.5030 C   0  0  0  0  0  2  0  0  0  0  0  0
  162.1920  212.8140  147.2190 C   0  0  0  0  0  0  0  0  0  0  0  0
  162.3540  213.1640  145.8460 N   0  0  0  0  0  0  0  0  0  0  0  0
  160.8030  212.1480  151.5880 C   0  0  1  0  0  3  0  0  0  0  0  0
  159.7500  214.3540  151.2170 C   0  0  0  0  0  2  0  0  0  0  0  0
  161.7870  213.8130  143.8120 C   0  0  0  0  0  0  0  0  0  0  0  0
  159.4390  213.2300  153.4200 C   0  0  0  0  0  2  0  0  0  0  0  0
  157.3030  214.4520  149.6940 C   0  0  0  0  0  2  0  0  0  0  0  0
  159.8270  214.2060  149.7510 N   0  0  2  0  0  0  0  0  0  0  0  0
  158.5620  213.7870  149.1410 C   0  0  2  0  0  3  0  0  0  0  0  0
  159.9860  213.9200  147.0800 N   0  0  2  0  0  0  0  0  0  0  0  0
  163.1440  213.5280  143.7920 C   0  0  0  0  0  3  0  0  0  0  0  0
  159.5370  210.2390  152.7620 C   0  0  0  0  0  2  0  0  0  0  0  0
  159.5920  213.0150  151.9240 C   0  0  2  0  0  3  0  0  0  0  0  0
  163.4670  213.1220  145.0860 C   0  0  0  0  0  3  0  0  0  0  0  0
  160.8840  210.8070  152.3300 C   0  0  0  0  0  2  0  0  0  0  0  0
  158.4810  212.1890  153.9850 C   0  0  2  0  0  3  0  0  0  0  0  0
  157.4880  213.3190  146.9650 C   0  0  0  0  0  2  0  0  0  0  0  0
  158.6250  214.0850  147.6460 C   0  0  1  0  0  3  0  0  0  0  0  0
  159.9480  213.6710  145.6260 C   0  0  0  0  0  2  0  0  0  0  0  0
  160.8210  211.9170  150.0900 C   0  0  0  0  0  2  0  0  0  0  0  0
  163.1610  212.3570  147.8840 O   0  0  0  0  0  0  0  0  0  0  0  0
  160.9720  214.2660  142.6520 C   0  0  0  0  0  1  0  0  0  0  0  0
  160.8070  212.9240  147.8180 C   0  0  2  0  0  3  0  0  0  0  0  0
  161.3410  213.5890  145.0910 C   0  0  0  0  0  0  0  0  0  0  0  0
  158.0130  212.6320  155.2910 N   0  0  0  0  0  2  0  0  0  0  0  0
  156.6350  212.8810  155.5710 C   0  0  0  0  0  0  0  0  0  0  0  0
  155.7610  212.7450  154.6740 O   0  0  0  0  0  0  0  0  0  0  0  0
  156.2280  213.3070  156.9360 C   0  0  0  0  0  1  0  0  0  0  0  0
  2 12  1  0  0  0  0
  2 24  1  1  0  0  0
  3 11  1  0  0  0  0
  4  3  1  0  0  0  0
  5 25  2  0  0  0  0
  6  5  1  0  0  0  0
  7 24  1  6  0  0  0
  7 17  1  0  0  0  0
  7 19  1  0  0  0  0
  9 28  2  0  0  0  0
 10 20  1  0  0  0  0
 12  8  1  1  0  0  0
 13 11  1  1  0  0  0
 13 12  1  0  0  0  0
 14 23  1  6  0  0  0
 14 22  1  0  0  0  0
 14 27  1  0  0  0  0
 15  9  1  0  0  0  0
 15 18  2  0  0  0  0
 16  1  1  0  0  0  0
 17  8  1  6  0  0  0
 17 10  1  0  0  0  0
 18  6  1  0  0  0  0
 19 16  1  0  0  0  0
 20  1  1  0  0  0  0
 20 29  1  1  0  0  0
 21  4  1  0  0  0  0
 22 21  1  6  0  0  0
 22 13  1  0  0  0  0
 26  9  1  0  0  0  0
 27  5  1  6  0  0  0
 27  2  1  0  0  0  0
 28 23  1  0  0  0  0
 28  6  1  0  0  0  0
 29 30  1  0  0  0  0
 30 32  1  0  0  0  0
 31 30  2  0  0  0  0
M  END
>  <MODEL>
1

>  <REMARK>
 VINA RESULT:      -4.7      0.000      0.000
  Name = 
  1 active torsions:
  status: ('A' for Active; 'I' for Inactive)
    1  A    between atoms: C_20  and  N_29
                            x       y       z     vdW  Elec       q    Type
                         _______ _______ _______ _____ _____    ______ ____

>  <TORSDO>
F 1

$$$$
=
 OpenBabel11122412493D

 32 37  0  0  1  0  0  0  0  0999 V2000
  159.7510  208.9360  156.3210 C   0  0  0  0  0  2  0  0  0  0  0  0
  161.3860  205.2420  152.3830 C   0  0  1  0  0  3  0  0  0  0  0  0
  161.7560  209.4480  150.0260 C   0  0  0  0  0  2  0  0  0  0  0  0
  161.5760  208.7410  148.6710 C   0  0  0  0  0  2  0  0  0  0  0  0
  160.6300  203.1990  151.1130 C   0  0  0  0  0  0  0  0  0  0  0  0
  160.7490  202.4620  149.8980 N   0  0  0  0  0  0  0  0  0  0  0  0
  160.6740  206.3120  154.5430 C   0  0  1  0  0  3  0  0  0  0  0  0
  162.7630  207.0020  153.4150 C   0  0  0  0  0  2  0  0  0  0  0  0
  161.0350  202.0970  147.7380 C   0  0  0  0  0  0  0  0  0  0  0  0
  162.0180  208.2590  155.4340 C   0  0  0  0  0  2  0  0  0  0  0  0
  162.5510  208.5840  151.0130 C   0  0  0  0  0  2  0  0  0  0  0  0
  162.3740  206.3300  152.1610 N   0  0  2  0  0  0  0  0  0  0  0  0
  161.8310  207.2450  151.1540 C   0  0  2  0  0  3  0  0  0  0  0  0
  161.6480  205.0870  149.8860 N   0  0  2  0  0  0  0  0  0  0  0  0
  160.7810  200.8710  148.3350 C   0  0  0  0  0  3  0  0  0  0  0  0
  158.9620  208.0470  155.3690 C   0  0  0  0  0  2  0  0  0  0  0  0
  161.5590  207.5080  154.1960 C   0  0  2  0  0  3  0  0  0  0  0  0
  160.6050  201.1380  149.6920 C   0  0  0  0  0  3  0  0  0  0  0  0
  159.4790  206.6150  155.4560 C   0  0  0  0  0  2  0  0  0  0  0  0
  161.0660  209.4160  155.7060 C   0  0  2  0  0  3  0  0  0  0  0  0
  160.9820  207.3370  148.8340 C   0  0  0  0  0  2  0  0  0  0  0  0
  161.8750  206.5510  149.7960 C   0  0  1  0  0  3  0  0  0  0  0  0
  161.1580  204.5290  148.6110 C   0  0  0  0  0  2  0  0  0  0  0  0
  160.1960  205.6840  153.2490 C   0  0  0  0  0  2  0  0  0  0  0  0
  160.3120  202.6190  152.1870 O   0  0  0  0  0  0  0  0  0  0  0  0
  161.2690  202.3310  146.2870 C   0  0  0  0  0  1  0  0  0  0  0  0
  160.8080  204.7000  151.0510 C   0  0  2  0  0  3  0  0  0  0  0  0
  161.0190  203.0460  148.7300 C   0  0  0  0  0  0  0  0  0  0  0  0
  161.7100  210.3630  156.6050 N   0  0  0  0  0  2  0  0  0  0  0  0
  162.9630  210.9790  156.3050 C   0  0  0  0  0  0  0  0  0  0  0  0
  163.5790  210.7010  155.2420 O   0  0  0  0  0  0  0  0  0  0  0  0
  163.5490  211.9550  157.2610 C   0  0  0  0  0  1  0  0  0  0  0  0
  2 24  1  1  0  0  0
  3 11  1  0  0  0  0
  4 21  1  0  0  0  0
  4  3  1  0  0  0  0
  5 25  2  0  0  0  0
  6  5  1  0  0  0  0
  7 24  1  6  0  0  0
  7 19  1  0  0  0  0
  9 15  1  0  0  0  0
  9 28  2  0  0  0  0
 10 20  1  0  0  0  0
 12  2  1  0  0  0  0
 12  8  1  1  0  0  0
 13 11  1  6  0  0  0
 13 12  1  0  0  0  0
 14 23  1  6  0  0  0
 14 27  1  0  0  0  0
 15 18  2  0  0  0  0
 16 19  1  0  0  0  0
 16  1  1  0  0  0  0
 17  8  1  1  0  0  0
 17  7  1  0  0  0  0
 17 10  1  0  0  0  0
 18  6  1  0  0  0  0
 20  1  1  0  0  0  0
 20 29  1  1  0  0  0
 22 21  1  6  0  0  0
 22 14  1  0  0  0  0
 22 13  1  0  0  0  0
 23 28  1  0  0  0  0
 26  9  1  0  0  0  0
 27  5  1  1  0  0  0
 27  2  1  0  0  0  0
 28  6  1  0  0  0  0
 30 29  1  0  0  0  0
 30 32  1  0  0  0  0
 31 30  2  0  0  0  0
M  END
>  <MODEL>
2

>  <REMARK>
 VINA RESULT:      -3.7      6.625      8.675
  Name = 
  1 active torsions:
  status: ('A' for Active; 'I' for Inactive)
    1  A    between atoms: C_20  and  N_29
                            x       y       z     vdW  Elec       q    Type
                         _______ _______ _______ _____ _____    ______ ____

>  <TORSDO>
F 1

$$$$
=
 OpenBabel11122412493D

 32 37  0  0  1  0  0  0  0  0999 V2000
  162.0190  200.7560  149.0650 C   0  0  0  0  0  2  0  0  0  0  0  0
  160.4830  205.3680  151.9300 C   0  0  1  0  0  3  0  0  0  0  0  0
  162.3310  207.2690  147.8860 C   0  0  0  0  0  2  0  0  0  0  0  0
  162.6570  208.5850  148.6150 C   0  0  0  0  0  2  0  0  0  0  0  0
  160.8310  206.5810  154.1130 C   0  0  0  0  0  0  0  0  0  0  0  0
  160.8400  207.8510  154.7610 N   0  0  0  0  0  0  0  0  0  0  0  0
  160.8300  202.9930  151.1820 C   0  0  1  0  0  3  0  0  0  0  0  0
  159.5590  204.5890  149.7850 C   0  0  0  0  0  2  0  0  0  0  0  0
  161.1150  210.0290  155.0060 C   0  0  0  0  0  0  0  0  0  0  0  0
  160.0420  202.3180  148.8770 C   0  0  0  0  0  2  0  0  0  0  0  0
  161.0260  206.6480  148.3980 C   0  0  0  0  0  2  0  0  0  0  0  0
  160.0520  205.7440  150.5580 N   0  0  2  0  0  0  0  0  0  0  0  0
  161.1580  206.4520  149.9070 C   0  0  2  0  0  3  0  0  0  0  0  0
  160.9560  207.8380  151.9890 N   0  0  2  0  0  0  0  0  0  0  0  0
  160.7340  209.5190  156.2380 C   0  0  0  0  0  3  0  0  0  0  0  0
  162.7000  201.5340  150.1840 C   0  0  0  0  0  2  0  0  0  0  0  0
  160.5650  203.4480  149.7480 C   0  0  2  0  0  3  0  0  0  0  0  0
  160.5700  208.1480  156.0480 C   0  0  0  0  0  3  0  0  0  0  0  0
  161.7180  201.7510  151.3300 C   0  0  0  0  0  2  0  0  0  0  0  0
  161.2060  201.6650  148.1430 C   0  0  2  0  0  3  0  0  0  0  0  0
  162.6480  208.4100  150.1380 C   0  0  0  0  0  2  0  0  0  0  0  0
  161.2900  207.8320  150.5430 C   0  0  1  0  0  3  0  0  0  0  0  0
  161.5850  208.9720  152.6910 C   0  0  0  0  0  2  0  0  0  0  0  0
  161.4290  204.1570  151.9470 C   0  0  0  0  0  2  0  0  0  0  0  0
  160.5850  205.5300  154.7640 O   0  0  0  0  0  0  0  0  0  0  0  0
  161.4300  211.4530  154.7090 C   0  0  0  0  0  1  0  0  0  0  0  0
  161.2130  206.5300  152.6500 C   0  0  2  0  0  3  0  0  0  0  0  0
  161.1570  208.9780  154.1230 C   0  0  0  0  0  0  0  0  0  0  0  0
  160.6890  200.8910  147.0240 N   0  0  0  0  0  2  0  0  0  0  0  0
  160.5380  201.4380  145.7130 C   0  0  0  0  0  0  0  0  0  0  0  0
  160.8310  202.6410  145.4810 O   0  0  0  0  0  0  0  0  0  0  0  0
  160.0270  200.5790  144.6140 C   0  0  0  0  0  1  0  0  0  0  0  0
  1 16  1  0  0  0  0
  2 24  1  6  0  0  0
  2 27  1  0  0  0  0
  3 11  1  0  0  0  0
  3  4  1  0  0  0  0
  4 21  1  0  0  0  0
  5  6  1  0  0  0  0
  5 25  2  0  0  0  0
  6 18  1  0  0  0  0
  7 19  1  6  0  0  0
  7 24  1  0  0  0  0
  9 15  1  0  0  0  0
 12  8  1  6  0  0  0
 12  2  1  0  0  0  0
 13 11  1  6  0  0  0
 13 22  1  0  0  0  0
 13 12  1  0  0  0  0
 14 27  1  0  0  0  0
 14 23  1  1  0  0  0
 16 19  1  0  0  0  0
 17 10  1  6  0  0  0
 17  8  1  0  0  0  0
 17  7  1  0  0  0  0
 18 15  2  0  0  0  0
 20 29  1  6  0  0  0
 20 10  1  0  0  0  0
 20  1  1  0  0  0  0
 22 21  1  1  0  0  0
 22 14  1  0  0  0  0
 23 28  1  0  0  0  0
 26  9  1  0  0  0  0
 27  5  1  1  0  0  0
 28  6  1  0  0  0  0
 28  9  2  0  0  0  0
 30 29  1  0  0  0  0
 31 30  2  0  0  0  0
 32 30  1  0  0  0  0
M  END
>  <MODEL>
3

>  <REMARK>
 VINA RESULT:      -2.7      7.179     10.779
  Name = 
  1 active torsions:
  status: ('A' for Active; 'I' for Inactive)
    1  A    between atoms: C_20  and  N_29
                            x       y       z     vdW  Elec       q    Type
                         _______ _______ _______ _____ _____    ______ ____

>  <TORSDO>
F 1

$$$$
=
 OpenBabel11122412493D

 32 37  0  0  1  0  0  0  0  0999 V2000
  159.2360  210.5170  155.4660 C   0  0  0  0  0  2  0  0  0  0  0  0
  161.7500  207.7020  151.2720 C   0  0  1  0  0  3  0  0  0  0  0  0
  161.2700  212.1210  149.3670 C   0  0  0  0  0  2  0  0  0  0  0  0
  161.2890  211.5440  147.9410 C   0  0  0  0  0  2  0  0  0  0  0  0
  161.4920  205.6960  149.7670 C   0  0  0  0  0  0  0  0  0  0  0  0
  161.8040  205.1370  148.4920 N   0  0  0  0  0  0  0  0  0  0  0  0
  160.7580  208.3570  153.4870 C   0  0  1  0  0  3  0  0  0  0  0  0
  162.6810  209.5930  152.5440 C   0  0  0  0  0  2  0  0  0  0  0  0
  162.2280  205.0770  146.3250 C   0  0  0  0  0  0  0  0  0  0  0  0
  161.6210  210.4360  154.6370 C   0  0  0  0  0  2  0  0  0  0  0  0
  162.2040  211.3440  150.3040 C   0  0  0  0  0  2  0  0  0  0  0  0
  162.4840  208.9930  151.2110 N   0  0  2  0  0  0  0  0  0  0  0  0
  161.7860  209.8760  150.2730 C   0  0  2  0  0  3  0  0  0  0  0  0
  162.1140  207.8780  148.7890 N   0  0  2  0  0  0  0  0  0  0  0  0
  162.2270  203.7680  146.7830 C   0  0  0  0  0  3  0  0  0  0  0  0
  158.6870  209.5890  154.3900 C   0  0  0  0  0  2  0  0  0  0  0  0
  161.3730  209.7430  153.3080 C   0  0  2  0  0  3  0  0  0  0  0  0
  161.9570  203.8430  148.1480 C   0  0  0  0  0  3  0  0  0  0  0  0
  159.4980  208.2980  154.3610 C   0  0  0  0  0  2  0  0  0  0  0  0
  160.4330  211.3280  154.9720 C   0  0  2  0  0  3  0  0  0  0  0  0
  161.0080  210.0360  147.9330 C   0  0  0  0  0  2  0  0  0  0  0  0
  162.0210  209.3580  148.8570 C   0  0  1  0  0  3  0  0  0  0  0  0
  161.7950  207.3710  147.4410 C   0  0  0  0  0  2  0  0  0  0  0  0
  160.4660  207.7850  152.1140 C   0  0  0  0  0  2  0  0  0  0  0  0
  161.2760  204.9480  150.7590 O   0  0  0  0  0  0  0  0  0  0  0  0
  162.4490  205.5110  144.9190 C   0  0  0  0  0  1  0  0  0  0  0  0
  161.3430  207.1980  149.8640 C   0  0  2  0  0  3  0  0  0  0  0  0
  161.9770  205.8880  147.4050 C   0  0  0  0  0  0  0  0  0  0  0  0
  160.8300  212.2870  155.9930 N   0  0  0  0  0  2  0  0  0  0  0  0
  160.1620  213.5360  156.1790 C   0  0  0  0  0  0  0  0  0  0  0  0
  159.2020  213.8680  155.4340 O   0  0  0  0  0  0  0  0  0  0  0  0
  160.6080  214.4530  157.2590 C   0  0  0  0  0  1  0  0  0  0  0  0
  2 24  1  1  0  0  0
  3 11  1  0  0  0  0
  4  3  1  0  0  0  0
  5 25  2  0  0  0  0
  6  5  1  0  0  0  0
  7 24  1  6  0  0  0
  7 19  1  0  0  0  0
  9 15  1  0  0  0  0
  9 28  2  0  0  0  0
 10 20  1  0  0  0  0
 12  2  1  0  0  0  0
 12  8  1  1  0  0  0
 13 11  1  6  0  0  0
 13 12  1  0  0  0  0
 14 23  1  6  0  0  0
 14 22  1  0  0  0  0
 14 27  1  0  0  0  0
 15 18  2  0  0  0  0
 16  1  1  0  0  0  0
 17  8  1  1  0  0  0
 17  7  1  0  0  0  0
 17 10  1  0  0  0  0
 18  6  1  0  0  0  0
 19 16  1  0  0  0  0
 20  1  1  0  0  0  0
 20 29  1  1  0  0  0
 21  4  1  0  0  0  0
 22 21  1  6  0  0  0
 22 13  1  0  0  0  0
 26  9  1  0  0  0  0
 27  5  1  1  0  0  0
 27  2  1  0  0  0  0
 28 23  1  0  0  0  0
 28  6  1  0  0  0  0
 29 30  1  0  0  0  0
 30 32  1  0  0  0  0
 31 30  2  0  0  0  0
M  END
>  <MODEL>
4

>  <REMARK>
 VINA RESULT:      -2.0      4.774      6.108
  Name = 
  1 active torsions:
  status: ('A' for Active; 'I' for Inactive)
    1  A    between atoms: C_20  and  N_29
                            x       y       z     vdW  Elec       q    Type
                         _______ _______ _______ _____ _____    ______ ____

>  <TORSDO>
F 1

$$$$
