=
 OpenBabel11122414083D

 28 32  0  0  1  0  0  0  0  0999 V2000
  160.9290  208.9900  156.1120 C   0  0  0  0  0  0  0  0  0  0  0  0
  157.0900  211.1040  153.6120 F   0  0  0  0  0  0  0  0  0  0  0  0
  162.7020  208.5710  151.6410 O   0  0  0  0  0  0  0  0  0  0  0  0
  163.0120  210.8630  156.0850 C   0  0  0  0  0  3  0  0  0  0  0  0
  161.2810  210.4950  151.4740 C   0  0  0  0  0  0  0  0  0  0  0  0
  159.8810  207.9180  156.0680 C   0  0  0  0  0  2  0  0  0  0  0  0
  157.3260  212.3560  155.5960 C   0  0  0  0  0  1  0  0  0  0  0  0
  157.8090  212.1480  154.1750 C   0  0  1  0  0  0  0  0  0  0  0  0
  158.2080  213.2880  152.0210 C   0  0  1  0  0  3  0  0  0  0  0  0
  159.3250  211.8440  154.1960 C   0  0  2  0  0  3  0  0  0  0  0  0
  162.3070  206.4370  154.1150 O   0  0  0  0  0  0  0  0  0  0  0  0
  159.6390  209.7190  153.0220 C   0  0  1  0  0  3  0  0  0  0  0  0
  159.6040  213.3000  152.1850 O   0  0  0  0  0  0  0  0  0  0  0  0
  157.5280  213.4110  153.3760 C   0  0  0  0  0  2  0  0  0  0  0  0
  161.1300  206.7440  154.2120 C   0  0  0  0  0  0  0  0  0  0  0  0
  160.8290  210.1310  155.2890 C   0  0  0  0  0  0  0  0  0  0  0  0
  161.6670  209.2050  151.9780 C   0  0  0  0  0  0  0  0  0  0  0  0
  157.7960  214.4530  151.1460 C   0  0  0  0  0  1  0  0  0  0  0  0
  160.4100  207.2900  153.0230 C   0  0  0  0  0  2  0  0  0  0  0  0
  161.8920  211.0510  155.2730 C   0  0  0  0  0  3  0  0  0  0  0  0
  162.0520  208.8140  156.9320 C   0  0  0  0  0  3  0  0  0  0  0  0
  163.0880  209.7500  156.9220 C   0  0  0  0  0  3  0  0  0  0  0  0
  160.4330  206.5940  155.5330 C   0  0  0  0  0  2  0  0  0  0  0  0
  159.9440  210.8580  152.0190 C   0  0  1  0  0  3  0  0  0  0  0  0
  160.6910  208.7110  152.8740 N   0  0  0  0  0  0  0  0  0  0  0  0
  160.0210  212.1250  152.8560 C   0  0  2  0  0  3  0  0  0  0  0  0
  161.9480  211.1850  150.6590 O   0  0  0  0  0  0  0  0  0  0  0  0
  159.5940  210.3570  154.4310 C   0  0  1  0  0  3  0  0  0  0  0  0
  1 21  1  0  0  0  0
  2  8  1  0  0  0  0
  3 17  2  0  0  0  0
  4 22  1  0  0  0  0
  5 17  1  0  0  0  0
  5 24  1  0  0  0  0
  6  1  1  0  0  0  0
  8 10  1  0  0  0  0
  8  7  1  1  0  0  0
  9 18  1  6  0  0  0
  9 13  1  0  0  0  0
  9 14  1  0  0  0  0
 10 28  1  0  0  0  0
 11 15  2  0  0  0  0
 12 28  1  0  0  0  0
 13 26  1  0  0  0  0
 14  8  1  0  0  0  0
 15 23  1  0  0  0  0
 16  1  2  0  0  0  0
 17 25  1  0  0  0  0
 19 15  1  0  0  0  0
 20 16  1  0  0  0  0
 20  4  2  0  0  0  0
 22 21  2  0  0  0  0
 23  6  1  0  0  0  0
 24 26  1  0  0  0  0
 24 12  1  0  0  0  0
 25 12  1  0  0  0  0
 25 19  1  0  0  0  0
 26 10  1  0  0  0  0
 27  5  2  0  0  0  0
 28 16  1  0  0  0  0
M  END
>  <MODEL>
1

>  <REMARK>
 VINA RESULT:      -4.1      0.000      0.000
  Name = 
  0 active torsions:
  status: ('A' for Active; 'I' for Inactive)
                            x       y       z     vdW  Elec       q    Type
                         _______ _______ _______ _____ _____    ______ ____

>  <TORSDO>
F 0

$$$$
=
 OpenBabel11122414083D

 28 32  0  0  1  0  0  0  0  0999 V2000
  160.7580  208.8320  156.2070 C   0  0  0  0  0  0  0  0  0  0  0  0
  156.3600  210.5390  154.4190 F   0  0  0  0  0  0  0  0  0  0  0  0
  162.2070  209.9250  151.7330 O   0  0  0  0  0  0  0  0  0  0  0  0
  162.3740  211.0870  156.6040 C   0  0  0  0  0  3  0  0  0  0  0  0
  160.3930  211.4500  152.0940 C   0  0  0  0  0  0  0  0  0  0  0  0
  159.9680  207.5900  155.9190 C   0  0  0  0  0  2  0  0  0  0  0  0
  156.4790  211.2960  156.6490 C   0  0  0  0  0  1  0  0  0  0  0  0
  156.8780  211.5540  155.2100 C   0  0  1  0  0  0  0  0  0  0  0  0
  156.8400  213.2400  153.4060 C   0  0  1  0  0  3  0  0  0  0  0  0
  158.4200  211.6130  155.1160 C   0  0  2  0  0  3  0  0  0  0  0  0
  162.4900  207.2260  153.5960 O   0  0  0  0  0  0  0  0  0  0  0  0
  159.0920  209.9650  153.4350 C   0  0  1  0  0  3  0  0  0  0  0  0
  158.2100  213.5350  153.5330 O   0  0  0  0  0  0  0  0  0  0  0  0
  156.2630  212.8720  154.7640 C   0  0  0  0  0  2  0  0  0  0  0  0
  161.2870  207.2200  153.7960 C   0  0  0  0  0  0  0  0  0  0  0  0
  160.3450  210.0830  155.7020 C   0  0  0  0  0  0  0  0  0  0  0  0
  161.0910  210.2020  152.2450 C   0  0  0  0  0  0  0  0  0  0  0  0
  156.1140  214.4530  152.8650 C   0  0  0  0  0  1  0  0  0  0  0  0
  160.3700  207.8540  152.8020 C   0  0  0  0  0  2  0  0  0  0  0  0
  161.1770  211.2000  155.8940 C   0  0  0  0  0  3  0  0  0  0  0  0
  161.9550  208.7290  156.9280 C   0  0  0  0  0  3  0  0  0  0  0  0
  162.7580  209.8530  157.1290 C   0  0  0  0  0  3  0  0  0  0  0  0
  160.7500  206.5990  155.0530 C   0  0  0  0  0  2  0  0  0  0  0  0
  159.0580  211.3520  152.7460 C   0  0  1  0  0  3  0  0  0  0  0  0
  160.3220  209.2950  153.0110 N   0  0  0  0  0  0  0  0  0  0  0  0
  158.9260  212.3620  153.8750 C   0  0  2  0  0  3  0  0  0  0  0  0
  160.8250  212.4510  151.4640 O   0  0  0  0  0  0  0  0  0  0  0  0
  159.0240  210.2180  154.9600 C   0  0  1  0  0  3  0  0  0  0  0  0
  1 21  1  0  0  0  0
  2  8  1  0  0  0  0
  3 17  2  0  0  0  0
  4 22  1  0  0  0  0
  5 17  1  0  0  0  0
  5 24  1  0  0  0  0
  6  1  1  0  0  0  0
  8  7  1  1  0  0  0
  9 18  1  1  0  0  0
  9 13  1  0  0  0  0
  9 14  1  0  0  0  0
 10  8  1  0  0  0  0
 11 15  2  0  0  0  0
 12 28  1  0  0  0  0
 13 26  1  0  0  0  0
 14  8  1  0  0  0  0
 15 23  1  0  0  0  0
 16 20  1  0  0  0  0
 16  1  2  0  0  0  0
 17 25  1  0  0  0  0
 19 25  1  0  0  0  0
 19 15  1  0  0  0  0
 20  4  2  0  0  0  0
 21 22  2  0  0  0  0
 23  6  1  0  0  0  0
 24 12  1  0  0  0  0
 24 26  1  0  0  0  0
 25 12  1  0  0  0  0
 26 10  1  0  0  0  0
 27  5  2  0  0  0  0
 28 10  1  0  0  0  0
 28 16  1  0  0  0  0
M  END
>  <MODEL>
2

>  <REMARK>
 VINA RESULT:      -3.8      1.071      1.264
  Name = 
  0 active torsions:
  status: ('A' for Active; 'I' for Inactive)
                            x       y       z     vdW  Elec       q    Type
                         _______ _______ _______ _____ _____    ______ ____

>  <TORSDO>
F 0

$$$$
