=
 OpenBabel11122413083D

 31 35  0  0  1  0  0  0  0  0999 V2000
  160.8410  202.2150  150.7430 C   0  0  0  0  0  0  0  0  0  0  0  0
  161.3010  205.6280  149.4230 C   0  0  0  0  0  0  0  0  0  0  0  0
  161.2230  205.4700  147.9380 C   0  0  0  0  0  0  0  0  0  0  0  0
  161.1000  204.1120  145.9200 C   0  0  0  0  0  0  0  0  0  0  0  0
  161.1660  204.5420  150.3290 C   0  0  0  0  0  0  0  0  0  0  0  0
  160.8900  202.4220  152.1210 C   0  0  0  0  0  3  0  0  0  0  0  0
  161.2300  204.2150  147.3060 C   0  0  0  0  0  3  0  0  0  0  0  0
  161.5220  207.1520  151.3370 C   0  0  0  0  0  0  0  0  0  0  0  0
  160.6580  200.9660  150.2520 F   0  0  0  0  0  0  0  0  0  0  0  0
  161.1120  207.8850  147.7370 O   0  0  0  0  0  0  0  0  0  0  0  0
  161.1070  202.7760  145.2700 C   0  0  0  0  0  1  0  0  0  0  0  0
  161.3890  206.0700  152.2100 C   0  0  0  0  0  3  0  0  0  0  0  0
  161.4680  206.9350  149.9480 C   0  0  0  0  0  0  0  0  0  0  0  0
  160.9770  203.2660  149.8890 N   0  0  0  0  0  0  0  0  0  0  0  0
  160.9480  205.2630  145.1450 C   0  0  0  0  0  3  0  0  0  0  0  0
  161.2130  204.7810  151.7210 C   0  0  0  0  0  0  0  0  0  0  0  0
  161.0760  203.7140  152.6100 C   0  0  0  0  0  3  0  0  0  0  0  0
  161.7000  208.0980  149.0190 C   0  0  0  0  0  2  0  0  0  0  0  0
  161.0970  206.6240  147.1420 C   0  0  0  0  0  0  0  0  0  0  0  0
  160.9440  206.5180  145.7560 C   0  0  0  0  0  3  0  0  0  0  0  0
  160.4930  208.3530  153.8340 O   0  0  0  0  0  0  0  0  0  0  0  0
  161.2090  209.0400  153.0580 C   0  0  0  0  0  0  0  0  0  0  0  0
  161.7170  208.4860  151.8360 N   0  0  0  0  0  2  0  0  0  0  0  0
  160.2610  211.2630  155.9760 C   0  0  1  0  0  3  0  0  0  0  0  0
  162.3220  210.5530  154.7290 C   0  0  0  0  0  2  0  0  0  0  0  0
  159.5140  211.2370  152.3180 O   0  0  0  0  0  1  0  0  0  0  0  0
  159.4360  210.9900  157.1380 N   0  0  0  0  0  1  0  0  0  0  0  0
  161.4410  210.2960  155.9540 C   0  0  0  0  0  2  0  0  0  0  0  0
  160.2810  211.3740  153.4750 C   0  0  2  0  0  3  0  0  0  0  0  0
  161.5190  210.4620  153.4270 C   0  0  2  0  0  3  0  0  0  0  0  0
  159.4230  211.1050  154.7100 C   0  0  0  0  0  2  0  0  0  0  0  0
  1  6  1  0  0  0  0
  2 13  2  0  0  0  0
  2  5  1  0  0  0  0
  3  2  1  0  0  0  0
  4  7  2  0  0  0  0
  5 16  2  0  0  0  0
  6 17  2  0  0  0  0
  7  3  1  0  0  0  0
  8 23  1  0  0  0  0
  8 12  2  0  0  0  0
  9  1  1  0  0  0  0
 10 18  1  0  0  0  0
 11  4  1  0  0  0  0
 13  8  1  0  0  0  0
 14  5  1  0  0  0  0
 14  1  2  0  0  0  0
 15 20  2  0  0  0  0
 15  4  1  0  0  0  0
 16 12  1  0  0  0  0
 16 17  1  0  0  0  0
 18 13  1  0  0  0  0
 19 10  1  0  0  0  0
 19  3  2  0  0  0  0
 20 19  1  0  0  0  0
 22 21  2  0  0  0  0
 23 22  1  0  0  0  0
 24 27  1  1  0  0  0
 25 28  1  0  0  0  0
 28 24  1  0  0  0  0
 29 26  1  6  0  0  0
 29 31  1  0  0  0  0
 30 22  1  1  0  0  0
 30 29  1  0  0  0  0
 30 25  1  0  0  0  0
 31 24  1  0  0  0  0
M  END
>  <MODEL>
1

>  <REMARK>
 VINA RESULT:     -10.4      0.000      0.000
  Name = 
  2 active torsions:
  status: ('A' for Active; 'I' for Inactive)
    1  A    between atoms: C_5  and  C_30
    2  A    between atoms: C_10  and  N_16
                            x       y       z     vdW  Elec       q    Type
                         _______ _______ _______ _____ _____    ______ ____

>  <TORSDO>
F 2

$$$$
=
 OpenBabel11122413083D

 31 35  0  0  1  0  0  0  0  0999 V2000
  160.8430  207.2480  154.5590 C   0  0  0  0  0  0  0  0  0  0  0  0
  161.4210  207.7960  150.9580 C   0  0  0  0  0  0  0  0  0  0  0  0
  161.3360  206.4310  150.3530 C   0  0  0  0  0  0  0  0  0  0  0  0
  161.1650  204.0070  150.5200 C   0  0  0  0  0  0  0  0  0  0  0  0
  161.2480  208.0430  152.3460 C   0  0  0  0  0  0  0  0  0  0  0  0
  160.8990  208.5440  155.0680 C   0  0  0  0  0  3  0  0  0  0  0  0
  161.3000  205.2580  151.1250 C   0  0  0  0  0  3  0  0  0  0  0  0
  161.6950  210.2100  150.5980 C   0  0  0  0  0  0  0  0  0  0  0  0
  160.6170  206.2040  155.3910 F   0  0  0  0  0  0  0  0  0  0  0  0
  161.3090  207.4610  148.1570 O   0  0  0  0  0  0  0  0  0  0  0  0
  161.1250  202.7780  151.3540 C   0  0  0  0  0  1  0  0  0  0  0  0
  161.5260  210.4300  151.9670 C   0  0  0  0  0  3  0  0  0  0  0  0
  161.6330  208.8990  150.0930 C   0  0  0  0  0  0  0  0  0  0  0  0
  161.0140  207.0280  153.2270 N   0  0  0  0  0  0  0  0  0  0  0  0
  161.0520  203.9110  149.1310 C   0  0  0  0  0  3  0  0  0  0  0  0
  161.3040  209.3670  152.8340 C   0  0  0  0  0  0  0  0  0  0  0  0
  161.1300  209.6090  154.1980 C   0  0  0  0  0  3  0  0  0  0  0  0
  161.9040  208.6680  148.6280 C   0  0  0  0  0  2  0  0  0  0  0  0
  161.2500  206.3180  148.9520 C   0  0  0  0  0  0  0  0  0  0  0  0
  161.0930  205.0660  148.3490 C   0  0  0  0  0  3  0  0  0  0  0  0
  160.2040  212.7490  150.3430 O   0  0  0  0  0  0  0  0  0  0  0  0
  161.1970  212.5300  149.6000 C   0  0  0  0  0  0  0  0  0  0  0  0
  161.9360  211.3030  149.6970 N   0  0  0  0  0  2  0  0  0  0  0  0
  160.2270  213.2210  146.0040 C   0  0  1  0  0  3  0  0  0  0  0  0
  160.4120  214.4530  148.1840 C   0  0  0  0  0  2  0  0  0  0  0  0
  163.3520  212.1440  147.7410 O   0  0  0  0  0  1  0  0  0  0  0  0
  159.3120  212.5180  145.1240 N   0  0  0  0  0  1  0  0  0  0  0  0
  159.4680  213.7180  147.2310 C   0  0  0  0  0  2  0  0  0  0  0  0
  162.3180  213.0020  147.3630 C   0  0  2  0  0  3  0  0  0  0  0  0
  161.5970  213.5720  148.5970 C   0  0  2  0  0  3  0  0  0  0  0  0
  161.3530  212.2810  146.4230 C   0  0  0  0  0  2  0  0  0  0  0  0
  1  6  1  0  0  0  0
  1  9  1  0  0  0  0
  2  5  1  0  0  0  0
  3  2  1  0  0  0  0
  3  7  1  0  0  0  0
  4  7  2  0  0  0  0
  4 11  1  0  0  0  0
  5 16  2  0  0  0  0
  5 14  1  0  0  0  0
  8 12  2  0  0  0  0
 10 18  1  0  0  0  0
 10 19  1  0  0  0  0
 12 16  1  0  0  0  0
 13  8  1  0  0  0  0
 13  2  2  0  0  0  0
 14  1  2  0  0  0  0
 15  4  1  0  0  0  0
 16 17  1  0  0  0  0
 17  6  2  0  0  0  0
 18 13  1  0  0  0  0
 19  3  2  0  0  0  0
 20 19  1  0  0  0  0
 20 15  2  0  0  0  0
 22 23  1  0  0  0  0
 22 21  2  0  0  0  0
 23  8  1  0  0  0  0
 24 27  1  6  0  0  0
 24 31  1  0  0  0  0
 24 28  1  0  0  0  0
 25 30  1  0  0  0  0
 28 25  1  0  0  0  0
 29 26  1  1  0  0  0
 29 30  1  0  0  0  0
 30 22  1  1  0  0  0
 31 29  1  0  0  0  0
M  END
>  <MODEL>
2

>  <REMARK>
 VINA RESULT:     -10.0      3.644      5.825
  Name = 
  2 active torsions:
  status: ('A' for Active; 'I' for Inactive)
    1  A    between atoms: C_5  and  C_30
    2  A    between atoms: C_10  and  N_16
                            x       y       z     vdW  Elec       q    Type
                         _______ _______ _______ _____ _____    ______ ____

>  <TORSDO>
F 2

$$$$
=
 OpenBabel11122413083D

 31 35  0  0  1  0  0  0  0  0999 V2000
  161.8790  206.8830  147.2900 C   0  0  0  0  0  0  0  0  0  0  0  0
  161.2750  205.4550  150.6360 C   0  0  0  0  0  0  0  0  0  0  0  0
  161.1100  203.9880  150.3940 C   0  0  0  0  0  0  0  0  0  0  0  0
  160.8810  202.0600  148.9230 C   0  0  0  0  0  0  0  0  0  0  0  0
  161.5350  206.3900  149.5990 C   0  0  0  0  0  0  0  0  0  0  0  0
  162.0570  208.2370  147.5740 C   0  0  0  0  0  3  0  0  0  0  0  0
  160.9780  203.4410  149.1070 C   0  0  0  0  0  3  0  0  0  0  0  0
  161.3950  207.2860  152.2700 C   0  0  0  0  0  0  0  0  0  0  0  0
  161.9560  206.4450  146.0110 F   0  0  0  0  0  0  0  0  0  0  0  0
  161.2330  203.6300  152.7900 O   0  0  0  0  0  0  0  0  0  0  0  0
  160.7440  201.5010  147.5540 C   0  0  0  0  0  1  0  0  0  0  0  0
  161.6460  208.1890  151.2340 C   0  0  0  0  0  3  0  0  0  0  0  0
  161.2200  205.9220  151.9740 C   0  0  0  0  0  0  0  0  0  0  0  0
  161.6270  206.0010  148.2950 N   0  0  0  0  0  0  0  0  0  0  0  0
  160.9280  201.2040  150.0250 C   0  0  0  0  0  3  0  0  0  0  0  0
  161.7170  207.7550  149.9160 C   0  0  0  0  0  0  0  0  0  0  0  0
  161.9760  208.6720  148.8960 C   0  0  0  0  0  3  0  0  0  0  0  0
  160.8630  204.9740  153.0900 C   0  0  0  0  0  2  0  0  0  0  0  0
  161.1270  203.1160  151.4980 C   0  0  0  0  0  0  0  0  0  0  0  0
  161.0530  201.7320  151.3110 C   0  0  0  0  0  3  0  0  0  0  0  0
  160.4730  209.8980  153.3010 O   0  0  0  0  0  0  0  0  0  0  0  0
  160.8490  209.0050  154.1050 C   0  0  0  0  0  0  0  0  0  0  0  0
  161.3080  207.7290  153.6330 N   0  0  0  0  0  2  0  0  0  0  0  0
  159.3070  211.7540  156.2070 C   0  0  1  0  0  3  0  0  0  0  0  0
  159.3950  209.2450  156.1430 C   0  0  0  0  0  2  0  0  0  0  0  0
  162.7900  210.6860  155.3900 O   0  0  0  0  0  1  0  0  0  0  0  0
  158.5290  212.9150  155.8160 N   0  0  0  0  0  1  0  0  0  0  0  0
  158.5900  210.4860  155.7540 C   0  0  0  0  0  2  0  0  0  0  0  0
  161.5200  210.6110  155.9640 C   0  0  2  0  0  3  0  0  0  0  0  0
  160.8200  209.2970  155.5780 C   0  0  2  0  0  3  0  0  0  0  0  0
  160.6930  211.8340  155.5730 C   0  0  0  0  0  2  0  0  0  0  0  0
  1  6  2  0  0  0  0
  1 14  1  0  0  0  0
  2 13  2  0  0  0  0
  3  2  1  0  0  0  0
  3 19  1  0  0  0  0
  4  7  1  0  0  0  0
  4 15  2  0  0  0  0
  5 16  1  0  0  0  0
  5  2  1  0  0  0  0
  6 17  1  0  0  0  0
  7  3  2  0  0  0  0
  8 23  1  0  0  0  0
  9  1  1  0  0  0  0
 10 18  1  0  0  0  0
 11  4  1  0  0  0  0
 12  8  2  0  0  0  0
 13  8  1  0  0  0  0
 13 18  1  0  0  0  0
 14  5  2  0  0  0  0
 15 20  1  0  0  0  0
 16 12  1  0  0  0  0
 17 16  2  0  0  0  0
 19 10  1  0  0  0  0
 20 19  2  0  0  0  0
 21 22  2  0  0  0  0
 23 22  1  0  0  0  0
 24 27  1  6  0  0  0
 28 25  1  0  0  0  0
 28 24  1  0  0  0  0
 29 26  1  6  0  0  0
 30 22  1  6  0  0  0
 30 29  1  0  0  0  0
 30 25  1  0  0  0  0
 31 29  1  0  0  0  0
 31 24  1  0  0  0  0
M  END
>  <MODEL>
3

>  <REMARK>
 VINA RESULT:     -10.0      2.336      4.103
  Name = 
  2 active torsions:
  status: ('A' for Active; 'I' for Inactive)
    1  A    between atoms: C_5  and  C_30
    2  A    between atoms: C_10  and  N_16
                            x       y       z     vdW  Elec       q    Type
                         _______ _______ _______ _____ _____    ______ ____

>  <TORSDO>
F 2

$$$$
=
 OpenBabel11122413083D

 31 35  0  0  1  0  0  0  0  0999 V2000
  161.8540  206.8580  147.2190 C   0  0  0  0  0  0  0  0  0  0  0  0
  161.2500  205.9210  150.7340 C   0  0  0  0  0  0  0  0  0  0  0  0
  161.0830  204.4350  150.7030 C   0  0  0  0  0  0  0  0  0  0  0  0
  160.8480  202.3180  149.5220 C   0  0  0  0  0  0  0  0  0  0  0  0
  161.5110  206.6990  149.5750 C   0  0  0  0  0  0  0  0  0  0  0  0
  162.0350  208.2380  147.3080 C   0  0  0  0  0  3  0  0  0  0  0  0
  160.9480  203.7110  149.5070 C   0  0  0  0  0  3  0  0  0  0  0  0
  161.3750  207.9650  152.0910 C   0  0  0  0  0  0  0  0  0  0  0  0
  161.9300  206.2420  146.0150 F   0  0  0  0  0  0  0  0  0  0  0  0
  161.2060  204.4210  153.1260 O   0  0  0  0  0  0  0  0  0  0  0  0
  160.7090  201.5700  148.2460 C   0  0  0  0  0  1  0  0  0  0  0  0
  161.6270  208.7110  150.9380 C   0  0  0  0  0  3  0  0  0  0  0  0
  161.1970  206.5730  151.9930 C   0  0  0  0  0  0  0  0  0  0  0  0
  161.6010  206.1290  148.3390 N   0  0  0  0  0  0  0  0  0  0  0  0
  160.8940  201.6270  150.7340 C   0  0  0  0  0  3  0  0  0  0  0  0
  161.6960  208.0940  149.6950 C   0  0  0  0  0  0  0  0  0  0  0  0
  161.9560  208.8570  148.5550 C   0  0  0  0  0  3  0  0  0  0  0  0
  160.8390  205.7940  153.2320 C   0  0  0  0  0  2  0  0  0  0  0  0
  161.0990  203.7280  151.9200 C   0  0  0  0  0  0  0  0  0  0  0  0
  161.0220  202.3320  151.9320 C   0  0  0  0  0  3  0  0  0  0  0  0
  161.2070  210.8490  152.7170 O   0  0  0  0  0  0  0  0  0  0  0  0
  161.2030  210.0040  153.6520 C   0  0  0  0  0  0  0  0  0  0  0  0
  161.2900  208.5980  153.3780 N   0  0  0  0  0  2  0  0  0  0  0  0
  160.4160  208.3320  156.9590 C   0  0  1  0  0  3  0  0  0  0  0  0
  162.1680  209.8330  155.9670 C   0  0  0  0  0  2  0  0  0  0  0  0
  158.7430  210.9030  154.8300 O   0  0  0  0  0  1  0  0  0  0  0  0
  160.0820  206.9530  157.2610 N   0  0  0  0  0  1  0  0  0  0  0  0
  161.7950  208.3890  156.3080 C   0  0  0  0  0  2  0  0  0  0  0  0
  159.7090  210.3660  155.6820 C   0  0  2  0  0  3  0  0  0  0  0  0
  161.1140  210.4920  155.0690 C   0  0  2  0  0  3  0  0  0  0  0  0
  159.3640  208.9170  156.0210 C   0  0  0  0  0  2  0  0  0  0  0  0
  1  6  2  0  0  0  0
  1 14  1  0  0  0  0
  2 13  2  0  0  0  0
  3  2  1  0  0  0  0
  3 19  1  0  0  0  0
  4 15  2  0  0  0  0
  5 16  1  0  0  0  0
  5  2  1  0  0  0  0
  6 17  1  0  0  0  0
  7  4  1  0  0  0  0
  7  3  2  0  0  0  0
  8 23  1  0  0  0  0
  9  1  1  0  0  0  0
 10 18  1  0  0  0  0
 11  4  1  0  0  0  0
 12  8  2  0  0  0  0
 13  8  1  0  0  0  0
 13 18  1  0  0  0  0
 14  5  2  0  0  0  0
 15 20  1  0  0  0  0
 16 12  1  0  0  0  0
 17 16  2  0  0  0  0
 19 20  2  0  0  0  0
 19 10  1  0  0  0  0
 21 22  2  0  0  0  0
 23 22  1  0  0  0  0
 24 27  1  6  0  0  0
 25 28  1  0  0  0  0
 28 24  1  0  0  0  0
 29 26  1  6  0  0  0
 29 31  1  0  0  0  0
 30 22  1  6  0  0  0
 30 29  1  0  0  0  0
 30 25  1  0  0  0  0
 31 24  1  0  0  0  0
M  END
>  <MODEL>
4

>  <REMARK>
 VINA RESULT:      -9.6      2.389      4.157
  Name = 
  2 active torsions:
  status: ('A' for Active; 'I' for Inactive)
    1  A    between atoms: C_5  and  C_30
    2  A    between atoms: C_10  and  N_16
                            x       y       z     vdW  Elec       q    Type
                         _______ _______ _______ _____ _____    ______ ____

>  <TORSDO>
F 2

$$$$
=
 OpenBabel11122413083D

 31 35  0  0  1  0  0  0  0  0999 V2000
  162.0880  207.4560  147.8790 C   0  0  0  0  0  0  0  0  0  0  0  0
  161.2140  205.9270  151.1190 C   0  0  0  0  0  0  0  0  0  0  0  0
  161.0920  204.4660  150.8240 C   0  0  0  0  0  0  0  0  0  0  0  0
  161.0190  202.5770  149.2870 C   0  0  0  0  0  0  0  0  0  0  0  0
  161.5510  206.8930  150.1350 C   0  0  0  0  0  0  0  0  0  0  0  0
  162.2220  208.8020  148.2140 C   0  0  0  0  0  3  0  0  0  0  0  0
  161.0800  203.9530  149.5160 C   0  0  0  0  0  3  0  0  0  0  0  0
  161.1650  207.7120  152.8060 C   0  0  0  0  0  0  0  0  0  0  0  0
  162.2840  207.0540  146.6000 F   0  0  0  0  0  0  0  0  0  0  0  0
  161.0090  204.0410  153.2110 O   0  0  0  0  0  0  0  0  0  0  0  0
  161.0110  202.0550  147.8960 C   0  0  0  0  0  1  0  0  0  0  0  0
  161.4930  208.6470  151.8210 C   0  0  0  0  0  3  0  0  0  0  0  0
  161.0350  206.3550  152.4590 C   0  0  0  0  0  0  0  0  0  0  0  0
  161.7620  206.5430  148.8340 N   0  0  0  0  0  0  0  0  0  0  0  0
  160.9820  201.6910  150.3650 C   0  0  0  0  0  3  0  0  0  0  0  0
  161.6850  208.2510  150.5030 C   0  0  0  0  0  0  0  0  0  0  0  0
  162.0200  209.1990  149.5350 C   0  0  0  0  0  3  0  0  0  0  0  0
  160.5960  205.3720  153.5140 C   0  0  0  0  0  2  0  0  0  0  0  0
  161.0240  203.5620  151.9010 C   0  0  0  0  0  0  0  0  0  0  0  0
  160.9860  202.1840  151.6710 C   0  0  0  0  0  3  0  0  0  0  0  0
  159.7660  210.1110  153.8180 O   0  0  0  0  0  0  0  0  0  0  0  0
  160.2620  209.2860  154.6310 C   0  0  0  0  0  0  0  0  0  0  0  0
  160.9520  208.1160  154.1680 N   0  0  0  0  0  2  0  0  0  0  0  0
  162.5790  210.7230  157.2610 C   0  0  1  0  0  3  0  0  0  0  0  0
  160.2320  211.0440  156.4280 C   0  0  0  0  0  2  0  0  0  0  0  0
  161.0530  207.3750  156.6240 O   0  0  0  0  0  1  0  0  0  0  0  0
  163.9430  211.2060  157.1510 N   0  0  0  0  0  1  0  0  0  0  0  0
  161.6760  211.5410  156.3430 C   0  0  0  0  0  2  0  0  0  0  0  0
  161.0980  208.7270  156.9700 C   0  0  2  0  0  3  0  0  0  0  0  0
  160.1290  209.5490  156.1030 C   0  0  2  0  0  3  0  0  0  0  0  0
  162.5310  209.2480  156.8740 C   0  0  0  0  0  2  0  0  0  0  0  0
  1  6  2  0  0  0  0
  1 14  1  0  0  0  0
  2 13  2  0  0  0  0
  3  2  1  0  0  0  0
  3 19  1  0  0  0  0
  4  7  1  0  0  0  0
  4 15  2  0  0  0  0
  5 16  1  0  0  0  0
  5  2  1  0  0  0  0
  6 17  1  0  0  0  0
  7  3  2  0  0  0  0
  8 23  1  0  0  0  0
  9  1  1  0  0  0  0
 10 18  1  0  0  0  0
 11  4  1  0  0  0  0
 12  8  2  0  0  0  0
 13  8  1  0  0  0  0
 13 18  1  0  0  0  0
 14  5  2  0  0  0  0
 15 20  1  0  0  0  0
 16 12  1  0  0  0  0
 17 16  2  0  0  0  0
 19 10  1  0  0  0  0
 20 19  2  0  0  0  0
 21 22  2  0  0  0  0
 23 22  1  0  0  0  0
 24 27  1  6  0  0  0
 28 25  1  0  0  0  0
 28 24  1  0  0  0  0
 29 26  1  6  0  0  0
 30 22  1  6  0  0  0
 30 25  1  0  0  0  0
 30 29  1  0  0  0  0
 31 29  1  0  0  0  0
 31 24  1  0  0  0  0
M  END
>  <MODEL>
5

>  <REMARK>
 VINA RESULT:      -9.4      2.658      4.429
  Name = 
  2 active torsions:
  status: ('A' for Active; 'I' for Inactive)
    1  A    between atoms: C_5  and  C_30
    2  A    between atoms: C_10  and  N_16
                            x       y       z     vdW  Elec       q    Type
                         _______ _______ _______ _____ _____    ______ ____

>  <TORSDO>
F 2

$$$$
=
 OpenBabel11122413083D

 31 35  0  0  1  0  0  0  0  0999 V2000
  160.5960  212.6240  151.1570 C   0  0  0  0  0  0  0  0  0  0  0  0
  161.4120  209.0400  151.4480 C   0  0  0  0  0  0  0  0  0  0  0  0
  161.0620  208.6880  152.8590 C   0  0  0  0  0  0  0  0  0  0  0  0
  160.3750  209.2810  155.1190 C   0  0  0  0  0  0  0  0  0  0  0  0
  161.2440  210.3410  150.9060 C   0  0  0  0  0  0  0  0  0  0  0  0
  160.9070  212.8910  149.8240 C   0  0  0  0  0  3  0  0  0  0  0  0
  160.7500  209.6560  153.8270 C   0  0  0  0  0  3  0  0  0  0  0  0
  162.2050  208.2670  149.2550 C   0  0  0  0  0  0  0  0  0  0  0  0
  160.1230  213.6130  151.9520 F   0  0  0  0  0  0  0  0  0  0  0  0
  161.3370  206.3460  152.2910 O   0  0  0  0  0  0  0  0  0  0  0  0
  160.0450  210.3200  156.1280 C   0  0  0  0  0  1  0  0  0  0  0  0
  162.0350  209.5550  148.7430 C   0  0  0  0  0  3  0  0  0  0  0  0
  161.8850  208.0060  150.6000 C   0  0  0  0  0  0  0  0  0  0  0  0
  160.7670  211.3720  151.6610 N   0  0  0  0  0  0  0  0  0  0  0  0
  160.2970  207.9290  155.4580 C   0  0  0  0  0  3  0  0  0  0  0  0
  161.5610  210.5820  149.5500 C   0  0  0  0  0  0  0  0  0  0  0  0
  161.3910  211.8610  149.0180 C   0  0  0  0  0  3  0  0  0  0  0  0
  162.1570  206.6340  151.1600 C   0  0  0  0  0  2  0  0  0  0  0  0
  161.0070  207.3300  153.2230 C   0  0  0  0  0  0  0  0  0  0  0  0
  160.6110  206.9540  154.5100 C   0  0  0  0  0  3  0  0  0  0  0  0
  160.7020  206.4730  147.4490 O   0  0  0  0  0  0  0  0  0  0  0  0
  161.9510  206.3510  147.5550 C   0  0  0  0  0  0  0  0  0  0  0  0
  162.7060  207.2030  148.4290 N   0  0  0  0  0  2  0  0  0  0  0  0
  160.8390  203.9690  144.8270 C   0  0  1  0  0  3  0  0  0  0  0  0
  162.6780  205.6230  145.2610 C   0  0  0  0  0  2  0  0  0  0  0  0
  161.9960  203.5930  148.3570 O   0  0  0  0  0  1  0  0  0  0  0  0
  159.5400  203.7900  144.2060 N   0  0  0  0  0  1  0  0  0  0  0  0
  161.3140  205.4020  144.6040 C   0  0  0  0  0  2  0  0  0  0  0  0
  162.0900  203.8710  146.9930 C   0  0  2  0  0  3  0  0  0  0  0  0
  162.6460  205.2860  146.7560 C   0  0  2  0  0  3  0  0  0  0  0  0
  160.7330  203.6730  146.3200 C   0  0  0  0  0  2  0  0  0  0  0  0
  1 14  1  0  0  0  0
  1  9  1  0  0  0  0
  2  3  1  0  0  0  0
  3 19  2  0  0  0  0
  3  7  1  0  0  0  0
  4 15  1  0  0  0  0
  4 11  1  0  0  0  0
  5  2  1  0  0  0  0
  5 14  2  0  0  0  0
  6  1  2  0  0  0  0
  7  4  2  0  0  0  0
  8 13  1  0  0  0  0
 10 19  1  0  0  0  0
 12  8  2  0  0  0  0
 12 16  1  0  0  0  0
 13 18  1  0  0  0  0
 13  2  2  0  0  0  0
 16  5  1  0  0  0  0
 17 16  2  0  0  0  0
 17  6  1  0  0  0  0
 18 10  1  0  0  0  0
 19 20  1  0  0  0  0
 20 15  2  0  0  0  0
 21 22  2  0  0  0  0
 22 23  1  0  0  0  0
 23  8  1  0  0  0  0
 24 27  1  6  0  0  0
 24 31  1  0  0  0  0
 25 30  1  0  0  0  0
 28 24  1  0  0  0  0
 28 25  1  0  0  0  0
 29 26  1  1  0  0  0
 30 29  1  0  0  0  0
 30 22  1  1  0  0  0
 31 29  1  0  0  0  0
M  END
>  <MODEL>
6

>  <REMARK>
 VINA RESULT:      -8.2      3.386      8.891
  Name = 
  2 active torsions:
  status: ('A' for Active; 'I' for Inactive)
    1  A    between atoms: C_5  and  C_30
    2  A    between atoms: C_10  and  N_16
                            x       y       z     vdW  Elec       q    Type
                         _______ _______ _______ _____ _____    ______ ____

>  <TORSDO>
F 2

$$$$
=
 OpenBabel11122413083D

 31 35  0  0  1  0  0  0  0  0999 V2000
  161.5590  204.0920  147.2110 C   0  0  0  0  0  0  0  0  0  0  0  0
  161.5430  206.7310  149.7860 C   0  0  0  0  0  0  0  0  0  0  0  0
  161.3290  205.9990  151.0730 C   0  0  0  0  0  0  0  0  0  0  0  0
  160.8320  203.9840  152.3470 C   0  0  0  0  0  0  0  0  0  0  0  0
  161.6220  206.0820  148.5260 C   0  0  0  0  0  0  0  0  0  0  0  0
  161.7930  204.8190  146.0440 C   0  0  0  0  0  3  0  0  0  0  0  0
  160.9690  204.6430  151.1240 C   0  0  0  0  0  3  0  0  0  0  0  0
  161.9580  208.8790  148.6670 C   0  0  0  0  0  0  0  0  0  0  0  0
  161.4080  202.7480  147.1510 F   0  0  0  0  0  0  0  0  0  0  0  0
  161.8670  208.0410  152.2660 O   0  0  0  0  0  0  0  0  0  0  0  0
  160.4540  202.5480  152.3800 C   0  0  0  0  0  1  0  0  0  0  0  0
  162.0300  208.2200  147.4370 C   0  0  0  0  0  3  0  0  0  0  0  0
  161.7260  208.1370  149.8390 C   0  0  0  0  0  0  0  0  0  0  0  0
  161.4810  204.7300  148.4090 N   0  0  0  0  0  0  0  0  0  0  0  0
  161.0660  204.6710  153.5400 C   0  0  0  0  0  3  0  0  0  0  0  0
  161.8660  206.8420  147.3600 C   0  0  0  0  0  0  0  0  0  0  0  0
  161.9480  206.2020  146.1220 C   0  0  0  0  0  3  0  0  0  0  0  0
  161.5640  208.8700  151.1460 C   0  0  0  0  0  2  0  0  0  0  0  0
  161.5330  206.6880  152.2830 C   0  0  0  0  0  0  0  0  0  0  0  0
  161.4190  206.0220  153.5070 C   0  0  0  0  0  3  0  0  0  0  0  0
  160.5030  210.9830  147.1880 O   0  0  0  0  0  0  0  0  0  0  0  0
  161.3870  211.3040  148.0250 C   0  0  0  0  0  0  0  0  0  0  0  0
  162.1150  210.3040  148.7530 N   0  0  0  0  0  2  0  0  0  0  0  0
  161.5340  214.3310  145.7510 C   0  0  1  0  0  3  0  0  0  0  0  0
  160.4710  213.6440  147.9200 C   0  0  0  0  0  2  0  0  0  0  0  0
  164.0250  212.4110  147.7630 O   0  0  0  0  0  1  0  0  0  0  0  0
  161.3210  214.4440  144.3200 N   0  0  0  0  0  1  0  0  0  0  0  0
  160.2700  213.7860  146.4100 C   0  0  0  0  0  2  0  0  0  0  0  0
  162.9420  213.2570  147.5200 C   0  0  2  0  0  3  0  0  0  0  0  0
  161.6810  212.7600  148.2470 C   0  0  2  0  0  3  0  0  0  0  0  0
  162.7130  213.3990  146.0160 C   0  0  0  0  0  2  0  0  0  0  0  0
  1 14  1  0  0  0  0
  2 13  2  0  0  0  0
  2  3  1  0  0  0  0
  3  7  2  0  0  0  0
  3 19  1  0  0  0  0
  4 11  1  0  0  0  0
  4 15  2  0  0  0  0
  5  2  1  0  0  0  0
  6 17  1  0  0  0  0
  6  1  2  0  0  0  0
  7  4  1  0  0  0  0
  8 23  1  0  0  0  0
  8 13  1  0  0  0  0
  9  1  1  0  0  0  0
 10 19  1  0  0  0  0
 12  8  2  0  0  0  0
 13 18  1  0  0  0  0
 14  5  2  0  0  0  0
 16 12  1  0  0  0  0
 16  5  1  0  0  0  0
 17 16  2  0  0  0  0
 18 10  1  0  0  0  0
 19 20  2  0  0  0  0
 20 15  1  0  0  0  0
 21 22  2  0  0  0  0
 22 23  1  0  0  0  0
 24 27  1  6  0  0  0
 24 31  1  0  0  0  0
 24 28  1  0  0  0  0
 25 30  1  0  0  0  0
 28 25  1  0  0  0  0
 29 26  1  6  0  0  0
 29 30  1  0  0  0  0
 30 22  1  6  0  0  0
 31 29  1  0  0  0  0
M  END
>  <MODEL>
7

>  <REMARK>
 VINA RESULT:      -8.0      3.638      6.389
  Name = 
  2 active torsions:
  status: ('A' for Active; 'I' for Inactive)
    1  A    between atoms: C_5  and  C_30
    2  A    between atoms: C_10  and  N_16
                            x       y       z     vdW  Elec       q    Type
                         _______ _______ _______ _____ _____    ______ ____

>  <TORSDO>
F 2

$$$$
=
 OpenBabel11122413083D

 31 35  0  0  1  0  0  0  0  0999 V2000
  161.1980  204.8990  146.1100 C   0  0  0  0  0  0  0  0  0  0  0  0
  161.4200  205.5620  149.7310 C   0  0  0  0  0  0  0  0  0  0  0  0
  161.2800  204.2170  150.3680 C   0  0  0  0  0  0  0  0  0  0  0  0
  160.8290  201.8250  150.2740 C   0  0  0  0  0  0  0  0  0  0  0  0
  161.3970  205.7630  148.3250 C   0  0  0  0  0  0  0  0  0  0  0  0
  161.3660  206.1710  145.5650 C   0  0  0  0  0  3  0  0  0  0  0  0
  160.8940  203.0720  149.6510 C   0  0  0  0  0  3  0  0  0  0  0  0
  161.8050  207.9700  150.0340 C   0  0  0  0  0  0  0  0  0  0  0  0
  161.0140  203.8330  145.2950 F   0  0  0  0  0  0  0  0  0  0  0  0
  161.9460  205.2040  152.4820 O   0  0  0  0  0  0  0  0  0  0  0  0
  160.4220  200.6260  149.4970 C   0  0  0  0  0  1  0  0  0  0  0  0
  161.7760  208.1450  148.6480 C   0  0  0  0  0  3  0  0  0  0  0  0
  161.6380  206.6810  150.5740 C   0  0  0  0  0  0  0  0  0  0  0  0
  161.2190  204.7250  147.4590 N   0  0  0  0  0  0  0  0  0  0  0  0
  161.1610  201.7010  151.6250 C   0  0  0  0  0  3  0  0  0  0  0  0
  161.5760  207.0620  147.8000 C   0  0  0  0  0  0  0  0  0  0  0  0
  161.5580  207.2580  146.4180 C   0  0  0  0  0  3  0  0  0  0  0  0
  161.5840  206.5210  152.0720 C   0  0  0  0  0  2  0  0  0  0  0  0
  161.5840  204.0820  151.7360 C   0  0  0  0  0  0  0  0  0  0  0  0
  161.5400  202.8290  152.3540 C   0  0  0  0  0  3  0  0  0  0  0  0
  160.0670  208.8980  152.2360 O   0  0  0  0  0  0  0  0  0  0  0  0
  161.1390  209.5100  151.9840 C   0  0  0  0  0  0  0  0  0  0  0  0
  161.9990  209.0860  150.9170 N   0  0  0  0  0  2  0  0  0  0  0  0
  159.6140  211.1450  155.0430 C   0  0  1  0  0  3  0  0  0  0  0  0
  161.8500  210.3150  154.2580 C   0  0  0  0  0  2  0  0  0  0  0  0
  160.0870  212.1330  151.4730 O   0  0  0  0  0  1  0  0  0  0  0  0
  158.4300  210.7960  155.8060 N   0  0  0  0  0  1  0  0  0  0  0  0
  160.5960  209.9780  155.0670 C   0  0  0  0  0  2  0  0  0  0  0  0
  160.4520  211.8280  152.7850 C   0  0  2  0  0  3  0  0  0  0  0  0
  161.5040  210.7060  152.8160 C   0  0  2  0  0  3  0  0  0  0  0  0
  159.2140  211.4710  153.6070 C   0  0  0  0  0  2  0  0  0  0  0  0
  1 14  1  0  0  0  0
  2  3  1  0  0  0  0
  2 13  2  0  0  0  0
  3 19  1  0  0  0  0
  4 15  2  0  0  0  0
  5  2  1  0  0  0  0
  6  1  2  0  0  0  0
  6 17  1  0  0  0  0
  7  4  1  0  0  0  0
  7  3  2  0  0  0  0
  8 13  1  0  0  0  0
  8 23  1  0  0  0  0
  9  1  1  0  0  0  0
 11  4  1  0  0  0  0
 12  8  2  0  0  0  0
 13 18  1  0  0  0  0
 14  5  2  0  0  0  0
 15 20  1  0  0  0  0
 16  5  1  0  0  0  0
 16 12  1  0  0  0  0
 17 16  2  0  0  0  0
 18 10  1  0  0  0  0
 19 20  2  0  0  0  0
 19 10  1  0  0  0  0
 22 21  2  0  0  0  0
 23 22  1  0  0  0  0
 24 28  1  0  0  0  0
 24 27  1  1  0  0  0
 25 28  1  0  0  0  0
 29 26  1  6  0  0  0
 29 30  1  0  0  0  0
 29 31  1  0  0  0  0
 30 22  1  6  0  0  0
 30 25  1  0  0  0  0
 31 24  1  0  0  0  0
M  END
>  <MODEL>
8

>  <REMARK>
 VINA RESULT:      -7.6      1.736      3.955
  Name = 
  2 active torsions:
  status: ('A' for Active; 'I' for Inactive)
    1  A    between atoms: C_5  and  C_30
    2  A    between atoms: C_10  and  N_16
                            x       y       z     vdW  Elec       q    Type
                         _______ _______ _______ _____ _____    ______ ____

>  <TORSDO>
F 2

$$$$
=
 OpenBabel11122413083D

 31 35  0  0  1  0  0  0  0  0999 V2000
  161.4570  203.9350  145.8130 C   0  0  0  0  0  0  0  0  0  0  0  0
  161.4970  205.7160  149.0410 C   0  0  0  0  0  0  0  0  0  0  0  0
  161.2110  204.6580  150.0580 C   0  0  0  0  0  0  0  0  0  0  0  0
  160.5790  202.3910  150.6890 C   0  0  0  0  0  0  0  0  0  0  0  0
  161.5810  205.4540  147.6480 C   0  0  0  0  0  0  0  0  0  0  0  0
  161.7600  204.9520  144.9090 C   0  0  0  0  0  3  0  0  0  0  0  0
  160.7830  203.3660  149.7100 C   0  0  0  0  0  3  0  0  0  0  0  0
  162.0510  208.0690  148.5970 C   0  0  0  0  0  0  0  0  0  0  0  0
  161.2420  202.6750  145.3650 F   0  0  0  0  0  0  0  0  0  0  0  0
  161.8150  206.2360  151.7980 O   0  0  0  0  0  0  0  0  0  0  0  0
  160.1300  201.0300  150.2990 C   0  0  0  0  0  1  0  0  0  0  0  0
  162.1250  207.7890  147.2300 C   0  0  0  0  0  3  0  0  0  0  0  0
  161.7480  207.0340  149.5010 C   0  0  0  0  0  0  0  0  0  0  0  0
  161.3770  204.2040  147.1440 N   0  0  0  0  0  0  0  0  0  0  0  0
  160.8130  202.6920  152.0320 C   0  0  0  0  0  3  0  0  0  0  0  0
  161.8950  206.5040  146.7550 C   0  0  0  0  0  0  0  0  0  0  0  0
  161.9810  206.2440  145.3870 C   0  0  0  0  0  3  0  0  0  0  0  0
  161.5860  207.3680  150.9620 C   0  0  0  0  0  2  0  0  0  0  0  0
  161.4140  204.9550  151.4190 C   0  0  0  0  0  0  0  0  0  0  0  0
  161.2320  203.9730  152.3960 C   0  0  0  0  0  3  0  0  0  0  0  0
  161.0180  210.6280  147.5390 O   0  0  0  0  0  0  0  0  0  0  0  0
  161.7540  210.6240  148.5620 C   0  0  0  0  0  0  0  0  0  0  0  0
  162.2750  209.3980  149.0940 N   0  0  0  0  0  2  0  0  0  0  0  0
  159.8690  213.8740  149.0540 C   0  0  1  0  0  3  0  0  0  0  0  0
  161.1790  212.2210  150.4170 C   0  0  0  0  0  2  0  0  0  0  0  0
  162.8900  212.8340  147.1210 O   0  0  0  0  0  1  0  0  0  0  0  0
  158.5340  214.2610  148.6380 N   0  0  0  0  0  1  0  0  0  0  0  0
  159.7820  212.6590  149.9730 C   0  0  0  0  0  2  0  0  0  0  0  0
  162.1170  213.1250  148.2460 C   0  0  2  0  0  3  0  0  0  0  0  0
  162.0890  211.9330  149.2180 C   0  0  2  0  0  3  0  0  0  0  0  0
  160.7110  213.5490  147.8240 C   0  0  0  0  0  2  0  0  0  0  0  0
  1 14  1  0  0  0  0
  2 13  2  0  0  0  0
  2  3  1  0  0  0  0
  3 19  1  0  0  0  0
  4 15  2  0  0  0  0
  5  2  1  0  0  0  0
  6 17  1  0  0  0  0
  6  1  2  0  0  0  0
  7  3  2  0  0  0  0
  7  4  1  0  0  0  0
  8 23  1  0  0  0  0
  8 13  1  0  0  0  0
  9  1  1  0  0  0  0
 11  4  1  0  0  0  0
 12  8  2  0  0  0  0
 13 18  1  0  0  0  0
 14  5  2  0  0  0  0
 15 20  1  0  0  0  0
 16 12  1  0  0  0  0
 16  5  1  0  0  0  0
 17 16  2  0  0  0  0
 18 10  1  0  0  0  0
 19 10  1  0  0  0  0
 19 20  2  0  0  0  0
 21 22  2  0  0  0  0
 22 23  1  0  0  0  0
 24 27  1  6  0  0  0
 24 28  1  0  0  0  0
 28 25  1  0  0  0  0
 29 26  1  6  0  0  0
 29 30  1  0  0  0  0
 30 22  1  6  0  0  0
 30 25  1  0  0  0  0
 31 29  1  0  0  0  0
 31 24  1  0  0  0  0
M  END
>  <MODEL>
9

>  <REMARK>
 VINA RESULT:      -7.6      3.190      5.403
  Name = 
  2 active torsions:
  status: ('A' for Active; 'I' for Inactive)
    1  A    between atoms: C_5  and  C_30
    2  A    between atoms: C_10  and  N_16
                            x       y       z     vdW  Elec       q    Type
                         _______ _______ _______ _____ _____    ______ ____

>  <TORSDO>
F 2

$$$$
