=
 OpenBabel11122413503D

 37 42  0  0  1  0  0  0  0  0999 V2000
  161.1350  205.4110  146.6450 C   0  0  0  0  0  0  0  0  0  0  0  0
  161.5120  207.8350  149.9770 C   0  0  0  0  0  0  0  0  0  0  0  0
  162.8170  206.1520  152.5240 C   0  0  0  0  0  2  0  0  0  0  0  0
  161.7430  207.7010  147.5820 C   0  0  0  0  0  0  0  0  0  0  0  0
  161.0200  206.9790  150.9520 C   0  0  0  0  0  0  0  0  0  0  0  0
  161.2250  207.2670  148.7810 C   0  0  0  0  0  0  0  0  0  0  0  0
  161.5160  206.9500  152.3810 C   0  0  2  0  0  3  0  0  0  0  0  0
  162.5630  208.8440  147.6080 C   0  0  0  0  0  3  0  0  0  0  0  0
  160.5670  206.1070  148.9990 C   0  0  0  0  0  0  0  0  0  0  0  0
  162.4550  204.6960  146.8780 C   0  0  0  0  0  1  0  0  0  0  0  0
  162.5000  209.6460  151.2620 O   0  0  0  0  0  0  0  0  0  0  0  0
  162.8370  209.4870  148.8450 C   0  0  0  0  0  3  0  0  0  0  0  0
  160.2080  205.1820  147.8720 C   0  0  0  0  0  2  0  0  0  0  0  0
  161.7840  203.8210  152.2920 C   0  0  1  0  0  3  0  0  0  0  0  0
  162.8070  204.8260  151.7570 C   0  0  0  0  0  2  0  0  0  0  0  0
  162.2980  208.9850  150.0520 C   0  0  0  0  0  0  0  0  0  0  0  0
  160.4380  205.9040  150.3310 N   0  0  0  0  0  0  0  0  0  0  0  0
  161.4120  206.9130  146.3400 C   0  0  0  0  0  2  0  0  0  0  0  0
  161.6490  208.2910  153.1260 C   0  0  1  0  0  3  0  0  0  0  0  0
  160.4770  204.7930  145.4300 C   0  0  0  0  0  1  0  0  0  0  0  0
  160.3370  204.3310  152.2980 C   0  0  0  0  0  2  0  0  0  0  0  0
  159.7900  204.7260  150.9210 C   0  0  0  0  0  2  0  0  0  0  0  0
  161.5330  209.5790  152.3060 C   0  0  0  0  0  2  0  0  0  0  0  0
  161.8990  200.1200  149.9320 O   0  0  0  0  0  0  0  0  0  0  0  0
  161.2430  201.1270  149.5540 C   0  0  0  0  0  0  0  0  0  0  0  0
  161.9010  202.5070  151.5880 C   0  0  0  0  0  0  0  0  0  0  0  0
  161.2180  202.3230  150.3440 N   0  0  0  0  0  2  0  0  0  0  0  0
  162.6080  201.5850  152.0800 O   0  0  0  0  0  0  0  0  0  0  0  0
  159.7430  202.1880  147.8310 C   0  0  0  0  0  1  0  0  0  0  0  0
  160.5200  201.0640  148.3250 N   0  0  0  0  0  2  0  0  0  0  0  0
  160.4000  207.1380  154.9540 C   0  0  0  0  0  3  0  0  0  0  0  0
  160.7250  208.3280  154.2990 C   0  0  0  0  0  0  0  0  0  0  0  0
  160.1720  209.5360  154.7440 C   0  0  0  0  0  3  0  0  0  0  0  0
  158.7110  210.8020  156.3230 C   0  0  0  0  0  1  0  0  0  0  0  0
  159.0040  208.3580  156.4620 N   0  0  0  0  0  0  0  0  0  0  0  0
  159.3050  209.5280  155.8390 C   0  0  0  0  0  0  0  0  0  0  0  0
  159.5300  207.1730  156.0450 C   0  0  0  0  0  3  0  0  0  0  0  0
  1 10  1  0  0  0  0
  1 13  1  0  0  0  0
  2 16  1  0  0  0  0
  2  5  2  0  0  0  0
  4  8  2  0  0  0  0
  4  6  1  0  0  0  0
  5  7  1  0  0  0  0
  6  9  2  0  0  0  0
  6  2  1  0  0  0  0
  7  3  1  6  0  0  0
  7 19  1  0  0  0  0
  8 12  1  0  0  0  0
  9 17  1  0  0  0  0
 11 23  1  0  0  0  0
 12 16  2  0  0  0  0
 13  9  1  0  0  0  0
 14 26  1  6  0  0  0
 14 21  1  0  0  0  0
 15 14  1  0  0  0  0
 15  3  1  0  0  0  0
 16 11  1  0  0  0  0
 17 22  1  0  0  0  0
 17  5  1  0  0  0  0
 18  1  1  0  0  0  0
 18  4  1  0  0  0  0
 19 32  1  1  0  0  0
 20  1  1  0  0  0  0
 22 21  1  0  0  0  0
 23 19  1  0  0  0  0
 25 24  2  0  0  0  0
 25 27  1  0  0  0  0
 26 28  2  0  0  0  0
 27 26  1  0  0  0  0
 29 30  1  0  0  0  0
 30 25  1  0  0  0  0
 31 37  1  0  0  0  0
 32 33  1  0  0  0  0
 32 31  2  0  0  0  0
 33 36  2  0  0  0  0
 36 34  1  0  0  0  0
 36 35  1  0  0  0  0
 37 35  2  0  0  0  0
M  END
>  <MODEL>
1

>  <REMARK>
 VINA RESULT:      -0.4      0.000      0.000
  Name = 
  2 active torsions:
  status: ('A' for Active; 'I' for Inactive)
    1  A    between atoms: C_8  and  C_18
    2  A    between atoms: C_23  and  C_30
                            x       y       z     vdW  Elec       q    Type
                         _______ _______ _______ _____ _____    ______ ____

>  <TORSDO>
F 2

$$$$
=
 OpenBabel11122413503D

 37 42  0  0  1  0  0  0  0  0999 V2000
  161.4150  204.8620  152.1590 C   0  0  0  0  0  0  0  0  0  0  0  0
  161.5240  208.0720  149.5500 C   0  0  0  0  0  0  0  0  0  0  0  0
  162.8690  210.7360  151.0070 C   0  0  0  0  0  2  0  0  0  0  0  0
  161.8330  205.6940  149.7870 C   0  0  0  0  0  0  0  0  0  0  0  0
  161.0650  209.0780  150.3890 C   0  0  0  0  0  0  0  0  0  0  0  0
  161.3120  206.9010  150.1960 C   0  0  0  0  0  0  0  0  0  0  0  0
  161.5200  210.5180  150.3110 C   0  0  2  0  0  3  0  0  0  0  0  0
  162.5710  205.6810  148.5890 C   0  0  0  0  0  3  0  0  0  0  0  0
  160.7310  207.1620  151.3880 C   0  0  0  0  0  0  0  0  0  0  0  0
  162.7740  205.1660  152.7660 C   0  0  0  0  0  1  0  0  0  0  0  0
  162.3460  209.2860  147.6110 O   0  0  0  0  0  0  0  0  0  0  0  0
  162.7640  206.8900  147.8670 C   0  0  0  0  0  3  0  0  0  0  0  0
  160.4700  206.0750  152.3920 C   0  0  0  0  0  2  0  0  0  0  0  0
  162.0090  210.5990  153.4140 C   0  0  1  0  0  3  0  0  0  0  0  0
  162.9740  210.0390  152.3670 C   0  0  0  0  0  2  0  0  0  0  0  0
  162.2260  208.1070  148.3450 C   0  0  0  0  0  0  0  0  0  0  0  0
  160.5780  208.4990  151.5330 N   0  0  0  0  0  0  0  0  0  0  0  0
  161.5950  204.4870  150.6580 C   0  0  0  0  0  2  0  0  0  0  0  0
  161.5380  211.1960  148.9290 C   0  0  1  0  0  3  0  0  0  0  0  0
  160.8370  203.6650  152.8820 C   0  0  0  0  0  1  0  0  0  0  0  0
  160.5290  210.5410  153.0080 C   0  0  0  0  0  2  0  0  0  0  0  0
  159.9970  209.1330  152.7230 C   0  0  0  0  0  2  0  0  0  0  0  0
  161.3560  210.3070  147.6950 C   0  0  0  0  0  2  0  0  0  0  0  0
  162.3590  208.5120  157.2610 O   0  0  0  0  0  0  0  0  0  0  0  0
  161.4280  208.2580  156.4510 C   0  0  0  0  0  0  0  0  0  0  0  0
  162.2370  209.9680  154.7500 C   0  0  0  0  0  0  0  0  0  0  0  0
  161.3330  208.9550  155.2020 N   0  0  0  0  0  2  0  0  0  0  0  0
  163.2250  210.3150  155.4540 O   0  0  0  0  0  0  0  0  0  0  0  0
  159.3660  206.9200  155.9050 C   0  0  0  0  0  1  0  0  0  0  0  0
  160.4640  207.2620  156.7920 N   0  0  0  0  0  2  0  0  0  0  0  0
  160.2110  212.9590  150.0970 C   0  0  0  0  0  3  0  0  0  0  0  0
  160.5790  212.3410  148.8990 C   0  0  0  0  0  0  0  0  0  0  0  0
  160.0380  212.7980  147.6900 C   0  0  0  0  0  3  0  0  0  0  0  0
  158.5560  214.3610  146.4290 C   0  0  0  0  0  1  0  0  0  0  0  0
  158.7960  214.4520  148.8820 N   0  0  0  0  0  0  0  0  0  0  0  0
  159.1390  213.8660  147.7040 C   0  0  0  0  0  0  0  0  0  0  0  0
  159.3090  214.0240  150.0670 C   0  0  0  0  0  3  0  0  0  0  0  0
  1 13  1  0  0  0  0
  1 10  1  0  0  0  0
  1 20  1  0  0  0  0
  2  6  1  0  0  0  0
  2  5  2  0  0  0  0
  3 15  1  0  0  0  0
  4  6  1  0  0  0  0
  4 18  1  0  0  0  0
  5 17  1  0  0  0  0
  6  9  2  0  0  0  0
  7  5  1  0  0  0  0
  7  3  1  6  0  0  0
  8  4  2  0  0  0  0
  9 17  1  0  0  0  0
  9 13  1  0  0  0  0
 11 23  1  0  0  0  0
 11 16  1  0  0  0  0
 12 16  2  0  0  0  0
 12  8  1  0  0  0  0
 14 26  1  1  0  0  0
 15 14  1  0  0  0  0
 16  2  1  0  0  0  0
 17 22  1  0  0  0  0
 18  1  1  0  0  0  0
 19 32  1  1  0  0  0
 19  7  1  0  0  0  0
 21 14  1  0  0  0  0
 22 21  1  0  0  0  0
 23 19  1  0  0  0  0
 25 30  1  0  0  0  0
 25 24  2  0  0  0  0
 26 27  1  0  0  0  0
 26 28  2  0  0  0  0
 27 25  1  0  0  0  0
 29 30  1  0  0  0  0
 32 31  2  0  0  0  0
 33 36  2  0  0  0  0
 33 32  1  0  0  0  0
 34 36  1  0  0  0  0
 35 37  2  0  0  0  0
 36 35  1  0  0  0  0
 37 31  1  0  0  0  0
M  END
>  <MODEL>
2

>  <REMARK>
 VINA RESULT:       0.3      3.371      6.655
  Name = 
  2 active torsions:
  status: ('A' for Active; 'I' for Inactive)
    1  A    between atoms: C_8  and  C_18
    2  A    between atoms: C_23  and  C_30
                            x       y       z     vdW  Elec       q    Type
                         _______ _______ _______ _____ _____    ______ ____

>  <TORSDO>
F 2

$$$$
=
 OpenBabel11122413503D

 37 42  0  0  1  0  0  0  0  0999 V2000
  161.6690  206.9490  148.5020 C   0  0  0  0  0  0  0  0  0  0  0  0
  161.4220  207.6470  152.5740 C   0  0  0  0  0  0  0  0  0  0  0  0
  159.4890  210.2700  153.2100 C   0  0  0  0  0  2  0  0  0  0  0  0
  161.4580  205.9690  150.8440 C   0  0  0  0  0  0  0  0  0  0  0  0
  161.5980  209.0230  152.5910 C   0  0  0  0  0  0  0  0  0  0  0  0
  161.7230  207.2330  151.3190 C   0  0  0  0  0  0  0  0  0  0  0  0
  160.9390  209.9470  153.5910 C   0  0  2  0  0  3  0  0  0  0  0  0
  160.9050  205.0420  151.7470 C   0  0  0  0  0  3  0  0  0  0  0  0
  162.0850  208.3080  150.5830 C   0  0  0  0  0  0  0  0  0  0  0  0
  160.2080  207.2780  148.2450 C   0  0  0  0  0  1  0  0  0  0  0  0
  160.6980  207.1410  154.8380 O   0  0  0  0  0  0  0  0  0  0  0  0
  160.6280  205.4390  153.0830 C   0  0  0  0  0  3  0  0  0  0  0  0
  162.3710  208.1950  149.1130 C   0  0  0  0  0  2  0  0  0  0  0  0
  160.0180  211.8820  151.2930 C   0  0  1  0  0  3  0  0  0  0  0  0
  159.3070  210.5980  151.7250 C   0  0  0  0  0  2  0  0  0  0  0  0
  160.8980  206.7590  153.5120 C   0  0  0  0  0  0  0  0  0  0  0  0
  162.0070  209.4240  151.3440 N   0  0  0  0  0  0  0  0  0  0  0  0
  161.7590  205.6770  149.3960 C   0  0  0  0  0  2  0  0  0  0  0  0
  161.0080  209.5660  155.0810 C   0  0  1  0  0  3  0  0  0  0  0  0
  162.3200  206.6420  147.1710 C   0  0  0  0  0  1  0  0  0  0  0  0
  161.5300  211.8890  151.5580 C   0  0  0  0  0  2  0  0  0  0  0  0
  162.3110  210.7740  150.8530 C   0  0  0  0  0  2  0  0  0  0  0  0
  161.4960  208.1580  155.4360 C   0  0  0  0  0  2  0  0  0  0  0  0
  159.5040  212.8470  147.0410 O   0  0  0  0  0  0  0  0  0  0  0  0
  160.6440  212.6790  147.5480 C   0  0  0  0  0  0  0  0  0  0  0  0
  159.7080  212.2170  149.8690 C   0  0  0  0  0  0  0  0  0  0  0  0
  160.7870  212.3680  148.9410 N   0  0  0  0  0  2  0  0  0  0  0  0
  158.5100  212.3450  149.4940 O   0  0  0  0  0  0  0  0  0  0  0  0
  163.1430  212.6210  147.2400 C   0  0  0  0  0  1  0  0  0  0  0  0
  161.7990  212.8020  146.7190 N   0  0  0  0  0  2  0  0  0  0  0  0
  161.0760  211.5980  156.5300 C   0  0  0  0  0  3  0  0  0  0  0  0
  161.7710  210.5970  155.8470 C   0  0  0  0  0  0  0  0  0  0  0  0
  163.1720  210.5790  155.8820 C   0  0  0  0  0  3  0  0  0  0  0  0
  165.3350  211.5600  156.6490 C   0  0  0  0  0  1  0  0  0  0  0  0
  163.1510  212.5290  157.2610 N   0  0  0  0  0  0  0  0  0  0  0  0
  163.8490  211.5660  156.6030 C   0  0  0  0  0  0  0  0  0  0  0  0
  161.7910  212.5650  157.2380 C   0  0  0  0  0  3  0  0  0  0  0  0
  1 13  1  0  0  0  0
  1 18  1  0  0  0  0
  2  5  2  0  0  0  0
  2 16  1  0  0  0  0
  4  6  1  0  0  0  0
  4  8  2  0  0  0  0
  5  7  1  0  0  0  0
  6  2  1  0  0  0  0
  7  3  1  6  0  0  0
  7 19  1  0  0  0  0
  8 12  1  0  0  0  0
  9  6  2  0  0  0  0
  9 17  1  0  0  0  0
 10  1  1  0  0  0  0
 11 23  1  0  0  0  0
 12 16  2  0  0  0  0
 13  9  1  0  0  0  0
 14 26  1  6  0  0  0
 14 21  1  0  0  0  0
 14 15  1  0  0  0  0
 15  3  1  0  0  0  0
 16 11  1  0  0  0  0
 17  5  1  0  0  0  0
 18  4  1  0  0  0  0
 19 23  1  0  0  0  0
 19 32  1  1  0  0  0
 20  1  1  0  0  0  0
 22 17  1  0  0  0  0
 22 21  1  0  0  0  0
 24 25  2  0  0  0  0
 25 27  1  0  0  0  0
 27 26  1  0  0  0  0
 28 26  2  0  0  0  0
 30 29  1  0  0  0  0
 30 25  1  0  0  0  0
 31 37  1  0  0  0  0
 32 33  1  0  0  0  0
 32 31  2  0  0  0  0
 33 36  2  0  0  0  0
 36 34  1  0  0  0  0
 36 35  1  0  0  0  0
 37 35  2  0  0  0  0
M  END
>  <MODEL>
3

>  <REMARK>
 VINA RESULT:       0.9      3.444      6.594
  Name = 
  2 active torsions:
  status: ('A' for Active; 'I' for Inactive)
    1  A    between atoms: C_8  and  C_18
    2  A    between atoms: C_23  and  C_30
                            x       y       z     vdW  Elec       q    Type
                         _______ _______ _______ _____ _____    ______ ____

>  <TORSDO>
F 2

$$$$
=
 OpenBabel11122413503D

 37 42  0  0  1  0  0  0  0  0999 V2000
  162.0720  208.8010  150.9130 C   0  0  0  0  0  0  0  0  0  0  0  0
  159.6490  212.1520  151.0570 C   0  0  0  0  0  0  0  0  0  0  0  0
  159.6900  213.5130  154.0850 C   0  0  0  0  0  2  0  0  0  0  0  0
  161.2520  210.9150  149.7500 C   0  0  0  0  0  0  0  0  0  0  0  0
  158.9890  211.9180  152.2550 C   0  0  0  0  0  0  0  0  0  0  0  0
  160.3080  211.0100  150.7480 C   0  0  0  0  0  0  0  0  0  0  0  0
  158.5420  213.0100  153.2020 C   0  0  2  0  0  3  0  0  0  0  0  0
  161.4870  212.0630  148.9720 C   0  0  0  0  0  3  0  0  0  0  0  0
  160.0590  210.0910  151.7080 C   0  0  0  0  0  0  0  0  0  0  0  0
  163.1550  209.4090  151.7870 C   0  0  0  0  0  1  0  0  0  0  0  0
  159.0660  214.4520  150.5310 O   0  0  0  0  0  0  0  0  0  0  0  0
  160.7700  213.2590  149.2450 C   0  0  0  0  0  3  0  0  0  0  0  0
  160.7390  208.7520  151.7120 C   0  0  0  0  0  2  0  0  0  0  0  0
  159.7950  211.4890  155.6490 C   0  0  1  0  0  3  0  0  0  0  0  0
  160.5510  212.3870  154.6670 C   0  0  0  0  0  2  0  0  0  0  0  0
  159.8280  213.3080  150.2980 C   0  0  0  0  0  0  0  0  0  0  0  0
  159.2560  210.6330  152.6530 N   0  0  0  0  0  0  0  0  0  0  0  0
  161.9760  209.6030  149.5810 C   0  0  0  0  0  2  0  0  0  0  0  0
  157.7820  214.2110  152.6110 C   0  0  1  0  0  3  0  0  0  0  0  0
  162.4800  207.3810  150.5830 C   0  0  0  0  0  1  0  0  0  0  0  0
  158.5430  210.8210  155.0630 C   0  0  0  0  0  2  0  0  0  0  0  0
  158.8050  209.9170  153.8530 C   0  0  0  0  0  2  0  0  0  0  0  0
  157.7580  214.3630  151.0870 C   0  0  0  0  0  2  0  0  0  0  0  0
  162.3640  208.2860  157.2040 O   0  0  0  0  0  0  0  0  0  0  0  0
  161.6030  208.1040  156.2170 C   0  0  0  0  0  0  0  0  0  0  0  0
  160.7110  210.4860  156.2760 C   0  0  0  0  0  0  0  0  0  0  0  0
  160.7700  209.1640  155.7290 N   0  0  0  0  0  2  0  0  0  0  0  0
  161.4300  210.8130  157.2600 O   0  0  0  0  0  0  0  0  0  0  0  0
  160.7230  206.5470  154.4440 C   0  0  0  0  0  1  0  0  0  0  0  0
  161.5770  206.8240  155.5860 N   0  0  0  0  0  2  0  0  0  0  0  0
  155.3070  214.2960  152.2960 C   0  0  0  0  0  3  0  0  0  0  0  0
  156.3980  214.2750  153.1690 C   0  0  0  0  0  0  0  0  0  0  0  0
  156.1780  214.3230  154.5520 C   0  0  0  0  0  3  0  0  0  0  0  0
  154.6210  214.4430  156.4980 C   0  0  0  0  0  1  0  0  0  0  0  0
  153.8230  214.4090  154.1660 N   0  0  0  0  0  0  0  0  0  0  0  0
  154.8690  214.3900  155.0340 C   0  0  0  0  0  0  0  0  0  0  0  0
  154.0140  214.3630  152.8190 C   0  0  0  0  0  3  0  0  0  0  0  0
  1 13  1  0  0  0  0
  1 10  1  0  0  0  0
  2  5  2  0  0  0  0
  3 15  1  0  0  0  0
  4  6  1  0  0  0  0
  5 17  1  0  0  0  0
  5  7  1  0  0  0  0
  6  2  1  0  0  0  0
  6  9  2  0  0  0  0
  7  3  1  6  0  0  0
  8 12  1  0  0  0  0
  8  4  2  0  0  0  0
  9 13  1  0  0  0  0
  9 17  1  0  0  0  0
 11 23  1  0  0  0  0
 12 16  2  0  0  0  0
 14 26  1  6  0  0  0
 15 14  1  0  0  0  0
 16 11  1  0  0  0  0
 16  2  1  0  0  0  0
 17 22  1  0  0  0  0
 18  4  1  0  0  0  0
 18  1  1  0  0  0  0
 19 32  1  6  0  0  0
 19  7  1  0  0  0  0
 20  1  1  0  0  0  0
 21 14  1  0  0  0  0
 22 21  1  0  0  0  0
 23 19  1  0  0  0  0
 25 24  2  0  0  0  0
 26 28  2  0  0  0  0
 27 25  1  0  0  0  0
 27 26  1  0  0  0  0
 29 30  1  0  0  0  0
 30 25  1  0  0  0  0
 31 37  2  0  0  0  0
 31 32  1  0  0  0  0
 32 33  2  0  0  0  0
 33 36  1  0  0  0  0
 35 36  2  0  0  0  0
 36 34  1  0  0  0  0
 37 35  1  0  0  0  0
M  END
>  <MODEL>
4

>  <REMARK>
 VINA RESULT:       1.6      4.426      7.133
  Name = 
  2 active torsions:
  status: ('A' for Active; 'I' for Inactive)
    1  A    between atoms: C_8  and  C_18
    2  A    between atoms: C_23  and  C_30
                            x       y       z     vdW  Elec       q    Type
                         _______ _______ _______ _____ _____    ______ ____

>  <TORSDO>
F 2

$$$$
=
 OpenBabel11122413503D

 37 42  0  0  1  0  0  0  0  0999 V2000
  158.7650  212.6130  155.0360 C   0  0  0  0  0  0  0  0  0  0  0  0
  160.4710  208.8590  154.6930 C   0  0  0  0  0  0  0  0  0  0  0  0
  162.7980  208.8280  152.3250 C   0  0  0  0  0  2  0  0  0  0  0  0
  159.6480  210.5350  156.2160 C   0  0  0  0  0  0  0  0  0  0  0  0
  160.4740  208.7230  153.3120 C   0  0  0  0  0  0  0  0  0  0  0  0
  159.7120  209.9460  154.9740 C   0  0  0  0  0  0  0  0  0  0  0  0
  161.5400  207.9790  152.5370 C   0  0  2  0  0  3  0  0  0  0  0  0
  160.3640  209.9220  157.2610 C   0  0  0  0  0  3  0  0  0  0  0  0
  159.2480  210.4630  153.8150 C   0  0  0  0  0  0  0  0  0  0  0  0
  160.0770  213.3510  154.8290 C   0  0  0  0  0  1  0  0  0  0  0  0
  161.8610  207.0130  155.4450 O   0  0  0  0  0  0  0  0  0  0  0  0
  161.1260  208.7510  157.0000 C   0  0  0  0  0  3  0  0  0  0  0  0
  158.4660  211.7440  153.7820 C   0  0  0  0  0  2  0  0  0  0  0  0
  161.8380  210.3720  150.5220 C   0  0  1  0  0  3  0  0  0  0  0  0
  162.4980  210.2690  151.8990 C   0  0  0  0  0  2  0  0  0  0  0  0
  161.1760  208.2010  155.6990 C   0  0  0  0  0  0  0  0  0  0  0  0
  159.7140  209.7320  152.7750 N   0  0  0  0  0  0  0  0  0  0  0  0
  158.8370  211.7980  156.3610 C   0  0  0  0  0  2  0  0  0  0  0  0
  161.9410  206.5770  153.0280 C   0  0  1  0  0  3  0  0  0  0  0  0
  157.6660  213.6450  155.1720 C   0  0  0  0  0  1  0  0  0  0  0  0
  160.5200  209.5960  150.3920 C   0  0  0  0  0  2  0  0  0  0  0  0
  159.4200  210.0290  151.3680 C   0  0  0  0  0  2  0  0  0  0  0  0
  161.4420  206.1320  154.4070 C   0  0  0  0  0  2  0  0  0  0  0  0
  161.5090  214.4530  148.9370 O   0  0  0  0  0  0  0  0  0  0  0  0
  161.9630  213.5060  148.2400 C   0  0  0  0  0  0  0  0  0  0  0  0
  161.6790  211.7990  150.1060 C   0  0  0  0  0  0  0  0  0  0  0  0
  162.0640  212.1820  148.7810 N   0  0  0  0  0  2  0  0  0  0  0  0
  161.1970  212.6440  150.9090 O   0  0  0  0  0  0  0  0  0  0  0  0
  162.9080  212.7210  146.0430 C   0  0  0  0  0  1  0  0  0  0  0  0
  162.3770  213.7660  146.9000 N   0  0  0  0  0  2  0  0  0  0  0  0
  161.3960  204.2270  152.3840 C   0  0  0  0  0  3  0  0  0  0  0  0
  161.6130  205.5500  151.9930 C   0  0  0  0  0  0  0  0  0  0  0  0
  161.5280  205.8940  150.6370 C   0  0  0  0  0  3  0  0  0  0  0  0
  161.1350  205.2540  148.2580 C   0  0  0  0  0  1  0  0  0  0  0  0
  161.0200  203.6230  150.1030 N   0  0  0  0  0  0  0  0  0  0  0  0
  161.2270  204.9040  149.6990 C   0  0  0  0  0  0  0  0  0  0  0  0
  161.0970  203.2680  151.4140 C   0  0  0  0  0  3  0  0  0  0  0  0
  1 20  1  0  0  0  0
  1 18  1  0  0  0  0
  2  6  1  0  0  0  0
  2 16  1  0  0  0  0
  4 18  1  0  0  0  0
  4  8  2  0  0  0  0
  5  2  2  0  0  0  0
  6  4  1  0  0  0  0
  7  3  1  1  0  0  0
  7 19  1  0  0  0  0
  7  5  1  0  0  0  0
  9  6  2  0  0  0  0
 10  1  1  0  0  0  0
 11 16  1  0  0  0  0
 12  8  1  0  0  0  0
 13  9  1  0  0  0  0
 13  1  1  0  0  0  0
 14 26  1  1  0  0  0
 14 15  1  0  0  0  0
 15  3  1  0  0  0  0
 16 12  2  0  0  0  0
 17  5  1  0  0  0  0
 17  9  1  0  0  0  0
 19 32  1  6  0  0  0
 19 23  1  0  0  0  0
 21 14  1  0  0  0  0
 21 22  1  0  0  0  0
 22 17  1  0  0  0  0
 23 11  1  0  0  0  0
 25 27  1  0  0  0  0
 25 24  2  0  0  0  0
 26 28  2  0  0  0  0
 27 26  1  0  0  0  0
 29 30  1  0  0  0  0
 30 25  1  0  0  0  0
 32 31  1  0  0  0  0
 33 32  2  0  0  0  0
 34 36  1  0  0  0  0
 35 37  1  0  0  0  0
 36 35  2  0  0  0  0
 36 33  1  0  0  0  0
 37 31  2  0  0  0  0
M  END
>  <MODEL>
5

>  <REMARK>
 VINA RESULT:       1.7      2.969      8.365
  Name = 
  2 active torsions:
  status: ('A' for Active; 'I' for Inactive)
    1  A    between atoms: C_8  and  C_18
    2  A    between atoms: C_23  and  C_30
                            x       y       z     vdW  Elec       q    Type
                         _______ _______ _______ _____ _____    ______ ____

>  <TORSDO>
F 2

$$$$
=
 OpenBabel11122413503D

 37 42  0  0  1  0  0  0  0  0999 V2000
  162.7780  210.2890  156.5650 C   0  0  0  0  0  0  0  0  0  0  0  0
  160.0730  212.3880  154.2420 C   0  0  0  0  0  0  0  0  0  0  0  0
  158.5040  210.3630  152.1300 C   0  0  0  0  0  2  0  0  0  0  0  0
  161.0080  212.1170  156.4460 C   0  0  0  0  0  0  0  0  0  0  0  0
  160.3570  211.8470  152.9960 C   0  0  0  0  0  0  0  0  0  0  0  0
  161.0540  211.9730  155.0780 C   0  0  0  0  0  0  0  0  0  0  0  0
  159.3250  211.6380  151.9090 C   0  0  2  0  0  3  0  0  0  0  0  0
  159.9020  212.7980  156.9870 C   0  0  0  0  0  3  0  0  0  0  0  0
  161.9260  211.2110  154.3800 C   0  0  0  0  0  0  0  0  0  0  0  0
  161.8700  209.0820  156.7290 C   0  0  0  0  0  1  0  0  0  0  0  0
  158.0170  213.6280  153.8630 O   0  0  0  0  0  0  0  0  0  0  0  0
  158.8850  213.2880  156.1250 C   0  0  0  0  0  3  0  0  0  0  0  0
  163.0690  210.5050  155.0520 C   0  0  0  0  0  2  0  0  0  0  0  0
  160.3190  208.6950  151.4410 C   0  0  1  0  0  3  0  0  0  0  0  0
  159.3520  209.1530  152.5340 C   0  0  0  0  0  2  0  0  0  0  0  0
  158.9710  213.0910  154.7270 C   0  0  0  0  0  0  0  0  0  0  0  0
  161.5110  211.1110  153.0960 N   0  0  0  0  0  0  0  0  0  0  0  0
  162.1270  211.5200  157.2610 C   0  0  0  0  0  2  0  0  0  0  0  0
  158.3820  212.8080  151.5760 C   0  0  1  0  0  3  0  0  0  0  0  0
  164.0880  209.9860  157.2610 C   0  0  0  0  0  1  0  0  0  0  0  0
  161.3010  209.7760  150.9690 C   0  0  0  0  0  2  0  0  0  0  0  0
  162.2140  210.3370  152.0650 C   0  0  0  0  0  2  0  0  0  0  0  0
  158.3610  214.0040  152.5330 C   0  0  0  0  0  2  0  0  0  0  0  0
  162.2990  204.8630  152.2620 O   0  0  0  0  0  0  0  0  0  0  0  0
  161.6510  205.0590  151.1990 C   0  0  0  0  0  0  0  0  0  0  0  0
  161.0310  207.4430  151.8410 C   0  0  0  0  0  0  0  0  0  0  0  0
  161.0100  206.3180  150.9550 N   0  0  0  0  0  2  0  0  0  0  0  0
  161.6550  207.3900  152.9370 O   0  0  0  0  0  0  0  0  0  0  0  0
  160.8310  204.1700  148.9910 C   0  0  0  0  0  1  0  0  0  0  0  0
  161.5610  204.0100  150.2360 N   0  0  0  0  0  2  0  0  0  0  0  0
  157.4920  213.6330  149.3950 C   0  0  0  0  0  3  0  0  0  0  0  0
  158.5940  213.2630  150.1690 C   0  0  0  0  0  0  0  0  0  0  0  0
  159.8790  213.3140  149.6140 C   0  0  0  0  0  3  0  0  0  0  0  0
  161.3930  213.7970  147.6890 C   0  0  0  0  0  1  0  0  0  0  0  0
  158.9490  214.0930  147.5570 N   0  0  0  0  0  0  0  0  0  0  0  0
  160.0360  213.7370  148.2920 C   0  0  0  0  0  0  0  0  0  0  0  0
  157.6920  214.0500  148.0770 C   0  0  0  0  0  3  0  0  0  0  0  0
  1 10  1  0  0  0  0
  1 20  1  0  0  0  0
  1 18  1  0  0  0  0
  2 16  1  0  0  0  0
  2  6  1  0  0  0  0
  3 15  1  0  0  0  0
  4  8  2  0  0  0  0
  4 18  1  0  0  0  0
  5 17  1  0  0  0  0
  5  2  2  0  0  0  0
  6  4  1  0  0  0  0
  7  3  1  1  0  0  0
  7  5  1  0  0  0  0
  9 13  1  0  0  0  0
  9  6  2  0  0  0  0
 11 16  1  0  0  0  0
 12  8  1  0  0  0  0
 13  1  1  0  0  0  0
 14 26  1  1  0  0  0
 14 15  1  0  0  0  0
 16 12  2  0  0  0  0
 17  9  1  0  0  0  0
 19 32  1  6  0  0  0
 19  7  1  0  0  0  0
 19 23  1  0  0  0  0
 21 14  1  0  0  0  0
 21 22  1  0  0  0  0
 22 17  1  0  0  0  0
 23 11  1  0  0  0  0
 25 24  2  0  0  0  0
 26 28  2  0  0  0  0
 27 25  1  0  0  0  0
 27 26  1  0  0  0  0
 29 30  1  0  0  0  0
 30 25  1  0  0  0  0
 31 32  1  0  0  0  0
 33 32  2  0  0  0  0
 34 36  1  0  0  0  0
 35 37  1  0  0  0  0
 35 36  2  0  0  0  0
 36 33  1  0  0  0  0
 37 31  2  0  0  0  0
M  END
>  <MODEL>
6

>  <REMARK>
 VINA RESULT:       2.4      3.871      7.743
  Name = 
  2 active torsions:
  status: ('A' for Active; 'I' for Inactive)
    1  A    between atoms: C_8  and  C_18
    2  A    between atoms: C_23  and  C_30
                            x       y       z     vdW  Elec       q    Type
                         _______ _______ _______ _____ _____    ______ ____

>  <TORSDO>
F 2

$$$$
=
 OpenBabel11122413503D

 37 42  0  0  1  0  0  0  0  0999 V2000
  159.6330  211.4020  154.3020 C   0  0  0  0  0  0  0  0  0  0  0  0
  160.7150  207.4680  153.6140 C   0  0  0  0  0  0  0  0  0  0  0  0
  163.0960  207.2810  151.3070 C   0  0  0  0  0  2  0  0  0  0  0  0
  160.1190  209.1010  155.2830 C   0  0  0  0  0  0  0  0  0  0  0  0
  160.7500  207.4680  152.2270 C   0  0  0  0  0  0  0  0  0  0  0  0
  160.1340  208.6330  153.9890 C   0  0  0  0  0  0  0  0  0  0  0  0
  161.7080  206.6360  151.4050 C   0  0  2  0  0  3  0  0  0  0  0  0
  160.6860  208.2790  156.2750 C   0  0  0  0  0  3  0  0  0  0  0  0
  159.8060  209.3300  152.8780 C   0  0  0  0  0  0  0  0  0  0  0  0
  161.0550  211.9280  154.2000 C   0  0  0  0  0  1  0  0  0  0  0  0
  161.7570  205.3520  154.2040 O   0  0  0  0  0  0  0  0  0  0  0  0
  161.2550  207.0290  155.9130 C   0  0  0  0  0  3  0  0  0  0  0  0
  159.2440  210.7210  152.9590 C   0  0  0  0  0  2  0  0  0  0  0  0
  162.4700  209.1290  149.6510 C   0  0  1  0  0  3  0  0  0  0  0  0
  163.0510  208.7860  151.0240 C   0  0  0  0  0  2  0  0  0  0  0  0
  161.2650  206.6070  154.5630 C   0  0  0  0  0  0  0  0  0  0  0  0
  160.1850  208.6360  151.7800 N   0  0  0  0  0  0  0  0  0  0  0  0
  159.5210  210.4610  155.5380 C   0  0  0  0  0  2  0  0  0  0  0  0
  161.8560  205.1450  151.7580 C   0  0  1  0  0  3  0  0  0  0  0  0
  158.7130  212.5840  154.5190 C   0  0  0  0  0  1  0  0  0  0  0  0
  161.0490  208.6000  149.4130 C   0  0  0  0  0  2  0  0  0  0  0  0
  159.9980  209.1130  150.4040 C   0  0  0  0  0  2  0  0  0  0  0  0
  161.2390  204.6580  153.0730 C   0  0  0  0  0  2  0  0  0  0  0  0
  162.4770  213.3800  148.5520 O   0  0  0  0  0  0  0  0  0  0  0  0
  161.8050  212.5310  147.9090 C   0  0  0  0  0  0  0  0  0  0  0  0
  162.5620  210.5970  149.3790 C   0  0  0  0  0  0  0  0  0  0  0  0
  161.8220  211.1470  148.2850 N   0  0  0  0  0  2  0  0  0  0  0  0
  163.2690  211.3350  150.1190 O   0  0  0  0  0  0  0  0  0  0  0  0
  160.2260  212.0360  146.0110 C   0  0  0  0  0  1  0  0  0  0  0  0
  161.0240  212.9620  146.7950 N   0  0  0  0  0  2  0  0  0  0  0  0
  160.7920  203.0650  150.8790 C   0  0  0  0  0  3  0  0  0  0  0  0
  161.4050  204.2930  150.6170 C   0  0  0  0  0  0  0  0  0  0  0  0
  161.5950  204.7030  149.2910 C   0  0  0  0  0  3  0  0  0  0  0  0
  161.3630  204.2960  146.8400 C   0  0  0  0  0  1  0  0  0  0  0  0
  160.5720  202.6840  148.5300 N   0  0  0  0  0  0  0  0  0  0  0  0
  161.1670  203.8740  148.2510 C   0  0  0  0  0  0  0  0  0  0  0  0
  160.3780  202.2670  149.8100 C   0  0  0  0  0  3  0  0  0  0  0  0
  1 20  1  0  0  0  0
  1 18  1  0  0  0  0
  2  6  1  0  0  0  0
  2 16  1  0  0  0  0
  4 18  1  0  0  0  0
  4  8  2  0  0  0  0
  5  2  2  0  0  0  0
  6  4  1  0  0  0  0
  7  3  1  1  0  0  0
  7 19  1  0  0  0  0
  7  5  1  0  0  0  0
  9 13  1  0  0  0  0
  9  6  2  0  0  0  0
 10  1  1  0  0  0  0
 11 16  1  0  0  0  0
 12  8  1  0  0  0  0
 13  1  1  0  0  0  0
 14 26  1  1  0  0  0
 14 15  1  0  0  0  0
 15  3  1  0  0  0  0
 16 12  2  0  0  0  0
 17  5  1  0  0  0  0
 17  9  1  0  0  0  0
 19 32  1  6  0  0  0
 19 23  1  0  0  0  0
 21 14  1  0  0  0  0
 21 22  1  0  0  0  0
 22 17  1  0  0  0  0
 23 11  1  0  0  0  0
 25 27  1  0  0  0  0
 25 24  2  0  0  0  0
 26 28  2  0  0  0  0
 27 26  1  0  0  0  0
 29 30  1  0  0  0  0
 30 25  1  0  0  0  0
 32 31  1  0  0  0  0
 33 32  2  0  0  0  0
 34 36  1  0  0  0  0
 35 37  1  0  0  0  0
 36 35  2  0  0  0  0
 36 33  1  0  0  0  0
 37 31  2  0  0  0  0
M  END
>  <MODEL>
7

>  <REMARK>
 VINA RESULT:       2.5      2.589      7.896
  Name = 
  2 active torsions:
  status: ('A' for Active; 'I' for Inactive)
    1  A    between atoms: C_8  and  C_18
    2  A    between atoms: C_23  and  C_30
                            x       y       z     vdW  Elec       q    Type
                         _______ _______ _______ _____ _____    ______ ____

>  <TORSDO>
F 2

$$$$
