=
 OpenBabel11122412503D

 32 37  0  0  1  0  0  0  0  0999 V2000
  161.5100  208.0230  150.6580 C   0  0  0  0  0  2  0  0  0  0  0  0
  161.5420  212.6600  147.5480 C   0  0  1  0  0  3  0  0  0  0  0  0
  157.3560  213.2660  150.1340 C   0  0  0  0  0  2  0  0  0  0  0  0
  156.6270  213.8090  148.9140 C   0  0  0  0  0  2  0  0  0  0  0  0
  161.5750  212.8610  144.9940 C   0  0  1  0  0  3  0  0  0  0  0  0
  160.7540  213.3130  143.8210 C   0  0  0  0  0  0  0  0  0  0  0  0
  162.1850  210.5580  148.7370 C   0  0  1  0  0  3  0  0  0  0  0  0
  161.5390  212.5790  150.0600 C   0  0  0  0  0  2  0  0  0  0  0  0
  158.9990  214.0000  142.6840 C   0  0  0  0  0  0  0  0  0  0  0  0
  162.0280  210.4320  151.2640 C   0  0  0  0  0  2  0  0  0  0  0  0
  158.8400  213.5880  150.0100 C   0  0  0  0  0  2  0  0  0  0  0  0
  160.8610  213.2000  148.8230 C   0  0  2  0  0  3  0  0  0  0  0  0
  159.4050  212.9430  148.8170 N   0  0  2  0  0  0  0  0  0  0  0  0
  159.3730  213.0380  146.3300 C   0  0  1  0  0  3  0  0  0  0  0  0
  160.0760  213.8110  141.8310 C   0  0  0  0  0  3  0  0  0  0  0  0
  161.2010  208.3760  149.2070 C   0  0  0  0  0  2  0  0  0  0  0  0
  161.4640  211.0580  150.0000 C   0  0  2  0  0  3  0  0  0  0  0  0
  161.1540  213.3820  142.5350 N   0  0  0  0  0  0  0  0  0  0  0  0
  162.3360  209.0990  148.6370 N   0  0  0  0  0  2  0  0  0  0  0  0
  161.2180  209.1870  151.6070 C   0  0  2  0  0  3  0  0  0  0  0  0
  157.2630  213.2600  147.6440 C   0  0  0  0  0  2  0  0  0  0  0  0
  158.7660  213.5640  147.6350 C   0  0  1  0  0  3  0  0  0  0  0  0
  158.7350  213.6680  145.1700 N   0  0  0  0  0  0  0  0  0  0  0  0
  161.5100  211.1240  147.4940 C   0  0  0  0  0  2  0  0  0  0  0  0
  162.9710  213.4570  144.9120 C   0  0  0  0  0  1  0  0  0  0  0  0
  157.6330  214.4530  142.3060 C   0  0  0  0  0  1  0  0  0  0  0  0
  160.8950  213.2920  146.3180 C   0  0  1  0  0  3  0  0  0  0  0  0
  159.4410  213.6620  143.9330 C   0  0  0  0  0  0  0  0  0  0  0  0
  161.5120  208.7890  152.9770 N   0  0  0  0  0  2  0  0  0  0  0  0
  160.8230  209.3370  154.1030 C   0  0  0  0  0  0  0  0  0  0  0  0
  159.9370  210.2180  153.9480 O   0  0  0  0  0  0  0  0  0  0  0  0
  161.1600  208.8640  155.4700 C   0  0  0  0  0  1  0  0  0  0  0  0
  1 20  1  0  0  0  0
  2 24  1  6  0  0  0
  2 12  1  0  0  0  0
  4  3  1  0  0  0  0
  5 25  1  6  0  0  0
  5 27  1  0  0  0  0
  6 28  1  0  0  0  0
  6  5  1  0  0  0  0
  7 24  1  6  0  0  0
  7 17  1  0  0  0  0
  9 28  1  0  0  0  0
 10 20  1  0  0  0  0
 11  3  1  0  0  0  0
 12  8  1  1  0  0  0
 13 12  1  0  0  0  0
 13 11  1  1  0  0  0
 14 23  1  6  0  0  0
 14 22  1  0  0  0  0
 15 18  1  0  0  0  0
 15  9  2  0  0  0  0
 16  1  1  0  0  0  0
 17  8  1  1  0  0  0
 17 10  1  0  0  0  0
 18  6  2  0  0  0  0
 19  7  1  0  0  0  0
 19 16  1  0  0  0  0
 20 29  1  1  0  0  0
 21  4  1  0  0  0  0
 22 21  1  6  0  0  0
 22 13  1  0  0  0  0
 26  9  1  0  0  0  0
 27 14  1  0  0  0  0
 27  2  1  0  0  0  0
 28 23  2  0  0  0  0
 29 30  1  0  0  0  0
 30 32  1  0  0  0  0
 31 30  2  0  0  0  0
M  END
>  <MODEL>
1

>  <REMARK>
 VINA RESULT:      -4.6      0.000      0.000
  Name = 
  1 active torsions:
  status: ('A' for Active; 'I' for Inactive)
    1  A    between atoms: C_20  and  N_29
                            x       y       z     vdW  Elec       q    Type
                         _______ _______ _______ _____ _____    ______ ____

>  <TORSDO>
F 1

$$$$
=
 OpenBabel11122412503D

 32 37  0  0  1  0  0  0  0  0999 V2000
  156.8230  213.5190  147.6270 C   0  0  0  0  0  2  0  0  0  0  0  0
  160.0620  212.7550  152.1100 C   0  0  1  0  0  3  0  0  0  0  0  0
  162.0340  209.5000  148.9340 C   0  0  0  0  0  2  0  0  0  0  0  0
  162.2080  208.4630  150.0330 C   0  0  0  0  0  2  0  0  0  0  0  0
  159.3640  212.0590  154.4750 C   0  0  1  0  0  3  0  0  0  0  0  0
  159.4820  210.9450  155.4760 C   0  0  0  0  0  0  0  0  0  0  0  0
  158.4370  213.6680  150.4460 C   0  0  1  0  0  3  0  0  0  0  0  0
  160.8530  213.4710  149.8350 C   0  0  0  0  0  2  0  0  0  0  0  0
  159.9450  208.9530  156.2880 C   0  0  0  0  0  0  0  0  0  0  0  0
  159.2100  214.2400  148.1010 C   0  0  0  0  0  2  0  0  0  0  0  0
  162.1080  210.8920  149.5470 C   0  0  0  0  0  2  0  0  0  0  0  0
  161.0880  212.4800  150.9910 C   0  0  2  0  0  3  0  0  0  0  0  0
  161.0270  211.0780  150.5240 N   0  0  2  0  0  0  0  0  0  0  0  0
  160.2610  210.3360  152.7740 C   0  0  1  0  0  3  0  0  0  0  0  0
  159.3430  209.7360  157.2610 C   0  0  0  0  0  3  0  0  0  0  0  0
  156.6900  212.8150  148.9720 C   0  0  0  0  0  2  0  0  0  0  0  0
  159.4260  213.3500  149.3120 C   0  0  2  0  0  3  0  0  0  0  0  0
  159.0530  210.9610  156.7540 N   0  0  0  0  0  2  0  0  0  0  0  0
  157.0260  213.7540  150.0410 N   0  0  0  0  0  2  0  0  0  0  0  0
  158.2700  213.5360  147.1280 C   0  0  2  0  0  3  0  0  0  0  0  0
  161.1810  208.6970  151.1330 C   0  0  0  0  0  2  0  0  0  0  0  0
  161.2750  210.1400  151.6420 C   0  0  1  0  0  3  0  0  0  0  0  0
  160.5260  209.4050  153.8750 N   0  0  0  0  0  2  0  0  0  0  0  0
  158.6180  212.6770  151.5890 C   0  0  0  0  0  2  0  0  0  0  0  0
  159.7190  213.3850  155.1280 C   0  0  0  0  0  1  0  0  0  0  0  0
  160.4050  207.5460  156.4370 C   0  0  0  0  0  1  0  0  0  0  0  0
  160.3060  211.7960  153.2720 C   0  0  1  0  0  3  0  0  0  0  0  0
  160.0070  209.7280  155.1620 C   0  0  0  0  0  0  0  0  0  0  0  0
  158.3350  214.2020  145.8350 N   0  0  0  0  0  2  0  0  0  0  0  0
  158.6760  213.5130  144.6300 C   0  0  0  0  0  0  0  0  0  0  0  0
  158.9610  212.2870  144.6490 O   0  0  0  0  0  0  0  0  0  0  0  0
  158.6990  214.2540  143.3420 C   0  0  0  0  0  1  0  0  0  0  0  0
  1 16  1  0  0  0  0
  2 24  1  6  0  0  0
  2 27  1  0  0  0  0
  3 11  1  0  0  0  0
  3  4  1  0  0  0  0
  4 21  1  0  0  0  0
  5 25  1  1  0  0  0
  5  6  1  0  0  0  0
  6 18  1  0  0  0  0
  7 24  1  1  0  0  0
  9 26  1  0  0  0  0
  9 15  2  0  0  0  0
 12  8  1  6  0  0  0
 12  2  1  0  0  0  0
 13 11  1  6  0  0  0
 13 12  1  0  0  0  0
 13 22  1  0  0  0  0
 14 27  1  0  0  0  0
 14 23  1  1  0  0  0
 16 19  1  0  0  0  0
 17 10  1  6  0  0  0
 17  8  1  0  0  0  0
 17  7  1  0  0  0  0
 18 15  1  0  0  0  0
 19  7  1  0  0  0  0
 20 29  1  6  0  0  0
 20  1  1  0  0  0  0
 20 10  1  0  0  0  0
 22 21  1  6  0  0  0
 22 14  1  0  0  0  0
 23 28  1  0  0  0  0
 27  5  1  0  0  0  0
 28  6  2  0  0  0  0
 28  9  1  0  0  0  0
 30 31  2  0  0  0  0
 30 29  1  0  0  0  0
 32 30  1  0  0  0  0
M  END
>  <MODEL>
2

>  <REMARK>
 VINA RESULT:      -4.5      2.608      9.081
  Name = 
  1 active torsions:
  status: ('A' for Active; 'I' for Inactive)
    1  A    between atoms: C_20  and  N_29
                            x       y       z     vdW  Elec       q    Type
                         _______ _______ _______ _____ _____    ______ ____

>  <TORSDO>
F 1

$$$$
=
 OpenBabel11122412503D

 32 37  0  0  1  0  0  0  0  0999 V2000
  160.3820  204.5640  146.8460 C   0  0  0  0  0  2  0  0  0  0  0  0
  162.3520  209.0800  149.4740 C   0  0  1  0  0  3  0  0  0  0  0  0
  161.2170  206.1530  153.3110 C   0  0  0  0  0  2  0  0  0  0  0  0
  160.6610  207.3290  154.1020 C   0  0  0  0  0  2  0  0  0  0  0  0
  161.5050  211.4930  149.3380 C   0  0  1  0  0  3  0  0  0  0  0  0
  160.8490  212.5760  150.1470 C   0  0  0  0  0  0  0  0  0  0  0  0
  161.7760  207.3570  147.7580 C   0  0  1  0  0  3  0  0  0  0  0  0
  163.2840  206.7530  149.6580 C   0  0  0  0  0  2  0  0  0  0  0  0
  159.7950  213.5360  151.8240 C   0  0  0  0  0  0  0  0  0  0  0  0
  162.5880  204.9720  148.0330 C   0  0  0  0  0  2  0  0  0  0  0  0
  162.2990  206.6590  152.3650 C   0  0  0  0  0  2  0  0  0  0  0  0
  162.8060  207.9810  150.4580 C   0  0  2  0  0  3  0  0  0  0  0  0
  161.7350  207.6230  151.4110 N   0  0  2  0  0  0  0  0  0  0  0  0
  160.8000  209.9260  151.2650 C   0  0  1  0  0  3  0  0  0  0  0  0
  159.9910  214.4490  150.7980 C   0  0  0  0  0  3  0  0  0  0  0  0
  159.8630  205.9600  147.1720 C   0  0  0  0  0  2  0  0  0  0  0  0
  162.1720  206.2470  148.7450 C   0  0  2  0  0  3  0  0  0  0  0  0
  160.6350  213.8520  149.7640 N   0  0  0  0  0  0  0  0  0  0  0  0
  160.8300  206.9530  146.7070 N   0  0  0  0  0  2  0  0  0  0  0  0
  161.3730  204.0590  147.8970 C   0  0  2  0  0  3  0  0  0  0  0  0
  160.1760  208.4110  153.1470 C   0  0  0  0  0  2  0  0  0  0  0  0
  161.3020  208.8080  152.1860 C   0  0  1  0  0  3  0  0  0  0  0  0
  160.3840  211.0940  152.0470 N   0  0  0  0  0  0  0  0  0  0  0  0
  161.2600  208.5720  148.5190 C   0  0  0  0  0  2  0  0  0  0  0  0
  162.7370  212.0420  148.6380 C   0  0  0  0  0  1  0  0  0  0  0  0
  159.1190  213.7910  153.1240 C   0  0  0  0  0  1  0  0  0  0  0  0
  161.9040  210.3110  150.2570 C   0  0  1  0  0  3  0  0  0  0  0  0
  160.3270  212.3550  151.3860 C   0  0  0  0  0  0  0  0  0  0  0  0
  161.8210  202.7190  147.5460 N   0  0  0  0  0  2  0  0  0  0  0  0
  161.1130  201.5430  147.9430 C   0  0  0  0  0  0  0  0  0  0  0  0
  160.0710  201.6250  148.6450 O   0  0  0  0  0  0  0  0  0  0  0  0
  161.6160  200.2080  147.5270 C   0  0  0  0  0  1  0  0  0  0  0  0
  1 16  1  0  0  0  0
  1 20  1  0  0  0  0
  2 24  1  1  0  0  0
  2 27  1  0  0  0  0
  2 12  1  0  0  0  0
  3  4  1  0  0  0  0
  5 25  1  1  0  0  0
  5  6  1  0  0  0  0
  5 27  1  0  0  0  0
  6 28  1  0  0  0  0
  7 24  1  1  0  0  0
  7 17  1  0  0  0  0
  9 26  1  0  0  0  0
 11  3  1  0  0  0  0
 12  8  1  6  0  0  0
 12 13  1  0  0  0  0
 13 22  1  0  0  0  0
 13 11  1  1  0  0  0
 14 23  1  1  0  0  0
 14 22  1  0  0  0  0
 15  9  2  0  0  0  0
 17 10  1  6  0  0  0
 17  8  1  0  0  0  0
 18  6  2  0  0  0  0
 18 15  1  0  0  0  0
 19 16  1  0  0  0  0
 19  7  1  0  0  0  0
 20 29  1  6  0  0  0
 20 10  1  0  0  0  0
 21  4  1  0  0  0  0
 22 21  1  1  0  0  0
 27 14  1  0  0  0  0
 28  9  1  0  0  0  0
 28 23  2  0  0  0  0
 29 30  1  0  0  0  0
 30 31  2  0  0  0  0
 32 30  1  0  0  0  0
M  END
>  <MODEL>
3

>  <REMARK>
 VINA RESULT:      -1.7      4.256      7.155
  Name = 
  1 active torsions:
  status: ('A' for Active; 'I' for Inactive)
    1  A    between atoms: C_20  and  N_29
                            x       y       z     vdW  Elec       q    Type
                         _______ _______ _______ _____ _____    ______ ____

>  <TORSDO>
F 1

$$$$
