=
 OpenBabel11122414143D

 28 32  0  0  1  0  0  0  0  0999 V2000
  161.0270  208.5730  155.6930 C   0  0  2  0  0  3  0  0  0  0  0  0
  156.8230  210.3400  154.5920 O   0  0  0  0  0  1  0  0  0  0  0  0
  162.5070  210.9270  150.7140 O   0  0  0  0  0  0  0  0  0  0  0  0
  162.7950  210.7580  156.3890 C   0  0  0  0  0  2  0  0  0  0  0  0
  160.3810  211.7000  151.3530 N   0  0  0  0  0  0  0  0  0  0  0  0
  160.7040  207.3470  154.8260 C   0  0  0  0  0  2  0  0  0  0  0  0
  157.9070  210.5800  156.6890 C   0  0  0  0  0  1  0  0  0  0  0  0
  157.6680  211.1850  155.3170 C   0  0  1  0  0  0  0  0  0  0  0  0
  156.9710  213.3560  154.2480 C   0  0  0  0  0  0  0  0  0  0  0  0
  159.0140  211.3650  154.5820 C   0  0  2  0  0  3  0  0  0  0  0  0
  160.6860  206.0730  151.3480 C   0  0  0  0  0  1  0  0  0  0  0  0
  159.7410  209.8810  152.7520 C   0  0  1  0  0  3  0  0  0  0  0  0
  157.5730  212.8110  152.9900 C   0  0  0  0  0  2  0  0  0  0  0  0
  156.9880  212.5430  155.5120 C   0  0  0  0  0  2  0  0  0  0  0  0
  160.8010  207.3130  152.2090 C   0  0  2  0  0  3  0  0  0  0  0  0
  161.0460  209.8300  154.9080 N   0  0  2  0  0  0  0  0  0  0  0  0
  161.4340  210.7600  151.3550 C   0  0  0  0  0  0  0  0  0  0  0  0
  156.4390  214.4530  154.2400 O   0  0  0  0  0  0  0  0  0  0  0  0
  161.1760  208.4090  151.4050 O   0  0  0  0  0  0  0  0  0  0  0  0
  161.4140  210.9570  155.7850 C   0  0  0  0  0  2  0  0  0  0  0  0
  162.3610  208.3230  156.4100 C   0  0  0  0  0  2  0  0  0  0  0  0
  162.7600  209.5180  157.2600 C   0  0  0  0  0  2  0  0  0  0  0  0
  161.9830  207.0060  153.5630 S   0  0  0  0  0  0  0  0  0  0  0  0
  159.2640  211.2010  152.1310 C   0  0  1  0  0  3  0  0  0  0  0  0
  161.1510  209.5780  152.1920 C   0  0  2  0  0  3  0  0  0  0  0  0
  158.9300  212.1550  153.2640 C   0  0  2  0  0  3  0  0  0  0  0  0
  160.3130  212.8600  150.4800 C   0  0  0  0  0  1  0  0  0  0  0  0
  159.7090  210.0280  154.2810 C   0  0  1  0  0  3  0  0  0  0  0  0
  1  6  1  6  0  0  0
  1 21  1  0  0  0  0
  2  8  1  0  0  0  0
  3 17  2  0  0  0  0
  4 22  1  0  0  0  0
  5 17  1  0  0  0  0
  5 24  1  0  0  0  0
  8 14  1  0  0  0  0
  8  7  1  1  0  0  0
  9 14  1  0  0  0  0
 10  8  1  0  0  0  0
 11 15  1  0  0  0  0
 12 28  1  0  0  0  0
 13 26  1  0  0  0  0
 13  9  1  0  0  0  0
 15 23  1  0  0  0  0
 16  1  1  0  0  0  0
 16 20  1  0  0  0  0
 17 25  1  0  0  0  0
 18  9  2  0  0  0  0
 19 25  1  0  0  0  0
 19 15  1  0  0  0  0
 20  4  1  0  0  0  0
 21 22  1  0  0  0  0
 23  6  1  0  0  0  0
 24 12  1  0  0  0  0
 24 26  1  0  0  0  0
 25 12  1  0  0  0  0
 26 10  1  0  0  0  0
 27  5  1  0  0  0  0
 28 10  1  0  0  0  0
 28 16  1  0  0  0  0
M  END
>  <MODEL>
1

>  <REMARK>
 VINA RESULT:      -2.7      0.000      0.000
  Name = 
  0 active torsions:
  status: ('A' for Active; 'I' for Inactive)
                            x       y       z     vdW  Elec       q    Type
                         _______ _______ _______ _____ _____    ______ ____

>  <TORSDO>
F 0

$$$$
=
 OpenBabel11122414143D

 28 32  0  0  1  0  0  0  0  0999 V2000
  159.3140  213.7490  141.7780 C   0  0  2  0  0  3  0  0  0  0  0  0
  162.8250  214.3610  138.7280 O   0  0  0  0  0  1  0  0  0  0  0  0
  158.2750  209.1700  138.5420 O   0  0  0  0  0  0  0  0  0  0  0  0
  159.9390  211.4780  143.4630 C   0  0  0  0  0  2  0  0  0  0  0  0
  160.3820  210.0610  137.9980 N   0  0  0  0  0  0  0  0  0  0  0  0
  158.3730  214.4530  140.7890 C   0  0  0  0  0  2  0  0  0  0  0  0
  163.0270  214.4520  141.0900 C   0  0  0  0  0  1  0  0  0  0  0  0
  163.1220  213.5820  139.8490 C   0  0  1  0  0  0  0  0  0  0  0  0
  164.6930  211.9650  138.7300 C   0  0  0  0  0  0  0  0  0  0  0  0
  162.1360  212.3990  139.9630 C   0  0  2  0  0  3  0  0  0  0  0  0
  156.3030  213.9420  137.7610 C   0  0  0  0  0  1  0  0  0  0  0  0
  160.0170  212.3070  138.7060 C   0  0  1  0  0  3  0  0  0  0  0  0
  163.4990  211.5020  137.9530 C   0  0  0  0  0  2  0  0  0  0  0  0
  164.5580  213.0640  139.7460 C   0  0  0  0  0  2  0  0  0  0  0  0
  157.3830  213.3410  138.6350 C   0  0  2  0  0  3  0  0  0  0  0  0
  159.8980  212.5080  141.2160 N   0  0  2  0  0  0  0  0  0  0  0  0
  159.0630  210.1520  138.4960 C   0  0  0  0  0  0  0  0  0  0  0  0
  165.7850  211.4670  138.5160 O   0  0  0  0  0  0  0  0  0  0  0  0
  157.6230  212.0100  138.2360 O   0  0  0  0  0  0  0  0  0  0  0  0
  160.7450  211.8540  142.2300 C   0  0  0  0  0  2  0  0  0  0  0  0
  158.5420  213.4830  143.0780 C   0  0  0  0  0  2  0  0  0  0  0  0
  159.4070  212.7510  144.0900 C   0  0  0  0  0  2  0  0  0  0  0  0
  156.8880  213.4640  140.3860 S   0  0  0  0  0  0  0  0  0  0  0  0
  161.0160  211.3650  138.0200 C   0  0  1  0  0  3  0  0  0  0  0  0
  158.7170  211.5080  138.9670 C   0  0  2  0  0  3  0  0  0  0  0  0
  162.2780  211.3320  138.8630 C   0  0  2  0  0  3  0  0  0  0  0  0
  160.9230  208.9020  137.3070 C   0  0  0  0  0  1  0  0  0  0  0  0
  160.6680  212.8500  139.9870 C   0  0  1  0  0  3  0  0  0  0  0  0
  1  6  1  6  0  0  0
  1 21  1  0  0  0  0
  2  8  1  0  0  0  0
  4 22  1  0  0  0  0
  5 24  1  0  0  0  0
  5 17  1  0  0  0  0
  8 10  1  0  0  0  0
  8  7  1  1  0  0  0
  9 14  1  0  0  0  0
 10 28  1  0  0  0  0
 11 15  1  0  0  0  0
 12 25  1  0  0  0  0
 12 28  1  0  0  0  0
 13  9  1  0  0  0  0
 13 26  1  0  0  0  0
 14  8  1  0  0  0  0
 15 23  1  0  0  0  0
 16  1  1  0  0  0  0
 16 20  1  0  0  0  0
 17  3  2  0  0  0  0
 17 25  1  0  0  0  0
 18  9  2  0  0  0  0
 19 15  1  0  0  0  0
 19 25  1  0  0  0  0
 20  4  1  0  0  0  0
 21 22  1  0  0  0  0
 23  6  1  0  0  0  0
 24 12  1  0  0  0  0
 24 26  1  0  0  0  0
 26 10  1  0  0  0  0
 27  5  1  0  0  0  0
 28 16  1  0  0  0  0
M  END
>  <MODEL>
2

>  <REMARK>
 VINA RESULT:      -1.9     11.702     15.144
  Name = 
  0 active torsions:
  status: ('A' for Active; 'I' for Inactive)
                            x       y       z     vdW  Elec       q    Type
                         _______ _______ _______ _____ _____    ______ ____

>  <TORSDO>
F 0

$$$$
