=
 OpenBabel11122412403D

 30 35  0  0  1  0  0  0  0  0999 V2000
  161.4170  208.5630  151.8050 C   0  0  0  0  0  0  0  0  0  0  0  0
  161.0510  209.5650  154.0530 C   0  0  0  0  0  0  0  0  0  0  0  0
  160.8420  204.7600  153.2540 N   0  0  0  0  0  2  0  0  0  0  0  0
  161.4390  207.4260  150.9610 C   0  0  0  0  0  0  0  0  0  0  0  0
  161.6820  209.8130  151.2420 O   0  0  0  0  0  0  0  0  0  0  0  0
  162.5680  208.8940  147.8490 O   0  0  0  0  0  1  0  0  0  0  0  0
  162.0630  205.4220  148.6230 C   0  0  1  0  0  3  0  0  0  0  0  0
  161.7310  208.9670  148.9660 C   0  0  2  0  0  3  0  0  0  0  0  0
  161.8480  204.4130  149.7440 C   0  0  2  0  0  3  0  0  0  0  0  0
  161.0700  204.1060  152.0960 C   0  0  0  0  0  0  0  0  0  0  0  0
  162.3360  209.9310  149.9850 C   0  0  1  0  0  3  0  0  0  0  0  0
  161.5310  207.6260  149.5330 N   0  0  0  0  0  0  0  0  0  0  0  0
  160.7570  209.3910  155.4080 C   0  0  0  0  0  3  0  0  0  0  0  0
  160.9850  203.3200  149.1460 C   0  0  0  0  0  2  0  0  0  0  0  0
  161.9240  204.6360  147.3300 C   0  0  0  0  0  2  0  0  0  0  0  0
  161.2680  210.8570  153.5870 O   0  0  0  0  0  1  0  0  0  0  0  0
  160.9720  206.0480  152.8960 C   0  0  0  0  0  0  0  0  0  0  0  0
  160.5310  208.1170  155.9300 C   0  0  0  0  0  3  0  0  0  0  0  0
  161.1200  208.4440  153.1910 C   0  0  0  0  0  0  0  0  0  0  0  0
  161.2580  206.1590  151.5580 C   0  0  0  0  0  0  0  0  0  0  0  0
  161.0920  202.8480  152.0320 O   0  0  0  0  0  0  0  0  0  0  0  0
  161.3150  204.9110  151.0260 N   0  0  0  0  0  0  0  0  0  0  0  0
  161.3970  203.2560  147.6910 C   0  0  0  0  0  2  0  0  0  0  0  0
  159.3610  206.1940  148.7880 Cl  0  0  0  0  0  0  0  0  0  0  0  0
  160.5950  207.0010  155.0990 C   0  0  0  0  0  3  0  0  0  0  0  0
  160.8850  207.1540  153.7390 C   0  0  0  0  0  0  0  0  0  0  0  0
  161.0990  206.5970  148.6010 C   0  0  2  0  0  3  0  0  0  0  0  0
  162.2680  211.3710  149.4970 C   0  0  0  0  0  2  0  0  0  0  0  0
  162.1760  212.4750  147.5880 C   0  0  0  0  0  1  0  0  0  0  0  0
  161.5540  211.4500  148.2990 O   0  0  0  0  0  0  0  0  0  0  0  0
  1 19  1  0  0  0  0
  2 13  1  0  0  0  0
  4 20  1  0  0  0  0
  4  1  2  0  0  0  0
  5  1  1  0  0  0  0
  7 15  1  6  0  0  0
  7  9  1  0  0  0  0
  8  6  1  6  0  0  0
  8 12  1  0  0  0  0
  8 11  1  0  0  0  0
  9 14  1  6  0  0  0
  9 22  1  0  0  0  0
 10  3  1  0  0  0  0
 11 28  1  6  0  0  0
 11  5  1  0  0  0  0
 12  4  1  0  0  0  0
 13 18  2  0  0  0  0
 15 23  1  0  0  0  0
 16  2  1  0  0  0  0
 17  3  1  0  0  0  0
 17 26  1  0  0  0  0
 19 26  1  0  0  0  0
 19  2  2  0  0  0  0
 20 17  2  0  0  0  0
 21 10  2  0  0  0  0
 22 20  1  0  0  0  0
 22 10  1  0  0  0  0
 23 14  1  0  0  0  0
 25 18  1  0  0  0  0
 26 25  2  0  0  0  0
 27  7  1  0  0  0  0
 27 24  1  1  0  0  0
 27 12  1  0  0  0  0
 29 30  1  0  0  0  0
 30 28  1  0  0  0  0
M  END
>  <MODEL>
1

>  <REMARK>
 VINA RESULT:      -7.5      0.000      0.000
  Name = 
  2 active torsions:
  status: ('A' for Active; 'I' for Inactive)
    1  A    between atoms: C_11  and  C_28
    2  A    between atoms: C_28  and  O_30
                            x       y       z     vdW  Elec       q    Type
                         _______ _______ _______ _____ _____    ______ ____

>  <TORSDO>
F 2

$$$$
=
 OpenBabel11122412403D

 30 35  0  0  1  0  0  0  0  0999 V2000
  161.0820  204.6920  148.6730 C   0  0  0  0  0  0  0  0  0  0  0  0
  161.0040  202.2710  148.1040 C   0  0  0  0  0  0  0  0  0  0  0  0
  160.9660  203.8900  152.7030 N   0  0  0  0  0  2  0  0  0  0  0  0
  161.1560  205.7190  149.6470 C   0  0  0  0  0  0  0  0  0  0  0  0
  161.0660  205.0550  147.3260 O   0  0  0  0  0  0  0  0  0  0  0  0
  160.9130  208.6700  147.5610 O   0  0  0  0  0  1  0  0  0  0  0  0
  160.9160  208.4670  151.1480 C   0  0  1  0  0  3  0  0  0  0  0  0
  161.4720  207.4070  147.7780 C   0  0  2  0  0  3  0  0  0  0  0  0
  160.7750  207.5350  152.3450 C   0  0  2  0  0  3  0  0  0  0  0  0
  160.9560  205.1720  153.1260 C   0  0  0  0  0  0  0  0  0  0  0  0
  160.7340  206.3770  146.9220 C   0  0  1  0  0  3  0  0  0  0  0  0
  161.4150  207.0710  149.2080 N   0  0  0  0  0  0  0  0  0  0  0  0
  160.9590  200.9410  148.5320 C   0  0  0  0  0  3  0  0  0  0  0  0
  161.6530  208.1290  153.4270 C   0  0  0  0  0  2  0  0  0  0  0  0
  161.2810  209.8250  151.7260 C   0  0  0  0  0  2  0  0  0  0  0  0
  161.0160  202.5220  146.7370 O   0  0  0  0  0  1  0  0  0  0  0  0
  161.0380  204.0210  151.3680 C   0  0  0  0  0  0  0  0  0  0  0  0
  160.9450  200.6300  149.8920 C   0  0  0  0  0  3  0  0  0  0  0  0
  161.0380  203.3220  149.0530 C   0  0  0  0  0  0  0  0  0  0  0  0
  161.0800  205.3440  151.0050 C   0  0  0  0  0  0  0  0  0  0  0  0
  160.8380  205.4720  154.3440 O   0  0  0  0  0  0  0  0  0  0  0  0
  161.0380  206.0990  152.1330 N   0  0  0  0  0  0  0  0  0  0  0  0
  161.5850  209.6250  153.2020 C   0  0  0  0  0  2  0  0  0  0  0  0
  163.5640  207.5910  150.7660 Cl  0  0  0  0  0  0  0  0  0  0  0  0
  160.9760  201.6490  150.8410 C   0  0  0  0  0  3  0  0  0  0  0  0
  161.0240  202.9870  150.4340 C   0  0  0  0  0  0  0  0  0  0  0  0
  161.9580  208.0650  150.1190 C   0  0  2  0  0  3  0  0  0  0  0  0
  161.0410  206.5620  145.4430 C   0  0  0  0  0  2  0  0  0  0  0  0
  161.2460  204.8850  144.0240 C   0  0  0  0  0  1  0  0  0  0  0  0
  161.9430  205.5910  145.0030 O   0  0  0  0  0  0  0  0  0  0  0  0
  1 19  2  0  0  0  0
  1  4  1  0  0  0  0
  2 13  2  0  0  0  0
  2 19  1  0  0  0  0
  3 10  1  0  0  0  0
  4 20  2  0  0  0  0
  5  1  1  0  0  0  0
  7 15  1  1  0  0  0
  7  9  1  0  0  0  0
  8  6  1  1  0  0  0
  8 12  1  0  0  0  0
  9 14  1  1  0  0  0
 10 21  2  0  0  0  0
 11 28  1  6  0  0  0
 11  5  1  0  0  0  0
 11  8  1  0  0  0  0
 12  4  1  0  0  0  0
 12 27  1  0  0  0  0
 13 18  1  0  0  0  0
 15 23  1  0  0  0  0
 16  2  1  0  0  0  0
 17  3  1  0  0  0  0
 18 25  2  0  0  0  0
 19 26  1  0  0  0  0
 20 17  1  0  0  0  0
 20 22  1  0  0  0  0
 22  9  1  0  0  0  0
 22 10  1  0  0  0  0
 23 14  1  0  0  0  0
 26 25  1  0  0  0  0
 26 17  2  0  0  0  0
 27 24  1  1  0  0  0
 27  7  1  0  0  0  0
 29 30  1  0  0  0  0
 30 28  1  0  0  0  0
M  END
>  <MODEL>
2

>  <REMARK>
 VINA RESULT:      -6.9      2.383      5.891
  Name = 
  2 active torsions:
  status: ('A' for Active; 'I' for Inactive)
    1  A    between atoms: C_11  and  C_28
    2  A    between atoms: C_28  and  O_30
                            x       y       z     vdW  Elec       q    Type
                         _______ _______ _______ _____ _____    ______ ____

>  <TORSDO>
F 2

$$$$
=
 OpenBabel11122412403D

 30 35  0  0  1  0  0  0  0  0999 V2000
  161.2550  208.9180  151.6100 C   0  0  0  0  0  0  0  0  0  0  0  0
  161.6050  211.1760  150.6260 C   0  0  0  0  0  0  0  0  0  0  0  0
  161.5930  207.1130  147.9330 N   0  0  0  0  0  2  0  0  0  0  0  0
  161.2010  207.5110  151.4550 C   0  0  0  0  0  0  0  0  0  0  0  0
  161.0710  209.4530  152.8850 O   0  0  0  0  0  0  0  0  0  0  0  0
  160.2410  206.4840  154.7930 O   0  0  0  0  0  1  0  0  0  0  0  0
  160.5460  204.4630  151.8380 C   0  0  1  0  0  3  0  0  0  0  0  0
  161.0470  207.2840  153.9780 C   0  0  2  0  0  3  0  0  0  0  0  0
  160.6760  204.4840  150.3200 C   0  0  2  0  0  3  0  0  0  0  0  0
  161.3660  205.8480  148.3480 C   0  0  0  0  0  0  0  0  0  0  0  0
  160.4610  208.6950  153.9220 C   0  0  1  0  0  3  0  0  0  0  0  0
  161.1620  206.6860  152.6410 N   0  0  0  0  0  0  0  0  0  0  0  0
  161.8480  211.9680  149.5000 C   0  0  0  0  0  3  0  0  0  0  0  0
  161.5000  203.2620  149.9670 C   0  0  0  0  0  2  0  0  0  0  0  0
  160.6840  203.0040  152.2420 C   0  0  0  0  0  2  0  0  0  0  0  0
  161.4680  211.8080  151.8560 O   0  0  0  0  0  1  0  0  0  0  0  0
  161.5400  207.8130  149.0770 C   0  0  0  0  0  0  0  0  0  0  0  0
  161.9940  211.3870  148.2400 C   0  0  0  0  0  3  0  0  0  0  0  0
  161.5050  209.7700  150.4980 C   0  0  0  0  0  0  0  0  0  0  0  0
  161.2990  206.9880  150.1470 C   0  0  0  0  0  0  0  0  0  0  0  0
  161.2830  204.8850  147.5410 O   0  0  0  0  0  0  0  0  0  0  0  0
  161.1950  205.7130  149.6910 N   0  0  0  0  0  0  0  0  0  0  0  0
  161.1280  202.2310  151.0100 C   0  0  0  0  0  2  0  0  0  0  0  0
  163.2780  205.0940  152.0900 Cl  0  0  0  0  0  0  0  0  0  0  0  0
  161.8980  210.0060  148.0920 C   0  0  0  0  0  3  0  0  0  0  0  0
  161.6570  209.1950  149.2070 C   0  0  0  0  0  0  0  0  0  0  0  0
  161.5680  205.2910  152.5990 C   0  0  2  0  0  3  0  0  0  0  0  0
  160.6170  209.4150  155.2540 C   0  0  0  0  0  2  0  0  0  0  0  0
  162.3740  210.4880  156.0500 C   0  0  0  0  0  1  0  0  0  0  0  0
  161.8960  209.2070  155.7780 O   0  0  0  0  0  0  0  0  0  0  0  0
  1  5  1  0  0  0  0
  2 16  1  0  0  0  0
  3 10  1  0  0  0  0
  3 17  1  0  0  0  0
  4  1  1  0  0  0  0
  4 12  1  0  0  0  0
  5 11  1  0  0  0  0
  7 15  1  1  0  0  0
  7 27  1  0  0  0  0
  8  6  1  1  0  0  0
  9 14  1  1  0  0  0
  9  7  1  0  0  0  0
 10 22  1  0  0  0  0
 11  8  1  0  0  0  0
 11 28  1  1  0  0  0
 12  8  1  0  0  0  0
 13  2  2  0  0  0  0
 14 23  1  0  0  0  0
 17 26  2  0  0  0  0
 17 20  1  0  0  0  0
 18 13  1  0  0  0  0
 19  2  1  0  0  0  0
 19  1  2  0  0  0  0
 20  4  2  0  0  0  0
 21 10  2  0  0  0  0
 22 20  1  0  0  0  0
 22  9  1  0  0  0  0
 23 15  1  0  0  0  0
 25 18  2  0  0  0  0
 25 26  1  0  0  0  0
 26 19  1  0  0  0  0
 27 24  1  6  0  0  0
 27 12  1  0  0  0  0
 28 30  1  0  0  0  0
 30 29  1  0  0  0  0
M  END
>  <MODEL>
3

>  <REMARK>
 VINA RESULT:      -6.2      1.998      4.926
  Name = 
  2 active torsions:
  status: ('A' for Active; 'I' for Inactive)
    1  A    between atoms: C_11  and  C_28
    2  A    between atoms: C_28  and  O_30
                            x       y       z     vdW  Elec       q    Type
                         _______ _______ _______ _____ _____    ______ ____

>  <TORSDO>
F 2

$$$$
=
 OpenBabel11122412403D

 30 35  0  0  1  0  0  0  0  0999 V2000
  161.4080  207.8700  151.3410 C   0  0  0  0  0  0  0  0  0  0  0  0
  161.6720  205.6300  150.2900 C   0  0  0  0  0  0  0  0  0  0  0  0
  160.4330  206.2030  154.9700 N   0  0  0  0  0  2  0  0  0  0  0  0
  161.1670  208.6610  152.4910 C   0  0  0  0  0  0  0  0  0  0  0  0
  161.6740  208.5170  150.1340 O   0  0  0  0  0  0  0  0  0  0  0  0
  161.1620  211.9860  151.0560 O   0  0  0  0  0  1  0  0  0  0  0  0
  160.3520  211.0050  154.4170 C   0  0  1  0  0  3  0  0  0  0  0  0
  161.7610  210.7260  151.1410 C   0  0  2  0  0  3  0  0  0  0  0  0
  160.0180  209.8300  155.3260 C   0  0  2  0  0  3  0  0  0  0  0  0
  160.2150  207.3600  155.6300 C   0  0  0  0  0  0  0  0  0  0  0  0
  161.3320  209.8830  149.9390 C   0  0  1  0  0  3  0  0  0  0  0  0
  161.4040  210.0840  152.4140 N   0  0  0  0  0  0  0  0  0  0  0  0
  161.6430  204.2380  150.4130 C   0  0  0  0  0  3  0  0  0  0  0  0
  160.5680  210.2030  156.6890 C   0  0  0  0  0  2  0  0  0  0  0  0
  160.4560  212.2160  155.3300 C   0  0  0  0  0  2  0  0  0  0  0  0
  161.9780  206.1740  149.0480 O   0  0  0  0  0  1  0  0  0  0  0  0
  160.8000  206.6250  153.7490 C   0  0  0  0  0  0  0  0  0  0  0  0
  161.3410  203.6370  151.6350 C   0  0  0  0  0  3  0  0  0  0  0  0
  161.3960  206.4490  151.4110 C   0  0  0  0  0  0  0  0  0  0  0  0
  160.8110  207.9950  153.6850 C   0  0  0  0  0  0  0  0  0  0  0  0
  159.7940  207.3840  156.8170 O   0  0  0  0  0  0  0  0  0  0  0  0
  160.4450  208.4840  154.8980 N   0  0  0  0  0  0  0  0  0  0  0  0
  160.4260  211.7080  156.7630 C   0  0  0  0  0  2  0  0  0  0  0  0
  163.0820  210.3240  154.5220 Cl  0  0  0  0  0  0  0  0  0  0  0  0
  161.0650  204.4250  152.7500 C   0  0  0  0  0  3  0  0  0  0  0  0
  161.0910  205.8200  152.6490 C   0  0  0  0  0  0  0  0  0  0  0  0
  161.6350  210.8730  153.6130 C   0  0  2  0  0  3  0  0  0  0  0  0
  161.9560  210.3970  148.6500 C   0  0  0  0  0  2  0  0  0  0  0  0
  162.1530  212.3990  147.7420 C   0  0  0  0  0  1  0  0  0  0  0  0
  161.2050  211.4520  148.1270 O   0  0  0  0  0  0  0  0  0  0  0  0
  1 19  2  0  0  0  0
  1  4  1  0  0  0  0
  2 13  2  0  0  0  0
  2 19  1  0  0  0  0
  3 10  1  0  0  0  0
  4 20  2  0  0  0  0
  5  1  1  0  0  0  0
  7  9  1  0  0  0  0
  7 15  1  1  0  0  0
  8  6  1  6  0  0  0
  8 12  1  0  0  0  0
  9 14  1  1  0  0  0
 10 21  2  0  0  0  0
 11 28  1  6  0  0  0
 11  5  1  0  0  0  0
 11  8  1  0  0  0  0
 12  4  1  0  0  0  0
 12 27  1  0  0  0  0
 13 18  1  0  0  0  0
 14 23  1  0  0  0  0
 15 23  1  0  0  0  0
 16  2  1  0  0  0  0
 17  3  1  0  0  0  0
 18 25  2  0  0  0  0
 19 26  1  0  0  0  0
 20 17  1  0  0  0  0
 20 22  1  0  0  0  0
 22  9  1  0  0  0  0
 22 10  1  0  0  0  0
 26 25  1  0  0  0  0
 26 17  2  0  0  0  0
 27  7  1  0  0  0  0
 27 24  1  1  0  0  0
 29 30  1  0  0  0  0
 30 28  1  0  0  0  0
M  END
>  <MODEL>
4

>  <REMARK>
 VINA RESULT:      -6.1      2.444      5.702
  Name = 
  2 active torsions:
  status: ('A' for Active; 'I' for Inactive)
    1  A    between atoms: C_11  and  C_28
    2  A    between atoms: C_28  and  O_30
                            x       y       z     vdW  Elec       q    Type
                         _______ _______ _______ _____ _____    ______ ____

>  <TORSDO>
F 2

$$$$
=
 OpenBabel11122412403D

 30 35  0  0  1  0  0  0  0  0999 V2000
  161.4880  207.9120  151.0420 C   0  0  0  0  0  0  0  0  0  0  0  0
  161.0350  208.3920  153.4410 C   0  0  0  0  0  0  0  0  0  0  0  0
  160.9310  203.8780  151.6020 N   0  0  0  0  0  2  0  0  0  0  0  0
  161.5550  206.9870  149.9700 C   0  0  0  0  0  0  0  0  0  0  0  0
  161.7500  209.2560  150.7760 O   0  0  0  0  0  0  0  0  0  0  0  0
  162.7570  209.1130  147.2960 O   0  0  0  0  0  1  0  0  0  0  0  0
  162.2850  205.5510  147.2730 C   0  0  1  0  0  3  0  0  0  0  0  0
  161.8850  208.9320  148.3730 C   0  0  2  0  0  3  0  0  0  0  0  0
  162.0520  204.3190  148.1380 C   0  0  2  0  0  3  0  0  0  0  0  0
  161.2060  203.4960  150.3370 C   0  0  0  0  0  0  0  0  0  0  0  0
  162.4420  209.6540  149.5990 C   0  0  1  0  0  3  0  0  0  0  0  0
  161.6890  207.4970  148.6250 N   0  0  0  0  0  0  0  0  0  0  0  0
  160.7020  207.9210  154.7140 C   0  0  0  0  0  3  0  0  0  0  0  0
  161.2260  203.3770  147.2850 C   0  0  0  0  0  2  0  0  0  0  0  0
  162.2000  205.0670  145.8350 C   0  0  0  0  0  2  0  0  0  0  0  0
  161.2450  209.7560  153.2780 O   0  0  0  0  0  1  0  0  0  0  0  0
  161.0500  205.2140  151.5390 C   0  0  0  0  0  0  0  0  0  0  0  0
  160.4800  206.5620  154.9360 C   0  0  0  0  0  3  0  0  0  0  0  0
  161.1490  207.4880  152.3570 C   0  0  0  0  0  0  0  0  0  0  0  0
  161.3770  205.6190  150.2690 C   0  0  0  0  0  0  0  0  0  0  0  0
  161.2500  202.2830  149.9990 O   0  0  0  0  0  0  0  0  0  0  0  0
  161.4710  204.5190  149.4790 N   0  0  0  0  0  0  0  0  0  0  0  0
  161.6850  203.6370  145.8670 C   0  0  0  0  0  2  0  0  0  0  0  0
  159.5670  206.2440  147.5100 Cl  0  0  0  0  0  0  0  0  0  0  0  0
  160.5890  205.6570  153.8840 C   0  0  0  0  0  3  0  0  0  0  0  0
  160.9190  206.1070  152.6000 C   0  0  0  0  0  0  0  0  0  0  0  0
  161.3040  206.6940  147.4760 C   0  0  2  0  0  3  0  0  0  0  0  0
  162.3650  211.1650  149.4360 C   0  0  0  0  0  2  0  0  0  0  0  0
  161.5820  212.7960  148.1720 C   0  0  0  0  0  1  0  0  0  0  0  0
  161.2760  211.5180  148.6360 O   0  0  0  0  0  0  0  0  0  0  0  0
  1 19  1  0  0  0  0
  2 13  1  0  0  0  0
  4 20  1  0  0  0  0
  4  1  2  0  0  0  0
  5  1  1  0  0  0  0
  7 15  1  6  0  0  0
  7 27  1  0  0  0  0
  7  9  1  0  0  0  0
  8  6  1  6  0  0  0
  8 12  1  0  0  0  0
  8 11  1  0  0  0  0
  9 14  1  6  0  0  0
  9 22  1  0  0  0  0
 10  3  1  0  0  0  0
 11 28  1  6  0  0  0
 11  5  1  0  0  0  0
 12  4  1  0  0  0  0
 13 18  2  0  0  0  0
 15 23  1  0  0  0  0
 16  2  1  0  0  0  0
 17  3  1  0  0  0  0
 17 26  1  0  0  0  0
 19 26  1  0  0  0  0
 19  2  2  0  0  0  0
 20 17  2  0  0  0  0
 21 10  2  0  0  0  0
 22 20  1  0  0  0  0
 22 10  1  0  0  0  0
 23 14  1  0  0  0  0
 25 18  1  0  0  0  0
 26 25  2  0  0  0  0
 27 24  1  1  0  0  0
 27 12  1  0  0  0  0
 29 30  1  0  0  0  0
 30 28  1  0  0  0  0
M  END
>  <MODEL>
5

>  <REMARK>
 VINA RESULT:      -5.8      1.072      1.387
  Name = 
  2 active torsions:
  status: ('A' for Active; 'I' for Inactive)
    1  A    between atoms: C_11  and  C_28
    2  A    between atoms: C_28  and  O_30
                            x       y       z     vdW  Elec       q    Type
                         _______ _______ _______ _____ _____    ______ ____

>  <TORSDO>
F 2

$$$$
=
 OpenBabel11122412403D

 30 35  0  0  1  0  0  0  0  0999 V2000
  161.7270  206.5110  148.4030 C   0  0  0  0  0  0  0  0  0  0  0  0
  161.8760  205.3950  146.1840 C   0  0  0  0  0  0  0  0  0  0  0  0
  160.6650  202.9970  150.2520 N   0  0  0  0  0  2  0  0  0  0  0  0
  161.5260  206.4280  149.8030 C   0  0  0  0  0  0  0  0  0  0  0  0
  162.0260  207.7550  147.8470 O   0  0  0  0  0  0  0  0  0  0  0  0
  161.6930  209.9250  150.7330 O   0  0  0  0  0  1  0  0  0  0  0  0
  160.8310  207.1080  152.7900 C   0  0  1  0  0  3  0  0  0  0  0  0
  162.2260  208.8600  150.0010 C   0  0  2  0  0  3  0  0  0  0  0  0
  160.4370  205.6360  152.7880 C   0  0  2  0  0  3  0  0  0  0  0  0
  160.5060  203.5040  151.4930 C   0  0  0  0  0  0  0  0  0  0  0  0
  161.7560  208.9610  148.5500 C   0  0  1  0  0  3  0  0  0  0  0  0
  161.8360  207.5830  150.6150 N   0  0  0  0  0  0  0  0  0  0  0  0
  161.7750  204.2280  145.4210 C   0  0  0  0  0  3  0  0  0  0  0  0
  161.0040  205.0630  154.0710 C   0  0  0  0  0  2  0  0  0  0  0  0
  160.9970  207.4870  154.2530 C   0  0  0  0  0  2  0  0  0  0  0  0
  162.2110  206.5780  145.5360 O   0  0  0  0  0  1  0  0  0  0  0  0
  161.0540  204.0680  149.5430 C   0  0  0  0  0  0  0  0  0  0  0  0
  161.4420  203.0120  146.0190 C   0  0  0  0  0  3  0  0  0  0  0  0
  161.6410  205.3540  147.5800 C   0  0  0  0  0  0  0  0  0  0  0  0
  161.1360  205.1820  150.3400 C   0  0  0  0  0  0  0  0  0  0  0  0
  160.0860  202.8040  152.4530 O   0  0  0  0  0  0  0  0  0  0  0  0
  160.7940  204.8300  151.6060 N   0  0  0  0  0  0  0  0  0  0  0  0
  160.9400  206.2030  155.0650 C   0  0  0  0  0  2  0  0  0  0  0  0
  163.5220  206.3970  152.3660 Cl  0  0  0  0  0  0  0  0  0  0  0  0
  161.2060  202.9510  147.3900 C   0  0  0  0  0  3  0  0  0  0  0  0
  161.3040  204.1070  148.1730 C   0  0  0  0  0  0  0  0  0  0  0  0
  162.1060  207.4490  152.0370 C   0  0  2  0  0  3  0  0  0  0  0  0
  162.4060  210.1370  147.8360 C   0  0  0  0  0  2  0  0  0  0  0  0
  162.4340  212.3130  148.2050 C   0  0  0  0  0  1  0  0  0  0  0  0
  161.5780  211.2610  147.8850 O   0  0  0  0  0  0  0  0  0  0  0  0
  1  4  1  0  0  0  0
  2 19  1  0  0  0  0
  3 10  1  0  0  0  0
  4 20  2  0  0  0  0
  4 12  1  0  0  0  0
  5  1  1  0  0  0  0
  5 11  1  0  0  0  0
  7 15  1  1  0  0  0
  8 12  1  0  0  0  0
  8  6  1  1  0  0  0
  9  7  1  0  0  0  0
  9 14  1  1  0  0  0
 10 22  1  0  0  0  0
 10 21  2  0  0  0  0
 11 28  1  6  0  0  0
 11  8  1  0  0  0  0
 12 27  1  0  0  0  0
 13 18  1  0  0  0  0
 13  2  2  0  0  0  0
 14 23  1  0  0  0  0
 15 23  1  0  0  0  0
 16  2  1  0  0  0  0
 17  3  1  0  0  0  0
 17 20  1  0  0  0  0
 18 25  2  0  0  0  0
 19 26  1  0  0  0  0
 19  1  2  0  0  0  0
 20 22  1  0  0  0  0
 22  9  1  0  0  0  0
 25 26  1  0  0  0  0
 26 17  2  0  0  0  0
 27 24  1  6  0  0  0
 27  7  1  0  0  0  0
 28 30  1  0  0  0  0
 30 29  1  0  0  0  0
M  END
>  <MODEL>
6

>  <REMARK>
 VINA RESULT:      -5.1      1.623      5.441
  Name = 
  2 active torsions:
  status: ('A' for Active; 'I' for Inactive)
    1  A    between atoms: C_11  and  C_28
    2  A    between atoms: C_28  and  O_30
                            x       y       z     vdW  Elec       q    Type
                         _______ _______ _______ _____ _____    ______ ____

>  <TORSDO>
F 2

$$$$
=
 OpenBabel11122412403D

 30 35  0  0  1  0  0  0  0  0999 V2000
  161.4360  205.7750  150.1600 C   0  0  0  0  0  0  0  0  0  0  0  0
  161.1050  204.8810  152.4580 C   0  0  0  0  0  0  0  0  0  0  0  0
  160.8750  202.0640  148.4860 N   0  0  0  0  0  2  0  0  0  0  0  0
  161.4430  205.5740  148.7570 C   0  0  0  0  0  0  0  0  0  0  0  0
  161.6950  207.0570  150.6480 O   0  0  0  0  0  0  0  0  0  0  0  0
  162.5300  208.8280  147.5960 O   0  0  0  0  0  1  0  0  0  0  0  0
  162.0290  205.8280  145.6820 C   0  0  1  0  0  3  0  0  0  0  0  0
  161.7090  208.0790  148.4440 C   0  0  2  0  0  3  0  0  0  0  0  0
  161.8290  204.3200  145.7570 C   0  0  2  0  0  3  0  0  0  0  0  0
  161.0850  202.4270  147.2030 C   0  0  0  0  0  0  0  0  0  0  0  0
  162.3310  208.0390  149.8400 C   0  0  1  0  0  3  0  0  0  0  0  0
  161.5150  206.7300  147.8930 N   0  0  0  0  0  0  0  0  0  0  0  0
  160.8310  203.7930  153.2920 C   0  0  0  0  0  3  0  0  0  0  0  0
  160.9550  203.9680  144.5700 C   0  0  0  0  0  2  0  0  0  0  0  0
  161.8690  206.1930  144.2150 C   0  0  0  0  0  2  0  0  0  0  0  0
  161.3180  206.1230  153.0450 O   0  0  0  0  0  1  0  0  0  0  0  0
  161.0020  203.2260  149.1470 C   0  0  0  0  0  0  0  0  0  0  0  0
  160.6100  202.5240  152.7570 C   0  0  0  0  0  3  0  0  0  0  0  0
  161.1590  204.7040  151.0540 C   0  0  0  0  0  0  0  0  0  0  0  0
  161.2690  204.2570  148.2810 C   0  0  0  0  0  0  0  0  0  0  0  0
  161.1030  201.5870  146.2640 O   0  0  0  0  0  0  0  0  0  0  0  0
  161.3160  203.7560  147.0190 N   0  0  0  0  0  0  0  0  0  0  0  0
  161.3460  204.9600  143.4950 C   0  0  0  0  0  2  0  0  0  0  0  0
  159.3310  206.2310  146.3780 Cl  0  0  0  0  0  0  0  0  0  0  0  0
  160.6600  202.3290  151.3790 C   0  0  0  0  0  3  0  0  0  0  0  0
  160.9300  203.4050  150.5260 C   0  0  0  0  0  0  0  0  0  0  0  0
  161.0670  206.6630  146.5120 C   0  0  2  0  0  3  0  0  0  0  0  0
  162.2580  209.3990  150.5190 C   0  0  0  0  0  2  0  0  0  0  0  0
  161.1800  209.9900  152.3520 C   0  0  0  0  0  1  0  0  0  0  0  0
  162.2790  209.2560  151.9080 O   0  0  0  0  0  0  0  0  0  0  0  0
  1  5  1  0  0  0  0
  1 19  1  0  0  0  0
  2 16  1  0  0  0  0
  2 13  1  0  0  0  0
  3 17  1  0  0  0  0
  4  1  2  0  0  0  0
  7 15  1  6  0  0  0
  7  9  1  0  0  0  0
  7 27  1  0  0  0  0
  8  6  1  6  0  0  0
  8 11  1  0  0  0  0
  9 14  1  6  0  0  0
  9 22  1  0  0  0  0
 10  3  1  0  0  0  0
 11 28  1  1  0  0  0
 11  5  1  0  0  0  0
 12  8  1  0  0  0  0
 12  4  1  0  0  0  0
 17 26  1  0  0  0  0
 18 13  2  0  0  0  0
 19  2  2  0  0  0  0
 20  4  1  0  0  0  0
 20 17  2  0  0  0  0
 21 10  2  0  0  0  0
 22 10  1  0  0  0  0
 22 20  1  0  0  0  0
 23 15  1  0  0  0  0
 23 14  1  0  0  0  0
 25 18  1  0  0  0  0
 26 19  1  0  0  0  0
 26 25  2  0  0  0  0
 27 24  1  1  0  0  0
 27 12  1  0  0  0  0
 28 30  1  0  0  0  0
 30 29  1  0  0  0  0
M  END
>  <MODEL>
7

>  <REMARK>
 VINA RESULT:      -4.6      2.393      4.185
  Name = 
  2 active torsions:
  status: ('A' for Active; 'I' for Inactive)
    1  A    between atoms: C_11  and  C_28
    2  A    between atoms: C_28  and  O_30
                            x       y       z     vdW  Elec       q    Type
                         _______ _______ _______ _____ _____    ______ ____

>  <TORSDO>
F 2

$$$$
=
 OpenBabel11122412403D

 30 35  0  0  1  0  0  0  0  0999 V2000
  161.1580  210.2430  150.9850 C   0  0  0  0  0  0  0  0  0  0  0  0
  161.9540  209.8710  148.6570 C   0  0  0  0  0  0  0  0  0  0  0  0
  161.7620  206.2980  151.9690 N   0  0  0  0  0  2  0  0  0  0  0  0
  160.9320  209.7520  152.2940 C   0  0  0  0  0  0  0  0  0  0  0  0
  160.8700  211.5830  150.7200 O   0  0  0  0  0  0  0  0  0  0  0  0
  159.3730  212.6250  153.8530 O   0  0  0  0  0  1  0  0  0  0  0  0
  159.8120  209.3220  155.1970 C   0  0  1  0  0  3  0  0  0  0  0  0
  160.3900  212.1160  153.0400 C   0  0  2  0  0  3  0  0  0  0  0  0
  160.1580  207.8770  154.8650 C   0  0  2  0  0  3  0  0  0  0  0  0
  161.3050  206.3730  153.2370 C   0  0  0  0  0  0  0  0  0  0  0  0
  160.0200  212.3370  151.5730 C   0  0  1  0  0  3  0  0  0  0  0  0
  160.6100  210.6940  153.3410 N   0  0  0  0  0  0  0  0  0  0  0  0
  162.4640  208.9990  147.6900 C   0  0  0  0  0  3  0  0  0  0  0  0
  160.8460  207.3310  156.1000 C   0  0  0  0  0  2  0  0  0  0  0  0
  159.6860  209.3780  156.7110 C   0  0  0  0  0  2  0  0  0  0  0  0
  161.7330  211.1950  148.2970 O   0  0  0  0  0  1  0  0  0  0  0  0
  161.6440  207.5650  151.5380 C   0  0  0  0  0  0  0  0  0  0  0  0
  162.7050  207.6600  147.9960 C   0  0  0  0  0  3  0  0  0  0  0  0
  161.6800  209.4010  149.9640 C   0  0  0  0  0  0  0  0  0  0  0  0
  161.1410  208.3750  152.5260 C   0  0  0  0  0  0  0  0  0  0  0  0
  161.2040  205.3540  153.9720 O   0  0  0  0  0  0  0  0  0  0  0  0
  160.9270  207.6190  153.6330 N   0  0  0  0  0  0  0  0  0  0  0  0
  160.1900  208.0520  157.2580 C   0  0  0  0  0  2  0  0  0  0  0  0
  162.5410  210.0070  155.1050 Cl  0  0  0  0  0  0  0  0  0  0  0  0
  162.4400  207.1770  149.2750 C   0  0  0  0  0  3  0  0  0  0  0  0
  161.9330  208.0330  150.2590 C   0  0  0  0  0  0  0  0  0  0  0  0
  160.8200  210.3630  154.7410 C   0  0  2  0  0  3  0  0  0  0  0  0
  160.0830  213.8110  151.2010 C   0  0  0  0  0  2  0  0  0  0  0  0
  158.0070  213.5040  150.5180 C   0  0  0  0  0  1  0  0  0  0  0  0
  159.2160  214.0880  150.1420 O   0  0  0  0  0  0  0  0  0  0  0  0
  1  4  1  0  0  0  0
  2 19  1  0  0  0  0
  3 10  1  0  0  0  0
  4 20  2  0  0  0  0
  4 12  1  0  0  0  0
  5  1  1  0  0  0  0
  5 11  1  0  0  0  0
  7 15  1  1  0  0  0
  8 12  1  0  0  0  0
  8  6  1  1  0  0  0
  9  7  1  0  0  0  0
  9 14  1  1  0  0  0
 10 22  1  0  0  0  0
 10 21  2  0  0  0  0
 11 28  1  6  0  0  0
 11  8  1  0  0  0  0
 12 27  1  0  0  0  0
 13 18  1  0  0  0  0
 13  2  2  0  0  0  0
 14 23  1  0  0  0  0
 15 23  1  0  0  0  0
 16  2  1  0  0  0  0
 17  3  1  0  0  0  0
 17 20  1  0  0  0  0
 18 25  2  0  0  0  0
 19 26  1  0  0  0  0
 19  1  2  0  0  0  0
 20 22  1  0  0  0  0
 22  9  1  0  0  0  0
 25 26  1  0  0  0  0
 26 17  2  0  0  0  0
 27 24  1  6  0  0  0
 27  7  1  0  0  0  0
 30 29  1  0  0  0  0
 30 28  1  0  0  0  0
M  END
>  <MODEL>
8

>  <REMARK>
 VINA RESULT:      -4.6      2.698      5.812
  Name = 
  2 active torsions:
  status: ('A' for Active; 'I' for Inactive)
    1  A    between atoms: C_11  and  C_28
    2  A    between atoms: C_28  and  O_30
                            x       y       z     vdW  Elec       q    Type
                         _______ _______ _______ _____ _____    ______ ____

>  <TORSDO>
F 2

$$$$
=
 OpenBabel11122412403D

 30 35  0  0  1  0  0  0  0  0999 V2000
  161.2060  203.7530  147.6290 C   0  0  0  0  0  0  0  0  0  0  0  0
  161.0700  203.9910  145.1560 C   0  0  0  0  0  0  0  0  0  0  0  0
  161.4270  207.8250  148.1460 N   0  0  0  0  0  2  0  0  0  0  0  0
  161.2530  204.3470  148.9150 C   0  0  0  0  0  0  0  0  0  0  0  0
  161.1930  202.3610  147.5410 O   0  0  0  0  0  0  0  0  0  0  0  0
  161.6390  201.4210  151.0140 O   0  0  0  0  0  1  0  0  0  0  0  0
  161.7700  204.8830  151.9660 C   0  0  1  0  0  3  0  0  0  0  0  0
  160.9930  202.0400  149.9400 C   0  0  2  0  0  3  0  0  0  0  0  0
  161.8880  206.3130  151.4550 C   0  0  2  0  0  3  0  0  0  0  0  0
  161.5550  207.8150  149.4890 C   0  0  0  0  0  0  0  0  0  0  0  0
  161.6110  201.5490  148.6310 C   0  0  1  0  0  3  0  0  0  0  0  0
  161.0820  203.5010  150.0740 N   0  0  0  0  0  0  0  0  0  0  0  0
  161.0280  204.8220  144.0330 C   0  0  0  0  0  3  0  0  0  0  0  0
  161.1050  207.1610  152.4380 C   0  0  0  0  0  2  0  0  0  0  0  0
  161.5370  204.9990  153.4640 C   0  0  0  0  0  2  0  0  0  0  0  0
  161.0200  202.6160  144.9590 O   0  0  0  0  0  1  0  0  0  0  0  0
  161.3100  206.5200  147.8500 C   0  0  0  0  0  0  0  0  0  0  0  0
  161.0750  206.2090  144.1720 C   0  0  0  0  0  3  0  0  0  0  0  0
  161.1570  204.5520  146.4530 C   0  0  0  0  0  0  0  0  0  0  0  0
  161.3560  205.7530  148.9870 C   0  0  0  0  0  0  0  0  0  0  0  0
  161.7470  208.8700  150.1510 O   0  0  0  0  0  0  0  0  0  0  0  0
  161.5050  206.5780  150.0550 N   0  0  0  0  0  0  0  0  0  0  0  0
  161.2810  206.4660  153.7710 C   0  0  0  0  0  2  0  0  0  0  0  0
  159.0480  204.8400  151.2490 Cl  0  0  0  0  0  0  0  0  0  0  0  0
  161.1630  206.7810  145.4390 C   0  0  0  0  0  3  0  0  0  0  0  0
  161.2030  205.9670  146.5760 C   0  0  0  0  0  0  0  0  0  0  0  0
  160.6570  204.0520  151.3500 C   0  0  2  0  0  3  0  0  0  0  0  0
  161.2570  200.0940  148.3610 C   0  0  0  0  0  2  0  0  0  0  0  0
  161.1100  199.4960  146.2420 C   0  0  0  0  0  1  0  0  0  0  0  0
  162.0130  199.5930  147.2990 O   0  0  0  0  0  0  0  0  0  0  0  0
  1  4  1  0  0  0  0
  2 19  1  0  0  0  0
  3 10  1  0  0  0  0
  4 20  2  0  0  0  0
  4 12  1  0  0  0  0
  5  1  1  0  0  0  0
  5 11  1  0  0  0  0
  7 15  1  1  0  0  0
  8 12  1  0  0  0  0
  8  6  1  1  0  0  0
  9  7  1  0  0  0  0
  9 14  1  1  0  0  0
 10 22  1  0  0  0  0
 10 21  2  0  0  0  0
 11 28  1  6  0  0  0
 11  8  1  0  0  0  0
 12 27  1  0  0  0  0
 13 18  1  0  0  0  0
 13  2  2  0  0  0  0
 14 23  1  0  0  0  0
 15 23  1  0  0  0  0
 16  2  1  0  0  0  0
 17  3  1  0  0  0  0
 17 20  1  0  0  0  0
 18 25  2  0  0  0  0
 19 26  1  0  0  0  0
 19  1  2  0  0  0  0
 20 22  1  0  0  0  0
 22  9  1  0  0  0  0
 25 26  1  0  0  0  0
 26 17  2  0  0  0  0
 27 24  1  6  0  0  0
 27  7  1  0  0  0  0
 29 30  1  0  0  0  0
 30 28  1  0  0  0  0
M  END
>  <MODEL>
9

>  <REMARK>
 VINA RESULT:      -4.5      2.653      7.766
  Name = 
  2 active torsions:
  status: ('A' for Active; 'I' for Inactive)
    1  A    between atoms: C_11  and  C_28
    2  A    between atoms: C_28  and  O_30
                            x       y       z     vdW  Elec       q    Type
                         _______ _______ _______ _____ _____    ______ ____

>  <TORSDO>
F 2

$$$$
