=
 OpenBabel11122414133D

 28 32  0  0  1  0  0  0  0  0999 V2000
  161.0290  208.3680  155.6060 C   0  0  2  0  0  3  0  0  0  0  0  0
  156.8570  210.3290  154.2850 O   0  0  0  0  0  1  0  0  0  0  0  0
  162.3160  211.2680  150.3700 O   0  0  0  0  0  0  0  0  0  0  0  0
  162.5020  210.7030  156.4590 C   0  0  0  0  0  3  0  0  0  0  0  0
  160.2200  211.9180  151.2130 N   0  0  0  0  0  0  0  0  0  0  0  0
  160.6700  206.8350  154.6690 S   0  0  0  0  0  0  0  0  0  0  0  0
  157.8220  210.1980  156.4460 C   0  0  0  0  0  1  0  0  0  0  0  0
  157.6840  211.0170  155.1760 C   0  0  1  0  0  0  0  0  0  0  0  0
  157.3990  213.5330  154.6500 C   0  0  2  0  0  3  0  0  0  0  0  0
  159.0760  211.2440  154.5480 C   0  0  2  0  0  3  0  0  0  0  0  0
  160.7710  206.2310  150.9830 C   0  0  0  0  0  1  0  0  0  0  0  0
  159.7440  209.9910  152.5270 C   0  0  1  0  0  3  0  0  0  0  0  0
  157.8120  213.0730  153.2590 C   0  0  0  0  0  2  0  0  0  0  0  0
  157.0130  212.3490  155.5470 C   0  0  0  0  0  2  0  0  0  0  0  0
  160.9110  207.4330  151.8920 C   0  0  2  0  0  3  0  0  0  0  0  0
  161.0750  209.6170  154.7120 C   0  0  2  0  0  3  0  0  0  0  0  0
  161.3100  211.0290  151.0890 C   0  0  0  0  0  0  0  0  0  0  0  0
  156.2820  214.4530  154.5510 N   0  0  0  0  0  1  0  0  0  0  0  0
  161.2480  208.6130  151.0960 N   0  0  0  0  0  2  0  0  0  0  0  0
  161.7960  210.8000  155.3240 C   0  0  0  0  0  3  0  0  0  0  0  0
  162.3360  208.2080  156.3750 C   0  0  0  0  0  2  0  0  0  0  0  0
  162.5560  209.4300  157.2600 C   0  0  0  0  0  2  0  0  0  0  0  0
  162.1720  207.0900  153.1640 S   0  0  0  0  0  0  0  0  0  0  0  0
  159.2070  211.3600  152.0890 C   0  0  1  0  0  3  0  0  0  0  0  0
  161.1560  209.8180  151.9190 C   0  0  2  0  0  3  0  0  0  0  0  0
  159.0660  212.2030  153.3460 C   0  0  2  0  0  3  0  0  0  0  0  0
  160.0560  213.1400  150.4420 C   0  0  0  0  0  1  0  0  0  0  0  0
  159.7140  209.9430  154.0610 C   0  0  1  0  0  3  0  0  0  0  0  0
  1 21  1  6  0  0  0
  2  8  1  0  0  0  0
  3 17  2  0  0  0  0
  4 22  1  0  0  0  0
  5 24  1  0  0  0  0
  6  1  1  0  0  0  0
  8 14  1  0  0  0  0
  8  7  1  1  0  0  0
  9 18  1  6  0  0  0
  9 14  1  0  0  0  0
 10  8  1  0  0  0  0
 11 15  1  0  0  0  0
 12 28  1  0  0  0  0
 13 26  1  0  0  0  0
 13  9  1  0  0  0  0
 15 23  1  0  0  0  0
 16 20  1  0  0  0  0
 16  1  1  0  0  0  0
 17  5  1  0  0  0  0
 17 25  1  0  0  0  0
 19 15  1  0  0  0  0
 19 25  1  0  0  0  0
 20  4  2  0  0  0  0
 21 22  1  0  0  0  0
 23  6  1  0  0  0  0
 24 12  1  0  0  0  0
 24 26  1  0  0  0  0
 25 12  1  0  0  0  0
 26 10  1  0  0  0  0
 27  5  1  0  0  0  0
 28 10  1  0  0  0  0
 28 16  1  0  0  0  0
M  END
>  <MODEL>
1

>  <REMARK>
 VINA RESULT:      -2.0      0.000      0.000
  Name = 
  0 active torsions:
  status: ('A' for Active; 'I' for Inactive)
                            x       y       z     vdW  Elec       q    Type
                         _______ _______ _______ _____ _____    ______ ____

>  <TORSDO>
F 0

$$$$
=
 OpenBabel11122414133D

 28 32  0  0  1  0  0  0  0  0999 V2000
  160.9090  208.7790  156.0050 C   0  0  2  0  0  3  0  0  0  0  0  0
  157.8270  210.8540  152.9730 O   0  0  0  0  0  1  0  0  0  0  0  0
  163.4350  207.9550  150.4900 O   0  0  0  0  0  0  0  0  0  0  0  0
  163.0960  210.6660  155.9630 C   0  0  0  0  0  3  0  0  0  0  0  0
  161.6880  209.5260  150.4020 N   0  0  0  0  0  0  0  0  0  0  0  0
  160.0550  207.1640  155.8570 S   0  0  0  0  0  0  0  0  0  0  0  0
  158.5660  211.6110  155.0940 C   0  0  0  0  0  1  0  0  0  0  0  0
  158.8040  211.6340  153.5950 C   0  0  1  0  0  0  0  0  0  0  0  0
  159.4960  213.4470  151.8850 C   0  0  2  0  0  3  0  0  0  0  0  0
  160.2120  211.0810  153.2820 C   0  0  2  0  0  3  0  0  0  0  0  0
  160.1100  204.7050  153.0430 C   0  0  0  0  0  1  0  0  0  0  0  0
  160.4690  208.8200  152.3210 C   0  0  1  0  0  3  0  0  0  0  0  0
  159.7780  212.2250  151.0220 C   0  0  0  0  0  2  0  0  0  0  0  0
  158.6550  213.0880  153.1170 C   0  0  0  0  0  2  0  0  0  0  0  0
  160.6380  206.1050  153.2740 C   0  0  2  0  0  3  0  0  0  0  0  0
  161.4570  209.2900  154.6640 C   0  0  2  0  0  3  0  0  0  0  0  0
  162.3770  208.4360  150.9770 C   0  0  0  0  0  0  0  0  0  0  0  0
  158.8050  214.4530  151.1010 N   0  0  0  0  0  1  0  0  0  0  0  0
  161.4260  206.5280  152.1170 N   0  0  0  0  0  2  0  0  0  0  0  0
  162.5330  210.3490  154.7890 C   0  0  0  0  0  3  0  0  0  0  0  0
  162.0240  208.6790  157.0410 C   0  0  0  0  0  2  0  0  0  0  0  0
  162.6350  210.0580  157.2610 C   0  0  0  0  0  2  0  0  0  0  0  0
  161.6180  206.1380  154.8120 S   0  0  0  0  0  0  0  0  0  0  0  0
  160.4990  209.8360  151.1730 C   0  0  1  0  0  3  0  0  0  0  0  0
  161.7460  207.9510  152.2210 C   0  0  2  0  0  3  0  0  0  0  0  0
  160.6160  211.2140  151.8040 C   0  0  2  0  0  3  0  0  0  0  0  0
  162.0250  210.1420  149.1300 C   0  0  0  0  0  1  0  0  0  0  0  0
  160.3470  209.6000  153.6370 C   0  0  1  0  0  3  0  0  0  0  0  0
  1 21  1  1  0  0  0
  2  8  1  0  0  0  0
  3 17  2  0  0  0  0
  4 22  1  0  0  0  0
  5 17  1  0  0  0  0
  5 24  1  0  0  0  0
  6  1  1  0  0  0  0
  8  7  1  1  0  0  0
  9 18  1  6  0  0  0
  9 14  1  0  0  0  0
 10  8  1  0  0  0  0
 10 28  1  0  0  0  0
 11 15  1  0  0  0  0
 12 28  1  0  0  0  0
 13 26  1  0  0  0  0
 13  9  1  0  0  0  0
 14  8  1  0  0  0  0
 15 23  1  0  0  0  0
 16 20  1  0  0  0  0
 16  1  1  0  0  0  0
 17 25  1  0  0  0  0
 19 25  1  0  0  0  0
 19 15  1  0  0  0  0
 20  4  2  0  0  0  0
 21 22  1  0  0  0  0
 23  6  1  0  0  0  0
 24 26  1  0  0  0  0
 24 12  1  0  0  0  0
 25 12  1  0  0  0  0
 26 10  1  0  0  0  0
 27  5  1  0  0  0  0
 28 16  1  0  0  0  0
M  END
>  <MODEL>
2

>  <REMARK>
 VINA RESULT:      -0.0      1.700      2.309
  Name = 
  0 active torsions:
  status: ('A' for Active; 'I' for Inactive)
                            x       y       z     vdW  Elec       q    Type
                         _______ _______ _______ _____ _____    ______ ____

>  <TORSDO>
F 0

$$$$
=
 OpenBabel11122414133D

 28 32  0  0  1  0  0  0  0  0999 V2000
  161.1570  210.5730  156.1660 C   0  0  2  0  0  3  0  0  0  0  0  0
  158.9330  211.4760  152.0140 O   0  0  0  0  0  1  0  0  0  0  0  0
  162.7740  205.9100  152.5430 O   0  0  0  0  0  0  0  0  0  0  0  0
  163.9000  211.1600  155.4740 C   0  0  0  0  0  3  0  0  0  0  0  0
  161.7800  207.6450  151.3080 N   0  0  0  0  0  0  0  0  0  0  0  0
  159.7310  209.6000  156.7830 S   0  0  0  0  0  0  0  0  0  0  0  0
  160.0540  212.9830  153.4610 C   0  0  0  0  0  1  0  0  0  0  0  0
  160.1790  212.0580  152.2630 C   0  0  1  0  0  0  0  0  0  0  0  0
  161.4060  212.1730  149.9900 C   0  0  2  0  0  3  0  0  0  0  0  0
  161.2320  210.9670  152.5550 C   0  0  2  0  0  3  0  0  0  0  0  0
  158.6260  206.1570  155.8400 C   0  0  0  0  0  1  0  0  0  0  0  0
  160.5170  208.6550  153.0540 C   0  0  1  0  0  3  0  0  0  0  0  0
  161.1270  210.6770  150.0030 C   0  0  0  0  0  2  0  0  0  0  0  0
  160.5780  212.9130  151.0500 C   0  0  0  0  0  2  0  0  0  0  0  0
  159.6750  207.1340  155.3530 C   0  0  2  0  0  3  0  0  0  0  0  0
  161.7680  209.9880  154.8830 C   0  0  2  0  0  3  0  0  0  0  0  0
  162.0250  206.9210  152.4950 C   0  0  0  0  0  0  0  0  0  0  0  0
  161.1110  212.7150  148.6770 N   0  0  0  0  0  1  0  0  0  0  0  0
  160.4840  206.5040  154.3100 N   0  0  0  0  0  2  0  0  0  0  0  0
  163.1790  210.4570  154.5900 C   0  0  0  0  0  3  0  0  0  0  0  0
  162.2120  210.6910  157.2610 C   0  0  0  0  0  2  0  0  0  0  0  0
  163.3280  211.6170  156.7890 C   0  0  0  0  0  2  0  0  0  0  0  0
  160.6930  207.6860  156.7610 S   0  0  0  0  0  0  0  0  0  0  0  0
  160.8630  208.7400  151.5620 C   0  0  1  0  0  3  0  0  0  0  0  0
  161.3410  207.5000  153.6690 C   0  0  2  0  0  3  0  0  0  0  0  0
  161.5540  210.0760  151.3430 C   0  0  2  0  0  3  0  0  0  0  0  0
  162.2430  207.2520  149.9870 C   0  0  0  0  0  1  0  0  0  0  0  0
  160.8010  210.0280  153.6810 C   0  0  1  0  0  3  0  0  0  0  0  0
  1  6  1  0  0  0  0
  1 21  1  1  0  0  0
  2  8  1  0  0  0  0
  4 22  1  0  0  0  0
  5 24  1  0  0  0  0
  5 17  1  0  0  0  0
  8 10  1  0  0  0  0
  8  7  1  1  0  0  0
  9 18  1  6  0  0  0
  9 13  1  0  0  0  0
  9 14  1  0  0  0  0
 10 28  1  0  0  0  0
 12 25  1  0  0  0  0
 12 28  1  0  0  0  0
 13 26  1  0  0  0  0
 14  8  1  0  0  0  0
 15 11  1  0  0  0  0
 15 23  1  0  0  0  0
 16  1  1  0  0  0  0
 17  3  2  0  0  0  0
 17 25  1  0  0  0  0
 19 15  1  0  0  0  0
 20 16  1  0  0  0  0
 20  4  2  0  0  0  0
 22 21  1  0  0  0  0
 23  6  1  0  0  0  0
 24 12  1  0  0  0  0
 25 19  1  0  0  0  0
 26 24  1  0  0  0  0
 26 10  1  0  0  0  0
 27  5  1  0  0  0  0
 28 16  1  0  0  0  0
M  END
>  <MODEL>
3

>  <REMARK>
 VINA RESULT:       0.6      2.676      4.132
  Name = 
  0 active torsions:
  status: ('A' for Active; 'I' for Inactive)
                            x       y       z     vdW  Elec       q    Type
                         _______ _______ _______ _____ _____    ______ ____

>  <TORSDO>
F 0

$$$$
