=
 OpenBabel11122413143D

 31 35  0  0  1  0  0  0  0  0999 V2000
  157.0160  212.9660  155.8360 C   0  0  0  0  0  0  0  0  0  0  0  0
  160.4750  211.6950  154.9200 C   0  0  2  0  0  3  0  0  0  0  0  0
  160.7570  210.6750  156.0370 C   0  0  1  0  0  3  0  0  0  0  0  0
  160.4630  208.3190  156.8700 C   0  0  1  0  0  3  0  0  0  0  0  0
  159.0080  212.0270  154.8150 C   0  0  0  0  0  0  0  0  0  0  0  0
  156.2600  212.5810  154.7260 C   0  0  0  0  0  3  0  0  0  0  0  0
  160.1030  209.3110  155.7710 C   0  0  0  0  0  2  0  0  0  0  0  0
  160.2040  210.3330  152.8010 C   0  0  2  0  0  3  0  0  0  0  0  0
  156.3640  213.6670  156.9730 C   0  0  0  0  0  1  0  0  0  0  0  0
  163.0160  210.3400  154.9310 C   0  0  0  0  0  3  0  0  0  0  0  0
  159.8160  206.9840  156.5720 C   0  0  0  0  0  1  0  0  0  0  0  0
  158.8730  211.0120  152.4880 C   0  0  0  0  0  2  0  0  0  0  0  0
  161.1200  211.2950  153.5690 C   0  0  2  0  0  3  0  0  0  0  0  0
  158.3840  212.6880  155.8800 C   0  0  0  0  0  3  0  0  0  0  0  0
  161.9750  208.1470  156.9380 C   0  0  0  0  0  2  0  0  0  0  0  0
  158.2410  211.6320  153.6970 C   0  0  0  0  0  0  0  0  0  0  0  0
  156.8730  211.9230  153.6580 C   0  0  0  0  0  3  0  0  0  0  0  0
  162.5090  210.7120  153.7470 C   0  0  0  0  0  3  0  0  0  0  0  0
  162.2780  210.5520  156.2280 C   0  0  2  0  0  3  0  0  0  0  0  0
  162.6400  209.4840  157.2610 C   0  0  0  0  0  2  0  0  0  0  0  0
  160.8370  209.8570  151.4980 C   0  0  0  0  0  2  0  0  0  0  0  0
  161.3860  207.8460  152.5850 O   0  0  0  0  0  0  0  0  0  0  0  0
  161.0530  208.3810  151.5390 C   0  0  0  0  0  0  0  0  0  0  0  0
  162.0200  206.1090  148.0920 C   0  0  1  0  0  3  0  0  0  0  0  0
  161.6320  208.2070  149.1280 C   0  0  0  0  0  2  0  0  0  0  0  0
  160.5180  205.4880  151.4370 O   0  0  0  0  0  1  0  0  0  0  0  0
  161.9430  205.3360  146.7930 C   0  0  0  0  0  1  0  0  0  0  0  0
  161.4300  207.4320  147.9060 N   0  0  0  0  0  2  0  0  0  0  0  0
  161.3290  206.1200  150.4930 C   0  0  2  0  0  3  0  0  0  0  0  0
  160.8690  207.5680  150.2900 C   0  0  1  0  0  3  0  0  0  0  0  0
  161.2610  205.3500  149.1780 C   0  0  0  0  0  2  0  0  0  0  0  0
  1 14  1  0  0  0  0
  1  9  1  0  0  0  0
  2  5  1  6  0  0  0
  2  3  1  0  0  0  0
  3  7  1  6  0  0  0
  3 19  1  0  0  0  0
  4 11  1  6  0  0  0
  4 15  1  0  0  0  0
  5 14  2  0  0  0  0
  6  1  2  0  0  0  0
  7  4  1  0  0  0  0
  8 21  1  6  0  0  0
  8 13  1  0  0  0  0
 12  8  1  0  0  0  0
 12 16  1  0  0  0  0
 13 18  1  1  0  0  0
 13  2  1  0  0  0  0
 15 20  1  0  0  0  0
 16  5  1  0  0  0  0
 17 16  2  0  0  0  0
 17  6  1  0  0  0  0
 18 10  2  0  0  0  0
 19 10  1  6  0  0  0
 19 20  1  0  0  0  0
 21 23  1  0  0  0  0
 23 22  2  0  0  0  0
 24 27  1  6  0  0  0
 24 31  1  0  0  0  0
 25 30  1  0  0  0  0
 28 24  1  0  0  0  0
 28 25  1  0  0  0  0
 29 26  1  1  0  0  0
 30 29  1  0  0  0  0
 30 23  1  1  0  0  0
 31 29  1  0  0  0  0
M  END
>  <MODEL>
1

>  <REMARK>
 VINA RESULT:      -6.2      0.000      0.000
  Name = 
  3 active torsions:
  status: ('A' for Active; 'I' for Inactive)
    1  A    between atoms: C_5  and  C_16
    2  A    between atoms: C_5  and  C_30
    3  A    between atoms: C_10  and  C_16
                            x       y       z     vdW  Elec       q    Type
                         _______ _______ _______ _____ _____    ______ ____

>  <TORSDO>
F 3

$$$$
=
 OpenBabel11122413143D

 31 35  0  0  1  0  0  0  0  0999 V2000
  161.7150  206.8170  151.5850 C   0  0  0  0  0  0  0  0  0  0  0  0
  159.7890  209.5220  153.4270 C   0  0  2  0  0  3  0  0  0  0  0  0
  160.4350  209.4940  154.8230 C   0  0  1  0  0  3  0  0  0  0  0  0
  162.3180  210.2810  156.2940 C   0  0  1  0  0  3  0  0  0  0  0  0
  160.6500  208.8440  152.3910 C   0  0  0  0  0  0  0  0  0  0  0  0
  162.3240  207.5410  150.5570 C   0  0  0  0  0  3  0  0  0  0  0  0
  161.7500  210.2860  154.8810 C   0  0  0  0  0  2  0  0  0  0  0  0
  160.4820  211.7300  152.3940 C   0  0  2  0  0  3  0  0  0  0  0  0
  161.9560  205.3560  151.7090 C   0  0  0  0  0  1  0  0  0  0  0  0
  158.7680  211.3010  155.4480 C   0  0  0  0  0  3  0  0  0  0  0  0
  163.6040  211.0790  156.3210 C   0  0  0  0  0  1  0  0  0  0  0  0
  160.9810  211.0280  151.1330 C   0  0  0  0  0  2  0  0  0  0  0  0
  159.3210  210.9400  153.0130 C   0  0  2  0  0  3  0  0  0  0  0  0
  160.8820  207.4670  152.4980 C   0  0  0  0  0  3  0  0  0  0  0  0
  161.3150  210.9020  157.2570 C   0  0  0  0  0  2  0  0  0  0  0  0
  161.2730  209.5750  151.3560 C   0  0  0  0  0  0  0  0  0  0  0  0
  162.0970  208.9130  150.4400 C   0  0  0  0  0  3  0  0  0  0  0  0
  158.6930  211.6960  154.1690 C   0  0  0  0  0  3  0  0  0  0  0  0
  159.4160  210.0030  155.8550 C   0  0  2  0  0  3  0  0  0  0  0  0
  160.0190  210.0930  157.2580 C   0  0  0  0  0  2  0  0  0  0  0  0
  160.0810  213.1570  152.0420 C   0  0  0  0  0  2  0  0  0  0  0  0
  158.1130  212.5790  150.8910 O   0  0  0  0  0  0  0  0  0  0  0  0
  159.1870  213.1610  150.8470 C   0  0  0  0  0  0  0  0  0  0  0  0
  160.4400  213.7570  146.8410 C   0  0  1  0  0  3  0  0  0  0  0  0
  160.9600  213.3160  149.1120 C   0  0  0  0  0  2  0  0  0  0  0  0
  157.3940  214.4070  148.8720 O   0  0  0  0  0  1  0  0  0  0  0  0
  160.9430  214.3710  145.5510 C   0  0  0  0  0  1  0  0  0  0  0  0
  161.3960  214.0270  147.9120 N   0  0  0  0  0  2  0  0  0  0  0  0
  158.5660  213.7490  148.4910 C   0  0  2  0  0  3  0  0  0  0  0  0
  159.6200  213.8710  149.5970 C   0  0  1  0  0  3  0  0  0  0  0  0
  159.0820  214.3590  147.1920 C   0  0  0  0  0  2  0  0  0  0  0  0
  1  9  1  0  0  0  0
  1 14  1  0  0  0  0
  2  5  1  6  0  0  0
  2  3  1  0  0  0  0
  3  7  1  6  0  0  0
  3 19  1  0  0  0  0
  4 11  1  6  0  0  0
  4 15  1  0  0  0  0
  5 14  2  0  0  0  0
  6  1  2  0  0  0  0
  7  4  1  0  0  0  0
  8 21  1  6  0  0  0
  8 13  1  0  0  0  0
 12 16  1  0  0  0  0
 12  8  1  0  0  0  0
 13  2  1  0  0  0  0
 13 18  1  1  0  0  0
 15 20  1  0  0  0  0
 16  5  1  0  0  0  0
 17  6  1  0  0  0  0
 17 16  2  0  0  0  0
 18 10  2  0  0  0  0
 19 10  1  6  0  0  0
 19 20  1  0  0  0  0
 23 22  2  0  0  0  0
 23 21  1  0  0  0  0
 24 27  1  6  0  0  0
 24 31  1  0  0  0  0
 24 28  1  0  0  0  0
 25 30  1  0  0  0  0
 28 25  1  0  0  0  0
 29 26  1  1  0  0  0
 29 30  1  0  0  0  0
 30 23  1  1  0  0  0
 31 29  1  0  0  0  0
M  END
>  <MODEL>
2

>  <REMARK>
 VINA RESULT:      -5.9      3.504      6.033
  Name = 
  3 active torsions:
  status: ('A' for Active; 'I' for Inactive)
    1  A    between atoms: C_5  and  C_16
    2  A    between atoms: C_5  and  C_30
    3  A    between atoms: C_10  and  C_16
                            x       y       z     vdW  Elec       q    Type
                         _______ _______ _______ _____ _____    ______ ____

>  <TORSDO>
F 3

$$$$
=
 OpenBabel11122413143D

 31 35  0  0  1  0  0  0  0  0999 V2000
  161.2730  213.1050  145.1020 C   0  0  0  0  0  0  0  0  0  0  0  0
  161.4800  213.9130  141.3970 C   0  0  2  0  0  3  0  0  0  0  0  0
  162.3390  212.7570  140.8560 C   0  0  1  0  0  3  0  0  0  0  0  0
  162.3990  210.3860  140.0150 C   0  0  1  0  0  3  0  0  0  0  0  0
  160.9030  213.6010  142.7550 C   0  0  0  0  0  0  0  0  0  0  0  0
  159.9000  212.9200  145.2840 C   0  0  0  0  0  3  0  0  0  0  0  0
  161.5210  211.4800  140.6080 C   0  0  0  0  0  2  0  0  0  0  0  0
  159.1600  213.5480  140.4490 C   0  0  2  0  0  3  0  0  0  0  0  0
  162.2040  212.9380  146.2480 C   0  0  0  0  0  1  0  0  0  0  0  0
  162.1410  213.8900  138.5950 C   0  0  0  0  0  3  0  0  0  0  0  0
  161.5630  209.1490  139.7700 C   0  0  0  0  0  1  0  0  0  0  0  0
  158.5320  213.6590  141.8360 C   0  0  0  0  0  2  0  0  0  0  0  0
  160.4280  214.4070  140.3730 C   0  0  2  0  0  3  0  0  0  0  0  0
  161.7710  213.4440  143.8420 C   0  0  0  0  0  3  0  0  0  0  0  0
  163.0000  210.8620  138.6980 C   0  0  0  0  0  2  0  0  0  0  0  0
  159.5160  213.4050  142.9390 C   0  0  0  0  0  0  0  0  0  0  0  0
  159.0260  213.0770  144.2070 C   0  0  0  0  0  3  0  0  0  0  0  0
  160.9810  214.4530  138.9610 C   0  0  0  0  0  3  0  0  0  0  0  0
  163.0640  213.2260  139.5850 C   0  0  2  0  0  3  0  0  0  0  0  0
  163.8660  212.0980  138.9330 C   0  0  0  0  0  2  0  0  0  0  0  0
  158.1280  213.9560  139.4040 C   0  0  0  0  0  2  0  0  0  0  0  0
  158.0270  212.5660  137.5100 O   0  0  0  0  0  0  0  0  0  0  0  0
  157.6490  212.7560  138.6560 C   0  0  0  0  0  0  0  0  0  0  0  0
  154.4400  210.0260  139.1270 C   0  0  1  0  0  3  0  0  0  0  0  0
  155.2550  212.2520  139.0940 C   0  0  0  0  0  2  0  0  0  0  0  0
  158.1560  209.8980  139.1460 O   0  0  0  0  0  1  0  0  0  0  0  0
  153.3950  209.0970  139.7090 C   0  0  0  0  0  1  0  0  0  0  0  0
  154.3310  211.3370  139.7600 N   0  0  0  0  0  2  0  0  0  0  0  0
  156.8910  210.3710  138.7930 C   0  0  2  0  0  3  0  0  0  0  0  0
  156.6990  211.7990  139.3150 C   0  0  1  0  0  3  0  0  0  0  0  0
  155.8290  209.4430  139.3730 C   0  0  0  0  0  2  0  0  0  0  0  0
  1  6  1  0  0  0  0
  1  9  1  0  0  0  0
  2  5  1  1  0  0  0
  3  7  1  6  0  0  0
  3  2  1  0  0  0  0
  4 11  1  6  0  0  0
  4  7  1  0  0  0  0
  5 16  2  0  0  0  0
  5 14  1  0  0  0  0
  8 21  1  6  0  0  0
  8 12  1  0  0  0  0
 10 18  2  0  0  0  0
 12 16  1  0  0  0  0
 13 18  1  6  0  0  0
 13  8  1  0  0  0  0
 13  2  1  0  0  0  0
 14  1  2  0  0  0  0
 15 20  1  0  0  0  0
 15  4  1  0  0  0  0
 16 17  1  0  0  0  0
 17  6  2  0  0  0  0
 19 10  1  6  0  0  0
 19  3  1  0  0  0  0
 20 19  1  0  0  0  0
 22 23  2  0  0  0  0
 23 21  1  0  0  0  0
 24 31  1  0  0  0  0
 24 27  1  1  0  0  0
 24 28  1  0  0  0  0
 25 30  1  0  0  0  0
 25 28  1  0  0  0  0
 29 26  1  1  0  0  0
 29 30  1  0  0  0  0
 29 31  1  0  0  0  0
 30 23  1  6  0  0  0
M  END
>  <MODEL>
3

>  <REMARK>
 VINA RESULT:      -5.9     10.310     13.873
  Name = 
  3 active torsions:
  status: ('A' for Active; 'I' for Inactive)
    1  A    between atoms: C_5  and  C_16
    2  A    between atoms: C_5  and  C_30
    3  A    between atoms: C_10  and  C_16
                            x       y       z     vdW  Elec       q    Type
                         _______ _______ _______ _____ _____    ______ ____

>  <TORSDO>
F 3

$$$$
=
 OpenBabel11122413143D

 31 35  0  0  1  0  0  0  0  0999 V2000
  162.4600  211.4510  148.9080 C   0  0  0  0  0  0  0  0  0  0  0  0
  162.1460  209.9530  152.3830 C   0  0  2  0  0  3  0  0  0  0  0  0
  161.1750  210.9260  153.0750 C   0  0  1  0  0  3  0  0  0  0  0  0
  158.7820  211.5830  153.4900 C   0  0  1  0  0  3  0  0  0  0  0  0
  162.1040  210.0830  150.8810 C   0  0  0  0  0  0  0  0  0  0  0  0
  161.9550  210.4280  148.1020 C   0  0  0  0  0  3  0  0  0  0  0  0
  159.7060  210.6350  152.7350 C   0  0  0  0  0  2  0  0  0  0  0  0
  160.8680  207.7820  152.1190 C   0  0  2  0  0  3  0  0  0  0  0  0
  162.9180  212.7240  148.2930 C   0  0  0  0  0  1  0  0  0  0  0  0
  161.4730  209.4900  155.1450 C   0  0  0  0  0  3  0  0  0  0  0  0
  157.3440  211.2620  153.1440 C   0  0  0  0  0  1  0  0  0  0  0  0
  161.2060  207.7180  150.6320 C   0  0  0  0  0  2  0  0  0  0  0  0
  161.9890  208.4950  152.8850 C   0  0  2  0  0  3  0  0  0  0  0  0
  162.5340  211.2790  150.2920 C   0  0  0  0  0  3  0  0  0  0  0  0
  158.9920  211.4230  154.9900 C   0  0  0  0  0  2  0  0  0  0  0  0
  161.5860  209.0530  150.0660 C   0  0  0  0  0  0  0  0  0  0  0  0
  161.5260  209.2310  148.6800 C   0  0  0  0  0  3  0  0  0  0  0  0
  161.7650  208.4260  154.3840 C   0  0  0  0  0  3  0  0  0  0  0  0
  161.4290  210.8910  154.5900 C   0  0  2  0  0  3  0  0  0  0  0  0
  160.4350  211.7660  155.3570 C   0  0  0  0  0  2  0  0  0  0  0  0
  160.6320  206.3670  152.6350 C   0  0  0  0  0  2  0  0  0  0  0  0
  162.7040  205.3660  152.1490 O   0  0  0  0  0  0  0  0  0  0  0  0
  161.5070  205.4000  151.9070 C   0  0  0  0  0  0  0  0  0  0  0  0
  161.2660  202.6020  148.7310 C   0  0  1  0  0  3  0  0  0  0  0  0
  161.4350  204.8440  149.4860 C   0  0  0  0  0  2  0  0  0  0  0  0
  160.5800  202.6480  152.3850 O   0  0  0  0  0  1  0  0  0  0  0  0
  160.7630  201.7030  147.6220 C   0  0  0  0  0  1  0  0  0  0  0  0
  160.8310  203.9740  148.4790 N   0  0  0  0  0  2  0  0  0  0  0  0
  161.2070  203.0170  151.1940 C   0  0  2  0  0  3  0  0  0  0  0  0
  160.9090  204.4870  150.8770 C   0  0  1  0  0  3  0  0  0  0  0  0
  160.7090  202.1170  150.0670 C   0  0  0  0  0  2  0  0  0  0  0  0
  1 14  1  0  0  0  0
  2  5  1  6  0  0  0
  2 13  1  0  0  0  0
  2  3  1  0  0  0  0
  3  7  1  1  0  0  0
  3 19  1  0  0  0  0
  4 11  1  1  0  0  0
  4 15  1  0  0  0  0
  6 17  1  0  0  0  0
  6  1  2  0  0  0  0
  7  4  1  0  0  0  0
  8 21  1  1  0  0  0
  8 13  1  0  0  0  0
  9  1  1  0  0  0  0
 12  8  1  0  0  0  0
 13 18  1  1  0  0  0
 14  5  2  0  0  0  0
 15 20  1  0  0  0  0
 16 12  1  0  0  0  0
 16  5  1  0  0  0  0
 17 16  2  0  0  0  0
 18 10  2  0  0  0  0
 19 10  1  1  0  0  0
 19 20  1  0  0  0  0
 23 22  2  0  0  0  0
 23 21  1  0  0  0  0
 24 27  1  6  0  0  0
 24 31  1  0  0  0  0
 25 30  1  0  0  0  0
 28 24  1  0  0  0  0
 28 25  1  0  0  0  0
 29 26  1  1  0  0  0
 30 29  1  0  0  0  0
 30 23  1  1  0  0  0
 31 29  1  0  0  0  0
M  END
>  <MODEL>
4

>  <REMARK>
 VINA RESULT:      -5.8      2.209      4.911
  Name = 
  3 active torsions:
  status: ('A' for Active; 'I' for Inactive)
    1  A    between atoms: C_5  and  C_16
    2  A    between atoms: C_5  and  C_30
    3  A    between atoms: C_10  and  C_16
                            x       y       z     vdW  Elec       q    Type
                         _______ _______ _______ _____ _____    ______ ____

>  <TORSDO>
F 3

$$$$
=
 OpenBabel11122413143D

 31 35  0  0  1  0  0  0  0  0999 V2000
  157.1450  213.8160  150.6700 C   0  0  0  0  0  0  0  0  0  0  0  0
  157.8350  213.7070  154.4030 C   0  0  2  0  0  3  0  0  0  0  0  0
  156.5330  213.1050  154.9600 C   0  0  1  0  0  3  0  0  0  0  0  0
  155.2180  211.0220  155.4670 C   0  0  1  0  0  3  0  0  0  0  0  0
  157.9810  213.4640  152.9210 C   0  0  0  0  0  0  0  0  0  0  0  0
  158.1360  212.9700  150.1650 C   0  0  0  0  0  3  0  0  0  0  0  0
  156.4950  211.5740  154.8470 C   0  0  0  0  0  2  0  0  0  0  0  0
  159.6140  211.9380  154.7550 C   0  0  2  0  0  3  0  0  0  0  0  0
  156.1700  214.4530  149.7470 C   0  0  0  0  0  1  0  0  0  0  0  0
  157.5850  213.3810  157.2530 C   0  0  0  0  0  3  0  0  0  0  0  0
  155.2160  209.5120  155.3520 C   0  0  0  0  0  1  0  0  0  0  0  0
  160.0400  212.0180  153.2910 C   0  0  0  0  0  2  0  0  0  0  0  0
  159.0830  213.2980  155.2260 C   0  0  2  0  0  3  0  0  0  0  0  0
  157.0690  214.0610  152.0430 C   0  0  0  0  0  3  0  0  0  0  0  0
  155.1420  211.4180  156.9360 C   0  0  0  0  0  2  0  0  0  0  0  0
  158.9770  212.6030  152.4100 C   0  0  0  0  0  0  0  0  0  0  0  0
  159.0520  212.3720  151.0330 C   0  0  0  0  0  3  0  0  0  0  0  0
  158.8110  213.2990  156.7180 C   0  0  0  0  0  3  0  0  0  0  0  0
  156.3490  213.5750  156.4120 C   0  0  2  0  0  3  0  0  0  0  0  0
  155.1210  212.9410  157.0670 C   0  0  0  0  0  2  0  0  0  0  0  0
  160.7990  211.4660  155.5900 C   0  0  0  0  0  2  0  0  0  0  0  0
  162.8070  210.7540  154.5960 O   0  0  0  0  0  0  0  0  0  0  0  0
  161.6310  210.5040  154.8080 C   0  0  0  0  0  0  0  0  0  0  0  0
  161.3200  206.5990  153.1860 C   0  0  1  0  0  3  0  0  0  0  0  0
  161.5430  208.9400  152.8790 C   0  0  0  0  0  2  0  0  0  0  0  0
  160.6390  208.2640  156.4400 O   0  0  0  0  0  1  0  0  0  0  0  0
  160.7950  205.3140  152.5810 C   0  0  0  0  0  1  0  0  0  0  0  0
  160.9180  207.7280  152.3520 N   0  0  0  0  0  2  0  0  0  0  0  0
  161.2730  208.0570  155.2140 C   0  0  2  0  0  3  0  0  0  0  0  0
  161.0100  209.2430  154.2790 C   0  0  1  0  0  3  0  0  0  0  0  0
  160.7520  206.7640  154.5940 C   0  0  0  0  0  2  0  0  0  0  0  0
  1 14  1  0  0  0  0
  2  5  1  6  0  0  0
  2  3  1  0  0  0  0
  2 13  1  0  0  0  0
  3  7  1  1  0  0  0
  3 19  1  0  0  0  0
  4 11  1  1  0  0  0
  4 15  1  0  0  0  0
  6  1  2  0  0  0  0
  6 17  1  0  0  0  0
  7  4  1  0  0  0  0
  8 13  1  0  0  0  0
  8 21  1  1  0  0  0
  9  1  1  0  0  0  0
 12  8  1  0  0  0  0
 13 18  1  1  0  0  0
 14  5  2  0  0  0  0
 15 20  1  0  0  0  0
 16  5  1  0  0  0  0
 16 12  1  0  0  0  0
 17 16  2  0  0  0  0
 18 10  2  0  0  0  0
 19 20  1  1  0  0  0
 19 10  1  0  0  0  0
 22 23  2  0  0  0  0
 23 21  1  0  0  0  0
 24 27  1  6  0  0  0
 24 31  1  0  0  0  0
 25 30  1  0  0  0  0
 28 25  1  0  0  0  0
 28 24  1  0  0  0  0
 29 26  1  1  0  0  0
 30 23  1  1  0  0  0
 30 29  1  0  0  0  0
 31 29  1  0  0  0  0
M  END
>  <MODEL>
5

>  <REMARK>
 VINA RESULT:      -5.5      2.646      5.031
  Name = 
  3 active torsions:
  status: ('A' for Active; 'I' for Inactive)
    1  A    between atoms: C_5  and  C_16
    2  A    between atoms: C_5  and  C_30
    3  A    between atoms: C_10  and  C_16
                            x       y       z     vdW  Elec       q    Type
                         _______ _______ _______ _____ _____    ______ ____

>  <TORSDO>
F 3

$$$$
=
 OpenBabel11122413143D

 31 35  0  0  1  0  0  0  0  0999 V2000
  156.3490  213.8570  150.2660 C   0  0  0  0  0  0  0  0  0  0  0  0
  157.6330  213.9000  153.8390 C   0  0  2  0  0  3  0  0  0  0  0  0
  156.4440  213.3170  154.6230 C   0  0  1  0  0  3  0  0  0  0  0  0
  155.2490  211.2510  155.4170 C   0  0  1  0  0  3  0  0  0  0  0  0
  157.5410  213.5990  152.3650 C   0  0  0  0  0  0  0  0  0  0  0  0
  157.2530  212.9950  149.6410 C   0  0  0  0  0  3  0  0  0  0  0  0
  156.4030  211.7820  154.5770 C   0  0  0  0  0  2  0  0  0  0  0  0
  159.4630  212.1530  153.9680 C   0  0  2  0  0  3  0  0  0  0  0  0
  155.2310  214.4530  149.4880 C   0  0  0  0  0  1  0  0  0  0  0  0
  157.8490  213.6880  156.7030 C   0  0  0  0  0  3  0  0  0  0  0  0
  155.2430  209.7380  155.3620 C   0  0  0  0  0  1  0  0  0  0  0  0
  159.6460  212.1760  152.4530 C   0  0  0  0  0  2  0  0  0  0  0  0
  159.0010  213.5290  154.4650 C   0  0  2  0  0  3  0  0  0  0  0  0
  156.4920  214.1560  151.6220 C   0  0  0  0  0  3  0  0  0  0  0  0
  155.4070  211.7060  156.8620 C   0  0  0  0  0  2  0  0  0  0  0  0
  158.4490  212.7210  151.7330 C   0  0  0  0  0  0  0  0  0  0  0  0
  158.3030  212.4350  150.3720 C   0  0  0  0  0  3  0  0  0  0  0  0
  158.9740  213.5890  155.9800 C   0  0  0  0  0  3  0  0  0  0  0  0
  156.4920  213.8440  156.0660 C   0  0  2  0  0  3  0  0  0  0  0  0
  155.3920  213.2320  156.9350 C   0  0  0  0  0  2  0  0  0  0  0  0
  160.7710  211.7190  154.6190 C   0  0  0  0  0  2  0  0  0  0  0  0
  159.9740  210.3440  156.3510 O   0  0  0  0  0  0  0  0  0  0  0  0
  160.5960  210.4030  155.3020 C   0  0  0  0  0  0  0  0  0  0  0  0
  160.9240  206.8510  153.0100 C   0  0  1  0  0  3  0  0  0  0  0  0
  160.3360  207.9460  155.0300 C   0  0  0  0  0  2  0  0  0  0  0  0
  162.2710  210.3140  152.8830 O   0  0  0  0  0  1  0  0  0  0  0  0
  161.4140  205.5550  152.4010 C   0  0  0  0  0  1  0  0  0  0  0  0
  160.9360  206.7380  154.4670 N   0  0  0  0  0  2  0  0  0  0  0  0
  161.3520  209.3060  153.1790 C   0  0  2  0  0  3  0  0  0  0  0  0
  161.1960  209.1670  154.6980 C   0  0  1  0  0  3  0  0  0  0  0  0
  161.8350  207.9940  152.5690 C   0  0  0  0  0  2  0  0  0  0  0  0
  1 14  1  0  0  0  0
  2  5  1  6  0  0  0
  2 13  1  0  0  0  0
  2  3  1  0  0  0  0
  3  7  1  1  0  0  0
  3 19  1  0  0  0  0
  4 11  1  1  0  0  0
  4 15  1  0  0  0  0
  6  1  2  0  0  0  0
  6 17  1  0  0  0  0
  7  4  1  0  0  0  0
  8 13  1  0  0  0  0
  8 21  1  1  0  0  0
  9  1  1  0  0  0  0
 12  8  1  0  0  0  0
 13 18  1  1  0  0  0
 14  5  2  0  0  0  0
 15 20  1  0  0  0  0
 16  5  1  0  0  0  0
 16 12  1  0  0  0  0
 17 16  2  0  0  0  0
 18 10  2  0  0  0  0
 19 10  1  1  0  0  0
 19 20  1  0  0  0  0
 21 23  1  0  0  0  0
 23 22  2  0  0  0  0
 24 27  1  6  0  0  0
 24 28  1  0  0  0  0
 28 25  1  0  0  0  0
 29 26  1  1  0  0  0
 29 30  1  0  0  0  0
 30 25  1  0  0  0  0
 30 23  1  6  0  0  0
 31 24  1  0  0  0  0
 31 29  1  0  0  0  0
M  END
>  <MODEL>
6

>  <REMARK>
 VINA RESULT:      -4.9      2.654      5.176
  Name = 
  3 active torsions:
  status: ('A' for Active; 'I' for Inactive)
    1  A    between atoms: C_5  and  C_16
    2  A    between atoms: C_5  and  C_30
    3  A    between atoms: C_10  and  C_16
                            x       y       z     vdW  Elec       q    Type
                         _______ _______ _______ _____ _____    ______ ____

>  <TORSDO>
F 3

$$$$
=
 OpenBabel11122413143D

 31 35  0  0  1  0  0  0  0  0999 V2000
  157.2500  212.9540  154.3190 C   0  0  0  0  0  0  0  0  0  0  0  0
  160.7410  211.4990  154.6590 C   0  0  2  0  0  3  0  0  0  0  0  0
  160.5100  210.3090  155.6070 C   0  0  1  0  0  3  0  0  0  0  0  0
  159.8290  207.8980  155.8440 C   0  0  1  0  0  3  0  0  0  0  0  0
  159.4560  211.9820  154.0350 C   0  0  0  0  0  0  0  0  0  0  0  0
  157.0030  212.8050  152.9520 C   0  0  0  0  0  3  0  0  0  0  0  0
  159.9820  209.0660  154.8760 C   0  0  0  0  0  2  0  0  0  0  0  0
  161.3200  210.4820  152.4110 C   0  0  2  0  0  3  0  0  0  0  0  0
  156.2110  213.5470  155.2020 C   0  0  0  0  0  1  0  0  0  0  0  0
  163.0120  209.9170  155.4540 C   0  0  0  0  0  3  0  0  0  0  0  0
  159.3210  206.6870  155.0920 C   0  0  0  0  0  1  0  0  0  0  0  0
  160.2550  211.3240  151.7130 C   0  0  0  0  0  2  0  0  0  0  0  0
  161.8700  211.2340  153.6310 C   0  0  2  0  0  3  0  0  0  0  0  0
  158.4710  212.5430  154.8570 C   0  0  0  0  0  3  0  0  0  0  0  0
  161.1750  207.5740  156.4790 C   0  0  0  0  0  2  0  0  0  0  0  0
  159.2020  211.8240  152.6550 C   0  0  0  0  0  0  0  0  0  0  0  0
  157.9790  212.2490  152.1230 C   0  0  0  0  0  3  0  0  0  0  0  0
  163.0460  210.5000  154.2470 C   0  0  0  0  0  3  0  0  0  0  0  0
  161.8150  210.0150  156.3650 C   0  0  2  0  0  3  0  0  0  0  0  0
  161.6910  208.7810  157.2610 C   0  0  0  0  0  2  0  0  0  0  0  0
  162.4150  210.1370  151.4100 C   0  0  0  0  0  2  0  0  0  0  0  0
  161.4050  209.4100  149.4140 O   0  0  0  0  0  0  0  0  0  0  0  0
  161.9370  209.0850  150.4650 C   0  0  0  0  0  0  0  0  0  0  0  0
  160.9480  205.1510  151.6970 C   0  0  1  0  0  3  0  0  0  0  0  0
  161.5770  207.3740  152.2310 C   0  0  0  0  0  2  0  0  0  0  0  0
  161.9890  206.8450  148.5560 O   0  0  0  0  0  1  0  0  0  0  0  0
  161.0220  203.7030  152.1350 C   0  0  0  0  0  1  0  0  0  0  0  0
  161.7660  205.9700  152.5880 N   0  0  0  0  0  2  0  0  0  0  0  0
  161.3910  206.7280  149.8120 C   0  0  2  0  0  3  0  0  0  0  0  0
  162.1040  207.6360  150.8200 C   0  0  1  0  0  3  0  0  0  0  0  0
  161.4590  205.2720  150.2640 C   0  0  0  0  0  2  0  0  0  0  0  0
  1 14  1  0  0  0  0
  1  9  1  0  0  0  0
  2  5  1  6  0  0  0
  2  3  1  0  0  0  0
  3  7  1  6  0  0  0
  3 19  1  0  0  0  0
  4 11  1  6  0  0  0
  4 15  1  0  0  0  0
  5 14  2  0  0  0  0
  6  1  2  0  0  0  0
  7  4  1  0  0  0  0
  8 21  1  6  0  0  0
  8 13  1  0  0  0  0
 12  8  1  0  0  0  0
 12 16  1  0  0  0  0
 13 18  1  1  0  0  0
 13  2  1  0  0  0  0
 15 20  1  0  0  0  0
 16  5  1  0  0  0  0
 17 16  2  0  0  0  0
 17  6  1  0  0  0  0
 18 10  2  0  0  0  0
 19 10  1  6  0  0  0
 19 20  1  0  0  0  0
 22 23  2  0  0  0  0
 23 21  1  0  0  0  0
 24 27  1  1  0  0  0
 24 28  1  0  0  0  0
 25 28  1  0  0  0  0
 29 26  1  6  0  0  0
 29 31  1  0  0  0  0
 29 30  1  0  0  0  0
 30 23  1  6  0  0  0
 30 25  1  0  0  0  0
 31 24  1  0  0  0  0
M  END
>  <MODEL>
7

>  <REMARK>
 VINA RESULT:      -3.5      1.740      2.174
  Name = 
  3 active torsions:
  status: ('A' for Active; 'I' for Inactive)
    1  A    between atoms: C_5  and  C_16
    2  A    between atoms: C_5  and  C_30
    3  A    between atoms: C_10  and  C_16
                            x       y       z     vdW  Elec       q    Type
                         _______ _______ _______ _____ _____    ______ ____

>  <TORSDO>
F 3

$$$$
=
 OpenBabel11122413143D

 31 35  0  0  1  0  0  0  0  0999 V2000
  162.3010  212.2330  148.6400 C   0  0  0  0  0  0  0  0  0  0  0  0
  162.2830  210.0440  151.7430 C   0  0  2  0  0  3  0  0  0  0  0  0
  161.3470  210.8190  152.6870 C   0  0  1  0  0  3  0  0  0  0  0  0
  158.9780  211.2870  153.3940 C   0  0  1  0  0  3  0  0  0  0  0  0
  162.1250  210.4780  150.3070 C   0  0  0  0  0  0  0  0  0  0  0  0
  161.7580  211.3790  147.6770 C   0  0  0  0  0  3  0  0  0  0  0  0
  159.8620  210.5500  152.3970 C   0  0  0  0  0  2  0  0  0  0  0  0
  161.0360  207.9270  151.1240 C   0  0  2  0  0  3  0  0  0  0  0  0
  162.6820  213.6220  148.2720 C   0  0  0  0  0  1  0  0  0  0  0  0
  161.8320  209.0010  154.3890 C   0  0  0  0  0  3  0  0  0  0  0  0
  157.5250  210.9910  153.0910 C   0  0  0  0  0  1  0  0  0  0  0  0
  161.2630  208.1820  149.6360 C   0  0  0  0  0  2  0  0  0  0  0  0
  162.1970  208.5100  151.9420 C   0  0  2  0  0  3  0  0  0  0  0  0
  162.4820  211.7840  149.9500 C   0  0  0  0  0  3  0  0  0  0  0  0
  159.3040  210.8320  154.8110 C   0  0  0  0  0  2  0  0  0  0  0  0
  161.5690  209.6180  149.3350 C   0  0  0  0  0  0  0  0  0  0  0  0
  161.4010  210.0740  148.0230 C   0  0  0  0  0  3  0  0  0  0  0  0
  162.0880  208.1270  153.4060 C   0  0  0  0  0  3  0  0  0  0  0  0
  161.7140  210.4830  154.1410 C   0  0  2  0  0  3  0  0  0  0  0  0
  160.7630  211.1450  155.1390 C   0  0  0  0  0  2  0  0  0  0  0  0
  160.8720  206.4290  151.3510 C   0  0  0  0  0  2  0  0  0  0  0  0
  159.6500  206.2630  149.3490 O   0  0  0  0  0  0  0  0  0  0  0  0
  160.4890  205.7530  150.0760 C   0  0  0  0  0  0  0  0  0  0  0  0
  160.8990  201.7970  148.6100 C   0  0  1  0  0  3  0  0  0  0  0  0
  160.3990  203.2890  150.3840 C   0  0  0  0  0  2  0  0  0  0  0  0
  161.9580  205.2100  147.5840 O   0  0  0  0  0  1  0  0  0  0  0  0
  161.4360  200.4250  148.2590 C   0  0  0  0  0  1  0  0  0  0  0  0
  161.0410  202.0200  150.0460 N   0  0  0  0  0  2  0  0  0  0  0  0
  161.1480  204.2460  148.1860 C   0  0  2  0  0  3  0  0  0  0  0  0
  161.1300  204.4480  149.7050 C   0  0  1  0  0  3  0  0  0  0  0  0
  161.6790  202.8580  147.8390 C   0  0  0  0  0  2  0  0  0  0  0  0
  1 14  1  0  0  0  0
  2  5  1  6  0  0  0
  2 13  1  0  0  0  0
  2  3  1  0  0  0  0
  3  7  1  6  0  0  0
  3 19  1  0  0  0  0
  4 11  1  6  0  0  0
  4 15  1  0  0  0  0
  6 17  1  0  0  0  0
  6  1  2  0  0  0  0
  7  4  1  0  0  0  0
  8 21  1  6  0  0  0
  8 13  1  0  0  0  0
  9  1  1  0  0  0  0
 12  8  1  0  0  0  0
 13 18  1  1  0  0  0
 14  5  2  0  0  0  0
 15 20  1  0  0  0  0
 16 12  1  0  0  0  0
 16  5  1  0  0  0  0
 17 16  2  0  0  0  0
 18 10  2  0  0  0  0
 19 10  1  6  0  0  0
 19 20  1  0  0  0  0
 22 23  2  0  0  0  0
 23 21  1  0  0  0  0
 24 27  1  1  0  0  0
 24 28  1  0  0  0  0
 28 25  1  0  0  0  0
 29 26  1  6  0  0  0
 29 30  1  0  0  0  0
 30 23  1  6  0  0  0
 30 25  1  0  0  0  0
 31 29  1  0  0  0  0
 31 24  1  0  0  0  0
M  END
>  <MODEL>
8

>  <REMARK>
 VINA RESULT:      -3.4      2.591      5.163
  Name = 
  3 active torsions:
  status: ('A' for Active; 'I' for Inactive)
    1  A    between atoms: C_5  and  C_16
    2  A    between atoms: C_5  and  C_30
    3  A    between atoms: C_10  and  C_16
                            x       y       z     vdW  Elec       q    Type
                         _______ _______ _______ _____ _____    ______ ____

>  <TORSDO>
F 3

$$$$
