=
 OpenBabel11122414253D

 34 40  0  0  1  0  0  0  0  0999 V2000
  162.0170  207.7160  149.9090 C   0  0  0  0  0  0  0  0  0  0  0  0
  162.1940  209.9550  151.0890 C   0  0  0  0  0  2  0  0  0  0  0  0
  161.2420  201.3450  150.1150 C   0  0  0  0  0  0  0  0  0  0  0  0
  161.4170  205.6260  148.8340 C   0  0  0  0  0  0  0  0  0  0  0  0
  160.3870  203.6930  150.2110 C   0  0  1  0  0  3  0  0  0  0  0  0
  161.9630  202.8250  151.8700 O   0  0  0  0  0  1  0  0  0  0  0  0
  161.6630  200.3510  150.7650 O   0  0  0  0  0  0  0  0  0  0  0  0
  160.6110  202.0190  147.7690 C   0  0  0  0  0  3  0  0  0  0  0  0
  162.0450  207.9400  152.4280 C   0  0  2  0  0  3  0  0  0  0  0  0
  159.9170  208.2110  154.8900 C   0  0  0  0  0  2  0  0  0  0  0  0
  160.0990  204.7920  151.2420 C   0  0  0  0  0  2  0  0  0  0  0  0
  160.9610  203.4530  147.8260 C   0  0  0  0  0  3  0  0  0  0  0  0
  160.9830  206.8180  152.4540 C   0  0  1  0  0  3  0  0  0  0  0  0
  162.1780  210.3720  152.5470 C   0  0  0  0  0  2  0  0  0  0  0  0
  160.9290  204.2290  148.9140 C   0  0  0  0  0  0  0  0  0  0  0  0
  160.7290  201.1160  148.7500 C   0  0  0  0  0  3  0  0  0  0  0  0
  160.2860  209.2260  153.7940 C   0  0  2  0  0  3  0  0  0  0  0  0
  161.5480  206.3950  150.0070 C   0  0  0  0  0  0  0  0  0  0  0  0
  161.2550  202.6390  150.7280 N   0  0  0  0  0  0  0  0  0  0  0  0
  161.2640  205.7750  151.3590 C   0  0  2  0  0  3  0  0  0  0  0  0
  162.1670  207.4610  147.5140 C   0  0  0  0  0  3  0  0  0  0  0  0
  160.8960  207.0440  155.0290 C   0  0  0  0  0  2  0  0  0  0  0  0
  161.7290  206.1790  147.6280 N   0  0  0  0  0  0  0  0  0  0  0  0
  160.9030  206.1120  153.8170 C   0  0  0  0  0  2  0  0  0  0  0  0
  161.7660  209.1410  153.3530 C   0  0  1  0  0  3  0  0  0  0  0  0
  162.3160  208.2520  148.6530 C   0  0  0  0  0  3  0  0  0  0  0  0
  162.1550  208.5070  151.0950 N   0  0  0  0  0  0  0  0  0  0  0  0
  159.9680  210.5110  154.2450 O   0  0  0  0  0  0  0  0  0  0  0  0
  159.4380  210.3210  155.5240 C   0  0  0  0  0  2  0  0  0  0  0  0
  157.7180  213.3110  154.6250 O   0  0  0  0  0  0  0  0  0  0  0  0
  157.1080  211.1680  155.4170 C   0  0  0  0  0  2  0  0  0  0  0  0
  158.5060  211.4670  155.8740 C   0  0  2  0  0  3  0  0  0  0  0  0
  156.8080  212.2640  154.4210 C   0  0  0  0  0  2  0  0  0  0  0  0
  158.8910  212.6920  155.0810 C   0  0  0  0  0  2  0  0  0  0  0  0
  1 18  1  0  0  0  0
  1 27  1  0  0  0  0
  2 27  1  0  0  0  0
  2 14  1  0  0  0  0
  3 19  1  0  0  0  0
  3  7  2  0  0  0  0
  4 15  1  0  0  0  0
  4 18  2  0  0  0  0
  5 19  1  0  0  0  0
  5 11  1  1  0  0  0
  8 12  1  0  0  0  0
  8 16  2  0  0  0  0
  9 27  1  6  0  0  0
  9 13  1  0  0  0  0
  9 25  1  0  0  0  0
 10 22  1  0  0  0  0
 12 15  2  0  0  0  0
 13 24  1  1  0  0  0
 15  5  1  0  0  0  0
 16  3  1  0  0  0  0
 17 28  1  1  0  0  0
 17 10  1  0  0  0  0
 18 20  1  0  0  0  0
 19  6  1  0  0  0  0
 20 11  1  6  0  0  0
 20 13  1  0  0  0  0
 21 23  2  0  0  0  0
 21 26  1  0  0  0  0
 23  4  1  0  0  0  0
 24 22  1  0  0  0  0
 25 14  1  6  0  0  0
 25 17  1  0  0  0  0
 26  1  2  0  0  0  0
 28 29  1  0  0  0  0
 30 34  1  0  0  0  0
 31 32  1  0  0  0  0
 32 29  1  6  0  0  0
 33 30  1  0  0  0  0
 33 31  1  0  0  0  0
 34 32  1  0  0  0  0
M  END
>  <MODEL>
1

>  <REMARK>
 VINA RESULT:      -8.4      0.000      0.000
  Name = 
  3 active torsions:
  status: ('A' for Active; 'I' for Inactive)
    1  A    between atoms: C_17  and  O_28
    2  A    between atoms: O_28  and  C_29
    3  A    between atoms: C_29  and  C_32
                            x       y       z     vdW  Elec       q    Type
                         _______ _______ _______ _____ _____    ______ ____

>  <TORSDO>
F 3

$$$$
=
 OpenBabel11122414253D

 34 40  0  0  1  0  0  0  0  0999 V2000
  162.0440  207.6950  149.7830 C   0  0  0  0  0  0  0  0  0  0  0  0
  162.2530  209.9670  150.8940 C   0  0  0  0  0  2  0  0  0  0  0  0
  161.2050  201.3420  150.1860 C   0  0  0  0  0  0  0  0  0  0  0  0
  161.4160  205.5800  148.7750 C   0  0  0  0  0  0  0  0  0  0  0  0
  160.3750  203.7000  150.2160 C   0  0  1  0  0  3  0  0  0  0  0  0
  161.9520  202.8660  151.8910 O   0  0  0  0  0  1  0  0  0  0  0  0
  161.6200  200.3630  150.8620 O   0  0  0  0  0  0  0  0  0  0  0  0
  160.5650  201.9520  147.8240 C   0  0  0  0  0  3  0  0  0  0  0  0
  162.0910  207.9940  152.2940 C   0  0  2  0  0  3  0  0  0  0  0  0
  159.9820  208.3620  154.7590 C   0  0  0  0  0  2  0  0  0  0  0  0
  160.1040  204.8330  151.2160 C   0  0  0  0  0  2  0  0  0  0  0  0
  160.9310  203.3830  147.8360 C   0  0  0  0  0  3  0  0  0  0  0  0
  161.0180  206.8850  152.3600 C   0  0  1  0  0  3  0  0  0  0  0  0
  162.2500  210.4280  152.3390 C   0  0  0  0  0  2  0  0  0  0  0  0
  160.9140  204.1910  148.9000 C   0  0  0  0  0  0  0  0  0  0  0  0
  160.6810  201.0770  148.8310 C   0  0  0  0  0  3  0  0  0  0  0  0
  160.3540  209.3390  153.6310 C   0  0  2  0  0  3  0  0  0  0  0  0
  161.5620  206.3830  149.9240 C   0  0  0  0  0  0  0  0  0  0  0  0
  161.2350  202.6530  150.7590 N   0  0  0  0  0  0  0  0  0  0  0  0
  161.2810  205.8070  151.2960 C   0  0  2  0  0  3  0  0  0  0  0  0
  162.1760  207.3670  147.3960 C   0  0  0  0  0  3  0  0  0  0  0  0
  160.9500  207.1890  154.9280 C   0  0  0  0  0  2  0  0  0  0  0  0
  161.7260  206.0940  147.5510 N   0  0  0  0  0  0  0  0  0  0  0  0
  160.9390  206.2210  153.7440 C   0  0  0  0  0  2  0  0  0  0  0  0
  161.8300  209.2250  153.1850 C   0  0  1  0  0  3  0  0  0  0  0  0
  162.3410  208.1900  148.5090 C   0  0  0  0  0  3  0  0  0  0  0  0
  162.1980  208.5200  150.9440 N   0  0  0  0  0  0  0  0  0  0  0  0
  160.0530  210.6410  154.0450 O   0  0  0  0  0  0  0  0  0  0  0  0
  159.0390  211.0660  153.1820 C   0  0  0  0  0  2  0  0  0  0  0  0
  158.8100  213.9520  151.1030 O   0  0  0  0  0  0  0  0  0  0  0  0
  157.7480  213.1820  153.0700 C   0  0  0  0  0  2  0  0  0  0  0  0
  159.1150  212.5700  152.9940 C   0  0  2  0  0  3  0  0  0  0  0  0
  157.5530  213.8120  151.7100 C   0  0  0  0  0  2  0  0  0  0  0  0
  159.5740  212.8820  151.5900 C   0  0  0  0  0  2  0  0  0  0  0  0
  1 18  1  0  0  0  0
  1 27  1  0  0  0  0
  2 27  1  0  0  0  0
  2 14  1  0  0  0  0
  3 19  1  0  0  0  0
  3  7  2  0  0  0  0
  4 15  1  0  0  0  0
  4 18  2  0  0  0  0
  5 19  1  0  0  0  0
  5 11  1  1  0  0  0
  8 12  1  0  0  0  0
  8 16  2  0  0  0  0
  9 27  1  6  0  0  0
  9 13  1  0  0  0  0
  9 25  1  0  0  0  0
 10 22  1  0  0  0  0
 12 15  2  0  0  0  0
 13 24  1  1  0  0  0
 15  5  1  0  0  0  0
 16  3  1  0  0  0  0
 17 28  1  1  0  0  0
 17 10  1  0  0  0  0
 18 20  1  0  0  0  0
 19  6  1  0  0  0  0
 20 11  1  6  0  0  0
 20 13  1  0  0  0  0
 21 23  2  0  0  0  0
 21 26  1  0  0  0  0
 23  4  1  0  0  0  0
 24 22  1  0  0  0  0
 25 14  1  6  0  0  0
 25 17  1  0  0  0  0
 26  1  2  0  0  0  0
 29 28  1  0  0  0  0
 30 34  1  0  0  0  0
 30 33  1  0  0  0  0
 32 31  1  0  0  0  0
 32 29  1  6  0  0  0
 33 31  1  0  0  0  0
 34 32  1  0  0  0  0
M  END
>  <MODEL>
2

>  <REMARK>
 VINA RESULT:      -8.2      1.223      1.368
  Name = 
  3 active torsions:
  status: ('A' for Active; 'I' for Inactive)
    1  A    between atoms: C_17  and  O_28
    2  A    between atoms: O_28  and  C_29
    3  A    between atoms: C_29  and  C_32
                            x       y       z     vdW  Elec       q    Type
                         _______ _______ _______ _____ _____    ______ ____

>  <TORSDO>
F 3

$$$$
=
 OpenBabel11122414253D

 34 40  0  0  1  0  0  0  0  0999 V2000
  162.0450  207.5070  149.8730 C   0  0  0  0  0  0  0  0  0  0  0  0
  162.2230  209.6940  151.1480 C   0  0  0  0  0  2  0  0  0  0  0  0
  161.2620  201.1340  149.8050 C   0  0  0  0  0  0  0  0  0  0  0  0
  161.4460  205.4660  148.7080 C   0  0  0  0  0  0  0  0  0  0  0  0
  160.4090  203.4770  149.9990 C   0  0  1  0  0  3  0  0  0  0  0  0
  161.9790  202.5370  151.6240 O   0  0  0  0  0  1  0  0  0  0  0  0
  161.6800  200.1130  150.4120 O   0  0  0  0  0  0  0  0  0  0  0  0
  160.6380  201.9090  147.4880 C   0  0  0  0  0  3  0  0  0  0  0  0
  162.0670  207.6230  152.4000 C   0  0  2  0  0  3  0  0  0  0  0  0
  159.9320  207.7920  154.8640 C   0  0  0  0  0  2  0  0  0  0  0  0
  160.1200  204.5310  151.0750 C   0  0  0  0  0  2  0  0  0  0  0  0
  160.9900  203.3380  147.6070 C   0  0  0  0  0  3  0  0  0  0  0  0
  161.0030  206.5030  152.3750 C   0  0  1  0  0  3  0  0  0  0  0  0
  162.2030  210.0480  152.6230 C   0  0  0  0  0  2  0  0  0  0  0  0
  160.9560  204.0670  148.7270 C   0  0  0  0  0  0  0  0  0  0  0  0
  160.7520  200.9640  148.4300 C   0  0  0  0  0  3  0  0  0  0  0  0
  160.3050  208.8520  153.8140 C   0  0  2  0  0  3  0  0  0  0  0  0
  161.5740  206.1840  149.9140 C   0  0  0  0  0  0  0  0  0  0  0  0
  161.2740  202.4000  150.4730 N   0  0  0  0  0  0  0  0  0  0  0  0
  161.2860  205.5070  151.2370 C   0  0  2  0  0  3  0  0  0  0  0  0
  162.2020  207.3540  147.4710 C   0  0  0  0  0  3  0  0  0  0  0  0
  160.9090  206.6180  154.9570 C   0  0  0  0  0  2  0  0  0  0  0  0
  161.7630  206.0700  147.5280 N   0  0  0  0  0  0  0  0  0  0  0  0
  160.9180  205.7390  153.7060 C   0  0  0  0  0  2  0  0  0  0  0  0
  161.7860  208.7840  153.3750 C   0  0  1  0  0  3  0  0  0  0  0  0
  162.3490  208.0960  148.6420 C   0  0  0  0  0  3  0  0  0  0  0  0
  162.1810  208.2460  151.0930 N   0  0  0  0  0  0  0  0  0  0  0  0
  159.9880  210.1170  154.3180 O   0  0  0  0  0  0  0  0  0  0  0  0
  159.5900  209.8870  155.6390 C   0  0  0  0  0  2  0  0  0  0  0  0
  162.7600  210.0500  157.2600 O   0  0  0  0  0  0  0  0  0  0  0  0
  161.4960  211.4630  155.8470 C   0  0  0  0  0  2  0  0  0  0  0  0
  160.5530  210.5670  156.5950 C   0  0  2  0  0  3  0  0  0  0  0  0
  162.8600  210.8770  156.1320 C   0  0  0  0  0  2  0  0  0  0  0  0
  161.4570  209.5330  157.2220 C   0  0  0  0  0  2  0  0  0  0  0  0
  1 18  1  0  0  0  0
  1 27  1  0  0  0  0
  2 14  1  0  0  0  0
  3  7  2  0  0  0  0
  3 19  1  0  0  0  0
  4 15  1  0  0  0  0
  4 18  2  0  0  0  0
  5 19  1  0  0  0  0
  5 11  1  1  0  0  0
  8 12  1  0  0  0  0
  8 16  2  0  0  0  0
  9 27  1  6  0  0  0
  9 25  1  0  0  0  0
 10 22  1  0  0  0  0
 12 15  2  0  0  0  0
 13  9  1  0  0  0  0
 13 24  1  1  0  0  0
 15  5  1  0  0  0  0
 16  3  1  0  0  0  0
 17 28  1  1  0  0  0
 17 10  1  0  0  0  0
 18 20  1  0  0  0  0
 19  6  1  0  0  0  0
 20 11  1  6  0  0  0
 20 13  1  0  0  0  0
 21 23  2  0  0  0  0
 21 26  1  0  0  0  0
 23  4  1  0  0  0  0
 24 22  1  0  0  0  0
 25 14  1  6  0  0  0
 25 17  1  0  0  0  0
 26  1  2  0  0  0  0
 27  2  1  0  0  0  0
 28 29  1  0  0  0  0
 31 33  1  0  0  0  0
 31 32  1  0  0  0  0
 32 29  1  6  0  0  0
 32 34  1  0  0  0  0
 33 30  1  0  0  0  0
 34 30  1  0  0  0  0
M  END
>  <MODEL>
3

>  <REMARK>
 VINA RESULT:      -7.9      1.256      1.983
  Name = 
  3 active torsions:
  status: ('A' for Active; 'I' for Inactive)
    1  A    between atoms: C_17  and  O_28
    2  A    between atoms: O_28  and  C_29
    3  A    between atoms: C_29  and  C_32
                            x       y       z     vdW  Elec       q    Type
                         _______ _______ _______ _____ _____    ______ ____

>  <TORSDO>
F 3

$$$$
=
 OpenBabel11122414253D

 34 40  0  0  1  0  0  0  0  0999 V2000
  161.9440  208.3200  150.7230 C   0  0  0  0  0  0  0  0  0  0  0  0
  162.0390  210.3730  152.2100 C   0  0  0  0  0  2  0  0  0  0  0  0
  161.2860  201.9730  150.0060 C   0  0  0  0  0  0  0  0  0  0  0  0
  161.4200  206.3940  149.3450 C   0  0  0  0  0  0  0  0  0  0  0  0
  160.3820  204.2710  150.4000 C   0  0  1  0  0  3  0  0  0  0  0  0
  161.9190  203.2020  151.9760 O   0  0  0  0  0  1  0  0  0  0  0  0
  161.7040  200.9040  150.5240 O   0  0  0  0  0  0  0  0  0  0  0  0
  160.7190  202.9620  147.7570 C   0  0  0  0  0  3  0  0  0  0  0  0
  161.8840  208.1880  153.2480 C   0  0  2  0  0  3  0  0  0  0  0  0
  159.6710  208.0790  155.6460 C   0  0  0  0  0  2  0  0  0  0  0  0
  160.0390  205.2100  151.5640 C   0  0  0  0  0  2  0  0  0  0  0  0
  161.0400  204.3780  148.0260 C   0  0  0  0  0  3  0  0  0  0  0  0
  160.8440  207.0580  153.0780 C   0  0  1  0  0  3  0  0  0  0  0  0
  161.9660  210.5810  153.7110 C   0  0  0  0  0  2  0  0  0  0  0  0
  160.9570  204.9920  149.2110 C   0  0  0  0  0  0  0  0  0  0  0  0
  160.8220  201.9310  148.6050 C   0  0  0  0  0  3  0  0  0  0  0  0
  160.0560  209.2430  154.7170 C   0  0  2  0  0  3  0  0  0  0  0  0
  161.4970  206.9920  150.6180 C   0  0  0  0  0  0  0  0  0  0  0  0
  161.2530  203.1680  150.7940 N   0  0  0  0  0  0  0  0  0  0  0  0
  161.1810  206.1840  151.8590 C   0  0  2  0  0  3  0  0  0  0  0  0
  162.1780  208.4070  148.3230 C   0  0  0  0  0  3  0  0  0  0  0  0
  160.6670  206.9180  155.6550 C   0  0  0  0  0  2  0  0  0  0  0  0
  161.7610  207.1160  148.2400 N   0  0  0  0  0  0  0  0  0  0  0  0
  160.7320  206.1660  154.3250 C   0  0  0  0  0  2  0  0  0  0  0  0
  161.5510  209.2420  154.3220 C   0  0  1  0  0  3  0  0  0  0  0  0
  162.2740  209.0320  149.5650 C   0  0  0  0  0  3  0  0  0  0  0  0
  162.0270  208.9380  152.0120 N   0  0  0  0  0  0  0  0  0  0  0  0
  159.6990  210.4470  155.3320 O   0  0  0  0  0  0  0  0  0  0  0  0
  158.3020  210.4780  155.2760 C   0  0  0  0  0  2  0  0  0  0  0  0
  158.9220  213.7540  154.0140 O   0  0  0  0  0  0  0  0  0  0  0  0
  158.2840  211.6690  153.0990 C   0  0  0  0  0  2  0  0  0  0  0  0
  157.8410  211.7180  154.5320 C   0  0  2  0  0  3  0  0  0  0  0  0
  159.1840  212.8740  152.9540 C   0  0  0  0  0  2  0  0  0  0  0  0
  158.5450  212.9320  155.0870 C   0  0  0  0  0  2  0  0  0  0  0  0
  1 27  1  0  0  0  0
  2 14  1  0  0  0  0
  3  7  2  0  0  0  0
  3 19  1  0  0  0  0
  4 18  2  0  0  0  0
  5 19  1  0  0  0  0
  5 11  1  1  0  0  0
  8 12  1  0  0  0  0
  8 16  2  0  0  0  0
  9 27  1  6  0  0  0
  9 25  1  0  0  0  0
 10 22  1  0  0  0  0
 12 15  2  0  0  0  0
 13  9  1  0  0  0  0
 13 24  1  1  0  0  0
 15  4  1  0  0  0  0
 15  5  1  0  0  0  0
 16  3  1  0  0  0  0
 17 28  1  1  0  0  0
 17 10  1  0  0  0  0
 18  1  1  0  0  0  0
 18 20  1  0  0  0  0
 19  6  1  0  0  0  0
 20 11  1  6  0  0  0
 20 13  1  0  0  0  0
 21 26  1  0  0  0  0
 23 21  2  0  0  0  0
 23  4  1  0  0  0  0
 24 22  1  0  0  0  0
 25 14  1  6  0  0  0
 25 17  1  0  0  0  0
 26  1  2  0  0  0  0
 27  2  1  0  0  0  0
 29 28  1  0  0  0  0
 30 34  1  0  0  0  0
 31 32  1  0  0  0  0
 32 34  1  0  0  0  0
 32 29  1  1  0  0  0
 33 31  1  0  0  0  0
 33 30  1  0  0  0  0
M  END
>  <MODEL>
4

>  <REMARK>
 VINA RESULT:      -7.8      0.972      1.126
  Name = 
  3 active torsions:
  status: ('A' for Active; 'I' for Inactive)
    1  A    between atoms: C_17  and  O_28
    2  A    between atoms: O_28  and  C_29
    3  A    between atoms: C_29  and  C_32
                            x       y       z     vdW  Elec       q    Type
                         _______ _______ _______ _____ _____    ______ ____

>  <TORSDO>
F 3

$$$$
=
 OpenBabel11122414253D

 34 40  0  0  1  0  0  0  0  0999 V2000
  160.8370  205.2450  151.6120 C   0  0  0  0  0  0  0  0  0  0  0  0
  160.7790  206.5210  153.8050 C   0  0  0  0  0  2  0  0  0  0  0  0
  161.0140  205.1850  145.1940 C   0  0  0  0  0  0  0  0  0  0  0  0
  161.3200  204.1100  149.5240 C   0  0  0  0  0  0  0  0  0  0  0  0
  162.0700  205.4550  147.4450 C   0  0  1  0  0  3  0  0  0  0  0  0
  160.3070  206.9590  146.6570 O   0  0  0  0  0  1  0  0  0  0  0  0
  160.4590  205.7540  144.2160 O   0  0  0  0  0  0  0  0  0  0  0  0
  161.8710  202.9230  145.9080 C   0  0  0  0  0  3  0  0  0  0  0  0
  160.6490  207.7650  151.7280 C   0  0  2  0  0  3  0  0  0  0  0  0
  162.6110  210.3750  151.6910 C   0  0  0  0  0  2  0  0  0  0  0  0
  162.3820  206.5570  148.4660 C   0  0  0  0  0  2  0  0  0  0  0  0
  161.6480  203.0270  147.3640 C   0  0  0  0  0  3  0  0  0  0  0  0
  161.6000  207.8060  150.5120 C   0  0  1  0  0  3  0  0  0  0  0  0
  160.7290  207.9960  154.1550 C   0  0  0  0  0  2  0  0  0  0  0  0
  161.6730  204.1530  148.0850 C   0  0  0  0  0  0  0  0  0  0  0  0
  161.6010  203.8470  144.9770 C   0  0  0  0  0  3  0  0  0  0  0  0
  162.4150  209.3080  152.7830 C   0  0  2  0  0  3  0  0  0  0  0  0
  161.1760  205.3090  150.2500 C   0  0  0  0  0  0  0  0  0  0  0  0
  161.0750  205.8590  146.4550 N   0  0  0  0  0  0  0  0  0  0  0  0
  161.3050  206.6440  149.5480 C   0  0  2  0  0  3  0  0  0  0  0  0
  160.8360  202.8360  151.4770 C   0  0  0  0  0  3  0  0  0  0  0  0
  161.5220  210.3890  150.6160 C   0  0  0  0  0  2  0  0  0  0  0  0
  161.1470  202.9150  150.1560 N   0  0  0  0  0  0  0  0  0  0  0  0
  161.5180  209.1340  149.7420 C   0  0  0  0  0  2  0  0  0  0  0  0
  160.9690  208.7660  152.8560 C   0  0  1  0  0  3  0  0  0  0  0  0
  160.6790  204.0000  152.2280 C   0  0  0  0  0  3  0  0  0  0  0  0
  160.6860  206.4580  152.3600 N   0  0  0  0  0  0  0  0  0  0  0  0
  162.8150  209.8430  154.0110 O   0  0  0  0  0  0  0  0  0  0  0  0
  161.9320  210.9020  154.2450 C   0  0  0  0  0  2  0  0  0  0  0  0
  160.1570  210.2220  157.2610 O   0  0  0  0  0  0  0  0  0  0  0  0
  162.3830  209.9750  156.5030 C   0  0  0  0  0  2  0  0  0  0  0  0
  161.7390  211.0940  155.7390 C   0  0  2  0  0  3  0  0  0  0  0  0
  161.2320  209.3220  157.2330 C   0  0  0  0  0  2  0  0  0  0  0  0
  160.2740  210.9690  156.0790 C   0  0  0  0  0  2  0  0  0  0  0  0
  1 26  1  0  0  0  0
  1 27  1  0  0  0  0
  2 14  1  0  0  0  0
  3 19  1  0  0  0  0
  4 23  2  0  0  0  0
  4 18  1  0  0  0  0
  5 15  1  0  0  0  0
  5 11  1  1  0  0  0
  7  3  2  0  0  0  0
  8 12  1  0  0  0  0
  9 27  1  1  0  0  0
  9 25  1  0  0  0  0
 10 17  1  0  0  0  0
 12 15  2  0  0  0  0
 13 24  1  6  0  0  0
 13  9  1  0  0  0  0
 15  4  1  0  0  0  0
 16  3  1  0  0  0  0
 16  8  2  0  0  0  0
 17 25  1  0  0  0  0
 17 28  1  1  0  0  0
 18  1  2  0  0  0  0
 19  6  1  0  0  0  0
 19  5  1  0  0  0  0
 20 11  1  6  0  0  0
 20 18  1  0  0  0  0
 20 13  1  0  0  0  0
 21 26  2  0  0  0  0
 22 10  1  0  0  0  0
 23 21  1  0  0  0  0
 24 22  1  0  0  0  0
 25 14  1  1  0  0  0
 27  2  1  0  0  0  0
 28 29  1  0  0  0  0
 31 33  1  0  0  0  0
 32 29  1  6  0  0  0
 32 34  1  0  0  0  0
 32 31  1  0  0  0  0
 33 30  1  0  0  0  0
 34 30  1  0  0  0  0
M  END
>  <MODEL>
5

>  <REMARK>
 VINA RESULT:      -7.0      2.561      4.242
  Name = 
  3 active torsions:
  status: ('A' for Active; 'I' for Inactive)
    1  A    between atoms: C_17  and  O_28
    2  A    between atoms: O_28  and  C_29
    3  A    between atoms: C_29  and  C_32
                            x       y       z     vdW  Elec       q    Type
                         _______ _______ _______ _____ _____    ______ ____

>  <TORSDO>
F 3

$$$$
=
 OpenBabel11122414253D

 34 40  0  0  1  0  0  0  0  0999 V2000
  161.4110  208.4730  150.0580 C   0  0  0  0  0  0  0  0  0  0  0  0
  161.3020  207.3650  147.7770 C   0  0  0  0  0  2  0  0  0  0  0  0
  160.5820  208.2410  156.4210 C   0  0  0  0  0  0  0  0  0  0  0  0
  161.8900  209.3140  152.2810 C   0  0  0  0  0  0  0  0  0  0  0  0
  161.8400  207.7250  154.3220 C   0  0  1  0  0  3  0  0  0  0  0  0
  159.5930  206.8450  154.7280 O   0  0  0  0  0  1  0  0  0  0  0  0
  159.7290  207.8470  157.2610 O   0  0  0  0  0  0  0  0  0  0  0  0
  162.2070  210.1280  156.0270 C   0  0  0  0  0  3  0  0  0  0  0  0
  160.4610  206.1560  149.7030 C   0  0  2  0  0  3  0  0  0  0  0  0
  161.4710  203.0520  149.7890 C   0  0  0  0  0  2  0  0  0  0  0  0
  161.9480  206.6190  153.2640 C   0  0  0  0  0  2  0  0  0  0  0  0
  162.1970  210.1540  154.5500 C   0  0  0  0  0  3  0  0  0  0  0  0
  161.1460  205.7650  151.0320 C   0  0  1  0  0  3  0  0  0  0  0  0
  160.8460  205.9990  147.3000 C   0  0  0  0  0  2  0  0  0  0  0  0
  161.9790  209.1070  153.7460 C   0  0  0  0  0  0  0  0  0  0  0  0
  161.5180  209.3080  156.8290 C   0  0  0  0  0  3  0  0  0  0  0  0
  161.7950  204.1630  148.7750 C   0  0  2  0  0  3  0  0  0  0  0  0
  161.4930  208.2540  151.4430 C   0  0  0  0  0  0  0  0  0  0  0  0
  160.6260  207.6290  155.1270 N   0  0  0  0  0  0  0  0  0  0  0  0
  161.0830  206.9240  152.0400 C   0  0  2  0  0  3  0  0  0  0  0  0
  162.1460  210.7460  150.3950 C   0  0  0  0  0  3  0  0  0  0  0  0
  160.2780  203.3510  150.6990 C   0  0  0  0  0  2  0  0  0  0  0  0
  162.2030  210.5230  151.7350 N   0  0  0  0  0  0  0  0  0  0  0  0
  160.5300  204.5080  151.6670 C   0  0  0  0  0  2  0  0  0  0  0  0
  160.6240  205.1460  148.5490 C   0  0  1  0  0  3  0  0  0  0  0  0
  161.7510  209.7240  149.5330 C   0  0  0  0  0  3  0  0  0  0  0  0
  161.0060  207.4020  149.1960 N   0  0  0  0  0  0  0  0  0  0  0  0
  162.1960  203.5720  147.5720 O   0  0  0  0  0  0  0  0  0  0  0  0
  161.2810  202.5360  147.3600 C   0  0  0  0  0  2  0  0  0  0  0  0
  159.4860  201.4750  144.4690 O   0  0  0  0  0  0  0  0  0  0  0  0
  160.7990  203.3490  145.0660 C   0  0  0  0  0  2  0  0  0  0  0  0
  161.2420  202.1740  145.8870 C   0  0  2  0  0  3  0  0  0  0  0  0
  159.5220  202.8760  144.4100 C   0  0  0  0  0  2  0  0  0  0  0  0
  160.1680  201.1410  145.6480 C   0  0  0  0  0  2  0  0  0  0  0  0
  1 18  1  0  0  0  0
  2 27  1  0  0  0  0
  3 16  1  0  0  0  0
  3  7  2  0  0  0  0
  4 15  1  0  0  0  0
  5 11  1  6  0  0  0
  5 19  1  0  0  0  0
  6 19  1  0  0  0  0
  8 16  2  0  0  0  0
  9 27  1  6  0  0  0
  9 13  1  0  0  0  0
 10 22  1  0  0  0  0
 12  8  1  0  0  0  0
 13 24  1  1  0  0  0
 13 20  1  0  0  0  0
 14  2  1  0  0  0  0
 15  5  1  0  0  0  0
 15 12  2  0  0  0  0
 17 28  1  6  0  0  0
 17 10  1  0  0  0  0
 18 20  1  0  0  0  0
 18  4  2  0  0  0  0
 19  3  1  0  0  0  0
 20 11  1  1  0  0  0
 21 23  2  0  0  0  0
 22 24  1  0  0  0  0
 23  4  1  0  0  0  0
 25 14  1  6  0  0  0
 25 17  1  0  0  0  0
 25  9  1  0  0  0  0
 26  1  2  0  0  0  0
 26 21  1  0  0  0  0
 27  1  1  0  0  0  0
 29 28  1  0  0  0  0
 30 34  1  0  0  0  0
 31 32  1  0  0  0  0
 32 29  1  1  0  0  0
 33 30  1  0  0  0  0
 33 31  1  0  0  0  0
 34 32  1  0  0  0  0
M  END
>  <MODEL>
6

>  <REMARK>
 VINA RESULT:      -6.8      2.731      8.332
  Name = 
  3 active torsions:
  status: ('A' for Active; 'I' for Inactive)
    1  A    between atoms: C_17  and  O_28
    2  A    between atoms: O_28  and  C_29
    3  A    between atoms: C_29  and  C_32
                            x       y       z     vdW  Elec       q    Type
                         _______ _______ _______ _____ _____    ______ ____

>  <TORSDO>
F 3

$$$$
=
 OpenBabel11122414253D

 34 40  0  0  1  0  0  0  0  0999 V2000
  161.4880  206.0560  147.4720 C   0  0  0  0  0  0  0  0  0  0  0  0
  161.8250  208.0450  149.0120 C   0  0  0  0  0  2  0  0  0  0  0  0
  161.2590  199.7090  146.5230 C   0  0  0  0  0  0  0  0  0  0  0  0
  160.7650  204.1400  146.1720 C   0  0  0  0  0  0  0  0  0  0  0  0
  160.2980  201.8730  147.3290 C   0  0  1  0  0  3  0  0  0  0  0  0
  162.3300  200.9210  148.3050 O   0  0  0  0  0  1  0  0  0  0  0  0
  161.9130  198.6740  146.8180 O   0  0  0  0  0  0  0  0  0  0  0  0
  159.9550  200.7180  144.6150 C   0  0  0  0  0  3  0  0  0  0  0  0
  162.1980  205.8150  149.8880 C   0  0  2  0  0  3  0  0  0  0  0  0
  160.8220  205.3600  152.8140 C   0  0  0  0  0  2  0  0  0  0  0  0
  160.2290  202.7190  148.6070 C   0  0  0  0  0  2  0  0  0  0  0  0
  160.2040  202.1490  144.8800 C   0  0  0  0  0  3  0  0  0  0  0  0
  161.2680  204.5830  149.9490 C   0  0  1  0  0  3  0  0  0  0  0  0
  162.1840  208.1810  150.4790 C   0  0  0  0  0  2  0  0  0  0  0  0
  160.4190  202.7020  146.0790 C   0  0  0  0  0  0  0  0  0  0  0  0
  160.4050  199.6720  145.3190 C   0  0  0  0  0  3  0  0  0  0  0  0
  160.7980  206.5970  151.9000 C   0  0  2  0  0  3  0  0  0  0  0  0
  161.1600  204.6910  147.4070 C   0  0  0  0  0  0  0  0  0  0  0  0
  161.3480  200.8600  147.3710 N   0  0  0  0  0  0  0  0  0  0  0  0
  161.3080  203.8030  148.6250 C   0  0  2  0  0  3  0  0  0  0  0  0
  160.9870  206.2660  145.1220 C   0  0  0  0  0  3  0  0  0  0  0  0
  161.8820  204.3190  152.4480 C   0  0  0  0  0  2  0  0  0  0  0  0
  160.6900  204.9400  145.0710 N   0  0  0  0  0  0  0  0  0  0  0  0
  161.6190  203.6340  151.1060 C   0  0  0  0  0  2  0  0  0  0  0  0
  162.1000  206.7810  151.0860 C   0  0  1  0  0  3  0  0  0  0  0  0
  161.3880  206.8470  146.3240 C   0  0  0  0  0  3  0  0  0  0  0  0
  161.8930  206.6260  148.7230 N   0  0  0  0  0  0  0  0  0  0  0  0
  160.5270  207.7270  152.6770 O   0  0  0  0  0  0  0  0  0  0  0  0
  160.9210  207.3740  153.9720 C   0  0  0  0  0  2  0  0  0  0  0  0
  162.1310  209.6890  156.3970 O   0  0  0  0  0  0  0  0  0  0  0  0
  161.1020  209.8300  154.2730 C   0  0  0  0  0  2  0  0  0  0  0  0
  160.6930  208.5390  154.9180 C   0  0  2  0  0  3  0  0  0  0  0  0
  162.2110  210.3460  155.1610 C   0  0  0  0  0  2  0  0  0  0  0  0
  161.6190  208.4170  156.1030 C   0  0  0  0  0  2  0  0  0  0  0  0
  1 27  1  0  0  0  0
  2 14  1  0  0  0  0
  3  7  2  0  0  0  0
  3 19  1  0  0  0  0
  4 18  2  0  0  0  0
  5 19  1  0  0  0  0
  5 11  1  1  0  0  0
  8 12  1  0  0  0  0
  8 16  2  0  0  0  0
  9 27  1  6  0  0  0
  9 13  1  0  0  0  0
  9 25  1  0  0  0  0
 12 15  2  0  0  0  0
 13 24  1  1  0  0  0
 15  4  1  0  0  0  0
 15  5  1  0  0  0  0
 16  3  1  0  0  0  0
 17 28  1  1  0  0  0
 17 10  1  0  0  0  0
 18  1  1  0  0  0  0
 18 20  1  0  0  0  0
 19  6  1  0  0  0  0
 20 11  1  1  0  0  0
 20 13  1  0  0  0  0
 21 26  1  0  0  0  0
 22 10  1  0  0  0  0
 23 21  2  0  0  0  0
 23  4  1  0  0  0  0
 24 22  1  0  0  0  0
 25 14  1  6  0  0  0
 25 17  1  0  0  0  0
 26  1  2  0  0  0  0
 27  2  1  0  0  0  0
 28 29  1  0  0  0  0
 31 32  1  0  0  0  0
 31 33  1  0  0  0  0
 32 29  1  6  0  0  0
 32 34  1  0  0  0  0
 33 30  1  0  0  0  0
 34 30  1  0  0  0  0
M  END
>  <MODEL>
7

>  <REMARK>
 VINA RESULT:      -6.1      2.469      3.706
  Name = 
  3 active torsions:
  status: ('A' for Active; 'I' for Inactive)
    1  A    between atoms: C_17  and  O_28
    2  A    between atoms: O_28  and  C_29
    3  A    between atoms: C_29  and  C_32
                            x       y       z     vdW  Elec       q    Type
                         _______ _______ _______ _____ _____    ______ ____

>  <TORSDO>
F 3

$$$$
=
 OpenBabel11122414253D

 34 40  0  0  1  0  0  0  0  0999 V2000
  160.9890  207.2060  154.2590 C   0  0  0  0  0  0  0  0  0  0  0  0
  162.0410  205.4410  152.7690 C   0  0  0  0  0  2  0  0  0  0  0  0
  159.2140  213.2870  155.3080 C   0  0  0  0  0  0  0  0  0  0  0  0
  159.6310  208.8360  155.4340 C   0  0  0  0  0  0  0  0  0  0  0  0
  158.9190  211.0330  154.2670 C   0  0  1  0  0  3  0  0  0  0  0  0
  160.8460  212.4490  153.7510 O   0  0  0  0  0  1  0  0  0  0  0  0
  159.6740  214.4530  155.1810 O   0  0  0  0  0  0  0  0  0  0  0  0
  157.8150  211.9010  156.8820 C   0  0  0  0  0  3  0  0  0  0  0  0
  162.0850  207.7550  152.0460 C   0  0  2  0  0  3  0  0  0  0  0  0
  161.2370  208.1180  148.9140 C   0  0  0  0  0  2  0  0  0  0  0  0
  159.2830  210.2820  152.9800 C   0  0  0  0  0  2  0  0  0  0  0  0
  158.4140  210.5740  156.6360 C   0  0  0  0  0  3  0  0  0  0  0  0
  160.9410  208.7700  151.8290 C   0  0  1  0  0  3  0  0  0  0  0  0
  162.6980  205.4840  151.4030 C   0  0  0  0  0  2  0  0  0  0  0  0
  158.9720  210.1620  155.4920 C   0  0  0  0  0  0  0  0  0  0  0  0
  158.1560  213.0640  156.3130 C   0  0  0  0  0  3  0  0  0  0  0  0
  161.3050  206.8430  149.7710 C   0  0  2  0  0  3  0  0  0  0  0  0
  160.3680  208.4660  154.2910 C   0  0  0  0  0  0  0  0  0  0  0  0
  159.7130  212.2410  154.4670 N   0  0  0  0  0  0  0  0  0  0  0  0
  160.5540  209.4480  153.1540 C   0  0  2  0  0  3  0  0  0  0  0  0
  160.0990  206.7350  156.4510 C   0  0  0  0  0  3  0  0  0  0  0  0
  161.9560  209.3270  149.5160 C   0  0  0  0  0  2  0  0  0  0  0  0
  159.5190  207.9630  156.4750 N   0  0  0  0  0  0  0  0  0  0  0  0
  161.2960  209.8490  150.7930 C   0  0  0  0  0  2  0  0  0  0  0  0
  162.4330  206.8750  150.8290 C   0  0  1  0  0  3  0  0  0  0  0  0
  160.8420  206.3340  155.3420 C   0  0  0  0  0  3  0  0  0  0  0  0
  161.7430  206.8190  153.1030 N   0  0  0  0  0  0  0  0  0  0  0  0
  161.4410  205.7380  148.9250 O   0  0  0  0  0  0  0  0  0  0  0  0
  161.8100  206.2760  147.6890 C   0  0  0  0  0  2  0  0  0  0  0  0
  161.3340  203.2900  145.8010 O   0  0  0  0  0  0  0  0  0  0  0  0
  162.0660  205.4930  145.3480 C   0  0  0  0  0  2  0  0  0  0  0  0
  162.3500  205.1810  146.7880 C   0  0  2  0  0  3  0  0  0  0  0  0
  161.1880  204.3500  144.8930 C   0  0  0  0  0  2  0  0  0  0  0  0
  161.5910  203.9000  147.0370 C   0  0  0  0  0  2  0  0  0  0  0  0
  1 18  2  0  0  0  0
  1 26  1  0  0  0  0
  2 27  1  0  0  0  0
  3 16  1  0  0  0  0
  4 15  1  0  0  0  0
  4 23  2  0  0  0  0
  5 11  1  6  0  0  0
  5 19  1  0  0  0  0
  5 15  1  0  0  0  0
  6 19  1  0  0  0  0
  7  3  2  0  0  0  0
  9 27  1  1  0  0  0
 10 22  1  0  0  0  0
 10 17  1  0  0  0  0
 12  8  1  0  0  0  0
 13 24  1  6  0  0  0
 13  9  1  0  0  0  0
 13 20  1  0  0  0  0
 14  2  1  0  0  0  0
 15 12  2  0  0  0  0
 16  8  2  0  0  0  0
 17 28  1  6  0  0  0
 17 25  1  0  0  0  0
 18  4  1  0  0  0  0
 19  3  1  0  0  0  0
 20 11  1  6  0  0  0
 20 18  1  0  0  0  0
 21 23  1  0  0  0  0
 22 24  1  0  0  0  0
 25 14  1  1  0  0  0
 25  9  1  0  0  0  0
 26 21  2  0  0  0  0
 27  1  1  0  0  0  0
 29 28  1  0  0  0  0
 30 34  1  0  0  0  0
 31 32  1  0  0  0  0
 32 34  1  0  0  0  0
 32 29  1  1  0  0  0
 33 31  1  0  0  0  0
 33 30  1  0  0  0  0
M  END
>  <MODEL>
8

>  <REMARK>
 VINA RESULT:      -5.6      2.467      9.072
  Name = 
  3 active torsions:
  status: ('A' for Active; 'I' for Inactive)
    1  A    between atoms: C_17  and  O_28
    2  A    between atoms: O_28  and  C_29
    3  A    between atoms: C_29  and  C_32
                            x       y       z     vdW  Elec       q    Type
                         _______ _______ _______ _____ _____    ______ ____

>  <TORSDO>
F 3

$$$$
