=
 OpenBabel11122414093D

 28 32  0  0  1  0  0  0  0  0999 V2000
  160.8670  209.2770  156.4960 C   0  0  0  0  0  0  0  0  0  0  0  0
  157.0980  211.5770  154.0470 F   0  0  0  0  0  0  0  0  0  0  0  0
  162.3310  208.2250  152.2720 O   0  0  0  0  0  0  0  0  0  0  0  0
  163.0110  211.0770  156.4980 C   0  0  0  0  0  3  0  0  0  0  0  0
  161.1060  210.2430  151.9010 C   0  0  0  0  0  0  0  0  0  0  0  0
  159.8160  208.3610  156.4400 O   0  0  0  0  0  0  0  0  0  0  0  0
  157.5460  213.0670  155.8200 C   0  0  0  0  0  1  0  0  0  0  0  0
  157.9420  212.6100  154.4300 C   0  0  1  0  0  0  0  0  0  0  0  0
  158.3550  213.3860  152.1230 C   0  0  1  0  0  3  0  0  0  0  0  0
  159.4190  212.1550  154.4510 C   0  0  2  0  0  3  0  0  0  0  0  0
  162.1170  206.7160  154.8840 C   0  0  0  0  0  1  0  0  0  0  0  0
  159.4700  209.8580  153.5910 C   0  0  1  0  0  3  0  0  0  0  0  0
  159.7520  213.2720  152.2430 O   0  0  0  0  0  0  0  0  0  0  0  0
  157.7520  213.7690  153.4660 C   0  0  0  0  0  2  0  0  0  0  0  0
  160.6020  206.6240  154.9150 C   0  0  2  0  0  3  0  0  0  0  0  0
  160.7830  210.4540  155.7390 C   0  0  0  0  0  0  0  0  0  0  0  0
  161.3850  209.0020  152.5670 C   0  0  0  0  0  0  0  0  0  0  0  0
  158.0250  214.4530  151.1010 C   0  0  0  0  0  1  0  0  0  0  0  0
  159.9170  207.3530  153.7470 C   0  0  0  0  0  2  0  0  0  0  0  0
  161.8710  211.3450  155.7360 C   0  0  0  0  0  3  0  0  0  0  0  0
  162.0140  209.0090  157.2580 C   0  0  0  0  0  3  0  0  0  0  0  0
  163.0810  209.9100  157.2610 C   0  0  0  0  0  3  0  0  0  0  0  0
  160.0310  206.9640  156.2940 C   0  0  0  0  0  2  0  0  0  0  0  0
  159.8360  210.8090  152.4240 C   0  0  1  0  0  3  0  0  0  0  0  0
  160.4030  208.7200  153.5500 N   0  0  0  0  0  0  0  0  0  0  0  0
  160.0770  212.1670  153.0650 C   0  0  2  0  0  3  0  0  0  0  0  0
  161.8000  210.7440  150.9770 O   0  0  0  0  0  0  0  0  0  0  0  0
  159.5480  210.6970  154.8920 C   0  0  1  0  0  3  0  0  0  0  0  0
  1 21  1  0  0  0  0
  2  8  1  0  0  0  0
  3 17  2  0  0  0  0
  4 22  1  0  0  0  0
  5 24  1  0  0  0  0
  5 17  1  0  0  0  0
  6  1  1  0  0  0  0
  8 10  1  0  0  0  0
  8  7  1  1  0  0  0
  9 18  1  6  0  0  0
  9 13  1  0  0  0  0
  9 14  1  0  0  0  0
 10 28  1  0  0  0  0
 11 15  1  0  0  0  0
 12 28  1  0  0  0  0
 13 26  1  0  0  0  0
 14  8  1  0  0  0  0
 15 23  1  0  0  0  0
 16  1  2  0  0  0  0
 17 25  1  0  0  0  0
 19 15  1  0  0  0  0
 20 16  1  0  0  0  0
 20  4  2  0  0  0  0
 21 22  2  0  0  0  0
 23  6  1  0  0  0  0
 24 26  1  0  0  0  0
 24 12  1  0  0  0  0
 25 12  1  0  0  0  0
 25 19  1  0  0  0  0
 26 10  1  0  0  0  0
 27  5  2  0  0  0  0
 28 16  1  0  0  0  0
M  END
>  <MODEL>
1

>  <REMARK>
 VINA RESULT:      -2.3      0.000      0.000
  Name = 
  0 active torsions:
  status: ('A' for Active; 'I' for Inactive)
                            x       y       z     vdW  Elec       q    Type
                         _______ _______ _______ _____ _____    ______ ____

>  <TORSDO>
F 0

$$$$
=
 OpenBabel11122414093D

 28 32  0  0  1  0  0  0  0  0999 V2000
  161.7570  210.0260  154.1720 C   0  0  0  0  0  0  0  0  0  0  0  0
  160.4250  214.2440  151.7370 F   0  0  0  0  0  0  0  0  0  0  0  0
  157.8660  210.7180  156.5110 O   0  0  0  0  0  0  0  0  0  0  0  0
  160.3380  207.9420  152.9570 C   0  0  0  0  0  3  0  0  0  0  0  0
  157.3990  211.7740  154.4190 C   0  0  0  0  0  0  0  0  0  0  0  0
  162.4160  211.0760  154.8120 O   0  0  0  0  0  0  0  0  0  0  0  0
  161.3050  212.9060  150.0060 C   0  0  0  0  0  1  0  0  0  0  0  0
  160.0940  213.2210  150.8610 C   0  0  1  0  0  0  0  0  0  0  0  0
  157.6970  213.8080  150.7770 C   0  0  1  0  0  3  0  0  0  0  0  0
  159.6660  211.9430  151.6190 C   0  0  2  0  0  3  0  0  0  0  0  0
  160.6770  209.8900  157.2600 C   0  0  0  0  0  1  0  0  0  0  0  0
  159.6280  212.5100  154.0060 C   0  0  1  0  0  3  0  0  0  0  0  0
  157.2800  212.5240  151.1710 O   0  0  0  0  0  0  0  0  0  0  0  0
  158.9740  213.7060  149.9560 C   0  0  0  0  0  2  0  0  0  0  0  0
  161.3360  211.2320  156.9970 C   0  0  2  0  0  3  0  0  0  0  0  0
  160.7680  210.3230  153.2240 C   0  0  0  0  0  0  0  0  0  0  0  0
  158.2520  211.3510  155.4930 C   0  0  0  0  0  0  0  0  0  0  0  0
  156.6130  214.4530  149.9400 C   0  0  0  0  0  1  0  0  0  0  0  0
  160.3730  212.2910  156.4340 C   0  0  0  0  0  2  0  0  0  0  0  0
  160.0510  209.2690  152.6300 C   0  0  0  0  0  3  0  0  0  0  0  0
  162.0410  208.6920  154.5010 C   0  0  0  0  0  3  0  0  0  0  0  0
  161.3350  207.6540  153.8910 C   0  0  0  0  0  3  0  0  0  0  0  0
  162.6450  211.0890  156.2150 C   0  0  0  0  0  2  0  0  0  0  0  0
  158.1780  212.6120  153.4710 C   0  0  1  0  0  3  0  0  0  0  0  0
  159.5800  211.8120  155.3010 N   0  0  0  0  0  0  0  0  0  0  0  0
  158.2070  211.9770  152.0900 C   0  0  2  0  0  3  0  0  0  0  0  0
  156.1690  211.5200  154.3250 O   0  0  0  0  0  0  0  0  0  0  0  0
  160.4540  211.7760  152.9190 C   0  0  1  0  0  3  0  0  0  0  0  0
  1 21  1  0  0  0  0
  1  6  1  0  0  0  0
  4 22  1  0  0  0  0
  5 17  1  0  0  0  0
  6 23  1  0  0  0  0
  8  7  1  6  0  0  0
  8 10  1  0  0  0  0
  8  2  1  0  0  0  0
  9 18  1  6  0  0  0
  9 13  1  0  0  0  0
 10 26  1  0  0  0  0
 10 28  1  0  0  0  0
 12 25  1  0  0  0  0
 13 26  1  0  0  0  0
 14  9  1  0  0  0  0
 14  8  1  0  0  0  0
 15 11  1  0  0  0  0
 16  1  2  0  0  0  0
 17  3  2  0  0  0  0
 19 15  1  0  0  0  0
 20  4  2  0  0  0  0
 20 16  1  0  0  0  0
 22 21  2  0  0  0  0
 23 15  1  0  0  0  0
 24 12  1  0  0  0  0
 24  5  1  0  0  0  0
 25 17  1  0  0  0  0
 25 19  1  0  0  0  0
 26 24  1  0  0  0  0
 27  5  2  0  0  0  0
 28 16  1  0  0  0  0
 28 12  1  0  0  0  0
M  END
>  <MODEL>
2

>  <REMARK>
 VINA RESULT:      -1.7      2.244      4.226
  Name = 
  0 active torsions:
  status: ('A' for Active; 'I' for Inactive)
                            x       y       z     vdW  Elec       q    Type
                         _______ _______ _______ _____ _____    ______ ____

>  <TORSDO>
F 0

$$$$
=
 OpenBabel11122414093D

 28 32  0  0  1  0  0  0  0  0999 V2000
  157.3140  211.4060  156.2330 C   0  0  0  0  0  0  0  0  0  0  0  0
  161.9770  210.0980  154.8060 F   0  0  0  0  0  0  0  0  0  0  0  0
  157.4410  214.0860  152.5050 O   0  0  0  0  0  0  0  0  0  0  0  0
  155.5640  209.8370  154.7130 C   0  0  0  0  0  3  0  0  0  0  0  0
  158.9500  212.3270  151.9220 C   0  0  0  0  0  0  0  0  0  0  0  0
  158.1890  212.2270  156.9450 O   0  0  0  0  0  0  0  0  0  0  0  0
  161.0760  208.0520  155.5580 C   0  0  0  0  0  1  0  0  0  0  0  0
  161.1830  209.0330  154.4070 C   0  0  1  0  0  0  0  0  0  0  0  0
  161.7700  209.2400  152.0180 C   0  0  1  0  0  3  0  0  0  0  0  0
  159.7650  209.5030  154.0110 C   0  0  2  0  0  3  0  0  0  0  0  0
  156.4670  214.4420  155.3470 C   0  0  0  0  0  1  0  0  0  0  0  0
  159.7660  211.9530  154.1300 C   0  0  1  0  0  3  0  0  0  0  0  0
  160.4290  209.3540  151.6090 O   0  0  0  0  0  0  0  0  0  0  0  0
  161.8620  208.3380  153.2390 C   0  0  0  0  0  2  0  0  0  0  0  0
  157.8350  214.4530  156.0060 C   0  0  2  0  0  3  0  0  0  0  0  0
  157.8200  210.6170  155.1900 C   0  0  0  0  0  0  0  0  0  0  0  0
  158.2920  213.2180  152.8360 C   0  0  0  0  0  0  0  0  0  0  0  0
  162.5890  208.6460  150.8910 C   0  0  0  0  0  1  0  0  0  0  0  0
  158.9930  214.2130  155.0240 C   0  0  0  0  0  2  0  0  0  0  0  0
  156.9300  209.8430  154.4240 C   0  0  0  0  0  3  0  0  0  0  0  0
  155.9410  211.4000  156.5190 C   0  0  0  0  0  3  0  0  0  0  0  0
  155.0700  210.6130  155.7630 C   0  0  0  0  0  3  0  0  0  0  0  0
  157.8780  213.5770  157.2610 C   0  0  0  0  0  2  0  0  0  0  0  0
  159.9860  211.5500  152.6510 C   0  0  1  0  0  3  0  0  0  0  0  0
  158.7870  213.0530  154.1540 N   0  0  0  0  0  0  0  0  0  0  0  0
  159.6860  210.0610  152.5850 C   0  0  2  0  0  3  0  0  0  0  0  0
  158.7230  212.2560  150.6850 O   0  0  0  0  0  0  0  0  0  0  0  0
  159.3030  210.6750  154.8770 C   0  0  1  0  0  3  0  0  0  0  0  0
  1 21  1  0  0  0  0
  1  6  1  0  0  0  0
  3 17  2  0  0  0  0
  4 22  1  0  0  0  0
  5 24  1  0  0  0  0
  5 17  1  0  0  0  0
  6 23  1  0  0  0  0
  8  2  1  0  0  0  0
  8  7  1  1  0  0  0
  9 18  1  6  0  0  0
  9 14  1  0  0  0  0
 10  8  1  0  0  0  0
 10 28  1  0  0  0  0
 11 15  1  0  0  0  0
 12 25  1  0  0  0  0
 12 28  1  0  0  0  0
 13  9  1  0  0  0  0
 13 26  1  0  0  0  0
 14  8  1  0  0  0  0
 15 23  1  0  0  0  0
 16  1  2  0  0  0  0
 17 25  1  0  0  0  0
 19 15  1  0  0  0  0
 20  4  2  0  0  0  0
 20 16  1  0  0  0  0
 22 21  2  0  0  0  0
 24 12  1  0  0  0  0
 25 19  1  0  0  0  0
 26 24  1  0  0  0  0
 26 10  1  0  0  0  0
 27  5  2  0  0  0  0
 28 16  1  0  0  0  0
M  END
>  <MODEL>
3

>  <REMARK>
 VINA RESULT:      -1.5      2.339      5.616
  Name = 
  0 active torsions:
  status: ('A' for Active; 'I' for Inactive)
                            x       y       z     vdW  Elec       q    Type
                         _______ _______ _______ _____ _____    ______ ____

>  <TORSDO>
F 0

$$$$
=
 OpenBabel11122414093D

 28 32  0  0  1  0  0  0  0  0999 V2000
  160.4020  210.0990  156.0540 C   0  0  0  0  0  0  0  0  0  0  0  0
  155.5550  210.6500  154.7520 F   0  0  0  0  0  0  0  0  0  0  0  0
  161.2230  211.9230  151.9190 O   0  0  0  0  0  0  0  0  0  0  0  0
  161.2390  212.5900  157.0190 C   0  0  0  0  0  3  0  0  0  0  0  0
  159.0820  212.8340  152.4650 C   0  0  0  0  0  0  0  0  0  0  0  0
  159.9960  208.8770  155.5170 O   0  0  0  0  0  0  0  0  0  0  0  0
  155.5430  211.2310  157.0380 C   0  0  0  0  0  1  0  0  0  0  0  0
  155.8000  211.7030  155.6200 C   0  0  1  0  0  0  0  0  0  0  0  0
  155.2300  213.4500  153.9710 C   0  0  1  0  0  3  0  0  0  0  0  0
  157.2610  212.1980  155.5110 C   0  0  2  0  0  3  0  0  0  0  0  0
  162.4060  209.6360  153.5070 C   0  0  0  0  0  1  0  0  0  0  0  0
  158.3040  210.9390  153.6820 C   0  0  1  0  0  3  0  0  0  0  0  0
  156.4690  214.1020  154.1040 O   0  0  0  0  0  0  0  0  0  0  0  0
  154.8290  212.8280  155.3000 C   0  0  0  0  0  2  0  0  0  0  0  0
  161.2090  208.7080  153.4040 C   0  0  2  0  0  3  0  0  0  0  0  0
  159.5540  211.2090  155.9310 C   0  0  0  0  0  0  0  0  0  0  0  0
  160.1040  211.8260  152.4880 C   0  0  0  0  0  0  0  0  0  0  0  0
  154.1770  214.4530  153.5490 C   0  0  0  0  0  1  0  0  0  0  0  0
  160.0070  209.3310  152.6760 C   0  0  0  0  0  2  0  0  0  0  0  0
  159.9900  212.4590  156.4070 C   0  0  0  0  0  3  0  0  0  0  0  0
  161.6560  210.2340  156.6670 C   0  0  0  0  0  3  0  0  0  0  0  0
  162.0700  211.4760  157.1520 C   0  0  0  0  0  3  0  0  0  0  0  0
  160.8660  208.0580  154.7480 C   0  0  0  0  0  2  0  0  0  0  0  0
  157.8550  212.3100  153.1180 C   0  0  1  0  0  3  0  0  0  0  0  0
  159.6560  210.6640  153.1680 N   0  0  0  0  0  0  0  0  0  0  0  0
  157.4920  213.1510  154.3320 C   0  0  2  0  0  3  0  0  0  0  0  0
  159.1920  213.9660  151.9230 O   0  0  0  0  0  0  0  0  0  0  0  0
  158.2210  211.0420  155.2270 C   0  0  1  0  0  3  0  0  0  0  0  0
  1 21  1  0  0  0  0
  2  8  1  0  0  0  0
  3 17  2  0  0  0  0
  4 22  1  0  0  0  0
  5 17  1  0  0  0  0
  5 24  1  0  0  0  0
  6  1  1  0  0  0  0
  8  7  1  1  0  0  0
  9 18  1  1  0  0  0
  9 13  1  0  0  0  0
  9 14  1  0  0  0  0
 10  8  1  0  0  0  0
 12 28  1  0  0  0  0
 13 26  1  0  0  0  0
 14  8  1  0  0  0  0
 15 11  1  0  0  0  0
 15 23  1  0  0  0  0
 16  1  2  0  0  0  0
 16 20  1  0  0  0  0
 17 25  1  0  0  0  0
 19 25  1  0  0  0  0
 19 15  1  0  0  0  0
 20  4  2  0  0  0  0
 21 22  2  0  0  0  0
 23  6  1  0  0  0  0
 24 12  1  0  0  0  0
 24 26  1  0  0  0  0
 25 12  1  0  0  0  0
 26 10  1  0  0  0  0
 27  5  2  0  0  0  0
 28 10  1  0  0  0  0
 28 16  1  0  0  0  0
M  END
>  <MODEL>
4

>  <REMARK>
 VINA RESULT:       0.6      1.869      2.760
  Name = 
  0 active torsions:
  status: ('A' for Active; 'I' for Inactive)
                            x       y       z     vdW  Elec       q    Type
                         _______ _______ _______ _____ _____    ______ ____

>  <TORSDO>
F 0

$$$$
