=
 OpenBabel11122412493D

 32 37  0  0  1  0  0  0  0  0999 V2000
  159.1960  209.5670  156.1590 C   0  0  0  0  0  2  0  0  0  0  0  0
  161.4460  205.7620  152.6820 C   0  0  1  0  0  3  0  0  0  0  0  0
  161.6370  209.9150  149.9540 C   0  0  0  0  0  2  0  0  0  0  0  0
  161.6820  209.1090  148.6490 C   0  0  0  0  0  2  0  0  0  0  0  0
  160.7980  203.6150  151.4980 C   0  0  0  0  0  0  0  0  0  0  0  0
  160.9490  202.7770  150.2960 C   0  0  0  0  0  0  0  0  0  0  0  0
  160.6130  206.9230  154.7630 C   0  0  1  0  0  3  0  0  0  0  0  0
  162.5340  207.8250  153.7180 C   0  0  0  0  0  2  0  0  0  0  0  0
  161.3320  202.2490  148.0570 C   0  0  1  0  0  3  0  0  0  0  0  0
  161.5550  209.0170  155.4660 C   0  0  0  0  0  2  0  0  0  0  0  0
  162.3890  209.1960  151.0760 C   0  0  0  0  0  2  0  0  0  0  0  0
  162.3380  207.0060  152.4360 C   0  0  2  0  0  3  0  0  0  0  0  0
  161.7820  207.8080  151.2600 C   0  0  2  0  0  3  0  0  0  0  0  0
  161.7810  205.4950  150.1380 C   0  0  2  0  0  3  0  0  0  0  0  0
  161.1430  200.9340  148.8150 C   0  0  0  0  0  3  0  0  0  0  0  0
  158.6130  208.4290  155.3260 C   0  0  0  0  0  2  0  0  0  0  0  0
  161.2510  208.1730  154.3190 N   0  0  2  0  0  0  0  0  0  0  0  0
  160.8550  201.2980  150.2710 C   0  0  0  0  0  3  0  0  0  0  0  0
  159.3630  207.1370  155.6320 C   0  0  0  0  0  2  0  0  0  0  0  0
  160.4990  210.1090  155.5740 C   0  0  2  0  0  3  0  0  0  0  0  0
  161.1640  207.6840  148.8570 C   0  0  0  0  0  2  0  0  0  0  0  0
  161.9810  207.0180  149.9620 C   0  0  1  0  0  3  0  0  0  0  0  0
  161.3330  204.7650  148.8630 C   0  0  0  0  0  2  0  0  0  0  0  0
  160.2230  206.0990  153.5420 C   0  0  0  0  0  2  0  0  0  0  0  0
  160.4960  203.0840  152.6010 O   0  0  0  0  0  0  0  0  0  0  0  0
  160.2170  202.4070  147.0410 C   0  0  0  0  0  1  0  0  0  0  0  0
  160.9320  205.1150  151.3740 C   0  0  2  0  0  3  0  0  0  0  0  0
  161.2200  203.2880  149.1100 C   0  0  0  0  0  0  0  0  0  0  0  0
  161.0060  211.1820  156.4160 N   0  0  0  0  0  2  0  0  0  0  0  0
  160.4600  212.5020  156.3940 C   0  0  0  0  0  0  0  0  0  0  0  0
  159.5170  212.7930  155.6120 O   0  0  0  0  0  0  0  0  0  0  0  0
  160.9900  213.4970  157.2610 N   0  0  0  0  0  1  0  0  0  0  0  0
  2 24  1  1  0  0  0
  3 11  1  0  0  0  0
  4 21  1  0  0  0  0
  4  3  1  0  0  0  0
  5 25  2  0  0  0  0
  6  5  1  0  0  0  0
  7 24  1  6  0  0  0
  7 19  1  0  0  0  0
  9 26  1  6  0  0  0
  9 15  1  0  0  0  0
  9 28  1  0  0  0  0
 10 20  1  0  0  0  0
 12  2  1  0  0  0  0
 12  8  1  1  0  0  0
 13 11  1  6  0  0  0
 13 12  1  0  0  0  0
 14 23  1  6  0  0  0
 14 27  1  0  0  0  0
 15 18  2  0  0  0  0
 16 19  1  0  0  0  0
 16  1  1  0  0  0  0
 17  8  1  1  0  0  0
 17  7  1  0  0  0  0
 17 10  1  0  0  0  0
 18  6  1  0  0  0  0
 20  1  1  0  0  0  0
 20 29  1  1  0  0  0
 22 21  1  6  0  0  0
 22 14  1  0  0  0  0
 22 13  1  0  0  0  0
 23 28  1  0  0  0  0
 27  5  1  1  0  0  0
 27  2  1  0  0  0  0
 28  6  2  0  0  0  0
 30 29  1  0  0  0  0
 30 32  1  0  0  0  0
 31 30  2  0  0  0  0
M  END
>  <MODEL>
1

>  <REMARK>
 VINA RESULT:      -5.6      0.000      0.000
  Name = 
  1 active torsions:
  status: ('A' for Active; 'I' for Inactive)
    1  A    between atoms: C_20  and  N_29
                            x       y       z     vdW  Elec       q    Type
                         _______ _______ _______ _____ _____    ______ ____

>  <TORSDO>
F 1

$$$$
=
 OpenBabel11122412493D

 32 37  0  0  1  0  0  0  0  0999 V2000
  159.2980  210.6050  155.4900 C   0  0  0  0  0  2  0  0  0  0  0  0
  161.7930  207.7790  151.3170 C   0  0  1  0  0  3  0  0  0  0  0  0
  161.3010  212.3220  149.3560 C   0  0  0  0  0  2  0  0  0  0  0  0
  161.3680  211.7630  147.9300 C   0  0  0  0  0  2  0  0  0  0  0  0
  161.3490  205.7970  149.7980 C   0  0  0  0  0  0  0  0  0  0  0  0
  161.5310  205.2020  148.4630 C   0  0  0  0  0  0  0  0  0  0  0  0
  160.9480  208.4490  153.5990 C   0  0  1  0  0  3  0  0  0  0  0  0
  162.6750  209.7620  152.6580 C   0  0  0  0  0  2  0  0  0  0  0  0
  161.8420  205.1170  146.1530 C   0  0  1  0  0  3  0  0  0  0  0  0
  161.6620  210.5000  154.6240 C   0  0  0  0  0  2  0  0  0  0  0  0
  162.2030  211.5300  150.3050 C   0  0  0  0  0  2  0  0  0  0  0  0
  162.5060  209.1540  151.2600 C   0  0  2  0  0  3  0  0  0  0  0  0
  161.7860  210.0630  150.2650 C   0  0  2  0  0  3  0  0  0  0  0  0
  162.0060  207.9940  148.7540 C   0  0  2  0  0  3  0  0  0  0  0  0
  161.8650  203.6800  146.6740 C   0  0  0  0  0  3  0  0  0  0  0  0
  158.8140  209.5580  154.4930 C   0  0  0  0  0  2  0  0  0  0  0  0
  161.3970  209.8300  153.3580 N   0  0  2  0  0  0  0  0  0  0  0  0
  161.6210  203.7500  148.1820 C   0  0  0  0  0  3  0  0  0  0  0  0
  159.7350  208.3440  154.5380 C   0  0  0  0  0  2  0  0  0  0  0  0
  160.4870  211.4070  154.9610 C   0  0  2  0  0  3  0  0  0  0  0  0
  161.0450  210.2670  147.9030 C   0  0  0  0  0  2  0  0  0  0  0  0
  162.0040  209.5380  148.8420 C   0  0  1  0  0  3  0  0  0  0  0  0
  161.5770  207.4380  147.3880 C   0  0  0  0  0  2  0  0  0  0  0  0
  160.5910  207.7990  152.2670 C   0  0  0  0  0  2  0  0  0  0  0  0
  161.1820  205.0510  150.8010 O   0  0  0  0  0  0  0  0  0  0  0  0
  160.6570  205.2960  145.2230 C   0  0  0  0  0  1  0  0  0  0  0  0
  161.2870  207.3010  149.9350 C   0  0  2  0  0  3  0  0  0  0  0  0
  161.6650  205.9390  147.3760 C   0  0  0  0  0  0  0  0  0  0  0  0
  160.9050  212.3800  155.9590 N   0  0  0  0  0  2  0  0  0  0  0  0
  160.1490  213.5550  156.2540 C   0  0  0  0  0  0  0  0  0  0  0  0
  159.0830  213.8060  155.6310 O   0  0  0  0  0  0  0  0  0  0  0  0
  160.6050  214.4520  157.2590 N   0  0  0  0  0  1  0  0  0  0  0  0
  2 24  1  1  0  0  0
  3 11  1  0  0  0  0
  4  3  1  0  0  0  0
  5 25  2  0  0  0  0
  6  5  1  0  0  0  0
  7 24  1  6  0  0  0
  7 19  1  0  0  0  0
  9 26  1  6  0  0  0
  9 15  1  0  0  0  0
  9 28  1  0  0  0  0
 10 20  1  0  0  0  0
 12  2  1  0  0  0  0
 12  8  1  1  0  0  0
 13 11  1  6  0  0  0
 13 12  1  0  0  0  0
 14 23  1  6  0  0  0
 14 22  1  0  0  0  0
 14 27  1  0  0  0  0
 15 18  2  0  0  0  0
 16 19  1  0  0  0  0
 16  1  1  0  0  0  0
 17  8  1  6  0  0  0
 17  7  1  0  0  0  0
 17 10  1  0  0  0  0
 18  6  1  0  0  0  0
 20  1  1  0  0  0  0
 20 29  1  1  0  0  0
 21  4  1  0  0  0  0
 22 21  1  6  0  0  0
 22 13  1  0  0  0  0
 27  5  1  6  0  0  0
 27  2  1  0  0  0  0
 28 23  1  0  0  0  0
 28  6  2  0  0  0  0
 29 30  1  0  0  0  0
 30 32  1  0  0  0  0
 31 30  2  0  0  0  0
M  END
>  <MODEL>
2

>  <REMARK>
 VINA RESULT:      -4.7      1.696      2.464
  Name = 
  1 active torsions:
  status: ('A' for Active; 'I' for Inactive)
    1  A    between atoms: C_20  and  N_29
                            x       y       z     vdW  Elec       q    Type
                         _______ _______ _______ _____ _____    ______ ____

>  <TORSDO>
F 1

$$$$
=
 OpenBabel11122412493D

 32 37  0  0  1  0  0  0  0  0999 V2000
  159.3430  208.9780  156.2160 C   0  0  0  0  0  2  0  0  0  0  0  0
  161.5200  205.3620  152.4990 C   0  0  1  0  0  3  0  0  0  0  0  0
  161.6690  209.6550  149.9940 C   0  0  0  0  0  2  0  0  0  0  0  0
  161.6890  208.9200  148.6480 C   0  0  0  0  0  2  0  0  0  0  0  0
  160.8460  203.2820  151.2150 C   0  0  0  0  0  0  0  0  0  0  0  0
  160.9730  202.5090  149.9670 C   0  0  0  0  0  0  0  0  0  0  0  0
  160.7280  206.4110  154.6550 C   0  0  1  0  0  3  0  0  0  0  0  0
  162.6310  207.3650  153.6230 C   0  0  0  0  0  2  0  0  0  0  0  0
  161.3130  202.1010  147.6960 C   0  0  1  0  0  3  0  0  0  0  0  0
  161.6880  208.4630  155.4510 C   0  0  0  0  0  2  0  0  0  0  0  0
  162.4400  208.8760  151.0620 C   0  0  0  0  0  2  0  0  0  0  0  0
  162.4100  206.6160  152.3030 C   0  0  2  0  0  3  0  0  0  0  0  0
  161.8340  207.4810  151.1830 C   0  0  2  0  0  3  0  0  0  0  0  0
  161.8070  205.2310  149.9390 C   0  0  2  0  0  3  0  0  0  0  0  0
  161.1360  200.7480  148.3860 C   0  0  0  0  0  3  0  0  0  0  0  0
  158.7430  207.8870  155.3350 C   0  0  0  0  0  2  0  0  0  0  0  0
  161.3610  207.6820  154.2660 N   0  0  2  0  0  0  0  0  0  0  0  0
  160.8750  201.0340  149.8650 C   0  0  0  0  0  3  0  0  0  0  0  0
  159.4950  206.5790  155.5570 C   0  0  0  0  0  2  0  0  0  0  0  0
  160.6370  209.5490  155.6370 C   0  0  2  0  0  3  0  0  0  0  0  0
  161.1710  207.4860  148.7890 C   0  0  0  0  0  2  0  0  0  0  0  0
  162.0070  206.7610  149.8410 C   0  0  1  0  0  3  0  0  0  0  0  0
  161.3340  204.5710  148.6350 C   0  0  0  0  0  2  0  0  0  0  0  0
  160.3140  205.6540  153.3980 C   0  0  0  0  0  2  0  0  0  0  0  0
  160.5630  202.6930  152.2930 O   0  0  0  0  0  0  0  0  0  0  0  0
  160.1790  202.3150  146.7110 C   0  0  0  0  0  1  0  0  0  0  0  0
  160.9810  204.7860  151.1680 C   0  0  2  0  0  3  0  0  0  0  0  0
  161.2230  203.0830  148.8050 C   0  0  0  0  0  0  0  0  0  0  0  0
  161.1610  210.5750  156.5250 N   0  0  0  0  0  2  0  0  0  0  0  0
  162.4660  211.1360  156.3690 C   0  0  0  0  0  0  0  0  0  0  0  0
  163.2310  210.7360  155.4520 O   0  0  0  0  0  0  0  0  0  0  0  0
  162.9060  212.1530  157.2610 N   0  0  0  0  0  1  0  0  0  0  0  0
  2 24  1  1  0  0  0
  3 11  1  0  0  0  0
  4 21  1  0  0  0  0
  4  3  1  0  0  0  0
  5 25  2  0  0  0  0
  6  5  1  0  0  0  0
  7 24  1  6  0  0  0
  7 19  1  0  0  0  0
  9 26  1  6  0  0  0
  9 15  1  0  0  0  0
  9 28  1  0  0  0  0
 10 20  1  0  0  0  0
 12  2  1  0  0  0  0
 12  8  1  1  0  0  0
 13 11  1  6  0  0  0
 13 12  1  0  0  0  0
 14 23  1  6  0  0  0
 14 27  1  0  0  0  0
 15 18  2  0  0  0  0
 16 19  1  0  0  0  0
 16  1  1  0  0  0  0
 17  8  1  1  0  0  0
 17  7  1  0  0  0  0
 17 10  1  0  0  0  0
 18  6  1  0  0  0  0
 20  1  1  0  0  0  0
 20 29  1  1  0  0  0
 22 21  1  6  0  0  0
 22 14  1  0  0  0  0
 22 13  1  0  0  0  0
 23 28  1  0  0  0  0
 27  5  1  1  0  0  0
 27  2  1  0  0  0  0
 28  6  2  0  0  0  0
 30 29  1  0  0  0  0
 30 32  1  0  0  0  0
 31 30  2  0  0  0  0
M  END
>  <MODEL>
3

>  <REMARK>
 VINA RESULT:      -4.6      1.048      1.048
  Name = 
  1 active torsions:
  status: ('A' for Active; 'I' for Inactive)
    1  A    between atoms: C_20  and  N_29
                            x       y       z     vdW  Elec       q    Type
                         _______ _______ _______ _____ _____    ______ ____

>  <TORSDO>
F 1

$$$$
=
 OpenBabel11122412493D

 32 37  0  0  1  0  0  0  0  0999 V2000
  161.9900  200.9140  149.1530 C   0  0  0  0  0  2  0  0  0  0  0  0
  160.4560  205.5000  152.0240 C   0  0  1  0  0  3  0  0  0  0  0  0
  162.4000  207.4570  147.8860 C   0  0  0  0  0  2  0  0  0  0  0  0
  162.6820  208.7880  148.5950 C   0  0  0  0  0  2  0  0  0  0  0  0
  160.9720  206.6600  154.2190 C   0  0  0  0  0  0  0  0  0  0  0  0
  161.1130  207.9410  154.9330 C   0  0  0  0  0  0  0  0  0  0  0  0
  160.6460  203.1120  151.2290 C   0  0  1  0  0  3  0  0  0  0  0  0
  159.5900  204.6530  149.7780 C   0  0  0  0  0  2  0  0  0  0  0  0
  161.5390  210.2130  155.2440 C   0  0  1  0  0  3  0  0  0  0  0  0
  160.0490  202.5100  148.9810 C   0  0  0  0  0  2  0  0  0  0  0  0
  161.1100  206.8160  148.4040 C   0  0  0  0  0  2  0  0  0  0  0  0
  160.0730  205.8750  150.5690 C   0  0  2  0  0  3  0  0  0  0  0  0
  161.2310  206.6260  149.9130 C   0  0  2  0  0  3  0  0  0  0  0  0
  161.1110  207.9950  152.0870 C   0  0  2  0  0  3  0  0  0  0  0  0
  161.0800  209.6420  156.5860 C   0  0  0  0  0  3  0  0  0  0  0  0
  162.5570  201.6270  150.3760 C   0  0  0  0  0  2  0  0  0  0  0  0
  160.5680  203.5720  149.8330 N   0  0  2  0  0  0  0  0  0  0  0  0
  160.8420  208.1470  156.3750 C   0  0  0  0  0  3  0  0  0  0  0  0
  161.4550  201.8170  151.4130 C   0  0  0  0  0  2  0  0  0  0  0  0
  161.2060  201.8560  148.2400 C   0  0  2  0  0  3  0  0  0  0  0  0
  162.7060  208.6140  150.1160 C   0  0  0  0  0  2  0  0  0  0  0  0
  161.3790  208.0050  150.5640 C   0  0  1  0  0  3  0  0  0  0  0  0
  161.8360  209.1030  152.8640 C   0  0  0  0  0  2  0  0  0  0  0  0
  161.2750  204.2070  152.0820 C   0  0  0  0  0  2  0  0  0  0  0  0
  160.6680  205.6150  154.8560 O   0  0  0  0  0  0  0  0  0  0  0  0
  162.9690  210.7030  155.3700 C   0  0  0  0  0  1  0  0  0  0  0  0
  161.2730  206.6020  152.7390 C   0  0  2  0  0  3  0  0  0  0  0  0
  161.4730  209.0530  154.3200 C   0  0  0  0  0  0  0  0  0  0  0  0
  160.6870  201.1160  147.1000 N   0  0  0  0  0  2  0  0  0  0  0  0
  160.5770  201.6870  145.7960 C   0  0  0  0  0  0  0  0  0  0  0  0
  160.9110  202.8840  145.5890 O   0  0  0  0  0  0  0  0  0  0  0  0
  160.0810  200.8980  144.7210 N   0  0  0  0  0  1  0  0  0  0  0  0
  1 16  1  0  0  0  0
  2 24  1  6  0  0  0
  2 27  1  0  0  0  0
  3 11  1  0  0  0  0
  3  4  1  0  0  0  0
  4 21  1  0  0  0  0
  5 25  2  0  0  0  0
  5  6  1  0  0  0  0
  6 18  1  0  0  0  0
  7 19  1  6  0  0  0
  7 24  1  0  0  0  0
  8 17  1  0  0  0  0
  9 26  1  1  0  0  0
  9 15  1  0  0  0  0
 12  8  1  6  0  0  0
 12  2  1  0  0  0  0
 13 11  1  6  0  0  0
 13 22  1  0  0  0  0
 13 12  1  0  0  0  0
 14 27  1  0  0  0  0
 14 23  1  1  0  0  0
 16 19  1  0  0  0  0
 17 10  1  6  0  0  0
 17  7  1  0  0  0  0
 18 15  2  0  0  0  0
 20 29  1  6  0  0  0
 20 10  1  0  0  0  0
 20  1  1  0  0  0  0
 22 21  1  1  0  0  0
 22 14  1  0  0  0  0
 23 28  1  0  0  0  0
 27  5  1  1  0  0  0
 28  6  2  0  0  0  0
 28  9  1  0  0  0  0
 30 29  1  0  0  0  0
 31 30  2  0  0  0  0
 32 30  1  0  0  0  0
M  END
>  <MODEL>
4

>  <REMARK>
 VINA RESULT:      -3.8      3.603      8.363
  Name = 
  1 active torsions:
  status: ('A' for Active; 'I' for Inactive)
    1  A    between atoms: C_20  and  N_29
                            x       y       z     vdW  Elec       q    Type
                         _______ _______ _______ _____ _____    ______ ____

>  <TORSDO>
F 1

$$$$
=
 OpenBabel11122412493D

 32 37  0  0  1  0  0  0  0  0999 V2000
  159.8780  207.8430  155.7320 C   0  0  0  0  0  2  0  0  0  0  0  0
  161.7750  204.7240  151.4540 C   0  0  1  0  0  3  0  0  0  0  0  0
  161.6690  209.2800  149.4630 C   0  0  0  0  0  2  0  0  0  0  0  0
  161.5840  208.7060  148.0430 C   0  0  0  0  0  2  0  0  0  0  0  0
  161.0190  202.7940  149.9950 C   0  0  0  0  0  0  0  0  0  0  0  0
  161.0490  202.1730  148.6590 C   0  0  0  0  0  0  0  0  0  0  0  0
  161.1550  205.5020  153.7740 C   0  0  1  0  0  3  0  0  0  0  0  0
  162.9550  206.6070  152.7090 C   0  0  0  0  0  2  0  0  0  0  0  0
  161.2020  202.0360  146.3360 C   0  0  1  0  0  3  0  0  0  0  0  0
  162.1560  207.4680  154.7230 C   0  0  0  0  0  2  0  0  0  0  0  0
  162.5350  208.3990  150.3660 C   0  0  0  0  0  2  0  0  0  0  0  0
  162.6320  206.0110  151.3330 C   0  0  2  0  0  3  0  0  0  0  0  0
  161.9560  206.9870  150.3720 C   0  0  2  0  0  3  0  0  0  0  0  0
  161.8490  204.8960  148.8810 C   0  0  2  0  0  3  0  0  0  0  0  0
  161.0980  200.6090  146.8750 C   0  0  0  0  0  3  0  0  0  0  0  0
  159.2180  206.8490  154.7820 C   0  0  0  0  0  2  0  0  0  0  0  0
  161.7390  206.8220  153.4860 N   0  0  2  0  0  0  0  0  0  0  0  0
  160.9590  200.7180  148.3940 C   0  0  0  0  0  3  0  0  0  0  0  0
  160.0000  205.5400  154.7880 C   0  0  0  0  0  2  0  0  0  0  0  0
  161.1130  208.5030  155.1200 C   0  0  2  0  0  3  0  0  0  0  0  0
  161.0950  207.2550  148.0570 C   0  0  0  0  0  2  0  0  0  0  0  0
  162.0240  206.4300  148.9460 C   0  0  1  0  0  3  0  0  0  0  0  0
  161.2760  204.3810  147.5520 C   0  0  0  0  0  2  0  0  0  0  0  0
  160.6460  204.8860  152.4760 C   0  0  0  0  0  2  0  0  0  0  0  0
  160.8330  202.0790  151.0170 O   0  0  0  0  0  0  0  0  0  0  0  0
  159.9880  202.3400  145.4790 C   0  0  0  0  0  1  0  0  0  0  0  0
  161.1330  204.2960  150.1130 C   0  0  2  0  0  3  0  0  0  0  0  0
  161.1950  202.8810  147.5550 C   0  0  0  0  0  0  0  0  0  0  0  0
  161.6990  209.4300  156.0760 N   0  0  0  0  0  2  0  0  0  0  0  0
  161.2590  210.7830  156.2070 C   0  0  0  0  0  0  0  0  0  0  0  0
  160.3460  211.2350  155.4660 O   0  0  0  0  0  0  0  0  0  0  0  0
  161.8610  211.6280  157.1790 N   0  0  0  0  0  1  0  0  0  0  0  0
  2 24  1  1  0  0  0
  3 11  1  0  0  0  0
  4 21  1  0  0  0  0
  4  3  1  0  0  0  0
  5 25  2  0  0  0  0
  6  5  1  0  0  0  0
  7 24  1  6  0  0  0
  7 19  1  0  0  0  0
  9 26  1  6  0  0  0
  9 15  1  0  0  0  0
  9 28  1  0  0  0  0
 10 20  1  0  0  0  0
 12  2  1  0  0  0  0
 12  8  1  1  0  0  0
 13 11  1  6  0  0  0
 13 12  1  0  0  0  0
 14 23  1  6  0  0  0
 14 22  1  0  0  0  0
 14 27  1  0  0  0  0
 15 18  2  0  0  0  0
 16 19  1  0  0  0  0
 16  1  1  0  0  0  0
 17  8  1  6  0  0  0
 17  7  1  0  0  0  0
 17 10  1  0  0  0  0
 18  6  1  0  0  0  0
 20  1  1  0  0  0  0
 20 29  1  1  0  0  0
 22 21  1  6  0  0  0
 22 13  1  0  0  0  0
 23 28  1  0  0  0  0
 27  5  1  6  0  0  0
 27  2  1  0  0  0  0
 28  6  2  0  0  0  0
 29 30  1  0  0  0  0
 30 32  1  0  0  0  0
 31 30  2  0  0  0  0
M  END
>  <MODEL>
5

>  <REMARK>
 VINA RESULT:      -3.3      1.245      1.637
  Name = 
  1 active torsions:
  status: ('A' for Active; 'I' for Inactive)
    1  A    between atoms: C_20  and  N_29
                            x       y       z     vdW  Elec       q    Type
                         _______ _______ _______ _____ _____    ______ ____

>  <TORSDO>
F 1

$$$$
=
 OpenBabel11122412493D

 32 37  0  0  1  0  0  0  0  0999 V2000
  159.2870  202.3020  144.4120 C   0  0  0  0  0  2  0  0  0  0  0  0
  161.7790  205.8200  148.0230 C   0  0  1  0  0  3  0  0  0  0  0  0
  160.0820  202.2510  151.0410 C   0  0  0  0  0  2  0  0  0  0  0  0
  160.0860  203.2040  152.2430 C   0  0  0  0  0  2  0  0  0  0  0  0
  161.5810  208.2180  148.8220 C   0  0  0  0  0  0  0  0  0  0  0  0
  161.7150  209.1570  149.9500 C   0  0  0  0  0  0  0  0  0  0  0  0
  161.1060  204.6290  145.9010 C   0  0  1  0  0  3  0  0  0  0  0  0
  162.3790  203.4010  147.4720 C   0  0  0  0  0  2  0  0  0  0  0  0
  161.7420  209.8970  152.1610 C   0  0  1  0  0  3  0  0  0  0  0  0
  161.4890  202.2730  145.6360 C   0  0  0  0  0  2  0  0  0  0  0  0
  161.2450  202.5500  150.0930 C   0  0  0  0  0  2  0  0  0  0  0  0
  162.1690  204.4310  148.5900 C   0  0  2  0  0  3  0  0  0  0  0  0
  161.1500  204.0060  149.6470 C   0  0  2  0  0  3  0  0  0  0  0  0
  161.6150  206.3730  150.5370 C   0  0  2  0  0  3  0  0  0  0  0  0
  162.1380  211.0780  151.2750 C   0  0  0  0  0  3  0  0  0  0  0  0
  158.9150  203.6710  144.9720 C   0  0  0  0  0  2  0  0  0  0  0  0
  161.2160  203.3360  146.5940 N   0  0  2  0  0  0  0  0  0  0  0  0
  162.0770  210.5880  149.8280 C   0  0  0  0  0  3  0  0  0  0  0  0
  160.0740  204.6400  144.7620 C   0  0  0  0  0  2  0  0  0  0  0  0
  160.1990  201.5160  145.3520 C   0  0  2  0  0  3  0  0  0  0  0  0
  160.0900  204.6670  151.7940 C   0  0  0  0  0  2  0  0  0  0  0  0
  161.2930  204.9010  150.8830 C   0  0  1  0  0  3  0  0  0  0  0  0
  161.1450  207.3860  151.5920 C   0  0  0  0  0  2  0  0  0  0  0  0
  160.7310  205.7080  146.9100 C   0  0  0  0  0  2  0  0  0  0  0  0
  161.7060  208.6350  147.6390 O   0  0  0  0  0  0  0  0  0  0  0  0
  160.4380  210.2140  152.8690 C   0  0  0  0  0  1  0  0  0  0  0  0
  161.2160  206.7780  149.0990 C   0  0  2  0  0  3  0  0  0  0  0  0
  161.5500  208.7800  151.2040 C   0  0  0  0  0  0  0  0  0  0  0  0
  160.5220  200.2270  144.7590 N   0  0  0  0  0  2  0  0  0  0  0  0
  161.2060  199.1980  145.4760 C   0  0  0  0  0  0  0  0  0  0  0  0
  161.5810  199.3840  146.6640 O   0  0  0  0  0  0  0  0  0  0  0  0
  161.4700  197.9530  144.8400 N   0  0  0  0  0  1  0  0  0  0  0  0
  1 16  1  0  0  0  0
  1 20  1  0  0  0  0
  2 24  1  6  0  0  0
  2 12  1  0  0  0  0
  2 27  1  0  0  0  0
  3  4  1  0  0  0  0
  5  6  1  0  0  0  0
  6 28  2  0  0  0  0
  7 19  1  6  0  0  0
  7 17  1  0  0  0  0
  7 24  1  0  0  0  0
  9 26  1  6  0  0  0
 11  3  1  0  0  0  0
 12  8  1  6  0  0  0
 12 13  1  0  0  0  0
 13 11  1  1  0  0  0
 13 22  1  0  0  0  0
 14 22  1  0  0  0  0
 14 23  1  1  0  0  0
 15  9  1  0  0  0  0
 17 10  1  6  0  0  0
 17  8  1  0  0  0  0
 18  6  1  0  0  0  0
 18 15  2  0  0  0  0
 19 16  1  0  0  0  0
 20 29  1  6  0  0  0
 20 10  1  0  0  0  0
 21  4  1  0  0  0  0
 22 21  1  6  0  0  0
 25  5  2  0  0  0  0
 27  5  1  6  0  0  0
 27 14  1  0  0  0  0
 28 23  1  0  0  0  0
 28  9  1  0  0  0  0
 29 30  1  0  0  0  0
 30 31  2  0  0  0  0
 32 30  1  0  0  0  0
M  END
>  <MODEL>
6

>  <REMARK>
 VINA RESULT:      -3.1      4.749      9.759
  Name = 
  1 active torsions:
  status: ('A' for Active; 'I' for Inactive)
    1  A    between atoms: C_20  and  N_29
                            x       y       z     vdW  Elec       q    Type
                         _______ _______ _______ _____ _____    ______ ____

>  <TORSDO>
F 1

$$$$
