=
 OpenBabel11122414043D

 28 32  0  0  1  0  0  0  0  0999 V2000
  161.6790  210.9080  150.4980 C   0  0  0  0  0  0  0  0  0  0  0  0
  157.6540  213.2760  152.5480 O   0  0  0  0  0  0  0  0  0  0  0  0
  161.3870  207.7350  156.0100 O   0  0  0  0  0  0  0  0  0  0  0  0
  160.4470  213.2730  149.6340 C   0  0  0  0  0  3  0  0  0  0  0  0
  161.7160  210.0590  155.8810 N   0  0  0  0  0  0  0  0  0  0  0  0
  162.3630  209.6300  150.8380 C   0  0  0  0  0  2  0  0  0  0  0  0
  157.3220  211.1910  153.8280 O   0  0  0  0  0  0  0  0  0  0  0  0
  158.1080  212.4700  153.7320 S   0  0  0  0  0  0  0  0  0  0  0  0
  158.8950  213.4930  156.0710 C   0  0  0  0  0  0  0  0  0  0  0  0
  159.8420  212.1410  153.6410 C   0  0  1  0  0  3  0  0  0  0  0  0
  160.3740  206.6760  151.6120 O   0  0  0  0  0  0  0  0  0  0  0  0
  161.4260  210.3210  153.5270 C   0  0  1  0  0  3  0  0  0  0  0  0
  160.1140  212.7990  155.9210 O   0  0  0  0  0  0  0  0  0  0  0  0
  157.9350  213.3980  155.1910 N   0  0  0  0  0  0  0  0  0  0  0  0
  161.1770  207.6310  151.7700 C   0  0  0  0  0  0  0  0  0  0  0  0
  160.7570  211.5630  151.3630 C   0  0  0  0  0  0  0  0  0  0  0  0
  161.3910  208.7990  155.3340 C   0  0  0  0  0  0  0  0  0  0  0  0
  158.7060  214.3660  157.2580 C   0  0  0  0  0  1  0  0  0  0  0  0
  161.8120  207.8470  153.1050 C   0  0  0  0  0  2  0  0  0  0  0  0
  160.1420  212.7380  150.8850 C   0  0  0  0  0  3  0  0  0  0  0  0
  161.9750  211.4530  149.2430 C   0  0  0  0  0  3  0  0  0  0  0  0
  161.3690  212.6300  148.8140 C   0  0  0  0  0  3  0  0  0  0  0  0
  161.4430  208.5160  150.6850 N   0  0  0  0  0  2  0  0  0  0  0  0
  161.5690  211.0830  154.8680 C   0  0  1  0  0  3  0  0  0  0  0  0
  161.0240  208.8760  153.9020 C   0  0  2  0  0  3  0  0  0  0  0  0
  160.2110  211.7110  155.0130 C   0  0  2  0  0  3  0  0  0  0  0  0
  162.4970  210.2410  157.0930 C   0  0  0  0  0  1  0  0  0  0  0  0
  160.3020  211.0110  152.7190 C   0  0  2  0  0  3  0  0  0  0  0  0
  1  6  1  0  0  0  0
  1 16  1  0  0  0  0
  2  8  2  0  0  0  0
  4 20  1  0  0  0  0
  5 27  1  0  0  0  0
  8  7  2  0  0  0  0
  8 14  1  0  0  0  0
  9 18  1  0  0  0  0
 10  8  1  1  0  0  0
 10 26  1  0  0  0  0
 11 15  2  0  0  0  0
 12 25  1  0  0  0  0
 12 24  1  0  0  0  0
 13  9  1  0  0  0  0
 14  9  2  0  0  0  0
 15 19  1  0  0  0  0
 16 28  1  0  0  0  0
 17  5  1  0  0  0  0
 17  3  2  0  0  0  0
 19 25  1  0  0  0  0
 20 16  2  0  0  0  0
 21  1  2  0  0  0  0
 22 21  1  0  0  0  0
 22  4  2  0  0  0  0
 23  6  1  0  0  0  0
 23 15  1  0  0  0  0
 24 26  1  0  0  0  0
 24  5  1  0  0  0  0
 25 17  1  0  0  0  0
 26 13  1  0  0  0  0
 28 12  1  0  0  0  0
 28 10  1  0  0  0  0
M  END
>  <MODEL>
1

>  <REMARK>
 VINA RESULT:      -5.5      0.000      0.000
  Name = 
  0 active torsions:
  status: ('A' for Active; 'I' for Inactive)
                            x       y       z     vdW  Elec       q    Type
                         _______ _______ _______ _____ _____    ______ ____

>  <TORSDO>
F 0

$$$$
=
 OpenBabel11122414043D

 28 32  0  0  1  0  0  0  0  0999 V2000
  158.6910  212.7560  154.0750 C   0  0  0  0  0  0  0  0  0  0  0  0
  161.6730  211.0750  150.2950 O   0  0  0  0  0  0  0  0  0  0  0  0
  161.8450  208.2360  157.2610 O   0  0  0  0  0  0  0  0  0  0  0  0
  158.4770  213.3100  151.3360 C   0  0  0  0  0  3  0  0  0  0  0  0
  160.5160  207.7880  155.3760 N   0  0  0  0  0  0  0  0  0  0  0  0
  158.7560  212.5750  155.5510 C   0  0  0  0  0  2  0  0  0  0  0  0
  163.2190  210.3710  152.0860 O   0  0  0  0  0  0  0  0  0  0  0  0
  161.9620  210.0290  151.3340 S   0  0  0  0  0  0  0  0  0  0  0  0
  161.4870  207.4150  151.0500 C   0  0  0  0  0  0  0  0  0  0  0  0
  160.5950  209.8460  152.4380 C   0  0  1  0  0  3  0  0  0  0  0  0
  161.9610  212.8700  157.2610 O   0  0  0  0  0  0  0  0  0  0  0  0
  160.0000  210.0390  154.7720 C   0  0  1  0  0  3  0  0  0  0  0  0
  160.7050  207.4690  152.2220 O   0  0  0  0  0  0  0  0  0  0  0  0
  162.1090  208.4670  150.5880 N   0  0  0  0  0  0  0  0  0  0  0  0
  160.9000  212.3530  156.8260 C   0  0  0  0  0  0  0  0  0  0  0  0
  159.4340  211.9690  153.1500 C   0  0  0  0  0  0  0  0  0  0  0  0
  161.1920  208.6500  156.2660 C   0  0  0  0  0  0  0  0  0  0  0  0
  161.5970  206.1280  150.3180 C   0  0  0  0  0  1  0  0  0  0  0  0
  160.6300  210.9050  157.0730 C   0  0  0  0  0  2  0  0  0  0  0  0
  159.3170  212.2910  151.7830 C   0  0  0  0  0  3  0  0  0  0  0  0
  157.8530  213.7790  153.6140 C   0  0  0  0  0  3  0  0  0  0  0  0
  157.7400  214.0520  152.2540 C   0  0  0  0  0  3  0  0  0  0  0  0
  159.9870  213.1450  156.0700 N   0  0  0  0  0  2  0  0  0  0  0  0
  159.9160  208.5620  154.3090 C   0  0  1  0  0  3  0  0  0  0  0  0
  161.0770  210.0740  155.8800 C   0  0  2  0  0  3  0  0  0  0  0  0
  160.8450  208.5550  153.1280 C   0  0  2  0  0  3  0  0  0  0  0  0
  160.1010  206.4360  155.7110 C   0  0  0  0  0  1  0  0  0  0  0  0
  160.4390  210.8820  153.5520 C   0  0  2  0  0  3  0  0  0  0  0  0
  1  6  1  0  0  0  0
  2  8  2  0  0  0  0
  4 20  2  0  0  0  0
  4 22  1  0  0  0  0
  5 27  1  0  0  0  0
  5 17  1  0  0  0  0
  6 23  1  0  0  0  0
  8  7  2  0  0  0  0
  9 13  1  0  0  0  0
 10  8  1  6  0  0  0
 10 26  1  0  0  0  0
 10 28  1  0  0  0  0
 12 25  1  0  0  0  0
 13 26  1  0  0  0  0
 14  9  2  0  0  0  0
 14  8  1  0  0  0  0
 15 19  1  0  0  0  0
 15 11  2  0  0  0  0
 16 28  1  0  0  0  0
 16  1  2  0  0  0  0
 17  3  2  0  0  0  0
 18  9  1  0  0  0  0
 20 16  1  0  0  0  0
 21  1  1  0  0  0  0
 22 21  2  0  0  0  0
 23 15  1  0  0  0  0
 24 12  1  0  0  0  0
 24  5  1  0  0  0  0
 25 17  1  0  0  0  0
 25 19  1  0  0  0  0
 26 24  1  0  0  0  0
 28 12  1  0  0  0  0
M  END
>  <MODEL>
2

>  <REMARK>
 VINA RESULT:      -4.6      2.491      5.388
  Name = 
  0 active torsions:
  status: ('A' for Active; 'I' for Inactive)
                            x       y       z     vdW  Elec       q    Type
                         _______ _______ _______ _____ _____    ______ ____

>  <TORSDO>
F 0

$$$$
=
 OpenBabel11122414043D

 28 32  0  0  1  0  0  0  0  0999 V2000
  160.8370  207.8650  152.6360 C   0  0  0  0  0  0  0  0  0  0  0  0
  160.5050  210.0040  157.2530 O   0  0  0  0  0  0  0  0  0  0  0  0
  159.9850  213.9150  150.8460 O   0  0  0  0  0  0  0  0  0  0  0  0
  160.5210  206.5850  155.1090 C   0  0  0  0  0  3  0  0  0  0  0  0
  158.4210  212.7240  152.1330 N   0  0  0  0  0  0  0  0  0  0  0  0
  161.0650  208.4440  151.2840 C   0  0  0  0  0  2  0  0  0  0  0  0
  161.2970  212.0630  156.1450 O   0  0  0  0  0  0  0  0  0  0  0  0
  160.1100  211.1750  156.3990 S   0  0  0  0  0  0  0  0  0  0  0  0
  157.7580  212.4380  156.5230 C   0  0  0  0  0  0  0  0  0  0  0  0
  159.3910  210.6300  154.8800 C   0  0  1  0  0  3  0  0  0  0  0  0
  163.6050  211.0190  150.8350 O   0  0  0  0  0  0  0  0  0  0  0  0
  159.6990  210.7400  152.4860 C   0  0  1  0  0  3  0  0  0  0  0  0
  157.5890  212.1760  155.1470 O   0  0  0  0  0  0  0  0  0  0  0  0
  158.8360  212.0740  157.1660 N   0  0  0  0  0  0  0  0  0  0  0  0
  162.4730  210.4730  150.8660 C   0  0  0  0  0  0  0  0  0  0  0  0
  160.4750  208.6390  153.7750 C   0  0  0  0  0  0  0  0  0  0  0  0
  159.6870  212.9030  151.5350 C   0  0  0  0  0  0  0  0  0  0  0  0
  156.6750  213.1370  157.2610 C   0  0  0  0  0  1  0  0  0  0  0  0
  161.2560  211.2810  150.5550 C   0  0  0  0  0  2  0  0  0  0  0  0
  160.3470  207.9640  155.0050 C   0  0  0  0  0  3  0  0  0  0  0  0
  161.0110  206.4810  152.7530 C   0  0  0  0  0  3  0  0  0  0  0  0
  160.8500  205.8420  153.9800 C   0  0  0  0  0  3  0  0  0  0  0  0
  162.3600  209.1010  151.2350 N   0  0  0  0  0  2  0  0  0  0  0  0
  158.4150  211.4990  152.9040 C   0  0  1  0  0  3  0  0  0  0  0  0
  160.6230  211.7970  151.8380 C   0  0  2  0  0  3  0  0  0  0  0  0
  158.7070  211.8330  154.3400 C   0  0  2  0  0  3  0  0  0  0  0  0
  157.2100  213.3930  151.6870 C   0  0  0  0  0  1  0  0  0  0  0  0
  160.3390  210.1670  153.7730 C   0  0  2  0  0  3  0  0  0  0  0  0
  1 21  2  0  0  0  0
  1 16  1  0  0  0  0
  3 17  2  0  0  0  0
  5 24  1  0  0  0  0
  6  1  1  0  0  0  0
  7  8  2  0  0  0  0
  8 14  1  0  0  0  0
  8  2  2  0  0  0  0
  9 14  2  0  0  0  0
  9 18  1  0  0  0  0
 10  8  1  1  0  0  0
 11 15  2  0  0  0  0
 12 24  1  0  0  0  0
 12 28  1  0  0  0  0
 13  9  1  0  0  0  0
 15 23  1  0  0  0  0
 16 20  2  0  0  0  0
 17 25  1  0  0  0  0
 17  5  1  0  0  0  0
 19 15  1  0  0  0  0
 19 25  1  0  0  0  0
 20  4  1  0  0  0  0
 21 22  1  0  0  0  0
 22  4  2  0  0  0  0
 23  6  1  0  0  0  0
 24 26  1  0  0  0  0
 25 12  1  0  0  0  0
 26 10  1  0  0  0  0
 26 13  1  0  0  0  0
 27  5  1  0  0  0  0
 28 16  1  0  0  0  0
 28 10  1  0  0  0  0
M  END
>  <MODEL>
3

>  <REMARK>
 VINA RESULT:      -3.4      2.185      4.840
  Name = 
  0 active torsions:
  status: ('A' for Active; 'I' for Inactive)
                            x       y       z     vdW  Elec       q    Type
                         _______ _______ _______ _____ _____    ______ ____

>  <TORSDO>
F 0

$$$$
=
 OpenBabel11122414043D

 28 32  0  0  1  0  0  0  0  0999 V2000
  161.1860  207.8620  150.6890 C   0  0  0  0  0  0  0  0  0  0  0  0
  161.9050  208.7770  155.6540 O   0  0  0  0  0  0  0  0  0  0  0  0
  160.1150  214.1380  150.6870 O   0  0  0  0  0  0  0  0  0  0  0  0
  161.3790  205.9980  152.7740 C   0  0  0  0  0  3  0  0  0  0  0  0
  158.8360  212.6170  151.9410 N   0  0  0  0  0  0  0  0  0  0  0  0
  161.1330  208.7650  149.5070 C   0  0  0  0  0  2  0  0  0  0  0  0
  162.4900  211.0690  154.9510 O   0  0  0  0  0  0  0  0  0  0  0  0
  161.3640  210.1100  155.2240 S   0  0  0  0  0  0  0  0  0  0  0  0
  159.1250  211.2290  156.1580 C   0  0  0  0  0  0  0  0  0  0  0  0
  160.3230  209.9370  153.8070 C   0  0  1  0  0  3  0  0  0  0  0  0
  163.5780  211.4480  149.1820 O   0  0  0  0  0  0  0  0  0  0  0  0
  160.1120  210.6480  151.5070 C   0  0  1  0  0  3  0  0  0  0  0  0
  158.6580  211.3110  154.8300 O   0  0  0  0  0  0  0  0  0  0  0  0
  160.3060  210.7500  156.4440 N   0  0  0  0  0  0  0  0  0  0  0  0
  162.4660  210.8770  149.3170 C   0  0  0  0  0  0  0  0  0  0  0  0
  161.0970  208.3180  152.0350 C   0  0  0  0  0  0  0  0  0  0  0  0
  159.9480  212.9780  151.1500 C   0  0  0  0  0  0  0  0  0  0  0  0
  158.2430  211.6890  157.2610 C   0  0  0  0  0  1  0  0  0  0  0  0
  161.2300  211.6990  149.4850 C   0  0  0  0  0  2  0  0  0  0  0  0
  161.2190  207.3540  153.0570 C   0  0  0  0  0  3  0  0  0  0  0  0
  161.3490  206.4980  150.4180 C   0  0  0  0  0  3  0  0  0  0  0  0
  161.4400  205.5690  151.4520 C   0  0  0  0  0  3  0  0  0  0  0  0
  162.4020  209.4530  149.3480 N   0  0  0  0  0  2  0  0  0  0  0  0
  158.9660  211.2390  152.3660 C   0  0  1  0  0  3  0  0  0  0  0  0
  160.9000  211.8600  150.9610 C   0  0  2  0  0  3  0  0  0  0  0  0
  159.5670  211.2140  153.7430 C   0  0  2  0  0  3  0  0  0  0  0  0
  157.5740  213.3370  151.9450 C   0  0  0  0  0  1  0  0  0  0  0  0
  161.0000  209.7930  152.4430 C   0  0  2  0  0  3  0  0  0  0  0  0
  1 16  1  0  0  0  0
  3 17  2  0  0  0  0
  4 20  1  0  0  0  0
  5 27  1  0  0  0  0
  5 24  1  0  0  0  0
  6  1  1  0  0  0  0
  7  8  2  0  0  0  0
  8  2  2  0  0  0  0
  8 14  1  0  0  0  0
  9 14  2  0  0  0  0
  9 18  1  0  0  0  0
 10  8  1  1  0  0  0
 11 15  2  0  0  0  0
 12 24  1  0  0  0  0
 12 28  1  0  0  0  0
 13  9  1  0  0  0  0
 15 23  1  0  0  0  0
 15 19  1  0  0  0  0
 16 28  1  0  0  0  0
 16 20  2  0  0  0  0
 17  5  1  0  0  0  0
 19 25  1  0  0  0  0
 21  1  2  0  0  0  0
 21 22  1  0  0  0  0
 22  4  2  0  0  0  0
 23  6  1  0  0  0  0
 24 26  1  0  0  0  0
 25 17  1  0  0  0  0
 25 12  1  0  0  0  0
 26 10  1  0  0  0  0
 26 13  1  0  0  0  0
 28 10  1  0  0  0  0
M  END
>  <MODEL>
4

>  <REMARK>
 VINA RESULT:      -3.1      2.255      4.879
  Name = 
  0 active torsions:
  status: ('A' for Active; 'I' for Inactive)
                            x       y       z     vdW  Elec       q    Type
                         _______ _______ _______ _____ _____    ______ ____

>  <TORSDO>
F 0

$$$$
