=
 OpenBabel11122413353D

 37 43  0  0  1  0  0  0  0  0999 V2000
  161.7910  210.3670  154.6310 C   0  0  0  0  0  2  0  0  0  0  0  0
  162.1680  206.2220  151.6590 C   0  0  0  0  0  0  0  0  0  0  0  0
  161.0220  210.1570  150.9580 C   0  0  1  0  0  3  0  0  0  0  0  0
  162.3770  210.3250  156.0450 C   0  0  2  0  0  3  0  0  0  0  0  0
  159.0790  212.1950  153.4580 O   0  0  0  0  0  0  0  0  0  0  0  0
  162.0900  207.9950  150.1020 C   0  0  1  0  0  3  0  0  0  0  0  0
  159.9490  210.4740  151.9960 C   0  0  2  0  0  3  0  0  0  0  0  0
  160.3900  211.7150  156.9710 C   0  0  2  0  0  3  0  0  0  0  0  0
  161.0180  208.6720  150.9580 C   0  0  1  0  0  3  0  0  0  0  0  0
  160.1010  211.9090  152.5440 C   0  0  1  0  0  3  0  0  0  0  0  0
  162.9020  209.0330  149.3050 C   0  0  0  0  0  2  0  0  0  0  0  0
  161.3580  210.5400  157.1730 C   0  0  0  0  0  2  0  0  0  0  0  0
  161.1670  208.3900  152.3980 C   0  0  2  0  0  3  0  0  0  0  0  0
  163.1270  205.4620  152.5510 C   0  0  0  0  0  1  0  0  0  0  0  0
  160.6220  212.1150  149.3790 C   0  0  0  0  0  2  0  0  0  0  0  0
  162.0030  210.1130  148.6430 C   0  0  0  0  0  2  0  0  0  0  0  0
  161.1060  206.8890  152.5810 C   0  0  0  0  0  2  0  0  0  0  0  0
  159.4310  211.5890  155.7620 C   0  0  1  0  0  3  0  0  0  0  0  0
  159.7420  212.5720  154.6280 C   0  0  0  0  0  2  0  0  0  0  0  0
  160.8290  210.6100  149.5220 C   0  0  1  0  0  3  0  0  0  0  0  0
  160.0980  209.2840  153.0200 C   0  0  1  0  0  3  0  0  0  0  0  0
  162.9310  207.1580  150.8860 O   0  0  0  0  0  0  0  0  0  0  0  0
  160.1250  213.0010  151.4510 C   0  0  1  0  0  3  0  0  0  0  0  0
  161.4840  205.2060  150.7540 C   0  0  0  0  0  1  0  0  0  0  0  0
  159.2710  210.1400  155.2670 C   0  0  0  0  0  2  0  0  0  0  0  0
  161.0650  212.9380  157.0030 O   0  0  0  0  0  1  0  0  0  0  0  0
  160.4730  209.5880  154.4800 C   0  0  2  0  0  3  0  0  0  0  0  0
  161.1380  212.8390  150.4710 O   0  0  0  0  0  0  0  0  0  0  0  0
  158.6490  213.8800  149.6180 C   0  0  0  0  0  3  0  0  0  0  0  0
  158.7910  213.5200  150.9620 C   0  0  0  0  0  0  0  0  0  0  0  0
  157.6920  213.6220  151.8280 C   0  0  0  0  0  3  0  0  0  0  0  0
  155.0990  214.2180  152.4380 Cl  0  0  0  0  0  0  0  0  0  0  0  0
  156.3280  214.4530  150.0090 C   0  0  0  0  0  3  0  0  0  0  0  0
  156.4650  214.0900  151.3510 C   0  0  0  0  0  0  0  0  0  0  0  0
  157.4200  214.3480  149.1420 C   0  0  0  0  0  3  0  0  0  0  0  0
  164.1520  210.8450  157.2610 C   0  0  0  0  0  1  0  0  0  0  0  0
  163.4140  211.2550  156.1500 O   0  0  0  0  0  0  0  0  0  0  0  0
  1  4  1  0  0  0  0
  2 14  1  0  0  0  0
  2 17  1  0  0  0  0
  3  7  1  0  0  0  0
  4 37  1  0  0  0  0
  4 12  1  0  0  0  0
  5 19  1  0  0  0  0
  6 22  1  0  0  0  0
  6  9  1  0  0  0  0
  7 10  1  0  0  0  0
  7 21  1  0  0  0  0
  8 26  1  0  0  0  0
  8 12  1  0  0  0  0
  9  3  1  0  0  0  0
  9 13  1  0  0  0  0
 10  5  1  0  0  0  0
 11  6  1  0  0  0  0
 13 17  1  0  0  0  0
 13 21  1  0  0  0  0
 15 20  1  0  0  0  0
 15 28  1  0  0  0  0
 16 11  1  0  0  0  0
 16 20  1  0  0  0  0
 18  8  1  0  0  0  0
 19 18  1  0  0  0  0
 20  3  1  0  0  0  0
 21 27  1  0  0  0  0
 22  2  1  0  0  0  0
 23 10  1  0  0  0  0
 24  2  1  0  0  0  0
 25 18  1  0  0  0  0
 27  1  1  0  0  0  0
 27 25  1  0  0  0  0
 28 23  1  0  0  0  0
 29 30  1  0  0  0  0
 30 23  1  0  0  0  0
 30 31  2  0  0  0  0
 33 34  2  0  0  0  0
 34 31  1  0  0  0  0
 34 32  1  0  0  0  0
 35 29  2  0  0  0  0
 35 33  1  0  0  0  0
 37 36  1  0  0  0  0
M  END
>  <MODEL>
1

>  <REMARK>
 VINA RESULT:      -0.7      0.000      0.000
  Name = 
  2 active torsions:
  status: ('A' for Active; 'I' for Inactive)
    1  A    between atoms: C_4  and  O_37
    2  A    between atoms: C_23  and  C_30
                            x       y       z     vdW  Elec       q    Type
                         _______ _______ _______ _____ _____    ______ ____

>  <TORSDO>
F 2

$$$$
=
 OpenBabel11122413353D

 37 43  0  0  1  0  0  0  0  0999 V2000
  161.6280  209.6100  154.7910 C   0  0  0  0  0  2  0  0  0  0  0  0
  161.4880  205.3030  152.0370 C   0  0  0  0  0  0  0  0  0  0  0  0
  161.2160  209.3370  151.0650 C   0  0  1  0  0  3  0  0  0  0  0  0
  162.0460  209.5400  156.2620 C   0  0  2  0  0  3  0  0  0  0  0  0
  159.4640  211.8510  153.2530 O   0  0  0  0  0  0  0  0  0  0  0  0
  161.9210  206.9640  150.4160 C   0  0  1  0  0  3  0  0  0  0  0  0
  160.1250  209.9130  151.9640 C   0  0  2  0  0  3  0  0  0  0  0  0
  160.2850  211.3360  156.9070 C   0  0  2  0  0  3  0  0  0  0  0  0
  160.9200  207.8830  151.1200 C   0  0  1  0  0  3  0  0  0  0  0  0
  160.4980  211.3220  152.4710 C   0  0  1  0  0  3  0  0  0  0  0  0
  162.9990  207.7790  149.6780 C   0  0  0  0  0  2  0  0  0  0  0  0
  160.9780  210.0110  157.2600 C   0  0  0  0  0  2  0  0  0  0  0  0
  160.8620  207.6620  152.5770 C   0  0  2  0  0  3  0  0  0  0  0  0
  162.1820  204.4270  153.0600 C   0  0  0  0  0  1  0  0  0  0  0  0
  161.3730  211.2390  149.3790 C   0  0  0  0  0  2  0  0  0  0  0  0
  162.4020  208.9710  148.8780 C   0  0  0  0  0  2  0  0  0  0  0  0
  160.4890  206.2140  152.8080 C   0  0  0  0  0  2  0  0  0  0  0  0
  159.4500  211.3250  155.6030 C   0  0  1  0  0  3  0  0  0  0  0  0
  160.0630  212.1620  154.4760 C   0  0  0  0  0  2  0  0  0  0  0  0
  161.2640  209.7330  149.6010 C   0  0  1  0  0  3  0  0  0  0  0  0
  159.9310  208.7780  153.0410 C   0  0  1  0  0  3  0  0  0  0  0  0
  162.4960  206.0290  151.3210 O   0  0  0  0  0  0  0  0  0  0  0  0
  160.8490  212.3230  151.3470 C   0  0  1  0  0  3  0  0  0  0  0  0
  160.7150  204.3860  151.1000 C   0  0  0  0  0  1  0  0  0  0  0  0
  159.0610  209.9070  155.1480 C   0  0  0  0  0  2  0  0  0  0  0  0
  161.1810  212.4070  156.9680 O   0  0  0  0  0  1  0  0  0  0  0  0
  160.2060  209.0900  154.5220 C   0  0  2  0  0  3  0  0  0  0  0  0
  161.9060  211.9140  150.4940 O   0  0  0  0  0  0  0  0  0  0  0  0
  158.6270  213.4870  151.4790 C   0  0  0  0  0  3  0  0  0  0  0  0
  159.7000  213.0580  150.6930 C   0  0  0  0  0  0  0  0  0  0  0  0
  159.7080  213.3370  149.3180 C   0  0  0  0  0  3  0  0  0  0  0  0
  158.6580  214.3710  147.0200 Cl  0  0  0  0  0  0  0  0  0  0  0  0
  157.5700  214.4530  149.5250 C   0  0  0  0  0  3  0  0  0  0  0  0
  158.6440  214.0310  148.7370 C   0  0  0  0  0  0  0  0  0  0  0  0
  157.5620  214.1820  150.8970 C   0  0  0  0  0  3  0  0  0  0  0  0
  163.5590  210.7390  155.1810 C   0  0  0  0  0  1  0  0  0  0  0  0
  163.2280  210.2590  156.4490 O   0  0  0  0  0  0  0  0  0  0  0  0
  1  4  1  0  0  0  0
  2 17  1  0  0  0  0
  2 14  1  0  0  0  0
  3  9  1  0  0  0  0
  3  7  1  0  0  0  0
  4 37  1  0  0  0  0
  4 12  1  0  0  0  0
  5 19  1  0  0  0  0
  6  9  1  0  0  0  0
  6 22  1  0  0  0  0
  7 10  1  0  0  0  0
  7 21  1  0  0  0  0
  8 26  1  0  0  0  0
  8 12  1  0  0  0  0
  9 13  1  0  0  0  0
 10  5  1  0  0  0  0
 11  6  1  0  0  0  0
 13 17  1  0  0  0  0
 13 21  1  0  0  0  0
 15 20  1  0  0  0  0
 15 28  1  0  0  0  0
 16 20  1  0  0  0  0
 16 11  1  0  0  0  0
 18  8  1  0  0  0  0
 19 18  1  0  0  0  0
 20  3  1  0  0  0  0
 21 27  1  0  0  0  0
 22  2  1  0  0  0  0
 23 10  1  0  0  0  0
 24  2  1  0  0  0  0
 25 18  1  0  0  0  0
 27  1  1  0  0  0  0
 27 25  1  0  0  0  0
 28 23  1  0  0  0  0
 30 23  1  0  0  0  0
 30 29  2  0  0  0  0
 31 30  1  0  0  0  0
 32 34  1  0  0  0  0
 33 35  2  0  0  0  0
 34 31  2  0  0  0  0
 34 33  1  0  0  0  0
 35 29  1  0  0  0  0
 36 37  1  0  0  0  0
M  END
>  <MODEL>
2

>  <REMARK>
 VINA RESULT:       0.6      1.418      1.668
  Name = 
  2 active torsions:
  status: ('A' for Active; 'I' for Inactive)
    1  A    between atoms: C_4  and  O_37
    2  A    between atoms: C_23  and  C_30
                            x       y       z     vdW  Elec       q    Type
                         _______ _______ _______ _____ _____    ______ ____

>  <TORSDO>
F 2

$$$$
=
 OpenBabel11122413353D

 37 43  0  0  1  0  0  0  0  0999 V2000
  161.7190  209.6060  154.2610 C   0  0  0  0  0  2  0  0  0  0  0  0
  161.2950  205.0740  151.9300 C   0  0  0  0  0  0  0  0  0  0  0  0
  161.3730  209.0020  150.5670 C   0  0  1  0  0  3  0  0  0  0  0  0
  162.0950  209.6480  155.7440 C   0  0  2  0  0  3  0  0  0  0  0  0
  159.7790  211.8480  152.4480 O   0  0  0  0  0  0  0  0  0  0  0  0
  161.8990  206.5290  150.1710 C   0  0  1  0  0  3  0  0  0  0  0  0
  160.3110  209.7470  151.3720 C   0  0  2  0  0  3  0  0  0  0  0  0
  160.4700  211.6310  156.1580 C   0  0  2  0  0  3  0  0  0  0  0  0
  160.9600  207.5880  150.7520 C   0  0  1  0  0  3  0  0  0  0  0  0
  160.7850  211.1660  151.7530 C   0  0  1  0  0  3  0  0  0  0  0  0
  163.0560  207.1810  149.3920 C   0  0  0  0  0  2  0  0  0  0  0  0
  161.0450  210.2970  156.6590 C   0  0  0  0  0  2  0  0  0  0  0  0
  160.8490  207.5160  152.2210 C   0  0  2  0  0  3  0  0  0  0  0  0
  161.8920  204.2510  153.0530 C   0  0  0  0  0  1  0  0  0  0  0  0
  161.7230  210.7110  148.7120 C   0  0  0  0  0  2  0  0  0  0  0  0
  162.5770  208.3310  148.4640 C   0  0  0  0  0  2  0  0  0  0  0  0
  160.3550  206.1310  152.5780 C   0  0  0  0  0  2  0  0  0  0  0  0
  159.6680  211.5580  154.8360 C   0  0  1  0  0  3  0  0  0  0  0  0
  160.3730  212.2300  153.6530 C   0  0  0  0  0  2  0  0  0  0  0  0
  161.4880  209.2480  149.0740 C   0  0  1  0  0  3  0  0  0  0  0  0
  160.0010  208.7420  152.5470 C   0  0  1  0  0  3  0  0  0  0  0  0
  162.3750  205.6450  151.1790 O   0  0  0  0  0  0  0  0  0  0  0  0
  161.2420  212.0210  150.5500 C   0  0  1  0  0  3  0  0  0  0  0  0
  160.4730  204.1330  151.0610 C   0  0  0  0  0  1  0  0  0  0  0  0
  159.1760  210.1370  154.5070 C   0  0  0  0  0  2  0  0  0  0  0  0
  161.4480  212.6300  156.1450 O   0  0  0  0  0  1  0  0  0  0  0  0
  160.2650  209.1750  153.9990 C   0  0  2  0  0  3  0  0  0  0  0  0
  162.2820  211.4490  149.7740 O   0  0  0  0  0  0  0  0  0  0  0  0
  160.4730  213.3070  148.5340 C   0  0  0  0  0  3  0  0  0  0  0  0
  160.1730  212.7760  149.7920 C   0  0  0  0  0  0  0  0  0  0  0  0
  158.8820  212.9290  150.3200 C   0  0  0  0  0  3  0  0  0  0  0  0
  156.2980  213.8070  150.2630 Cl  0  0  0  0  0  0  0  0  0  0  0  0
  158.2100  214.1500  148.3420 C   0  0  0  0  0  3  0  0  0  0  0  0
  157.9050  213.6160  149.5960 C   0  0  0  0  0  0  0  0  0  0  0  0
  159.4940  213.9950  147.8090 C   0  0  0  0  0  3  0  0  0  0  0  0
  163.3960  210.6110  157.2530 C   0  0  0  0  0  1  0  0  0  0  0  0
  163.3270  210.2880  155.8980 O   0  0  0  0  0  0  0  0  0  0  0  0
  1  4  1  0  0  0  0
  2 17  1  0  0  0  0
  2 14  1  0  0  0  0
  3  9  1  0  0  0  0
  3  7  1  0  0  0  0
  4 37  1  0  0  0  0
  4 12  1  0  0  0  0
  5 19  1  0  0  0  0
  6  9  1  0  0  0  0
  6 22  1  0  0  0  0
  7 10  1  0  0  0  0
  7 21  1  0  0  0  0
  8 12  1  0  0  0  0
  9 13  1  0  0  0  0
 10  5  1  0  0  0  0
 11  6  1  0  0  0  0
 13 21  1  0  0  0  0
 13 17  1  0  0  0  0
 15 20  1  0  0  0  0
 15 28  1  0  0  0  0
 16 20  1  0  0  0  0
 16 11  1  0  0  0  0
 18  8  1  0  0  0  0
 19 18  1  0  0  0  0
 20  3  1  0  0  0  0
 21 27  1  0  0  0  0
 22  2  1  0  0  0  0
 23 10  1  0  0  0  0
 24  2  1  0  0  0  0
 25 18  1  0  0  0  0
 26  8  1  0  0  0  0
 27  1  1  0  0  0  0
 27 25  1  0  0  0  0
 28 23  1  0  0  0  0
 29 30  1  0  0  0  0
 30 31  2  0  0  0  0
 30 23  1  0  0  0  0
 33 34  2  0  0  0  0
 34 32  1  0  0  0  0
 34 31  1  0  0  0  0
 35 33  1  0  0  0  0
 35 29  2  0  0  0  0
 37 36  1  0  0  0  0
M  END
>  <MODEL>
3

>  <REMARK>
 VINA RESULT:       1.4      1.261      1.540
  Name = 
  2 active torsions:
  status: ('A' for Active; 'I' for Inactive)
    1  A    between atoms: C_4  and  O_37
    2  A    between atoms: C_23  and  C_30
                            x       y       z     vdW  Elec       q    Type
                         _______ _______ _______ _____ _____    ______ ____

>  <TORSDO>
F 2

$$$$
=
 OpenBabel11122413353D

 37 43  0  0  1  0  0  0  0  0999 V2000
  160.5830  210.7010  147.8870 C   0  0  0  0  0  2  0  0  0  0  0  0
  162.2940  205.9870  146.8810 C   0  0  0  0  0  0  0  0  0  0  0  0
  161.2110  207.9590  150.3790 C   0  0  1  0  0  3  0  0  0  0  0  0
  160.1570  211.6020  146.7240 C   0  0  2  0  0  3  0  0  0  0  0  0
  161.9120  211.6110  150.9650 O   0  0  0  0  0  0  0  0  0  0  0  0
  161.3840  205.7790  149.0500 C   0  0  1  0  0  3  0  0  0  0  0  0
  162.0040  209.2630  150.3890 C   0  0  2  0  0  3  0  0  0  0  0  0
  161.1720  213.6860  147.8930 C   0  0  2  0  0  3  0  0  0  0  0  0
  161.9830  207.1400  149.4100 C   0  0  1  0  0  3  0  0  0  0  0  0
  161.1520  210.4360  150.9190 C   0  0  1  0  0  3  0  0  0  0  0  0
  160.1230  205.4880  149.8850 C   0  0  0  0  0  2  0  0  0  0  0  0
  160.9590  212.9040  146.5880 C   0  0  0  0  0  2  0  0  0  0  0  0
  162.0550  208.0590  148.2590 C   0  0  2  0  0  3  0  0  0  0  0  0
  161.9010  205.9740  145.4190 C   0  0  0  0  0  1  0  0  0  0  0  0
  160.4810  207.9310  152.8190 C   0  0  0  0  0  2  0  0  0  0  0  0
  160.3080  205.8390  151.3870 C   0  0  0  0  0  2  0  0  0  0  0  0
  162.8910  207.3910  147.1890 C   0  0  0  0  0  2  0  0  0  0  0  0
  162.0110  212.9640  148.9750 C   0  0  1  0  0  3  0  0  0  0  0  0
  161.1940  212.5310  150.1970 C   0  0  0  0  0  2  0  0  0  0  0  0
  161.0880  207.1500  151.6570 C   0  0  1  0  0  3  0  0  0  0  0  0
  162.5300  209.3580  148.9060 C   0  0  1  0  0  3  0  0  0  0  0  0
  161.1280  205.6740  147.6550 O   0  0  0  0  0  0  0  0  0  0  0  0
  160.5250  210.1810  152.3090 C   0  0  1  0  0  3  0  0  0  0  0  0
  163.3700  204.9280  147.0740 C   0  0  0  0  0  1  0  0  0  0  0  0
  162.8790  211.8260  148.4060 C   0  0  0  0  0  2  0  0  0  0  0  0
  159.9630  214.1830  148.3870 O   0  0  0  0  0  1  0  0  0  0  0  0
  162.1070  210.5490  148.0300 C   0  0  2  0  0  3  0  0  0  0  0  0
  159.7060  209.0260  152.3890 O   0  0  0  0  0  0  0  0  0  0  0  0
  162.7600  210.2780  153.4520 C   0  0  0  0  0  3  0  0  0  0  0  0
  161.3790  210.4870  153.5190 C   0  0  0  0  0  0  0  0  0  0  0  0
  160.8110  211.0000  154.6950 C   0  0  0  0  0  3  0  0  0  0  0  0
  160.9050  211.9270  157.2610 Cl  0  0  0  0  0  0  0  0  0  0  0  0
  162.9990  211.0750  155.7270 C   0  0  0  0  0  3  0  0  0  0  0  0
  161.6200  211.2910  155.7960 C   0  0  0  0  0  0  0  0  0  0  0  0
  163.5690  210.5690  154.5550 C   0  0  0  0  0  3  0  0  0  0  0  0
  158.4810  212.5770  145.6560 C   0  0  0  0  0  1  0  0  0  0  0  0
  158.7930  211.8870  146.8280 O   0  0  0  0  0  0  0  0  0  0  0  0
  1 27  1  0  0  0  0
  2 24  1  0  0  0  0
  2 17  1  0  0  0  0
  2 22  1  0  0  0  0
  3  7  1  0  0  0  0
  3 20  1  0  0  0  0
  4 37  1  0  0  0  0
  4  1  1  0  0  0  0
  6  9  1  0  0  0  0
  6 11  1  0  0  0  0
  7 10  1  0  0  0  0
  8 26  1  0  0  0  0
  8 18  1  0  0  0  0
  9  3  1  0  0  0  0
 10  5  1  0  0  0  0
 10 23  1  0  0  0  0
 11 16  1  0  0  0  0
 12  4  1  0  0  0  0
 12  8  1  0  0  0  0
 13 21  1  0  0  0  0
 13  9  1  0  0  0  0
 14  2  1  0  0  0  0
 16 20  1  0  0  0  0
 17 13  1  0  0  0  0
 18 19  1  0  0  0  0
 19  5  1  0  0  0  0
 20 15  1  0  0  0  0
 21  7  1  0  0  0  0
 22  6  1  0  0  0  0
 23 28  1  0  0  0  0
 23 30  1  0  0  0  0
 25 18  1  0  0  0  0
 27 25  1  0  0  0  0
 27 21  1  0  0  0  0
 28 15  1  0  0  0  0
 29 30  2  0  0  0  0
 29 35  1  0  0  0  0
 30 31  1  0  0  0  0
 31 34  2  0  0  0  0
 33 34  1  0  0  0  0
 34 32  1  0  0  0  0
 35 33  2  0  0  0  0
 36 37  1  0  0  0  0
M  END
>  <MODEL>
4

>  <REMARK>
 VINA RESULT:       1.6      2.911      6.609
  Name = 
  2 active torsions:
  status: ('A' for Active; 'I' for Inactive)
    1  A    between atoms: C_4  and  O_37
    2  A    between atoms: C_23  and  C_30
                            x       y       z     vdW  Elec       q    Type
                         _______ _______ _______ _____ _____    ______ ____

>  <TORSDO>
F 2

$$$$
=
 OpenBabel11122413353D

 37 43  0  0  1  0  0  0  0  0999 V2000
  160.8470  207.8950  150.8480 C   0  0  0  0  0  2  0  0  0  0  0  0
  160.7690  210.1920  155.4170 C   0  0  0  0  0  0  0  0  0  0  0  0
  160.3820  211.5660  151.5110 C   0  0  1  0  0  3  0  0  0  0  0  0
  160.8040  206.3660  150.7830 C   0  0  2  0  0  3  0  0  0  0  0  0
  162.3370  210.1220  148.6360 O   0  0  0  0  0  0  0  0  0  0  0  0
  159.7910  211.7990  153.9900 C   0  0  1  0  0  3  0  0  0  0  0  0
  161.5910  211.0240  150.7530 C   0  0  2  0  0  3  0  0  0  0  0  0
  162.4720  206.3480  148.7940 C   0  0  2  0  0  3  0  0  0  0  0  0
  160.8310  211.4530  152.9220 C   0  0  1  0  0  3  0  0  0  0  0  0
  161.2060  210.5700  149.3290 C   0  0  1  0  0  3  0  0  0  0  0  0
  158.4900  212.3170  153.3510 C   0  0  0  0  0  2  0  0  0  0  0  0
  162.0250  205.7130  150.1200 C   0  0  0  0  0  2  0  0  0  0  0  0
  161.2590  210.0430  152.9700 C   0  0  2  0  0  3  0  0  0  0  0  0
  160.4340  208.9540  156.2220 C   0  0  0  0  0  1  0  0  0  0  0  0
  159.6300  213.3260  149.8320 C   0  0  0  0  0  2  0  0  0  0  0  0
  158.7510  213.3460  152.2150 C   0  0  0  0  0  2  0  0  0  0  0  0
  161.8240  209.7810  154.3490 C   0  0  0  0  0  2  0  0  0  0  0  0
  162.9670  207.8110  148.8880 C   0  0  1  0  0  3  0  0  0  0  0  0
  162.0190  208.8220  148.2350 C   0  0  0  0  0  2  0  0  0  0  0  0
  159.9440  213.0010  151.2890 C   0  0  1  0  0  3  0  0  0  0  0  0
  162.1540  209.9290  151.7390 C   0  0  1  0  0  3  0  0  0  0  0  0
  159.5490  210.6980  154.8580 O   0  0  0  0  0  0  0  0  0  0  0  0
  160.4950  211.6580  148.4930 C   0  0  1  0  0  3  0  0  0  0  0  0
  161.3860  211.2050  156.3720 C   0  0  0  0  0  1  0  0  0  0  0  0
  163.3810  208.2180  150.3140 C   0  0  0  0  0  2  0  0  0  0  0  0
  161.5120  206.1630  147.7950 O   0  0  0  0  0  1  0  0  0  0  0  0
  162.2100  208.4610  151.2830 C   0  0  2  0  0  3  0  0  0  0  0  0
  159.3130  212.1800  149.0770 O   0  0  0  0  0  0  0  0  0  0  0  0
  162.2510  213.4540  148.4720 C   0  0  0  0  0  3  0  0  0  0  0  0
  161.3710  212.6420  147.7500 C   0  0  0  0  0  0  0  0  0  0  0  0
  161.3320  212.7340  146.3510 C   0  0  0  0  0  3  0  0  0  0  0  0
  162.1050  213.7520  143.9390 Cl  0  0  0  0  0  0  0  0  0  0  0  0
  163.0350  214.4530  146.4100 C   0  0  0  0  0  3  0  0  0  0  0  0
  162.1610  213.6400  145.6840 C   0  0  0  0  0  0  0  0  0  0  0  0
  163.0800  214.3600  147.8050 C   0  0  0  0  0  3  0  0  0  0  0  0
  159.7060  204.5650  150.1140 C   0  0  0  0  0  1  0  0  0  0  0  0
  159.6330  205.9580  150.1410 O   0  0  0  0  0  0  0  0  0  0  0  0
  1 27  1  0  0  0  0
  2 14  1  0  0  0  0
  2 24  1  0  0  0  0
  3  9  1  0  0  0  0
  4  1  1  0  0  0  0
  5 10  1  0  0  0  0
  6 22  1  0  0  0  0
  7  3  1  0  0  0  0
  7 21  1  0  0  0  0
  8 18  1  0  0  0  0
  8 12  1  0  0  0  0
  9 13  1  0  0  0  0
  9  6  1  0  0  0  0
 10  7  1  0  0  0  0
 11  6  1  0  0  0  0
 12  4  1  0  0  0  0
 13 17  1  0  0  0  0
 15 20  1  0  0  0  0
 16 11  1  0  0  0  0
 17  2  1  0  0  0  0
 18 25  1  0  0  0  0
 19  5  1  0  0  0  0
 19 18  1  0  0  0  0
 20  3  1  0  0  0  0
 20 16  1  0  0  0  0
 21 13  1  0  0  0  0
 22  2  1  0  0  0  0
 23 28  1  0  0  0  0
 23 10  1  0  0  0  0
 25 27  1  0  0  0  0
 26  8  1  0  0  0  0
 27 21  1  0  0  0  0
 28 15  1  0  0  0  0
 30 29  2  0  0  0  0
 30 23  1  0  0  0  0
 31 30  1  0  0  0  0
 32 34  1  0  0  0  0
 33 35  2  0  0  0  0
 34 31  2  0  0  0  0
 34 33  1  0  0  0  0
 35 29  1  0  0  0  0
 36 37  1  0  0  0  0
 37  4  1  0  0  0  0
M  END
>  <MODEL>
5

>  <REMARK>
 VINA RESULT:       1.7      2.753      6.401
  Name = 
  2 active torsions:
  status: ('A' for Active; 'I' for Inactive)
    1  A    between atoms: C_4  and  O_37
    2  A    between atoms: C_23  and  C_30
                            x       y       z     vdW  Elec       q    Type
                         _______ _______ _______ _____ _____    ______ ____

>  <TORSDO>
F 2

$$$$
