=
 OpenBabel11122412463D

 30 35  0  0  1  0  0  0  0  0999 V2000
  162.0320  205.3850  149.6600 C   0  0  2  0  0  3  0  0  0  0  0  0
  160.8540  203.1090  149.4890 C   0  0  0  0  0  0  0  0  0  0  0  0
  161.2540  205.2610  153.7760 O   0  0  0  0  0  0  0  0  0  0  0  0
  161.7920  206.6300  150.5330 C   0  0  2  0  0  3  0  0  0  0  0  0
  161.5320  205.6360  148.3610 O   0  0  0  0  0  0  0  0  0  0  0  0
  160.8020  208.3580  148.2830 O   0  0  0  0  0  1  0  0  0  0  0  0
  160.9470  209.3530  151.2630 C   0  0  1  0  0  3  0  0  0  0  0  0
  162.1390  207.9670  148.4220 C   0  0  2  0  0  3  0  0  0  0  0  0
  160.4970  208.3840  152.3530 C   0  0  2  0  0  3  0  0  0  0  0  0
  161.0700  206.6000  154.0310 C   0  0  0  0  0  0  0  0  0  0  0  0
  162.3680  206.6030  147.7660 C   0  0  2  0  0  3  0  0  0  0  0  0
  162.5080  207.8340  149.9040 C   0  0  1  0  0  3  0  0  0  0  0  0
  160.2640  201.9990  150.0970 C   0  0  0  0  0  3  0  0  0  0  0  0
  159.9050  209.3080  153.4050 C   0  0  0  0  0  2  0  0  0  0  0  0
  160.8040  210.7030  151.9220 C   0  0  0  0  0  2  0  0  0  0  0  0
  160.9340  203.1300  148.1020 O   0  0  0  0  0  1  0  0  0  0  0  0
  161.9940  205.0510  152.5880 C   0  0  2  0  0  3  0  0  0  0  0  0
  160.2000  201.9040  151.4840 C   0  0  0  0  0  3  0  0  0  0  0  0
  161.3620  204.1720  150.2780 C   0  0  0  0  0  0  0  0  0  0  0  0
  162.2390  206.4550  151.9890 C   0  0  2  0  0  3  0  0  0  0  0  0
  160.5400  207.0130  155.0960 O   0  0  0  0  0  0  0  0  0  0  0  0
  161.6100  207.4880  152.9680 C   0  0  1  0  0  3  0  0  0  0  0  0
  159.7870  210.6030  152.8780 O   0  0  0  0  0  0  0  0  0  0  0  0
  162.7980  210.2340  149.9690 O   0  0  0  0  0  1  0  0  0  0  0  0
  160.7370  202.9180  152.2730 C   0  0  0  0  0  3  0  0  0  0  0  0
  161.3140  204.0520  151.6870 C   0  0  0  0  0  0  0  0  0  0  0  0
  162.3670  209.1350  150.7180 C   0  0  1  0  0  3  0  0  0  0  0  0
  162.1100  206.6840  146.2680 C   0  0  0  0  0  2  0  0  0  0  0  0
  163.5090  204.7700  145.9700 O   0  0  0  0  0  1  0  0  0  0  0  0
  162.2810  205.3270  145.6130 C   0  0  0  0  0  2  0  0  0  0  0  0
  1  5  1  6  0  0  0
  1 19  1  0  0  0  0
  1  4  1  0  0  0  0
  2 13  2  0  0  0  0
  2 19  1  0  0  0  0
  3 10  1  0  0  0  0
  4 20  1  0  0  0  0
  6  8  1  0  0  0  0
  7 15  1  0  0  0  0
  7  9  1  0  0  0  0
  8 12  1  0  0  0  0
  9 22  1  0  0  0  0
  9 14  1  0  0  0  0
 10 21  2  0  0  0  0
 11  5  1  0  0  0  0
 11  8  1  0  0  0  0
 12  4  1  0  0  0  0
 12 27  1  0  0  0  0
 13 18  1  0  0  0  0
 15 23  1  0  0  0  0
 16  2  1  0  0  0  0
 17  3  1  0  0  0  0
 18 25  2  0  0  0  0
 19 26  2  0  0  0  0
 20 17  1  0  0  0  0
 20 22  1  0  0  0  0
 22 10  1  0  0  0  0
 23 14  1  0  0  0  0
 24 27  1  0  0  0  0
 26 25  1  0  0  0  0
 26 17  1  0  0  0  0
 27  7  1  0  0  0  0
 28 11  1  0  0  0  0
 30 29  1  0  0  0  0
 30 28  1  0  0  0  0
M  END
>  <MODEL>
1

>  <REMARK>
 VINA RESULT:      -6.4      0.000      0.000
  Name = 
  2 active torsions:
  status: ('A' for Active; 'I' for Inactive)
    1  A    between atoms: C_11  and  C_28
    2  A    between atoms: C_28  and  C_30
                            x       y       z     vdW  Elec       q    Type
                         _______ _______ _______ _____ _____    ______ ____

>  <TORSDO>
F 2

$$$$
=
 OpenBabel11122412463D

 30 35  0  0  1  0  0  0  0  0999 V2000
  161.3260  208.9820  153.3270 C   0  0  2  0  0  3  0  0  0  0  0  0
  159.9970  211.1660  153.5780 C   0  0  0  0  0  0  0  0  0  0  0  0
  161.8520  209.9920  149.2940 O   0  0  0  0  0  0  0  0  0  0  0  0
  161.4550  207.9550  152.1880 C   0  0  2  0  0  3  0  0  0  0  0  0
  160.4680  208.4550  154.3200 O   0  0  0  0  0  0  0  0  0  0  0  0
  159.9410  205.7800  153.6040 O   0  0  0  0  0  1  0  0  0  0  0  0
  161.0690  205.4530  150.6860 C   0  0  1  0  0  3  0  0  0  0  0  0
  161.2240  206.1930  153.9780 C   0  0  2  0  0  3  0  0  0  0  0  0
  160.9120  206.6350  149.7320 C   0  0  2  0  0  3  0  0  0  0  0  0
  161.8500  208.7400  148.7250 C   0  0  0  0  0  0  0  0  0  0  0  0
  161.1440  207.3840  154.9380 C   0  0  2  0  0  3  0  0  0  0  0  0
  162.0230  206.6440  152.7500 C   0  0  1  0  0  3  0  0  0  0  0  0
  159.5480  212.3800  153.0560 C   0  0  0  0  0  3  0  0  0  0  0  0
  160.7400  205.9590  148.3810 C   0  0  0  0  0  2  0  0  0  0  0  0
  161.2310  204.2770  149.7540 C   0  0  0  0  0  2  0  0  0  0  0  0
  159.6460  210.8460  154.8830 O   0  0  0  0  0  1  0  0  0  0  0  0
  162.1720  209.9410  150.6720 C   0  0  2  0  0  3  0  0  0  0  0  0
  159.9090  212.7730  151.7700 C   0  0  0  0  0  3  0  0  0  0  0  0
  160.7970  210.2990  152.7910 C   0  0  0  0  0  0  0  0  0  0  0  0
  162.3170  208.4410  151.0170 C   0  0  2  0  0  3  0  0  0  0  0  0
  161.7050  208.5660  147.4870 O   0  0  0  0  0  0  0  0  0  0  0  0
  162.0950  207.6440  149.6990 C   0  0  1  0  0  3  0  0  0  0  0  0
  160.5560  204.5810  148.5670 O   0  0  0  0  0  0  0  0  0  0  0  0
  162.4860  204.3160  152.2910 O   0  0  0  0  0  1  0  0  0  0  0  0
  160.7330  211.9540  151.0020 C   0  0  0  0  0  3  0  0  0  0  0  0
  161.1790  210.7210  151.4950 C   0  0  0  0  0  0  0  0  0  0  0  0
  162.2330  205.5500  151.6850 C   0  0  1  0  0  3  0  0  0  0  0  0
  160.4420  206.9800  156.2260 C   0  0  0  0  0  2  0  0  0  0  0  0
  161.7940  208.6620  157.2530 O   0  0  0  0  0  1  0  0  0  0  0  0
  160.5230  208.0880  157.2600 C   0  0  0  0  0  2  0  0  0  0  0  0
  1 19  1  6  0  0  0
  1  5  1  0  0  0  0
  2 16  1  0  0  0  0
  3 17  1  0  0  0  0
  4 12  1  0  0  0  0
  4  1  1  0  0  0  0
  5 11  1  0  0  0  0
  6  8  1  0  0  0  0
  7 27  1  0  0  0  0
  8 11  1  0  0  0  0
  9  7  1  0  0  0  0
 10  3  1  0  0  0  0
 10 22  1  0  0  0  0
 11 28  1  0  0  0  0
 12  8  1  0  0  0  0
 13  2  1  0  0  0  0
 14 23  1  0  0  0  0
 14  9  1  0  0  0  0
 15  7  1  0  0  0  0
 17 20  1  0  0  0  0
 17 26  1  0  0  0  0
 18 13  2  0  0  0  0
 19  2  2  0  0  0  0
 20  4  1  0  0  0  0
 21 10  2  0  0  0  0
 22  9  1  0  0  0  0
 22 20  1  0  0  0  0
 23 15  1  0  0  0  0
 25 26  2  0  0  0  0
 25 18  1  0  0  0  0
 26 19  1  0  0  0  0
 27 24  1  0  0  0  0
 27 12  1  0  0  0  0
 28 30  1  0  0  0  0
 29 30  1  0  0  0  0
M  END
>  <MODEL>
2

>  <REMARK>
 VINA RESULT:      -6.3      1.780      7.304
  Name = 
  2 active torsions:
  status: ('A' for Active; 'I' for Inactive)
    1  A    between atoms: C_11  and  C_28
    2  A    between atoms: C_28  and  C_30
                            x       y       z     vdW  Elec       q    Type
                         _______ _______ _______ _____ _____    ______ ____

>  <TORSDO>
F 2

$$$$
=
 OpenBabel11122412463D

 30 35  0  0  1  0  0  0  0  0999 V2000
  161.2760  210.2770  152.9230 C   0  0  2  0  0  3  0  0  0  0  0  0
  160.0010  212.4440  152.4010 C   0  0  0  0  0  0  0  0  0  0  0  0
  161.9100  209.8850  148.7990 O   0  0  0  0  0  0  0  0  0  0  0  0
  161.4010  208.9290  152.1910 C   0  0  2  0  0  3  0  0  0  0  0  0
  160.3840  210.1240  154.0100 O   0  0  0  0  0  0  0  0  0  0  0  0
  159.8010  207.3730  154.2030 O   0  0  0  0  0  1  0  0  0  0  0  0
  160.9790  206.0780  151.5900 C   0  0  1  0  0  3  0  0  0  0  0  0
  161.0870  207.8630  154.4560 C   0  0  2  0  0  3  0  0  0  0  0  0
  160.8730  206.8800  150.2960 C   0  0  2  0  0  3  0  0  0  0  0  0
  161.8870  208.5160  148.6760 C   0  0  0  0  0  0  0  0  0  0  0  0
  161.0180  209.3050  154.9660 C   0  0  2  0  0  3  0  0  0  0  0  0
  161.9220  207.8670  153.1710 C   0  0  1  0  0  3  0  0  0  0  0  0
  159.5950  213.4260  151.4950 C   0  0  0  0  0  3  0  0  0  0  0  0
  160.7100  205.7990  149.2390 C   0  0  0  0  0  2  0  0  0  0  0  0
  161.1290  204.6570  151.1040 C   0  0  0  0  0  2  0  0  0  0  0  0
  159.6150  212.5810  153.7290 O   0  0  0  0  0  1  0  0  0  0  0  0
  162.2010  210.2880  150.1250 C   0  0  2  0  0  3  0  0  0  0  0  0
  159.9930  213.3640  150.1620 C   0  0  0  0  0  3  0  0  0  0  0  0
  160.7930  211.3520  151.9670 C   0  0  0  0  0  0  0  0  0  0  0  0
  162.2990  208.9830  150.9500 C   0  0  2  0  0  3  0  0  0  0  0  0
  161.7620  207.9450  147.5610 O   0  0  0  0  0  0  0  0  0  0  0  0
  162.0830  207.8000  149.9640 C   0  0  1  0  0  3  0  0  0  0  0  0
  160.4860  204.5630  149.8650 O   0  0  0  0  0  0  0  0  0  0  0  0
  162.3320  205.5100  153.5200 O   0  0  0  0  0  1  0  0  0  0  0  0
  160.8100  212.3220  149.7310 C   0  0  0  0  0  3  0  0  0  0  0  0
  161.2130  211.3140  150.6160 C   0  0  0  0  0  0  0  0  0  0  0  0
  162.1240  206.4790  152.5330 C   0  0  1  0  0  3  0  0  0  0  0  0
  160.2800  209.3640  156.2950 C   0  0  0  0  0  2  0  0  0  0  0  0
  158.6700  211.0740  156.7400 O   0  0  0  0  0  1  0  0  0  0  0  0
  160.0380  210.8000  156.7200 C   0  0  0  0  0  2  0  0  0  0  0  0
  1 19  1  6  0  0  0
  1  5  1  0  0  0  0
  2 16  1  0  0  0  0
  3 17  1  0  0  0  0
  4  1  1  0  0  0  0
  4 12  1  0  0  0  0
  5 11  1  0  0  0  0
  6  8  1  0  0  0  0
  7 27  1  0  0  0  0
  8 11  1  0  0  0  0
  9  7  1  0  0  0  0
 10  3  1  0  0  0  0
 10 22  1  0  0  0  0
 11 28  1  0  0  0  0
 12  8  1  0  0  0  0
 13  2  2  0  0  0  0
 14 23  1  0  0  0  0
 14  9  1  0  0  0  0
 15  7  1  0  0  0  0
 17 26  1  0  0  0  0
 17 20  1  0  0  0  0
 18 13  1  0  0  0  0
 19  2  1  0  0  0  0
 20  4  1  0  0  0  0
 21 10  2  0  0  0  0
 22  9  1  0  0  0  0
 22 20  1  0  0  0  0
 23 15  1  0  0  0  0
 25 18  2  0  0  0  0
 25 26  1  0  0  0  0
 26 19  2  0  0  0  0
 27 12  1  0  0  0  0
 27 24  1  0  0  0  0
 28 30  1  0  0  0  0
 30 29  1  0  0  0  0
M  END
>  <MODEL>
3

>  <REMARK>
 VINA RESULT:      -6.0      1.885      7.630
  Name = 
  2 active torsions:
  status: ('A' for Active; 'I' for Inactive)
    1  A    between atoms: C_11  and  C_28
    2  A    between atoms: C_28  and  C_30
                            x       y       z     vdW  Elec       q    Type
                         _______ _______ _______ _____ _____    ______ ____

>  <TORSDO>
F 2

$$$$
=
 OpenBabel11122412463D

 30 35  0  0  1  0  0  0  0  0999 V2000
  160.3680  212.4750  151.7090 C   0  0  2  0  0  3  0  0  0  0  0  0
  159.1130  213.7470  149.8640 C   0  0  0  0  0  0  0  0  0  0  0  0
  162.1250  210.1880  148.6680 O   0  0  0  0  0  0  0  0  0  0  0  0
  160.7950  211.0050  151.8690 C   0  0  2  0  0  3  0  0  0  0  0  0
  159.2310  212.7100  152.5150 O   0  0  0  0  0  0  0  0  0  0  0  0
  158.8400  210.3870  154.0660 O   0  0  0  0  0  1  0  0  0  0  0  0
  160.7810  208.2310  152.8530 C   0  0  1  0  0  3  0  0  0  0  0  0
  159.9650  211.1990  154.2430 C   0  0  2  0  0  3  0  0  0  0  0  0
  160.9660  208.2200  151.3380 C   0  0  2  0  0  3  0  0  0  0  0  0
  162.2460  208.9780  149.3100 C   0  0  0  0  0  0  0  0  0  0  0  0
  159.6460  212.6470  153.8610 C   0  0  2  0  0  3  0  0  0  0  0  0
  161.1150  210.7280  153.3450 C   0  0  1  0  0  3  0  0  0  0  0  0
  158.8900  214.0190  148.5130 C   0  0  0  0  0  3  0  0  0  0  0  0
  161.1830  206.7460  151.0330 C   0  0  0  0  0  2  0  0  0  0  0  0
  161.1710  206.8300  153.2570 C   0  0  0  0  0  2  0  0  0  0  0  0
  158.3720  214.4530  150.8040 O   0  0  0  0  0  1  0  0  0  0  0  0
  162.0130  211.2600  149.5870 C   0  0  2  0  0  3  0  0  0  0  0  0
  159.6380  213.3750  147.5310 C   0  0  0  0  0  3  0  0  0  0  0  0
  160.0780  212.7840  150.2520 C   0  0  0  0  0  0  0  0  0  0  0  0
  161.9880  210.6120  150.9910 C   0  0  2  0  0  3  0  0  0  0  0  0
  162.4740  207.9080  148.6870 O   0  0  0  0  0  0  0  0  0  0  0  0
  162.1430  209.0770  150.7890 C   0  0  1  0  0  3  0  0  0  0  0  0
  160.8970  205.9850  152.1770 O   0  0  0  0  0  0  0  0  0  0  0  0
  161.6020  209.0260  154.9910 O   0  0  0  0  0  1  0  0  0  0  0  0
  160.6220  212.4610  147.8980 C   0  0  0  0  0  3  0  0  0  0  0  0
  160.8490  212.1550  149.2460 C   0  0  0  0  0  0  0  0  0  0  0  0
  161.5920  209.2890  153.6180 C   0  0  1  0  0  3  0  0  0  0  0  0
  158.5730  213.2140  154.7790 C   0  0  0  0  0  2  0  0  0  0  0  0
  156.3370  212.5570  154.2470 O   0  0  0  0  0  1  0  0  0  0  0  0
  157.3060  213.5300  154.0050 C   0  0  0  0  0  2  0  0  0  0  0  0
  1 19  1  6  0  0  0
  1  4  1  0  0  0  0
  1  5  1  0  0  0  0
  2 19  1  0  0  0  0
  2 16  1  0  0  0  0
  3 10  1  0  0  0  0
  3 17  1  0  0  0  0
  4 12  1  0  0  0  0
  5 11  1  0  0  0  0
  6  8  1  0  0  0  0
  7 15  1  0  0  0  0
  7 27  1  0  0  0  0
  9  7  1  0  0  0  0
 10 22  1  0  0  0  0
 11  8  1  0  0  0  0
 11 28  1  0  0  0  0
 12 27  1  0  0  0  0
 12  8  1  0  0  0  0
 13  2  2  0  0  0  0
 14  9  1  0  0  0  0
 14 23  1  0  0  0  0
 17 20  1  0  0  0  0
 18 25  2  0  0  0  0
 18 13  1  0  0  0  0
 20  4  1  0  0  0  0
 21 10  2  0  0  0  0
 22 20  1  0  0  0  0
 22  9  1  0  0  0  0
 23 15  1  0  0  0  0
 25 26  1  0  0  0  0
 26 17  1  0  0  0  0
 26 19  2  0  0  0  0
 27 24  1  0  0  0  0
 30 29  1  0  0  0  0
 30 28  1  0  0  0  0
M  END
>  <MODEL>
4

>  <REMARK>
 VINA RESULT:      -5.9      2.854      8.009
  Name = 
  2 active torsions:
  status: ('A' for Active; 'I' for Inactive)
    1  A    between atoms: C_11  and  C_28
    2  A    between atoms: C_28  and  C_30
                            x       y       z     vdW  Elec       q    Type
                         _______ _______ _______ _____ _____    ______ ____

>  <TORSDO>
F 2

$$$$
=
 OpenBabel11122412463D

 30 35  0  0  1  0  0  0  0  0999 V2000
  161.3250  210.8690  151.3470 C   0  0  2  0  0  3  0  0  0  0  0  0
  161.9210  208.7230  150.0690 C   0  0  0  0  0  0  0  0  0  0  0  0
  160.8080  208.4710  154.7440 O   0  0  0  0  0  0  0  0  0  0  0  0
  160.3290  211.1770  152.4790 C   0  0  2  0  0  3  0  0  0  0  0  0
  160.7860  211.3360  150.1260 O   0  0  0  0  0  0  0  0  0  0  0  0
  158.4560  212.7870  150.7680 O   0  0  0  0  0  1  0  0  0  0  0  0
  157.9080  212.1960  153.8080 C   0  0  1  0  0  3  0  0  0  0  0  0
  159.7220  213.2370  151.1560 C   0  0  2  0  0  3  0  0  0  0  0  0
  158.1990  210.7860  154.3160 C   0  0  2  0  0  3  0  0  0  0  0  0
  159.7940  209.1540  155.3750 C   0  0  0  0  0  0  0  0  0  0  0  0
  160.7880  212.7450  150.1730 C   0  0  2  0  0  3  0  0  0  0  0  0
  160.0850  212.6920  152.5420 C   0  0  1  0  0  3  0  0  0  0  0  0
  162.1970  207.3540  150.0560 C   0  0  0  0  0  3  0  0  0  0  0  0
  157.1440  210.5900  155.3940 C   0  0  0  0  0  2  0  0  0  0  0  0
  156.9170  212.7270  154.8140 C   0  0  0  0  0  2  0  0  0  0  0  0
  161.9710  209.4110  148.8620 O   0  0  0  0  0  1  0  0  0  0  0  0
  161.5080  209.2970  153.8330 C   0  0  2  0  0  3  0  0  0  0  0  0
  162.2080  206.6250  151.2420 C   0  0  0  0  0  3  0  0  0  0  0  0
  161.6090  209.3800  151.2850 C   0  0  0  0  0  0  0  0  0  0  0  0
  160.7780  210.6600  153.8510 C   0  0  2  0  0  3  0  0  0  0  0  0
  159.1200  208.6440  156.3070 O   0  0  0  0  0  0  0  0  0  0  0  0
  159.6250  210.5490  154.8900 C   0  0  1  0  0  3  0  0  0  0  0  0
  156.2100  211.6360  155.3310 O   0  0  0  0  0  0  0  0  0  0  0  0
  158.7380  214.4530  153.5040 O   0  0  0  0  0  1  0  0  0  0  0  0
  161.9500  207.2660  152.4510 C   0  0  0  0  0  3  0  0  0  0  0  0
  161.6480  208.6340  152.4870 C   0  0  0  0  0  0  0  0  0  0  0  0
  159.1280  213.1210  153.6700 C   0  0  1  0  0  3  0  0  0  0  0  0
  160.5430  213.3270  148.7890 C   0  0  0  0  0  2  0  0  0  0  0  0
  162.7710  212.9210  148.0240 O   0  0  0  0  0  1  0  0  0  0  0  0
  161.4290  212.6580  147.7530 C   0  0  0  0  0  2  0  0  0  0  0  0
  1  5  1  6  0  0  0
  1  4  1  0  0  0  0
  2 19  1  0  0  0  0
  3 10  1  0  0  0  0
  4 12  1  0  0  0  0
  4 20  1  0  0  0  0
  5 11  1  0  0  0  0
  6  8  1  0  0  0  0
  7  9  1  0  0  0  0
  7 15  1  0  0  0  0
  8 12  1  0  0  0  0
  9 22  1  0  0  0  0
  9 14  1  0  0  0  0
 10 21  2  0  0  0  0
 11  8  1  0  0  0  0
 12 27  1  0  0  0  0
 13  2  2  0  0  0  0
 13 18  1  0  0  0  0
 15 23  1  0  0  0  0
 16  2  1  0  0  0  0
 17 20  1  0  0  0  0
 17  3  1  0  0  0  0
 18 25  2  0  0  0  0
 19  1  1  0  0  0  0
 19 26  2  0  0  0  0
 20 22  1  0  0  0  0
 22 10  1  0  0  0  0
 23 14  1  0  0  0  0
 24 27  1  0  0  0  0
 25 26  1  0  0  0  0
 26 17  1  0  0  0  0
 27  7  1  0  0  0  0
 28 11  1  0  0  0  0
 30 29  1  0  0  0  0
 30 28  1  0  0  0  0
M  END
>  <MODEL>
5

>  <REMARK>
 VINA RESULT:      -5.1      3.090      5.496
  Name = 
  2 active torsions:
  status: ('A' for Active; 'I' for Inactive)
    1  A    between atoms: C_11  and  C_28
    2  A    between atoms: C_28  and  C_30
                            x       y       z     vdW  Elec       q    Type
                         _______ _______ _______ _____ _____    ______ ____

>  <TORSDO>
F 2

$$$$
=
 OpenBabel11122412463D

 30 35  0  0  1  0  0  0  0  0999 V2000
  162.1340  208.1870  149.7920 C   0  0  2  0  0  3  0  0  0  0  0  0
  161.1930  206.8550  147.8090 C   0  0  0  0  0  0  0  0  0  0  0  0
  161.6470  204.7240  152.1000 O   0  0  0  0  0  0  0  0  0  0  0  0
  161.8230  208.1900  151.2990 C   0  0  2  0  0  3  0  0  0  0  0  0
  161.5260  209.3190  149.2000 O   0  0  0  0  0  0  0  0  0  0  0  0
  160.5110  210.8930  151.3080 O   0  0  0  0  0  1  0  0  0  0  0  0
  160.7470  209.1030  153.8830 C   0  0  1  0  0  3  0  0  0  0  0  0
  161.8870  210.7060  151.1370 C   0  0  2  0  0  3  0  0  0  0  0  0
  160.4740  207.6080  153.7300 C   0  0  2  0  0  3  0  0  0  0  0  0
  161.3410  205.2830  153.3200 C   0  0  0  0  0  0  0  0  0  0  0  0
  162.2150  210.4590  149.6620 C   0  0  2  0  0  3  0  0  0  0  0  0
  162.3650  209.4820  151.9270 C   0  0  1  0  0  3  0  0  0  0  0  0
  160.7640  205.6490  147.2500 C   0  0  0  0  0  3  0  0  0  0  0  0
  159.8590  207.2370  155.0700 C   0  0  0  0  0  2  0  0  0  0  0  0
  160.5070  209.3480  155.3520 C   0  0  0  0  0  2  0  0  0  0  0  0
  161.1790  207.9890  147.0050 O   0  0  0  0  0  1  0  0  0  0  0  0
  162.3250  205.6390  151.2600 C   0  0  2  0  0  3  0  0  0  0  0  0
  160.8020  204.4730  147.9950 C   0  0  0  0  0  3  0  0  0  0  0  0
  161.6380  206.9040  149.1530 C   0  0  0  0  0  0  0  0  0  0  0  0
  162.3810  206.9710  152.0440 C   0  0  2  0  0  3  0  0  0  0  0  0
  160.8410  204.6100  154.2590 O   0  0  0  0  0  0  0  0  0  0  0  0
  161.7130  206.7180  153.4260 C   0  0  1  0  0  3  0  0  0  0  0  0
  159.5720  208.4060  155.7930 O   0  0  0  0  0  0  0  0  0  0  0  0
  162.4060  210.8700  153.9060 O   0  0  0  0  0  1  0  0  0  0  0  0
  161.2800  204.4970  149.3020 C   0  0  0  0  0  3  0  0  0  0  0  0
  161.6960  205.6980  149.8920 C   0  0  0  0  0  0  0  0  0  0  0  0
  162.1430  209.5750  153.4480 C   0  0  1  0  0  3  0  0  0  0  0  0
  161.8510  211.6780  148.8260 C   0  0  0  0  0  2  0  0  0  0  0  0
  162.6670  213.0010  147.0100 O   0  0  0  0  0  1  0  0  0  0  0  0
  163.0660  212.2150  148.0910 C   0  0  0  0  0  2  0  0  0  0  0  0
  1 19  1  6  0  0  0
  1  4  1  0  0  0  0
  2 19  1  0  0  0  0
  3 10  1  0  0  0  0
  4 12  1  0  0  0  0
  4 20  1  0  0  0  0
  5 11  1  0  0  0  0
  5  1  1  0  0  0  0
  7 15  1  0  0  0  0
  8  6  1  0  0  0  0
  8 12  1  0  0  0  0
  9  7  1  0  0  0  0
  9 14  1  0  0  0  0
 10 22  1  0  0  0  0
 10 21  2  0  0  0  0
 11  8  1  0  0  0  0
 12 27  1  0  0  0  0
 13  2  2  0  0  0  0
 13 18  1  0  0  0  0
 14 23  1  0  0  0  0
 15 23  1  0  0  0  0
 16  2  1  0  0  0  0
 17 20  1  0  0  0  0
 17  3  1  0  0  0  0
 18 25  2  0  0  0  0
 19 26  2  0  0  0  0
 20 22  1  0  0  0  0
 22  9  1  0  0  0  0
 25 26  1  0  0  0  0
 26 17  1  0  0  0  0
 27  7  1  0  0  0  0
 27 24  1  0  0  0  0
 28 11  1  0  0  0  0
 29 30  1  0  0  0  0
 30 28  1  0  0  0  0
M  END
>  <MODEL>
6

>  <REMARK>
 VINA RESULT:      -4.8      1.962      3.779
  Name = 
  2 active torsions:
  status: ('A' for Active; 'I' for Inactive)
    1  A    between atoms: C_11  and  C_28
    2  A    between atoms: C_28  and  C_30
                            x       y       z     vdW  Elec       q    Type
                         _______ _______ _______ _____ _____    ______ ____

>  <TORSDO>
F 2

$$$$
=
 OpenBabel11122412463D

 30 35  0  0  1  0  0  0  0  0999 V2000
  161.8770  204.7890  149.6050 C   0  0  2  0  0  3  0  0  0  0  0  0
  161.3290  207.2030  150.2880 C   0  0  0  0  0  0  0  0  0  0  0  0
  162.3170  206.2030  145.6850 O   0  0  0  0  0  0  0  0  0  0  0  0
  161.5730  203.9570  148.3460 C   0  0  2  0  0  3  0  0  0  0  0  0
  160.9940  204.3950  150.6360 O   0  0  0  0  0  0  0  0  0  0  0  0
  159.5920  202.1390  149.6880 O   0  0  0  0  0  1  0  0  0  0  0  0
  160.2860  201.9440  146.6270 C   0  0  1  0  0  3  0  0  0  0  0  0
  160.9690  202.0900  149.9320 C   0  0  2  0  0  3  0  0  0  0  0  0
  160.4190  203.2510  145.8490 C   0  0  2  0  0  3  0  0  0  0  0  0
  161.8710  205.1110  144.9780 C   0  0  0  0  0  0  0  0  0  0  0  0
  161.3540  203.0890  151.0270 C   0  0  2  0  0  3  0  0  0  0  0  0
  161.7520  202.4660  148.6680 C   0  0  1  0  0  3  0  0  0  0  0  0
  161.2350  208.5610  149.9780 C   0  0  0  0  0  3  0  0  0  0  0  0
  159.9190  202.8730  144.4630 C   0  0  0  0  0  2  0  0  0  0  0  0
  159.9850  200.9310  145.5500 C   0  0  0  0  0  2  0  0  0  0  0  0
  161.0170  206.8050  151.5830 O   0  0  0  0  0  1  0  0  0  0  0  0
  162.7320  205.8490  146.9910 C   0  0  2  0  0  3  0  0  0  0  0  0
  161.5810  209.0210  148.7100 C   0  0  0  0  0  3  0  0  0  0  0  0
  161.7400  206.2700  149.3040 C   0  0  0  0  0  0  0  0  0  0  0  0
  162.4310  204.3390  147.1350 C   0  0  2  0  0  3  0  0  0  0  0  0
  161.5640  205.1800  143.7590 O   0  0  0  0  0  0  0  0  0  0  0  0
  161.8500  203.8560  145.7750 C   0  0  1  0  0  3  0  0  0  0  0  0
  159.3310  201.6000  144.5090 O   0  0  0  0  0  0  0  0  0  0  0  0
  161.4180  200.2060  147.8800 O   0  0  0  0  0  1  0  0  0  0  0  0
  162.0320  208.1220  147.7470 C   0  0  0  0  0  3  0  0  0  0  0  0
  162.1130  206.7520  148.0270 C   0  0  0  0  0  0  0  0  0  0  0  0
  161.5090  201.5370  147.4640 C   0  0  1  0  0  3  0  0  0  0  0  0
  160.6840  202.7190  152.3420 C   0  0  0  0  0  2  0  0  0  0  0  0
  161.2060  204.7340  153.5180 O   0  0  0  0  0  1  0  0  0  0  0  0
  160.1510  203.9530  153.0460 C   0  0  0  0  0  2  0  0  0  0  0  0
  1 19  1  6  0  0  0
  1  5  1  0  0  0  0
  2 16  1  0  0  0  0
  3 17  1  0  0  0  0
  4 12  1  0  0  0  0
  4  1  1  0  0  0  0
  5 11  1  0  0  0  0
  6  8  1  0  0  0  0
  7 27  1  0  0  0  0
  8 11  1  0  0  0  0
  9  7  1  0  0  0  0
 10  3  1  0  0  0  0
 10 22  1  0  0  0  0
 11 28  1  0  0  0  0
 12  8  1  0  0  0  0
 13  2  1  0  0  0  0
 14 23  1  0  0  0  0
 14  9  1  0  0  0  0
 15  7  1  0  0  0  0
 17 20  1  0  0  0  0
 17 26  1  0  0  0  0
 18 13  2  0  0  0  0
 19  2  2  0  0  0  0
 20  4  1  0  0  0  0
 21 10  2  0  0  0  0
 22  9  1  0  0  0  0
 22 20  1  0  0  0  0
 23 15  1  0  0  0  0
 25 26  2  0  0  0  0
 25 18  1  0  0  0  0
 26 19  1  0  0  0  0
 27 24  1  0  0  0  0
 27 12  1  0  0  0  0
 28 30  1  0  0  0  0
 30 29  1  0  0  0  0
M  END
>  <MODEL>
7

>  <REMARK>
 VINA RESULT:      -4.5      2.185      7.524
  Name = 
  2 active torsions:
  status: ('A' for Active; 'I' for Inactive)
    1  A    between atoms: C_11  and  C_28
    2  A    between atoms: C_28  and  C_30
                            x       y       z     vdW  Elec       q    Type
                         _______ _______ _______ _____ _____    ______ ____

>  <TORSDO>
F 2

$$$$
=
 OpenBabel11122412463D

 30 35  0  0  1  0  0  0  0  0999 V2000
  160.9590  208.4740  150.9150 C   0  0  2  0  0  3  0  0  0  0  0  0
  162.0200  209.8070  148.9940 C   0  0  0  0  0  0  0  0  0  0  0  0
  160.3740  212.1320  152.8740 O   0  0  0  0  0  0  0  0  0  0  0  0
  160.9660  208.6470  152.4440 C   0  0  2  0  0  3  0  0  0  0  0  0
  161.8590  207.4390  150.5690 O   0  0  0  0  0  0  0  0  0  0  0  0
  162.7040  206.2560  152.9850 O   0  0  0  0  0  1  0  0  0  0  0  0
  161.6620  208.1580  155.2620 C   0  0  1  0  0  3  0  0  0  0  0  0
  161.3770  206.1600  152.5540 C   0  0  2  0  0  3  0  0  0  0  0  0
  161.6930  209.6610  154.9960 C   0  0  2  0  0  3  0  0  0  0  0  0
  160.5290  211.7370  154.1820 C   0  0  0  0  0  0  0  0  0  0  0  0
  161.3050  206.2260  151.0260 C   0  0  2  0  0  3  0  0  0  0  0  0
  160.5470  207.3250  153.1050 C   0  0  1  0  0  3  0  0  0  0  0  0
  162.3310  211.0270  148.3900 C   0  0  0  0  0  3  0  0  0  0  0  0
  161.9610  210.2450  156.3740 C   0  0  0  0  0  2  0  0  0  0  0  0
  161.6510  208.0760  156.7690 C   0  0  0  0  0  2  0  0  0  0  0  0
  162.3880  208.6400  148.3370 O   0  0  0  0  0  1  0  0  0  0  0  0
  160.0430  211.0420  152.0340 C   0  0  2  0  0  3  0  0  0  0  0  0
  161.9440  212.2270  148.9800 C   0  0  0  0  0  3  0  0  0  0  0  0
  161.3380  209.7770  150.2360 C   0  0  0  0  0  0  0  0  0  0  0  0
  160.0690  209.7880  152.9380 C   0  0  2  0  0  3  0  0  0  0  0  0
  160.7110  212.5630  155.1150 O   0  0  0  0  0  0  0  0  0  0  0  0
  160.4000  210.2700  154.3800 C   0  0  1  0  0  3  0  0  0  0  0  0
  162.3020  209.2120  157.2610 O   0  0  0  0  0  0  0  0  0  0  0  0
  160.3660  206.1110  155.1880 O   0  0  0  0  0  1  0  0  0  0  0  0
  161.2320  212.2110  150.1770 C   0  0  0  0  0  3  0  0  0  0  0  0
  160.9270  211.0020  150.8140 C   0  0  0  0  0  0  0  0  0  0  0  0
  160.4820  207.3940  154.6430 C   0  0  1  0  0  3  0  0  0  0  0  0
  162.0310  205.0400  150.4080 C   0  0  0  0  0  2  0  0  0  0  0  0
  160.9200  205.1470  148.2960 O   0  0  0  0  0  1  0  0  0  0  0  0
  161.1500  204.3270  149.4000 C   0  0  0  0  0  2  0  0  0  0  0  0
  1 19  1  6  0  0  0
  1  4  1  0  0  0  0
  2 19  1  0  0  0  0
  3 10  1  0  0  0  0
  4 20  1  0  0  0  0
  4 12  1  0  0  0  0
  5  1  1  0  0  0  0
  5 11  1  0  0  0  0
  7 15  1  0  0  0  0
  8  6  1  0  0  0  0
  8 12  1  0  0  0  0
  9  7  1  0  0  0  0
  9 14  1  0  0  0  0
 10 22  1  0  0  0  0
 10 21  2  0  0  0  0
 11  8  1  0  0  0  0
 12 27  1  0  0  0  0
 13 18  1  0  0  0  0
 13  2  2  0  0  0  0
 14 23  1  0  0  0  0
 15 23  1  0  0  0  0
 16  2  1  0  0  0  0
 17  3  1  0  0  0  0
 17 20  1  0  0  0  0
 18 25  2  0  0  0  0
 19 26  2  0  0  0  0
 20 22  1  0  0  0  0
 22  9  1  0  0  0  0
 25 26  1  0  0  0  0
 26 17  1  0  0  0  0
 27 24  1  0  0  0  0
 27  7  1  0  0  0  0
 28 11  1  0  0  0  0
 29 30  1  0  0  0  0
 30 28  1  0  0  0  0
M  END
>  <MODEL>
8

>  <REMARK>
 VINA RESULT:      -4.3      2.045      5.648
  Name = 
  2 active torsions:
  status: ('A' for Active; 'I' for Inactive)
    1  A    between atoms: C_11  and  C_28
    2  A    between atoms: C_28  and  C_30
                            x       y       z     vdW  Elec       q    Type
                         _______ _______ _______ _____ _____    ______ ____

>  <TORSDO>
F 2

$$$$
=
 OpenBabel11122412463D

 30 35  0  0  1  0  0  0  0  0999 V2000
  161.5380  209.1470  151.7210 C   0  0  2  0  0  3  0  0  0  0  0  0
  161.3310  207.0620  150.2370 C   0  0  0  0  0  0  0  0  0  0  0  0
  160.6860  206.6670  154.9900 O   0  0  0  0  0  0  0  0  0  0  0  0
  160.8010  209.6110  152.9900 C   0  0  2  0  0  3  0  0  0  0  0  0
  161.0380  209.8710  150.6140 O   0  0  0  0  0  0  0  0  0  0  0  0
  159.3250  211.8570  151.6470 O   0  0  0  0  0  1  0  0  0  0  0  0
  158.9460  211.1430  154.6860 C   0  0  1  0  0  3  0  0  0  0  0  0
  160.7010  211.8830  151.8970 C   0  0  2  0  0  3  0  0  0  0  0  0
  158.8540  209.6650  155.0580 C   0  0  2  0  0  3  0  0  0  0  0  0
  159.9920  207.5450  155.7900 C   0  0  0  0  0  0  0  0  0  0  0  0
  161.4640  211.2070  150.7540 C   0  0  2  0  0  3  0  0  0  0  0  0
  161.0270  211.1180  153.1850 C   0  0  1  0  0  3  0  0  0  0  0  0
  161.1850  205.6800  150.0970 C   0  0  0  0  0  3  0  0  0  0  0  0
  157.9070  209.6720  156.2470 C   0  0  0  0  0  2  0  0  0  0  0  0
  158.2670  211.8310  155.8450 C   0  0  0  0  0  2  0  0  0  0  0  0
  161.4580  207.8250  149.0830 O   0  0  0  0  0  1  0  0  0  0  0  0
  161.5020  207.3450  154.0530 C   0  0  2  0  0  3  0  0  0  0  0  0
  161.1020  204.8620  151.2210 C   0  0  0  0  0  3  0  0  0  0  0  0
  161.3580  207.6540  151.5240 C   0  0  0  0  0  0  0  0  0  0  0  0
  161.2160  208.8510  154.2550 C   0  0  2  0  0  3  0  0  0  0  0  0
  159.2980  207.1570  156.7660 O   0  0  0  0  0  0  0  0  0  0  0  0
  160.1970  208.9710  155.4250 C   0  0  1  0  0  3  0  0  0  0  0  0
  157.3250  210.9430  156.3740 O   0  0  0  0  0  0  0  0  0  0  0  0
  160.3730  213.0850  154.4280 O   0  0  0  0  0  1  0  0  0  0  0  0
  161.1730  205.4240  152.4930 C   0  0  0  0  0  3  0  0  0  0  0  0
  161.2970  206.8100  152.6590 C   0  0  0  0  0  0  0  0  0  0  0  0
  160.3640  211.6870  154.4530 C   0  0  1  0  0  3  0  0  0  0  0  0
  161.2610  211.9730  149.4550 C   0  0  0  0  0  2  0  0  0  0  0  0
  162.9780  212.5480  147.8940 O   0  0  0  0  0  1  0  0  0  0  0  0
  162.2170  211.4850  148.3810 C   0  0  0  0  0  2  0  0  0  0  0  0
  1  5  1  6  0  0  0
  1  4  1  0  0  0  0
  2 19  1  0  0  0  0
  3 10  1  0  0  0  0
  4 12  1  0  0  0  0
  4 20  1  0  0  0  0
  5 11  1  0  0  0  0
  6  8  1  0  0  0  0
  7  9  1  0  0  0  0
  7 15  1  0  0  0  0
  8 12  1  0  0  0  0
  9 22  1  0  0  0  0
  9 14  1  0  0  0  0
 10 21  2  0  0  0  0
 11  8  1  0  0  0  0
 12 27  1  0  0  0  0
 13  2  2  0  0  0  0
 13 18  1  0  0  0  0
 14 23  1  0  0  0  0
 15 23  1  0  0  0  0
 16  2  1  0  0  0  0
 17 20  1  0  0  0  0
 17  3  1  0  0  0  0
 18 25  2  0  0  0  0
 19  1  1  0  0  0  0
 19 26  2  0  0  0  0
 20 22  1  0  0  0  0
 22 10  1  0  0  0  0
 24 27  1  0  0  0  0
 25 26  1  0  0  0  0
 26 17  1  0  0  0  0
 27  7  1  0  0  0  0
 28 11  1  0  0  0  0
 29 30  1  0  0  0  0
 30 28  1  0  0  0  0
M  END
>  <MODEL>
9

>  <REMARK>
 VINA RESULT:      -4.0      2.320      4.453
  Name = 
  2 active torsions:
  status: ('A' for Active; 'I' for Inactive)
    1  A    between atoms: C_11  and  C_28
    2  A    between atoms: C_28  and  C_30
                            x       y       z     vdW  Elec       q    Type
                         _______ _______ _______ _____ _____    ______ ____

>  <TORSDO>
F 2

$$$$
