=
 OpenBabel11122414133D

 28 32  0  0  1  0  0  0  0  0999 V2000
  160.8300  209.4830  155.0380 C   0  0  0  0  0  0  0  0  0  0  0  0
  157.5600  210.7620  155.1820 F   0  0  0  0  0  0  0  0  0  0  0  0
  160.9160  212.7230  150.1540 O   0  0  0  0  0  0  0  0  0  0  0  0
  162.2710  210.4920  157.2210 C   0  0  0  0  0  3  0  0  0  0  0  0
  158.9540  213.2110  151.4900 C   0  0  2  0  0  3  0  0  0  0  0  0
  160.1390  208.9540  153.9490 O   0  0  0  0  0  0  0  0  0  0  0  0
  158.3980  211.5000  157.2610 C   0  0  0  0  0  1  0  0  0  0  0  0
  157.8920  211.9050  155.8900 C   0  0  1  0  0  0  0  0  0  0  0  0
  156.2480  213.6350  155.0900 C   0  0  0  0  0  0  0  0  0  0  0  0
  158.9710  212.7340  155.1430 C   0  0  2  0  0  3  0  0  0  0  0  0
  161.7000  208.3590  150.6070 C   0  0  0  0  0  1  0  0  0  0  0  0
  159.4960  211.4400  153.1360 C   0  0  1  0  0  3  0  0  0  0  0  0
  157.0330  213.9900  154.1200 N   0  0  0  0  0  0  0  0  0  0  0  0
  156.6880  212.7010  156.0750 N   0  0  0  0  0  2  0  0  0  0  0  0
  160.8940  209.1000  151.6530 C   0  0  2  0  0  3  0  0  0  0  0  0
  160.7750  210.8660  155.3380 C   0  0  0  0  0  0  0  0  0  0  0  0
  160.1980  212.4780  151.1620 C   0  0  0  0  0  0  0  0  0  0  0  0
  154.9630  214.2320  155.2110 N   0  0  0  0  0  1  0  0  0  0  0  0
  161.5410  210.4550  151.9190 C   0  0  0  0  0  2  0  0  0  0  0  0
  161.5140  211.3530  156.4260 C   0  0  0  0  0  3  0  0  0  0  0  0
  161.6010  208.6290  155.8390 C   0  0  0  0  0  3  0  0  0  0  0  0
  162.3140  209.1290  156.9290 C   0  0  0  0  0  3  0  0  0  0  0  0
  160.8240  208.2530  152.9200 C   0  0  0  0  0  2  0  0  0  0  0  0
  158.4500  212.5000  152.7520 C   0  0  1  0  0  3  0  0  0  0  0  0
  160.5190  211.4810  152.1080 N   0  0  0  0  0  0  0  0  0  0  0  0
  158.3870  213.4690  153.9260 C   0  0  2  0  0  3  0  0  0  0  0  0
  157.9360  213.0350  150.3780 C   0  0  0  0  0  1  0  0  0  0  0  0
  160.0590  211.8880  154.4800 C   0  0  2  0  0  3  0  0  0  0  0  0
  1 16  2  0  0  0  0
  1 21  1  0  0  0  0
  2  8  1  0  0  0  0
  3 17  2  0  0  0  0
  5 27  1  6  0  0  0
  5 24  1  0  0  0  0
  6  1  1  0  0  0  0
  8 14  1  0  0  0  0
  8  7  1  1  0  0  0
  9 18  1  0  0  0  0
  9 14  1  0  0  0  0
 10  8  1  0  0  0  0
 11 15  1  0  0  0  0
 12 28  1  0  0  0  0
 13  9  2  0  0  0  0
 15 19  1  0  0  0  0
 15 23  1  0  0  0  0
 16 20  1  0  0  0  0
 17  5  1  0  0  0  0
 17 25  1  0  0  0  0
 19 25  1  0  0  0  0
 20  4  2  0  0  0  0
 21 22  2  0  0  0  0
 22  4  1  0  0  0  0
 23  6  1  0  0  0  0
 24 12  1  0  0  0  0
 24 26  1  0  0  0  0
 25 12  1  0  0  0  0
 26 13  1  0  0  0  0
 26 10  1  0  0  0  0
 28 10  1  0  0  0  0
 28 16  1  0  0  0  0
M  END
>  <MODEL>
1

>  <REMARK>
 VINA RESULT:      -5.8      0.000      0.000
  Name = 
  0 active torsions:
  status: ('A' for Active; 'I' for Inactive)
                            x       y       z     vdW  Elec       q    Type
                         _______ _______ _______ _____ _____    ______ ____

>  <TORSDO>
F 0

$$$$
=
 OpenBabel11122414133D

 28 32  0  0  1  0  0  0  0  0999 V2000
  160.4970  210.9930  151.3230 C   0  0  0  0  0  0  0  0  0  0  0  0
  159.7210  207.5660  151.3220 F   0  0  0  0  0  0  0  0  0  0  0  0
  161.8340  209.7670  156.8960 O   0  0  0  0  0  0  0  0  0  0  0  0
  162.6620  211.4100  149.5910 C   0  0  0  0  0  3  0  0  0  0  0  0
  161.4720  207.7390  155.6210 C   0  0  2  0  0  3  0  0  0  0  0  0
  159.4120  210.8230  152.1820 O   0  0  0  0  0  0  0  0  0  0  0  0
  161.3080  207.6440  149.5780 C   0  0  0  0  0  1  0  0  0  0  0  0
  160.9910  207.1390  150.9720 C   0  0  1  0  0  0  0  0  0  0  0  0
  161.2320  204.9040  152.1040 C   0  0  0  0  0  0  0  0  0  0  0  0
  162.0530  207.6500  151.9830 C   0  0  2  0  0  3  0  0  0  0  0  0
  158.9470  212.7790  155.3310 C   0  0  0  0  0  1  0  0  0  0  0  0
  160.8040  209.0000  153.5950 C   0  0  1  0  0  3  0  0  0  0  0  0
  161.6980  205.4540  153.1820 N   0  0  0  0  0  0  0  0  0  0  0  0
  160.9960  205.6840  150.9340 N   0  0  0  0  0  2  0  0  0  0  0  0
  159.3530  211.5980  154.4760 C   0  0  2  0  0  3  0  0  0  0  0  0
  161.6350  210.1540  151.4060 C   0  0  0  0  0  0  0  0  0  0  0  0
  161.5020  209.2070  155.8170 C   0  0  0  0  0  0  0  0  0  0  0  0
  161.0180  203.4980  152.0680 N   0  0  0  0  0  1  0  0  0  0  0  0
  160.8520  211.3590  154.6280 C   0  0  0  0  0  2  0  0  0  0  0  0
  162.7130  210.3880  150.5400 C   0  0  0  0  0  3  0  0  0  0  0  0
  160.4610  212.0230  150.3720 C   0  0  0  0  0  3  0  0  0  0  0  0
  161.5350  212.2270  149.5060 C   0  0  0  0  0  3  0  0  0  0  0  0
  158.9740  211.8800  153.0240 C   0  0  0  0  0  2  0  0  0  0  0  0
  160.9580  207.5880  154.1830 C   0  0  1  0  0  3  0  0  0  0  0  0
  161.1400  209.9270  154.6580 N   0  0  0  0  0  0  0  0  0  0  0  0
  161.9910  206.8830  153.3130 C   0  0  2  0  0  3  0  0  0  0  0  0
  160.4780  207.1060  156.5750 C   0  0  0  0  0  1  0  0  0  0  0  0
  161.8190  209.0840  152.4610 C   0  0  2  0  0  3  0  0  0  0  0  0
  1 16  1  0  0  0  0
  1  6  1  0  0  0  0
  4 20  1  0  0  0  0
  5 17  1  0  0  0  0
  5 27  1  1  0  0  0
  6 23  1  0  0  0  0
  8  7  1  6  0  0  0
  8  2  1  0  0  0  0
  8 10  1  0  0  0  0
  9 13  2  0  0  0  0
 10 28  1  0  0  0  0
 10 26  1  0  0  0  0
 12 24  1  0  0  0  0
 12 25  1  0  0  0  0
 13 26  1  0  0  0  0
 14  8  1  0  0  0  0
 14  9  1  0  0  0  0
 15 19  1  0  0  0  0
 15 11  1  0  0  0  0
 16 28  1  0  0  0  0
 17  3  2  0  0  0  0
 18  9  1  0  0  0  0
 19 25  1  0  0  0  0
 20 16  2  0  0  0  0
 21  1  2  0  0  0  0
 22  4  2  0  0  0  0
 22 21  1  0  0  0  0
 23 15  1  0  0  0  0
 24  5  1  0  0  0  0
 25 17  1  0  0  0  0
 26 24  1  0  0  0  0
 28 12  1  0  0  0  0
M  END
>  <MODEL>
2

>  <REMARK>
 VINA RESULT:      -3.8      2.979      6.956
  Name = 
  0 active torsions:
  status: ('A' for Active; 'I' for Inactive)
                            x       y       z     vdW  Elec       q    Type
                         _______ _______ _______ _____ _____    ______ ____

>  <TORSDO>
F 0

$$$$
=
 OpenBabel11122414133D

 28 32  0  0  1  0  0  0  0  0999 V2000
  159.9270  209.8630  138.4070 C   0  0  0  0  0  0  0  0  0  0  0  0
  160.2060  211.0640  141.6980 F   0  0  0  0  0  0  0  0  0  0  0  0
  156.0050  214.2100  138.1150 O   0  0  0  0  0  0  0  0  0  0  0  0
  162.3660  210.3040  137.0960 C   0  0  0  0  0  3  0  0  0  0  0  0
  157.3120  214.3510  140.1500 C   0  0  2  0  0  3  0  0  0  0  0  0
  158.7060  209.6190  139.0330 O   0  0  0  0  0  0  0  0  0  0  0  0
  162.4440  211.2660  140.9790 C   0  0  0  0  0  1  0  0  0  0  0  0
  161.1910  211.9970  141.4190 C   0  0  1  0  0  0  0  0  0  0  0  0
  160.7550  213.8690  143.0440 C   0  0  0  0  0  0  0  0  0  0  0  0
  160.7300  212.9860  140.3150 C   0  0  2  0  0  3  0  0  0  0  0  0
  155.4090  209.8700  137.2920 C   0  0  0  0  0  1  0  0  0  0  0  0
  158.4970  212.2280  139.6680 C   0  0  1  0  0  3  0  0  0  0  0  0
  159.9470  214.4530  142.2160 N   0  0  0  0  0  0  0  0  0  0  0  0
  161.5010  212.7210  142.6430 N   0  0  0  0  0  2  0  0  0  0  0  0
  156.5600  210.3290  138.1620 C   0  0  2  0  0  3  0  0  0  0  0  0
  160.5550  211.1300  138.4970 C   0  0  0  0  0  0  0  0  0  0  0  0
  156.8810  213.7220  138.8800 C   0  0  0  0  0  0  0  0  0  0  0  0
  160.9500  214.4160  144.3420 N   0  0  0  0  0  1  0  0  0  0  0  0
  157.1870  211.5770  137.5490 C   0  0  0  0  0  2  0  0  0  0  0  0
  161.7670  211.3340  137.8230 C   0  0  0  0  0  3  0  0  0  0  0  0
  160.5330  208.8390  137.6660 C   0  0  0  0  0  3  0  0  0  0  0  0
  161.7490  209.0550  137.0170 C   0  0  0  0  0  3  0  0  0  0  0  0
  157.5740  209.1950  138.2850 C   0  0  0  0  0  2  0  0  0  0  0  0
  158.3310  213.3490  140.7080 C   0  0  1  0  0  3  0  0  0  0  0  0
  157.5680  212.5230  138.5940 N   0  0  0  0  0  0  0  0  0  0  0  0
  159.7030  213.9980  140.8460 C   0  0  2  0  0  3  0  0  0  0  0  0
  156.1390  214.4530  141.1060 C   0  0  0  0  0  1  0  0  0  0  0  0
  159.9380  212.3310  139.1820 C   0  0  2  0  0  3  0  0  0  0  0  0
  1 16  1  0  0  0  0
  1  6  1  0  0  0  0
  3 17  2  0  0  0  0
  4 20  1  0  0  0  0
  5 24  1  0  0  0  0
  5 27  1  1  0  0  0
  8  7  1  6  0  0  0
  8  2  1  0  0  0  0
  8 14  1  0  0  0  0
  9 18  1  0  0  0  0
 10 26  1  0  0  0  0
 10  8  1  0  0  0  0
 11 15  1  0  0  0  0
 12 24  1  0  0  0  0
 13  9  2  0  0  0  0
 14  9  1  0  0  0  0
 15 23  1  0  0  0  0
 16 28  1  0  0  0  0
 17  5  1  0  0  0  0
 19 15  1  0  0  0  0
 19 25  1  0  0  0  0
 20 16  2  0  0  0  0
 21  1  2  0  0  0  0
 22  4  2  0  0  0  0
 22 21  1  0  0  0  0
 23  6  1  0  0  0  0
 24 26  1  0  0  0  0
 25 17  1  0  0  0  0
 25 12  1  0  0  0  0
 26 13  1  0  0  0  0
 28 12  1  0  0  0  0
 28 10  1  0  0  0  0
M  END
>  <MODEL>
3

>  <REMARK>
 VINA RESULT:      -3.4     11.902     14.897
  Name = 
  0 active torsions:
  status: ('A' for Active; 'I' for Inactive)
                            x       y       z     vdW  Elec       q    Type
                         _______ _______ _______ _____ _____    ______ ____

>  <TORSDO>
F 0

$$$$
=
 OpenBabel11122414133D

 28 32  0  0  1  0  0  0  0  0999 V2000
  160.8380  208.2160  152.9350 C   0  0  0  0  0  0  0  0  0  0  0  0
  158.0900  210.3990  152.7470 F   0  0  0  0  0  0  0  0  0  0  0  0
  162.9260  211.9510  148.9290 O   0  0  0  0  0  0  0  0  0  0  0  0
  161.9440  208.4070  155.5040 C   0  0  0  0  0  3  0  0  0  0  0  0
  160.9110  212.8160  149.9590 C   0  0  2  0  0  3  0  0  0  0  0  0
  160.3050  208.0890  151.6530 O   0  0  0  0  0  0  0  0  0  0  0  0
  158.5840  210.5330  155.0500 C   0  0  0  0  0  1  0  0  0  0  0  0
  158.5400  211.2690  153.7260 C   0  0  1  0  0  0  0  0  0  0  0  0
  157.6530  213.5160  153.0180 C   0  0  0  0  0  0  0  0  0  0  0  0
  159.9460  211.8280  153.3750 C   0  0  2  0  0  3  0  0  0  0  0  0
  162.3870  207.5390  148.5990 C   0  0  0  0  0  1  0  0  0  0  0  0
  160.5590  210.7430  151.2710 C   0  0  1  0  0  3  0  0  0  0  0  0
  158.7080  213.7520  152.3020 N   0  0  0  0  0  0  0  0  0  0  0  0
  157.5840  212.3600  153.8500 N   0  0  0  0  0  2  0  0  0  0  0  0
  161.5870  208.3310  149.6120 C   0  0  2  0  0  3  0  0  0  0  0  0
  161.0860  209.4910  153.5000 C   0  0  0  0  0  0  0  0  0  0  0  0
  161.9550  211.7930  149.7160 C   0  0  0  0  0  0  0  0  0  0  0  0
  156.5830  214.4530  153.0260 N   0  0  0  0  0  1  0  0  0  0  0  0
  162.4920  209.3690  150.2670 C   0  0  0  0  0  2  0  0  0  0  0  0
  161.6530  209.5640  154.7810 C   0  0  0  0  0  3  0  0  0  0  0  0
  161.1430  207.0600  153.6660 C   0  0  0  0  0  3  0  0  0  0  0  0
  161.6890  207.1540  154.9470 C   0  0  0  0  0  3  0  0  0  0  0  0
  160.9990  207.3700  150.6420 C   0  0  0  0  0  2  0  0  0  0  0  0
  159.9550  212.1160  150.9330 C   0  0  1  0  0  3  0  0  0  0  0  0
  161.7660  210.6190  150.4770 N   0  0  0  0  0  0  0  0  0  0  0  0
  159.8800  212.8760  152.2520 C   0  0  2  0  0  3  0  0  0  0  0  0
  160.1720  213.1230  148.6700 C   0  0  0  0  0  1  0  0  0  0  0  0
  160.8910  210.7960  152.7580 C   0  0  2  0  0  3  0  0  0  0  0  0
  1 16  2  0  0  0  0
  1 21  1  0  0  0  0
  2  8  1  0  0  0  0
  3 17  2  0  0  0  0
  5 27  1  6  0  0  0
  5 24  1  0  0  0  0
  6  1  1  0  0  0  0
  8 14  1  0  0  0  0
  8  7  1  1  0  0  0
  9 18  1  0  0  0  0
  9 14  1  0  0  0  0
 10  8  1  0  0  0  0
 11 15  1  0  0  0  0
 12 28  1  0  0  0  0
 13  9  2  0  0  0  0
 15 19  1  0  0  0  0
 15 23  1  0  0  0  0
 16 20  1  0  0  0  0
 17  5  1  0  0  0  0
 17 25  1  0  0  0  0
 19 25  1  0  0  0  0
 20  4  2  0  0  0  0
 21 22  2  0  0  0  0
 22  4  1  0  0  0  0
 23  6  1  0  0  0  0
 24 12  1  0  0  0  0
 24 26  1  0  0  0  0
 25 12  1  0  0  0  0
 26 13  1  0  0  0  0
 26 10  1  0  0  0  0
 28 10  1  0  0  0  0
 28 16  1  0  0  0  0
M  END
>  <MODEL>
4

>  <REMARK>
 VINA RESULT:      -3.1      1.833      2.450
  Name = 
  0 active torsions:
  status: ('A' for Active; 'I' for Inactive)
                            x       y       z     vdW  Elec       q    Type
                         _______ _______ _______ _____ _____    ______ ____

>  <TORSDO>
F 0

$$$$
=
 OpenBabel11122414133D

 28 32  0  0  1  0  0  0  0  0999 V2000
  160.7920  208.0800  154.9540 C   0  0  0  0  0  0  0  0  0  0  0  0
  159.1230  210.3800  152.8860 F   0  0  0  0  0  0  0  0  0  0  0  0
  163.5280  206.9020  149.9060 O   0  0  0  0  0  0  0  0  0  0  0  0
  162.2670  209.5130  156.8590 C   0  0  0  0  0  3  0  0  0  0  0  0
  162.1970  208.9190  149.7260 C   0  0  2  0  0  3  0  0  0  0  0  0
  160.0600  207.3370  154.0280 O   0  0  0  0  0  0  0  0  0  0  0  0
  159.9800  211.8340  154.5350 C   0  0  0  0  0  1  0  0  0  0  0  0
  160.0240  211.4150  153.0790 C   0  0  1  0  0  0  0  0  0  0  0  0
  159.9880  212.6850  150.9070 C   0  0  0  0  0  0  0  0  0  0  0  0
  161.4630  210.9850  152.6860 C   0  0  2  0  0  3  0  0  0  0  0  0
  161.2620  204.1220  152.5520 C   0  0  0  0  0  1  0  0  0  0  0  0
  161.2700  208.6440  152.0070 C   0  0  1  0  0  3  0  0  0  0  0  0
  160.9270  211.9410  150.4100 N   0  0  0  0  0  0  0  0  0  0  0  0
  159.6020  212.5510  152.2730 N   0  0  0  0  0  2  0  0  0  0  0  0
  161.0020  205.6130  152.6130 C   0  0  2  0  0  3  0  0  0  0  0  0
  161.6030  209.1660  154.5430 C   0  0  0  0  0  0  0  0  0  0  0  0
  162.7060  207.7110  150.4160 C   0  0  0  0  0  0  0  0  0  0  0  0
  159.3860  213.6910  150.1010 N   0  0  0  0  0  1  0  0  0  0  0  0
  162.3310  206.3580  152.5360 C   0  0  0  0  0  2  0  0  0  0  0  0
  162.3440  209.8610  155.5100 C   0  0  0  0  0  3  0  0  0  0  0  0
  160.7300  207.7340  156.3110 C   0  0  0  0  0  3  0  0  0  0  0  0
  161.4590  208.4500  157.2610 C   0  0  0  0  0  3  0  0  0  0  0  0
  160.2520  205.9350  153.9030 C   0  0  0  0  0  2  0  0  0  0  0  0
  161.2070  209.5090  150.7370 C   0  0  1  0  0  3  0  0  0  0  0  0
  162.1940  207.5630  151.7230 N   0  0  0  0  0  0  0  0  0  0  0  0
  161.6400  210.9070  151.1620 C   0  0  2  0  0  3  0  0  0  0  0  0
  161.4480  208.5230  148.4670 C   0  0  0  0  0  1  0  0  0  0  0  0
  161.8210  209.5570  153.0970 C   0  0  2  0  0  3  0  0  0  0  0  0
  1 21  1  0  0  0  0
  2  8  1  0  0  0  0
  3 17  2  0  0  0  0
  4 22  1  0  0  0  0
  5 27  1  6  0  0  0
  5 17  1  0  0  0  0
  5 24  1  0  0  0  0
  6  1  1  0  0  0  0
  8  7  1  1  0  0  0
  9 14  1  0  0  0  0
 10  8  1  0  0  0  0
 10 28  1  0  0  0  0
 11 15  1  0  0  0  0
 12 28  1  0  0  0  0
 13  9  2  0  0  0  0
 13 26  1  0  0  0  0
 14  8  1  0  0  0  0
 15 23  1  0  0  0  0
 16  1  2  0  0  0  0
 16 20  1  0  0  0  0
 17 25  1  0  0  0  0
 18  9  1  0  0  0  0
 19 15  1  0  0  0  0
 20  4  2  0  0  0  0
 21 22  2  0  0  0  0
 23  6  1  0  0  0  0
 24 26  1  0  0  0  0
 24 12  1  0  0  0  0
 25 12  1  0  0  0  0
 25 19  1  0  0  0  0
 26 10  1  0  0  0  0
 28 16  1  0  0  0  0
M  END
>  <MODEL>
5

>  <REMARK>
 VINA RESULT:      -3.1      2.584      4.148
  Name = 
  0 active torsions:
  status: ('A' for Active; 'I' for Inactive)
                            x       y       z     vdW  Elec       q    Type
                         _______ _______ _______ _____ _____    ______ ____

>  <TORSDO>
F 0

$$$$
