=
 OpenBabel11122414153D

 34 41  0  0  1  0  0  0  0  0999 V2000
  161.6110  208.0040  149.9750 C   0  0  0  0  0  0  0  0  0  0  0  0
  161.5010  209.9280  151.5730 C   0  0  0  0  0  3  0  0  0  0  0  0
  161.0690  201.6320  148.5900 C   0  0  0  0  0  0  0  0  0  0  0  0
  161.6170  206.0090  148.5680 C   0  0  0  0  0  0  0  0  0  0  0  0
  160.8410  203.9020  149.6090 C   0  0  0  0  0  0  0  0  0  0  0  0
  160.6630  201.6190  150.5600 C   0  0  0  0  0  2  0  0  0  0  0  0
  161.3380  200.7330  149.6860 O   0  0  0  0  0  0  0  0  0  0  0  0
  160.9860  202.8850  146.6140 C   0  0  0  0  0  2  0  0  0  0  0  0
  160.9670  207.9620  152.3230 C   0  0  0  0  0  0  0  0  0  0  0  0
  160.7570  207.2570  155.2970 C   0  0  0  0  0  3  0  0  0  0  0  0
  160.6190  204.5240  150.7800 C   0  0  0  0  0  3  0  0  0  0  0  0
  161.8070  204.0680  147.1110 C   0  0  0  0  0  2  0  0  0  0  0  0
  160.6840  206.4960  152.3170 C   0  0  0  0  0  0  0  0  0  0  0  0
  161.1640  210.0850  152.9150 C   0  0  0  0  0  3  0  0  0  0  0  0
  161.3720  204.6900  148.4260 C   0  0  0  0  0  0  0  0  0  0  0  0
  161.3860  201.6990  147.3440 N   0  0  0  0  0  0  0  0  0  0  0  0
  160.4320  208.4440  154.7640 C   0  0  0  0  0  0  0  0  0  0  0  0
  161.3890  206.6820  149.8610 C   0  0  0  0  0  0  0  0  0  0  0  0
  160.2770  202.5010  149.4920 C   0  0  2  0  0  3  0  0  0  0  0  0
  160.9400  205.9050  150.9900 N   0  0  0  0  0  0  0  0  0  0  0  0
  162.3370  208.2060  147.6440 C   0  0  0  0  0  3  0  0  0  0  0  0
  161.4920  206.1370  154.6630 C   0  0  0  0  0  3  0  0  0  0  0  0
  162.1130  206.8010  147.4770 N   0  0  0  0  0  2  0  0  0  0  0  0
  161.5040  205.8120  153.3670 C   0  0  0  0  0  3  0  0  0  0  0  0
  160.8240  208.8210  153.3820 C   0  0  2  0  0  3  0  0  0  0  0  0
  162.1000  208.7920  148.8210 C   0  0  0  0  0  3  0  0  0  0  0  0
  161.3730  208.6290  151.2380 N   0  0  0  0  0  0  0  0  0  0  0  0
  159.7170  209.3220  155.5920 O   0  0  0  0  0  0  0  0  0  0  0  0
  160.2910  210.4290  156.2760 C   0  0  0  0  0  2  0  0  0  0  0  0
  159.1070  212.5360  154.0830 O   0  0  0  0  0  0  0  0  0  0  0  0
  158.0130  211.1920  155.6840 C   0  0  0  0  0  2  0  0  0  0  0  0
  159.3360  211.6130  156.2530 C   0  0  2  0  0  3  0  0  0  0  0  0
  157.8420  212.0780  154.4750 C   0  0  0  0  0  2  0  0  0  0  0  0
  159.8420  212.6480  155.2740 C   0  0  0  0  0  2  0  0  0  0  0  0
  1 27  1  0  0  0  0
  2 14  2  0  0  0  0
  3 19  1  0  0  0  0
  3  7  1  0  0  0  0
  4 18  1  0  0  0  0
  5 11  2  0  0  0  0
  7  6  1  0  0  0  0
  8 12  1  0  0  0  0
  8 16  1  0  0  0  0
  9 25  1  0  0  0  0
 11 20  1  0  0  0  0
 12 15  1  0  0  0  0
 13  9  2  0  0  0  0
 13 24  1  0  0  0  0
 15  4  2  0  0  0  0
 15  5  1  0  0  0  0
 16  3  2  0  0  0  0
 17 10  2  0  0  0  0
 17 28  1  0  0  0  0
 18  1  2  0  0  0  0
 18 20  1  0  0  0  0
 19  5  1  0  0  0  0
 19  6  1  1  0  0  0
 20 13  1  0  0  0  0
 21 26  2  0  0  0  0
 22 10  1  0  0  0  0
 23 21  1  0  0  0  0
 23  4  1  0  0  0  0
 24 22  2  0  0  0  0
 25 14  1  1  0  0  0
 25 17  1  0  0  0  0
 26  1  1  0  0  0  0
 27  2  1  0  0  0  0
 27  9  1  0  0  0  0
 28 29  1  0  0  0  0
 30 33  1  0  0  0  0
 30 34  1  0  0  0  0
 31 32  1  0  0  0  0
 32 29  1  6  0  0  0
 33 31  1  0  0  0  0
 34 32  1  0  0  0  0
M  END
>  <MODEL>
1

>  <REMARK>
 VINA RESULT:      -9.6      0.000      0.000
  Name = 
  3 active torsions:
  status: ('A' for Active; 'I' for Inactive)
    1  A    between atoms: C_17  and  O_28
    2  A    between atoms: O_28  and  C_29
    3  A    between atoms: C_29  and  C_32
                            x       y       z     vdW  Elec       q    Type
                         _______ _______ _______ _____ _____    ______ ____

>  <TORSDO>
F 3

$$$$
=
 OpenBabel11122414153D

 34 41  0  0  1  0  0  0  0  0999 V2000
  161.6380  207.7020  149.6550 C   0  0  0  0  0  0  0  0  0  0  0  0
  161.5630  209.6280  151.2510 C   0  0  0  0  0  3  0  0  0  0  0  0
  161.0170  201.3340  148.2830 C   0  0  0  0  0  0  0  0  0  0  0  0
  161.6100  205.7050  148.2510 C   0  0  0  0  0  0  0  0  0  0  0  0
  160.8230  203.6080  149.3020 C   0  0  0  0  0  0  0  0  0  0  0  0
  160.6290  201.3280  150.2570 C   0  0  0  0  0  2  0  0  0  0  0  0
  161.2870  200.4340  149.3780 O   0  0  0  0  0  0  0  0  0  0  0  0
  160.9280  202.5860  146.3060 C   0  0  0  0  0  2  0  0  0  0  0  0
  161.0160  207.6700  152.0090 C   0  0  0  0  0  0  0  0  0  0  0  0
  160.8270  206.9700  154.9850 C   0  0  0  0  0  3  0  0  0  0  0  0
  160.6180  204.2330  150.4730 C   0  0  0  0  0  3  0  0  0  0  0  0
  161.7670  203.7600  146.7950 C   0  0  0  0  0  2  0  0  0  0  0  0
  160.7170  206.2060  152.0070 C   0  0  0  0  0  0  0  0  0  0  0  0
  161.2410  209.7910  152.5960 C   0  0  0  0  0  3  0  0  0  0  0  0
  161.3510  204.3880  148.1130 C   0  0  0  0  0  0  0  0  0  0  0  0
  161.3230  201.3960  147.0340 N   0  0  0  0  0  0  0  0  0  0  0  0
  160.5080  208.1600  154.4540 C   0  0  0  0  0  0  0  0  0  0  0  0
  161.4020  206.3810  149.5450 C   0  0  0  0  0  0  0  0  0  0  0  0
  160.2420  202.2120  149.1920 C   0  0  2  0  0  3  0  0  0  0  0  0
  160.9550  205.6110  150.6790 N   0  0  0  0  0  0  0  0  0  0  0  0
  162.3440  207.8940  147.3170 C   0  0  0  0  0  3  0  0  0  0  0  0
  161.5440  205.8420  154.3470 C   0  0  0  0  0  3  0  0  0  0  0  0
  162.1050  206.4910  147.1540 N   0  0  0  0  0  2  0  0  0  0  0  0
  161.5400  205.5150  153.0510 C   0  0  0  0  0  3  0  0  0  0  0  0
  160.8920  208.5310  153.0680 C   0  0  2  0  0  3  0  0  0  0  0  0
  162.1250  208.4830  148.4960 C   0  0  0  0  0  3  0  0  0  0  0  0
  161.4190  208.3310  150.9200 N   0  0  0  0  0  0  0  0  0  0  0  0
  159.8110  209.0460  155.2870 O   0  0  0  0  0  0  0  0  0  0  0  0
  159.8930  209.0490  156.7080 C   0  0  0  0  0  2  0  0  0  0  0  0
  162.9640  209.9890  156.1250 O   0  0  0  0  0  0  0  0  0  0  0  0
  160.9460  211.2130  156.1350 C   0  0  0  0  0  2  0  0  0  0  0  0
  160.8460  210.1380  157.1770 C   0  0  2  0  0  3  0  0  0  0  0  0
  162.4110  211.2280  155.7720 C   0  0  0  0  0  2  0  0  0  0  0  0
  162.2480  209.5780  157.2600 C   0  0  0  0  0  2  0  0  0  0  0  0
  1 27  1  0  0  0  0
  2 14  2  0  0  0  0
  3 19  1  0  0  0  0
  3  7  1  0  0  0  0
  4 18  1  0  0  0  0
  5 11  2  0  0  0  0
  7  6  1  0  0  0  0
  8 12  1  0  0  0  0
  8 16  1  0  0  0  0
  9 25  1  0  0  0  0
 11 20  1  0  0  0  0
 12 15  1  0  0  0  0
 13  9  2  0  0  0  0
 13 24  1  0  0  0  0
 15  4  2  0  0  0  0
 15  5  1  0  0  0  0
 16  3  2  0  0  0  0
 17 10  2  0  0  0  0
 17 28  1  0  0  0  0
 18  1  2  0  0  0  0
 18 20  1  0  0  0  0
 19  5  1  0  0  0  0
 19  6  1  1  0  0  0
 20 13  1  0  0  0  0
 21 26  2  0  0  0  0
 22 10  1  0  0  0  0
 23 21  1  0  0  0  0
 23  4  1  0  0  0  0
 24 22  2  0  0  0  0
 25 14  1  1  0  0  0
 25 17  1  0  0  0  0
 26  1  1  0  0  0  0
 27  2  1  0  0  0  0
 27  9  1  0  0  0  0
 28 29  1  0  0  0  0
 30 34  1  0  0  0  0
 31 32  1  0  0  0  0
 32 29  1  6  0  0  0
 32 34  1  0  0  0  0
 33 30  1  0  0  0  0
 33 31  1  0  0  0  0
M  END
>  <MODEL>
2

>  <REMARK>
 VINA RESULT:      -9.2      1.203      1.624
  Name = 
  3 active torsions:
  status: ('A' for Active; 'I' for Inactive)
    1  A    between atoms: C_17  and  O_28
    2  A    between atoms: O_28  and  C_29
    3  A    between atoms: C_29  and  C_32
                            x       y       z     vdW  Elec       q    Type
                         _______ _______ _______ _____ _____    ______ ____

>  <TORSDO>
F 3

$$$$
=
 OpenBabel11122414153D

 34 41  0  0  1  0  0  0  0  0999 V2000
  160.8240  207.4060  154.5840 C   0  0  0  0  0  0  0  0  0  0  0  0
  161.7410  205.5800  153.1400 C   0  0  0  0  0  3  0  0  0  0  0  0
  158.5020  213.4660  155.4250 C   0  0  0  0  0  0  0  0  0  0  0  0
  159.8730  209.2910  155.8110 C   0  0  0  0  0  0  0  0  0  0  0  0
  159.1570  211.2490  154.4760 C   0  0  0  0  0  0  0  0  0  0  0  0
  158.9060  213.4940  153.4540 C   0  0  0  0  0  2  0  0  0  0  0  0
  158.9900  214.4530  154.4920 O   0  0  0  0  0  0  0  0  0  0  0  0
  157.9080  212.1270  157.2510 C   0  0  0  0  0  2  0  0  0  0  0  0
  161.1570  207.4330  152.1730 C   0  0  0  0  0  0  0  0  0  0  0  0
  161.9890  208.2270  149.3330 C   0  0  0  0  0  3  0  0  0  0  0  0
  159.5420  210.6530  153.3350 C   0  0  0  0  0  3  0  0  0  0  0  0
  159.0800  211.1580  157.1570 C   0  0  0  0  0  2  0  0  0  0  0  0
  160.6020  208.8120  152.0160 C   0  0  1  0  0  3  0  0  0  0  0  0
  161.9960  205.4240  151.7790 C   0  0  0  0  0  3  0  0  0  0  0  0
  159.3310  210.5260  155.7990 C   0  0  0  0  0  0  0  0  0  0  0  0
  158.3120  213.4030  156.6960 N   0  0  0  0  0  0  0  0  0  0  0  0
  161.7290  206.9740  149.7360 C   0  0  0  0  0  0  0  0  0  0  0  0
  160.3110  208.6510  154.5570 C   0  0  1  0  0  3  0  0  0  0  0  0
  158.3200  212.5020  154.3140 C   0  0  2  0  0  3  0  0  0  0  0  0
  160.1930  209.3760  153.3160 N   0  0  0  0  0  0  0  0  0  0  0  0
  160.6030  207.2400  157.0190 C   0  0  0  0  0  3  0  0  0  0  0  0
  162.1740  209.4390  150.1650 C   0  0  0  0  0  3  0  0  0  0  0  0
  160.0530  208.5620  157.0360 N   0  0  0  0  0  0  0  0  0  0  0  0
  161.6100  209.6960  151.3490 C   0  0  0  0  0  3  0  0  0  0  0  0
  161.6170  206.6160  151.1730 C   0  0  0  0  0  0  0  0  0  0  0  0
  160.9710  206.6770  155.8640 C   0  0  0  0  0  3  0  0  0  0  0  0
  161.2310  206.8090  153.3520 N   0  0  0  0  0  0  0  0  0  0  0  0
  161.5910  206.0130  148.7250 O   0  0  0  0  0  0  0  0  0  0  0  0
  160.6950  206.1240  147.6250 C   0  0  0  0  0  2  0  0  0  0  0  0
  161.5390  203.8260  145.4670 O   0  0  0  0  0  0  0  0  0  0  0  0
  160.4990  205.9230  145.1670 C   0  0  0  0  0  2  0  0  0  0  0  0
  161.4610  206.0370  146.3130 C   0  0  2  0  0  3  0  0  0  0  0  0
  160.8630  204.6090  144.5200 C   0  0  0  0  0  2  0  0  0  0  0  0
  162.2380  204.7410  146.2690 C   0  0  0  0  0  2  0  0  0  0  0  0
  1 26  2  0  0  0  0
  2 27  1  0  0  0  0
  3 16  2  0  0  0  0
  4 23  1  0  0  0  0
  5 15  1  0  0  0  0
  6  7  1  0  0  0  0
  7  3  1  0  0  0  0
  9 27  1  0  0  0  0
 10 17  2  0  0  0  0
 10 22  1  0  0  0  0
 11  5  2  0  0  0  0
 12  8  1  0  0  0  0
 13 24  1  1  0  0  0
 13  9  1  0  0  0  0
 13 20  1  0  0  0  0
 14  2  2  0  0  0  0
 15  4  2  0  0  0  0
 15 12  1  0  0  0  0
 16  8  1  0  0  0  0
 17 25  1  0  0  0  0
 18  1  1  1  0  0  0
 18  4  1  0  0  0  0
 19  6  1  6  0  0  0
 19  5  1  0  0  0  0
 19  3  1  0  0  0  0
 20 11  1  0  0  0  0
 20 18  1  0  0  0  0
 21 23  2  0  0  0  0
 22 24  2  0  0  0  0
 25 14  1  0  0  0  0
 25  9  2  0  0  0  0
 26 21  1  0  0  0  0
 27  1  1  0  0  0  0
 28 17  1  0  0  0  0
 29 28  1  0  0  0  0
 30 34  1  0  0  0  0
 31 32  1  0  0  0  0
 32 29  1  1  0  0  0
 33 31  1  0  0  0  0
 33 30  1  0  0  0  0
 34 32  1  0  0  0  0
M  END
>  <MODEL>
3

>  <REMARK>
 VINA RESULT:      -8.8      2.789      9.360
  Name = 
  3 active torsions:
  status: ('A' for Active; 'I' for Inactive)
    1  A    between atoms: C_17  and  O_28
    2  A    between atoms: O_28  and  C_29
    3  A    between atoms: C_29  and  C_32
                            x       y       z     vdW  Elec       q    Type
                         _______ _______ _______ _____ _____    ______ ____

>  <TORSDO>
F 3

$$$$
=
 OpenBabel11122414153D

 34 41  0  0  1  0  0  0  0  0999 V2000
  160.9030  207.5650  154.5800 C   0  0  0  0  0  0  0  0  0  0  0  0
  161.9470  205.8050  153.1390 C   0  0  0  0  0  3  0  0  0  0  0  0
  158.1360  213.4370  155.4030 C   0  0  0  0  0  0  0  0  0  0  0  0
  159.8200  209.3790  155.8020 C   0  0  0  0  0  0  0  0  0  0  0  0
  158.9510  211.2710  154.4620 C   0  0  0  0  0  0  0  0  0  0  0  0
  158.5270  213.4850  153.4290 C   0  0  0  0  0  2  0  0  0  0  0  0
  158.5440  214.4530  154.4620 O   0  0  0  0  0  0  0  0  0  0  0  0
  157.6540  212.0670  157.2390 C   0  0  0  0  0  2  0  0  0  0  0  0
  161.2200  207.6040  152.1660 C   0  0  0  0  0  0  0  0  0  0  0  0
  161.9760  208.4420  149.3180 C   0  0  0  0  0  3  0  0  0  0  0  0
  159.3740  210.6990  153.3220 C   0  0  0  0  0  3  0  0  0  0  0  0
  158.8950  211.1890  157.1440 C   0  0  0  0  0  2  0  0  0  0  0  0
  160.5630  208.9360  152.0060 C   0  0  1  0  0  3  0  0  0  0  0  0
  162.2070  205.6610  151.7780 C   0  0  0  0  0  3  0  0  0  0  0  0
  159.1860  210.5700  155.7880 C   0  0  0  0  0  0  0  0  0  0  0  0
  157.9590  213.3670  156.6760 N   0  0  0  0  0  0  0  0  0  0  0  0
  161.8130  207.1750  149.7290 C   0  0  0  0  0  0  0  0  0  0  0  0
  160.2980  208.7670  154.5490 C   0  0  1  0  0  3  0  0  0  0  0  0
  158.0220  212.4560  154.2980 C   0  0  2  0  0  3  0  0  0  0  0  0
  160.1190  209.4750  153.3050 N   0  0  0  0  0  0  0  0  0  0  0  0
  160.7080  207.3950  157.0160 C   0  0  0  0  0  3  0  0  0  0  0  0
  162.0730  209.6690  150.1430 C   0  0  0  0  0  3  0  0  0  0  0  0
  160.0600  208.6730  157.0300 N   0  0  0  0  0  0  0  0  0  0  0  0
  161.4990  209.8890  151.3290 C   0  0  0  0  0  3  0  0  0  0  0  0
  161.7360  206.8180  151.1680 C   0  0  0  0  0  0  0  0  0  0  0  0
  161.1110  206.8560  155.8620 C   0  0  0  0  0  3  0  0  0  0  0  0
  161.3480  206.9930  153.3480 N   0  0  0  0  0  0  0  0  0  0  0  0
  161.7420  206.2010  148.7230 O   0  0  0  0  0  0  0  0  0  0  0  0
  160.8130  205.1240  148.7090 C   0  0  0  0  0  2  0  0  0  0  0  0
  160.0590  201.9580  148.9590 O   0  0  0  0  0  0  0  0  0  0  0  0
  161.5010  203.0930  147.4750 C   0  0  0  0  0  2  0  0  0  0  0  0
  161.5470  203.7950  148.8000 C   0  0  2  0  0  3  0  0  0  0  0  0
  160.7990  201.7920  147.7800 C   0  0  0  0  0  2  0  0  0  0  0  0
  160.7980  202.8680  149.7310 C   0  0  0  0  0  2  0  0  0  0  0  0
  1 26  2  0  0  0  0
  2 27  1  0  0  0  0
  3 16  2  0  0  0  0
  4 23  1  0  0  0  0
  5 15  1  0  0  0  0
  6  7  1  0  0  0  0
  7  3  1  0  0  0  0
  9 27  1  0  0  0  0
 10 17  2  0  0  0  0
 10 22  1  0  0  0  0
 11  5  2  0  0  0  0
 12  8  1  0  0  0  0
 13 24  1  1  0  0  0
 13  9  1  0  0  0  0
 13 20  1  0  0  0  0
 14  2  2  0  0  0  0
 15  4  2  0  0  0  0
 15 12  1  0  0  0  0
 16  8  1  0  0  0  0
 17 25  1  0  0  0  0
 18  1  1  1  0  0  0
 18  4  1  0  0  0  0
 19  6  1  6  0  0  0
 19  5  1  0  0  0  0
 19  3  1  0  0  0  0
 20 11  1  0  0  0  0
 20 18  1  0  0  0  0
 21 23  2  0  0  0  0
 22 24  2  0  0  0  0
 25 14  1  0  0  0  0
 25  9  2  0  0  0  0
 26 21  1  0  0  0  0
 27  1  1  0  0  0  0
 28 17  1  0  0  0  0
 29 28  1  0  0  0  0
 30 34  1  0  0  0  0
 31 33  1  0  0  0  0
 31 32  1  0  0  0  0
 32 29  1  6  0  0  0
 32 34  1  0  0  0  0
 33 30  1  0  0  0  0
M  END
>  <MODEL>
4

>  <REMARK>
 VINA RESULT:      -8.6      2.357      9.272
  Name = 
  3 active torsions:
  status: ('A' for Active; 'I' for Inactive)
    1  A    between atoms: C_17  and  O_28
    2  A    between atoms: O_28  and  C_29
    3  A    between atoms: C_29  and  C_32
                            x       y       z     vdW  Elec       q    Type
                         _______ _______ _______ _____ _____    ______ ____

>  <TORSDO>
F 3

$$$$
=
 OpenBabel11122414153D

 34 41  0  0  1  0  0  0  0  0999 V2000
  160.8110  207.3590  154.5230 C   0  0  0  0  0  0  0  0  0  0  0  0
  161.5600  205.3580  153.2200 C   0  0  0  0  0  3  0  0  0  0  0  0
  158.8300  213.5850  154.8830 C   0  0  0  0  0  0  0  0  0  0  0  0
  160.0200  209.3990  155.6060 C   0  0  0  0  0  0  0  0  0  0  0  0
  159.3260  211.2560  154.1240 C   0  0  0  0  0  0  0  0  0  0  0  0
  159.1260  213.4040  152.9010 C   0  0  0  0  0  2  0  0  0  0  0  0
  159.3130  214.4520  153.8350 O   0  0  0  0  0  0  0  0  0  0  0  0
  158.2730  212.4580  156.8580 C   0  0  0  0  0  2  0  0  0  0  0  0
  161.0130  207.1390  152.1070 C   0  0  0  0  0  0  0  0  0  0  0  0
  161.7260  207.6150  149.1660 C   0  0  0  0  0  3  0  0  0  0  0  0
  159.6190  210.5350  153.0290 C   0  0  0  0  0  3  0  0  0  0  0  0
  159.3900  211.4240  156.8020 C   0  0  0  0  0  2  0  0  0  0  0  0
  160.5170  208.5240  151.8450 C   0  0  1  0  0  3  0  0  0  0  0  0
  161.7330  205.0610  151.8700 C   0  0  0  0  0  3  0  0  0  0  0  0
  159.5370  210.6540  155.5010 C   0  0  0  0  0  0  0  0  0  0  0  0
  158.7070  213.6530  156.1630 N   0  0  0  0  0  0  0  0  0  0  0  0
  161.4290  206.4210  149.7010 C   0  0  0  0  0  0  0  0  0  0  0  0
  160.3580  208.6200  154.4000 C   0  0  1  0  0  3  0  0  0  0  0  0
  158.5420  212.5300  153.8820 C   0  0  2  0  0  3  0  0  0  0  0  0
  160.2060  209.2300  153.1020 N   0  0  0  0  0  0  0  0  0  0  0  0
  160.7160  207.4360  156.9700 C   0  0  0  0  0  3  0  0  0  0  0  0
  162.0140  208.8890  149.8660 C   0  0  0  0  0  3  0  0  0  0  0  0
  160.2300  208.7810  156.8860 N   0  0  0  0  0  0  0  0  0  0  0  0
  161.5280  209.2860  151.0460 C   0  0  0  0  0  3  0  0  0  0  0  0
  161.3790  206.2080  151.1700 C   0  0  0  0  0  0  0  0  0  0  0  0
  160.9930  206.7470  155.8590 C   0  0  0  0  0  3  0  0  0  0  0  0
  161.1220  206.6270  153.3360 N   0  0  0  0  0  0  0  0  0  0  0  0
  161.1900  205.3770  148.7960 O   0  0  0  0  0  0  0  0  0  0  0  0
  161.7570  204.0760  148.8990 C   0  0  0  0  0  2  0  0  0  0  0  0
  161.5080  200.8450  148.5190 O   0  0  0  0  0  0  0  0  0  0  0  0
  160.6740  202.2730  150.2010 C   0  0  0  0  0  2  0  0  0  0  0  0
  160.6600  203.0230  148.9020 C   0  0  2  0  0  3  0  0  0  0  0  0
  160.9160  200.8420  149.7890 C   0  0  0  0  0  2  0  0  0  0  0  0
  160.9730  201.9660  147.8670 C   0  0  0  0  0  2  0  0  0  0  0  0
  1 26  2  0  0  0  0
  2 27  1  0  0  0  0
  3 16  2  0  0  0  0
  4 23  1  0  0  0  0
  5 15  1  0  0  0  0
  6  7  1  0  0  0  0
  7  3  1  0  0  0  0
  9 27  1  0  0  0  0
 10 17  2  0  0  0  0
 10 22  1  0  0  0  0
 11 20  1  0  0  0  0
 11  5  2  0  0  0  0
 12  8  1  0  0  0  0
 13 24  1  1  0  0  0
 13  9  1  0  0  0  0
 13 20  1  0  0  0  0
 14  2  2  0  0  0  0
 15  4  2  0  0  0  0
 15 12  1  0  0  0  0
 16  8  1  0  0  0  0
 17 25  1  0  0  0  0
 18  1  1  1  0  0  0
 18  4  1  0  0  0  0
 19  6  1  6  0  0  0
 19  5  1  0  0  0  0
 19  3  1  0  0  0  0
 20 18  1  0  0  0  0
 22 24  2  0  0  0  0
 23 21  2  0  0  0  0
 25 14  1  0  0  0  0
 25  9  2  0  0  0  0
 26 21  1  0  0  0  0
 27  1  1  0  0  0  0
 28 29  1  0  0  0  0
 28 17  1  0  0  0  0
 30 33  1  0  0  0  0
 32 29  1  1  0  0  0
 32 31  1  0  0  0  0
 33 31  1  0  0  0  0
 34 30  1  0  0  0  0
 34 32  1  0  0  0  0
M  END
>  <MODEL>
5

>  <REMARK>
 VINA RESULT:      -8.0      2.279      9.283
  Name = 
  3 active torsions:
  status: ('A' for Active; 'I' for Inactive)
    1  A    between atoms: C_17  and  O_28
    2  A    between atoms: O_28  and  C_29
    3  A    between atoms: C_29  and  C_32
                            x       y       z     vdW  Elec       q    Type
                         _______ _______ _______ _____ _____    ______ ____

>  <TORSDO>
F 3

$$$$
=
 OpenBabel11122414153D

 34 41  0  0  1  0  0  0  0  0999 V2000
  161.7500  208.0670  149.5430 C   0  0  0  0  0  0  0  0  0  0  0  0
  161.8600  206.6110  147.5100 C   0  0  0  0  0  3  0  0  0  0  0  0
  160.8140  208.9310  155.9620 C   0  0  0  0  0  0  0  0  0  0  0  0
  161.6430  209.3040  151.6450 C   0  0  0  0  0  0  0  0  0  0  0  0
  161.3360  207.9770  153.7120 C   0  0  0  0  0  0  0  0  0  0  0  0
  160.4780  206.9530  155.8010 C   0  0  0  0  0  2  0  0  0  0  0  0
  159.9220  207.9870  156.5920 O   0  0  0  0  0  0  0  0  0  0  0  0
  161.9570  210.7700  155.0700 C   0  0  0  0  0  2  0  0  0  0  0  0
  161.4830  205.6500  149.4190 C   0  0  0  0  0  0  0  0  0  0  0  0
  160.4140  202.7950  149.7230 C   0  0  0  0  0  3  0  0  0  0  0  0
  161.3080  206.8310  153.0100 C   0  0  0  0  0  3  0  0  0  0  0  0
  161.4060  210.6590  153.6540 C   0  0  0  0  0  2  0  0  0  0  0  0
  161.2990  205.4990  150.8940 C   0  0  1  0  0  3  0  0  0  0  0  0
  161.7340  205.2470  147.2580 C   0  0  0  0  0  3  0  0  0  0  0  0
  161.5160  209.2990  152.9880 C   0  0  0  0  0  0  0  0  0  0  0  0
  160.9900  210.2050  155.9920 N   0  0  0  0  0  0  0  0  0  0  0  0
  161.2450  203.2050  148.7530 C   0  0  0  0  0  0  0  0  0  0  0  0
  161.5920  208.0440  150.8800 C   0  0  1  0  0  3  0  0  0  0  0  0
  161.4590  207.8250  155.2140 C   0  0  2  0  0  3  0  0  0  0  0  0
  161.3610  206.8040  151.5790 N   0  0  0  0  0  0  0  0  0  0  0  0
  161.9850  210.5050  149.4910 C   0  0  0  0  0  3  0  0  0  0  0  0
  159.6500  203.6210  150.6870 C   0  0  0  0  0  3  0  0  0  0  0  0
  161.8220  210.5280  150.9140 N   0  0  0  0  0  0  0  0  0  0  0  0
  159.9980  204.8140  151.1790 C   0  0  0  0  0  3  0  0  0  0  0  0
  161.4940  204.6440  148.4870 C   0  0  0  0  0  0  0  0  0  0  0  0
  161.9560  209.3450  148.8270 C   0  0  0  0  0  3  0  0  0  0  0  0
  161.7040  206.8290  148.8300 N   0  0  0  0  0  0  0  0  0  0  0  0
  161.8500  202.1980  147.9870 O   0  0  0  0  0  0  0  0  0  0  0  0
  161.1500  201.1180  147.3800 C   0  0  0  0  0  2  0  0  0  0  0  0
  159.0560  201.3280  144.8860 O   0  0  0  0  0  0  0  0  0  0  0  0
  160.9270  202.6510  145.4520 C   0  0  0  0  0  2  0  0  0  0  0  0
  161.2120  201.2370  145.8650 C   0  0  2  0  0  3  0  0  0  0  0  0
  159.7050  202.5310  144.5740 C   0  0  0  0  0  2  0  0  0  0  0  0
  160.0810  200.4420  145.2520 C   0  0  0  0  0  2  0  0  0  0  0  0
  2 27  1  0  0  0  0
  3 16  2  0  0  0  0
  3  7  1  0  0  0  0
  4 15  2  0  0  0  0
  5 19  1  0  0  0  0
  6  7  1  0  0  0  0
  8 16  1  0  0  0  0
  9 13  1  0  0  0  0
 10 22  1  0  0  0  0
 11  5  2  0  0  0  0
 12  8  1  0  0  0  0
 13 24  1  6  0  0  0
 13 20  1  0  0  0  0
 14  2  2  0  0  0  0
 14 25  1  0  0  0  0
 15 12  1  0  0  0  0
 15  5  1  0  0  0  0
 17 10  2  0  0  0  0
 18  1  1  6  0  0  0
 18 20  1  0  0  0  0
 18  4  1  0  0  0  0
 19  6  1  1  0  0  0
 19  3  1  0  0  0  0
 20 11  1  0  0  0  0
 21 23  2  0  0  0  0
 22 24  2  0  0  0  0
 23  4  1  0  0  0  0
 25 17  1  0  0  0  0
 25  9  2  0  0  0  0
 26 21  1  0  0  0  0
 26  1  2  0  0  0  0
 27  9  1  0  0  0  0
 27  1  1  0  0  0  0
 28 17  1  0  0  0  0
 29 28  1  0  0  0  0
 30 34  1  0  0  0  0
 31 32  1  0  0  0  0
 32 29  1  1  0  0  0
 33 30  1  0  0  0  0
 33 31  1  0  0  0  0
 34 32  1  0  0  0  0
M  END
>  <MODEL>
6

>  <REMARK>
 VINA RESULT:      -7.4      2.063      8.542
  Name = 
  3 active torsions:
  status: ('A' for Active; 'I' for Inactive)
    1  A    between atoms: C_17  and  O_28
    2  A    between atoms: O_28  and  C_29
    3  A    between atoms: C_29  and  C_32
                            x       y       z     vdW  Elec       q    Type
                         _______ _______ _______ _____ _____    ______ ____

>  <TORSDO>
F 3

$$$$
=
 OpenBabel11122414153D

 34 41  0  0  1  0  0  0  0  0999 V2000
  161.0540  204.5190  151.8090 C   0  0  0  0  0  0  0  0  0  0  0  0
  161.2060  205.9080  153.8860 C   0  0  0  0  0  3  0  0  0  0  0  0
  161.2660  203.8480  145.3040 C   0  0  0  0  0  0  0  0  0  0  0  0
  160.9920  203.3330  149.6760 C   0  0  0  0  0  0  0  0  0  0  0  0
  161.5850  204.6320  147.6550 C   0  0  0  0  0  0  0  0  0  0  0  0
  161.5760  205.8280  145.4830 C   0  0  0  0  0  2  0  0  0  0  0  0
  160.8900  205.0170  144.5460 O   0  0  0  0  0  0  0  0  0  0  0  0
  161.5220  201.7580  146.3280 C   0  0  0  0  0  2  0  0  0  0  0  0
  161.5800  206.8900  151.9870 C   0  0  0  0  0  0  0  0  0  0  0  0
  161.6030  209.9290  151.5990 C   0  0  0  0  0  3  0  0  0  0  0  0
  161.7890  205.7410  148.3870 C   0  0  0  0  0  3  0  0  0  0  0  0
  160.7530  202.0820  147.6020 C   0  0  0  0  0  2  0  0  0  0  0  0
  161.7730  207.0540  150.5150 C   0  0  0  0  0  0  0  0  0  0  0  0
  161.4870  207.2420  154.1700 C   0  0  0  0  0  3  0  0  0  0  0  0
  161.1610  203.3450  148.3380 C   0  0  0  0  0  0  0  0  0  0  0  0
  161.0140  202.5870  145.2520 N   0  0  0  0  0  0  0  0  0  0  0  0
  162.0270  209.2910  152.7010 C   0  0  0  0  0  0  0  0  0  0  0  0
  161.1990  204.5580  150.4720 C   0  0  0  0  0  0  0  0  0  0  0  0
  162.0670  204.6950  146.2200 C   0  0  2  0  0  3  0  0  0  0  0  0
  161.5440  205.7850  149.7980 N   0  0  0  0  0  0  0  0  0  0  0  0
  160.4560  202.1440  151.7970 C   0  0  0  0  0  3  0  0  0  0  0  0
  160.8310  209.3780  150.4600 C   0  0  0  0  0  3  0  0  0  0  0  0
  160.5990  202.1390  150.3720 N   0  0  0  0  0  2  0  0  0  0  0  0
  160.8620  208.1250  149.9970 C   0  0  0  0  0  3  0  0  0  0  0  0
  161.7250  207.8580  152.9460 C   0  0  2  0  0  3  0  0  0  0  0  0
  160.6710  203.2630  152.4930 C   0  0  0  0  0  3  0  0  0  0  0  0
  161.2700  205.7200  152.5540 N   0  0  0  0  0  0  0  0  0  0  0  0
  162.7530  210.0600  153.6220 O   0  0  0  0  0  0  0  0  0  0  0  0
  162.1880  210.7030  154.7580 C   0  0  0  0  0  2  0  0  0  0  0  0
  159.6650  211.3770  156.7160 O   0  0  0  0  0  0  0  0  0  0  0  0
  160.0890  211.9820  154.4750 C   0  0  0  0  0  2  0  0  0  0  0  0
  160.6700  210.6180  154.7090 C   0  0  2  0  0  3  0  0  0  0  0  0
  159.2190  212.2160  155.6850 C   0  0  0  0  0  2  0  0  0  0  0  0
  160.1430  210.2260  156.0710 C   0  0  0  0  0  2  0  0  0  0  0  0
  1 26  1  0  0  0  0
  1 27  1  0  0  0  0
  2 14  2  0  0  0  0
  3 19  1  0  0  0  0
  4 23  1  0  0  0  0
  4 18  1  0  0  0  0
  5 15  1  0  0  0  0
  5 11  2  0  0  0  0
  7  3  1  0  0  0  0
  7  6  1  0  0  0  0
  8 12  1  0  0  0  0
  9 27  1  0  0  0  0
  9 25  1  0  0  0  0
 10 17  2  0  0  0  0
 11 20  1  0  0  0  0
 12 15  1  0  0  0  0
 13  9  2  0  0  0  0
 15  4  2  0  0  0  0
 16  3  2  0  0  0  0
 16  8  1  0  0  0  0
 17 25  1  0  0  0  0
 17 28  1  0  0  0  0
 18  1  2  0  0  0  0
 19  6  1  6  0  0  0
 19  5  1  0  0  0  0
 20 18  1  0  0  0  0
 20 13  1  0  0  0  0
 21 26  2  0  0  0  0
 22 10  1  0  0  0  0
 23 21  1  0  0  0  0
 24 22  2  0  0  0  0
 24 13  1  0  0  0  0
 25 14  1  6  0  0  0
 27  2  1  0  0  0  0
 28 29  1  0  0  0  0
 31 32  1  0  0  0  0
 31 33  1  0  0  0  0
 32 29  1  1  0  0  0
 32 34  1  0  0  0  0
 33 30  1  0  0  0  0
 34 30  1  0  0  0  0
M  END
>  <MODEL>
7

>  <REMARK>
 VINA RESULT:      -6.6      1.921      3.808
  Name = 
  3 active torsions:
  status: ('A' for Active; 'I' for Inactive)
    1  A    between atoms: C_17  and  O_28
    2  A    between atoms: O_28  and  C_29
    3  A    between atoms: C_29  and  C_32
                            x       y       z     vdW  Elec       q    Type
                         _______ _______ _______ _____ _____    ______ ____

>  <TORSDO>
F 3

$$$$
