=
 OpenBabel11122414313D

 34 40  0  0  0  0  0  0  0  0999 V2000
  160.8680  208.0070  154.3960 C   0  0  0  0  0  0  0  0  0  0  0  0
  162.2600  206.2540  153.1530 C   0  0  0  0  0  3  0  0  0  0  0  0
  159.9820  213.3350  156.0670 O   0  0  0  0  0  0  0  0  0  0  0  0
  159.4810  209.7180  155.4730 C   0  0  0  0  0  0  0  0  0  0  0  0
  158.5720  211.6190  154.1470 C   0  0  0  0  0  0  0  0  0  0  0  0
  158.9630  214.0740  154.0120 C   0  0  0  0  0  2  0  0  0  0  0  0
  159.4430  214.4530  155.4120 C   0  0  0  0  0  2  0  0  0  0  0  0
  157.8360  212.6750  157.0000 C   0  0  0  0  0  2  0  0  0  0  0  0
  161.3700  208.1490  152.0310 C   0  0  0  0  0  0  0  0  0  0  0  0
  162.0760  208.9640  149.1870 C   0  0  0  0  0  3  0  0  0  0  0  0
  159.1720  211.1260  153.0630 C   0  0  0  0  0  3  0  0  0  0  0  0
  157.7810  211.2190  156.5390 C   0  0  0  0  0  2  0  0  0  0  0  0
  160.5350  209.3600  151.8050 C   0  0  0  0  0  0  0  0  0  0  0  0
  162.5560  206.2410  151.7190 N   0  0  0  0  0  0  0  0  0  0  0  0
  158.6700  210.9130  155.4070 N   0  0  0  0  0  0  0  0  0  0  0  0
  159.2550  213.1910  157.2590 C   0  0  0  0  0  2  0  0  0  0  0  0
  162.0700  207.7180  149.6860 C   0  0  0  0  0  0  0  0  0  0  0  0
  160.1040  209.2110  154.3040 C   0  0  0  0  0  0  0  0  0  0  0  0
  157.9120  212.9600  154.0340 C   0  0  0  0  0  2  0  0  0  0  0  0
  159.9550  209.8760  153.1170 C   0  0  0  0  0  0  0  0  0  0  0  0
  160.3850  207.8660  156.7690 C   0  0  0  0  0  3  0  0  0  0  0  0
  161.9560  210.2360  149.9330 C   0  0  0  0  0  3  0  0  0  0  0  0
  159.6350  209.0370  156.6920 C   0  0  0  0  0  2  0  0  0  0  0  0
  161.3240  210.4200  151.0960 C   0  0  0  0  0  3  0  0  0  0  0  0
  161.9970  207.4170  151.1320 C   0  0  0  0  0  0  0  0  0  0  0  0
  160.9950  207.3520  155.6270 C   0  0  0  0  0  3  0  0  0  0  0  0
  161.4610  207.5050  153.3090 C   0  0  0  0  0  0  0  0  0  0  0  0
  162.2650  206.5970  148.7220 C   0  0  0  0  0  2  0  0  0  0  0  0
  161.0920  205.6300  148.7920 C   0  0  0  0  0  2  0  0  0  0  0  0
  160.4650  202.2580  149.7160 C   0  0  0  0  0  2  0  0  0  0  0  0
  161.2030  203.5130  147.8150 C   0  0  0  0  0  2  0  0  0  0  0  0
  161.5690  204.2730  148.9990 N   0  0  0  0  0  0  0  0  0  0  0  0
  160.8510  202.1160  148.2650 C   0  0  0  0  0  2  0  0  0  0  0  0
  160.7890  203.6910  150.0840 C   0  0  0  0  0  2  0  0  0  0  0  0
  1 26  1  0  0  0  0
  2 27  1  0  0  0  0
  3 16  1  0  0  0  0
  4 23  1  0  0  0  0
  5 15  1  0  0  0  0
  6 19  1  0  0  0  0
  6  7  1  0  0  0  0
  7  3  1  0  0  0  0
  8 16  1  0  0  0  0
  9 27  1  0  0  0  0
 10 17  2  0  0  0  0
 10 22  1  0  0  0  0
 11 20  1  0  0  0  0
 11  5  2  0  0  0  0
 12  8  1  0  0  0  0
 13  9  1  0  0  0  0
 13 20  2  0  0  0  0
 14  2  2  0  0  0  0
 15  4  1  0  0  0  0
 15 12  1  0  0  0  0
 17 25  1  0  0  0  0
 18  1  1  0  0  0  0
 18  4  2  0  0  0  0
 19  5  1  0  0  0  0
 20 18  1  0  0  0  0
 22 24  2  0  0  0  0
 23 21  1  0  0  0  0
 24 13  1  0  0  0  0
 25 14  1  0  0  0  0
 25  9  2  0  0  0  0
 26 21  2  0  0  0  0
 27  1  2  0  0  0  0
 28 29  1  0  0  0  0
 28 17  1  0  0  0  0
 29 32  1  0  0  0  0
 30 34  1  0  0  0  0
 31 33  1  0  0  0  0
 31 32  1  0  0  0  0
 32 34  1  0  0  0  0
 33 30  1  0  0  0  0
M  END
>  <MODEL>
1

>  <REMARK>
 VINA RESULT:      -8.2      0.000      0.000
  Name = 
  3 active torsions:
  status: ('A' for Active; 'I' for Inactive)
    1  A    between atoms: C_17  and  C_28
    2  A    between atoms: C_28  and  C_29
    3  A    between atoms: C_29  and  N_32
                            x       y       z     vdW  Elec       q    Type
                         _______ _______ _______ _____ _____    ______ ____

>  <TORSDO>
F 3

$$$$
=
 OpenBabel11122414313D

 34 40  0  0  0  0  0  0  0  0999 V2000
  160.8310  207.9770  154.4590 C   0  0  0  0  0  0  0  0  0  0  0  0
  162.2040  206.1910  153.2410 C   0  0  0  0  0  3  0  0  0  0  0  0
  160.0130  213.3340  156.0700 O   0  0  0  0  0  0  0  0  0  0  0  0
  159.4640  209.7190  155.5110 C   0  0  0  0  0  0  0  0  0  0  0  0
  158.5880  211.6180  154.1600 C   0  0  0  0  0  0  0  0  0  0  0  0
  159.0150  214.0660  154.0020 C   0  0  0  0  0  2  0  0  0  0  0  0
  159.4940  214.4530  155.4000 C   0  0  0  0  0  2  0  0  0  0  0  0
  157.8540  212.7140  156.9990 C   0  0  0  0  0  2  0  0  0  0  0  0
  161.3460  208.0860  152.0950 C   0  0  0  0  0  0  0  0  0  0  0  0
  162.0780  208.8610  149.2460 C   0  0  0  0  0  3  0  0  0  0  0  0
  159.1870  211.1060  153.0850 C   0  0  0  0  0  3  0  0  0  0  0  0
  157.7810  211.2550  156.5530 C   0  0  0  0  0  2  0  0  0  0  0  0
  160.5300  209.3070  151.8520 C   0  0  0  0  0  0  0  0  0  0  0  0
  162.5070  206.1590  151.8090 N   0  0  0  0  0  0  0  0  0  0  0  0
  158.6700  210.9250  155.4280 N   0  0  0  0  0  0  0  0  0  0  0  0
  159.2790  213.2130  157.2600 C   0  0  0  0  0  2  0  0  0  0  0  0
  162.0520  207.6210  149.7580 C   0  0  0  0  0  0  0  0  0  0  0  0
  160.0850  209.1900  154.3500 C   0  0  0  0  0  0  0  0  0  0  0  0
  157.9480  212.9670  154.0300 C   0  0  0  0  0  2  0  0  0  0  0  0
  159.9510  209.8450  153.1560 C   0  0  0  0  0  0  0  0  0  0  0  0
  160.3340  207.8670  156.8300 C   0  0  0  0  0  3  0  0  0  0  0  0
  161.9720  210.1440  149.9780 C   0  0  0  0  0  3  0  0  0  0  0  0
  159.6010  209.0480  156.7380 C   0  0  0  0  0  2  0  0  0  0  0  0
  161.3380  210.3490  151.1360 C   0  0  0  0  0  3  0  0  0  0  0  0
  161.9670  207.3370  151.2070 C   0  0  0  0  0  0  0  0  0  0  0  0
  160.9430  207.3330  155.6970 C   0  0  0  0  0  3  0  0  0  0  0  0
  161.4220  207.4550  153.3800 C   0  0  0  0  0  0  0  0  0  0  0  0
  162.2350  206.4870  148.8070 C   0  0  0  0  0  2  0  0  0  0  0  0
  160.9310  205.7210  148.6410 C   0  0  0  0  0  2  0  0  0  0  0  0
  161.7920  205.7660  145.1940 C   0  0  0  0  0  2  0  0  0  0  0  0
  162.1090  204.3900  147.1280 C   0  0  0  0  0  2  0  0  0  0  0  0
  160.8660  205.1180  147.3190 N   0  0  0  0  0  0  0  0  0  0  0  0
  162.4880  204.5160  145.6720 C   0  0  0  0  0  2  0  0  0  0  0  0
  160.8990  206.1960  146.3390 C   0  0  0  0  0  2  0  0  0  0  0  0
  1 26  1  0  0  0  0
  2 27  1  0  0  0  0
  3 16  1  0  0  0  0
  4 23  1  0  0  0  0
  5 15  1  0  0  0  0
  6 19  1  0  0  0  0
  6  7  1  0  0  0  0
  7  3  1  0  0  0  0
  8 16  1  0  0  0  0
  9 27  1  0  0  0  0
 10 17  2  0  0  0  0
 10 22  1  0  0  0  0
 11 20  1  0  0  0  0
 11  5  2  0  0  0  0
 12  8  1  0  0  0  0
 13  9  1  0  0  0  0
 13 20  2  0  0  0  0
 14  2  2  0  0  0  0
 15  4  1  0  0  0  0
 15 12  1  0  0  0  0
 17 25  1  0  0  0  0
 18  1  1  0  0  0  0
 18  4  2  0  0  0  0
 19  5  1  0  0  0  0
 20 18  1  0  0  0  0
 22 24  2  0  0  0  0
 23 21  1  0  0  0  0
 24 13  1  0  0  0  0
 25 14  1  0  0  0  0
 25  9  2  0  0  0  0
 26 21  2  0  0  0  0
 27  1  2  0  0  0  0
 28 17  1  0  0  0  0
 29 28  1  0  0  0  0
 30 33  1  0  0  0  0
 30 34  1  0  0  0  0
 31 32  1  0  0  0  0
 32 29  1  0  0  0  0
 33 31  1  0  0  0  0
 34 32  1  0  0  0  0
M  END
>  <MODEL>
2

>  <REMARK>
 VINA RESULT:      -8.0      1.000      1.498
  Name = 
  3 active torsions:
  status: ('A' for Active; 'I' for Inactive)
    1  A    between atoms: C_17  and  C_28
    2  A    between atoms: C_28  and  C_29
    3  A    between atoms: C_29  and  N_32
                            x       y       z     vdW  Elec       q    Type
                         _______ _______ _______ _____ _____    ______ ____

>  <TORSDO>
F 3

$$$$
=
 OpenBabel11122414313D

 34 40  0  0  0  0  0  0  0  0999 V2000
  161.6010  208.5930  150.3250 C   0  0  0  0  0  0  0  0  0  0  0  0
  161.5720  207.6050  147.9620 C   0  0  0  0  0  3  0  0  0  0  0  0
  159.2100  209.3570  155.3910 O   0  0  0  0  0  0  0  0  0  0  0  0
  161.6720  209.4240  152.6300 C   0  0  0  0  0  0  0  0  0  0  0  0
  161.5750  207.8350  154.5440 C   0  0  0  0  0  0  0  0  0  0  0  0
  159.9360  207.2580  156.3270 C   0  0  0  0  0  2  0  0  0  0  0  0
  159.1390  208.5450  156.5330 C   0  0  0  0  0  2  0  0  0  0  0  0
  161.2180  210.4960  156.1550 C   0  0  0  0  0  2  0  0  0  0  0  0
  161.4340  206.2170  149.8850 C   0  0  0  0  0  0  0  0  0  0  0  0
  160.7970  203.2430  149.8280 C   0  0  0  0  0  3  0  0  0  0  0  0
  161.4940  206.8250  153.6780 C   0  0  0  0  0  3  0  0  0  0  0  0
  162.1180  210.2970  154.9360 C   0  0  0  0  0  2  0  0  0  0  0  0
  161.4980  205.8260  151.3190 C   0  0  0  0  0  0  0  0  0  0  0  0
  161.5310  206.1830  147.6190 N   0  0  0  0  0  0  0  0  0  0  0  0
  161.7040  209.1920  154.0570 N   0  0  0  0  0  0  0  0  0  0  0  0
  159.7270  210.5910  155.8170 C   0  0  0  0  0  2  0  0  0  0  0  0
  161.4100  203.9510  148.8670 C   0  0  0  0  0  0  0  0  0  0  0  0
  161.5920  208.3320  151.7290 C   0  0  0  0  0  0  0  0  0  0  0  0
  161.4080  207.5250  156.0010 C   0  0  0  0  0  2  0  0  0  0  0  0
  161.5180  207.0560  152.2210 C   0  0  0  0  0  0  0  0  0  0  0  0
  161.7520  210.9750  150.7550 C   0  0  0  0  0  3  0  0  0  0  0  0
  160.1030  203.7630  151.0280 C   0  0  0  0  0  3  0  0  0  0  0  0
  161.7480  210.7340  152.1270 C   0  0  0  0  0  2  0  0  0  0  0  0
  160.3660  204.9060  151.6680 C   0  0  0  0  0  3  0  0  0  0  0  0
  161.4360  205.4290  148.8290 C   0  0  0  0  0  0  0  0  0  0  0  0
  161.6830  209.9110  149.8590 C   0  0  0  0  0  3  0  0  0  0  0  0
  161.5330  207.5820  149.4540 C   0  0  0  0  0  0  0  0  0  0  0  0
  161.9910  203.1870  147.7250 C   0  0  0  0  0  2  0  0  0  0  0  0
  160.9270  202.9220  146.6700 C   0  0  0  0  0  2  0  0  0  0  0  0
  161.1540  205.3930  144.1280 C   0  0  0  0  0  2  0  0  0  0  0  0
  162.5900  204.1440  145.5810 C   0  0  0  0  0  2  0  0  0  0  0  0
  161.4000  203.3400  145.3610 N   0  0  0  0  0  0  0  0  0  0  0  0
  162.5960  205.2390  144.5410 C   0  0  0  0  0  2  0  0  0  0  0  0
  160.4140  204.2600  144.8080 C   0  0  0  0  0  2  0  0  0  0  0  0
  1 18  1  0  0  0  0
  2 27  1  0  0  0  0
  3 16  1  0  0  0  0
  3  7  1  0  0  0  0
  4 15  1  0  0  0  0
  5 19  1  0  0  0  0
  6  7  1  0  0  0  0
  9 13  1  0  0  0  0
 10 22  1  0  0  0  0
 11  5  2  0  0  0  0
 12  8  1  0  0  0  0
 13 24  1  0  0  0  0
 13 20  2  0  0  0  0
 14  2  2  0  0  0  0
 14 25  1  0  0  0  0
 15  5  1  0  0  0  0
 15 12  1  0  0  0  0
 16  8  1  0  0  0  0
 17 10  2  0  0  0  0
 18 20  1  0  0  0  0
 18  4  2  0  0  0  0
 19  6  1  0  0  0  0
 20 11  1  0  0  0  0
 21 23  1  0  0  0  0
 22 24  2  0  0  0  0
 23  4  1  0  0  0  0
 25 17  1  0  0  0  0
 25  9  2  0  0  0  0
 26  1  1  0  0  0  0
 26 21  2  0  0  0  0
 27  9  1  0  0  0  0
 27  1  2  0  0  0  0
 28 17  1  0  0  0  0
 29 28  1  0  0  0  0
 30 33  1  0  0  0  0
 30 34  1  0  0  0  0
 32 31  1  0  0  0  0
 32 29  1  0  0  0  0
 33 31  1  0  0  0  0
 34 32  1  0  0  0  0
M  END
>  <MODEL>
3

>  <REMARK>
 VINA RESULT:      -7.9      2.143      4.830
  Name = 
  3 active torsions:
  status: ('A' for Active; 'I' for Inactive)
    1  A    between atoms: C_17  and  C_28
    2  A    between atoms: C_28  and  C_29
    3  A    between atoms: C_29  and  N_32
                            x       y       z     vdW  Elec       q    Type
                         _______ _______ _______ _____ _____    ______ ____

>  <TORSDO>
F 3

$$$$
=
 OpenBabel11122414313D

 34 40  0  0  0  0  0  0  0  0999 V2000
  161.7250  208.2700  149.6540 C   0  0  0  0  0  0  0  0  0  0  0  0
  161.6400  207.0900  147.3830 C   0  0  0  0  0  3  0  0  0  0  0  0
  159.4120  209.5310  154.6570 O   0  0  0  0  0  0  0  0  0  0  0  0
  161.8460  209.2880  151.8810 C   0  0  0  0  0  0  0  0  0  0  0  0
  161.7180  207.8680  153.9220 C   0  0  0  0  0  0  0  0  0  0  0  0
  160.0800  207.4950  155.7590 C   0  0  0  0  0  2  0  0  0  0  0  0
  159.3270  208.8210  155.8640 C   0  0  0  0  0  2  0  0  0  0  0  0
  161.4630  210.6640  155.3070 C   0  0  0  0  0  2  0  0  0  0  0  0
  161.4780  205.8730  149.4160 C   0  0  0  0  0  0  0  0  0  0  0  0
  160.7460  202.9270  149.6130 C   0  0  0  0  0  3  0  0  0  0  0  0
  161.5960  206.7930  153.1440 C   0  0  0  0  0  3  0  0  0  0  0  0
  162.3430  210.3350  154.1030 C   0  0  0  0  0  2  0  0  0  0  0  0
  161.5440  205.6010  150.8770 C   0  0  0  0  0  0  0  0  0  0  0  0
  161.5500  205.6470  147.1600 N   0  0  0  0  0  0  0  0  0  0  0  0
  161.8850  209.1750  153.3230 N   0  0  0  0  0  0  0  0  0  0  0  0
  159.9720  210.7790  154.9740 C   0  0  0  0  0  2  0  0  0  0  0  0
  161.3710  203.5320  148.5910 C   0  0  0  0  0  0  0  0  0  0  0  0
  161.7220  208.1270  151.0750 C   0  0  0  0  0  0  0  0  0  0  0  0
  161.5560  207.6860  155.4010 C   0  0  0  0  0  2  0  0  0  0  0  0
  161.6120  206.9010  151.6730 C   0  0  0  0  0  0  0  0  0  0  0  0
  161.9560  210.6740  149.8830 C   0  0  0  0  0  3  0  0  0  0  0  0
  160.0810  203.5670  150.7710 C   0  0  0  0  0  3  0  0  0  0  0  0
  161.9580  210.5480  151.2700 C   0  0  0  0  0  2  0  0  0  0  0  0
  160.3870  204.7510  151.3100 C   0  0  0  0  0  3  0  0  0  0  0  0
  161.4430  205.0000  148.4300 C   0  0  0  0  0  0  0  0  0  0  0  0
  161.8430  209.5410  149.0790 C   0  0  0  0  0  3  0  0  0  0  0  0
  161.6150  207.1930  148.8720 C   0  0  0  0  0  0  0  0  0  0  0  0
  161.9160  202.6570  147.5120 C   0  0  0  0  0  2  0  0  0  0  0  0
  160.8420  202.3680  146.4740 C   0  0  0  0  0  2  0  0  0  0  0  0
  160.8310  199.0940  145.0940 C   0  0  0  0  0  2  0  0  0  0  0  0
  161.5680  200.2320  147.0690 C   0  0  0  0  0  2  0  0  0  0  0  0
  160.4340  200.9750  146.5440 N   0  0  0  0  0  0  0  0  0  0  0  0
  161.5810  198.8850  146.3860 C   0  0  0  0  0  2  0  0  0  0  0  0
  160.2610  200.4950  145.1790 C   0  0  0  0  0  2  0  0  0  0  0  0
  1 18  1  0  0  0  0
  2 27  1  0  0  0  0
  3 16  1  0  0  0  0
  3  7  1  0  0  0  0
  4 15  1  0  0  0  0
  5 19  1  0  0  0  0
  6  7  1  0  0  0  0
  9 13  1  0  0  0  0
 10 22  1  0  0  0  0
 11  5  2  0  0  0  0
 12  8  1  0  0  0  0
 13 24  1  0  0  0  0
 13 20  2  0  0  0  0
 14  2  2  0  0  0  0
 14 25  1  0  0  0  0
 15  5  1  0  0  0  0
 15 12  1  0  0  0  0
 16  8  1  0  0  0  0
 17 10  2  0  0  0  0
 18 20  1  0  0  0  0
 18  4  2  0  0  0  0
 19  6  1  0  0  0  0
 20 11  1  0  0  0  0
 21 23  1  0  0  0  0
 22 24  2  0  0  0  0
 23  4  1  0  0  0  0
 25 17  1  0  0  0  0
 25  9  2  0  0  0  0
 26  1  1  0  0  0  0
 26 21  2  0  0  0  0
 27  9  1  0  0  0  0
 27  1  2  0  0  0  0
 28 17  1  0  0  0  0
 29 32  1  0  0  0  0
 29 28  1  0  0  0  0
 30 34  1  0  0  0  0
 30 33  1  0  0  0  0
 32 31  1  0  0  0  0
 33 31  1  0  0  0  0
 34 32  1  0  0  0  0
M  END
>  <MODEL>
4

>  <REMARK>
 VINA RESULT:      -7.7      2.102      5.083
  Name = 
  3 active torsions:
  status: ('A' for Active; 'I' for Inactive)
    1  A    between atoms: C_17  and  C_28
    2  A    between atoms: C_28  and  C_29
    3  A    between atoms: C_29  and  N_32
                            x       y       z     vdW  Elec       q    Type
                         _______ _______ _______ _____ _____    ______ ____

>  <TORSDO>
F 3

$$$$
=
 OpenBabel11122414313D

 34 40  0  0  1  0  0  0  0  0999 V2000
  160.8430  204.9200  150.8500 C   0  0  0  0  0  0  0  0  0  0  0  0
  160.5280  206.2020  153.0450 C   0  0  0  0  0  3  0  0  0  0  0  0
  159.8830  204.2910  145.3140 O   0  0  0  0  0  0  0  0  0  0  0  0
  161.2390  203.7770  148.7180 C   0  0  2  0  0  3  0  0  0  0  0  0
  162.3060  204.9860  146.8210 C   0  0  0  0  0  0  0  0  0  0  0  0
  161.5920  205.8280  144.5900 C   0  0  0  0  0  2  0  0  0  0  0  0
  160.4560  204.8910  144.1830 C   0  0  0  0  0  2  0  0  0  0  0  0
  161.4270  202.4120  145.2710 C   0  0  0  0  0  2  0  0  0  0  0  0
  161.4850  207.2390  151.1340 C   0  0  0  0  0  0  0  0  0  0  0  0
  162.0510  210.2170  150.8840 C   0  0  0  0  0  3  0  0  0  0  0  0
  162.3780  206.0790  147.5820 C   0  0  0  0  0  3  0  0  0  0  0  0
  161.9480  202.4630  146.7060 C   0  0  0  0  0  2  0  0  0  0  0  0
  162.0970  207.3580  149.7830 C   0  0  0  0  0  0  0  0  0  0  0  0
  160.9410  207.5810  153.3090 N   0  0  0  0  0  0  0  0  0  0  0  0
  161.7600  203.7620  147.3690 N   0  0  0  0  0  0  0  0  0  0  0  0
  159.9840  202.9040  145.1170 C   0  0  0  0  0  2  0  0  0  0  0  0
  162.0460  209.4930  152.0140 C   0  0  0  0  0  0  0  0  0  0  0  0
  161.3330  204.9510  149.5090 C   0  0  0  0  0  0  0  0  0  0  0  0
  162.6910  205.1100  145.3780 C   0  0  0  0  0  2  0  0  0  0  0  0
  161.8970  206.0790  148.9770 C   0  0  0  0  0  0  0  0  0  0  0  0
  160.1830  202.6030  150.5710 C   0  0  0  0  0  3  0  0  0  0  0  0
  161.5810  209.8000  149.5430 C   0  0  0  0  0  3  0  0  0  0  0  0
  160.6600  202.6180  149.2630 C   0  0  0  0  0  3  0  0  0  0  0  0
  161.5540  208.5550  149.0600 C   0  0  0  0  0  3  0  0  0  0  0  0
  161.4890  208.1260  152.1070 C   0  0  0  0  0  0  0  0  0  0  0  0
  160.2770  203.7470  151.3610 C   0  0  0  0  0  3  0  0  0  0  0  0
  160.9250  206.0100  151.6190 C   0  0  0  0  0  0  0  0  0  0  0  0
  162.5260  210.1660  153.2560 C   0  0  0  0  0  2  0  0  0  0  0  0
  161.4420  211.0730  153.8190 C   0  0  0  0  0  2  0  0  0  0  0  0
  160.8480  209.2150  156.7880 C   0  0  0  0  0  2  0  0  0  0  0  0
  162.6500  210.3290  155.6710 C   0  0  0  0  0  2  0  0  0  0  0  0
  161.4210  210.9930  155.2700 N   0  0  0  0  0  0  0  0  0  0  0  0
  162.3310  209.4760  156.8760 C   0  0  0  0  0  2  0  0  0  0  0  0
  160.3510  210.0790  155.6480 C   0  0  0  0  0  2  0  0  0  0  0  0
  1 26  2  0  0  0  0
  1 27  1  0  0  0  0
  2 14  1  0  0  0  0
  4 23  1  1  0  0  0
  4 18  1  0  0  0  0
  5 15  1  0  0  0  0
  5 11  2  0  0  0  0
  6 19  1  0  0  0  0
  7  6  1  0  0  0  0
  7  3  1  0  0  0  0
  8 12  1  0  0  0  0
  9 27  1  0  0  0  0
  9 25  1  0  0  0  0
 10 17  2  0  0  0  0
 11 20  1  0  0  0  0
 12 15  1  0  0  0  0
 13  9  2  0  0  0  0
 15  4  1  0  0  0  0
 16  8  1  0  0  0  0
 16  3  1  0  0  0  0
 17 25  1  0  0  0  0
 17 28  1  0  0  0  0
 18  1  1  0  0  0  0
 19  5  1  0  0  0  0
 20 18  2  0  0  0  0
 20 13  1  0  0  0  0
 21 26  1  0  0  0  0
 22 10  1  0  0  0  0
 23 21  2  0  0  0  0
 24 22  2  0  0  0  0
 24 13  1  0  0  0  0
 25 14  2  0  0  0  0
 27  2  2  0  0  0  0
 28 29  1  0  0  0  0
 29 32  1  0  0  0  0
 30 33  1  0  0  0  0
 31 33  1  0  0  0  0
 32 34  1  0  0  0  0
 32 31  1  0  0  0  0
 34 30  1  0  0  0  0
M  END
>  <MODEL>
5

>  <REMARK>
 VINA RESULT:      -7.2      3.212      9.003
  Name = 
  3 active torsions:
  status: ('A' for Active; 'I' for Inactive)
    1  A    between atoms: C_17  and  C_28
    2  A    between atoms: C_28  and  C_29
    3  A    between atoms: C_29  and  N_32
                            x       y       z     vdW  Elec       q    Type
                         _______ _______ _______ _____ _____    ______ ____

>  <TORSDO>
F 3

$$$$
=
 OpenBabel11122414313D

 34 40  0  0  1  0  0  0  0  0999 V2000
  160.9860  204.9660  150.7680 C   0  0  0  0  0  0  0  0  0  0  0  0
  160.7850  206.3260  152.9290 C   0  0  0  0  0  3  0  0  0  0  0  0
  159.7250  204.1290  145.3210 O   0  0  0  0  0  0  0  0  0  0  0  0
  161.2690  203.7460  148.6600 C   0  0  2  0  0  3  0  0  0  0  0  0
  162.2230  204.8870  146.6640 C   0  0  0  0  0  0  0  0  0  0  0  0
  161.3830  205.6450  144.4470 C   0  0  0  0  0  2  0  0  0  0  0  0
  160.2310  204.6890  144.1380 C   0  0  0  0  0  2  0  0  0  0  0  0
  161.2730  202.2560  145.2610 C   0  0  0  0  0  2  0  0  0  0  0  0
  161.6290  207.2950  150.9310 C   0  0  0  0  0  0  0  0  0  0  0  0
  162.1650  210.2640  150.5410 C   0  0  0  0  0  3  0  0  0  0  0  0
  162.3310  206.0080  147.3790 C   0  0  0  0  0  3  0  0  0  0  0  0
  161.8730  202.3610  146.6620 C   0  0  0  0  0  2  0  0  0  0  0  0
  162.1660  207.3670  149.5440 C   0  0  0  0  0  0  0  0  0  0  0  0
  161.2050  207.7150  153.1190 N   0  0  0  0  0  0  0  0  0  0  0  0
  161.7150  203.6830  147.2860 N   0  0  0  0  0  0  0  0  0  0  0  0
  159.8220  202.7370  145.1690 C   0  0  0  0  0  2  0  0  0  0  0  0
  162.2260  209.5820  151.6950 C   0  0  0  0  0  0  0  0  0  0  0  0
  161.4010  204.9480  149.4020 C   0  0  0  0  0  0  0  0  0  0  0  0
  162.5270  204.9600  145.1980 C   0  0  0  0  0  2  0  0  0  0  0  0
  161.9280  206.0580  148.7980 C   0  0  0  0  0  0  0  0  0  0  0  0
  160.3230  202.6380  150.6110 C   0  0  0  0  0  3  0  0  0  0  0  0
  161.6240  209.7970  149.2440 C   0  0  0  0  0  3  0  0  0  0  0  0
  160.7270  202.6060  149.2780 C   0  0  0  0  0  3  0  0  0  0  0  0
  161.5770  208.5340  148.8100 C   0  0  0  0  0  3  0  0  0  0  0  0
  161.6830  208.2180  151.8690 C   0  0  0  0  0  0  0  0  0  0  0  0
  160.4540  203.8100  151.3520 C   0  0  0  0  0  3  0  0  0  0  0  0
  161.1040  206.0830  151.4900 C   0  0  0  0  0  0  0  0  0  0  0  0
  162.7710  210.3020  152.8830 C   0  0  0  0  0  2  0  0  0  0  0  0
  161.7390  210.3330  154.0010 C   0  0  0  0  0  2  0  0  0  0  0  0
  158.4320  211.6250  153.8980 C   0  0  0  0  0  2  0  0  0  0  0  0
  160.4560  211.9110  155.1450 C   0  0  0  0  0  2  0  0  0  0  0  0
  160.8310  211.4530  153.8180 N   0  0  0  0  0  0  0  0  0  0  0  0
  159.0160  212.3600  155.0780 C   0  0  0  0  0  2  0  0  0  0  0  0
  159.6030  210.9350  153.2300 C   0  0  0  0  0  2  0  0  0  0  0  0
  1 26  2  0  0  0  0
  1 27  1  0  0  0  0
  2 14  1  0  0  0  0
  4 23  1  1  0  0  0
  4 18  1  0  0  0  0
  5 15  1  0  0  0  0
  5 11  2  0  0  0  0
  6 19  1  0  0  0  0
  7  6  1  0  0  0  0
  7  3  1  0  0  0  0
  8 12  1  0  0  0  0
  9 27  1  0  0  0  0
  9 25  1  0  0  0  0
 10 17  2  0  0  0  0
 11 20  1  0  0  0  0
 12 15  1  0  0  0  0
 13  9  2  0  0  0  0
 15  4  1  0  0  0  0
 16  8  1  0  0  0  0
 16  3  1  0  0  0  0
 17 25  1  0  0  0  0
 17 28  1  0  0  0  0
 18  1  1  0  0  0  0
 19  5  1  0  0  0  0
 20 18  2  0  0  0  0
 20 13  1  0  0  0  0
 21 26  1  0  0  0  0
 22 10  1  0  0  0  0
 23 21  2  0  0  0  0
 24 22  2  0  0  0  0
 24 13  1  0  0  0  0
 25 14  2  0  0  0  0
 27  2  2  0  0  0  0
 28 29  1  0  0  0  0
 30 33  1  0  0  0  0
 32 29  1  0  0  0  0
 32 31  1  0  0  0  0
 33 31  1  0  0  0  0
 34 32  1  0  0  0  0
 34 30  1  0  0  0  0
M  END
>  <MODEL>
6

>  <REMARK>
 VINA RESULT:      -6.9      3.062      9.097
  Name = 
  3 active torsions:
  status: ('A' for Active; 'I' for Inactive)
    1  A    between atoms: C_17  and  C_28
    2  A    between atoms: C_28  and  C_29
    3  A    between atoms: C_29  and  N_32
                            x       y       z     vdW  Elec       q    Type
                         _______ _______ _______ _____ _____    ______ ____

>  <TORSDO>
F 3

$$$$
=
 OpenBabel11122414313D

 34 40  0  0  1  0  0  0  0  0999 V2000
  161.8600  206.3910  147.8940 C   0  0  0  0  0  0  0  0  0  0  0  0
  162.5110  208.7540  148.6360 C   0  0  0  0  0  3  0  0  0  0  0  0
  162.2190  200.7730  148.4160 O   0  0  0  0  0  0  0  0  0  0  0  0
  161.1490  204.1270  147.2790 C   0  0  2  0  0  3  0  0  0  0  0  0
  160.0340  202.6600  148.9540 C   0  0  0  0  0  0  0  0  0  0  0  0
  160.6150  200.5870  150.2040 C   0  0  0  0  0  2  0  0  0  0  0  0
  161.6050  199.8650  149.2910 C   0  0  0  0  0  2  0  0  0  0  0  0
  160.4960  200.5160  146.7200 C   0  0  0  0  0  2  0  0  0  0  0  0
  161.4880  207.2250  150.1380 C   0  0  0  0  0  0  0  0  0  0  0  0
  161.2060  207.6690  153.1330 C   0  0  0  0  0  3  0  0  0  0  0  0
  160.1470  203.6350  149.8560 C   0  0  0  0  0  3  0  0  0  0  0  0
  160.1210  201.9800  146.4970 C   0  0  0  0  0  2  0  0  0  0  0  0
  160.7650  206.0080  150.5970 C   0  0  0  0  0  0  0  0  0  0  0  0
  162.2670  209.3460  149.9520 N   0  0  0  0  0  0  0  0  0  0  0  0
  160.5020  202.8740  147.6010 N   0  0  0  0  0  0  0  0  0  0  0  0
  161.9590  200.3040  147.1180 C   0  0  0  0  0  2  0  0  0  0  0  0
  161.2450  208.6150  152.1820 C   0  0  0  0  0  0  0  0  0  0  0  0
  161.2500  205.1520  148.2550 C   0  0  0  0  0  0  0  0  0  0  0  0
  159.5280  201.3290  149.4200 C   0  0  0  0  0  2  0  0  0  0  0  0
  160.7560  204.9350  149.5130 C   0  0  0  0  0  0  0  0  0  0  0  0
  162.2510  205.5610  145.6490 C   0  0  0  0  0  3  0  0  0  0  0  0
  161.5010  206.2260  152.9840 C   0  0  0  0  0  3  0  0  0  0  0  0
  161.6560  204.3480  145.9870 C   0  0  0  0  0  3  0  0  0  0  0  0
  161.3550  205.4940  151.8760 C   0  0  0  0  0  3  0  0  0  0  0  0
  161.6660  208.3560  150.7890 C   0  0  0  0  0  0  0  0  0  0  0  0
  162.3500  206.5780  146.5960 C   0  0  0  0  0  3  0  0  0  0  0  0
  161.9630  207.3750  148.7920 C   0  0  0  0  0  0  0  0  0  0  0  0
  160.9560  210.0160  152.6030 C   0  0  0  0  0  2  0  0  0  0  0  0
  161.6410  210.3230  153.9270 C   0  0  0  0  0  2  0  0  0  0  0  0
  158.4850  211.8280  154.5550 C   0  0  0  0  0  2  0  0  0  0  0  0
  159.9960  210.2790  155.5820 C   0  0  0  0  0  2  0  0  0  0  0  0
  160.7910  211.1670  154.7500 N   0  0  0  0  0  0  0  0  0  0  0  0
  158.6340  210.9100  155.7430 C   0  0  0  0  0  2  0  0  0  0  0  0
  159.8350  211.8260  153.8690 C   0  0  0  0  0  2  0  0  0  0  0  0
  1 18  1  0  0  0  0
  1 27  1  0  0  0  0
  2 27  2  0  0  0  0
  2 14  1  0  0  0  0
  3  7  1  0  0  0  0
  4 23  1  6  0  0  0
  4 15  1  0  0  0  0
  4 18  1  0  0  0  0
  5 19  1  0  0  0  0
  5 11  2  0  0  0  0
  7  6  1  0  0  0  0
  8 16  1  0  0  0  0
  9 13  2  0  0  0  0
  9 25  1  0  0  0  0
 12  8  1  0  0  0  0
 12 15  1  0  0  0  0
 13 24  1  0  0  0  0
 14 25  2  0  0  0  0
 15  5  1  0  0  0  0
 16  3  1  0  0  0  0
 17 28  1  0  0  0  0
 17 10  2  0  0  0  0
 18 20  2  0  0  0  0
 19  6  1  0  0  0  0
 20 11  1  0  0  0  0
 20 13  1  0  0  0  0
 21 23  2  0  0  0  0
 21 26  1  0  0  0  0
 22 10  1  0  0  0  0
 24 22  2  0  0  0  0
 25 17  1  0  0  0  0
 26  1  2  0  0  0  0
 27  9  1  0  0  0  0
 28 29  1  0  0  0  0
 29 32  1  0  0  0  0
 30 33  1  0  0  0  0
 31 33  1  0  0  0  0
 32 31  1  0  0  0  0
 34 30  1  0  0  0  0
 34 32  1  0  0  0  0
M  END
>  <MODEL>
7

>  <REMARK>
 VINA RESULT:      -6.4      3.049      9.738
  Name = 
  3 active torsions:
  status: ('A' for Active; 'I' for Inactive)
    1  A    between atoms: C_17  and  C_28
    2  A    between atoms: C_28  and  C_29
    3  A    between atoms: C_29  and  N_32
                            x       y       z     vdW  Elec       q    Type
                         _______ _______ _______ _____ _____    ______ ____

>  <TORSDO>
F 3

$$$$
