=
 OpenBabel11122413033D

 32 37  0  0  1  0  0  0  0  0999 V2000
  162.6340  204.4580  145.1370 C   0  0  0  0  0  2  0  0  0  0  0  0
  161.3050  207.5610  149.2800 C   0  0  2  0  0  3  0  0  0  0  0  0
  160.5700  203.8600  152.6420 C   0  0  0  0  0  2  0  0  0  0  0  0
  161.2650  204.8470  153.5770 C   0  0  0  0  0  2  0  0  0  0  0  0
  161.5590  209.8900  150.2320 C   0  0  1  0  0  3  0  0  0  0  0  0
  161.8050  210.7570  151.4750 C   0  0  1  0  0  3  0  0  0  0  0  0
  161.7850  206.8740  146.8380 C   0  0  2  0  0  3  0  0  0  0  0  0
  160.5870  205.2780  148.4490 C   0  0  0  0  0  2  0  0  0  0  0  0
  160.0250  210.3090  153.0320 C   0  0  2  0  0  3  0  0  0  0  0  0
  160.2720  205.0280  145.9480 C   0  0  0  0  0  2  0  0  0  0  0  0
  160.9570  204.1920  151.2050 C   0  0  0  0  0  2  0  0  0  0  0  0
  161.3350  206.0450  149.5530 C   0  0  2  0  0  3  0  0  0  0  0  0
  160.7470  205.6830  150.9170 C   0  0  2  0  0  3  0  0  0  0  0  0
  161.2560  207.9830  151.7820 C   0  0  1  0  0  3  0  0  0  0  0  0
  159.7510  211.5930  152.2660 C   0  0  0  0  0  2  0  0  0  0  0  0
  162.8530  205.8410  145.2820 O   0  0  0  0  0  0  0  0  0  0  0  0
  160.5450  206.0040  147.0960 C   0  0  2  0  0  3  0  0  0  0  0  0
  160.9090  211.9060  151.4230 N   0  0  0  0  0  2  0  0  0  0  0  0
  162.9100  206.0800  146.5790 O   0  0  0  0  0  0  0  0  0  0  0  0
  161.3640  203.9570  145.8420 C   0  0  1  0  0  3  0  0  0  0  0  0
  160.8520  206.1570  153.2750 O   0  0  0  0  0  0  0  0  0  0  0  0
  161.4260  206.4900  152.0320 C   0  0  1  0  0  3  0  0  0  0  0  0
  161.8700  208.6900  152.8320 O   0  0  0  0  0  0  0  0  0  0  0  0
  162.0850  207.8450  147.9870 C   0  0  0  0  0  2  0  0  0  0  0  0
  162.3050  210.4100  149.1730 O   0  0  0  0  0  1  0  0  0  0  0  0
  159.7830  210.5260  154.5110 C   0  0  0  0  0  1  0  0  0  0  0  0
  161.8770  208.4000  150.4430 C   0  0  1  0  0  3  0  0  0  0  0  0
  161.4890  210.0510  152.7820 C   0  0  1  0  0  3  0  0  0  0  0  0
  160.8550  202.7850  145.1430 N   0  0  0  0  0  0  0  0  0  0  0  0
  160.6190  201.6500  145.7270 C   0  0  0  0  0  0  0  0  0  0  0  0
  160.1200  200.5600  144.9620 N   0  0  0  0  0  1  0  0  0  0  0  0
  160.8640  201.4740  147.1200 N   0  0  0  0  0  1  0  0  0  0  0  0
  1 16  1  0  0  0  0
  1 20  1  0  0  0  0
  2 24  1  6  0  0  0
  2 12  1  0  0  0  0
  2 27  1  0  0  0  0
  3  4  1  0  0  0  0
  5 25  1  6  0  0  0
  5 27  1  0  0  0  0
  5  6  1  0  0  0  0
  6 18  1  6  0  0  0
  6 28  1  0  0  0  0
  7 17  1  0  0  0  0
  7 24  1  1  0  0  0
  9 26  1  1  0  0  0
 11  3  1  0  0  0  0
 12  8  1  6  0  0  0
 12 13  1  0  0  0  0
 13 11  1  1  0  0  0
 13 22  1  0  0  0  0
 14 22  1  0  0  0  0
 14 23  1  1  0  0  0
 15  9  1  0  0  0  0
 16 19  1  0  0  0  0
 17 10  1  6  0  0  0
 17  8  1  0  0  0  0
 18 15  1  0  0  0  0
 19  7  1  0  0  0  0
 20 29  1  6  0  0  0
 20 10  1  0  0  0  0
 21  4  1  0  0  0  0
 22 21  1  1  0  0  0
 27 14  1  0  0  0  0
 28 23  1  0  0  0  0
 28  9  1  0  0  0  0
 29 30  2  0  0  0  0
 30 32  1  0  0  0  0
 31 30  1  0  0  0  0
M  END
>  <MODEL>
1

>  <REMARK>
 VINA RESULT:      -8.4      0.000      0.000
  Name = 
  1 active torsions:
  status: ('A' for Active; 'I' for Inactive)
    1  A    between atoms: C_20  and  N_29
                            x       y       z     vdW  Elec       q    Type
                         _______ _______ _______ _____ _____    ______ ____

>  <TORSDO>
F 1

$$$$
=
 OpenBabel11122413033D

 32 37  0  0  1  0  0  0  0  0999 V2000
  161.1130  210.7220  157.2360 C   0  0  0  0  0  2  0  0  0  0  0  0
  161.0480  208.3070  152.4690 C   0  0  2  0  0  3  0  0  0  0  0  0
  161.2320  212.4850  149.6320 C   0  0  0  0  0  2  0  0  0  0  0  0
  162.1750  211.6290  148.7920 C   0  0  0  0  0  2  0  0  0  0  0  0
  161.5930  206.1390  151.2870 C   0  0  1  0  0  3  0  0  0  0  0  0
  162.1910  205.4590  150.0470 C   0  0  1  0  0  3  0  0  0  0  0  0
  160.8120  208.6100  155.0230 C   0  0  2  0  0  3  0  0  0  0  0  0
  160.0910  210.4600  153.3990 C   0  0  0  0  0  2  0  0  0  0  0  0
  160.9140  206.1830  148.1410 C   0  0  2  0  0  3  0  0  0  0  0  0
  159.0820  210.3450  155.7200 C   0  0  0  0  0  2  0  0  0  0  0  0
  161.2040  211.9330  151.0540 C   0  0  0  0  0  2  0  0  0  0  0  0
  161.1300  209.8450  152.4470 C   0  0  2  0  0  3  0  0  0  0  0  0
  160.9440  210.4220  151.0430 C   0  0  2  0  0  3  0  0  0  0  0  0
  161.7090  208.2630  150.0190 C   0  0  1  0  0  3  0  0  0  0  0  0
  160.4550  204.8080  148.5960 C   0  0  0  0  0  2  0  0  0  0  0  0
  161.3850  209.3700  156.9520 O   0  0  0  0  0  0  0  0  0  0  0  0
  159.6820  209.5430  154.5610 C   0  0  2  0  0  3  0  0  0  0  0  0
  161.3340  204.3410  149.6730 N   0  0  0  0  0  2  0  0  0  0  0  0
  161.8070  209.3240  155.7020 O   0  0  0  0  0  0  0  0  0  0  0  0
  160.0850  211.3570  156.2880 C   0  0  1  0  0  3  0  0  0  0  0  0
  161.7140  210.3010  148.7660 O   0  0  0  0  0  0  0  0  0  0  0  0
  161.9200  209.7710  150.0550 C   0  0  1  0  0  3  0  0  0  0  0  0
  162.6040  207.7020  149.0890 O   0  0  0  0  0  0  0  0  0  0  0  0
  161.4370  207.8120  153.8710 C   0  0  0  0  0  2  0  0  0  0  0  0
  162.0200  205.4470  152.4220 O   0  0  0  0  0  1  0  0  0  0  0  0
  161.1000  206.1950  146.6370 C   0  0  0  0  0  1  0  0  0  0  0  0
  161.9360  207.6340  151.4000 C   0  0  1  0  0  3  0  0  0  0  0  0
  162.2440  206.3610  148.8250 C   0  0  1  0  0  3  0  0  0  0  0  0
  159.3830  212.4260  156.9850 N   0  0  0  0  0  0  0  0  0  0  0  0
  158.8740  213.4590  156.3840 C   0  0  0  0  0  0  0  0  0  0  0  0
  158.2030  214.4530  157.1480 N   0  0  0  0  0  1  0  0  0  0  0  0
  158.9900  213.6190  154.9720 N   0  0  0  0  0  1  0  0  0  0  0  0
  2 24  1  1  0  0  0
  3 11  1  0  0  0  0
  4  3  1  0  0  0  0
  5 27  1  0  0  0  0
  5 25  1  1  0  0  0
  6 18  1  6  0  0  0
  6  5  1  0  0  0  0
  7 24  1  6  0  0  0
  7 19  1  0  0  0  0
  9 26  1  6  0  0  0
  9 15  1  0  0  0  0
  9 28  1  0  0  0  0
 10 20  1  0  0  0  0
 12  2  1  0  0  0  0
 12  8  1  1  0  0  0
 13 11  1  1  0  0  0
 13 12  1  0  0  0  0
 14 23  1  6  0  0  0
 14 22  1  0  0  0  0
 14 27  1  0  0  0  0
 15 18  1  0  0  0  0
 16  1  1  0  0  0  0
 17  8  1  6  0  0  0
 17  7  1  0  0  0  0
 17 10  1  0  0  0  0
 19 16  1  0  0  0  0
 20 29  1  1  0  0  0
 20  1  1  0  0  0  0
 21  4  1  0  0  0  0
 22 21  1  6  0  0  0
 22 13  1  0  0  0  0
 27  2  1  0  0  0  0
 28 23  1  0  0  0  0
 28  6  1  0  0  0  0
 30 29  2  0  0  0  0
 30 31  1  0  0  0  0
 32 30  1  0  0  0  0
M  END
>  <MODEL>
2

>  <REMARK>
 VINA RESULT:      -5.6      2.576      9.184
  Name = 
  1 active torsions:
  status: ('A' for Active; 'I' for Inactive)
    1  A    between atoms: C_20  and  N_29
                            x       y       z     vdW  Elec       q    Type
                         _______ _______ _______ _____ _____    ______ ____

>  <TORSDO>
F 1

$$$$
