=
 OpenBabel11122412583D

 32 37  0  0  1  0  0  0  0  0999 V2000
  160.5570  205.6890  148.7190 C   0  0  0  0  0  2  0  0  0  0  0  0
  161.2410  209.7000  152.1100 C   0  0  0  0  0  0  0  0  0  0  0  0
  161.0250  213.5240  149.1310 O   0  0  0  0  0  0  0  0  0  0  0  0
  159.6600  213.7010  149.4350 C   0  0  0  0  0  2  0  0  0  0  0  0
  160.3090  210.0210  154.4740 C   0  0  0  0  0  0  0  0  0  0  0  0
  159.6210  210.8400  155.3750 C   0  0  0  0  0  0  0  0  0  0  0  0
  161.6030  207.5030  150.9620 C   0  0  2  0  0  3  0  0  0  0  0  0
  162.5070  209.5430  149.8860 C   0  0  0  0  0  2  0  0  0  0  0  0
  158.5660  212.7380  156.1030 N   0  0  0  0  0  0  0  0  0  0  0  0
  162.3960  207.4650  148.5720 C   0  0  0  0  0  2  0  0  0  0  0  0
  161.2830  212.1330  149.1050 C   0  0  0  0  0  2  0  0  0  0  0  0
  161.8770  210.4490  150.9550 C   0  0  1  0  0  3  0  0  0  0  0  0
  160.8320  211.4090  150.3930 C   0  0  1  0  0  3  0  0  0  0  0  0
  160.1020  211.8230  152.8060 C   0  0  0  0  0  0  0  0  0  0  0  0
  158.5570  211.8530  157.2600 C   0  0  0  0  0  3  0  0  0  0  0  0
  161.2130  205.3660  149.9120 O   0  0  0  0  0  0  0  0  0  0  0  0
  161.6830  208.2870  149.6420 C   0  0  1  0  0  3  0  0  0  0  0  0
  159.2670  210.5610  156.8000 C   0  0  0  0  0  3  0  0  0  0  0  0
  160.7040  206.2730  150.8480 C   0  0  0  0  0  2  0  0  0  0  0  0
  161.4540  206.5330  147.8060 C   0  0  1  0  0  3  0  0  0  0  0  0
  159.3960  213.4000  150.9170 C   0  0  0  0  0  2  0  0  0  0  0  0
  160.4560  212.4380  151.4670 C   0  0  2  0  0  3  0  0  0  0  0  0
  159.4430  212.6170  153.7620 C   0  0  0  0  0  3  0  0  0  0  0  0
  161.0630  208.3710  152.0590 C   0  0  0  0  0  3  0  0  0  0  0  0
  160.8120  208.6940  154.9480 C   0  0  0  0  0  1  0  0  0  0  0  0
  158.0140  214.0810  156.0830 C   0  0  0  0  0  1  0  0  0  0  0  0
  160.5510  210.5100  153.1560 C   0  0  0  0  0  0  0  0  0  0  0  0
  159.2030  212.0890  155.0240 C   0  0  0  0  0  0  0  0  0  0  0  0
  162.2420  205.6670  146.9420 N   0  0  0  0  0  2  0  0  0  0  0  0
  161.7770  205.2190  145.6670 C   0  0  0  0  0  0  0  0  0  0  0  0
  160.6560  205.5870  145.2260 O   0  0  0  0  0  0  0  0  0  0  0  0
  162.5910  204.3530  144.8860 N   0  0  0  0  0  1  0  0  0  0  0  0
  1 16  1  0  0  0  0
  2 27  1  0  0  0  0
  3  4  1  0  0  0  0
  4 21  1  0  0  0  0
  5 25  1  0  0  0  0
  5  6  1  0  0  0  0
  6 18  1  0  0  0  0
  7 19  1  6  0  0  0
  7 24  1  0  0  0  0
  9 15  1  0  0  0  0
 11  3  1  0  0  0  0
 12  8  1  6  0  0  0
 12  2  1  0  0  0  0
 13 11  1  6  0  0  0
 13 12  1  0  0  0  0
 13 22  1  0  0  0  0
 14 27  1  0  0  0  0
 14 23  2  0  0  0  0
 16 19  1  0  0  0  0
 17 10  1  6  0  0  0
 17  8  1  0  0  0  0
 17  7  1  0  0  0  0
 18 15  2  0  0  0  0
 20 29  1  1  0  0  0
 20 10  1  0  0  0  0
 20  1  1  0  0  0  0
 22 21  1  6  0  0  0
 22 14  1  0  0  0  0
 23 28  1  0  0  0  0
 24  2  2  0  0  0  0
 26  9  1  0  0  0  0
 27  5  2  0  0  0  0
 28  6  2  0  0  0  0
 28  9  1  0  0  0  0
 30 29  1  0  0  0  0
 31 30  2  0  0  0  0
 32 30  1  0  0  0  0
M  END
>  <MODEL>
1

>  <REMARK>
 VINA RESULT:      -7.3      0.000      0.000
  Name = 
  1 active torsions:
  status: ('A' for Active; 'I' for Inactive)
    1  A    between atoms: C_20  and  N_29
                            x       y       z     vdW  Elec       q    Type
                         _______ _______ _______ _____ _____    ______ ____

>  <TORSDO>
F 1

$$$$
=
 OpenBabel11122412583D

 32 37  0  0  1  0  0  0  0  0999 V2000
  159.6400  210.7370  153.1540 C   0  0  0  0  0  2  0  0  0  0  0  0
  161.9400  206.9230  150.2870 C   0  0  0  0  0  0  0  0  0  0  0  0
  160.9660  202.9920  152.9580 O   0  0  0  0  0  0  0  0  0  0  0  0
  159.8430  202.7070  152.1550 C   0  0  0  0  0  2  0  0  0  0  0  0
  162.0140  206.6060  147.7460 C   0  0  0  0  0  0  0  0  0  0  0  0
  161.8030  205.7620  146.6510 C   0  0  0  0  0  0  0  0  0  0  0  0
  161.6280  209.1010  151.4850 C   0  0  2  0  0  3  0  0  0  0  0  0
  162.2410  207.1110  152.8250 C   0  0  0  0  0  2  0  0  0  0  0  0
  161.2890  203.8070  145.5760 N   0  0  0  0  0  0  0  0  0  0  0  0
  161.4420  209.1230  153.9960 C   0  0  0  0  0  2  0  0  0  0  0  0
  161.0630  204.3980  153.0810 C   0  0  0  0  0  2  0  0  0  0  0  0
  162.1550  206.1920  151.5970 C   0  0  1  0  0  3  0  0  0  0  0  0
  161.0710  205.1260  151.7170 C   0  0  1  0  0  3  0  0  0  0  0  0
  161.3580  204.7350  149.2090 C   0  0  0  0  0  0  0  0  0  0  0  0
  161.6390  204.7280  144.5030 C   0  0  0  0  0  3  0  0  0  0  0  0
  160.6680  211.1570  152.3030 O   0  0  0  0  0  0  0  0  0  0  0  0
  161.2730  208.2810  152.7350 C   0  0  1  0  0  3  0  0  0  0  0  0
  161.9940  206.0600  145.1990 C   0  0  0  0  0  3  0  0  0  0  0  0
  160.6420  210.2430  151.2440 C   0  0  0  0  0  2  0  0  0  0  0  0
  160.1960  209.9420  154.3420 C   0  0  1  0  0  3  0  0  0  0  0  0
  160.1380  203.0360  150.6850 C   0  0  0  0  0  2  0  0  0  0  0  0
  161.2320  204.1060  150.5820 C   0  0  2  0  0  3  0  0  0  0  0  0
  161.1920  203.9210  148.0740 C   0  0  0  0  0  3  0  0  0  0  0  0
  161.6310  208.2290  150.2650 C   0  0  0  0  0  3  0  0  0  0  0  0
  162.5320  207.9880  147.5000 C   0  0  0  0  0  1  0  0  0  0  0  0
  160.9000  202.4210  145.3830 C   0  0  0  0  0  1  0  0  0  0  0  0
  161.7810  206.0930  149.0570 C   0  0  0  0  0  0  0  0  0  0  0  0
  161.4030  204.4700  146.8160 C   0  0  0  0  0  0  0  0  0  0  0  0
  160.5090  210.8420  155.4410 N   0  0  0  0  0  2  0  0  0  0  0  0
  159.5010  211.4950  156.2170 C   0  0  0  0  0  0  0  0  0  0  0  0
  158.2800  211.2890  155.9860 O   0  0  0  0  0  0  0  0  0  0  0  0
  159.8810  212.3820  157.2610 N   0  0  0  0  0  1  0  0  0  0  0  0
  1 20  1  0  0  0  0
  2 12  1  0  0  0  0
  3 11  1  0  0  0  0
  4  3  1  0  0  0  0
  5 27  1  0  0  0  0
  6 28  1  0  0  0  0
  6  5  2  0  0  0  0
  7 24  1  6  0  0  0
  7 17  1  0  0  0  0
  9 28  1  0  0  0  0
 10 20  1  0  0  0  0
 12 13  1  0  0  0  0
 12  8  1  1  0  0  0
 13 11  1  1  0  0  0
 14 22  1  0  0  0  0
 15 18  2  0  0  0  0
 15  9  1  0  0  0  0
 16  1  1  0  0  0  0
 17  8  1  1  0  0  0
 17 10  1  0  0  0  0
 18  6  1  0  0  0  0
 19  7  1  0  0  0  0
 19 16  1  0  0  0  0
 20 29  1  1  0  0  0
 21  4  1  0  0  0  0
 22 21  1  6  0  0  0
 22 13  1  0  0  0  0
 23 14  1  0  0  0  0
 24  2  2  0  0  0  0
 25  5  1  0  0  0  0
 26  9  1  0  0  0  0
 27 14  2  0  0  0  0
 27  2  1  0  0  0  0
 28 23  2  0  0  0  0
 29 30  1  0  0  0  0
 30 32  1  0  0  0  0
 31 30  2  0  0  0  0
M  END
>  <MODEL>
2

>  <REMARK>
 VINA RESULT:      -6.4      2.434      9.436
  Name = 
  1 active torsions:
  status: ('A' for Active; 'I' for Inactive)
    1  A    between atoms: C_20  and  N_29
                            x       y       z     vdW  Elec       q    Type
                         _______ _______ _______ _____ _____    ______ ____

>  <TORSDO>
F 1

$$$$
=
 OpenBabel11122412583D

 32 37  0  0  1  0  0  0  0  0999 V2000
  159.9360  203.8090  150.0290 C   0  0  0  0  0  2  0  0  0  0  0  0
  161.5580  208.1220  152.6410 C   0  0  0  0  0  0  0  0  0  0  0  0
  162.1170  211.2910  149.0100 O   0  0  0  0  0  0  0  0  0  0  0  0
  160.8320  211.8150  149.2510 C   0  0  0  0  0  2  0  0  0  0  0  0
  160.7720  209.0650  154.8890 C   0  0  0  0  0  0  0  0  0  0  0  0
  160.3010  210.1660  155.6120 C   0  0  0  0  0  0  0  0  0  0  0  0
  161.4050  205.7280  151.9210 C   0  0  2  0  0  3  0  0  0  0  0  0
  162.7080  207.2880  150.5080 C   0  0  0  0  0  2  0  0  0  0  0  0
  159.7040  212.3490  155.9610 N   0  0  0  0  0  0  0  0  0  0  0  0
  162.1160  205.0810  149.5930 C   0  0  0  0  0  2  0  0  0  0  0  0
  162.0650  209.8960  149.2430 C   0  0  0  0  0  2  0  0  0  0  0  0
  162.3160  208.4900  151.3810 C   0  0  1  0  0  3  0  0  0  0  0  0
  161.4950  209.5360  150.6340 C   0  0  1  0  0  3  0  0  0  0  0  0
  160.9270  210.5330  152.9170 C   0  0  0  0  0  0  0  0  0  0  0  0
  159.5270  211.7130  157.2600 C   0  0  0  0  0  3  0  0  0  0  0  0
  160.5320  203.5730  151.2730 O   0  0  0  0  0  0  0  0  0  0  0  0
  161.6240  206.2200  150.4820 C   0  0  1  0  0  3  0  0  0  0  0  0
  159.9260  210.2360  157.0580 C   0  0  0  0  0  3  0  0  0  0  0  0
  160.2550  204.7250  152.0180 C   0  0  0  0  0  2  0  0  0  0  0  0
  160.9750  204.2550  148.9940 C   0  0  1  0  0  3  0  0  0  0  0  0
  160.5420  211.8550  150.7580 C   0  0  0  0  0  2  0  0  0  0  0  0
  161.3780  210.8010  151.4950 C   0  0  2  0  0  3  0  0  0  0  0  0
  160.4810  211.6130  153.6990 C   0  0  0  0  0  3  0  0  0  0  0  0
  161.0920  206.8780  152.8310 C   0  0  0  0  0  3  0  0  0  0  0  0
  160.9830  207.7700  155.6070 C   0  0  0  0  0  1  0  0  0  0  0  0
  159.4590  213.7530  155.6870 C   0  0  0  0  0  1  0  0  0  0  0  0
  161.0860  209.2410  153.5090 C   0  0  0  0  0  0  0  0  0  0  0  0
  160.1590  211.3900  155.0320 C   0  0  0  0  0  0  0  0  0  0  0  0
  161.5340  203.0940  148.3170 N   0  0  0  0  0  2  0  0  0  0  0  0
  160.8520  201.8400  148.2420 C   0  0  0  0  0  0  0  0  0  0  0  0
  159.7070  201.7020  148.7470 O   0  0  0  0  0  0  0  0  0  0  0  0
  161.4700  200.7410  147.5850 N   0  0  0  0  0  1  0  0  0  0  0  0
  1 16  1  0  0  0  0
  2 24  2  0  0  0  0
  2 27  1  0  0  0  0
  3 11  1  0  0  0  0
  3  4  1  0  0  0  0
  4 21  1  0  0  0  0
  5 25  1  0  0  0  0
  5  6  1  0  0  0  0
  6 18  1  0  0  0  0
  7 19  1  6  0  0  0
  7 24  1  0  0  0  0
  9 15  1  0  0  0  0
 12  8  1  6  0  0  0
 12  2  1  0  0  0  0
 13 11  1  6  0  0  0
 13 12  1  0  0  0  0
 13 22  1  0  0  0  0
 14 27  1  0  0  0  0
 14 23  2  0  0  0  0
 16 19  1  0  0  0  0
 17 10  1  6  0  0  0
 17  8  1  0  0  0  0
 17  7  1  0  0  0  0
 18 15  2  0  0  0  0
 20 29  1  1  0  0  0
 20 10  1  0  0  0  0
 20  1  1  0  0  0  0
 22 21  1  6  0  0  0
 22 14  1  0  0  0  0
 23 28  1  0  0  0  0
 26  9  1  0  0  0  0
 27  5  2  0  0  0  0
 28  6  2  0  0  0  0
 28  9  1  0  0  0  0
 30 29  1  0  0  0  0
 30 31  2  0  0  0  0
 32 30  1  0  0  0  0
M  END
>  <MODEL>
3

>  <REMARK>
 VINA RESULT:      -5.5      1.930      2.346
  Name = 
  1 active torsions:
  status: ('A' for Active; 'I' for Inactive)
    1  A    between atoms: C_20  and  N_29
                            x       y       z     vdW  Elec       q    Type
                         _______ _______ _______ _____ _____    ______ ____

>  <TORSDO>
F 1

$$$$
=
 OpenBabel11122412583D

 32 37  0  0  1  0  0  0  0  0999 V2000
  162.6330  209.0990  156.2040 C   0  0  0  0  0  2  0  0  0  0  0  0
  160.6060  206.6930  151.9430 C   0  0  0  0  0  0  0  0  0  0  0  0
  161.8640  209.7720  148.4110 O   0  0  0  0  0  0  0  0  0  0  0  0
  163.0030  208.9950  148.1190 C   0  0  0  0  0  2  0  0  0  0  0  0
  160.5500  204.2030  151.3420 C   0  0  0  0  0  0  0  0  0  0  0  0
  160.8190  203.2060  150.3990 C   0  0  0  0  0  0  0  0  0  0  0  0
  160.7640  207.6390  154.2570 C   0  0  2  0  0  3  0  0  0  0  0  0
  160.2970  209.1980  152.3890 C   0  0  0  0  0  2  0  0  0  0  0  0
  161.4700  202.3490  148.3780 N   0  0  0  0  0  0  0  0  0  0  0  0
  160.9520  210.1310  154.5700 C   0  0  0  0  0  2  0  0  0  0  0  0
  161.6670  209.7400  149.8120 C   0  0  0  0  0  2  0  0  0  0  0  0
  160.4470  208.0780  151.3480 C   0  0  1  0  0  3  0  0  0  0  0  0
  161.6050  208.3040  150.3810 C   0  0  1  0  0  3  0  0  0  0  0  0
  161.3410  205.8570  149.6960 C   0  0  0  0  0  0  0  0  0  0  0  0
  161.0530  201.1840  149.1470 C   0  0  0  0  0  3  0  0  0  0  0  0
  161.5760  208.2170  156.4540 O   0  0  0  0  0  0  0  0  0  0  0  0
  161.1790  208.9690  153.6080 C   0  0  1  0  0  3  0  0  0  0  0  0
  160.6050  201.7320  150.5190 C   0  0  0  0  0  3  0  0  0  0  0  0
  161.6650  207.2650  155.4320 C   0  0  0  0  0  2  0  0  0  0  0  0
  162.1370  210.3730  155.5090 C   0  0  1  0  0  3  0  0  0  0  0  0
  162.6830  207.5000  148.2610 C   0  0  0  0  0  2  0  0  0  0  0  0
  161.5150  207.2900  149.2330 C   0  0  2  0  0  3  0  0  0  0  0  0
  161.5630  204.8180  148.7740 C   0  0  0  0  0  3  0  0  0  0  0  0
  160.8210  206.5240  153.2570 C   0  0  0  0  0  3  0  0  0  0  0  0
  159.9340  203.8110  152.6470 C   0  0  0  0  0  1  0  0  0  0  0  0
  161.9560  202.3060  147.0100 C   0  0  0  0  0  1  0  0  0  0  0  0
  160.8220  205.5600  150.9950 C   0  0  0  0  0  0  0  0  0  0  0  0
  161.3110  203.5090  149.1650 C   0  0  0  0  0  0  0  0  0  0  0  0
  161.7630  211.3690  156.5010 N   0  0  0  0  0  2  0  0  0  0  0  0
  160.7790  212.3750  156.2520 C   0  0  0  0  0  0  0  0  0  0  0  0
  160.1710  212.4200  155.1500 O   0  0  0  0  0  0  0  0  0  0  0  0
  160.4810  213.3320  157.2610 N   0  0  0  0  0  1  0  0  0  0  0  0
  1 16  1  0  0  0  0
  2 24  2  0  0  0  0
  3 11  1  0  0  0  0
  4 21  1  0  0  0  0
  4  3  1  0  0  0  0
  5 25  1  0  0  0  0
  6 18  1  0  0  0  0
  6  5  2  0  0  0  0
  7 24  1  6  0  0  0
  7 19  1  0  0  0  0
  9 15  1  0  0  0  0
  9 28  1  0  0  0  0
 10 20  1  0  0  0  0
 12  2  1  0  0  0  0
 12  8  1  1  0  0  0
 13 11  1  6  0  0  0
 13 12  1  0  0  0  0
 14 27  2  0  0  0  0
 15 18  2  0  0  0  0
 17  8  1  6  0  0  0
 17  7  1  0  0  0  0
 17 10  1  0  0  0  0
 19 16  1  0  0  0  0
 20  1  1  0  0  0  0
 20 29  1  1  0  0  0
 22 21  1  1  0  0  0
 22 14  1  0  0  0  0
 22 13  1  0  0  0  0
 23 28  2  0  0  0  0
 23 14  1  0  0  0  0
 26  9  1  0  0  0  0
 27  5  1  0  0  0  0
 27  2  1  0  0  0  0
 28  6  1  0  0  0  0
 30 29  1  0  0  0  0
 30 32  1  0  0  0  0
 31 30  2  0  0  0  0
M  END
>  <MODEL>
4

>  <REMARK>
 VINA RESULT:      -4.6      2.814      8.488
  Name = 
  1 active torsions:
  status: ('A' for Active; 'I' for Inactive)
    1  A    between atoms: C_20  and  N_29
                            x       y       z     vdW  Elec       q    Type
                         _______ _______ _______ _____ _____    ______ ____

>  <TORSDO>
F 1

$$$$
