=
 OpenBabel11122413433D

 37 44  0  0  1  0  0  0  0  0999 V2000
  160.9520  207.2790  151.7150 C   0  0  0  0  0  2  0  0  0  0  0  0
  160.6690  208.8340  156.0100 C   0  0  1  0  0  0  0  0  0  0  0  0
  159.9630  211.0110  152.5140 C   0  0  0  0  0  0  0  0  0  0  0  0
  161.3370  205.7930  151.4910 C   0  0  2  0  0  3  0  0  0  0  0  0
  162.0790  210.3480  149.2690 C   0  0  0  0  0  2  0  0  0  0  0  0
  159.3810  210.6040  154.8290 C   0  0  0  0  0  0  0  0  0  0  0  0
  161.0050  210.6020  151.5960 N   0  0  0  0  0  0  0  0  0  0  0  0
  162.1340  206.2850  149.0920 C   0  0  0  0  0  0  0  0  0  0  0  0
  160.0940  210.3270  153.6830 C   0  0  0  0  0  0  0  0  0  0  0  0
  161.5180  211.3150  150.3670 C   0  0  2  0  0  3  0  0  0  0  0  0
  158.3930  211.5920  154.7730 C   0  0  0  0  0  3  0  0  0  0  0  0
  162.2710  205.4250  150.3090 C   0  0  0  0  0  2  0  0  0  0  0  0
  161.1730  209.4440  153.6730 N   0  0  0  0  0  0  0  0  0  0  0  0
  159.9330  207.5310  155.7580 C   0  0  0  0  0  1  0  0  0  0  0  0
  158.7040  212.8110  151.2020 C   0  0  0  0  0  2  0  0  0  0  0  0
  158.1870  212.2890  153.5650 C   0  0  0  0  0  3  0  0  0  0  0  0
  161.7700  209.0110  154.9330 C   0  0  0  0  0  2  0  0  0  0  0  0
  162.2970  207.6750  149.2690 N   0  0  0  0  0  0  0  0  0  0  0  0
  161.5790  208.9690  149.5640 C   0  0  1  0  0  3  0  0  0  0  0  0
  158.9810  212.0240  152.4270 C   0  0  0  0  0  0  0  0  0  0  0  0
  161.8510  209.6430  152.3960 C   0  0  1  0  0  3  0  0  0  0  0  0
  159.7220  209.9230  156.0060 O   0  0  0  0  0  0  0  0  0  0  0  0
  160.5110  212.2640  149.6870 C   0  0  1  0  0  3  0  0  0  0  0  0
  161.2680  208.7640  157.2530 F   0  0  0  0  0  0  0  0  0  0  0  0
  162.6620  208.6190  150.3320 C   0  0  1  0  0  3  0  0  0  0  0  0
  161.8750  205.7980  147.9610 O   0  0  0  0  0  0  0  0  0  0  0  0
  162.1360  208.2800  151.7090 C   0  0  2  0  0  3  0  0  0  0  0  0
  159.9880  213.3270  150.6190 C   0  0  0  0  0  2  0  0  0  0  0  0
  162.1590  213.8180  148.6180 C   0  0  0  0  0  3  0  0  0  0  0  0
  161.0820  212.9360  148.4700 C   0  0  0  0  0  0  0  0  0  0  0  0
  160.5570  212.6910  147.1900 C   0  0  0  0  0  3  0  0  0  0  0  0
  160.5960  213.0900  144.8410 F   0  0  0  0  0  0  0  0  0  0  0  0
  162.1800  214.2090  146.2270 C   0  0  0  0  0  3  0  0  0  0  0  0
  161.1060  213.3280  146.0730 C   0  0  0  0  0  0  0  0  0  0  0  0
  162.7060  214.4530  147.5000 C   0  0  0  0  0  3  0  0  0  0  0  0
  160.3840  203.6820  150.9080 O   0  0  0  0  0  1  0  0  0  0  0  0
  160.0810  204.9440  151.4220 C   0  0  0  0  0  2  0  0  0  0  0  0
  2 14  1  6  0  0  0
  2 24  1  0  0  0  0
  3  9  1  0  0  0  0
  4 37  1  6  0  0  0
  4  1  1  0  0  0  0
  6 22  1  0  0  0  0
  7  3  1  0  0  0  0
  8 18  1  0  0  0  0
  8 12  1  0  0  0  0
  9  6  2  0  0  0  0
 10  5  1  6  0  0  0
 10  7  1  0  0  0  0
 11  6  1  0  0  0  0
 12  4  1  0  0  0  0
 13  9  1  0  0  0  0
 13 17  1  0  0  0  0
 15 20  1  0  0  0  0
 16 11  2  0  0  0  0
 17  2  1  0  0  0  0
 18 19  1  0  0  0  0
 19  5  1  6  0  0  0
 19 25  1  0  0  0  0
 20  3  2  0  0  0  0
 20 16  1  0  0  0  0
 21  7  1  6  0  0  0
 21 13  1  0  0  0  0
 22  2  1  0  0  0  0
 23 30  1  6  0  0  0
 23 10  1  0  0  0  0
 23 28  1  0  0  0  0
 25 18  1  6  0  0  0
 25 27  1  0  0  0  0
 26  8  2  0  0  0  0
 27  1  1  6  0  0  0
 27 21  1  0  0  0  0
 28 15  1  0  0  0  0
 30 29  1  0  0  0  0
 31 30  2  0  0  0  0
 32 34  1  0  0  0  0
 33 35  1  0  0  0  0
 34 33  2  0  0  0  0
 34 31  1  0  0  0  0
 35 29  2  0  0  0  0
 36 37  1  0  0  0  0
M  END
>  <MODEL>
1

>  <REMARK>
 VINA RESULT:      -6.0      0.000      0.000
  Name = 
  2 active torsions:
  status: ('A' for Active; 'I' for Inactive)
    1  A    between atoms: C_4  and  C_37
    2  A    between atoms: C_23  and  C_30
                            x       y       z     vdW  Elec       q    Type
                         _______ _______ _______ _____ _____    ______ ____

>  <TORSDO>
F 2

$$$$
=
 OpenBabel11122413433D

 37 44  0  0  1  0  0  0  0  0999 V2000
  161.2460  207.8960  152.1050 C   0  0  0  0  0  2  0  0  0  0  0  0
  161.6650  210.4070  155.9090 C   0  0  1  0  0  0  0  0  0  0  0  0
  160.3260  211.7280  152.1780 C   0  0  0  0  0  0  0  0  0  0  0  0
  161.6210  206.3920  152.1680 C   0  0  2  0  0  3  0  0  0  0  0  0
  161.8720  210.2940  148.8610 C   0  0  0  0  0  2  0  0  0  0  0  0
  160.1560  211.8790  154.5880 C   0  0  0  0  0  0  0  0  0  0  0  0
  161.2050  211.0990  151.2150 N   0  0  0  0  0  0  0  0  0  0  0  0
  161.9870  206.3000  149.6210 C   0  0  0  0  0  0  0  0  0  0  0  0
  160.6690  211.3310  153.4330 C   0  0  0  0  0  0  0  0  0  0  0  0
  161.4850  211.4990  149.7850 C   0  0  2  0  0  3  0  0  0  0  0  0
  159.1510  212.8440  154.4750 C   0  0  0  0  0  3  0  0  0  0  0  0
  162.3490  205.7430  150.9610 C   0  0  0  0  0  2  0  0  0  0  0  0
  161.7500  210.4510  153.4430 N   0  0  0  0  0  0  0  0  0  0  0  0
  160.9260  209.0950  156.0940 C   0  0  0  0  0  1  0  0  0  0  0  0
  158.8220  213.1990  150.7200 C   0  0  0  0  0  2  0  0  0  0  0  0
  158.7270  213.2470  153.1920 C   0  0  0  0  0  3  0  0  0  0  0  0
  162.5620  210.3100  154.6480 C   0  0  0  0  0  2  0  0  0  0  0  0
  162.1470  207.6910  149.4420 N   0  0  0  0  0  0  0  0  0  0  0  0
  161.4610  209.0310  149.5480 C   0  0  1  0  0  3  0  0  0  0  0  0
  159.3210  212.7120  152.0280 C   0  0  0  0  0  0  0  0  0  0  0  0
  162.1960  210.3360  152.0580 C   0  0  1  0  0  3  0  0  0  0  0  0
  160.7070  211.4820  155.8140 O   0  0  0  0  0  0  0  0  0  0  0  0
  160.3570  212.2830  149.0870 C   0  0  1  0  0  3  0  0  0  0  0  0
  162.4680  210.6160  157.0130 F   0  0  0  0  0  0  0  0  0  0  0  0
  162.6660  208.8480  150.1790 C   0  0  1  0  0  3  0  0  0  0  0  0
  161.5500  205.5690  148.6950 O   0  0  0  0  0  0  0  0  0  0  0  0
  162.3900  208.8460  151.6670 C   0  0  2  0  0  3  0  0  0  0  0  0
  159.9760  213.5430  149.8230 C   0  0  0  0  0  2  0  0  0  0  0  0
  159.8500  212.2230  146.6340 C   0  0  0  0  0  3  0  0  0  0  0  0
  160.6960  212.6450  147.6680 C   0  0  0  0  0  0  0  0  0  0  0  0
  161.8400  213.4000  147.3620 C   0  0  0  0  0  3  0  0  0  0  0  0
  163.2380  214.4530  145.7440 F   0  0  0  0  0  0  0  0  0  0  0  0
  161.2860  213.2990  145.0070 C   0  0  0  0  0  3  0  0  0  0  0  0
  162.1330  213.7250  146.0340 C   0  0  0  0  0  0  0  0  0  0  0  0
  160.1450  212.5490  145.3080 C   0  0  0  0  0  3  0  0  0  0  0  0
  160.6760  204.2110  152.4000 O   0  0  0  0  0  1  0  0  0  0  0  0
  160.3910  205.5720  152.5130 C   0  0  0  0  0  2  0  0  0  0  0  0
  1  4  1  0  0  0  0
  2 14  1  1  0  0  0
  2 24  1  0  0  0  0
  3  9  1  0  0  0  0
  4 37  1  6  0  0  0
  6 22  1  0  0  0  0
  7  3  1  0  0  0  0
  8 12  1  0  0  0  0
  9 13  1  0  0  0  0
  9  6  2  0  0  0  0
 10  5  1  6  0  0  0
 10  7  1  0  0  0  0
 11  6  1  0  0  0  0
 12  4  1  0  0  0  0
 13 17  1  0  0  0  0
 15 20  1  0  0  0  0
 16 11  2  0  0  0  0
 17  2  1  0  0  0  0
 18 19  1  0  0  0  0
 18  8  1  0  0  0  0
 19  5  1  6  0  0  0
 19 25  1  0  0  0  0
 20  3  2  0  0  0  0
 20 16  1  0  0  0  0
 21  7  1  6  0  0  0
 21 13  1  0  0  0  0
 22  2  1  0  0  0  0
 23 30  1  6  0  0  0
 23 10  1  0  0  0  0
 23 28  1  0  0  0  0
 25 18  1  6  0  0  0
 25 27  1  0  0  0  0
 26  8  2  0  0  0  0
 27 21  1  0  0  0  0
 27  1  1  6  0  0  0
 28 15  1  0  0  0  0
 29 30  1  0  0  0  0
 31 30  2  0  0  0  0
 32 34  1  0  0  0  0
 33 35  1  0  0  0  0
 33 34  2  0  0  0  0
 34 31  1  0  0  0  0
 35 29  2  0  0  0  0
 36 37  1  0  0  0  0
M  END
>  <MODEL>
2

>  <REMARK>
 VINA RESULT:      -5.2      1.177      1.496
  Name = 
  2 active torsions:
  status: ('A' for Active; 'I' for Inactive)
    1  A    between atoms: C_4  and  C_37
    2  A    between atoms: C_23  and  C_30
                            x       y       z     vdW  Elec       q    Type
                         _______ _______ _______ _____ _____    ______ ____

>  <TORSDO>
F 2

$$$$
