=
 OpenBabel11122414143D

 28 32  0  0  1  0  0  0  0  0999 V2000
  161.3270  208.9610  155.2510 C   0  0  0  0  0  0  0  0  0  0  0  0
  158.3930  210.2980  154.5950 F   0  0  0  0  0  0  0  0  0  0  0  0
  162.4290  211.5920  149.8510 O   0  0  0  0  0  0  0  0  0  0  0  0
  162.9240  210.3460  157.0930 C   0  0  0  0  0  3  0  0  0  0  0  0
  160.4010  212.1040  150.9300 N   0  0  0  0  0  0  0  0  0  0  0  0
  160.5700  208.1350  154.2720 C   0  0  0  0  0  2  0  0  0  0  0  0
  159.1030  211.3410  156.5230 N   0  0  0  0  0  1  0  0  0  0  0  0
  158.7160  211.5330  155.1360 C   0  0  1  0  0  0  0  0  0  0  0  0
  156.9410  212.5540  153.7120 C   0  0  1  0  0  3  0  0  0  0  0  0
  159.8950  212.1990  154.3700 C   0  0  2  0  0  3  0  0  0  0  0  0
  160.2560  206.9080  151.3980 O   0  0  0  0  0  0  0  0  0  0  0  0
  160.4870  210.6060  152.6550 C   0  0  1  0  0  3  0  0  0  0  0  0
  158.0040  213.7140  152.8150 S   0  0  0  0  0  0  0  0  0  0  0  0
  157.4680  212.4050  155.1240 C   0  0  0  0  0  2  0  0  0  0  0  0
  161.0080  207.8100  151.8530 C   0  0  0  0  0  0  0  0  0  0  0  0
  161.5630  210.3500  155.0720 C   0  0  0  0  0  0  0  0  0  0  0  0
  161.5810  211.3570  150.7530 C   0  0  0  0  0  0  0  0  0  0  0  0
  155.6440  213.0600  153.7560 O   0  0  0  0  0  1  0  0  0  0  0  0
  161.4150  208.9480  150.9700 C   0  0  0  0  0  2  0  0  0  0  0  0
  162.3640  211.0210  156.0070 C   0  0  0  0  0  3  0  0  0  0  0  0
  161.9000  208.2940  156.3400 C   0  0  0  0  0  3  0  0  0  0  0  0
  162.6890  208.9830  157.2600 C   0  0  0  0  0  3  0  0  0  0  0  0
  161.4630  207.7400  153.1990 N   0  0  0  0  0  2  0  0  0  0  0  0
  159.6330  211.6340  152.0080 N   0  0  1  0  0  0  0  0  0  0  0  0
  161.6690  210.2610  151.7230 C   0  0  2  0  0  3  0  0  0  0  0  0
  159.5340  212.7240  152.9820 C   0  0  2  0  0  3  0  0  0  0  0  0
  159.8730  213.0160  149.9270 C   0  0  0  0  0  1  0  0  0  0  0  0
  160.9760  211.2100  153.9700 C   0  0  2  0  0  3  0  0  0  0  0  0
  1 21  1  0  0  0  0
  3 17  2  0  0  0  0
  4 22  1  0  0  0  0
  5 24  1  0  0  0  0
  6  1  1  0  0  0  0
  8  2  1  6  0  0  0
  8  7  1  0  0  0  0
  9 18  1  1  0  0  0
  9 14  1  0  0  0  0
 10  8  1  0  0  0  0
 11 15  2  0  0  0  0
 12 28  1  0  0  0  0
 13 26  1  0  0  0  0
 13  9  1  0  0  0  0
 14  8  1  0  0  0  0
 15 23  1  0  0  0  0
 16  1  2  0  0  0  0
 16 20  1  0  0  0  0
 17  5  1  0  0  0  0
 17 25  1  0  0  0  0
 19 25  1  0  0  0  0
 19 15  1  0  0  0  0
 20  4  2  0  0  0  0
 21 22  2  0  0  0  0
 23  6  1  0  0  0  0
 24 12  1  0  0  0  0
 24 26  1  0  0  0  0
 25 12  1  0  0  0  0
 26 10  1  0  0  0  0
 27  5  1  0  0  0  0
 28 10  1  0  0  0  0
 28 16  1  0  0  0  0
M  END
>  <MODEL>
1

>  <REMARK>
 VINA RESULT:      -3.9      0.000      0.000
  Name = 
  0 active torsions:
  status: ('A' for Active; 'I' for Inactive)
                            x       y       z     vdW  Elec       q    Type
                         _______ _______ _______ _____ _____    ______ ____

>  <TORSDO>
F 0

$$$$
=
 OpenBabel11122414143D

 28 32  0  0  1  0  0  0  0  0999 V2000
  161.0600  210.1430  155.9450 C   0  0  0  0  0  0  0  0  0  0  0  0
  161.5380  211.6830  153.0780 F   0  0  0  0  0  0  0  0  0  0  0  0
  156.1080  213.7080  155.7000 O   0  0  0  0  0  0  0  0  0  0  0  0
  160.0940  207.5160  155.7820 C   0  0  0  0  0  3  0  0  0  0  0  0
  157.4420  213.5440  153.7670 N   0  0  0  0  0  0  0  0  0  0  0  0
  161.5810  211.5200  156.1590 C   0  0  0  0  0  2  0  0  0  0  0  0
  161.3510  209.4530  152.5300 N   0  0  0  0  0  1  0  0  0  0  0  0
  160.7860  210.7780  152.3450 C   0  0  1  0  0  0  0  0  0  0  0  0
  160.4460  212.5490  150.6220 C   0  0  1  0  0  3  0  0  0  0  0  0
  159.3010  210.7640  152.8100 C   0  0  2  0  0  3  0  0  0  0  0  0
  161.2160  214.4380  157.2590 O   0  0  0  0  0  0  0  0  0  0  0  0
  159.2110  212.3690  154.6120 C   0  0  1  0  0  3  0  0  0  0  0  0
  158.6370  212.5830  150.6780 S   0  0  0  0  0  0  0  0  0  0  0  0
  160.9130  211.1300  150.8690 C   0  0  0  0  0  2  0  0  0  0  0  0
  160.3990  213.4990  157.0710 C   0  0  0  0  0  0  0  0  0  0  0  0
  159.9130  209.8630  155.1570 C   0  0  0  0  0  0  0  0  0  0  0  0
  157.1790  213.3560  155.1370 C   0  0  0  0  0  0  0  0  0  0  0  0
  160.8730  212.9620  149.3610 O   0  0  0  0  0  1  0  0  0  0  0  0
  158.9860  213.8150  156.6880 C   0  0  0  0  0  2  0  0  0  0  0  0
  159.4490  208.5420  155.0900 C   0  0  0  0  0  3  0  0  0  0  0  0
  161.6930  209.1060  156.6410 C   0  0  0  0  0  3  0  0  0  0  0  0
  161.2180  207.7980  156.5560 C   0  0  0  0  0  3  0  0  0  0  0  0
  160.8230  212.1510  157.2230 N   0  0  0  0  0  2  0  0  0  0  0  0
  158.7070  213.0600  153.3990 N   0  0  1  0  0  0  0  0  0  0  0  0
  158.3220  212.7380  155.8190 C   0  0  2  0  0  3  0  0  0  0  0  0
  158.4980  212.0010  152.4080 C   0  0  2  0  0  3  0  0  0  0  0  0
  156.6590  214.4270  152.9160 C   0  0  0  0  0  1  0  0  0  0  0  0
  159.1510  210.8710  154.3170 C   0  0  2  0  0  3  0  0  0  0  0  0
  1  6  1  0  0  0  0
  1 21  1  0  0  0  0
  4 22  1  0  0  0  0
  5 17  1  0  0  0  0
  6 23  1  0  0  0  0
  8  7  1  1  0  0  0
  8 10  1  0  0  0  0
  8  2  1  0  0  0  0
  9 18  1  6  0  0  0
  9 13  1  0  0  0  0
  9 14  1  0  0  0  0
 10 28  1  0  0  0  0
 12 25  1  0  0  0  0
 13 26  1  0  0  0  0
 14  8  1  0  0  0  0
 15 23  1  0  0  0  0
 15 11  2  0  0  0  0
 16  1  2  0  0  0  0
 17  3  2  0  0  0  0
 17 25  1  0  0  0  0
 19 15  1  0  0  0  0
 20 16  1  0  0  0  0
 20  4  2  0  0  0  0
 22 21  2  0  0  0  0
 24  5  1  0  0  0  0
 24 12  1  0  0  0  0
 25 19  1  0  0  0  0
 26 10  1  0  0  0  0
 26 24  1  0  0  0  0
 27  5  1  0  0  0  0
 28 12  1  0  0  0  0
 28 16  1  0  0  0  0
M  END
>  <MODEL>
2

>  <REMARK>
 VINA RESULT:      -2.6      2.230      4.951
  Name = 
  0 active torsions:
  status: ('A' for Active; 'I' for Inactive)
                            x       y       z     vdW  Elec       q    Type
                         _______ _______ _______ _____ _____    ______ ____

>  <TORSDO>
F 0

$$$$
=
 OpenBabel11122414143D

 28 32  0  0  1  0  0  0  0  0999 V2000
  158.5930  213.1590  150.8830 C   0  0  0  0  0  0  0  0  0  0  0  0
  159.1640  210.1520  152.0910 F   0  0  0  0  0  0  0  0  0  0  0  0
  159.7080  214.4520  156.7460 O   0  0  0  0  0  0  0  0  0  0  0  0
  160.7000  214.3270  149.4500 C   0  0  0  0  0  3  0  0  0  0  0  0
  160.1550  212.2650  155.9980 N   0  0  0  0  0  0  0  0  0  0  0  0
  157.4030  212.6410  151.6120 C   0  0  0  0  0  2  0  0  0  0  0  0
  160.8210  210.4880  150.5260 N   0  0  0  0  0  1  0  0  0  0  0  0
  160.5380  210.2310  151.9270 C   0  0  1  0  0  0  0  0  0  0  0  0
  160.7880  208.4940  153.7000 C   0  0  1  0  0  3  0  0  0  0  0  0
  161.1470  211.3780  152.7850 C   0  0  2  0  0  3  0  0  0  0  0  0
  155.3670  212.8240  153.9960 O   0  0  0  0  0  0  0  0  0  0  0  0
  159.2540  212.3790  153.9010 C   0  0  1  0  0  3  0  0  0  0  0  0
  161.8050  209.4690  154.8370 S   0  0  0  0  0  0  0  0  0  0  0  0
  161.1430  208.8800  152.2790 C   0  0  0  0  0  2  0  0  0  0  0  0
  156.4760  213.3830  153.7890 C   0  0  0  0  0  0  0  0  0  0  0  0
  159.8900  213.2090  151.4570 C   0  0  0  0  0  0  0  0  0  0  0  0
  159.6020  213.5540  155.8700 C   0  0  0  0  0  0  0  0  0  0  0  0
  161.0560  207.1400  153.8900 O   0  0  0  0  0  1  0  0  0  0  0  0
  157.3650  213.7150  154.9480 C   0  0  0  0  0  2  0  0  0  0  0  0
  160.9280  213.7980  150.7200 C   0  0  0  0  0  3  0  0  0  0  0  0
  158.3740  213.7000  149.6110 C   0  0  0  0  0  3  0  0  0  0  0  0
  159.4230  214.2760  148.8940 C   0  0  0  0  0  3  0  0  0  0  0  0
  156.8750  213.6930  152.4600 N   0  0  0  0  0  2  0  0  0  0  0  0
  159.8900  211.4610  154.8780 N   0  0  1  0  0  0  0  0  0  0  0  0
  158.8620  213.6920  154.6110 C   0  0  2  0  0  3  0  0  0  0  0  0
  161.1810  211.0990  154.2860 C   0  0  2  0  0  3  0  0  0  0  0  0
  160.6370  211.7240  157.2600 C   0  0  0  0  0  1  0  0  0  0  0  0
  160.2850  212.6280  152.8010 C   0  0  2  0  0  3  0  0  0  0  0  0
  1 16  1  0  0  0  0
  1  6  1  0  0  0  0
  4 20  1  0  0  0  0
  5 27  1  0  0  0  0
  6 23  1  0  0  0  0
  8  7  1  6  0  0  0
  8  2  1  0  0  0  0
  8 14  1  0  0  0  0
  8 10  1  0  0  0  0
  9 18  1  6  0  0  0
  9 13  1  0  0  0  0
 10 28  1  0  0  0  0
 10 26  1  0  0  0  0
 12 25  1  0  0  0  0
 12 24  1  0  0  0  0
 14  9  1  0  0  0  0
 15 11  2  0  0  0  0
 15 19  1  0  0  0  0
 16 28  1  0  0  0  0
 17  5  1  0  0  0  0
 17  3  2  0  0  0  0
 20 16  2  0  0  0  0
 21  1  2  0  0  0  0
 22  4  2  0  0  0  0
 22 21  1  0  0  0  0
 23 15  1  0  0  0  0
 24  5  1  0  0  0  0
 25 19  1  0  0  0  0
 25 17  1  0  0  0  0
 26 13  1  0  0  0  0
 26 24  1  0  0  0  0
 28 12  1  0  0  0  0
M  END
>  <MODEL>
3

>  <REMARK>
 VINA RESULT:      -1.3      2.448      6.317
  Name = 
  0 active torsions:
  status: ('A' for Active; 'I' for Inactive)
                            x       y       z     vdW  Elec       q    Type
                         _______ _______ _______ _____ _____    ______ ____

>  <TORSDO>
F 0

$$$$
