=
 OpenBabel11122412493D

 32 38  0  0  1  0  0  0  0  0999 V2000
  161.7420  210.5300  153.1540 C   0  0  2  0  0  3  0  0  0  0  0  0
  161.1390  206.5190  150.1230 C   0  0  1  0  0  3  0  0  0  0  0  0
  161.1990  201.8260  152.0280 C   0  0  0  0  0  2  0  0  0  0  0  0
  160.1780  201.4850  150.9490 C   0  0  0  0  0  2  0  0  0  0  0  0
  161.4040  206.7150  147.5880 C   0  0  0  0  0  0  0  0  0  0  0  0
  160.5570  206.2270  146.4300 C   0  0  1  0  0  3  0  0  0  0  0  0
  161.5150  208.3980  151.7400 C   0  0  1  0  0  3  0  0  0  0  0  0
  160.9320  206.1980  152.5110 O   0  0  0  0  0  0  0  0  0  0  0  0
  161.4620  204.6130  144.8640 C   0  0  1  0  0  3  0  0  0  0  0  0
  161.5510  207.7830  154.2170 C   0  0  0  0  0  2  0  0  0  0  0  0
  161.1710  203.3230  152.3550 C   0  0  0  0  0  2  0  0  0  0  0  0
  161.4230  205.6000  151.3330 C   0  0  1  0  0  3  0  0  0  0  0  0
  160.7970  204.2140  151.1580 C   0  0  1  0  0  3  0  0  0  0  0  0
  160.8940  204.4970  148.6550 C   0  0  2  0  0  3  0  0  0  0  0  0
  161.1070  205.9070  144.1690 C   0  0  0  0  0  2  0  0  0  0  0  0
  161.5680  210.8830  151.6810 C   0  0  0  0  0  2  0  0  0  0  0  0
  161.7660  207.2970  152.7820 C   0  0  2  0  0  3  0  0  0  0  0  0
  160.9020  206.9270  145.1940 N   0  0  0  0  0  2  0  0  0  0  0  0
  162.3410  209.6390  152.0490 C   0  0  1  0  0  3  0  0  0  0  0  0
  160.2820  208.6180  154.3520 C   0  0  0  0  0  2  0  0  0  0  0  0
  160.5020  202.2080  149.6370 C   0  0  0  0  0  2  0  0  0  0  0  0
  161.2120  203.5640  149.8260 C   0  0  2  0  0  3  0  0  0  0  0  0
  161.2900  203.8880  147.3150 C   0  0  0  0  0  2  0  0  0  0  0  0
  161.8660  207.8470  150.3630 C   0  0  0  0  0  2  0  0  0  0  0  0
  161.9440  207.8090  147.5210 O   0  0  0  0  0  0  0  0  0  0  0  0
  163.2390  204.5800  145.0940 Cl  0  0  0  0  0  0  0  0  0  0  0  0
  161.6070  205.8480  148.8200 C   0  0  2  0  0  3  0  0  0  0  0  0
  160.7050  204.7240  146.1680 C   0  0  1  0  0  3  0  0  0  0  0  0
  160.4170  210.0580  153.8250 C   0  0  2  0  0  3  0  0  0  0  0  0
  159.1420  210.5930  153.2500 C   0  0  0  0  0  0  0  0  0  0  0  0
  159.0150  210.7360  152.0040 O   0  0  0  0  0  0  0  0  0  0  0  0
  158.0750  210.9610  154.1160 N   0  0  0  0  0  1  0  0  0  0  0  0
  1 16  1  6  0  0  0
  1 29  1  0  0  0  0
  2 24  1  1  0  0  0
  2 12  1  0  0  0  0
  3 11  1  0  0  0  0
  4  3  1  0  0  0  0
  6 18  1  6  0  0  0
  6  5  1  0  0  0  0
  7 24  1  6  0  0  0
  7 19  1  0  0  0  0
  7 17  1  0  0  0  0
  8 17  1  0  0  0  0
  9 26  1  1  0  0  0
  9 28  1  0  0  0  0
 10 20  1  0  0  0  0
 12  8  1  1  0  0  0
 13 12  1  0  0  0  0
 13 11  1  1  0  0  0
 14 23  1  6  0  0  0
 14 27  1  0  0  0  0
 14 22  1  0  0  0  0
 15  9  1  0  0  0  0
 15 18  1  0  0  0  0
 17 10  1  1  0  0  0
 19 16  1  6  0  0  0
 19  1  1  0  0  0  0
 21  4  1  0  0  0  0
 22 21  1  6  0  0  0
 22 13  1  0  0  0  0
 25  5  2  0  0  0  0
 27  5  1  6  0  0  0
 27  2  1  0  0  0  0
 28  6  1  0  0  0  0
 28 23  1  1  0  0  0
 29 30  1  6  0  0  0
 29 20  1  0  0  0  0
 30 32  1  0  0  0  0
 31 30  2  0  0  0  0
M  END
>  <MODEL>
1

>  <REMARK>
 VINA RESULT:      -7.1      0.000      0.000
  Name = 
  1 active torsions:
  status: ('A' for Active; 'I' for Inactive)
    1  A    between atoms: C_29  and  C_30
                            x       y       z     vdW  Elec       q    Type
                         _______ _______ _______ _____ _____    ______ ____

>  <TORSDO>
F 1

$$$$
=
 OpenBabel11122412493D

 32 38  0  0  1  0  0  0  0  0999 V2000
  162.5360  205.6900  152.0130 C   0  0  2  0  0  3  0  0  0  0  0  0
  160.2030  210.1790  152.2450 C   0  0  1  0  0  3  0  0  0  0  0  0
  161.4240  213.8810  149.0110 C   0  0  0  0  0  2  0  0  0  0  0  0
  159.9570  214.2850  149.0790 C   0  0  0  0  0  2  0  0  0  0  0  0
  158.8560  210.8740  154.3040 C   0  0  0  0  0  0  0  0  0  0  0  0
  157.4770  211.4810  154.4670 C   0  0  1  0  0  3  0  0  0  0  0  0
  161.4900  208.0370  152.0460 C   0  0  1  0  0  3  0  0  0  0  0  0
  161.5060  209.6600  150.2750 O   0  0  0  0  0  0  0  0  0  0  0  0
  157.2320  213.6800  155.4560 C   0  0  1  0  0  3  0  0  0  0  0  0
  163.0400  207.8180  150.0310 C   0  0  0  0  0  2  0  0  0  0  0  0
  161.6010  212.4000  149.3620 C   0  0  0  0  0  2  0  0  0  0  0  0
  161.1700  210.7040  151.1600 C   0  0  1  0  0  3  0  0  0  0  0  0
  160.5710  211.8740  150.3760 C   0  0  1  0  0  3  0  0  0  0  0  0
  159.1100  212.4370  152.3520 C   0  0  2  0  0  3  0  0  0  0  0  0
  156.5230  212.6300  156.2800 C   0  0  0  0  0  2  0  0  0  0  0  0
  161.4930  205.7940  153.1210 C   0  0  0  0  0  2  0  0  0  0  0  0
  162.3290  208.7740  150.9910 C   0  0  2  0  0  3  0  0  0  0  0  0
  156.9900  211.3190  155.8360 N   0  0  0  0  0  2  0  0  0  0  0  0
  162.3310  207.0060  152.7890 C   0  0  1  0  0  3  0  0  0  0  0  0
  162.1200  206.6980  149.5560 C   0  0  0  0  0  2  0  0  0  0  0  0
  159.4060  214.1210  150.5000 C   0  0  0  0  0  2  0  0  0  0  0  0
  160.0810  212.9960  151.3090 C   0  0  2  0  0  3  0  0  0  0  0  0
  158.6010  213.5190  153.2960 C   0  0  0  0  0  2  0  0  0  0  0  0
  160.9230  209.0660  153.0160 C   0  0  0  0  0  2  0  0  0  0  0  0
  159.2400  210.0270  155.0970 O   0  0  0  0  0  0  0  0  0  0  0  0
  158.7770  214.0760  156.2750 Cl  0  0  0  0  0  0  0  0  0  0  0  0
  159.7730  211.3240  153.1790 C   0  0  2  0  0  3  0  0  0  0  0  0
  157.4340  212.9760  154.1330 C   0  0  1  0  0  3  0  0  0  0  0  0
  161.9020  205.5810  150.5940 C   0  0  2  0  0  3  0  0  0  0  0  0
  160.5410  204.9600  150.5080 C   0  0  0  0  0  0  0  0  0  0  0  0
  159.5560  205.6370  150.1090 O   0  0  0  0  0  0  0  0  0  0  0  0
  160.3560  203.6050  150.8970 N   0  0  0  0  0  1  0  0  0  0  0  0
  1 19  1  0  0  0  0
  1 16  1  1  0  0  0
  2 24  1  1  0  0  0
  2 27  1  0  0  0  0
  3  4  1  0  0  0  0
  3 11  1  0  0  0  0
  4 21  1  0  0  0  0
  5 25  2  0  0  0  0
  6  5  1  1  0  0  0
  6 18  1  0  0  0  0
  7 19  1  0  0  0  0
  7 24  1  1  0  0  0
  8 17  1  0  0  0  0
  9 26  1  1  0  0  0
  9 15  1  0  0  0  0
 12  8  1  6  0  0  0
 12  2  1  0  0  0  0
 13 11  1  6  0  0  0
 13 12  1  0  0  0  0
 13 22  1  0  0  0  0
 14 27  1  0  0  0  0
 14 23  1  1  0  0  0
 17 10  1  6  0  0  0
 17  7  1  0  0  0  0
 18 15  1  0  0  0  0
 19 16  1  1  0  0  0
 20 10  1  0  0  0  0
 20 29  1  0  0  0  0
 22 21  1  6  0  0  0
 22 14  1  0  0  0  0
 27  5  1  1  0  0  0
 28 23  1  1  0  0  0
 28  6  1  0  0  0  0
 28  9  1  0  0  0  0
 29 30  1  1  0  0  0
 29  1  1  0  0  0  0
 30 32  1  0  0  0  0
 31 30  2  0  0  0  0
M  END
>  <MODEL>
2

>  <REMARK>
 VINA RESULT:      -5.3      3.885      8.890
  Name = 
  1 active torsions:
  status: ('A' for Active; 'I' for Inactive)
    1  A    between atoms: C_29  and  C_30
                            x       y       z     vdW  Elec       q    Type
                         _______ _______ _______ _____ _____    ______ ____

>  <TORSDO>
F 1

$$$$
=
 OpenBabel11122412493D

 32 38  0  0  1  0  0  0  0  0999 V2000
  161.1980  213.7440  147.3460 C   0  0  2  0  0  3  0  0  0  0  0  0
  160.8450  210.1280  150.8740 C   0  0  1  0  0  3  0  0  0  0  0  0
  160.4040  211.3490  155.7700 C   0  0  0  0  0  2  0  0  0  0  0  0
  159.5330  210.1050  155.8970 C   0  0  0  0  0  2  0  0  0  0  0  0
  161.4800  207.7050  150.3650 C   0  0  0  0  0  0  0  0  0  0  0  0
  160.7850  206.3870  150.6380 C   0  0  1  0  0  3  0  0  0  0  0  0
  161.0740  212.0280  149.2540 C   0  0  1  0  0  3  0  0  0  0  0  0
  160.2810  212.3980  151.4920 O   0  0  0  0  0  0  0  0  0  0  0  0
  161.8280  204.7470  152.0880 C   0  0  1  0  0  3  0  0  0  0  0  0
  160.7240  214.3760  150.1900 C   0  0  0  0  0  2  0  0  0  0  0  0
  160.4010  211.8750  154.3310 C   0  0  0  0  0  2  0  0  0  0  0  0
  160.9060  211.2250  151.9610 C   0  0  1  0  0  3  0  0  0  0  0  0
  160.2460  210.7750  153.2670 C   0  0  1  0  0  3  0  0  0  0  0  0
  160.7150  208.3730  152.6640 C   0  0  2  0  0  3  0  0  0  0  0  0
  161.6390  204.1990  150.6940 C   0  0  0  0  0  2  0  0  0  0  0  0
  161.2540  212.3240  146.7910 C   0  0  0  0  0  2  0  0  0  0  0  0
  161.1200  212.9300  150.4960 C   0  0  2  0  0  3  0  0  0  0  0  0
  161.3380  205.3190  149.8060 N   0  0  0  0  0  2  0  0  0  0  0  0
  161.9060  212.6170  148.1220 C   0  0  1  0  0  3  0  0  0  0  0  0
  159.4900  214.4530  149.2960 C   0  0  0  0  0  2  0  0  0  0  0  0
  160.0760  208.9630  155.0300 C   0  0  0  0  0  2  0  0  0  0  0  0
  160.8170  209.4340  153.7620 C   0  0  2  0  0  3  0  0  0  0  0  0
  161.2700  207.0280  153.1160 C   0  0  0  0  0  2  0  0  0  0  0  0
  161.5920  210.6480  149.6410 C   0  0  0  0  0  2  0  0  0  0  0  0
  162.0760  207.8660  149.3100 O   0  0  0  0  0  0  0  0  0  0  0  0
  163.5500  205.2110  152.2720 Cl  0  0  0  0  0  0  0  0  0  0  0  0
  161.4620  208.8200  151.3970 C   0  0  2  0  0  3  0  0  0  0  0  0
  160.8970  205.9390  152.1000 C   0  0  1  0  0  3  0  0  0  0  0  0
  159.7690  214.1560  147.8120 C   0  0  2  0  0  3  0  0  0  0  0  0
  158.6170  213.4930  147.1210 C   0  0  0  0  0  0  0  0  0  0  0  0
  157.9430  212.6080  147.7130 O   0  0  0  0  0  0  0  0  0  0  0  0
  158.2930  213.8520  145.7840 N   0  0  0  0  0  1  0  0  0  0  0  0
  1 16  1  6  0  0  0
  1 29  1  0  0  0  0
  1 19  1  0  0  0  0
  2 24  1  6  0  0  0
  2 27  1  0  0  0  0
  2 12  1  0  0  0  0
  3  4  1  0  0  0  0
  5  6  1  0  0  0  0
  6 18  1  6  0  0  0
  6 28  1  0  0  0  0
  7 24  1  1  0  0  0
  7 17  1  0  0  0  0
  9 28  1  0  0  0  0
  9 26  1  6  0  0  0
 11  3  1  0  0  0  0
 12  8  1  6  0  0  0
 12 13  1  0  0  0  0
 13 22  1  0  0  0  0
 13 11  1  1  0  0  0
 14 23  1  1  0  0  0
 14 22  1  0  0  0  0
 15  9  1  0  0  0  0
 17 10  1  6  0  0  0
 17  8  1  0  0  0  0
 18 15  1  0  0  0  0
 19 16  1  6  0  0  0
 19  7  1  0  0  0  0
 20 10  1  0  0  0  0
 21  4  1  0  0  0  0
 22 21  1  1  0  0  0
 25  5  2  0  0  0  0
 27  5  1  6  0  0  0
 27 14  1  0  0  0  0
 28 23  1  1  0  0  0
 29 30  1  1  0  0  0
 29 20  1  0  0  0  0
 30 31  2  0  0  0  0
 32 30  1  0  0  0  0
M  END
>  <MODEL>
3

>  <REMARK>
 VINA RESULT:      -5.3      3.429      6.502
  Name = 
  1 active torsions:
  status: ('A' for Active; 'I' for Inactive)
    1  A    between atoms: C_29  and  C_30
                            x       y       z     vdW  Elec       q    Type
                         _______ _______ _______ _____ _____    ______ ____

>  <TORSDO>
F 1

$$$$
=
 OpenBabel11122412493D

 32 38  0  0  1  0  0  0  0  0999 V2000
  161.5780  213.0920  149.2540 C   0  0  2  0  0  3  0  0  0  0  0  0
  161.2120  208.0410  149.2530 C   0  0  1  0  0  3  0  0  0  0  0  0
  161.5770  205.4370  153.5830 C   0  0  0  0  0  2  0  0  0  0  0  0
  160.5740  204.4700  152.9660 C   0  0  0  0  0  2  0  0  0  0  0  0
  161.4510  206.6890  147.0970 C   0  0  0  0  0  0  0  0  0  0  0  0
  160.6290  205.5650  146.4980 C   0  0  1  0  0  3  0  0  0  0  0  0
  161.4780  210.5290  149.4070 C   0  0  1  0  0  3  0  0  0  0  0  0
  161.0380  209.2070  151.3650 O   0  0  0  0  0  0  0  0  0  0  0  0
  161.6260  203.3800  146.1710 C   0  0  1  0  0  3  0  0  0  0  0  0
  161.5660  211.5250  151.7550 C   0  0  0  0  0  2  0  0  0  0  0  0
  161.4560  206.8280  152.9500 C   0  0  0  0  0  2  0  0  0  0  0  0
  161.5590  208.0460  150.7590 C   0  0  1  0  0  3  0  0  0  0  0  0
  161.0210  206.8050  151.4750 C   0  0  1  0  0  3  0  0  0  0  0  0
  161.0860  205.5340  149.2980 C   0  0  2  0  0  3  0  0  0  0  0  0
  161.1860  203.9800  144.8570 C   0  0  0  0  0  2  0  0  0  0  0  0
  161.3740  212.4820  147.8710 C   0  0  0  0  0  2  0  0  0  0  0  0
  161.8030  210.2870  150.8890 C   0  0  2  0  0  3  0  0  0  0  0  0
  160.9240  205.4000  145.0750 N   0  0  0  0  0  2  0  0  0  0  0  0
  162.2270  211.7450  148.8770 C   0  0  1  0  0  3  0  0  0  0  0  0
  160.2480  212.2140  151.4170 C   0  0  0  0  0  2  0  0  0  0  0  0
  160.8440  204.2760  151.4700 C   0  0  0  0  0  2  0  0  0  0  0  0
  161.4690  205.5050  150.7800 C   0  0  2  0  0  3  0  0  0  0  0  0
  161.5120  204.2630  148.5740 C   0  0  0  0  0  2  0  0  0  0  0  0
  161.8560  209.2810  148.6200 C   0  0  0  0  0  2  0  0  0  0  0  0
  161.9210  207.5490  146.3660 O   0  0  0  0  0  0  0  0  0  0  0  0
  163.4030  203.5750  146.3020 Cl  0  0  0  0  0  0  0  0  0  0  0  0
  161.7140  206.7460  148.5920 C   0  0  2  0  0  3  0  0  0  0  0  0
  160.8700  204.2150  147.1810 C   0  0  1  0  0  3  0  0  0  0  0  0
  160.2890  213.0550  150.1280 C   0  0  2  0  0  3  0  0  0  0  0  0
  158.9790  213.0770  149.4010 C   0  0  0  0  0  0  0  0  0  0  0  0
  158.9480  213.2250  148.1500 O   0  0  0  0  0  0  0  0  0  0  0  0
  157.7650  212.9510  150.1290 N   0  0  0  0  0  1  0  0  0  0  0  0
  1 16  1  6  0  0  0
  1 29  1  0  0  0  0
  2 24  1  6  0  0  0
  2 12  1  0  0  0  0
  4  3  1  0  0  0  0
  6 18  1  6  0  0  0
  6  5  1  0  0  0  0
  6 28  1  0  0  0  0
  7 24  1  6  0  0  0
  7 17  1  0  0  0  0
  9 26  1  1  0  0  0
  9 28  1  0  0  0  0
 11  3  1  0  0  0  0
 12  8  1  1  0  0  0
 12 13  1  0  0  0  0
 13 11  1  1  0  0  0
 14 23  1  6  0  0  0
 14 22  1  0  0  0  0
 15 18  1  0  0  0  0
 15  9  1  0  0  0  0
 17  8  1  0  0  0  0
 17 10  1  1  0  0  0
 19 16  1  6  0  0  0
 19  1  1  0  0  0  0
 19  7  1  0  0  0  0
 20 10  1  0  0  0  0
 21  4  1  0  0  0  0
 22 21  1  1  0  0  0
 22 13  1  0  0  0  0
 25  5  2  0  0  0  0
 27  5  1  6  0  0  0
 27  2  1  0  0  0  0
 27 14  1  0  0  0  0
 28 23  1  1  0  0  0
 29 30  1  6  0  0  0
 29 20  1  0  0  0  0
 30 32  1  0  0  0  0
 31 30  2  0  0  0  0
M  END
>  <MODEL>
4

>  <REMARK>
 VINA RESULT:      -4.9      2.147      3.101
  Name = 
  1 active torsions:
  status: ('A' for Active; 'I' for Inactive)
    1  A    between atoms: C_29  and  C_30
                            x       y       z     vdW  Elec       q    Type
                         _______ _______ _______ _____ _____    ______ ____

>  <TORSDO>
F 1

$$$$
