=
 OpenBabel11122413013D

 32 37  0  0  1  0  0  0  0  0999 V2000
  160.7210  209.9270  152.2950 C   0  0  1  0  0  3  0  0  0  0  0  0
  160.3820  208.3850  156.9390 C   0  0  0  0  0  3  0  0  0  0  0  0
  160.4450  207.0650  156.4920 C   0  0  0  0  0  3  0  0  0  0  0  0
  161.4670  208.3890  150.4200 C   0  0  2  0  0  3  0  0  0  0  0  0
  161.4920  206.8900  150.0600 C   0  0  2  0  0  3  0  0  0  0  0  0
  159.9610  211.9800  151.7670 C   0  0  2  0  0  3  0  0  0  0  0  0
  160.5690  211.5630  154.1600 O   0  0  0  0  0  0  0  0  0  0  0  0
  161.3480  204.6840  150.8520 N   0  0  0  0  0  0  0  0  0  0  0  0
  160.5680  209.4370  156.0390 C   0  0  0  0  0  3  0  0  0  0  0  0
  161.0800  210.3060  153.7290 C   0  0  1  0  0  3  0  0  0  0  0  0
  160.8070  209.1750  154.6840 C   0  0  0  0  0  0  0  0  0  0  0  0
  161.0990  207.5130  152.7620 C   0  0  2  0  0  3  0  0  0  0  0  0
  160.0220  205.0760  150.5970 N   0  0  0  0  0  2  0  0  0  0  0  0
  159.5980  212.1070  153.2740 C   0  0  2  0  0  3  0  0  0  0  0  0
  160.0900  206.3510  149.8850 C   0  0  0  0  0  2  0  0  0  0  0  0
  160.7030  206.7910  155.1470 C   0  0  0  0  0  3  0  0  0  0  0  0
  160.9180  207.8360  154.2350 C   0  0  0  0  0  0  0  0  0  0  0  0
  162.1180  206.4100  152.5290 C   0  0  0  0  0  2  0  0  0  0  0  0
  160.9850  211.0420  151.4950 O   0  0  0  0  0  0  0  0  0  0  0  0
  162.5000  209.0450  149.7500 O   0  0  0  0  0  1  0  0  0  0  0  0
  161.3470  203.7950  152.0110 C   0  0  0  0  0  1  0  0  0  0  0  0
  161.5480  208.7080  151.9170 C   0  0  2  0  0  3  0  0  0  0  0  0
  162.1180  205.9170  151.0560 C   0  0  2  0  0  3  0  0  0  0  0  0
  157.9850  211.4370  155.0450 C   0  0  0  0  0  2  0  0  0  0  0  0
  158.2230  211.5130  153.5500 C   0  0  1  0  0  3  0  0  0  0  0  0
  157.3600  212.5530  154.2350 C   0  0  1  0  0  3  0  0  0  0  0  0
  155.9020  212.2330  153.9700 C   0  0  0  0  0  2  0  0  0  0  0  0
  155.0990  213.4870  153.9860 C   0  0  0  0  0  0  0  0  0  0  0  0
  154.3840  213.7890  152.9950 O   0  0  0  0  0  0  0  0  0  0  0  0
  155.1090  214.3060  155.1070 O   0  0  0  0  0  1  0  0  0  0  0  0
  160.3630  213.3170  149.8350 O   0  0  0  0  0  1  0  0  0  0  0  0
  160.3590  213.3410  151.2300 C   0  0  0  0  0  2  0  0  0  0  0  0
  1 19  1  6  0  0  0
  1 10  1  0  0  0  0
  3  2  1  0  0  0  0
  4 20  1  6  0  0  0
  4 22  1  0  0  0  0
  5 15  1  1  0  0  0
  5  4  1  0  0  0  0
  5 23  1  0  0  0  0
  6 32  1  1  0  0  0
  6 14  1  0  0  0  0
  8 23  1  0  0  0  0
  8 21  1  0  0  0  0
  9  2  2  0  0  0  0
 10  7  1  1  0  0  0
 10 11  1  0  0  0  0
 11  9  1  0  0  0  0
 12 18  1  1  0  0  0
 12 17  1  0  0  0  0
 13  8  1  0  0  0  0
 14 25  1  0  0  0  0
 14  7  1  1  0  0  0
 15 13  1  0  0  0  0
 16  3  2  0  0  0  0
 17 11  2  0  0  0  0
 17 16  1  0  0  0  0
 19  6  1  0  0  0  0
 22  1  1  0  0  0  0
 22 12  1  0  0  0  0
 23 18  1  0  0  0  0
 25 26  1  0  0  0  0
 25 24  1  0  0  0  0
 26 24  1  0  0  0  0
 27 28  1  0  0  0  0
 27 26  1  0  0  0  0
 28 30  1  0  0  0  0
 29 28  2  0  0  0  0
 31 32  1  0  0  0  0
M  END
>  <MODEL>
1

>  <REMARK>
 VINA RESULT:      -6.7      0.000      0.000
  Name = 
  4 active torsions:
  status: ('A' for Active; 'I' for Inactive)
    1  A    between atoms: C_7  and  C_19
    2  A    between atoms: C_10  and  C_17
    3  A    between atoms: C_20  and  C_29
    4  A    between atoms: C_29  and  C_30
                            x       y       z     vdW  Elec       q    Type
                         _______ _______ _______ _____ _____    ______ ____

>  <TORSDO>
F 4

$$$$
=
 OpenBabel11122413013D

 32 37  0  0  1  0  0  0  0  0999 V2000
  160.9310  209.4710  152.4680 C   0  0  1  0  0  3  0  0  0  0  0  0
  162.0110  212.3860  148.6740 C   0  0  0  0  0  3  0  0  0  0  0  0
  161.0120  213.2700  149.0840 C   0  0  0  0  0  3  0  0  0  0  0  0
  159.5260  210.2740  154.4220 C   0  0  2  0  0  3  0  0  0  0  0  0
  158.4340  211.3140  154.7440 C   0  0  2  0  0  3  0  0  0  0  0  0
  161.4840  207.2900  152.3630 C   0  0  2  0  0  3  0  0  0  0  0  0
  162.7570  208.8680  150.8930 O   0  0  0  0  0  0  0  0  0  0  0  0
  157.3580  213.2920  154.0780 N   0  0  0  0  0  0  0  0  0  0  0  0
  162.3450  211.2880  149.4710 C   0  0  0  0  0  3  0  0  0  0  0  0
  162.0810  209.9220  151.5720 C   0  0  1  0  0  3  0  0  0  0  0  0
  161.6730  211.0610  150.6790 C   0  0  0  0  0  0  0  0  0  0  0  0
  159.8890  211.7280  152.3860 C   0  0  2  0  0  3  0  0  0  0  0  0
  156.6620  212.2530  153.4340 N   0  0  0  0  0  2  0  0  0  0  0  0
  162.0690  207.6250  150.9610 C   0  0  2  0  0  3  0  0  0  0  0  0
  157.1520  211.0010  154.0080 C   0  0  0  0  0  2  0  0  0  0  0  0
  160.3500  213.0640  150.2970 C   0  0  0  0  0  3  0  0  0  0  0  0
  160.6900  211.9820  151.1220 C   0  0  0  0  0  0  0  0  0  0  0  0
  159.7160  212.9810  153.2290 C   0  0  0  0  0  2  0  0  0  0  0  0
  161.4000  208.4010  153.2350 O   0  0  0  0  0  0  0  0  0  0  0  0
  160.2440  209.9810  155.5810 O   0  0  0  0  0  1  0  0  0  0  0  0
  157.3650  214.4530  153.1930 C   0  0  0  0  0  1  0  0  0  0  0  0
  160.4990  210.6650  153.3040 C   0  0  2  0  0  3  0  0  0  0  0  0
  158.6970  212.7740  154.3810 C   0  0  2  0  0  3  0  0  0  0  0  0
  161.4890  208.1690  148.6040 C   0  0  0  0  0  2  0  0  0  0  0  0
  160.9870  207.5480  149.8920 C   0  0  1  0  0  3  0  0  0  0  0  0
  161.4670  206.6640  148.7600 C   0  0  1  0  0  3  0  0  0  0  0  0
  160.2630  206.0960  148.0350 C   0  0  0  0  0  2  0  0  0  0  0  0
  160.6540  205.6680  146.6640 C   0  0  0  0  0  0  0  0  0  0  0  0
  161.4740  204.7250  146.5090 O   0  0  0  0  0  1  0  0  0  0  0  0
  160.0880  206.2830  145.5550 O   0  0  0  0  0  0  0  0  0  0  0  0
  161.5100  205.0950  153.2910 O   0  0  0  0  0  1  0  0  0  0  0  0
  162.3150  206.1980  153.0060 C   0  0  0  0  0  2  0  0  0  0  0  0
  1 19  1  1  0  0  0
  1 22  1  0  0  0  0
  2  3  2  0  0  0  0
  2  9  1  0  0  0  0
  3 16  1  0  0  0  0
  4  5  1  0  0  0  0
  4 20  1  1  0  0  0
  5 15  1  6  0  0  0
  6 32  1  1  0  0  0
  6 19  1  0  0  0  0
  7 10  1  0  0  0  0
  8 23  1  0  0  0  0
  9 11  2  0  0  0  0
 10 11  1  6  0  0  0
 10  1  1  0  0  0  0
 11 17  1  0  0  0  0
 12 18  1  1  0  0  0
 12 22  1  0  0  0  0
 13 15  1  0  0  0  0
 13  8  1  0  0  0  0
 14  7  1  1  0  0  0
 14  6  1  0  0  0  0
 16 17  2  0  0  0  0
 17 12  1  0  0  0  0
 18 23  1  0  0  0  0
 21  8  1  0  0  0  0
 22  4  1  0  0  0  0
 23  5  1  0  0  0  0
 24 26  1  0  0  0  0
 24 25  1  0  0  0  0
 25 14  1  0  0  0  0
 26 25  1  0  0  0  0
 27 26  1  0  0  0  0
 28 27  1  0  0  0  0
 29 28  1  0  0  0  0
 30 28  2  0  0  0  0
 32 31  1  0  0  0  0
M  END
>  <MODEL>
2

>  <REMARK>
 VINA RESULT:      -5.7      3.432      7.824
  Name = 
  4 active torsions:
  status: ('A' for Active; 'I' for Inactive)
    1  A    between atoms: C_7  and  C_19
    2  A    between atoms: C_10  and  C_17
    3  A    between atoms: C_20  and  C_29
    4  A    between atoms: C_29  and  C_30
                            x       y       z     vdW  Elec       q    Type
                         _______ _______ _______ _____ _____    ______ ____

>  <TORSDO>
F 4

$$$$
=
 OpenBabel11122413013D

 32 37  0  0  1  0  0  0  0  0999 V2000
  159.8390  210.4090  154.0560 C   0  0  1  0  0  3  0  0  0  0  0  0
  160.8530  212.7240  149.8510 C   0  0  0  0  0  3  0  0  0  0  0  0
  159.6270  213.3870  149.9350 C   0  0  0  0  0  3  0  0  0  0  0  0
  157.9850  211.1870  155.6050 C   0  0  2  0  0  3  0  0  0  0  0  0
  156.6510  211.9570  155.5570 C   0  0  2  0  0  3  0  0  0  0  0  0
  160.8770  208.4620  154.5090 C   0  0  2  0  0  3  0  0  0  0  0  0
  161.9890  210.0020  152.8760 O   0  0  0  0  0  0  0  0  0  0  0  0
  155.2840  213.4310  154.3430 N   0  0  0  0  0  0  0  0  0  0  0  0
  161.2860  211.9200  150.9080 C   0  0  0  0  0  3  0  0  0  0  0  0
  160.9910  210.9590  153.2190 C   0  0  1  0  0  3  0  0  0  0  0  0
  160.4910  211.7650  152.0510 C   0  0  0  0  0  0  0  0  0  0  0  0
  158.3460  212.2690  153.3490 C   0  0  2  0  0  3  0  0  0  0  0  0
  154.9550  212.1460  153.8750 N   0  0  0  0  0  2  0  0  0  0  0  0
  161.5960  208.6610  153.1440 C   0  0  2  0  0  3  0  0  0  0  0  0
  155.6120  211.1930  154.7680 C   0  0  0  0  0  2  0  0  0  0  0  0
  158.8360  213.2550  151.0790 C   0  0  0  0  0  3  0  0  0  0  0  0
  159.2690  212.4720  152.1600 C   0  0  0  0  0  0  0  0  0  0  0  0
  157.7600  213.5740  153.8620 C   0  0  0  0  0  2  0  0  0  0  0  0
  160.4020  209.6600  155.0920 O   0  0  0  0  0  0  0  0  0  0  0  0
  158.5490  211.3120  156.8740 O   0  0  0  0  0  1  0  0  0  0  0  0
  155.1770  214.3650  153.2260 C   0  0  0  0  0  1  0  0  0  0  0  0
  159.0180  211.5920  154.5460 C   0  0  2  0  0  3  0  0  0  0  0  0
  156.6360  213.3380  154.9070 C   0  0  2  0  0  3  0  0  0  0  0  0
  161.4620  208.3280  150.6830 C   0  0  0  0  0  2  0  0  0  0  0  0
  160.7510  208.1090  152.0030 C   0  0  1  0  0  3  0  0  0  0  0  0
  161.4930  206.9660  151.3430 C   0  0  1  0  0  3  0  0  0  0  0  0
  160.4870  206.0520  150.6690 C   0  0  0  0  0  2  0  0  0  0  0  0
  161.1050  204.7220  150.4130 C   0  0  0  0  0  0  0  0  0  0  0  0
  161.1120  204.2440  149.2490 O   0  0  0  0  0  0  0  0  0  0  0  0
  161.7060  204.0230  151.4530 O   0  0  0  0  0  1  0  0  0  0  0  0
  161.9960  208.5450  156.6110 O   0  0  0  0  0  1  0  0  0  0  0  0
  161.8130  207.7600  155.4720 C   0  0  0  0  0  2  0  0  0  0  0  0
  1 22  1  0  0  0  0
  1 19  1  1  0  0  0
  2  3  2  0  0  0  0
  2  9  1  0  0  0  0
  3 16  1  0  0  0  0
  4 20  1  1  0  0  0
  5 15  1  6  0  0  0
  5  4  1  0  0  0  0
  6 19  1  0  0  0  0
  6 32  1  1  0  0  0
  7 10  1  0  0  0  0
  8 23  1  0  0  0  0
  9 11  2  0  0  0  0
 10 11  1  6  0  0  0
 10  1  1  0  0  0  0
 11 17  1  0  0  0  0
 12 18  1  1  0  0  0
 12 22  1  0  0  0  0
 13  8  1  0  0  0  0
 13 15  1  0  0  0  0
 14  7  1  6  0  0  0
 14  6  1  0  0  0  0
 16 17  2  0  0  0  0
 17 12  1  0  0  0  0
 18 23  1  0  0  0  0
 21  8  1  0  0  0  0
 22  4  1  0  0  0  0
 23  5  1  0  0  0  0
 24 26  1  0  0  0  0
 24 25  1  0  0  0  0
 25 14  1  0  0  0  0
 26 25  1  0  0  0  0
 27 26  1  0  0  0  0
 28 27  1  0  0  0  0
 28 30  1  0  0  0  0
 29 28  2  0  0  0  0
 32 31  1  0  0  0  0
M  END
>  <MODEL>
3

>  <REMARK>
 VINA RESULT:      -5.4      3.239      7.815
  Name = 
  4 active torsions:
  status: ('A' for Active; 'I' for Inactive)
    1  A    between atoms: C_7  and  C_19
    2  A    between atoms: C_10  and  C_17
    3  A    between atoms: C_20  and  C_29
    4  A    between atoms: C_29  and  C_30
                            x       y       z     vdW  Elec       q    Type
                         _______ _______ _______ _____ _____    ______ ____

>  <TORSDO>
F 4

$$$$
=
 OpenBabel11122413013D

 32 37  0  0  1  0  0  0  0  0999 V2000
  161.1500  209.5380  151.5490 C   0  0  1  0  0  3  0  0  0  0  0  0
  160.7460  208.3050  156.2800 C   0  0  0  0  0  3  0  0  0  0  0  0
  160.6280  206.9650  155.9070 C   0  0  0  0  0  3  0  0  0  0  0  0
  161.6420  207.8180  149.7490 C   0  0  2  0  0  3  0  0  0  0  0  0
  161.4650  206.3120  149.4750 C   0  0  2  0  0  3  0  0  0  0  0  0
  160.6430  211.6410  150.9210 C   0  0  2  0  0  3  0  0  0  0  0  0
  161.2590  211.2780  153.3220 O   0  0  0  0  0  0  0  0  0  0  0  0
  161.0630  204.1880  150.3940 N   0  0  0  0  0  0  0  0  0  0  0  0
  161.0400  209.2740  155.3180 C   0  0  0  0  0  3  0  0  0  0  0  0
  161.5940  209.9440  152.9520 C   0  0  1  0  0  3  0  0  0  0  0  0
  161.2060  208.9110  153.9750 C   0  0  0  0  0  0  0  0  0  0  0  0
  161.2300  207.1240  152.1450 C   0  0  2  0  0  3  0  0  0  0  0  0
  159.7910  204.7340  150.1440 N   0  0  0  0  0  2  0  0  0  0  0  0
  160.3410  211.8950  152.4260 C   0  0  2  0  0  3  0  0  0  0  0  0
  160.0020  205.9490  149.3600 C   0  0  0  0  0  2  0  0  0  0  0  0
  160.8110  206.5890  154.5740 C   0  0  0  0  0  3  0  0  0  0  0  0
  161.1320  207.5470  153.6010 C   0  0  0  0  0  0  0  0  0  0  0  0
  162.0930  205.8880  151.9540 C   0  0  0  0  0  2  0  0  0  0  0  0
  161.5310  210.5660  150.6820 O   0  0  0  0  0  0  0  0  0  0  0  0
  162.7300  208.2990  149.0220 O   0  0  0  0  0  1  0  0  0  0  0  0
  160.9810  203.3710  151.6010 C   0  0  0  0  0  1  0  0  0  0  0  0
  161.8040  208.2040  151.2240 C   0  0  2  0  0  3  0  0  0  0  0  0
  161.9890  205.3220  150.5120 C   0  0  2  0  0  3  0  0  0  0  0  0
  158.7280  211.4550  154.2670 C   0  0  0  0  0  2  0  0  0  0  0  0
  158.9100  211.4980  152.7630 C   0  0  1  0  0  3  0  0  0  0  0  0
  158.2310  212.6480  153.4780 C   0  0  1  0  0  3  0  0  0  0  0  0
  156.7320  212.5350  153.2780 C   0  0  0  0  0  2  0  0  0  0  0  0
  156.0250  212.8880  154.5400 C   0  0  0  0  0  0  0  0  0  0  0  0
  155.9040  214.0950  154.8760 O   0  0  0  0  0  0  0  0  0  0  0  0
  155.4670  211.8900  155.3280 O   0  0  0  0  0  1  0  0  0  0  0  0
  161.1780  212.8010  148.9090 O   0  0  0  0  0  1  0  0  0  0  0  0
  161.1960  212.9080  150.3000 C   0  0  0  0  0  2  0  0  0  0  0  0
  1 19  1  6  0  0  0
  1 10  1  0  0  0  0
  3  2  1  0  0  0  0
  4 20  1  6  0  0  0
  4 22  1  0  0  0  0
  5 15  1  1  0  0  0
  5  4  1  0  0  0  0
  5 23  1  0  0  0  0
  6 32  1  1  0  0  0
  6 14  1  0  0  0  0
  8 23  1  0  0  0  0
  8 21  1  0  0  0  0
  9  2  2  0  0  0  0
 10  7  1  1  0  0  0
 10 11  1  0  0  0  0
 11  9  1  0  0  0  0
 12 18  1  1  0  0  0
 12 17  1  0  0  0  0
 13  8  1  0  0  0  0
 14 25  1  0  0  0  0
 14  7  1  1  0  0  0
 15 13  1  0  0  0  0
 16  3  2  0  0  0  0
 17 11  2  0  0  0  0
 17 16  1  0  0  0  0
 19  6  1  0  0  0  0
 22  1  1  0  0  0  0
 22 12  1  0  0  0  0
 23 18  1  0  0  0  0
 25 26  1  0  0  0  0
 25 24  1  0  0  0  0
 26 24  1  0  0  0  0
 27 26  1  0  0  0  0
 27 28  1  0  0  0  0
 28 29  2  0  0  0  0
 28 30  1  0  0  0  0
 31 32  1  0  0  0  0
M  END
>  <MODEL>
4

>  <REMARK>
 VINA RESULT:      -5.4      0.999      1.108
  Name = 
  4 active torsions:
  status: ('A' for Active; 'I' for Inactive)
    1  A    between atoms: C_7  and  C_19
    2  A    between atoms: C_10  and  C_17
    3  A    between atoms: C_20  and  C_29
    4  A    between atoms: C_29  and  C_30
                            x       y       z     vdW  Elec       q    Type
                         _______ _______ _______ _____ _____    ______ ____

>  <TORSDO>
F 4

$$$$
