=
 OpenBabel11122414073D

 28 32  0  0  1  0  0  0  0  0999 V2000
  160.8660  209.2430  155.9430 C   0  0  0  0  0  0  0  0  0  0  0  0
  157.7670  211.6090  157.2610 O   0  0  0  0  0  0  0  0  0  0  0  0
  161.7510  210.8820  150.6500 O   0  0  0  0  0  0  0  0  0  0  0  0
  162.6590  211.0780  157.0750 C   0  0  0  0  0  3  0  0  0  0  0  0
  160.1540  212.2870  151.6810 N   0  0  0  0  0  0  0  0  0  0  0  0
  159.9460  208.2300  155.3280 C   0  0  0  0  0  2  0  0  0  0  0  0
  157.7920  214.0310  156.9040 O   0  0  0  0  0  0  0  0  0  0  0  0
  157.7780  212.6940  156.2200 S   0  0  0  0  0  0  0  0  0  0  0  0
  156.7010  212.6500  153.7610 C   0  0  1  0  0  3  0  0  0  0  0  0
  159.1970  212.5570  155.2130 N   0  0  2  0  0  0  0  0  0  0  0  0
  161.6010  207.0430  152.2690 O   0  0  0  0  0  0  0  0  0  0  0  0
  159.7200  211.0140  153.5080 C   0  0  1  0  0  3  0  0  0  0  0  0
  157.7040  213.6950  153.5670 N   0  0  0  0  0  2  0  0  0  0  0  0
  156.3110  212.5750  155.2230 C   0  0  0  0  0  2  0  0  0  0  0  0
  160.8310  207.7390  152.9800 C   0  0  0  0  0  0  0  0  0  0  0  0
  160.6530  210.6280  155.7750 C   0  0  0  0  0  0  0  0  0  0  0  0
  160.9360  211.1020  151.5860 C   0  0  0  0  0  0  0  0  0  0  0  0
  155.4760  212.9590  152.9280 C   0  0  0  0  0  1  0  0  0  0  0  0
  160.1040  208.8830  152.3480 C   0  0  0  0  0  2  0  0  0  0  0  0
  161.5680  211.5350  156.3340 C   0  0  0  0  0  3  0  0  0  0  0  0
  161.9590  208.7950  156.6960 C   0  0  0  0  0  3  0  0  0  0  0  0
  162.8510  209.7090  157.2600 C   0  0  0  0  0  3  0  0  0  0  0  0
  160.6670  207.4070  154.3640 N   0  0  0  0  0  2  0  0  0  0  0  0
  159.4570  212.1330  152.9050 C   0  0  1  0  0  3  0  0  0  0  0  0
  160.7340  210.2000  152.7640 C   0  0  2  0  0  3  0  0  0  0  0  0
  159.0540  213.1850  153.8680 C   0  0  2  0  0  3  0  0  0  0  0  0
  160.4690  213.5530  151.0420 C   0  0  0  0  0  1  0  0  0  0  0  0
  159.4780  211.1270  154.9670 C   0  0  1  0  0  3  0  0  0  0  0  0
  1 21  1  0  0  0  0
  3 17  2  0  0  0  0
  4 22  1  0  0  0  0
  5 24  1  0  0  0  0
  6  1  1  0  0  0  0
  8  7  2  0  0  0  0
  8  2  2  0  0  0  0
  9 18  1  6  0  0  0
  9 14  1  0  0  0  0
 10  8  1  1  0  0  0
 11 15  2  0  0  0  0
 12 28  1  0  0  0  0
 13  9  1  0  0  0  0
 13 26  1  0  0  0  0
 14  8  1  0  0  0  0
 15 23  1  0  0  0  0
 16  1  2  0  0  0  0
 16 20  1  0  0  0  0
 17  5  1  0  0  0  0
 17 25  1  0  0  0  0
 19 25  1  0  0  0  0
 19 15  1  0  0  0  0
 20  4  2  0  0  0  0
 21 22  2  0  0  0  0
 23  6  1  0  0  0  0
 24 12  1  0  0  0  0
 24 26  1  0  0  0  0
 25 12  1  0  0  0  0
 26 10  1  0  0  0  0
 27  5  1  0  0  0  0
 28 10  1  0  0  0  0
 28 16  1  0  0  0  0
M  END
>  <MODEL>
1

>  <REMARK>
 VINA RESULT:      -4.0      0.000      0.000
  Name = 
  0 active torsions:
  status: ('A' for Active; 'I' for Inactive)
                            x       y       z     vdW  Elec       q    Type
                         _______ _______ _______ _____ _____    ______ ____

>  <TORSDO>
F 0

$$$$
=
 OpenBabel11122414073D

 28 32  0  0  1  0  0  0  0  0999 V2000
  161.0060  209.0070  155.8410 C   0  0  0  0  0  0  0  0  0  0  0  0
  158.5790  212.3300  155.8410 O   0  0  0  0  0  0  0  0  0  0  0  0
  162.7240  208.5050  150.5220 O   0  0  0  0  0  0  0  0  0  0  0  0
  163.1380  210.6470  156.6370 C   0  0  0  0  0  3  0  0  0  0  0  0
  161.4960  210.5060  150.7960 N   0  0  0  0  0  0  0  0  0  0  0  0
  159.8960  208.0880  155.4220 C   0  0  0  0  0  2  0  0  0  0  0  0
  159.2940  214.4120  154.7710 O   0  0  0  0  0  0  0  0  0  0  0  0
  158.9690  212.9650  154.5350 S   0  0  0  0  0  0  0  0  0  0  0  0
  158.1190  212.3430  152.0660 C   0  0  1  0  0  3  0  0  0  0  0  0
  160.3720  212.1690  153.8670 N   0  0  2  0  0  0  0  0  0  0  0  0
  161.4000  205.5870  153.1890 O   0  0  0  0  0  0  0  0  0  0  0  0
  160.5860  210.0640  152.8270 C   0  0  1  0  0  3  0  0  0  0  0  0
  159.3820  212.9970  151.7300 N   0  0  0  0  0  2  0  0  0  0  0  0
  157.6100  212.8600  153.3950 C   0  0  0  0  0  2  0  0  0  0  0  0
  160.7970  206.6410  153.5160 C   0  0  0  0  0  0  0  0  0  0  0  0
  161.1950  210.2630  155.2240 C   0  0  0  0  0  0  0  0  0  0  0  0
  161.9280  209.2110  151.1980 C   0  0  0  0  0  0  0  0  0  0  0  0
  157.0960  212.6280  150.9880 C   0  0  0  0  0  1  0  0  0  0  0  0
  160.4630  207.6400  152.4540 C   0  0  0  0  0  2  0  0  0  0  0  0
  162.2760  211.0660  155.6220 C   0  0  0  0  0  3  0  0  0  0  0  0
  161.8720  208.5990  156.8640 C   0  0  0  0  0  3  0  0  0  0  0  0
  162.9320  209.4160  157.2610 C   0  0  0  0  0  3  0  0  0  0  0  0
  160.4390  206.8450  154.8880 N   0  0  0  0  0  2  0  0  0  0  0  0
  160.6880  210.9420  151.8750 C   0  0  1  0  0  3  0  0  0  0  0  0
  161.3940  208.8340  152.5450 C   0  0  2  0  0  3  0  0  0  0  0  0
  160.5130  212.3210  152.3900 C   0  0  2  0  0  3  0  0  0  0  0  0
  162.1940  211.3710  149.8610 C   0  0  0  0  0  1  0  0  0  0  0  0
  160.2690  210.7180  154.1200 C   0  0  1  0  0  3  0  0  0  0  0  0
  1 21  1  0  0  0  0
  3 17  2  0  0  0  0
  4 22  1  0  0  0  0
  5 17  1  0  0  0  0
  5 24  1  0  0  0  0
  6  1  1  0  0  0  0
  8  7  2  0  0  0  0
  8  2  2  0  0  0  0
  9 18  1  6  0  0  0
  9 14  1  0  0  0  0
 10 28  1  0  0  0  0
 10  8  1  6  0  0  0
 11 15  2  0  0  0  0
 12 28  1  0  0  0  0
 13  9  1  0  0  0  0
 13 26  1  0  0  0  0
 14  8  1  0  0  0  0
 15 23  1  0  0  0  0
 16 20  1  0  0  0  0
 16  1  2  0  0  0  0
 17 25  1  0  0  0  0
 19 25  1  0  0  0  0
 19 15  1  0  0  0  0
 20  4  2  0  0  0  0
 21 22  2  0  0  0  0
 23  6  1  0  0  0  0
 24 26  1  0  0  0  0
 24 12  1  0  0  0  0
 25 12  1  0  0  0  0
 26 10  1  0  0  0  0
 27  5  1  0  0  0  0
 28 16  1  0  0  0  0
M  END
>  <MODEL>
2

>  <REMARK>
 VINA RESULT:      -4.0      1.500      1.813
  Name = 
  0 active torsions:
  status: ('A' for Active; 'I' for Inactive)
                            x       y       z     vdW  Elec       q    Type
                         _______ _______ _______ _____ _____    ______ ____

>  <TORSDO>
F 0

$$$$
=
 OpenBabel11122414073D

 28 32  0  0  1  0  0  0  0  0999 V2000
  159.6820  213.9010  149.6590 C   0  0  0  0  0  0  0  0  0  0  0  0
  158.9130  214.0560  153.7000 O   0  0  0  0  0  0  0  0  0  0  0  0
  161.9900  208.8500  148.8480 O   0  0  0  0  0  0  0  0  0  0  0  0
  157.0450  213.0360  149.2590 C   0  0  0  0  0  3  0  0  0  0  0  0
  161.2490  209.0580  151.0830 N   0  0  0  0  0  0  0  0  0  0  0  0
  161.0990  214.3670  149.8230 C   0  0  0  0  0  2  0  0  0  0  0  0
  157.7990  212.2000  154.8420 O   0  0  0  0  0  0  0  0  0  0  0  0
  159.0190  212.6010  154.0630 S   0  0  0  0  0  0  0  0  0  0  0  0
  161.2360  211.1640  154.5390 C   0  0  1  0  0  3  0  0  0  0  0  0
  159.1220  211.6200  152.6230 N   0  0  2  0  0  0  0  0  0  0  0  0
  163.0850  212.5670  147.3090 O   0  0  0  0  0  0  0  0  0  0  0  0
  160.9060  211.3000  151.1140 C   0  0  1  0  0  3  0  0  0  0  0  0
  160.3180  210.0830  154.1860 N   0  0  0  0  0  2  0  0  0  0  0  0
  160.4560  212.3460  155.0770 C   0  0  0  0  0  2  0  0  0  0  0  0
  162.5690  212.8050  148.4310 C   0  0  0  0  0  0  0  0  0  0  0  0
  159.1270  212.9210  150.5110 C   0  0  0  0  0  0  0  0  0  0  0  0
  161.6070  209.5740  149.8070 C   0  0  0  0  0  0  0  0  0  0  0  0
  162.2090  210.6810  155.5930 C   0  0  0  0  0  1  0  0  0  0  0  0
  162.7070  211.7880  149.5180 C   0  0  0  0  0  2  0  0  0  0  0  0
  157.8100  212.4870  150.2890 C   0  0  0  0  0  3  0  0  0  0  0  0
  158.9030  214.4510  148.6340 C   0  0  0  0  0  3  0  0  0  0  0  0
  157.5900  214.0220  148.4350 C   0  0  0  0  0  3  0  0  0  0  0  0
  161.8810  214.0440  148.6350 N   0  0  0  0  0  2  0  0  0  0  0  0
  160.8200  210.2010  151.8010 C   0  0  1  0  0  3  0  0  0  0  0  0
  161.3950  211.0530  149.7200 C   0  0  2  0  0  3  0  0  0  0  0  0
  159.7630  210.2900  152.8360 C   0  0  2  0  0  3  0  0  0  0  0  0
  160.8360  207.6900  151.3490 C   0  0  0  0  0  1  0  0  0  0  0  0
  159.9540  212.3180  151.6220 C   0  0  1  0  0  3  0  0  0  0  0  0
  1  6  1  0  0  0  0
  1 16  1  0  0  0  0
  2  8  2  0  0  0  0
  3 17  2  0  0  0  0
  4 20  1  0  0  0  0
  5 27  1  0  0  0  0
  5 24  1  0  0  0  0
  8  7  2  0  0  0  0
  8 14  1  0  0  0  0
  9 14  1  0  0  0  0
  9 18  1  1  0  0  0
 10 26  1  0  0  0  0
 10  8  1  1  0  0  0
 11 15  2  0  0  0  0
 12 28  1  0  0  0  0
 12 24  1  0  0  0  0
 13  9  1  0  0  0  0
 15 23  1  0  0  0  0
 15 19  1  0  0  0  0
 16 28  1  0  0  0  0
 17  5  1  0  0  0  0
 19 25  1  0  0  0  0
 20 16  2  0  0  0  0
 21  1  2  0  0  0  0
 22 21  1  0  0  0  0
 22  4  2  0  0  0  0
 23  6  1  0  0  0  0
 24 26  1  0  0  0  0
 25 17  1  0  0  0  0
 25 12  1  0  0  0  0
 26 13  1  0  0  0  0
 28 10  1  0  0  0  0
M  END
>  <MODEL>
3

>  <REMARK>
 VINA RESULT:      -2.3      2.553      6.039
  Name = 
  0 active torsions:
  status: ('A' for Active; 'I' for Inactive)
                            x       y       z     vdW  Elec       q    Type
                         _______ _______ _______ _____ _____    ______ ____

>  <TORSDO>
F 0

$$$$
=
 OpenBabel11122414073D

 28 32  0  0  1  0  0  0  0  0999 V2000
  159.4000  213.1150  151.5440 C   0  0  0  0  0  0  0  0  0  0  0  0
  159.8780  213.9510  155.5450 O   0  0  0  0  0  0  0  0  0  0  0  0
  160.9300  207.7420  151.0240 O   0  0  0  0  0  0  0  0  0  0  0  0
  156.7000  212.5570  152.0520 C   0  0  0  0  0  3  0  0  0  0  0  0
  160.9050  208.3640  153.3040 N   0  0  0  0  0  0  0  0  0  0  0  0
  160.8360  213.4100  151.2210 C   0  0  0  0  0  2  0  0  0  0  0  0
  159.0000  212.4410  157.2610 O   0  0  0  0  0  0  0  0  0  0  0  0
  159.9640  212.5620  156.1150 S   0  0  0  0  0  0  0  0  0  0  0  0
  162.0940  210.9290  156.2010 C   0  0  1  0  0  3  0  0  0  0  0  0
  159.5530  211.3790  154.8990 N   0  0  2  0  0  0  0  0  0  0  0  0
  161.8290  211.0210  148.6110 O   0  0  0  0  0  0  0  0  0  0  0  0
  160.7760  210.6130  153.0350 C   0  0  1  0  0  3  0  0  0  0  0  0
  161.0240  209.9390  156.3120 N   0  0  0  0  0  2  0  0  0  0  0  0
  161.6100  212.2690  156.7170 C   0  0  0  0  0  2  0  0  0  0  0  0
  161.6910  211.4840  149.7730 C   0  0  0  0  0  0  0  0  0  0  0  0
  159.0420  212.3500  152.6750 C   0  0  0  0  0  0  0  0  0  0  0  0
  160.9110  208.6400  151.9080 C   0  0  0  0  0  0  0  0  0  0  0  0
  163.2910  210.4790  157.0090 C   0  0  0  0  0  1  0  0  0  0  0  0
  162.0590  210.6250  150.9400 C   0  0  0  0  0  2  0  0  0  0  0  0
  157.6870  212.0650  152.9080 C   0  0  0  0  0  3  0  0  0  0  0  0
  158.4010  213.6100  150.6960 C   0  0  0  0  0  3  0  0  0  0  0  0
  157.0570  213.3330  150.9490 C   0  0  0  0  0  3  0  0  0  0  0  0
  161.2010  212.8200  149.9390 N   0  0  0  0  0  2  0  0  0  0  0  0
  160.8060  209.6450  153.9000 C   0  0  1  0  0  3  0  0  0  0  0  0
  160.8080  210.1060  151.6250 C   0  0  2  0  0  3  0  0  0  0  0  0
  160.1140  210.0210  155.1560 C   0  0  2  0  0  3  0  0  0  0  0  0
  160.4760  207.1150  153.9100 C   0  0  0  0  0  1  0  0  0  0  0  0
  160.1070  211.8100  153.6000 C   0  0  1  0  0  3  0  0  0  0  0  0
  1 16  1  0  0  0  0
  2  8  2  0  0  0  0
  3 17  2  0  0  0  0
  4 20  1  0  0  0  0
  5 24  1  0  0  0  0
  5 27  1  0  0  0  0
  6  1  1  0  0  0  0
  8 14  1  0  0  0  0
  8  7  2  0  0  0  0
  9 13  1  0  0  0  0
  9 14  1  0  0  0  0
  9 18  1  1  0  0  0
 10 26  1  0  0  0  0
 10  8  1  1  0  0  0
 11 15  2  0  0  0  0
 12 28  1  0  0  0  0
 12 24  1  0  0  0  0
 15 23  1  0  0  0  0
 15 19  1  0  0  0  0
 16 20  2  0  0  0  0
 16 28  1  0  0  0  0
 17  5  1  0  0  0  0
 19 25  1  0  0  0  0
 21 22  1  0  0  0  0
 21  1  2  0  0  0  0
 22  4  2  0  0  0  0
 23  6  1  0  0  0  0
 24 26  1  0  0  0  0
 25 17  1  0  0  0  0
 25 12  1  0  0  0  0
 26 13  1  0  0  0  0
 28 10  1  0  0  0  0
M  END
>  <MODEL>
4

>  <REMARK>
 VINA RESULT:      -1.1      1.590      5.270
  Name = 
  0 active torsions:
  status: ('A' for Active; 'I' for Inactive)
                            x       y       z     vdW  Elec       q    Type
                         _______ _______ _______ _____ _____    ______ ____

>  <TORSDO>
F 0

$$$$
