=
 OpenBabel11122414283D

 34 41  0  0  1  0  0  0  0  0999 V2000
  160.7610  206.9610  153.7340 C   0  0  0  0  0  0  0  0  0  0  0  0
  161.2560  204.6250  152.7820 C   0  0  0  0  0  3  0  0  0  0  0  0
  158.7120  213.0670  153.1360 N   0  0  2  0  0  0  0  0  0  0  0  0
  160.3030  209.2360  154.5150 C   0  0  0  0  0  0  0  0  0  0  0  0
  159.8940  211.0140  152.7840 C   0  0  1  0  0  3  0  0  0  0  0  0
  159.6610  213.0910  151.2050 C   0  0  0  0  0  2  0  0  0  0  0  0
  158.5410  213.8360  151.9120 C   0  0  0  0  0  2  0  0  0  0  0  0
  159.6280  212.9490  155.4210 C   0  0  0  0  0  2  0  0  0  0  0  0
  161.3470  206.5650  151.4240 C   0  0  0  0  0  0  0  0  0  0  0  0
  160.3950  206.5270  148.6870 C   0  0  0  0  0  2  0  0  0  0  0  0
  160.9200  210.3220  151.8970 C   0  0  0  0  0  2  0  0  0  0  0  0
  159.2820  211.4520  155.2560 C   0  0  0  0  0  2  0  0  0  0  0  0
  161.2820  207.9410  151.1240 C   0  0  0  0  0  0  0  0  0  0  0  0
  161.7380  204.2120  151.3900 C   0  0  0  0  0  3  0  0  0  0  0  0
  160.2300  210.7290  154.2670 C   0  0  1  0  0  3  0  0  0  0  0  0
  159.1040  213.8620  154.2880 C   0  0  0  0  0  2  0  0  0  0  0  0
  160.6920  205.2860  149.4270 N   0  0  0  0  0  0  0  0  0  0  0  0
  160.6710  208.3520  153.4700 C   0  0  0  0  0  0  0  0  0  0  0  0
  159.9290  212.5140  152.5760 C   0  0  1  0  0  3  0  0  0  0  0  0
  160.9360  208.8380  152.1610 C   0  0  0  0  0  0  0  0  0  0  0  0
  160.2000  207.3540  156.0570 C   0  0  0  0  0  3  0  0  0  0  0  0
  161.5900  207.4760  148.5940 C   0  0  0  0  0  2  0  0  0  0  0  0
  160.0960  208.7230  155.8050 C   0  0  0  0  0  3  0  0  0  0  0  0
  161.5820  208.4880  149.7420 C   0  0  0  0  0  2  0  0  0  0  0  0
  161.7020  205.4580  150.4880 C   0  0  1  0  0  3  0  0  0  0  0  0
  160.5260  206.4760  155.0250 C   0  0  0  0  0  3  0  0  0  0  0  0
  161.1010  206.0960  152.6910 C   0  0  0  0  0  0  0  0  0  0  0  0
  161.2230  204.3390  148.4550 C   0  0  0  0  0  2  0  0  0  0  0  0
  162.4530  204.9260  147.7860 C   0  0  0  0  0  2  0  0  0  0  0  0
  160.8140  203.9880  144.7120 N   0  0  0  0  0  2  0  0  0  0  0  0
  162.3020  205.7270  145.4300 C   0  0  0  0  0  2  0  0  0  0  0  0
  162.5000  204.5230  146.3220 C   0  0  2  0  0  3  0  0  0  0  0  0
  161.0830  205.4130  144.5890 C   0  0  0  0  0  2  0  0  0  0  0  0
  161.3390  203.6070  146.0120 C   0  0  0  0  0  2  0  0  0  0  0  0
  1 26  2  0  0  0  0
  3  7  1  6  0  0  0
  3 16  1  0  0  0  0
  4 23  1  0  0  0  0
  5 11  1  6  0  0  0
  5 15  1  0  0  0  0
  6  7  1  0  0  0  0
  9 27  2  0  0  0  0
 10 17  1  0  0  0  0
 11 20  1  0  0  0  0
 12  8  1  0  0  0  0
 13  9  1  0  0  0  0
 13 20  2  0  0  0  0
 14  2  2  0  0  0  0
 15  4  1  0  0  0  0
 15 12  1  1  0  0  0
 16  8  1  0  0  0  0
 17 25  1  0  0  0  0
 18  1  1  0  0  0  0
 18  4  2  0  0  0  0
 19  6  1  6  0  0  0
 19  5  1  0  0  0  0
 19  3  1  0  0  0  0
 20 18  1  0  0  0  0
 22 10  1  0  0  0  0
 22 24  1  0  0  0  0
 23 21  2  0  0  0  0
 24 13  1  0  0  0  0
 25 14  1  1  0  0  0
 25  9  1  0  0  0  0
 26 21  1  0  0  0  0
 27  2  1  0  0  0  0
 27  1  1  0  0  0  0
 28 17  1  0  0  0  0
 29 28  1  0  0  0  0
 30 34  1  0  0  0  0
 31 32  1  0  0  0  0
 32 29  1  1  0  0  0
 33 30  1  0  0  0  0
 33 31  1  0  0  0  0
 34 32  1  0  0  0  0
M  END
>  <MODEL>
1

>  <REMARK>
 VINA RESULT:     -11.2      0.000      0.000
  Name = 
  3 active torsions:
  status: ('A' for Active; 'I' for Inactive)
    1  A    between atoms: N_17  and  C_28
    2  A    between atoms: C_28  and  C_29
    3  A    between atoms: C_29  and  C_32
                            x       y       z     vdW  Elec       q    Type
                         _______ _______ _______ _____ _____    ______ ____

>  <TORSDO>
F 3

$$$$
=
 OpenBabel11122414283D

 34 41  0  0  1  0  0  0  0  0999 V2000
  160.7010  207.2680  153.9640 C   0  0  0  0  0  0  0  0  0  0  0  0
  161.2580  204.8980  153.1410 C   0  0  0  0  0  3  0  0  0  0  0  0
  158.5560  213.2970  153.0220 N   0  0  2  0  0  0  0  0  0  0  0  0
  160.1850  209.5690  154.6230 C   0  0  0  0  0  0  0  0  0  0  0  0
  159.7820  211.2520  152.7970 C   0  0  1  0  0  3  0  0  0  0  0  0
  159.5470  213.2440  151.1120 C   0  0  0  0  0  2  0  0  0  0  0  0
  158.3980  214.0020  151.7580 C   0  0  0  0  0  2  0  0  0  0  0  0
  159.4250  213.3090  155.3290 C   0  0  0  0  0  2  0  0  0  0  0  0
  161.3430  206.7700  151.6900 C   0  0  0  0  0  0  0  0  0  0  0  0
  160.4520  206.5780  148.9390 C   0  0  0  0  0  2  0  0  0  0  0  0
  160.8400  210.5360  151.9670 C   0  0  0  0  0  2  0  0  0  0  0  0
  159.1090  211.8000  155.2310 C   0  0  0  0  0  2  0  0  0  0  0  0
  161.2600  208.1280  151.3210 C   0  0  0  0  0  0  0  0  0  0  0  0
  161.7770  204.4260  151.7810 C   0  0  0  0  0  3  0  0  0  0  0  0
  160.0910  211.0470  154.2990 C   0  0  1  0  0  3  0  0  0  0  0  0
  158.9090  214.1550  154.1410 C   0  0  0  0  0  2  0  0  0  0  0  0
  160.7550  205.3810  149.7460 N   0  0  0  0  0  0  0  0  0  0  0  0
  160.5910  208.6420  153.6300 C   0  0  0  0  0  0  0  0  0  0  0  0
  159.7950  212.7400  152.5160 C   0  0  1  0  0  3  0  0  0  0  0  0
  160.8760  209.0680  152.3050 C   0  0  0  0  0  0  0  0  0  0  0  0
  160.0820  207.7640  156.2530 C   0  0  0  0  0  3  0  0  0  0  0  0
  161.6320  207.5450  148.8240 C   0  0  0  0  0  2  0  0  0  0  0  0
  159.9600  209.1160  155.9310 C   0  0  0  0  0  3  0  0  0  0  0  0
  161.5810  208.6120  149.9200 C   0  0  0  0  0  2  0  0  0  0  0  0
  161.7390  205.6240  150.8180 C   0  0  1  0  0  3  0  0  0  0  0  0
  160.4460  206.8420  155.2730 C   0  0  0  0  0  3  0  0  0  0  0  0
  161.0790  206.3580  152.9740 C   0  0  0  0  0  0  0  0  0  0  0  0
  161.3230  204.3980  148.8330 C   0  0  0  0  0  2  0  0  0  0  0  0
  161.2530  203.0160  149.4600 C   0  0  0  0  0  2  0  0  0  0  0  0
  161.0400  201.1850  146.3580 N   0  0  0  0  0  2  0  0  0  0  0  0
  161.0740  200.6490  148.6960 C   0  0  0  0  0  2  0  0  0  0  0  0
  160.5370  202.0520  148.5300 C   0  0  2  0  0  3  0  0  0  0  0  0
  161.5810  200.2450  147.3280 C   0  0  0  0  0  2  0  0  0  0  0  0
  160.8310  202.4210  147.0940 C   0  0  0  0  0  2  0  0  0  0  0  0
  1 26  2  0  0  0  0
  3  7  1  6  0  0  0
  3 16  1  0  0  0  0
  4 23  1  0  0  0  0
  5 11  1  6  0  0  0
  5 15  1  0  0  0  0
  6  7  1  0  0  0  0
  9 27  2  0  0  0  0
 10 17  1  0  0  0  0
 11 20  1  0  0  0  0
 12  8  1  0  0  0  0
 13  9  1  0  0  0  0
 13 20  2  0  0  0  0
 14  2  2  0  0  0  0
 15  4  1  0  0  0  0
 15 12  1  1  0  0  0
 16  8  1  0  0  0  0
 17 25  1  0  0  0  0
 18  1  1  0  0  0  0
 18  4  2  0  0  0  0
 19  6  1  6  0  0  0
 19  5  1  0  0  0  0
 19  3  1  0  0  0  0
 20 18  1  0  0  0  0
 22 10  1  0  0  0  0
 22 24  1  0  0  0  0
 23 21  2  0  0  0  0
 24 13  1  0  0  0  0
 25  9  1  0  0  0  0
 25 14  1  1  0  0  0
 26 21  1  0  0  0  0
 27  2  1  0  0  0  0
 27  1  1  0  0  0  0
 28 29  1  0  0  0  0
 28 17  1  0  0  0  0
 30 34  1  0  0  0  0
 30 33  1  0  0  0  0
 32 31  1  0  0  0  0
 32 29  1  1  0  0  0
 33 31  1  0  0  0  0
 34 32  1  0  0  0  0
M  END
>  <MODEL>
2

>  <REMARK>
 VINA RESULT:     -10.7      1.293      1.815
  Name = 
  3 active torsions:
  status: ('A' for Active; 'I' for Inactive)
    1  A    between atoms: N_17  and  C_28
    2  A    between atoms: C_28  and  C_29
    3  A    between atoms: C_29  and  C_32
                            x       y       z     vdW  Elec       q    Type
                         _______ _______ _______ _____ _____    ______ ____

>  <TORSDO>
F 3

$$$$
=
 OpenBabel11122414283D

 34 41  0  0  1  0  0  0  0  0999 V2000
  161.5750  209.0970  151.0000 C   0  0  0  0  0  0  0  0  0  0  0  0
  161.3430  211.0130  152.6960 C   0  0  0  0  0  3  0  0  0  0  0  0
  160.3690  203.0750  148.9700 N   0  0  2  0  0  0  0  0  0  0  0  0
  161.7700  207.1840  149.4840 C   0  0  0  0  0  0  0  0  0  0  0  0
  161.0280  204.9340  150.3290 C   0  0  1  0  0  3  0  0  0  0  0  0
  160.5480  202.4530  151.0220 C   0  0  0  0  0  2  0  0  0  0  0  0
  159.8820  201.9480  149.7530 C   0  0  0  0  0  2  0  0  0  0  0  0
  162.0220  203.9440  147.3610 C   0  0  0  0  0  2  0  0  0  0  0  0
  161.2200  208.7430  153.3620 C   0  0  0  0  0  0  0  0  0  0  0  0
  159.3480  207.8750  155.3970 C   0  0  0  0  0  2  0  0  0  0  0  0
  161.5510  205.3280  151.7030 C   0  0  0  0  0  2  0  0  0  0  0  0
  161.4240  205.2990  147.8010 C   0  0  0  0  0  2  0  0  0  0  0  0
  161.2540  207.3420  153.2050 C   0  0  0  0  0  0  0  0  0  0  0  0
  161.2210  210.9680  154.2210 C   0  0  0  0  0  3  0  0  0  0  0  0
  161.8320  205.6880  149.2440 C   0  0  1  0  0  3  0  0  0  0  0  0
  161.2640  202.7020  147.8860 C   0  0  0  0  0  2  0  0  0  0  0  0
  159.7060  209.2940  155.2220 N   0  0  0  0  0  0  0  0  0  0  0  0
  161.6000  207.6930  150.7960 C   0  0  0  0  0  0  0  0  0  0  0  0
  161.2060  203.4480  150.0930 C   0  0  1  0  0  3  0  0  0  0  0  0
  161.4420  206.8190  151.9050 C   0  0  0  0  0  0  0  0  0  0  0  0
  161.9560  209.4590  148.6360 C   0  0  0  0  0  3  0  0  0  0  0  0
  160.5550  206.9750  155.6720 C   0  0  0  0  0  2  0  0  0  0  0  0
  161.9710  208.0790  148.4230 C   0  0  0  0  0  3  0  0  0  0  0  0
  161.1110  206.3870  154.3740 C   0  0  0  0  0  2  0  0  0  0  0  0
  161.0460  209.4980  154.6380 C   0  0  1  0  0  3  0  0  0  0  0  0
  161.7530  209.9650  149.9180 C   0  0  0  0  0  3  0  0  0  0  0  0
  161.3830  209.5890  152.2930 C   0  0  0  0  0  0  0  0  0  0  0  0
  159.7040  209.8910  156.5520 C   0  0  0  0  0  2  0  0  0  0  0  0
  158.6210  210.9520  156.6360 C   0  0  0  0  0  2  0  0  0  0  0  0
  155.7590  211.8860  154.6460 N   0  0  0  0  0  2  0  0  0  0  0  0
  158.0720  212.5110  154.7690 C   0  0  0  0  0  2  0  0  0  0  0  0
  157.9250  211.1020  155.2950 C   0  0  2  0  0  3  0  0  0  0  0  0
  156.6600  213.0270  154.5910 C   0  0  0  0  0  2  0  0  0  0  0  0
  156.4380  210.8990  155.4710 C   0  0  0  0  0  2  0  0  0  0  0  0
  1 27  1  0  0  0  0
  2 14  2  0  0  0  0
  3 16  1  6  0  0  0
  3  7  1  0  0  0  0
  3 19  1  0  0  0  0
  4 18  1  0  0  0  0
  5 11  1  1  0  0  0
  7  6  1  0  0  0  0
  8 12  1  0  0  0  0
  8 16  1  0  0  0  0
  9 25  1  0  0  0  0
 10 22  1  0  0  0  0
 11 20  1  0  0  0  0
 13  9  1  0  0  0  0
 13 24  1  0  0  0  0
 15 12  1  6  0  0  0
 15  4  1  0  0  0  0
 15  5  1  0  0  0  0
 17 10  1  0  0  0  0
 17 28  1  0  0  0  0
 18  1  2  0  0  0  0
 18 20  1  0  0  0  0
 19  5  1  0  0  0  0
 19  6  1  1  0  0  0
 20 13  2  0  0  0  0
 21 26  2  0  0  0  0
 23 21  1  0  0  0  0
 23  4  2  0  0  0  0
 24 22  1  0  0  0  0
 25 14  1  6  0  0  0
 25 17  1  0  0  0  0
 26  1  1  0  0  0  0
 27  2  1  0  0  0  0
 27  9  2  0  0  0  0
 28 29  1  0  0  0  0
 30 34  1  0  0  0  0
 31 32  1  0  0  0  0
 32 34  1  0  0  0  0
 32 29  1  1  0  0  0
 33 30  1  0  0  0  0
 33 31  1  0  0  0  0
M  END
>  <MODEL>
3

>  <REMARK>
 VINA RESULT:     -10.1      1.818      8.775
  Name = 
  3 active torsions:
  status: ('A' for Active; 'I' for Inactive)
    1  A    between atoms: N_17  and  C_28
    2  A    between atoms: C_28  and  C_29
    3  A    between atoms: C_29  and  C_32
                            x       y       z     vdW  Elec       q    Type
                         _______ _______ _______ _____ _____    ______ ____

>  <TORSDO>
F 3

$$$$
=
 OpenBabel11122414283D

 34 41  0  0  1  0  0  0  0  0999 V2000
  160.9470  204.9410  152.0900 C   0  0  0  0  0  0  0  0  0  0  0  0
  161.0180  206.3020  154.2690 C   0  0  0  0  0  3  0  0  0  0  0  0
  162.2900  204.1070  145.8180 N   0  0  2  0  0  0  0  0  0  0  0  0
  160.8930  203.7600  149.9460 C   0  0  0  0  0  0  0  0  0  0  0  0
  161.5110  205.0500  147.8770 C   0  0  1  0  0  3  0  0  0  0  0  0
  161.8820  206.2030  145.5540 C   0  0  0  0  0  2  0  0  0  0  0  0
  162.6750  205.1180  144.8450 C   0  0  0  0  0  2  0  0  0  0  0  0
  160.8310  202.2040  146.3910 C   0  0  0  0  0  2  0  0  0  0  0  0
  161.0400  207.3540  152.1460 C   0  0  0  0  0  0  0  0  0  0  0  0
  162.6690  209.6980  151.6490 C   0  0  0  0  0  2  0  0  0  0  0  0
  160.8480  206.2730  148.4970 C   0  0  0  0  0  2  0  0  0  0  0  0
  161.3950  202.4690  147.8050 C   0  0  0  0  0  2  0  0  0  0  0  0
  161.0050  207.4340  150.7390 C   0  0  0  0  0  0  0  0  0  0  0  0
  160.9730  207.8160  154.4850 C   0  0  0  0  0  3  0  0  0  0  0  0
  160.8390  203.7720  148.4310 C   0  0  1  0  0  3  0  0  0  0  0  0
  161.5130  203.0110  145.2610 C   0  0  0  0  0  2  0  0  0  0  0  0
  162.3500  209.2460  153.0160 N   0  0  0  0  0  0  0  0  0  0  0  0
  160.9260  204.9770  150.6720 C   0  0  0  0  0  0  0  0  0  0  0  0
  161.3410  205.0520  146.3720 C   0  0  1  0  0  3  0  0  0  0  0  0
  160.9520  206.2290  150.0000 C   0  0  0  0  0  0  0  0  0  0  0  0
  160.8280  202.5230  152.0420 C   0  0  0  0  0  3  0  0  0  0  0  0
  161.4290  209.9880  150.8020 C   0  0  0  0  0  2  0  0  0  0  0  0
  160.8190  202.5470  150.6470 C   0  0  0  0  0  3  0  0  0  0  0  0
  161.0090  208.7560  149.9970 C   0  0  0  0  0  2  0  0  0  0  0  0
  161.0840  208.4940  153.1090 C   0  0  1  0  0  3  0  0  0  0  0  0
  160.8970  203.7150  152.7610 C   0  0  0  0  0  3  0  0  0  0  0  0
  161.0030  206.1450  152.7970 C   0  0  0  0  0  0  0  0  0  0  0  0
  162.2150  210.4470  153.8300 C   0  0  0  0  0  2  0  0  0  0  0  0
  160.8290  211.0390  153.6460 C   0  0  0  0  0  2  0  0  0  0  0  0
  158.9570  210.7580  156.7180 N   0  0  0  0  0  2  0  0  0  0  0  0
  161.2290  211.2210  156.1010 C   0  0  0  0  0  2  0  0  0  0  0  0
  160.3260  211.6200  154.9560 C   0  0  2  0  0  3  0  0  0  0  0  0
  160.3400  210.4830  157.0790 C   0  0  0  0  0  2  0  0  0  0  0  0
  158.9780  211.0250  155.2890 C   0  0  0  0  0  2  0  0  0  0  0  0
  1 26  1  0  0  0  0
  1 27  1  0  0  0  0
  2 14  2  0  0  0  0
  3  7  1  6  0  0  0
  3 19  1  0  0  0  0
  4 23  2  0  0  0  0
  4 18  1  0  0  0  0
  5 15  1  0  0  0  0
  5 11  1  1  0  0  0
  7  6  1  0  0  0  0
  8 12  1  0  0  0  0
  9 27  2  0  0  0  0
  9 25  1  0  0  0  0
 10 17  1  0  0  0  0
 11 20  1  0  0  0  0
 13  9  1  0  0  0  0
 15 12  1  6  0  0  0
 15  4  1  0  0  0  0
 16  3  1  0  0  0  0
 16  8  1  0  0  0  0
 17 25  1  0  0  0  0
 17 28  1  0  0  0  0
 18  1  2  0  0  0  0
 19  6  1  6  0  0  0
 19  5  1  0  0  0  0
 20 18  1  0  0  0  0
 20 13  2  0  0  0  0
 21 26  2  0  0  0  0
 22 10  1  0  0  0  0
 23 21  1  0  0  0  0
 24 13  1  0  0  0  0
 24 22  1  0  0  0  0
 25 14  1  1  0  0  0
 27  2  1  0  0  0  0
 29 28  1  0  0  0  0
 30 33  1  0  0  0  0
 31 33  1  0  0  0  0
 32 29  1  6  0  0  0
 32 34  1  0  0  0  0
 32 31  1  0  0  0  0
 34 30  1  0  0  0  0
M  END
>  <MODEL>
4

>  <REMARK>
 VINA RESULT:      -9.8      1.802      8.482
  Name = 
  3 active torsions:
  status: ('A' for Active; 'I' for Inactive)
    1  A    between atoms: N_17  and  C_28
    2  A    between atoms: C_28  and  C_29
    3  A    between atoms: C_29  and  C_32
                            x       y       z     vdW  Elec       q    Type
                         _______ _______ _______ _____ _____    ______ ____

>  <TORSDO>
F 3

$$$$
=
 OpenBabel11122414283D

 34 41  0  0  1  0  0  0  0  0999 V2000
  161.5780  209.1460  150.9870 C   0  0  0  0  0  0  0  0  0  0  0  0
  161.3190  211.0670  152.6740 C   0  0  0  0  0  3  0  0  0  0  0  0
  160.4540  203.0990  148.9830 N   0  0  2  0  0  0  0  0  0  0  0  0
  161.7990  207.2290  149.4790 C   0  0  0  0  0  0  0  0  0  0  0  0
  161.0870  204.9730  150.3340 C   0  0  1  0  0  3  0  0  0  0  0  0
  160.6400  202.4900  151.0380 C   0  0  0  0  0  2  0  0  0  0  0  0
  159.9820  201.9700  149.7710 C   0  0  0  0  0  2  0  0  0  0  0  0
  162.0960  203.9830  147.3710 C   0  0  0  0  0  2  0  0  0  0  0  0
  161.2270  208.7980  153.3510 C   0  0  0  0  0  0  0  0  0  0  0  0
  159.3660  207.9140  155.3890 C   0  0  0  0  0  2  0  0  0  0  0  0
  161.6040  205.3810  151.7070 C   0  0  0  0  0  2  0  0  0  0  0  0
  161.4790  205.3320  147.8050 C   0  0  0  0  0  2  0  0  0  0  0  0
  161.2800  207.3970  153.1990 C   0  0  0  0  0  0  0  0  0  0  0  0
  161.1980  211.0270  154.1990 C   0  0  0  0  0  3  0  0  0  0  0  0
  161.8810  205.7330  149.2460 C   0  0  1  0  0  3  0  0  0  0  0  0
  161.3540  202.7340  147.9010 C   0  0  0  0  0  2  0  0  0  0  0  0
  159.7050  209.3370  155.2070 N   0  0  0  0  0  0  0  0  0  0  0  0
  161.6220  207.7420  150.7890 C   0  0  0  0  0  0  0  0  0  0  0  0
  161.2850  203.4890  150.1050 C   0  0  1  0  0  3  0  0  0  0  0  0
  161.4760  206.8700  151.9020 C   0  0  0  0  0  0  0  0  0  0  0  0
  161.9550  209.5020  148.6210 C   0  0  0  0  0  3  0  0  0  0  0  0
  160.5840  207.0320  155.6680 C   0  0  0  0  0  2  0  0  0  0  0  0
  161.9880  208.1220  148.4140 C   0  0  0  0  0  3  0  0  0  0  0  0
  161.1490  206.4450  154.3720 C   0  0  0  0  0  2  0  0  0  0  0  0
  161.0420  209.5560  154.6230 C   0  0  1  0  0  3  0  0  0  0  0  0
  161.7450  210.0120  149.9010 C   0  0  0  0  0  3  0  0  0  0  0  0
  161.3790  209.6410  152.2780 C   0  0  0  0  0  0  0  0  0  0  0  0
  159.6950  209.9400  156.5340 C   0  0  0  0  0  2  0  0  0  0  0  0
  158.4060  210.7190  156.7340 C   0  0  0  0  0  2  0  0  0  0  0  0
  160.4370  213.7000  156.8070 N   0  0  0  0  0  2  0  0  0  0  0  0
  158.1460  213.1660  156.3360 C   0  0  0  0  0  2  0  0  0  0  0  0
  158.7080  212.1110  157.2610 C   0  0  2  0  0  3  0  0  0  0  0  0
  159.3330  214.0040  155.9100 C   0  0  0  0  0  2  0  0  0  0  0  0
  160.2020  212.3390  157.2610 C   0  0  0  0  0  2  0  0  0  0  0  0
  1 27  1  0  0  0  0
  2 14  2  0  0  0  0
  3 16  1  6  0  0  0
  3  7  1  0  0  0  0
  3 19  1  0  0  0  0
  4 18  1  0  0  0  0
  5 11  1  1  0  0  0
  7  6  1  0  0  0  0
  8 12  1  0  0  0  0
  8 16  1  0  0  0  0
  9 25  1  0  0  0  0
 10 22  1  0  0  0  0
 11 20  1  0  0  0  0
 13  9  1  0  0  0  0
 13 24  1  0  0  0  0
 15 12  1  6  0  0  0
 15  4  1  0  0  0  0
 15  5  1  0  0  0  0
 17 10  1  0  0  0  0
 17 28  1  0  0  0  0
 18  1  2  0  0  0  0
 18 20  1  0  0  0  0
 19  5  1  0  0  0  0
 19  6  1  1  0  0  0
 20 13  2  0  0  0  0
 21 26  2  0  0  0  0
 23 21  1  0  0  0  0
 23  4  2  0  0  0  0
 24 22  1  0  0  0  0
 25 14  1  6  0  0  0
 25 17  1  0  0  0  0
 26  1  1  0  0  0  0
 27  2  1  0  0  0  0
 27  9  2  0  0  0  0
 28 29  1  0  0  0  0
 30 34  1  0  0  0  0
 31 32  1  0  0  0  0
 32 29  1  6  0  0  0
 32 34  1  0  0  0  0
 33 31  1  0  0  0  0
 33 30  1  0  0  0  0
M  END
>  <MODEL>
5

>  <REMARK>
 VINA RESULT:      -9.4      1.893      9.113
  Name = 
  3 active torsions:
  status: ('A' for Active; 'I' for Inactive)
    1  A    between atoms: N_17  and  C_28
    2  A    between atoms: C_28  and  C_29
    3  A    between atoms: C_29  and  C_32
                            x       y       z     vdW  Elec       q    Type
                         _______ _______ _______ _____ _____    ______ ____

>  <TORSDO>
F 3

$$$$
