=
 OpenBabel11122413033D

 32 37  0  0  1  0  0  0  0  0999 V2000
  161.9600  209.8430  153.3780 C   0  0  0  0  0  2  0  0  0  0  0  0
  161.7520  206.0620  150.0950 C   0  0  2  0  0  3  0  0  0  0  0  0
  160.7400  201.5190  151.7480 C   0  0  0  0  0  3  0  0  0  0  0  0
  160.5460  201.0780  150.4410 C   0  0  0  0  0  3  0  0  0  0  0  0
  161.9470  206.3450  147.5640 C   0  0  2  0  0  3  0  0  0  0  0  0
  162.4120  205.5050  146.3720 C   0  0  2  0  0  3  0  0  0  0  0  0
  160.5500  207.6370  151.7160 C   0  0  1  0  0  3  0  0  0  0  0  0
  161.6860  205.5500  152.6180 C   0  0  0  0  0  2  0  0  0  0  0  0
  161.1170  204.1280  144.7910 C   0  0  2  0  0  3  0  0  0  0  0  0
  161.5610  207.5730  154.1140 C   0  0  0  0  0  2  0  0  0  0  0  0
  161.1090  202.8420  151.9890 C   0  0  0  0  0  3  0  0  0  0  0  0
  161.6180  205.0350  151.1970 C   0  0  0  0  0  0  0  0  0  0  0  0
  161.2970  203.7510  150.9310 C   0  0  0  0  0  0  0  0  0  0  0  0
  161.2980  204.1160  148.5480 C   0  0  0  0  0  0  0  0  0  0  0  0
  161.5630  205.4250  144.1900 C   0  0  0  0  0  2  0  0  0  0  0  0
  161.5600  209.7100  151.9010 C   0  0  0  0  0  2  0  0  0  0  0  0
  161.6530  207.0780  152.6640 C   0  0  2  0  0  3  0  0  0  0  0  0
  162.2450  206.1850  145.0540 C   0  0  0  0  0  2  0  0  0  0  0  0
  160.3290  209.0370  151.7730 O   0  0  0  0  0  0  0  0  0  0  0  0
  161.1410  208.9750  154.2300 N   0  0  0  0  0  0  0  0  0  0  0  0
  160.7290  201.9610  149.3760 C   0  0  0  0  0  3  0  0  0  0  0  0
  161.1090  203.2960  149.5980 C   0  0  0  0  0  0  0  0  0  0  0  0
  161.0590  203.6550  147.2080 N   0  0  0  0  0  0  0  0  0  0  0  0
  160.6910  207.1590  150.2580 C   0  0  0  0  0  2  0  0  0  0  0  0
  162.9960  207.4140  147.8440 C   0  0  0  0  0  1  0  0  0  0  0  0
  159.6050  204.0300  144.6800 C   0  0  0  0  0  1  0  0  0  0  0  0
  161.7280  205.4830  148.7460 N   0  0  0  0  0  0  0  0  0  0  0  0
  161.5330  204.3220  146.2030 C   0  0  0  0  0  0  0  0  0  0  0  0
  161.3890  209.3690  155.6080 C   0  0  0  0  0  2  0  0  0  0  0  0
  162.0150  210.7520  155.6530 C   0  0  2  0  0  3  0  0  0  0  0  0
  163.1720  210.7470  156.6280 C   0  0  0  0  0  1  0  0  0  0  0  0
  161.0670  211.6880  156.0670 O   0  0  0  0  0  1  0  0  0  0  0  0
  1 20  1  0  0  0  0
  2 24  1  6  0  0  0
  2 12  1  0  0  0  0
  3 11  2  0  0  0  0
  4  3  1  0  0  0  0
  5 25  1  1  0  0  0
  5 27  1  0  0  0  0
  6 18  1  6  0  0  0
  6  5  1  0  0  0  0
  7 24  1  6  0  0  0
  7 19  1  0  0  0  0
  7 17  1  0  0  0  0
  9 26  1  1  0  0  0
  9 28  1  0  0  0  0
 10 20  1  0  0  0  0
 12  8  1  0  0  0  0
 13 12  2  0  0  0  0
 13 11  1  0  0  0  0
 14 27  1  0  0  0  0
 14 22  2  0  0  0  0
 15  9  1  0  0  0  0
 15 18  1  0  0  0  0
 16  1  1  0  0  0  0
 17  8  1  1  0  0  0
 17 10  1  0  0  0  0
 19 16  1  0  0  0  0
 20 29  1  0  0  0  0
 21 22  1  0  0  0  0
 21  4  2  0  0  0  0
 22 13  1  0  0  0  0
 23 14  1  0  0  0  0
 27  2  1  0  0  0  0
 28  6  1  0  0  0  0
 28 23  2  0  0  0  0
 29 30  1  0  0  0  0
 30 32  1  0  0  0  0
 30 31  1  1  0  0  0
M  END
>  <MODEL>
1

>  <REMARK>
 VINA RESULT:      -8.2      0.000      0.000
  Name = 
  2 active torsions:
  status: ('A' for Active; 'I' for Inactive)
    1  A    between atoms: N_20  and  C_29
    2  A    between atoms: C_29  and  C_30
                            x       y       z     vdW  Elec       q    Type
                         _______ _______ _______ _____ _____    ______ ____

>  <TORSDO>
F 2

$$$$
=
 OpenBabel11122413033D

 32 37  0  0  1  0  0  0  0  0999 V2000
  162.0510  203.6450  148.0650 C   0  0  0  0  0  2  0  0  0  0  0  0
  161.5710  207.8060  150.8170 C   0  0  2  0  0  3  0  0  0  0  0  0
  161.8770  212.1980  148.5770 C   0  0  0  0  0  3  0  0  0  0  0  0
  161.3970  212.8250  149.7240 C   0  0  0  0  0  3  0  0  0  0  0  0
  160.9820  207.8260  153.3030 C   0  0  2  0  0  3  0  0  0  0  0  0
  161.2250  208.7370  154.5070 C   0  0  2  0  0  3  0  0  0  0  0  0
  160.6290  206.2230  149.0400 C   0  0  1  0  0  3  0  0  0  0  0  0
  162.3200  207.9960  148.3600 C   0  0  0  0  0  2  0  0  0  0  0  0
  159.7910  210.4740  155.5070 C   0  0  2  0  0  3  0  0  0  0  0  0
  162.2790  205.8360  147.0640 C   0  0  0  0  0  2  0  0  0  0  0  0
  162.0650  210.8160  148.5660 C   0  0  0  0  0  3  0  0  0  0  0  0
  161.9380  208.6930  149.6480 C   0  0  0  0  0  0  0  0  0  0  0  0
  161.7820  210.0330  149.7000 C   0  0  0  0  0  0  0  0  0  0  0  0
  161.0380  209.9790  151.9930 C   0  0  0  0  0  0  0  0  0  0  0  0
  159.8140  209.2150  156.3160 C   0  0  0  0  0  2  0  0  0  0  0  0
  161.2750  204.0220  149.3370 C   0  0  0  0  0  2  0  0  0  0  0  0
  162.0370  206.4950  148.4290 C   0  0  2  0  0  3  0  0  0  0  0  0
  160.5720  208.2620  155.7640 C   0  0  0  0  0  2  0  0  0  0  0  0
  160.1950  204.8730  149.0310 O   0  0  0  0  0  0  0  0  0  0  0  0
  161.6740  204.5050  146.9380 N   0  0  0  0  0  0  0  0  0  0  0  0
  161.1110  212.0690  150.8610 C   0  0  0  0  0  3  0  0  0  0  0  0
  161.3020  210.6770  150.8730 C   0  0  0  0  0  0  0  0  0  0  0  0
  160.5090  210.6370  153.1560 N   0  0  0  0  0  0  0  0  0  0  0  0
  160.4280  206.8590  150.4280 C   0  0  0  0  0  2  0  0  0  0  0  0
  161.8660  206.5910  153.4400 C   0  0  0  0  0  1  0  0  0  0  0  0
  158.3510  210.7980  155.1460 C   0  0  0  0  0  1  0  0  0  0  0  0
  161.2630  208.5510  152.0450 N   0  0  0  0  0  0  0  0  0  0  0  0
  160.5530  210.0430  154.3070 C   0  0  0  0  0  0  0  0  0  0  0  0
  162.2330  203.9060  145.7370 C   0  0  0  0  0  2  0  0  0  0  0  0
  161.1210  203.3540  144.8610 C   0  0  2  0  0  3  0  0  0  0  0  0
  160.0800  204.4280  144.6350 C   0  0  0  0  0  1  0  0  0  0  0  0
  160.5260  202.2580  145.4860 O   0  0  0  0  0  1  0  0  0  0  0  0
  1 16  1  0  0  0  0
  2 24  1  6  0  0  0
  2 27  1  0  0  0  0
  3  4  1  0  0  0  0
  4 21  2  0  0  0  0
  5 25  1  1  0  0  0
  5  6  1  0  0  0  0
  6 18  1  1  0  0  0
  7 24  1  1  0  0  0
  8 17  1  0  0  0  0
  8 12  1  0  0  0  0
  9 26  1  6  0  0  0
  9 15  1  0  0  0  0
 11  3  2  0  0  0  0
 11 13  1  0  0  0  0
 12 13  2  0  0  0  0
 12  2  1  0  0  0  0
 13 22  1  0  0  0  0
 14 27  1  0  0  0  0
 14 23  1  0  0  0  0
 17 10  1  6  0  0  0
 17  7  1  0  0  0  0
 18 15  1  0  0  0  0
 19  7  1  0  0  0  0
 19 16  1  0  0  0  0
 20 10  1  0  0  0  0
 20  1  1  0  0  0  0
 21 22  1  0  0  0  0
 22 14  2  0  0  0  0
 23 28  2  0  0  0  0
 27  5  1  0  0  0  0
 28  6  1  0  0  0  0
 28  9  1  0  0  0  0
 29 20  1  0  0  0  0
 30 31  1  1  0  0  0
 30 32  1  0  0  0  0
 30 29  1  0  0  0  0
M  END
>  <MODEL>
2

>  <REMARK>
 VINA RESULT:      -7.2      2.625      8.952
  Name = 
  2 active torsions:
  status: ('A' for Active; 'I' for Inactive)
    1  A    between atoms: N_20  and  C_29
    2  A    between atoms: C_29  and  C_30
                            x       y       z     vdW  Elec       q    Type
                         _______ _______ _______ _____ _____    ______ ____

>  <TORSDO>
F 2

$$$$
=
 OpenBabel11122413033D

 32 37  0  0  1  0  0  0  0  0999 V2000
  161.5240  202.6440  148.8380 C   0  0  0  0  0  2  0  0  0  0  0  0
  161.6090  207.1270  151.0790 C   0  0  2  0  0  3  0  0  0  0  0  0
  162.1810  211.1730  148.3040 C   0  0  0  0  0  3  0  0  0  0  0  0
  161.8350  211.9750  149.3890 C   0  0  0  0  0  3  0  0  0  0  0  0
  161.1820  207.4960  153.5710 C   0  0  2  0  0  3  0  0  0  0  0  0
  161.5850  208.5130  154.6400 C   0  0  2  0  0  3  0  0  0  0  0  0
  160.4130  205.4480  149.5600 C   0  0  1  0  0  3  0  0  0  0  0  0
  162.2150  206.9510  148.5820 C   0  0  0  0  0  2  0  0  0  0  0  0
  160.3850  210.4900  155.4910 C   0  0  2  0  0  3  0  0  0  0  0  0
  161.8920  204.6680  147.5650 C   0  0  0  0  0  2  0  0  0  0  0  0
  162.2390  209.7870  148.4530 C   0  0  0  0  0  3  0  0  0  0  0  0
  161.9820  207.8290  149.7920 C   0  0  0  0  0  0  0  0  0  0  0  0
  161.9560  209.1740  149.6880 C   0  0  0  0  0  0  0  0  0  0  0  0
  161.3560  209.4640  152.0050 C   0  0  0  0  0  0  0  0  0  0  0  0
  160.3420  209.3390  156.4470 C   0  0  0  0  0  2  0  0  0  0  0  0
  160.8680  203.2430  150.0920 C   0  0  0  0  0  2  0  0  0  0  0  0
  161.7990  205.5040  148.8490 C   0  0  2  0  0  3  0  0  0  0  0  0
  160.9710  208.2560  155.9770 C   0  0  0  0  0  2  0  0  0  0  0  0
  159.8550  204.1570  149.7400 O   0  0  0  0  0  0  0  0  0  0  0  0
  161.1580  203.3990  147.6350 N   0  0  0  0  0  0  0  0  0  0  0  0
  161.5530  211.3890  150.6230 C   0  0  0  0  0  3  0  0  0  0  0  0
  161.6130  209.9960  150.7960 C   0  0  0  0  0  0  0  0  0  0  0  0
  160.9660  210.3040  153.1040 N   0  0  0  0  0  0  0  0  0  0  0  0
  160.3600  206.2590  150.8690 C   0  0  0  0  0  2  0  0  0  0  0  0
  161.9540  206.2040  153.8130 C   0  0  0  0  0  1  0  0  0  0  0  0
  158.9620  210.9120  155.1680 C   0  0  0  0  0  1  0  0  0  0  0  0
  161.4500  208.0370  152.2200 N   0  0  0  0  0  0  0  0  0  0  0  0
  161.0270  209.8480  154.3160 C   0  0  0  0  0  0  0  0  0  0  0  0
  161.5820  202.6120  146.4890 C   0  0  0  0  0  2  0  0  0  0  0  0
  160.5580  201.5310  146.1880 C   0  0  2  0  0  3  0  0  0  0  0  0
  161.2060  200.1710  146.3310 C   0  0  0  0  0  1  0  0  0  0  0  0
  160.0810  201.6800  144.8860 O   0  0  0  0  0  1  0  0  0  0  0  0
  1 16  1  0  0  0  0
  2 24  1  6  0  0  0
  2 27  1  0  0  0  0
  3 11  2  0  0  0  0
  3  4  1  0  0  0  0
  4 21  2  0  0  0  0
  5 25  1  1  0  0  0
  5  6  1  0  0  0  0
  6 18  1  1  0  0  0
  7 19  1  0  0  0  0
  7 24  1  1  0  0  0
  8 17  1  0  0  0  0
  8 12  1  0  0  0  0
  9 26  1  6  0  0  0
  9 15  1  0  0  0  0
 10 20  1  0  0  0  0
 11 13  1  0  0  0  0
 12  2  1  0  0  0  0
 13 12  2  0  0  0  0
 13 22  1  0  0  0  0
 14 27  1  0  0  0  0
 14 23  1  0  0  0  0
 17 10  1  6  0  0  0
 17  7  1  0  0  0  0
 18 15  1  0  0  0  0
 19 16  1  0  0  0  0
 20  1  1  0  0  0  0
 21 22  1  0  0  0  0
 22 14  2  0  0  0  0
 23 28  2  0  0  0  0
 27  5  1  0  0  0  0
 28  6  1  0  0  0  0
 28  9  1  0  0  0  0
 29 20  1  0  0  0  0
 30 31  1  6  0  0  0
 30 29  1  0  0  0  0
 32 30  1  0  0  0  0
M  END
>  <MODEL>
3

>  <REMARK>
 VINA RESULT:      -6.9      2.740      8.907
  Name = 
  2 active torsions:
  status: ('A' for Active; 'I' for Inactive)
    1  A    between atoms: N_20  and  C_29
    2  A    between atoms: C_29  and  C_30
                            x       y       z     vdW  Elec       q    Type
                         _______ _______ _______ _____ _____    ______ ____

>  <TORSDO>
F 2

$$$$
=
 OpenBabel11122413033D

 32 37  0  0  1  0  0  0  0  0999 V2000
  161.6280  208.4020  147.9790 C   0  0  0  0  0  2  0  0  0  0  0  0
  160.2700  209.5620  152.6620 C   0  0  2  0  0  3  0  0  0  0  0  0
  160.8750  206.1960  156.2260 C   0  0  0  0  0  3  0  0  0  0  0  0
  160.6260  207.1660  157.1940 C   0  0  0  0  0  3  0  0  0  0  0  0
  159.4500  211.8690  153.3900 C   0  0  2  0  0  3  0  0  0  0  0  0
  158.5390  212.4460  154.4760 C   0  0  2  0  0  3  0  0  0  0  0  0
  162.1240  209.0690  150.9670 C   0  0  1  0  0  3  0  0  0  0  0  0
  160.9250  207.1360  152.1010 C   0  0  0  0  0  2  0  0  0  0  0  0
  159.0940  213.4060  156.6770 C   0  0  2  0  0  3  0  0  0  0  0  0
  161.8050  206.7820  149.7670 C   0  0  0  0  0  2  0  0  0  0  0  0
  160.8230  206.5340  154.8740 C   0  0  0  0  0  3  0  0  0  0  0  0
  160.5140  208.1500  153.1460 C   0  0  0  0  0  0  0  0  0  0  0  0
  160.5190  207.8450  154.4600 C   0  0  0  0  0  0  0  0  0  0  0  0
  159.9380  210.0920  155.1110 C   0  0  0  0  0  0  0  0  0  0  0  0
  158.7380  214.4530  155.6690 C   0  0  0  0  0  2  0  0  0  0  0  0
  161.5830  209.6960  148.8070 C   0  0  0  0  0  2  0  0  0  0  0  0
  161.2380  207.8040  150.7610 C   0  0  2  0  0  3  0  0  0  0  0  0
  158.4600  213.9370  154.4670 C   0  0  0  0  0  2  0  0  0  0  0  0
  162.5950  209.7000  149.7870 O   0  0  0  0  0  0  0  0  0  0  0  0
  162.4800  207.3930  148.6170 N   0  0  0  0  0  0  0  0  0  0  0  0
  160.3210  208.4710  156.8080 C   0  0  0  0  0  3  0  0  0  0  0  0
  160.2570  208.8300  155.4500 C   0  0  0  0  0  0  0  0  0  0  0  0
  159.7200  211.0880  156.1230 N   0  0  0  0  0  0  0  0  0  0  0  0
  161.5120  210.0980  151.9360 C   0  0  0  0  0  2  0  0  0  0  0  0
  158.7210  211.9450  152.0540 C   0  0  0  0  0  1  0  0  0  0  0  0
  160.4770  213.7050  157.2280 C   0  0  0  0  0  1  0  0  0  0  0  0
  159.8250  210.4770  153.7210 N   0  0  0  0  0  0  0  0  0  0  0  0
  159.1170  212.1940  155.8180 C   0  0  0  0  0  0  0  0  0  0  0  0
  162.6890  206.3320  147.6450 C   0  0  0  0  0  2  0  0  0  0  0  0
  161.3820  205.6060  147.3730 C   0  0  2  0  0  3  0  0  0  0  0  0
  161.5800  204.1210  147.5880 C   0  0  0  0  0  1  0  0  0  0  0  0
  160.9800  205.8320  146.0570 O   0  0  0  0  0  1  0  0  0  0  0  0
  1 20  1  0  0  0  0
  1 16  1  0  0  0  0
  2 24  1  1  0  0  0
  2 12  1  0  0  0  0
  2 27  1  0  0  0  0
  3  4  1  0  0  0  0
  5 25  1  6  0  0  0
  5 27  1  0  0  0  0
  5  6  1  0  0  0  0
  6 18  1  6  0  0  0
  6 28  1  0  0  0  0
  7 24  1  6  0  0  0
  8 12  1  0  0  0  0
  9 26  1  6  0  0  0
 11  3  2  0  0  0  0
 12 13  2  0  0  0  0
 13 11  1  0  0  0  0
 13 22  1  0  0  0  0
 14 22  2  0  0  0  0
 14 23  1  0  0  0  0
 15  9  1  0  0  0  0
 16 19  1  0  0  0  0
 17 10  1  6  0  0  0
 17  7  1  0  0  0  0
 17  8  1  0  0  0  0
 18 15  1  0  0  0  0
 19  7  1  0  0  0  0
 20 10  1  0  0  0  0
 21  4  2  0  0  0  0
 22 21  1  0  0  0  0
 27 14  1  0  0  0  0
 28 23  2  0  0  0  0
 28  9  1  0  0  0  0
 29 20  1  0  0  0  0
 30 31  1  6  0  0  0
 30 29  1  0  0  0  0
 32 30  1  0  0  0  0
M  END
>  <MODEL>
4

>  <REMARK>
 VINA RESULT:      -6.2      2.787      8.827
  Name = 
  2 active torsions:
  status: ('A' for Active; 'I' for Inactive)
    1  A    between atoms: N_20  and  C_29
    2  A    between atoms: C_29  and  C_30
                            x       y       z     vdW  Elec       q    Type
                         _______ _______ _______ _____ _____    ______ ____

>  <TORSDO>
F 2

$$$$
