=
 OpenBabel11122414143D

 28 32  0  0  1  0  0  0  0  0999 V2000
  160.9870  208.5710  155.8710 C   0  0  2  0  0  3  0  0  0  0  0  0
  156.8190  210.3650  154.3810 O   0  0  0  0  0  1  0  0  0  0  0  0
  162.3090  211.1430  150.4970 O   0  0  0  0  0  0  0  0  0  0  0  0
  162.9930  210.6990  156.2420 C   0  0  0  0  0  2  0  0  0  0  0  0
  160.1930  211.8180  151.2670 N   0  0  0  0  0  0  0  0  0  0  0  0
  160.4530  207.0320  155.0310 S   0  0  0  0  0  0  0  0  0  0  0  0
  157.7450  210.4040  156.5630 C   0  0  0  0  0  1  0  0  0  0  0  0
  157.6120  211.1340  155.2390 C   0  0  1  0  0  0  0  0  0  0  0  0
  157.2790  213.6010  154.5430 C   0  0  2  0  0  3  0  0  0  0  0  0
  159.0100  211.3540  154.6220 C   0  0  2  0  0  3  0  0  0  0  0  0
  160.7750  206.0200  151.3440 C   0  0  0  0  0  1  0  0  0  0  0  0
  159.7270  209.9770  152.7030 C   0  0  1  0  0  3  0  0  0  0  0  0
  157.7270  213.0620  153.1920 C   0  0  0  0  0  2  0  0  0  0  0  0
  156.9000  212.4700  155.5070 C   0  0  0  0  0  2  0  0  0  0  0  0
  160.8350  207.2660  152.2030 C   0  0  2  0  0  3  0  0  0  0  0  0
  161.0530  209.7800  154.9220 C   0  0  2  0  0  3  0  0  0  0  0  0
  161.2930  210.9350  151.2120 C   0  0  0  0  0  0  0  0  0  0  0  0
  156.1890  214.4530  154.3730 O   0  0  0  0  0  1  0  0  0  0  0  0
  161.2200  208.4610  151.3370 C   0  0  0  0  0  2  0  0  0  0  0  0
  161.6450  211.0180  155.6120 C   0  0  0  0  0  2  0  0  0  0  0  0
  162.3300  208.3220  156.5630 C   0  0  0  0  0  2  0  0  0  0  0  0
  162.8280  209.5800  157.2610 C   0  0  0  0  0  2  0  0  0  0  0  0
  162.0140  207.0050  153.5640 S   0  0  0  0  0  0  0  0  0  0  0  0
  159.1750  211.3040  152.1640 C   0  0  1  0  0  3  0  0  0  0  0  0
  161.1380  209.7730  152.1100 C   0  0  2  0  0  3  0  0  0  0  0  0
  158.9980  212.2280  153.3560 C   0  0  2  0  0  3  0  0  0  0  0  0
  160.0230  212.9840  150.4160 C   0  0  0  0  0  1  0  0  0  0  0  0
  159.6910  210.0400  154.2360 C   0  0  1  0  0  3  0  0  0  0  0  0
  1 21  1  6  0  0  0
  2  8  1  0  0  0  0
  3 17  2  0  0  0  0
  4 22  1  0  0  0  0
  5 24  1  0  0  0  0
  6  1  1  0  0  0  0
  8 14  1  0  0  0  0
  8  7  1  1  0  0  0
  9 18  1  6  0  0  0
  9 14  1  0  0  0  0
 10  8  1  0  0  0  0
 11 15  1  0  0  0  0
 12 28  1  0  0  0  0
 13 26  1  0  0  0  0
 13  9  1  0  0  0  0
 15 23  1  0  0  0  0
 16 20  1  0  0  0  0
 16  1  1  0  0  0  0
 17  5  1  0  0  0  0
 17 25  1  0  0  0  0
 19 25  1  0  0  0  0
 19 15  1  0  0  0  0
 20  4  1  0  0  0  0
 21 22  1  0  0  0  0
 23  6  1  0  0  0  0
 24 12  1  0  0  0  0
 24 26  1  0  0  0  0
 25 12  1  0  0  0  0
 26 10  1  0  0  0  0
 27  5  1  0  0  0  0
 28 10  1  0  0  0  0
 28 16  1  0  0  0  0
M  END
>  <MODEL>
1

>  <REMARK>
 VINA RESULT:      -3.0      0.000      0.000
  Name = 
  0 active torsions:
  status: ('A' for Active; 'I' for Inactive)
                            x       y       z     vdW  Elec       q    Type
                         _______ _______ _______ _____ _____    ______ ____

>  <TORSDO>
F 0

$$$$
