=
 OpenBabel11122413173D

 31 35  0  0  1  0  0  0  0  0999 V2000
  160.8200  202.0260  150.7410 C   0  0  0  0  0  0  0  0  0  0  0  0
  161.3650  205.4300  149.0750 C   0  0  0  0  0  0  0  0  0  0  0  0
  161.3940  205.2480  147.7320 C   0  0  2  0  0  3  0  0  0  0  0  0
  160.9480  203.8700  145.7600 C   0  0  0  0  0  0  0  0  0  0  0  0
  161.1720  204.3460  150.0880 C   0  0  0  0  0  0  0  0  0  0  0  0
  160.8740  202.3890  152.0880 C   0  0  0  0  0  3  0  0  0  0  0  0
  161.1410  203.9460  147.0790 C   0  0  0  0  0  3  0  0  0  0  0  0
  161.5220  207.0750  150.8980 C   0  0  0  0  0  0  0  0  0  0  0  0
  160.6240  200.7300  150.3950 F   0  0  0  0  0  0  0  0  0  0  0  0
  161.5770  207.7080  147.3880 N   0  0  0  0  0  0  0  0  0  0  0  0
  160.6220  202.3160  145.0240 Cl  0  0  0  0  0  0  0  0  0  0  0  0
  161.4210  206.0300  151.8270 O   0  0  0  0  0  0  0  0  0  0  0  0
  161.4980  206.8210  149.5800 C   0  0  0  0  0  0  0  0  0  0  0  0
  160.9710  202.9980  149.7490 C   0  0  0  0  0  2  0  0  0  0  0  0
  160.9160  205.0920  144.9310 C   0  0  0  0  0  3  0  0  0  0  0  0
  161.2240  204.6990  151.4500 C   0  0  0  0  0  0  0  0  0  0  0  0
  161.0760  203.7240  152.4410 C   0  0  0  0  0  3  0  0  0  0  0  0
  161.4790  207.9050  148.6440 N   0  0  0  0  0  0  0  0  0  0  0  0
  161.8370  206.3840  146.8260 C   0  0  2  0  0  3  0  0  0  0  0  0
  161.2850  206.2730  145.4320 C   0  0  0  0  0  3  0  0  0  0  0  0
  160.5670  208.1650  153.4180 O   0  0  0  0  0  0  0  0  0  0  0  0
  161.1570  208.9260  152.6050 C   0  0  0  0  0  0  0  0  0  0  0  0
  161.6390  208.4280  151.3520 N   0  0  0  0  0  2  0  0  0  0  0  0
  160.6280  211.0460  155.7100 N   0  0  0  0  0  0  0  0  0  0  0  0
  162.3860  210.5460  154.0720 C   0  0  0  0  0  2  0  0  0  0  0  0
  159.0210  210.7990  152.4160 O   0  0  0  0  0  1  0  0  0  0  0  0
  160.1320  210.6600  157.0180 C   0  0  0  0  0  1  0  0  0  0  0  0
  161.7940  210.2050  155.4410 C   0  0  0  0  0  2  0  0  0  0  0  0
  160.0290  211.0860  153.3380 C   0  0  2  0  0  3  0  0  0  0  0  0
  161.3410  210.3720  152.9660 C   0  0  2  0  0  3  0  0  0  0  0  0
  159.5800  210.7110  154.7490 C   0  0  0  0  0  2  0  0  0  0  0  0
  1  6  2  0  0  0  0
  2 13  1  0  0  0  0
  2  5  2  0  0  0  0
  3  7  1  1  0  0  0
  3  2  1  0  0  0  0
  4  7  2  0  0  0  0
  5 16  1  0  0  0  0
  6 17  1  0  0  0  0
  8 23  1  0  0  0  0
  8 12  1  0  0  0  0
  9  1  1  0  0  0  0
 10 18  2  0  0  0  0
 11  4  1  0  0  0  0
 13  8  2  0  0  0  0
 14  5  1  0  0  0  0
 14  1  1  0  0  0  0
 15 20  2  0  0  0  0
 15  4  1  0  0  0  0
 16 12  1  0  0  0  0
 16 17  2  0  0  0  0
 18 13  1  0  0  0  0
 19 20  1  6  0  0  0
 19 10  1  0  0  0  0
 19  3  1  0  0  0  0
 22 21  2  0  0  0  0
 23 22  1  0  0  0  0
 24 27  1  0  0  0  0
 25 28  1  0  0  0  0
 28 24  1  0  0  0  0
 29 26  1  6  0  0  0
 29 31  1  0  0  0  0
 30 22  1  1  0  0  0
 30 29  1  0  0  0  0
 30 25  1  0  0  0  0
 31 24  1  0  0  0  0
M  END
>  <MODEL>
1

>  <REMARK>
 VINA RESULT:      -9.7      0.000      0.000
  Name = 
  2 active torsions:
  status: ('A' for Active; 'I' for Inactive)
    1  A    between atoms: C_5  and  C_30
    2  A    between atoms: C_10  and  N_16
                            x       y       z     vdW  Elec       q    Type
                         _______ _______ _______ _____ _____    ______ ____

>  <TORSDO>
F 2

$$$$
=
 OpenBabel11122413173D

 31 35  0  0  1  0  0  0  0  0999 V2000
  160.8310  207.2190  154.4100 C   0  0  0  0  0  0  0  0  0  0  0  0
  161.5810  207.7430  150.6920 C   0  0  0  0  0  0  0  0  0  0  0  0
  161.6000  206.5310  150.0850 C   0  0  2  0  0  3  0  0  0  0  0  0
  161.0730  204.1420  150.0860 C   0  0  0  0  0  0  0  0  0  0  0  0
  161.3220  207.9750  152.1470 C   0  0  0  0  0  0  0  0  0  0  0  0
  160.9060  208.5330  154.8740 C   0  0  0  0  0  3  0  0  0  0  0  0
  161.2690  205.2670  150.7770 C   0  0  0  0  0  3  0  0  0  0  0  0
  161.8360  210.1690  150.3730 C   0  0  0  0  0  0  0  0  0  0  0  0
  160.5580  206.2100  155.2730 F   0  0  0  0  0  0  0  0  0  0  0  0
  161.9310  207.6270  147.8740 N   0  0  0  0  0  0  0  0  0  0  0  0
  160.6540  202.6690  150.9350 Cl  0  0  0  0  0  0  0  0  0  0  0  0
  161.6710  210.3510  151.7540 O   0  0  0  0  0  0  0  0  0  0  0  0
  161.7970  208.9390  149.8370 C   0  0  0  0  0  0  0  0  0  0  0  0
  161.0410  206.9430  153.0570 C   0  0  0  0  0  3  0  0  0  0  0  0
  161.1150  204.1460  148.6100 C   0  0  0  0  0  3  0  0  0  0  0  0
  161.3950  209.2970  152.6270 C   0  0  1  0  0  3  0  0  0  0  0  0
  161.1880  209.5700  153.9830 C   0  0  0  0  0  3  0  0  0  0  0  0
  161.8430  208.7770  148.4150 N   0  0  0  0  0  0  0  0  0  0  0  0
  162.1110  206.4080  148.6610 C   0  0  2  0  0  3  0  0  0  0  0  0
  161.5540  205.2130  147.9370 C   0  0  0  0  0  3  0  0  0  0  0  0
  160.2620  212.6130  150.3140 O   0  0  0  0  0  0  0  0  0  0  0  0
  161.2360  212.4920  149.5240 C   0  0  0  0  0  0  0  0  0  0  0  0
  162.0340  211.3020  149.5200 N   0  0  0  0  0  2  0  0  0  0  0  0
  160.1440  213.4790  146.0250 N   0  0  0  0  0  0  0  0  0  0  0  0
  160.3000  214.4530  148.2720 C   0  0  0  0  0  2  0  0  0  0  0  0
  163.2600  212.2550  147.5360 O   0  0  0  0  0  1  0  0  0  0  0  0
  159.2240  212.8130  145.1220 C   0  0  0  0  0  1  0  0  0  0  0  0
  159.4010  213.7460  147.2560 C   0  0  0  0  0  2  0  0  0  0  0  0
  162.2220  213.1520  147.2730 C   0  0  2  0  0  3  0  0  0  0  0  0
  161.5460  213.6150  148.5760 C   0  0  2  0  0  3  0  0  0  0  0  0
  161.2070  212.5220  146.3200 C   0  0  0  0  0  2  0  0  0  0  0  0
  1  6  1  0  0  0  0
  1  9  1  0  0  0  0
  2  5  2  0  0  0  0
  3  2  1  0  0  0  0
  3  7  1  1  0  0  0
  4  7  2  0  0  0  0
  4 11  1  0  0  0  0
  5 16  1  0  0  0  0
  5 14  1  0  0  0  0
  8 12  1  0  0  0  0
 10 18  2  0  0  0  0
 10 19  1  0  0  0  0
 12 16  1  0  0  0  0
 13  8  2  0  0  0  0
 13  2  1  0  0  0  0
 14  1  2  0  0  0  0
 15  4  1  0  0  0  0
 16 17  1  6  0  0  0
 17  6  2  0  0  0  0
 18 13  1  0  0  0  0
 19 20  1  6  0  0  0
 19  3  1  0  0  0  0
 20 15  2  0  0  0  0
 22 21  2  0  0  0  0
 23 22  1  0  0  0  0
 23  8  1  0  0  0  0
 24 31  1  0  0  0  0
 24 28  1  0  0  0  0
 25 30  1  0  0  0  0
 27 24  1  0  0  0  0
 28 25  1  0  0  0  0
 29 26  1  1  0  0  0
 29 30  1  0  0  0  0
 30 22  1  1  0  0  0
 31 29  1  0  0  0  0
M  END
>  <MODEL>
2

>  <REMARK>
 VINA RESULT:      -9.7      3.968      5.772
  Name = 
  2 active torsions:
  status: ('A' for Active; 'I' for Inactive)
    1  A    between atoms: C_5  and  C_30
    2  A    between atoms: C_10  and  N_16
                            x       y       z     vdW  Elec       q    Type
                         _______ _______ _______ _____ _____    ______ ____

>  <TORSDO>
F 2

$$$$
=
 OpenBabel11122413173D

 31 35  0  0  1  0  0  0  0  0999 V2000
  160.7970  202.1080  150.8420 C   0  0  0  0  0  0  0  0  0  0  0  0
  161.4020  205.5760  149.3370 C   0  0  0  0  0  0  0  0  0  0  0  0
  161.4920  205.4480  147.9910 C   0  0  2  0  0  3  0  0  0  0  0  0
  161.1390  204.1470  145.9480 C   0  0  0  0  0  0  0  0  0  0  0  0
  161.1690  204.4520  150.2970 C   0  0  0  0  0  0  0  0  0  0  0  0
  160.7890  202.4170  152.2030 C   0  0  0  0  0  3  0  0  0  0  0  0
  161.2730  204.1720  147.2770 C   0  0  0  0  0  3  0  0  0  0  0  0
  161.4720  207.1480  151.2280 C   0  0  0  0  0  0  0  0  0  0  0  0
  160.6220  200.8260  150.4370 F   0  0  0  0  0  0  0  0  0  0  0  0
  161.6810  207.9190  147.7530 N   0  0  0  0  0  0  0  0  0  0  0  0
  160.8520  202.6230  145.1380 Cl  0  0  0  0  0  0  0  0  0  0  0  0
  161.3330  206.0670  152.1100 O   0  0  0  0  0  0  0  0  0  0  0  0
  161.5080  206.9460  149.9020 C   0  0  0  0  0  0  0  0  0  0  0  0
  160.9880  203.1180  149.8970 C   0  0  0  0  0  2  0  0  0  0  0  0
  161.1390  205.4000  145.1670 C   0  0  0  0  0  3  0  0  0  0  0  0
  161.1590  204.7520  151.6730 C   0  0  0  0  0  0  0  0  0  0  0  0
  160.9710  203.7380  152.6170 C   0  0  0  0  0  3  0  0  0  0  0  0
  161.5260  208.0660  149.0090 N   0  0  0  0  0  0  0  0  0  0  0  0
  161.9710  206.6190  147.1510 C   0  0  2  0  0  3  0  0  0  0  0  0
  161.4820  206.5620  145.7300 C   0  0  0  0  0  3  0  0  0  0  0  0
  160.7340  208.0580  153.8890 O   0  0  0  0  0  0  0  0  0  0  0  0
  161.1920  208.8910  153.0620 C   0  0  0  0  0  0  0  0  0  0  0  0
  161.5640  208.4830  151.7400 N   0  0  0  0  0  2  0  0  0  0  0  0
  158.8410  211.6340  154.2270 N   0  0  0  0  0  0  0  0  0  0  0  0
  160.9150  210.5310  154.9380 C   0  0  0  0  0  2  0  0  0  0  0  0
  160.8490  211.0280  151.2120 O   0  0  0  0  0  1  0  0  0  0  0  0
  157.4010  211.6020  154.4080 C   0  0  0  0  0  1  0  0  0  0  0  0
  159.3910  210.5700  155.0660 C   0  0  0  0  0  2  0  0  0  0  0  0
  160.5980  211.3130  152.5550 C   0  0  2  0  0  3  0  0  0  0  0  0
  161.3350  210.3260  153.4790 C   0  0  2  0  0  3  0  0  0  0  0  0
  159.0940  211.3020  152.8270 C   0  0  0  0  0  2  0  0  0  0  0  0
  1  6  2  0  0  0  0
  2 13  1  0  0  0  0
  2  5  2  0  0  0  0
  3  7  1  1  0  0  0
  3  2  1  0  0  0  0
  4  7  2  0  0  0  0
  5 16  1  0  0  0  0
  6 17  1  0  0  0  0
  8 23  1  0  0  0  0
  8 12  1  0  0  0  0
  9  1  1  0  0  0  0
 10 18  2  0  0  0  0
 11  4  1  0  0  0  0
 13  8  2  0  0  0  0
 14  5  1  0  0  0  0
 14  1  1  0  0  0  0
 15 20  2  0  0  0  0
 15  4  1  0  0  0  0
 16 12  1  0  0  0  0
 16 17  2  0  0  0  0
 18 13  1  0  0  0  0
 19 20  1  6  0  0  0
 19 10  1  0  0  0  0
 19  3  1  0  0  0  0
 22 21  2  0  0  0  0
 23 22  1  0  0  0  0
 24 27  1  0  0  0  0
 24 28  1  0  0  0  0
 25 28  1  0  0  0  0
 29 26  1  6  0  0  0
 29 31  1  0  0  0  0
 29 30  1  0  0  0  0
 30 22  1  6  0  0  0
 30 25  1  0  0  0  0
 31 24  1  0  0  0  0
M  END
>  <MODEL>
3

>  <REMARK>
 VINA RESULT:      -9.4      0.856      1.178
  Name = 
  2 active torsions:
  status: ('A' for Active; 'I' for Inactive)
    1  A    between atoms: C_5  and  C_30
    2  A    between atoms: C_10  and  N_16
                            x       y       z     vdW  Elec       q    Type
                         _______ _______ _______ _____ _____    ______ ____

>  <TORSDO>
F 2

$$$$
=
 OpenBabel11122413173D

 31 35  0  0  1  0  0  0  0  0999 V2000
  161.4070  203.5770  145.7700 C   0  0  0  0  0  0  0  0  0  0  0  0
  161.4310  205.5270  149.0640 C   0  0  0  0  0  0  0  0  0  0  0  0
  161.1130  204.6740  150.0680 C   0  0  2  0  0  3  0  0  0  0  0  0
  160.8350  202.3960  150.9180 C   0  0  0  0  0  0  0  0  0  0  0  0
  161.5300  205.1590  147.6180 C   0  0  0  0  0  0  0  0  0  0  0  0
  161.6920  204.6000  144.8640 C   0  0  0  0  0  3  0  0  0  0  0  0
  160.9100  203.2230  149.8720 C   0  0  0  0  0  3  0  0  0  0  0  0
  162.0230  207.8460  148.4920 C   0  0  0  0  0  0  0  0  0  0  0  0
  161.2070  202.3130  145.3230 F   0  0  0  0  0  0  0  0  0  0  0  0
  161.4870  206.4790  151.7420 N   0  0  0  0  0  0  0  0  0  0  0  0
  160.6240  200.6800  150.6480 Cl  0  0  0  0  0  0  0  0  0  0  0  0
  162.0290  207.4910  147.1350 O   0  0  0  0  0  0  0  0  0  0  0  0
  161.7420  206.9320  149.4340 C   0  0  0  0  0  0  0  0  0  0  0  0
  161.3240  203.8560  147.1360 C   0  0  0  0  0  3  0  0  0  0  0  0
  161.0170  202.9020  152.2930 C   0  0  0  0  0  3  0  0  0  0  0  0
  161.8170  206.1830  146.6950 C   0  0  1  0  0  3  0  0  0  0  0  0
  161.8960  205.9020  145.3270 C   0  0  0  0  0  3  0  0  0  0  0  0
  161.8600  207.2760  150.8200 N   0  0  0  0  0  0  0  0  0  0  0  0
  160.8080  205.2170  151.4530 C   0  0  2  0  0  3  0  0  0  0  0  0
  161.0510  204.2130  152.5460 C   0  0  0  0  0  3  0  0  0  0  0  0
  160.8350  210.2880  147.4540 O   0  0  0  0  0  0  0  0  0  0  0  0
  161.7190  210.3690  148.3470 C   0  0  0  0  0  0  0  0  0  0  0  0
  162.3310  209.1880  148.8830 N   0  0  0  0  0  2  0  0  0  0  0  0
  161.2730  213.9480  147.1650 N   0  0  0  0  0  0  0  0  0  0  0  0
  160.9160  212.5930  149.1800 C   0  0  0  0  0  2  0  0  0  0  0  0
  164.1070  211.6280  147.4420 O   0  0  0  0  0  1  0  0  0  0  0  0
  160.5970  214.4530  145.9850 C   0  0  0  0  0  1  0  0  0  0  0  0
  160.2860  213.1680  147.9100 C   0  0  0  0  0  2  0  0  0  0  0  0
  163.0820  212.4670  147.8850 C   0  0  2  0  0  3  0  0  0  0  0  0
  162.1320  211.7250  148.8410 C   0  0  2  0  0  3  0  0  0  0  0  0
  162.3210  213.0460  146.6940 C   0  0  0  0  0  2  0  0  0  0  0  0
  1 14  2  0  0  0  0
  2 13  1  0  0  0  0
  2  3  1  0  0  0  0
  3  7  1  6  0  0  0
  3 19  1  0  0  0  0
  4 15  1  0  0  0  0
  5  2  2  0  0  0  0
  6 17  2  0  0  0  0
  6  1  1  0  0  0  0
  7  4  2  0  0  0  0
  8 23  1  0  0  0  0
  8 13  2  0  0  0  0
  9  1  1  0  0  0  0
 11  4  1  0  0  0  0
 12  8  1  0  0  0  0
 13 18  1  0  0  0  0
 14  5  1  0  0  0  0
 15 20  2  0  0  0  0
 16 17  1  1  0  0  0
 16 12  1  0  0  0  0
 16  5  1  0  0  0  0
 18 10  2  0  0  0  0
 19 10  1  0  0  0  0
 19 20  1  1  0  0  0
 21 22  2  0  0  0  0
 22 23  1  0  0  0  0
 24 28  1  0  0  0  0
 27 24  1  0  0  0  0
 28 25  1  0  0  0  0
 29 26  1  6  0  0  0
 29 30  1  0  0  0  0
 30 22  1  6  0  0  0
 30 25  1  0  0  0  0
 31 24  1  0  0  0  0
 31 29  1  0  0  0  0
M  END
>  <MODEL>
4

>  <REMARK>
 VINA RESULT:      -9.3      3.810      5.835
  Name = 
  2 active torsions:
  status: ('A' for Active; 'I' for Inactive)
    1  A    between atoms: C_5  and  C_30
    2  A    between atoms: C_10  and  N_16
                            x       y       z     vdW  Elec       q    Type
                         _______ _______ _______ _____ _____    ______ ____

>  <TORSDO>
F 2

$$$$
=
 OpenBabel11122413173D

 31 35  0  0  1  0  0  0  0  0999 V2000
  161.7670  206.8960  147.0950 C   0  0  0  0  0  0  0  0  0  0  0  0
  161.1840  205.2640  150.5090 C   0  0  0  0  0  0  0  0  0  0  0  0
  160.9350  203.9460  150.3160 C   0  0  2  0  0  3  0  0  0  0  0  0
  160.9810  201.9580  148.8900 C   0  0  0  0  0  0  0  0  0  0  0  0
  161.4640  206.2570  149.4260 C   0  0  0  0  0  0  0  0  0  0  0  0
  161.9460  208.2270  147.4750 C   0  0  0  0  0  3  0  0  0  0  0  0
  161.0010  203.2890  148.9930 C   0  0  0  0  0  3  0  0  0  0  0  0
  161.4160  207.0540  152.1810 C   0  0  0  0  0  0  0  0  0  0  0  0
  161.8240  206.5510  145.7860 F   0  0  0  0  0  0  0  0  0  0  0  0
  160.8550  203.5840  152.7780 N   0  0  0  0  0  0  0  0  0  0  0  0
  161.0900  201.2130  147.3100 Cl  0  0  0  0  0  0  0  0  0  0  0  0
  161.5950  207.9780  151.1410 O   0  0  0  0  0  0  0  0  0  0  0  0
  161.2190  205.7540  151.9120 C   0  0  0  0  0  0  0  0  0  0  0  0
  161.5250  205.9200  148.0640 C   0  0  0  0  0  2  0  0  0  0  0  0
  160.9600  201.1080  150.0980 C   0  0  0  0  0  3  0  0  0  0  0  0
  161.6470  207.6030  149.7970 C   0  0  0  0  0  0  0  0  0  0  0  0
  161.8860  208.5790  148.8250 C   0  0  0  0  0  3  0  0  0  0  0  0
  161.1610  204.8040  152.9820 N   0  0  0  0  0  0  0  0  0  0  0  0
  160.4280  203.0960  151.4680 C   0  0  2  0  0  3  0  0  0  0  0  0
  160.7480  201.6350  151.3060 C   0  0  0  0  0  3  0  0  0  0  0  0
  160.4320  209.5770  153.2390 O   0  0  0  0  0  0  0  0  0  0  0  0
  160.9570  208.7460  154.0270 C   0  0  0  0  0  0  0  0  0  0  0  0
  161.4570  207.4930  153.5440 N   0  0  0  0  0  2  0  0  0  0  0  0
  159.5710  211.4630  156.2860 N   0  0  0  0  0  0  0  0  0  0  0  0
  159.6950  209.0140  156.1770 C   0  0  0  0  0  2  0  0  0  0  0  0
  162.8980  210.5910  154.9950 O   0  0  0  0  0  1  0  0  0  0  0  0
  158.7130  212.5860  155.9600 C   0  0  0  0  0  1  0  0  0  0  0  0
  158.8580  210.2570  155.8680 C   0  0  0  0  0  2  0  0  0  0  0  0
  161.7320  210.4490  155.7510 C   0  0  2  0  0  3  0  0  0  0  0  0
  161.0600  209.0900  155.4850 C   0  0  2  0  0  3  0  0  0  0  0  0
  160.7720  211.6020  155.4660 C   0  0  0  0  0  2  0  0  0  0  0  0
  1  6  2  0  0  0  0
  1 14  1  0  0  0  0
  2 13  1  0  0  0  0
  3  7  1  6  0  0  0
  3  2  1  0  0  0  0
  3 19  1  0  0  0  0
  4  7  2  0  0  0  0
  4 15  1  0  0  0  0
  5 16  1  0  0  0  0
  5  2  2  0  0  0  0
  6 17  1  0  0  0  0
  8 23  1  0  0  0  0
  9  1  1  0  0  0  0
 10 18  2  0  0  0  0
 11  4  1  0  0  0  0
 12  8  1  0  0  0  0
 13  8  2  0  0  0  0
 13 18  1  0  0  0  0
 14  5  1  0  0  0  0
 15 20  2  0  0  0  0
 16 12  1  0  0  0  0
 17 16  2  0  0  0  0
 19 20  1  6  0  0  0
 19 10  1  0  0  0  0
 21 22  2  0  0  0  0
 23 22  1  0  0  0  0
 27 24  1  0  0  0  0
 28 25  1  0  0  0  0
 28 24  1  0  0  0  0
 29 26  1  6  0  0  0
 30 22  1  6  0  0  0
 30 29  1  0  0  0  0
 30 25  1  0  0  0  0
 31 29  1  0  0  0  0
 31 24  1  0  0  0  0
M  END
>  <MODEL>
5

>  <REMARK>
 VINA RESULT:      -9.0      2.528      4.228
  Name = 
  2 active torsions:
  status: ('A' for Active; 'I' for Inactive)
    1  A    between atoms: C_5  and  C_30
    2  A    between atoms: C_10  and  N_16
                            x       y       z     vdW  Elec       q    Type
                         _______ _______ _______ _____ _____    ______ ____

>  <TORSDO>
F 2

$$$$
=
 OpenBabel11122413173D

 31 35  0  0  1  0  0  0  0  0999 V2000
  160.6550  212.6890  150.8010 C   0  0  0  0  0  0  0  0  0  0  0  0
  161.5250  209.0040  151.3660 C   0  0  0  0  0  0  0  0  0  0  0  0
  161.2550  208.6940  152.6570 C   0  0  2  0  0  3  0  0  0  0  0  0
  160.1690  209.2120  154.7880 C   0  0  0  0  0  0  0  0  0  0  0  0
  161.3240  210.3480  150.7410 C   0  0  0  0  0  0  0  0  0  0  0  0
  161.0420  212.8420  149.4690 C   0  0  0  0  0  3  0  0  0  0  0  0
  160.6280  209.6370  153.6080 C   0  0  0  0  0  3  0  0  0  0  0  0
  162.3580  208.1520  149.2130 C   0  0  0  0  0  0  0  0  0  0  0  0
  160.1440  213.7430  151.4840 F   0  0  0  0  0  0  0  0  0  0  0  0
  161.8500  206.3150  152.2270 N   0  0  0  0  0  0  0  0  0  0  0  0
  159.4050  210.3490  155.8770 Cl  0  0  0  0  0  0  0  0  0  0  0  0
  162.2350  209.4410  148.6750 O   0  0  0  0  0  0  0  0  0  0  0  0
  162.0270  207.9120  150.4910 C   0  0  0  0  0  0  0  0  0  0  0  0
  160.7980  211.4520  151.4330 C   0  0  0  0  0  3  0  0  0  0  0  0
  160.2180  207.7790  155.1450 C   0  0  0  0  0  3  0  0  0  0  0  0
  161.7100  210.5150  149.3970 C   0  0  1  0  0  3  0  0  0  0  0  0
  161.5690  211.7560  148.7690 C   0  0  0  0  0  3  0  0  0  0  0  0
  162.0390  206.5700  150.9930 N   0  0  0  0  0  0  0  0  0  0  0  0
  161.7280  207.3700  153.2320 C   0  0  2  0  0  3  0  0  0  0  0  0
  160.9040  206.9080  154.4010 C   0  0  0  0  0  3  0  0  0  0  0  0
  160.8160  206.6280  147.2750 O   0  0  0  0  0  0  0  0  0  0  0  0
  162.0330  206.3490  147.4450 C   0  0  0  0  0  0  0  0  0  0  0  0
  162.8260  207.0750  148.3930 N   0  0  0  0  0  2  0  0  0  0  0  0
  160.8110  203.9060  144.8100 N   0  0  0  0  0  0  0  0  0  0  0  0
  162.6110  205.5410  145.1430 C   0  0  0  0  0  2  0  0  0  0  0  0
  161.9000  203.6390  148.3070 O   0  0  0  0  0  1  0  0  0  0  0  0
  159.4880  203.7550  144.2340 C   0  0  0  0  0  1  0  0  0  0  0  0
  161.2160  205.2900  144.5660 C   0  0  0  0  0  2  0  0  0  0  0  0
  162.0240  203.8570  146.9340 C   0  0  2  0  0  3  0  0  0  0  0  0
  162.6430  205.2360  146.6440 C   0  0  2  0  0  3  0  0  0  0  0  0
  160.6650  203.7100  146.2500 C   0  0  0  0  0  2  0  0  0  0  0  0
  1 14  2  0  0  0  0
  1  9  1  0  0  0  0
  2  3  1  0  0  0  0
  3 19  1  0  0  0  0
  3  7  1  1  0  0  0
  4 15  1  0  0  0  0
  4 11  1  0  0  0  0
  5  2  2  0  0  0  0
  5 14  1  0  0  0  0
  6  1  1  0  0  0  0
  7  4  2  0  0  0  0
  8 13  2  0  0  0  0
 10 19  1  0  0  0  0
 12  8  1  0  0  0  0
 12 16  1  0  0  0  0
 13 18  1  0  0  0  0
 13  2  1  0  0  0  0
 16 17  1  6  0  0  0
 16  5  1  0  0  0  0
 17  6  2  0  0  0  0
 18 10  2  0  0  0  0
 19 20  1  1  0  0  0
 20 15  2  0  0  0  0
 21 22  2  0  0  0  0
 22 23  1  0  0  0  0
 23  8  1  0  0  0  0
 24 31  1  0  0  0  0
 25 30  1  0  0  0  0
 27 24  1  0  0  0  0
 28 24  1  0  0  0  0
 28 25  1  0  0  0  0
 29 26  1  1  0  0  0
 30 29  1  0  0  0  0
 30 22  1  1  0  0  0
 31 29  1  0  0  0  0
M  END
>  <MODEL>
6

>  <REMARK>
 VINA RESULT:      -7.7      4.385      8.851
  Name = 
  2 active torsions:
  status: ('A' for Active; 'I' for Inactive)
    1  A    between atoms: C_5  and  C_30
    2  A    between atoms: C_10  and  N_16
                            x       y       z     vdW  Elec       q    Type
                         _______ _______ _______ _____ _____    ______ ____

>  <TORSDO>
F 2

$$$$
=
 OpenBabel11122413173D

 31 35  0  0  1  0  0  0  0  0999 V2000
  161.2220  204.8930  145.8910 C   0  0  0  0  0  0  0  0  0  0  0  0
  161.3300  205.4110  149.6830 C   0  0  0  0  0  0  0  0  0  0  0  0
  161.1050  204.2170  150.2830 C   0  0  2  0  0  3  0  0  0  0  0  0
  160.9770  201.7760  150.1860 C   0  0  0  0  0  0  0  0  0  0  0  0
  161.3690  205.6390  148.2050 C   0  0  0  0  0  0  0  0  0  0  0  0
  161.4110  206.2040  145.4480 C   0  0  0  0  0  3  0  0  0  0  0  0
  160.9590  202.9460  149.5430 C   0  0  0  0  0  3  0  0  0  0  0  0
  161.7830  207.8030  150.0420 C   0  0  0  0  0  0  0  0  0  0  0  0
  161.0570  203.8920  144.9930 F   0  0  0  0  0  0  0  0  0  0  0  0
  161.4830  205.2520  152.5170 N   0  0  0  0  0  0  0  0  0  0  0  0
  160.8310  200.2890  149.2740 Cl  0  0  0  0  0  0  0  0  0  0  0  0
  161.7340  208.0030  148.6550 O   0  0  0  0  0  0  0  0  0  0  0  0
  161.5950  206.5800  150.5620 C   0  0  0  0  0  0  0  0  0  0  0  0
  161.1980  204.6150  147.2590 C   0  0  0  0  0  2  0  0  0  0  0  0
  161.2090  201.7190  151.6430 C   0  0  0  0  0  3  0  0  0  0  0  0
  161.5590  206.9570  147.7460 C   0  0  0  0  0  0  0  0  0  0  0  0
  161.5790  207.2340  146.3760 C   0  0  0  0  0  3  0  0  0  0  0  0
  161.7690  206.3660  151.9670 N   0  0  0  0  0  0  0  0  0  0  0  0
  160.8490  204.1600  151.7790 C   0  0  2  0  0  3  0  0  0  0  0  0
  161.1950  202.8290  152.3850 C   0  0  0  0  0  3  0  0  0  0  0  0
  160.0810  208.7920  152.1820 O   0  0  0  0  0  0  0  0  0  0  0  0
  161.1840  209.3610  151.9630 C   0  0  0  0  0  0  0  0  0  0  0  0
  162.0490  208.9050  150.9160 N   0  0  0  0  0  2  0  0  0  0  0  0
  159.8270  211.0360  155.0880 N   0  0  0  0  0  0  0  0  0  0  0  0
  161.9310  210.1000  154.2400 C   0  0  0  0  0  2  0  0  0  0  0  0
  160.0820  211.9520  151.5400 O   0  0  0  0  0  1  0  0  0  0  0  0
  158.6580  210.7030  155.8800 C   0  0  0  0  0  1  0  0  0  0  0  0
  160.6660  209.8390  155.0590 C   0  0  0  0  0  2  0  0  0  0  0  0
  160.5310  211.6620  152.8300 C   0  0  2  0  0  3  0  0  0  0  0  0
  161.5780  210.5340  152.8140 C   0  0  2  0  0  3  0  0  0  0  0  0
  159.3510  211.3040  153.7330 C   0  0  0  0  0  2  0  0  0  0  0  0
  1 14  1  0  0  0  0
  2  3  1  0  0  0  0
  2 13  1  0  0  0  0
  3  7  1  6  0  0  0
  3 19  1  0  0  0  0
  4 15  1  0  0  0  0
  5  2  2  0  0  0  0
  6  1  2  0  0  0  0
  6 17  1  0  0  0  0
  7  4  2  0  0  0  0
  8 13  2  0  0  0  0
  8 23  1  0  0  0  0
  9  1  1  0  0  0  0
 11  4  1  0  0  0  0
 12  8  1  0  0  0  0
 13 18  1  0  0  0  0
 14  5  1  0  0  0  0
 15 20  2  0  0  0  0
 16  5  1  0  0  0  0
 16 12  1  0  0  0  0
 17 16  2  0  0  0  0
 18 10  2  0  0  0  0
 19 20  1  1  0  0  0
 19 10  1  0  0  0  0
 22 21  2  0  0  0  0
 23 22  1  0  0  0  0
 24 27  1  0  0  0  0
 25 28  1  0  0  0  0
 28 24  1  0  0  0  0
 29 26  1  6  0  0  0
 29 31  1  0  0  0  0
 30 22  1  6  0  0  0
 30 29  1  0  0  0  0
 30 25  1  0  0  0  0
 31 24  1  0  0  0  0
M  END
>  <MODEL>
7

>  <REMARK>
 VINA RESULT:      -7.6      1.925      4.011
  Name = 
  2 active torsions:
  status: ('A' for Active; 'I' for Inactive)
    1  A    between atoms: C_5  and  C_30
    2  A    between atoms: C_10  and  N_16
                            x       y       z     vdW  Elec       q    Type
                         _______ _______ _______ _____ _____    ______ ____

>  <TORSDO>
F 2

$$$$
