=
 OpenBabel11122412373D

 30 36  0  0  1  0  0  0  0  0999 V2000
  161.4590  207.7480  151.2770 C   0  0  0  0  0  0  0  0  0  0  0  0
  161.7690  210.2050  150.9650 C   0  0  0  0  0  0  0  0  0  0  0  0
  162.1540  206.6940  147.2310 C   0  0  0  0  0  2  0  0  0  0  0  0
  161.4550  206.3380  150.7820 C   0  0  0  0  0  0  0  0  0  0  0  0
  161.2830  207.9810  152.6440 O   0  0  0  0  0  0  0  0  0  0  0  0
  161.1160  204.7020  154.0090 O   0  0  0  0  0  0  0  0  0  0  0  0
  160.1910  203.5940  150.2420 C   0  0  1  0  0  3  0  0  0  0  0  0
  161.0800  205.6080  153.1310 C   0  0  0  0  0  0  0  0  0  0  0  0
  160.5910  203.9940  148.8730 N   0  0  2  0  0  0  0  0  0  0  0  0
  162.1570  205.1650  147.3400 C   0  0  1  0  0  3  0  0  0  0  0  0
  160.7130  207.0170  153.5250 C   0  0  1  0  0  3  0  0  0  0  0  0
  161.2730  205.2730  151.7440 N   0  0  0  0  0  0  0  0  0  0  0  0
  161.7100  211.2050  149.8900 N   0  0  0  0  0  0  0  0  0  0  0  0
  160.7850  202.7400  148.1520 C   0  0  0  0  0  2  0  0  0  0  0  0
  159.7940  202.1300  150.2230 C   0  0  0  0  0  2  0  0  0  0  0  0
  163.2950  210.4120  151.8630 Cl  0  0  0  0  0  0  0  0  0  0  0  0
  161.8730  207.1730  148.5660 N   0  0  0  0  0  0  0  0  0  0  0  0
  161.8060  210.9320  148.6220 C   0  0  0  0  0  3  0  0  0  0  0  0
  161.6650  208.7880  150.4450 C   0  0  0  0  0  0  0  0  0  0  0  0
  161.6710  206.1070  149.4690 C   0  0  0  0  0  0  0  0  0  0  0  0
  163.5270  204.6350  146.9730 C   0  0  0  0  0  1  0  0  0  0  0  0
  161.8290  204.7860  148.8000 C   0  0  1  0  0  3  0  0  0  0  0  0
  159.8730  201.7160  148.7800 C   0  0  0  0  0  2  0  0  0  0  0  0
  162.5840  203.2390  151.1870 C   0  0  0  0  0  1  0  0  0  0  0  0
  161.9180  209.5470  148.1420 C   0  0  0  0  0  3  0  0  0  0  0  0
  161.8460  208.5330  149.0030 C   0  0  2  0  0  3  0  0  0  0  0  0
  161.2040  203.8570  151.3750 C   0  0  2  0  0  3  0  0  0  0  0  0
  161.1250  207.3380  154.9560 C   0  0  0  0  0  3  0  0  0  0  0  0
  160.4600  208.6280  155.3970 C   0  0  0  0  0  2  0  0  0  0  0  0
  159.9020  207.2970  155.8510 C   0  0  0  0  0  2  0  0  0  0  0  0
  1  5  1  0  0  0  0
  2 16  1  0  0  0  0
  3 10  1  0  0  0  0
  3 17  1  0  0  0  0
  4  1  1  0  0  0  0
  4 12  1  0  0  0  0
  5 11  1  0  0  0  0
  7 15  1  6  0  0  0
  7 27  1  0  0  0  0
  8 11  1  0  0  0  0
  8  6  2  0  0  0  0
  9 14  1  6  0  0  0
  9  7  1  0  0  0  0
 10 21  1  1  0  0  0
 10 22  1  0  0  0  0
 11 28  1  1  0  0  0
 12  8  1  0  0  0  0
 13  2  2  0  0  0  0
 14 23  1  0  0  0  0
 17 26  1  0  0  0  0
 17 20  1  0  0  0  0
 18 13  1  0  0  0  0
 19  2  1  0  0  0  0
 19  1  2  0  0  0  0
 20  4  2  0  0  0  0
 22  9  1  0  0  0  0
 22 20  1  1  0  0  0
 23 15  1  0  0  0  0
 25 18  2  0  0  0  0
 26 25  1  6  0  0  0
 26 19  1  0  0  0  0
 27 24  1  6  0  0  0
 27 12  1  0  0  0  0
 28 29  1  0  0  0  0
 28 30  1  0  0  0  0
 29 30  1  0  0  0  0
M  END
>  <MODEL>
1

>  <REMARK>
 VINA RESULT:      -5.2      0.000      0.000
  Name = 
  1 active torsions:
  status: ('A' for Active; 'I' for Inactive)
    1  A    between atoms: C_11  and  C_28
                            x       y       z     vdW  Elec       q    Type
                         _______ _______ _______ _____ _____    ______ ____

>  <TORSDO>
F 1

$$$$
=
 OpenBabel11122412373D

 30 36  0  0  1  0  0  0  0  0999 V2000
  161.4160  208.5920  151.8220 C   0  0  0  0  0  0  0  0  0  0  0  0
  162.1200  208.3640  149.4380 C   0  0  2  0  0  3  0  0  0  0  0  0
  160.3380  212.6840  151.5780 C   0  0  0  0  0  2  0  0  0  0  0  0
  160.8490  209.3630  152.9700 C   0  0  0  0  0  0  0  0  0  0  0  0
  161.6760  207.2300  151.9900 O   0  0  0  0  0  0  0  0  0  0  0  0
  160.5150  206.5860  155.2890 O   0  0  0  0  0  0  0  0  0  0  0  0
  160.8990  210.5710  155.7900 C   0  0  1  0  0  3  0  0  0  0  0  0
  160.9090  207.2590  154.2970 C   0  0  0  0  0  0  0  0  0  0  0  0
  160.6890  211.7840  154.9680 N   0  0  2  0  0  0  0  0  0  0  0  0
  159.7210  212.8910  152.9650 C   0  0  1  0  0  3  0  0  0  0  0  0
  161.8140  206.6220  153.2720 C   0  0  1  0  0  3  0  0  0  0  0  0
  160.5920  208.6610  154.2080 N   0  0  0  0  0  0  0  0  0  0  0  0
  162.5710  209.2120  148.3270 N   0  0  0  0  0  0  0  0  0  0  0  0
  160.0030  212.7250  155.8490 C   0  0  0  0  0  2  0  0  0  0  0  0
  160.6730  210.9260  157.2490 C   0  0  0  0  0  2  0  0  0  0  0  0
  160.8110  207.3020  148.8580 Cl  0  0  0  0  0  0  0  0  0  0  0  0
  160.7940  211.3120  151.5610 N   0  0  0  0  0  0  0  0  0  0  0  0
  162.3690  210.4950  148.2460 C   0  0  0  0  0  3  0  0  0  0  0  0
  161.6420  209.1700  150.6250 C   0  0  0  0  0  0  0  0  0  0  0  0
  160.5530  210.6700  152.7960 C   0  0  0  0  0  0  0  0  0  0  0  0
  158.2510  213.2270  152.8200 C   0  0  0  0  0  1  0  0  0  0  0  0
  159.8740  211.5760  153.7610 C   0  0  1  0  0  3  0  0  0  0  0  0
  160.4280  212.4090  157.2610 C   0  0  0  0  0  2  0  0  0  0  0  0
  158.5700  209.4960  155.3830 C   0  0  0  0  0  1  0  0  0  0  0  0
  161.7070  211.2350  149.3300 C   0  0  0  0  0  3  0  0  0  0  0  0
  161.3680  210.6100  150.4570 C   0  0  0  0  0  0  0  0  0  0  0  0
  160.0840  209.3170  155.4150 C   0  0  2  0  0  3  0  0  0  0  0  0
  161.5720  205.1230  153.1470 C   0  0  0  0  0  3  0  0  0  0  0  0
  160.4920  204.8690  152.1140 C   0  0  0  0  0  2  0  0  0  0  0  0
  161.9470  204.6690  151.7500 C   0  0  0  0  0  2  0  0  0  0  0  0
  1  5  1  0  0  0  0
  1  4  1  0  0  0  0
  2 16  1  6  0  0  0
  2 19  1  0  0  0  0
  3 10  1  0  0  0  0
  4 12  1  0  0  0  0
  5 11  1  0  0  0  0
  7 15  1  1  0  0  0
  8  6  2  0  0  0  0
  9  7  1  0  0  0  0
  9 14  1  1  0  0  0
 10 21  1  6  0  0  0
 10 22  1  0  0  0  0
 11 28  1  6  0  0  0
 11  8  1  0  0  0  0
 12  8  1  0  0  0  0
 12 27  1  0  0  0  0
 13  2  1  0  0  0  0
 14 23  1  0  0  0  0
 15 23  1  0  0  0  0
 17  3  1  0  0  0  0
 17 20  1  0  0  0  0
 18 13  2  0  0  0  0
 18 25  1  0  0  0  0
 19  1  2  0  0  0  0
 20  4  2  0  0  0  0
 22 20  1  6  0  0  0
 22  9  1  0  0  0  0
 25 26  2  0  0  0  0
 26 19  1  0  0  0  0
 26 17  1  0  0  0  0
 27 24  1  6  0  0  0
 27  7  1  0  0  0  0
 29 28  1  0  0  0  0
 30 29  1  0  0  0  0
 30 28  1  0  0  0  0
M  END
>  <MODEL>
2

>  <REMARK>
 VINA RESULT:      -4.9      2.717      6.719
  Name = 
  1 active torsions:
  status: ('A' for Active; 'I' for Inactive)
    1  A    between atoms: C_11  and  C_28
                            x       y       z     vdW  Elec       q    Type
                         _______ _______ _______ _____ _____    ______ ____

>  <TORSDO>
F 1

$$$$
=
 OpenBabel11122412373D

 30 36  0  0  1  0  0  0  0  0999 V2000
  161.1850  209.6850  152.1010 C   0  0  0  0  0  0  0  0  0  0  0  0
  162.1280  209.3510  149.8140 C   0  0  2  0  0  3  0  0  0  0  0  0
  159.6510  213.5700  151.3880 C   0  0  0  0  0  2  0  0  0  0  0  0
  160.4270  210.4690  153.1220 C   0  0  0  0  0  0  0  0  0  0  0  0
  161.5910  208.3850  152.4170 O   0  0  0  0  0  0  0  0  0  0  0  0
  160.2170  207.8750  155.6570 O   0  0  0  0  0  0  0  0  0  0  0  0
  160.0720  211.9030  155.8120 C   0  0  1  0  0  3  0  0  0  0  0  0
  160.6170  208.5080  154.6410 C   0  0  0  0  0  0  0  0  0  0  0  0
  159.7940  213.0080  154.8650 N   0  0  2  0  0  0  0  0  0  0  0  0
  158.8880  213.8110  152.6960 C   0  0  1  0  0  3  0  0  0  0  0  0
  161.6820  207.9080  153.7570 C   0  0  1  0  0  3  0  0  0  0  0  0
  160.1430  209.8450  154.3960 N   0  0  0  0  0  0  0  0  0  0  0  0
  162.5750  210.1540  148.6680 N   0  0  0  0  0  0  0  0  0  0  0  0
  158.9220  213.9230  155.5960 C   0  0  0  0  0  2  0  0  0  0  0  0
  159.6720  212.3460  157.2070 C   0  0  0  0  0  2  0  0  0  0  0  0
  161.0150  208.0860  149.2320 Cl  0  0  0  0  0  0  0  0  0  0  0  0
  160.2680  212.2710  151.5370 N   0  0  0  0  0  0  0  0  0  0  0  0
  162.2280  211.3900  148.4520 C   0  0  0  0  0  3  0  0  0  0  0  0
  161.4500  210.1860  150.8780 C   0  0  0  0  0  0  0  0  0  0  0  0
  159.9940  211.7080  152.8030 C   0  0  0  0  0  0  0  0  0  0  0  0
  157.4080  213.9440  152.4000 C   0  0  0  0  0  1  0  0  0  0  0  0
  159.1240  212.5970  153.6210 C   0  0  1  0  0  3  0  0  0  0  0  0
  159.2510  213.7820  157.0600 C   0  0  0  0  0  2  0  0  0  0  0  0
  157.9360  210.5100  155.3200 C   0  0  0  0  0  1  0  0  0  0  0  0
  161.3850  212.1260  149.4040 C   0  0  0  0  0  3  0  0  0  0  0  0
  161.0220  211.5600  150.5540 C   0  0  0  0  0  0  0  0  0  0  0  0
  159.4510  210.5290  155.4910 C   0  0  2  0  0  3  0  0  0  0  0  0
  161.6350  206.3860  153.7540 C   0  0  0  0  0  3  0  0  0  0  0  0
  160.8410  205.9070  152.5540 C   0  0  0  0  0  2  0  0  0  0  0  0
  162.3540  205.8640  152.5260 C   0  0  0  0  0  2  0  0  0  0  0  0
  1  5  1  0  0  0  0
  1  4  1  0  0  0  0
  2 16  1  6  0  0  0
  2 19  1  0  0  0  0
  3 17  1  0  0  0  0
  3 10  1  0  0  0  0
  4 12  1  0  0  0  0
  5 11  1  0  0  0  0
  7 15  1  1  0  0  0
  8  6  2  0  0  0  0
  9 14  1  1  0  0  0
  9  7  1  0  0  0  0
 10 21  1  6  0  0  0
 10 22  1  0  0  0  0
 11 28  1  6  0  0  0
 11  8  1  0  0  0  0
 12  8  1  0  0  0  0
 12 27  1  0  0  0  0
 13  2  1  0  0  0  0
 14 23  1  0  0  0  0
 17 20  1  0  0  0  0
 18 13  2  0  0  0  0
 18 25  1  0  0  0  0
 19  1  2  0  0  0  0
 20  4  2  0  0  0  0
 22 20  1  6  0  0  0
 22  9  1  0  0  0  0
 23 15  1  0  0  0  0
 25 26  2  0  0  0  0
 26 19  1  0  0  0  0
 26 17  1  0  0  0  0
 27 24  1  6  0  0  0
 27  7  1  0  0  0  0
 29 28  1  0  0  0  0
 30 29  1  0  0  0  0
 30 28  1  0  0  0  0
M  END
>  <MODEL>
3

>  <REMARK>
 VINA RESULT:      -4.6      3.367      7.317
  Name = 
  1 active torsions:
  status: ('A' for Active; 'I' for Inactive)
    1  A    between atoms: C_11  and  C_28
                            x       y       z     vdW  Elec       q    Type
                         _______ _______ _______ _____ _____    ______ ____

>  <TORSDO>
F 1

$$$$
=
 OpenBabel11122412373D

 30 36  0  0  1  0  0  0  0  0999 V2000
  160.3880  209.4770  153.5760 C   0  0  0  0  0  0  0  0  0  0  0  0
  159.6840  211.5840  154.7150 C   0  0  0  0  0  0  0  0  0  0  0  0
  161.2070  211.2560  149.8170 C   0  0  0  0  0  2  0  0  0  0  0  0
  160.9120  208.7150  152.4030 C   0  0  0  0  0  0  0  0  0  0  0  0
  160.2140  208.8070  154.7900 O   0  0  0  0  0  0  0  0  0  0  0  0
  161.4340  205.5410  154.0910 O   0  0  0  0  0  0  0  0  0  0  0  0
  160.8060  206.5450  150.2350 C   0  0  1  0  0  3  0  0  0  0  0  0
  160.9930  206.7000  153.8600 C   0  0  0  0  0  0  0  0  0  0  0  0
  160.9340  207.7650  149.4060 N   0  0  2  0  0  0  0  0  0  0  0  0
  161.8190  210.0630  149.0740 C   0  0  1  0  0  3  0  0  0  0  0  0
  160.1230  207.3880  154.8830 C   0  0  1  0  0  3  0  0  0  0  0  0
  161.2210  207.3130  152.5770 N   0  0  0  0  0  0  0  0  0  0  0  0
  159.1730  212.9170  154.3690 N   0  0  0  0  0  0  0  0  0  0  0  0
  161.5660  207.3180  148.1680 C   0  0  0  0  0  2  0  0  0  0  0  0
  161.0180  205.3310  149.3500 C   0  0  0  0  0  2  0  0  0  0  0  0
  161.0520  211.7660  155.8420 Cl  0  0  0  0  0  0  0  0  0  0  0  0
  160.8370  210.7480  151.1190 N   0  0  0  0  0  0  0  0  0  0  0  0
  159.2940  213.4740  153.2000 C   0  0  0  0  0  3  0  0  0  0  0  0
  160.1170  210.7960  153.4990 C   0  0  0  0  0  0  0  0  0  0  0  0
  161.1250  209.3710  151.2410 C   0  0  0  0  0  0  0  0  0  0  0  0
  163.2640  210.3670  148.7350 C   0  0  0  0  0  1  0  0  0  0  0  0
  161.7530  208.8320  150.0040 C   0  0  1  0  0  3  0  0  0  0  0  0
  161.1710  205.8780  147.9580 C   0  0  0  0  0  2  0  0  0  0  0  0
  163.1950  206.5920  151.2530 C   0  0  0  0  0  1  0  0  0  0  0  0
  159.9160  212.7630  152.0730 C   0  0  0  0  0  3  0  0  0  0  0  0
  160.3000  211.4950  152.2130 C   0  0  2  0  0  3  0  0  0  0  0  0
  161.6950  206.4520  151.4910 C   0  0  2  0  0  3  0  0  0  0  0  0
  160.4560  206.9530  156.3040 C   0  0  0  0  0  3  0  0  0  0  0  0
  161.5770  207.8180  156.8470 C   0  0  0  0  0  2  0  0  0  0  0  0
  160.1470  208.0880  157.2610 C   0  0  0  0  0  2  0  0  0  0  0  0
  1  5  1  0  0  0  0
  2 16  1  0  0  0  0
  3 17  1  0  0  0  0
  4 12  1  0  0  0  0
  4  1  1  0  0  0  0
  5 11  1  0  0  0  0
  7 15  1  6  0  0  0
  7 27  1  0  0  0  0
  8  6  2  0  0  0  0
  8 11  1  0  0  0  0
  9 14  1  6  0  0  0
  9 22  1  0  0  0  0
  9  7  1  0  0  0  0
 10 21  1  1  0  0  0
 10  3  1  0  0  0  0
 10 22  1  0  0  0  0
 11 28  1  1  0  0  0
 12  8  1  0  0  0  0
 13  2  2  0  0  0  0
 17 20  1  0  0  0  0
 17 26  1  0  0  0  0
 18 13  1  0  0  0  0
 19  1  2  0  0  0  0
 19  2  1  0  0  0  0
 20  4  2  0  0  0  0
 22 20  1  1  0  0  0
 23 14  1  0  0  0  0
 23 15  1  0  0  0  0
 25 18  2  0  0  0  0
 26 25  1  6  0  0  0
 26 19  1  0  0  0  0
 27 24  1  6  0  0  0
 27 12  1  0  0  0  0
 28 29  1  0  0  0  0
 28 30  1  0  0  0  0
 29 30  1  0  0  0  0
M  END
>  <MODEL>
4

>  <REMARK>
 VINA RESULT:      -3.8      2.282      3.900
  Name = 
  1 active torsions:
  status: ('A' for Active; 'I' for Inactive)
    1  A    between atoms: C_11  and  C_28
                            x       y       z     vdW  Elec       q    Type
                         _______ _______ _______ _____ _____    ______ ____

>  <TORSDO>
F 1

$$$$
=
 OpenBabel11122412373D

 30 36  0  0  1  0  0  0  0  0999 V2000
  161.2960  211.0180  150.7550 C   0  0  0  0  0  0  0  0  0  0  0  0
  161.8470  211.8460  148.4650 C   0  0  2  0  0  3  0  0  0  0  0  0
  159.1230  214.4520  151.9590 C   0  0  0  0  0  2  0  0  0  0  0  0
  160.6320  211.1450  152.0870 C   0  0  0  0  0  0  0  0  0  0  0  0
  161.9320  209.8160  150.4330 O   0  0  0  0  0  0  0  0  0  0  0  0
  161.2540  207.7610  153.2540 O   0  0  0  0  0  0  0  0  0  0  0  0
  160.5700  211.2540  155.1530 C   0  0  1  0  0  3  0  0  0  0  0  0
  161.3690  208.8200  152.5770 C   0  0  0  0  0  0  0  0  0  0  0  0
  159.9720  212.5650  154.8130 N   0  0  2  0  0  0  0  0  0  0  0  0
  158.5840  213.9770  153.3120 C   0  0  1  0  0  3  0  0  0  0  0  0
  162.3310  208.8650  151.4160 C   0  0  1  0  0  3  0  0  0  0  0  0
  160.6740  210.0130  152.9860 N   0  0  0  0  0  0  0  0  0  0  0  0
  161.9600  213.1190  147.7410 N   0  0  0  0  0  0  0  0  0  0  0  0
  159.1260  212.9030  155.9540 C   0  0  0  0  0  2  0  0  0  0  0  0
  160.3710  210.9980  156.6360 C   0  0  0  0  0  2  0  0  0  0  0  0
  160.8370  210.7280  147.5110 Cl  0  0  0  0  0  0  0  0  0  0  0  0
  159.9340  213.3620  151.4650 N   0  0  0  0  0  0  0  0  0  0  0  0
  161.4090  214.2350  148.1190 C   0  0  0  0  0  3  0  0  0  0  0  0
  161.2610  212.0160  149.8490 C   0  0  0  0  0  0  0  0  0  0  0  0
  159.9770  212.2890  152.3830 C   0  0  0  0  0  0  0  0  0  0  0  0
  157.0710  213.9120  153.2590 C   0  0  0  0  0  1  0  0  0  0  0  0
  159.1530  212.5690  153.5910 C   0  0  1  0  0  3  0  0  0  0  0  0
  159.7310  212.2490  157.1700 C   0  0  0  0  0  2  0  0  0  0  0  0
  158.6000  209.7750  154.3300 C   0  0  0  0  0  1  0  0  0  0  0  0
  160.6560  214.3300  149.3780 C   0  0  0  0  0  3  0  0  0  0  0  0
  160.5910  213.2830  150.1990 C   0  0  0  0  0  0  0  0  0  0  0  0
  160.1020  210.0340  154.3340 C   0  0  2  0  0  3  0  0  0  0  0  0
  162.5000  207.5020  150.7590 C   0  0  0  0  0  3  0  0  0  0  0  0
  161.2060  207.1050  150.0760 C   0  0  0  0  0  2  0  0  0  0  0  0
  162.3570  207.6480  149.2560 C   0  0  0  0  0  2  0  0  0  0  0  0
  1  4  1  0  0  0  0
  2 16  1  6  0  0  0
  2 19  1  0  0  0  0
  3 10  1  0  0  0  0
  4 20  2  0  0  0  0
  4 12  1  0  0  0  0
  5  1  1  0  0  0  0
  5 11  1  0  0  0  0
  7 15  1  1  0  0  0
  8 12  1  0  0  0  0
  8  6  2  0  0  0  0
  9  7  1  0  0  0  0
  9 14  1  1  0  0  0
 10 21  1  6  0  0  0
 10 22  1  0  0  0  0
 11 28  1  6  0  0  0
 11  8  1  0  0  0  0
 12 27  1  0  0  0  0
 13 18  2  0  0  0  0
 13  2  1  0  0  0  0
 14 23  1  0  0  0  0
 15 23  1  0  0  0  0
 17  3  1  0  0  0  0
 17 20  1  0  0  0  0
 18 25  1  0  0  0  0
 19 26  1  0  0  0  0
 19  1  2  0  0  0  0
 22 20  1  6  0  0  0
 22  9  1  0  0  0  0
 25 26  2  0  0  0  0
 26 17  1  0  0  0  0
 27 24  1  6  0  0  0
 27  7  1  0  0  0  0
 29 28  1  0  0  0  0
 30 29  1  0  0  0  0
 30 28  1  0  0  0  0
M  END
>  <MODEL>
5

>  <REMARK>
 VINA RESULT:      -3.6      3.483      7.461
  Name = 
  1 active torsions:
  status: ('A' for Active; 'I' for Inactive)
    1  A    between atoms: C_11  and  C_28
                            x       y       z     vdW  Elec       q    Type
                         _______ _______ _______ _____ _____    ______ ____

>  <TORSDO>
F 1

$$$$
=
 OpenBabel11122412373D

 30 36  0  0  1  0  0  0  0  0999 V2000
  161.4820  208.4770  151.1000 C   0  0  0  0  0  0  0  0  0  0  0  0
  161.3800  209.1560  153.4990 C   0  0  0  0  0  0  0  0  0  0  0  0
  160.9570  204.3280  151.7890 C   0  0  0  0  0  2  0  0  0  0  0  0
  161.4080  207.4640  150.0030 C   0  0  0  0  0  0  0  0  0  0  0  0
  161.5910  209.8280  150.7600 O   0  0  0  0  0  0  0  0  0  0  0  0
  161.4230  209.7860  147.2090 O   0  0  0  0  0  0  0  0  0  0  0  0
  162.4890  205.9140  147.5860 C   0  0  1  0  0  3  0  0  0  0  0  0
  161.5810  209.3410  148.3790 C   0  0  0  0  0  0  0  0  0  0  0  0
  162.2060  204.8060  148.5270 N   0  0  2  0  0  0  0  0  0  0  0  0
  160.8310  203.8220  150.3480 C   0  0  1  0  0  3  0  0  0  0  0  0
  162.0300  210.2700  149.4790 C   0  0  1  0  0  3  0  0  0  0  0  0
  161.4490  207.9300  148.6350 N   0  0  0  0  0  0  0  0  0  0  0  0
  161.5810  208.5680  154.8300 N   0  0  0  0  0  0  0  0  0  0  0  0
  161.9610  203.6420  147.6800 C   0  0  0  0  0  2  0  0  0  0  0  0
  162.7730  205.3270  146.2150 C   0  0  0  0  0  2  0  0  0  0  0  0
  159.8230  210.0230  153.4810 Cl  0  0  0  0  0  0  0  0  0  0  0  0
  161.1920  205.7500  151.6770 N   0  0  0  0  0  0  0  0  0  0  0  0
  161.5430  207.2930  155.0880 C   0  0  0  0  0  3  0  0  0  0  0  0
  161.4070  208.1200  152.3980 C   0  0  0  0  0  0  0  0  0  0  0  0
  161.2560  206.1620  150.3280 C   0  0  0  0  0  0  0  0  0  0  0  0
  159.4490  203.2390  150.1360 C   0  0  0  0  0  1  0  0  0  0  0  0
  161.0380  205.0210  149.3960 C   0  0  1  0  0  3  0  0  0  0  0  0
  162.7510  203.8370  146.4110 C   0  0  0  0  0  2  0  0  0  0  0  0
  160.0220  206.5780  147.1160 C   0  0  0  0  0  1  0  0  0  0  0  0
  161.3550  206.3010  154.0200 C   0  0  0  0  0  3  0  0  0  0  0  0
  161.2960  206.6910  152.7470 C   0  0  2  0  0  3  0  0  0  0  0  0
  161.4320  207.0320  147.4780 C   0  0  2  0  0  3  0  0  0  0  0  0
  161.5580  211.7000  149.2500 C   0  0  0  0  0  3  0  0  0  0  0  0
  162.6820  212.5130  148.6380 C   0  0  0  0  0  2  0  0  0  0  0  0
  161.5590  211.9970  147.7630 C   0  0  0  0  0  2  0  0  0  0  0  0
  1 19  2  0  0  0  0
  2 13  2  0  0  0  0
  4 20  2  0  0  0  0
  4  1  1  0  0  0  0
  5  1  1  0  0  0  0
  6  8  2  0  0  0  0
  7 15  1  6  0  0  0
  7  9  1  0  0  0  0
  8 12  1  0  0  0  0
  8 11  1  0  0  0  0
  9 14  1  6  0  0  0
  9 22  1  0  0  0  0
 10 21  1  1  0  0  0
 10  3  1  0  0  0  0
 11 28  1  6  0  0  0
 11  5  1  0  0  0  0
 12  4  1  0  0  0  0
 13 18  1  0  0  0  0
 15 23  1  0  0  0  0
 16  2  1  0  0  0  0
 17  3  1  0  0  0  0
 17 26  1  0  0  0  0
 19 26  1  0  0  0  0
 19  2  1  0  0  0  0
 20 17  1  0  0  0  0
 22 20  1  1  0  0  0
 22 10  1  0  0  0  0
 23 14  1  0  0  0  0
 25 18  2  0  0  0  0
 26 25  1  6  0  0  0
 27 24  1  1  0  0  0
 27  7  1  0  0  0  0
 27 12  1  0  0  0  0
 29 28  1  0  0  0  0
 30 29  1  0  0  0  0
 30 28  1  0  0  0  0
M  END
>  <MODEL>
6

>  <REMARK>
 VINA RESULT:      -3.2      1.937      5.059
  Name = 
  1 active torsions:
  status: ('A' for Active; 'I' for Inactive)
    1  A    between atoms: C_11  and  C_28
                            x       y       z     vdW  Elec       q    Type
                         _______ _______ _______ _____ _____    ______ ____

>  <TORSDO>
F 1

$$$$
=
 OpenBabel11122412373D

 30 36  0  0  1  0  0  0  0  0999 V2000
  160.4540  210.7390  151.7280 C   0  0  0  0  0  0  0  0  0  0  0  0
  161.7350  209.2250  150.2120 C   0  0  2  0  0  3  0  0  0  0  0  0
  160.9260  208.3800  155.2170 C   0  0  0  0  0  2  0  0  0  0  0  0
  159.9210  211.1350  153.0670 C   0  0  0  0  0  0  0  0  0  0  0  0
  160.3000  211.6220  150.6550 O   0  0  0  0  0  0  0  0  0  0  0  0
  158.7560  214.4530  152.1530 O   0  0  0  0  0  0  0  0  0  0  0  0
  157.7070  211.8630  155.0620 C   0  0  1  0  0  3  0  0  0  0  0  0
  159.1400  213.2570  152.0290 C   0  0  0  0  0  0  0  0  0  0  0  0
  158.3170  210.6940  155.7350 N   0  0  2  0  0  0  0  0  0  0  0  0
  160.3130  209.3120  156.2670 C   0  0  1  0  0  3  0  0  0  0  0  0
  159.3390  212.6740  150.6520 C   0  0  1  0  0  3  0  0  0  0  0  0
  159.2700  212.4200  153.1940 N   0  0  0  0  0  0  0  0  0  0  0  0
  162.1470  207.8170  150.1370 N   0  0  0  0  0  0  0  0  0  0  0  0
  158.0410  210.8860  157.1550 C   0  0  0  0  0  2  0  0  0  0  0  0
  156.7610  212.5440  156.0350 C   0  0  0  0  0  2  0  0  0  0  0  0
  163.1580  210.2580  149.9190 Cl  0  0  0  0  0  0  0  0  0  0  0  0
  160.7750  209.0700  153.9560 N   0  0  0  0  0  0  0  0  0  0  0  0
  162.2060  207.0090  151.1550 C   0  0  0  0  0  3  0  0  0  0  0  0
  161.1090  209.5750  151.5440 C   0  0  0  0  0  0  0  0  0  0  0  0
  160.1090  210.3040  154.1150 C   0  0  0  0  0  0  0  0  0  0  0  0
  161.3800  209.7250  157.2610 C   0  0  0  0  0  1  0  0  0  0  0  0
  159.7710  210.5630  155.5420 C   0  0  1  0  0  3  0  0  0  0  0  0
  156.7600  211.6740  157.2600 C   0  0  0  0  0  2  0  0  0  0  0  0
  159.6960  213.5010  155.3890 C   0  0  0  0  0  1  0  0  0  0  0  0
  161.7880  207.4370  152.4980 C   0  0  0  0  0  3  0  0  0  0  0  0
  161.2640  208.6480  152.6810 C   0  0  0  0  0  0  0  0  0  0  0  0
  158.6670  212.8980  154.4400 C   0  0  2  0  0  3  0  0  0  0  0  0
  159.7540  213.7310  149.6370 C   0  0  0  0  0  3  0  0  0  0  0  0
  159.4840  213.2190  148.2350 C   0  0  0  0  0  2  0  0  0  0  0  0
  158.5300  214.2040  148.8770 C   0  0  0  0  0  2  0  0  0  0  0  0
  1  4  1  0  0  0  0
  2 16  1  1  0  0  0
  2 19  1  0  0  0  0
  3 10  1  0  0  0  0
  4 12  1  0  0  0  0
  4 20  2  0  0  0  0
  5  1  1  0  0  0  0
  7  9  1  0  0  0  0
  7 15  1  1  0  0  0
  8  6  2  0  0  0  0
  8 12  1  0  0  0  0
  9 14  1  1  0  0  0
 10 21  1  1  0  0  0
 11 28  1  6  0  0  0
 11  5  1  0  0  0  0
 11  8  1  0  0  0  0
 12 27  1  0  0  0  0
 13  2  1  0  0  0  0
 13 18  2  0  0  0  0
 14 23  1  0  0  0  0
 15 23  1  0  0  0  0
 17 20  1  0  0  0  0
 17  3  1  0  0  0  0
 18 25  1  0  0  0  0
 19  1  2  0  0  0  0
 19 26  1  0  0  0  0
 22 20  1  6  0  0  0
 22  9  1  0  0  0  0
 22 10  1  0  0  0  0
 25 26  2  0  0  0  0
 26 17  1  0  0  0  0
 27  7  1  0  0  0  0
 27 24  1  1  0  0  0
 29 30  1  0  0  0  0
 29 28  1  0  0  0  0
 30 28  1  0  0  0  0
M  END
>  <MODEL>
7

>  <REMARK>
 VINA RESULT:      -2.6      3.657      8.208
  Name = 
  1 active torsions:
  status: ('A' for Active; 'I' for Inactive)
    1  A    between atoms: C_11  and  C_28
                            x       y       z     vdW  Elec       q    Type
                         _______ _______ _______ _____ _____    ______ ____

>  <TORSDO>
F 1

$$$$
