=
 OpenBabel11122413513D

 37 43  0  0  1  0  0  0  0  0999 V2000
  161.4830  210.3120  148.7290 O   0  0  0  0  0  0  0  0  0  0  0  0
  161.7190  205.9410  146.5750 C   0  0  0  0  0  0  0  0  0  0  0  0
  160.7600  206.2960  150.6750 C   0  0  0  0  0  0  0  0  0  0  0  0
  162.1540  211.5410  148.6570 C   0  0  2  0  0  3  0  0  0  0  0  0
  160.3230  209.4300  152.4170 O   0  0  0  0  0  0  0  0  0  0  0  0
  161.0720  204.8690  148.7380 C   0  0  0  0  0  0  0  0  0  0  0  0
  161.0740  207.5610  150.9450 C   0  0  0  0  0  0  0  0  0  0  0  0
  160.3410  212.3910  150.2040 C   0  0  0  0  0  0  0  0  0  0  0  0
  161.0410  206.0530  149.3030 C   0  0  0  0  0  0  0  0  0  0  0  0
  160.9290  208.1740  152.2980 C   0  0  0  0  0  0  0  0  0  0  0  0
  160.6740  203.7020  149.5570 C   0  0  0  0  0  3  0  0  0  0  0  0
  161.8030  212.4460  149.8450 C   0  0  0  0  0  2  0  0  0  0  0  0
  161.5520  207.2360  148.7150 C   0  0  0  0  0  0  0  0  0  0  0  0
  160.4100  206.2770  145.8840 C   0  0  0  0  0  1  0  0  0  0  0  0
  161.4540  205.1000  152.6750 C   0  0  0  0  0  3  0  0  0  0  0  0
  160.3580  203.8470  150.8650 C   0  0  0  0  0  3  0  0  0  0  0  0
  162.2050  207.1880  147.3670 C   0  0  0  0  0  2  0  0  0  0  0  0
  159.8030  211.4190  151.2220 C   0  0  1  0  0  3  0  0  0  0  0  0
  160.8740  210.6050  151.8500 C   0  0  1  0  0  3  0  0  0  0  0  0
  160.4100  205.1810  151.6110 C   0  0  2  0  0  3  0  0  0  0  0  0
  161.6050  208.1600  149.6760 C   0  0  0  0  0  0  0  0  0  0  0  0
  161.5250  204.7750  147.4120 O   0  0  0  0  0  0  0  0  0  0  0  0
  161.2580  207.5070  153.4390 C   0  0  0  0  0  0  0  0  0  0  0  0
  162.7460  205.6140  145.5100 C   0  0  0  0  0  1  0  0  0  0  0  0
  160.3240  211.7310  152.4910 O   0  0  0  0  0  0  0  0  0  0  0  0
  159.5640  213.1430  149.6390 O   0  0  0  0  0  0  0  0  0  0  0  0
  162.2880  209.4750  149.5070 C   0  0  0  0  0  2  0  0  0  0  0  0
  161.7950  206.1180  153.4710 C   0  0  0  0  0  3  0  0  0  0  0  0
  160.3440  207.6680  155.7610 C   0  0  0  0  0  3  0  0  0  0  0  0
  161.1830  208.1810  154.7610 C   0  0  0  0  0  0  0  0  0  0  0  0
  161.9740  209.3020  155.0540 C   0  0  0  0  0  3  0  0  0  0  0  0
  162.6910  211.0370  156.6120 N   0  0  0  0  0  1  0  0  0  0  0  0
  161.0650  209.3810  157.2600 N   0  0  0  0  0  0  0  0  0  0  0  0
  161.8970  209.8950  156.3150 C   0  0  0  0  0  0  0  0  0  0  0  0
  160.2970  208.2880  157.0120 C   0  0  0  0  0  3  0  0  0  0  0  0
  162.4110  213.4980  147.3170 O   0  0  0  0  0  1  0  0  0  0  0  0
  161.8120  212.2390  147.3520 C   0  0  0  0  0  2  0  0  0  0  0  0
  1 27  1  0  0  0  0
  2 17  1  0  0  0  0
  2 22  1  0  0  0  0
  3  7  2  0  0  0  0
  3 20  1  0  0  0  0
  4 37  1  6  0  0  0
  4  1  1  0  0  0  0
  4 12  1  0  0  0  0
  6  9  2  0  0  0  0
  6 11  1  0  0  0  0
  7 10  1  0  0  0  0
  9  3  1  0  0  0  0
 10  5  1  0  0  0  0
 10 23  2  0  0  0  0
 11 16  2  0  0  0  0
 12  8  1  0  0  0  0
 13  9  1  0  0  0  0
 13 21  2  0  0  0  0
 14  2  1  0  0  0  0
 15 28  2  0  0  0  0
 17 13  1  0  0  0  0
 18  8  1  6  0  0  0
 18 19  1  0  0  0  0
 18 25  1  0  0  0  0
 19  5  1  1  0  0  0
 19 25  1  0  0  0  0
 20 16  1  6  0  0  0
 20 15  1  0  0  0  0
 21  7  1  0  0  0  0
 22  6  1  0  0  0  0
 23 28  1  0  0  0  0
 23 30  1  0  0  0  0
 24  2  1  0  0  0  0
 26  8  2  0  0  0  0
 27 21  1  0  0  0  0
 29 35  1  0  0  0  0
 30 31  1  0  0  0  0
 30 29  2  0  0  0  0
 31 34  2  0  0  0  0
 34 32  1  0  0  0  0
 34 33  1  0  0  0  0
 35 33  2  0  0  0  0
 36 37  1  0  0  0  0
M  END
>  <MODEL>
1

>  <REMARK>
 VINA RESULT:      -9.2      0.000      0.000
  Name = 
  2 active torsions:
  status: ('A' for Active; 'I' for Inactive)
    1  A    between atoms: C_4  and  C_37
    2  A    between atoms: C_23  and  C_30
                            x       y       z     vdW  Elec       q    Type
                         _______ _______ _______ _____ _____    ______ ____

>  <TORSDO>
F 2

$$$$
=
 OpenBabel11122413513D

 37 43  0  0  1  0  0  0  0  0999 V2000
  161.3600  210.6740  148.7560 O   0  0  0  0  0  0  0  0  0  0  0  0
  161.8010  206.0390  147.3000 C   0  0  0  0  0  0  0  0  0  0  0  0
  160.8290  206.9780  151.3040 C   0  0  0  0  0  0  0  0  0  0  0  0
  161.9730  211.9070  148.4900 C   0  0  2  0  0  3  0  0  0  0  0  0
  160.2470  210.3200  152.5450 O   0  0  0  0  0  0  0  0  0  0  0  0
  161.2060  205.2850  149.6080 C   0  0  0  0  0  0  0  0  0  0  0  0
  161.0840  208.2830  151.3730 C   0  0  0  0  0  0  0  0  0  0  0  0
  160.1230  212.9020  149.9010 C   0  0  0  0  0  0  0  0  0  0  0  0
  161.1200  206.5390  149.9830 C   0  0  0  0  0  0  0  0  0  0  0  0
  160.9110  209.0900  152.6160 C   0  0  0  0  0  0  0  0  0  0  0  0
  160.8640  204.2410  150.6000 C   0  0  0  0  0  3  0  0  0  0  0  0
  161.5810  212.9680  149.5260 C   0  0  0  0  0  2  0  0  0  0  0  0
  161.5750  207.6400  149.2170 C   0  0  0  0  0  0  0  0  0  0  0  0
  160.4760  206.2030  146.5760 C   0  0  0  0  0  1  0  0  0  0  0  0
  161.5810  206.1390  153.4590 C   0  0  0  0  0  3  0  0  0  0  0  0
  160.5430  204.5720  151.8730 C   0  0  0  0  0  3  0  0  0  0  0  0
  162.2280  207.4150  147.8860 C   0  0  0  0  0  2  0  0  0  0  0  0
  159.6330  212.0750  151.0620 C   0  0  1  0  0  3  0  0  0  0  0  0
  160.7410  211.4170  151.7990 C   0  0  1  0  0  3  0  0  0  0  0  0
  160.5330  206.0070  152.4040 C   0  0  2  0  0  3  0  0  0  0  0  0
  161.5850  208.7030  150.0220 C   0  0  0  0  0  0  0  0  0  0  0  0
  161.6630  205.0090  148.3080 O   0  0  0  0  0  0  0  0  0  0  0  0
  161.2720  208.6230  153.8440 C   0  0  0  0  0  0  0  0  0  0  0  0
  162.8410  205.5990  146.2900 C   0  0  0  0  0  1  0  0  0  0  0  0
  160.1400  212.6030  152.2630 O   0  0  0  0  0  0  0  0  0  0  0  0
  159.3110  213.5200  149.2340 O   0  0  0  0  0  0  0  0  0  0  0  0
  162.2050  210.0070  149.6470 C   0  0  0  0  0  2  0  0  0  0  0  0
  161.8740  207.2830  154.0850 C   0  0  0  0  0  3  0  0  0  0  0  0
  162.3290  209.9860  155.6540 C   0  0  0  0  0  3  0  0  0  0  0  0
  161.1670  209.4900  155.0470 C   0  0  0  0  0  0  0  0  0  0  0  0
  159.9210  209.8670  155.5680 C   0  0  0  0  0  3  0  0  0  0  0  0
  158.5960  211.0780  157.2190 N   0  0  0  0  0  1  0  0  0  0  0  0
  161.0040  211.1590  157.2570 N   0  0  0  0  0  0  0  0  0  0  0  0
  159.8580  210.7020  156.6840 C   0  0  0  0  0  0  0  0  0  0  0  0
  162.2270  210.8230  156.7680 C   0  0  0  0  0  3  0  0  0  0  0  0
  162.7050  212.9570  146.4760 O   0  0  0  0  0  1  0  0  0  0  0  0
  161.5970  212.3790  147.0950 C   0  0  0  0  0  2  0  0  0  0  0  0
  1 27  1  0  0  0  0
  2 17  1  0  0  0  0
  2 22  1  0  0  0  0
  3  7  2  0  0  0  0
  3 20  1  0  0  0  0
  4 37  1  6  0  0  0
  4  1  1  0  0  0  0
  4 12  1  0  0  0  0
  5 10  1  0  0  0  0
  6  9  2  0  0  0  0
  6 11  1  0  0  0  0
  7 10  1  0  0  0  0
  9  3  1  0  0  0  0
 10 23  2  0  0  0  0
 11 16  2  0  0  0  0
 12  8  1  0  0  0  0
 13  9  1  0  0  0  0
 13 21  2  0  0  0  0
 14  2  1  0  0  0  0
 15 28  2  0  0  0  0
 17 13  1  0  0  0  0
 18  8  1  6  0  0  0
 18 19  1  0  0  0  0
 18 25  1  0  0  0  0
 19 25  1  1  0  0  0
 19  5  1  0  0  0  0
 20 16  1  6  0  0  0
 20 15  1  0  0  0  0
 21  7  1  0  0  0  0
 22  6  1  0  0  0  0
 23 28  1  0  0  0  0
 23 30  1  0  0  0  0
 24  2  1  0  0  0  0
 26  8  2  0  0  0  0
 27 21  1  0  0  0  0
 29 35  1  0  0  0  0
 30 31  1  0  0  0  0
 30 29  2  0  0  0  0
 31 34  2  0  0  0  0
 34 32  1  0  0  0  0
 34 33  1  0  0  0  0
 35 33  2  0  0  0  0
 36 37  1  0  0  0  0
M  END
>  <MODEL>
2

>  <REMARK>
 VINA RESULT:      -8.4      1.057      1.417
  Name = 
  2 active torsions:
  status: ('A' for Active; 'I' for Inactive)
    1  A    between atoms: C_4  and  C_37
    2  A    between atoms: C_23  and  C_30
                            x       y       z     vdW  Elec       q    Type
                         _______ _______ _______ _____ _____    ______ ____

>  <TORSDO>
F 2

$$$$
