=
 OpenBabel11122414033D

 28 32  0  0  1  0  0  0  0  0999 V2000
  157.9700  211.9250  153.3870 C   0  0  0  0  0  0  0  0  0  0  0  0
  160.3240  209.3850  150.9940 O   0  0  0  0  0  0  0  0  0  0  0  0
  161.5320  212.7350  157.2610 O   0  0  0  0  0  0  0  0  0  0  0  0
  159.6170  213.3330  151.6070 C   0  0  0  0  0  3  0  0  0  0  0  0
  161.8490  210.5230  156.5340 N   0  0  0  0  0  0  0  0  0  0  0  0
  157.0730  211.2530  154.3830 C   0  0  0  0  0  2  0  0  0  0  0  0
  162.7540  209.6490  151.2680 O   0  0  0  0  0  0  0  0  0  0  0  0
  161.4980  209.1120  151.8930 S   0  0  0  0  0  0  0  0  0  0  0  0
  161.4240  206.8430  153.4160 C   0  0  0  0  0  0  0  0  0  0  0  0
  161.2720  209.8690  153.4910 C   0  0  2  0  0  3  0  0  0  0  0  0
  157.1850  213.5820  157.2610 N   0  0  0  0  0  2  0  0  0  0  0  0
  159.7820  210.2330  155.3710 C   0  0  1  0  0  3  0  0  0  0  0  0
  161.4110  207.5670  154.4960 N   0  0  0  0  0  0  0  0  0  0  0  0
  161.6560  207.4160  152.1330 N   0  0  0  0  0  2  0  0  0  0  0  0
  157.5350  212.5750  156.5330 C   0  0  0  0  0  0  0  0  0  0  0  0
  159.2960  211.4820  153.1620 C   0  0  0  0  0  0  0  0  0  0  0  0
  161.1040  211.7160  156.6550 C   0  0  0  0  0  0  0  0  0  0  0  0
  161.1450  205.4520  153.5110 N   0  0  0  0  0  1  0  0  0  0  0  0
  158.6670  211.7170  157.0090 C   0  0  0  0  0  2  0  0  0  0  0  0
  160.1070  212.2100  152.2730 C   0  0  0  0  0  3  0  0  0  0  0  0
  157.4850  213.0480  152.7030 C   0  0  0  0  0  3  0  0  0  0  0  0
  158.3030  213.7490  151.8170 C   0  0  0  0  0  3  0  0  0  0  0  0
  156.6990  212.1950  155.4320 N   0  0  0  0  0  2  0  0  0  0  0  0
  161.0560  209.5130  155.8630 C   0  0  1  0  0  3  0  0  0  0  0  0
  159.7880  211.6450  155.9870 C   0  0  2  0  0  3  0  0  0  0  0  0
  161.7710  208.9850  154.6300 C   0  0  2  0  0  3  0  0  0  0  0  0
  163.0770  210.2430  157.2600 C   0  0  0  0  0  1  0  0  0  0  0  0
  159.8310  210.2240  153.8340 C   0  0  1  0  0  3  0  0  0  0  0  0
  1  6  1  0  0  0  0
  2  8  2  0  0  0  0
  4 22  2  0  0  0  0
  4 20  1  0  0  0  0
  5 17  1  0  0  0  0
  5 27  1  0  0  0  0
  6 23  1  0  0  0  0
  7  8  2  0  0  0  0
  8 14  1  0  0  0  0
  9 18  1  0  0  0  0
  9 13  2  0  0  0  0
 10  8  1  6  0  0  0
 10 28  1  0  0  0  0
 10 26  1  0  0  0  0
 12 24  1  0  0  0  0
 12 25  1  0  0  0  0
 13 26  1  0  0  0  0
 14  9  1  0  0  0  0
 15 19  1  0  0  0  0
 15 11  2  0  0  0  0
 16  1  1  0  0  0  0
 16 28  1  0  0  0  0
 17  3  2  0  0  0  0
 20 16  2  0  0  0  0
 21  1  2  0  0  0  0
 22 21  1  0  0  0  0
 23 15  1  0  0  0  0
 24  5  1  0  0  0  0
 25 17  1  0  0  0  0
 25 19  1  0  0  0  0
 26 24  1  0  0  0  0
 28 12  1  0  0  0  0
M  END
>  <MODEL>
1

>  <REMARK>
 VINA RESULT:      -4.3      0.000      0.000
  Name = 
  0 active torsions:
  status: ('A' for Active; 'I' for Inactive)
                            x       y       z     vdW  Elec       q    Type
                         _______ _______ _______ _____ _____    ______ ____

>  <TORSDO>
F 0

$$$$
=
 OpenBabel11122414033D

 28 32  0  0  1  0  0  0  0  0999 V2000
  160.8040  208.8340  155.7930 C   0  0  0  0  0  0  0  0  0  0  0  0
  159.0650  212.3770  157.2560 O   0  0  0  0  0  0  0  0  0  0  0  0
  162.3480  210.7160  151.0580 O   0  0  0  0  0  0  0  0  0  0  0  0
  162.6650  210.5160  157.0460 C   0  0  0  0  0  3  0  0  0  0  0  0
  160.3270  211.8020  151.5660 N   0  0  0  0  0  0  0  0  0  0  0  0
  159.8810  207.8840  155.0910 C   0  0  0  0  0  2  0  0  0  0  0  0
  159.9390  214.4530  156.2690 O   0  0  0  0  0  0  0  0  0  0  0  0
  159.0690  213.2520  156.0340 S   0  0  0  0  0  0  0  0  0  0  0  0
  156.7960  213.3120  154.5150 C   0  0  0  0  0  0  0  0  0  0  0  0
  159.6730  212.3640  154.6110 C   0  0  2  0  0  3  0  0  0  0  0  0
  162.0360  206.5100  152.4100 N   0  0  0  0  0  2  0  0  0  0  0  0
  159.5590  210.3340  153.2870 C   0  0  1  0  0  3  0  0  0  0  0  0
  157.4460  212.7850  153.5200 N   0  0  0  0  0  0  0  0  0  0  0  0
  157.4630  213.7650  155.6890 N   0  0  0  0  0  2  0  0  0  0  0  0
  161.1860  207.3130  152.9560 C   0  0  0  0  0  0  0  0  0  0  0  0
  160.7300  210.2320  155.5890 C   0  0  0  0  0  0  0  0  0  0  0  0
  161.2790  210.7720  151.7230 C   0  0  0  0  0  0  0  0  0  0  0  0
  155.3790  213.3900  154.4530 N   0  0  0  0  0  1  0  0  0  0  0  0
  160.6330  208.4290  152.1260 C   0  0  0  0  0  2  0  0  0  0  0  0
  161.6800  211.0560  156.2180 C   0  0  0  0  0  3  0  0  0  0  0  0
  161.7910  208.3040  156.6360 C   0  0  0  0  0  3  0  0  0  0  0  0
  162.7160  209.1410  157.2610 C   0  0  0  0  0  3  0  0  0  0  0  0
  160.6490  206.9790  154.2420 N   0  0  0  0  0  2  0  0  0  0  0  0
  159.1740  211.5400  152.4040 C   0  0  1  0  0  3  0  0  0  0  0  0
  160.8970  209.7860  152.7560 C   0  0  2  0  0  3  0  0  0  0  0  0
  158.9020  212.7060  153.3390 C   0  0  2  0  0  3  0  0  0  0  0  0
  160.3450  212.7800  150.4900 C   0  0  0  0  0  1  0  0  0  0  0  0
  159.6270  210.8470  154.7360 C   0  0  1  0  0  3  0  0  0  0  0  0
  1 21  1  0  0  0  0
  3 17  2  0  0  0  0
  4 22  1  0  0  0  0
  5 17  1  0  0  0  0
  5 24  1  0  0  0  0
  6  1  1  0  0  0  0
  8  7  2  0  0  0  0
  8  2  2  0  0  0  0
  9 14  1  0  0  0  0
 10 28  1  0  0  0  0
 10  8  1  1  0  0  0
 11 15  2  0  0  0  0
 12 28  1  0  0  0  0
 13  9  2  0  0  0  0
 14  8  1  0  0  0  0
 15 23  1  0  0  0  0
 16  1  2  0  0  0  0
 16 20  1  0  0  0  0
 17 25  1  0  0  0  0
 18  9  1  0  0  0  0
 19 25  1  0  0  0  0
 19 15  1  0  0  0  0
 20  4  2  0  0  0  0
 21 22  2  0  0  0  0
 23  6  1  0  0  0  0
 24 12  1  0  0  0  0
 24 26  1  0  0  0  0
 25 12  1  0  0  0  0
 26 13  1  0  0  0  0
 26 10  1  0  0  0  0
 27  5  1  0  0  0  0
 28 16  1  0  0  0  0
M  END
>  <MODEL>
2

>  <REMARK>
 VINA RESULT:      -4.0      2.077      6.359
  Name = 
  0 active torsions:
  status: ('A' for Active; 'I' for Inactive)
                            x       y       z     vdW  Elec       q    Type
                         _______ _______ _______ _____ _____    ______ ____

>  <TORSDO>
F 0

$$$$
=
 OpenBabel11122414033D

 28 32  0  0  1  0  0  0  0  0999 V2000
  158.6110  213.5530  141.9010 C   0  0  0  0  0  0  0  0  0  0  0  0
  162.7870  213.1260  141.5760 O   0  0  0  0  0  0  0  0  0  0  0  0
  157.2460  209.3600  138.9180 O   0  0  0  0  0  0  0  0  0  0  0  0
  159.6750  211.8120  143.8250 C   0  0  0  0  0  3  0  0  0  0  0  0
  159.2020  210.2370  137.9550 N   0  0  0  0  0  0  0  0  0  0  0  0
  157.9570  214.4530  140.8970 C   0  0  0  0  0  2  0  0  0  0  0  0
  163.5680  210.8440  141.0960 O   0  0  0  0  0  0  0  0  0  0  0  0
  162.9080  212.0640  140.5190 S   0  0  0  0  0  0  0  0  0  0  0  0
  163.2560  212.8840  137.9350 C   0  0  0  0  0  0  0  0  0  0  0  0
  161.3080  211.6110  139.8760 C   0  0  2  0  0  3  0  0  0  0  0  0
  154.7310  212.7440  140.2720 N   0  0  0  0  0  2  0  0  0  0  0  0
  159.1800  212.3840  139.0040 C   0  0  1  0  0  3  0  0  0  0  0  0
  162.1110  212.3590  137.6130 N   0  0  0  0  0  0  0  0  0  0  0  0
  163.8500  212.6610  139.2090 N   0  0  0  0  0  2  0  0  0  0  0  0
  155.9740  213.0400  140.0880 C   0  0  0  0  0  0  0  0  0  0  0  0
  159.6360  212.6480  141.5340 C   0  0  0  0  0  0  0  0  0  0  0  0
  158.0580  210.3130  138.7790 C   0  0  0  0  0  0  0  0  0  0  0  0
  163.9070  213.7460  137.0110 N   0  0  0  0  0  1  0  0  0  0  0  0
  156.7050  212.3620  138.9700 C   0  0  0  0  0  2  0  0  0  0  0  0
  160.1480  211.7770  142.5130 C   0  0  0  0  0  3  0  0  0  0  0  0
  158.1530  213.5860  143.2250 C   0  0  0  0  0  3  0  0  0  0  0  0
  158.6830  212.7210  144.1830 C   0  0  0  0  0  3  0  0  0  0  0  0
  156.5340  214.1470  140.8060 N   0  0  0  0  0  2  0  0  0  0  0  0
  159.8820  211.5160  137.9380 C   0  0  1  0  0  3  0  0  0  0  0  0
  157.9290  211.6140  139.4690 C   0  0  2  0  0  3  0  0  0  0  0  0
  161.3320  211.3700  138.3700 C   0  0  2  0  0  3  0  0  0  0  0  0
  159.4640  209.1630  137.0110 C   0  0  0  0  0  1  0  0  0  0  0  0
  160.2070  212.6350  140.1210 C   0  0  1  0  0  3  0  0  0  0  0  0
  1 21  1  0  0  0  0
  4 22  1  0  0  0  0
  5 17  1  0  0  0  0
  6  1  1  0  0  0  0
  8  7  2  0  0  0  0
  8  2  2  0  0  0  0
  9 14  1  0  0  0  0
 10 28  1  0  0  0  0
 10  8  1  6  0  0  0
 12 25  1  0  0  0  0
 12 28  1  0  0  0  0
 13  9  2  0  0  0  0
 13 26  1  0  0  0  0
 14  8  1  0  0  0  0
 15 11  2  0  0  0  0
 15 23  1  0  0  0  0
 16  1  2  0  0  0  0
 16 20  1  0  0  0  0
 17  3  2  0  0  0  0
 17 25  1  0  0  0  0
 18  9  1  0  0  0  0
 19 25  1  0  0  0  0
 19 15  1  0  0  0  0
 20  4  2  0  0  0  0
 21 22  2  0  0  0  0
 23  6  1  0  0  0  0
 24  5  1  0  0  0  0
 24 26  1  0  0  0  0
 24 12  1  0  0  0  0
 26 10  1  0  0  0  0
 27  5  1  0  0  0  0
 28 16  1  0  0  0  0
M  END
>  <MODEL>
3

>  <REMARK>
 VINA RESULT:      -2.5     12.423     15.096
  Name = 
  0 active torsions:
  status: ('A' for Active; 'I' for Inactive)
                            x       y       z     vdW  Elec       q    Type
                         _______ _______ _______ _____ _____    ______ ____

>  <TORSDO>
F 0

$$$$
=
 OpenBabel11122414033D

 28 32  0  0  1  0  0  0  0  0999 V2000
  161.6440  209.5910  154.8140 C   0  0  0  0  0  0  0  0  0  0  0  0
  162.7180  208.3120  150.9500 O   0  0  0  0  0  0  0  0  0  0  0  0
  157.1240  212.0770  153.4970 O   0  0  0  0  0  0  0  0  0  0  0  0
  160.4740  207.1390  154.1210 C   0  0  0  0  0  3  0  0  0  0  0  0
  158.6000  212.4100  151.6990 N   0  0  0  0  0  0  0  0  0  0  0  0
  162.2120  210.9060  155.2580 C   0  0  0  0  0  2  0  0  0  0  0  0
  160.8450  208.0670  149.3740 O   0  0  0  0  0  0  0  0  0  0  0  0
  161.7260  209.0490  150.0930 S   0  0  0  0  0  0  0  0  0  0  0  0
  162.5120  211.4360  149.0180 C   0  0  0  0  0  0  0  0  0  0  0  0
  160.7090  210.1340  151.0760 C   0  0  2  0  0  3  0  0  0  0  0  0
  159.4450  212.3380  157.2600 N   0  0  0  0  0  2  0  0  0  0  0  0
  160.6390  211.8350  152.8050 C   0  0  1  0  0  3  0  0  0  0  0  0
  161.6020  212.0510  149.7140 N   0  0  0  0  0  0  0  0  0  0  0  0
  162.5660  210.0150  148.9440 N   0  0  0  0  0  2  0  0  0  0  0  0
  160.1550  212.1120  156.2060 C   0  0  0  0  0  0  0  0  0  0  0  0
  161.1490  209.3990  153.5020 C   0  0  0  0  0  0  0  0  0  0  0  0
  158.2980  212.0800  153.0380 C   0  0  0  0  0  0  0  0  0  0  0  0
  163.5110  212.2000  148.3560 N   0  0  0  0  0  1  0  0  0  0  0  0
  159.7370  212.7530  154.9200 C   0  0  0  0  0  2  0  0  0  0  0  0
  160.5570  208.1650  153.1800 C   0  0  0  0  0  3  0  0  0  0  0  0
  161.5660  208.5490  155.7480 C   0  0  0  0  0  3  0  0  0  0  0  0
  160.9850  207.3280  155.4040 C   0  0  0  0  0  3  0  0  0  0  0  0
  161.4170  211.4480  156.3540 N   0  0  0  0  0  2  0  0  0  0  0  0
  160.0360  212.4060  151.5040 C   0  0  1  0  0  3  0  0  0  0  0  0
  159.4940  211.7240  153.8290 C   0  0  2  0  0  3  0  0  0  0  0  0
  160.4320  211.4630  150.3790 C   0  0  2  0  0  3  0  0  0  0  0  0
  157.6520  212.9910  150.7620 C   0  0  0  0  0  1  0  0  0  0  0  0
  161.2830  210.4860  152.4420 C   0  0  1  0  0  3  0  0  0  0  0  0
  1  6  1  0  0  0  0
  1 21  1  0  0  0  0
  4 22  1  0  0  0  0
  5 17  1  0  0  0  0
  6 23  1  0  0  0  0
  7  8  2  0  0  0  0
  8  2  2  0  0  0  0
  9 13  2  0  0  0  0
 10  8  1  6  0  0  0
 10 28  1  0  0  0  0
 12 25  1  0  0  0  0
 13 26  1  0  0  0  0
 14  9  1  0  0  0  0
 14  8  1  0  0  0  0
 15 23  1  0  0  0  0
 15 11  2  0  0  0  0
 16  1  2  0  0  0  0
 17  3  2  0  0  0  0
 17 25  1  0  0  0  0
 18  9  1  0  0  0  0
 19 15  1  0  0  0  0
 20 16  1  0  0  0  0
 20  4  2  0  0  0  0
 22 21  2  0  0  0  0
 24  5  1  0  0  0  0
 24 12  1  0  0  0  0
 25 19  1  0  0  0  0
 26 10  1  0  0  0  0
 26 24  1  0  0  0  0
 27  5  1  0  0  0  0
 28 12  1  0  0  0  0
 28 16  1  0  0  0  0
M  END
>  <MODEL>
4

>  <REMARK>
 VINA RESULT:      -2.1      2.632      5.077
  Name = 
  0 active torsions:
  status: ('A' for Active; 'I' for Inactive)
                            x       y       z     vdW  Elec       q    Type
                         _______ _______ _______ _____ _____    ______ ____

>  <TORSDO>
F 0

$$$$
