=
 OpenBabel11122412443D

 30 35  0  0  1  0  0  0  0  0999 V2000
  160.3140  211.9250  152.3230 C   0  0  0  0  0  0  0  0  0  0  0  0
  160.4370  212.7890  149.9930 C   0  0  0  0  0  0  0  0  0  0  0  0
  161.3430  208.6050  151.3250 N   0  0  0  0  0  2  0  0  0  0  0  0
  160.6940  210.9630  153.4040 C   0  0  2  0  0  3  0  0  0  0  0  0
  159.3410  212.8740  152.6590 O   0  0  0  0  0  0  0  0  0  0  0  0
  159.7430  213.5640  155.8330 O   0  0  0  0  0  1  0  0  0  0  0  0
  160.6140  209.5020  156.0710 C   0  0  1  0  0  3  0  0  0  0  0  0
  159.4730  212.4130  155.0930 C   0  0  1  0  0  3  0  0  0  0  0  0
  160.4030  208.5970  154.8470 C   0  0  2  0  0  3  0  0  0  0  0  0
  161.0720  207.9000  152.5220 C   0  0  0  0  0  0  0  0  0  0  0  0
  158.5930  212.7860  153.8800 C   0  0  2  0  0  3  0  0  0  0  0  0
  160.7970  211.7110  154.7290 C   0  0  1  0  0  3  0  0  0  0  0  0
  160.9960  212.5860  148.6160 C   0  0  0  0  0  2  0  0  0  0  0  0
  160.3100  207.2140  155.4520 C   0  0  0  0  0  2  0  0  0  0  0  0
  161.2680  208.7010  157.0920 N   0  0  0  0  0  2  0  0  0  0  0  0
  159.5980  213.7110  150.1800 O   0  0  0  0  0  0  0  0  0  0  0  0
  162.1560  209.7450  151.6990 C   0  0  2  0  0  3  0  0  0  0  0  0
  162.2520  211.7160  148.6680 C   0  0  0  0  0  2  0  0  0  0  0  0
  160.8420  211.8680  151.0870 C   0  0  0  0  0  0  0  0  0  0  0  0
  161.8780  210.0130  153.1810 C   0  0  2  0  0  3  0  0  0  0  0  0
  160.5350  206.7620  152.5190 O   0  0  0  0  0  0  0  0  0  0  0  0
  161.5150  208.6180  153.7570 C   0  0  1  0  0  3  0  0  0  0  0  0
  160.7770  207.3450  156.8900 C   0  0  0  0  0  2  0  0  0  0  0  0
  161.4490  211.5420  157.0520 O   0  0  0  0  0  1  0  0  0  0  0  0
  161.9980  210.5560  149.4220 O   0  0  0  0  0  0  0  0  0  0  0  0
  162.0070  210.9540  150.7740 C   0  0  2  0  0  3  0  0  0  0  0  0
  161.3640  210.8260  155.8550 C   0  0  1  0  0  3  0  0  0  0  0  0
  157.4750  211.7660  153.7360 C   0  0  0  0  0  2  0  0  0  0  0  0
  155.9250  211.0500  155.1310 C   0  0  0  0  0  1  0  0  0  0  0  0
  157.3060  211.0760  154.9350 O   0  0  0  0  0  0  0  0  0  0  0  0
  1  5  1  0  0  0  0
  2 16  2  0  0  0  0
  2 19  1  0  0  0  0
  3 17  1  0  0  0  0
  3 10  1  0  0  0  0
  4  1  1  6  0  0  0
  4 12  1  0  0  0  0
  5 11  1  0  0  0  0
  7 15  1  1  0  0  0
  8  6  1  6  0  0  0
  9 14  1  1  0  0  0
  9  7  1  0  0  0  0
 10 22  1  0  0  0  0
 11 28  1  6  0  0  0
 11  8  1  0  0  0  0
 12  8  1  0  0  0  0
 12 27  1  0  0  0  0
 13 18  1  0  0  0  0
 13  2  1  0  0  0  0
 14 23  1  0  0  0  0
 17 20  1  0  0  0  0
 18 25  1  0  0  0  0
 19  1  2  0  0  0  0
 20  4  1  0  0  0  0
 20 22  1  0  0  0  0
 21 10  2  0  0  0  0
 22  9  1  0  0  0  0
 23 15  1  0  0  0  0
 25 26  1  0  0  0  0
 26 19  1  0  0  0  0
 26 17  1  0  0  0  0
 27  7  1  0  0  0  0
 27 24  1  0  0  0  0
 28 30  1  0  0  0  0
 30 29  1  0  0  0  0
M  END
>  <MODEL>
1

>  <REMARK>
 VINA RESULT:      -5.9      0.000      0.000
  Name = 
  2 active torsions:
  status: ('A' for Active; 'I' for Inactive)
    1  A    between atoms: C_11  and  C_28
    2  A    between atoms: C_28  and  O_30
                            x       y       z     vdW  Elec       q    Type
                         _______ _______ _______ _____ _____    ______ ____

>  <TORSDO>
F 2

$$$$
=
 OpenBabel11122412443D

 30 35  0  0  1  0  0  0  0  0999 V2000
  160.4440  212.6930  149.7080 C   0  0  0  0  0  0  0  0  0  0  0  0
  159.5220  212.5940  152.0160 C   0  0  0  0  0  0  0  0  0  0  0  0
  157.1630  213.0600  148.2320 N   0  0  0  0  0  2  0  0  0  0  0  0
  160.3730  213.0840  148.2660 C   0  0  2  0  0  3  0  0  0  0  0  0
  161.5580  211.9330  150.0840 O   0  0  0  0  0  0  0  0  0  0  0  0
  164.0520  212.9020  148.1990 O   0  0  0  0  0  1  0  0  0  0  0  0
  161.0740  213.1890  145.3080 C   0  0  1  0  0  3  0  0  0  0  0  0
  162.7880  212.3570  147.9720 C   0  0  1  0  0  3  0  0  0  0  0  0
  159.6600  212.6660  145.6050 C   0  0  2  0  0  3  0  0  0  0  0  0
  157.4920  212.8690  146.8680 C   0  0  0  0  0  0  0  0  0  0  0  0
  162.4490  211.3710  149.1120 C   0  0  2  0  0  3  0  0  0  0  0  0
  161.7620  213.4940  147.7870 C   0  0  1  0  0  3  0  0  0  0  0  0
  158.3560  212.9040  152.9080 C   0  0  0  0  0  2  0  0  0  0  0  0
  159.0700  212.4610  144.2280 C   0  0  0  0  0  2  0  0  0  0  0  0
  161.0230  213.8630  144.0210 N   0  0  0  0  0  2  0  0  0  0  0  0
  160.4900  211.9380  152.4860 O   0  0  0  0  0  0  0  0  0  0  0  0
  158.0660  214.0790  148.7290 C   0  0  2  0  0  3  0  0  0  0  0  0
  157.4940  214.0120  152.3000 C   0  0  0  0  0  2  0  0  0  0  0  0
  159.4830  213.0170  150.5920 C   0  0  0  0  0  0  0  0  0  0  0  0
  159.2890  214.0680  147.8070 C   0  0  2  0  0  3  0  0  0  0  0  0
  156.7750  212.1760  146.1000 O   0  0  0  0  0  0  0  0  0  0  0  0
  158.7280  213.5930  146.4400 C   0  0  1  0  0  3  0  0  0  0  0  0
  160.0090  213.1520  143.2550 C   0  0  0  0  0  2  0  0  0  0  0  0
  163.0220  214.4530  145.9590 O   0  0  0  0  0  1  0  0  0  0  0  0
  157.1980  213.7050  150.9600 O   0  0  0  0  0  0  0  0  0  0  0  0
  158.3700  213.9740  150.2250 C   0  0  2  0  0  3  0  0  0  0  0  0
  161.7370  214.0850  146.3650 C   0  0  1  0  0  3  0  0  0  0  0  0
  161.8490  210.1060  148.5210 C   0  0  0  0  0  2  0  0  0  0  0  0
  162.0010  207.9090  148.6320 C   0  0  0  0  0  1  0  0  0  0  0  0
  161.9730  209.0540  149.4270 O   0  0  0  0  0  0  0  0  0  0  0  0
  1  5  1  0  0  0  0
  1 19  2  0  0  0  0
  2 16  2  0  0  0  0
  2 13  1  0  0  0  0
  3 17  1  0  0  0  0
  4  1  1  1  0  0  0
  7 15  1  6  0  0  0
  7  9  1  0  0  0  0
  7 27  1  0  0  0  0
  8  6  1  1  0  0  0
  8 11  1  0  0  0  0
  9 14  1  6  0  0  0
  9 22  1  0  0  0  0
 10  3  1  0  0  0  0
 11 28  1  6  0  0  0
 11  5  1  0  0  0  0
 12  8  1  0  0  0  0
 12  4  1  0  0  0  0
 17 26  1  0  0  0  0
 18 13  1  0  0  0  0
 19  2  1  0  0  0  0
 20  4  1  0  0  0  0
 20 17  1  0  0  0  0
 21 10  2  0  0  0  0
 22 10  1  0  0  0  0
 22 20  1  0  0  0  0
 23 15  1  0  0  0  0
 23 14  1  0  0  0  0
 24 27  1  0  0  0  0
 25 18  1  0  0  0  0
 26 19  1  0  0  0  0
 26 25  1  0  0  0  0
 27 12  1  0  0  0  0
 28 30  1  0  0  0  0
 29 30  1  0  0  0  0
M  END
>  <MODEL>
2

>  <REMARK>
 VINA RESULT:      -5.2      4.159      8.249
  Name = 
  2 active torsions:
  status: ('A' for Active; 'I' for Inactive)
    1  A    between atoms: C_11  and  C_28
    2  A    between atoms: C_28  and  O_30
                            x       y       z     vdW  Elec       q    Type
                         _______ _______ _______ _____ _____    ______ ____

>  <TORSDO>
F 2

$$$$
=
 OpenBabel11122412443D

 30 35  0  0  1  0  0  0  0  0999 V2000
  160.6860  211.8970  151.2110 C   0  0  0  0  0  0  0  0  0  0  0  0
  160.6880  213.4050  149.2320 C   0  0  0  0  0  0  0  0  0  0  0  0
  161.4540  208.9880  149.2060 N   0  0  0  0  0  2  0  0  0  0  0  0
  161.0900  210.6480  151.9290 C   0  0  2  0  0  3  0  0  0  0  0  0
  159.7940  212.7360  151.8910 O   0  0  0  0  0  0  0  0  0  0  0  0
  160.4640  212.4470  155.0830 O   0  0  0  0  0  1  0  0  0  0  0  0
  161.1230  208.4700  154.0520 C   0  0  1  0  0  3  0  0  0  0  0  0
  160.0770  211.5750  154.0660 C   0  0  1  0  0  3  0  0  0  0  0  0
  160.7740  207.9730  152.6410 C   0  0  2  0  0  3  0  0  0  0  0  0
  161.2320  207.9700  150.1650 C   0  0  0  0  0  0  0  0  0  0  0  0
  159.1340  212.3160  153.0930 C   0  0  2  0  0  3  0  0  0  0  0  0
  161.3300  210.9690  153.4000 C   0  0  1  0  0  3  0  0  0  0  0  0
  161.1330  213.5990  147.8130 C   0  0  0  0  0  2  0  0  0  0  0  0
  160.6480  206.4770  152.8220 C   0  0  0  0  0  2  0  0  0  0  0  0
  161.8040  207.3830  154.7360 N   0  0  0  0  0  2  0  0  0  0  0  0
  159.9170  214.2570  149.7510 O   0  0  0  0  0  0  0  0  0  0  0  0
  162.3540  209.9400  149.8250 C   0  0  2  0  0  3  0  0  0  0  0  0
  162.3390  212.7120  147.5020 C   0  0  0  0  0  2  0  0  0  0  0  0
  161.1190  212.1900  149.9720 C   0  0  0  0  0  0  0  0  0  0  0  0
  162.2000  209.7690  151.3390 C   0  0  2  0  0  3  0  0  0  0  0  0
  160.6340  206.9010  149.8770 O   0  0  0  0  0  0  0  0  0  0  0  0
  161.8020  208.2780  151.5120 C   0  0  1  0  0  3  0  0  0  0  0  0
  161.2250  206.1630  154.1910 C   0  0  0  0  0  2  0  0  0  0  0  0
  162.1390  210.1030  155.5080 O   0  0  0  0  0  1  0  0  0  0  0  0
  162.0770  211.3910  147.9050 O   0  0  0  0  0  0  0  0  0  0  0  0
  162.2060  211.3730  149.3070 C   0  0  2  0  0  3  0  0  0  0  0  0
  161.9270  209.7740  154.1670 C   0  0  1  0  0  3  0  0  0  0  0  0
  157.9530  211.4200  152.7550 C   0  0  0  0  0  2  0  0  0  0  0  0
  156.8970  213.1810  153.5560 C   0  0  0  0  0  1  0  0  0  0  0  0
  156.8450  211.7890  153.5160 O   0  0  0  0  0  0  0  0  0  0  0  0
  1  5  1  0  0  0  0
  2 16  2  0  0  0  0
  2 19  1  0  0  0  0
  3 17  1  0  0  0  0
  3 10  1  0  0  0  0
  4  1  1  6  0  0  0
  4 12  1  0  0  0  0
  5 11  1  0  0  0  0
  7 27  1  0  0  0  0
  7 15  1  6  0  0  0
  8  6  1  1  0  0  0
  9 14  1  1  0  0  0
  9  7  1  0  0  0  0
 10 22  1  0  0  0  0
 11 28  1  6  0  0  0
 11  8  1  0  0  0  0
 12  8  1  0  0  0  0
 12 27  1  0  0  0  0
 13  2  1  0  0  0  0
 14 23  1  0  0  0  0
 17 20  1  0  0  0  0
 18 13  1  0  0  0  0
 18 25  1  0  0  0  0
 19  1  2  0  0  0  0
 20 22  1  0  0  0  0
 20  4  1  0  0  0  0
 21 10  2  0  0  0  0
 22  9  1  0  0  0  0
 23 15  1  0  0  0  0
 25 26  1  0  0  0  0
 26 17  1  0  0  0  0
 26 19  1  0  0  0  0
 27 24  1  0  0  0  0
 28 30  1  0  0  0  0
 30 29  1  0  0  0  0
M  END
>  <MODEL>
3

>  <REMARK>
 VINA RESULT:      -4.3      1.612      1.923
  Name = 
  2 active torsions:
  status: ('A' for Active; 'I' for Inactive)
    1  A    between atoms: C_11  and  C_28
    2  A    between atoms: C_28  and  O_30
                            x       y       z     vdW  Elec       q    Type
                         _______ _______ _______ _____ _____    ______ ____

>  <TORSDO>
F 2

$$$$
=
 OpenBabel11122412443D

 30 35  0  0  1  0  0  0  0  0999 V2000
  158.0410  213.2180  152.6670 C   0  0  0  0  0  0  0  0  0  0  0  0
  157.5360  214.0160  150.3650 C   0  0  0  0  0  0  0  0  0  0  0  0
  160.3760  210.7290  151.4720 N   0  0  0  0  0  2  0  0  0  0  0  0
  158.9180  212.5500  153.6780 C   0  0  2  0  0  3  0  0  0  0  0  0
  156.7780  213.6190  153.1180 O   0  0  0  0  0  0  0  0  0  0  0  0
  157.1160  214.4530  156.2660 O   0  0  0  0  0  1  0  0  0  0  0  0
  159.7670  211.2460  156.2910 C   0  0  1  0  0  3  0  0  0  0  0  0
  157.3340  213.2980  155.5150 C   0  0  1  0  0  3  0  0  0  0  0  0
  159.8790  210.3310  155.0620 C   0  0  2  0  0  3  0  0  0  0  0  0
  160.5710  209.9920  152.6650 C   0  0  0  0  0  0  0  0  0  0  0  0
  156.2720  213.2120  154.3970 C   0  0  2  0  0  3  0  0  0  0  0  0
  158.7920  213.2770  155.0120 C   0  0  1  0  0  3  0  0  0  0  0  0
  157.9930  214.0770  148.9370 C   0  0  0  0  0  2  0  0  0  0  0  0
  160.4860  209.0660  155.6260 C   0  0  0  0  0  2  0  0  0  0  0  0
  160.8070  210.8450  157.2230 N   0  0  0  0  0  2  0  0  0  0  0  0
  156.3900  214.4530  150.6560 O   0  0  0  0  0  0  0  0  0  0  0  0
  160.6090  212.1190  151.8100 C   0  0  2  0  0  3  0  0  0  0  0  0
  159.5080  213.8800  148.8500 C   0  0  0  0  0  2  0  0  0  0  0  0
  158.4180  213.3960  151.3880 C   0  0  0  0  0  0  0  0  0  0  0  0
  160.3790  212.2460  153.3190 C   0  0  2  0  0  3  0  0  0  0  0  0
  160.6170  208.7340  152.6720 O   0  0  0  0  0  0  0  0  0  0  0  0
  160.7500  210.8470  153.8780 C   0  0  1  0  0  3  0  0  0  0  0  0
  160.9740  209.4130  157.0210 C   0  0  0  0  0  2  0  0  0  0  0  0
  159.6640  213.4520  157.2610 O   0  0  0  0  0  1  0  0  0  0  0  0
  159.8840  212.7420  149.5840 O   0  0  0  0  0  0  0  0  0  0  0  0
  159.8370  213.1140  150.9420 C   0  0  2  0  0  3  0  0  0  0  0  0
  159.8040  212.7640  156.0540 C   0  0  1  0  0  3  0  0  0  0  0  0
  155.7360  211.7920  154.3200 C   0  0  0  0  0  2  0  0  0  0  0  0
  155.1060  210.1290  155.6230 C   0  0  0  0  0  1  0  0  0  0  0  0
  156.1120  211.0800  155.4570 O   0  0  0  0  0  0  0  0  0  0  0  0
  1  5  1  0  0  0  0
  2 16  2  0  0  0  0
  2 19  1  0  0  0  0
  3 17  1  0  0  0  0
  3 10  1  0  0  0  0
  4  1  1  6  0  0  0
  4 12  1  0  0  0  0
  5 11  1  0  0  0  0
  7 15  1  1  0  0  0
  8  6  1  6  0  0  0
  9 14  1  1  0  0  0
  9  7  1  0  0  0  0
 10 21  2  0  0  0  0
 10 22  1  0  0  0  0
 11 28  1  6  0  0  0
 11  8  1  0  0  0  0
 12  8  1  0  0  0  0
 12 27  1  0  0  0  0
 13  2  1  0  0  0  0
 14 23  1  0  0  0  0
 17 20  1  0  0  0  0
 18 13  1  0  0  0  0
 18 25  1  0  0  0  0
 19  1  2  0  0  0  0
 20  4  1  0  0  0  0
 20 22  1  0  0  0  0
 22  9  1  0  0  0  0
 23 15  1  0  0  0  0
 25 26  1  0  0  0  0
 26 19  1  0  0  0  0
 26 17  1  0  0  0  0
 27  7  1  0  0  0  0
 27 24  1  0  0  0  0
 28 30  1  0  0  0  0
 30 29  1  0  0  0  0
M  END
>  <MODEL>
4

>  <REMARK>
 VINA RESULT:      -3.8      1.839      2.531
  Name = 
  2 active torsions:
  status: ('A' for Active; 'I' for Inactive)
    1  A    between atoms: C_11  and  C_28
    2  A    between atoms: C_28  and  O_30
                            x       y       z     vdW  Elec       q    Type
                         _______ _______ _______ _____ _____    ______ ____

>  <TORSDO>
F 2

$$$$
=
 OpenBabel11122412443D

 30 35  0  0  1  0  0  0  0  0999 V2000
  161.0540  211.6760  150.7430 C   0  0  0  0  0  0  0  0  0  0  0  0
  160.9420  211.0050  153.1360 C   0  0  0  0  0  0  0  0  0  0  0  0
  157.6810  212.9780  150.7770 N   0  0  0  0  0  2  0  0  0  0  0  0
  160.6190  212.5020  149.5740 C   0  0  2  0  0  3  0  0  0  0  0  0
  161.9950  210.6750  150.4720 O   0  0  0  0  0  0  0  0  0  0  0  0
  163.8980  211.7910  148.0530 O   0  0  0  0  0  1  0  0  0  0  0  0
  160.3170  213.4130  146.6880 C   0  0  1  0  0  3  0  0  0  0  0  0
  162.5340  211.5430  148.2110 C   0  0  1  0  0  3  0  0  0  0  0  0
  158.9940  213.0460  147.3770 C   0  0  2  0  0  3  0  0  0  0  0  0
  157.4860  213.1740  149.3890 C   0  0  0  0  0  0  0  0  0  0  0  0
  162.3450  210.3160  149.1290 C   0  0  2  0  0  3  0  0  0  0  0  0
  161.8310  212.8230  148.7070 C   0  0  1  0  0  3  0  0  0  0  0  0
  160.2520  211.1960  154.4550 C   0  0  0  0  0  2  0  0  0  0  0  0
  157.9550  213.3720  146.3270 C   0  0  0  0  0  2  0  0  0  0  0  0
  160.0230  214.4530  145.7160 N   0  0  0  0  0  2  0  0  0  0  0  0
  161.8090  210.0960  153.0300 O   0  0  0  0  0  0  0  0  0  0  0  0
  158.9250  213.6420  151.1110 C   0  0  2  0  0  3  0  0  0  0  0  0
  159.5530  212.5560  154.5020 C   0  0  0  0  0  2  0  0  0  0  0  0
  160.5510  211.8500  151.9790 C   0  0  0  0  0  0  0  0  0  0  0  0
  159.7340  213.7330  149.8130 C   0  0  2  0  0  3  0  0  0  0  0  0
  156.4050  212.8710  148.8180 O   0  0  0  0  0  0  0  0  0  0  0  0
  158.6560  213.7970  148.6980 C   0  0  1  0  0  3  0  0  0  0  0  0
  158.6690  214.1790  145.2580 C   0  0  0  0  0  2  0  0  0  0  0  0
  162.6260  214.1000  146.8130 O   0  0  0  0  0  1  0  0  0  0  0  0
  158.7680  212.7300  153.3490 O   0  0  0  0  0  0  0  0  0  0  0  0
  159.6630  213.0320  152.3040 C   0  0  2  0  0  3  0  0  0  0  0  0
  161.4950  213.8240  147.5850 C   0  0  1  0  0  3  0  0  0  0  0  0
  161.2820  209.4030  148.5380 C   0  0  0  0  0  2  0  0  0  0  0  0
  162.6960  207.7470  148.8830 C   0  0  0  0  0  1  0  0  0  0  0  0
  161.3760  208.1350  149.1080 O   0  0  0  0  0  0  0  0  0  0  0  0
  1 19  2  0  0  0  0
  2 13  1  0  0  0  0
  3 17  1  0  0  0  0
  4 20  1  0  0  0  0
  4  1  1  1  0  0  0
  5  1  1  0  0  0  0
  7 15  1  6  0  0  0
  7  9  1  0  0  0  0
  7 27  1  0  0  0  0
  8  6  1  1  0  0  0
  8 12  1  0  0  0  0
  8 11  1  0  0  0  0
  9 14  1  6  0  0  0
  9 22  1  0  0  0  0
 10  3  1  0  0  0  0
 11 28  1  6  0  0  0
 11  5  1  0  0  0  0
 12  4  1  0  0  0  0
 13 18  1  0  0  0  0
 16  2  2  0  0  0  0
 17 26  1  0  0  0  0
 19 26  1  0  0  0  0
 19  2  1  0  0  0  0
 20 17  1  0  0  0  0
 21 10  2  0  0  0  0
 22 10  1  0  0  0  0
 22 20  1  0  0  0  0
 23 15  1  0  0  0  0
 23 14  1  0  0  0  0
 24 27  1  0  0  0  0
 25 18  1  0  0  0  0
 26 25  1  0  0  0  0
 27 12  1  0  0  0  0
 28 30  1  0  0  0  0
 29 30  1  0  0  0  0
M  END
>  <MODEL>
5

>  <REMARK>
 VINA RESULT:      -3.5      2.991      7.608
  Name = 
  2 active torsions:
  status: ('A' for Active; 'I' for Inactive)
    1  A    between atoms: C_11  and  C_28
    2  A    between atoms: C_28  and  O_30
                            x       y       z     vdW  Elec       q    Type
                         _______ _______ _______ _____ _____    ______ ____

>  <TORSDO>
F 2

$$$$
=
 OpenBabel11122412443D

 30 35  0  0  1  0  0  0  0  0999 V2000
  157.9490  213.1280  139.8420 C   0  0  0  0  0  0  0  0  0  0  0  0
  155.6590  213.9400  140.3750 C   0  0  0  0  0  0  0  0  0  0  0  0
  156.6980  210.4810  137.7190 N   0  0  0  0  0  2  0  0  0  0  0  0
  158.9350  212.4110  138.9750 C   0  0  2  0  0  3  0  0  0  0  0  0
  158.4410  213.6140  141.0590 O   0  0  0  0  0  0  0  0  0  0  0  0
  161.5660  214.4480  140.5560 O   0  0  0  0  0  1  0  0  0  0  0  0
  161.5300  211.0730  138.1210 C   0  0  1  0  0  3  0  0  0  0  0  0
  160.8200  213.2750  140.4400 C   0  0  1  0  0  3  0  0  0  0  0  0
  160.3060  210.1440  138.1120 C   0  0  2  0  0  3  0  0  0  0  0  0
  157.8900  209.7420  137.5300 C   0  0  0  0  0  0  0  0  0  0  0  0
  159.7400  213.2510  141.5450 C   0  0  2  0  0  3  0  0  0  0  0  0
  160.2650  213.1550  139.0060 C   0  0  1  0  0  3  0  0  0  0  0  0
  154.2150  213.9600  139.9660 C   0  0  0  0  0  2  0  0  0  0  0  0
  160.8610  208.8460  137.5700 C   0  0  0  0  0  2  0  0  0  0  0  0
  162.4290  210.6120  137.0760 N   0  0  0  0  0  2  0  0  0  0  0  0
  155.9850  214.4530  141.4790 O   0  0  0  0  0  0  0  0  0  0  0  0
  157.0140  211.8550  137.3840 C   0  0  2  0  0  3  0  0  0  0  0  0
  154.0770  213.6630  138.4720 C   0  0  0  0  0  2  0  0  0  0  0  0
  156.6560  213.2710  139.5000 C   0  0  0  0  0  0  0  0  0  0  0  0
  158.5290  212.0090  137.5510 C   0  0  2  0  0  3  0  0  0  0  0  0
  157.9080  208.4840  137.5670 O   0  0  0  0  0  0  0  0  0  0  0  0
  159.0880  210.5920  137.2530 C   0  0  1  0  0  3  0  0  0  0  0  0
  162.2350  209.1700  137.0110 C   0  0  0  0  0  2  0  0  0  0  0  0
  162.4810  213.2890  138.0450 O   0  0  0  0  0  1  0  0  0  0  0  0
  154.8080  212.5080  138.1450 O   0  0  0  0  0  0  0  0  0  0  0  0
  156.1640  212.8930  138.1190 C   0  0  2  0  0  3  0  0  0  0  0  0
  161.2760  212.5830  137.9930 C   0  0  1  0  0  3  0  0  0  0  0  0
  159.6960  211.8680  142.1750 C   0  0  0  0  0  2  0  0  0  0  0  0
  159.4860  212.5270  144.2690 C   0  0  0  0  0  1  0  0  0  0  0  0
  160.3640  211.8830  143.3980 O   0  0  0  0  0  0  0  0  0  0  0  0
  1  5  1  0  0  0  0
  2 16  2  0  0  0  0
  4 12  1  0  0  0  0
  4  1  1  6  0  0  0
  5 11  1  0  0  0  0
  7 15  1  6  0  0  0
  8  6  1  6  0  0  0
  8 11  1  0  0  0  0
  9 14  1  6  0  0  0
  9  7  1  0  0  0  0
 10 21  2  0  0  0  0
 10  3  1  0  0  0  0
 11 28  1  6  0  0  0
 12  8  1  0  0  0  0
 13  2  1  0  0  0  0
 17 20  1  0  0  0  0
 17  3  1  0  0  0  0
 17 26  1  0  0  0  0
 18 13  1  0  0  0  0
 19  1  2  0  0  0  0
 19  2  1  0  0  0  0
 20  4  1  0  0  0  0
 22 10  1  0  0  0  0
 22 20  1  0  0  0  0
 22  9  1  0  0  0  0
 23 15  1  0  0  0  0
 23 14  1  0  0  0  0
 25 18  1  0  0  0  0
 26 25  1  0  0  0  0
 26 19  1  0  0  0  0
 27 24  1  0  0  0  0
 27  7  1  0  0  0  0
 27 12  1  0  0  0  0
 28 30  1  0  0  0  0
 30 29  1  0  0  0  0
M  END
>  <MODEL>
6

>  <REMARK>
 VINA RESULT:      -3.2     10.695     14.951
  Name = 
  2 active torsions:
  status: ('A' for Active; 'I' for Inactive)
    1  A    between atoms: C_11  and  C_28
    2  A    between atoms: C_28  and  O_30
                            x       y       z     vdW  Elec       q    Type
                         _______ _______ _______ _____ _____    ______ ____

>  <TORSDO>
F 2

$$$$
