=
 OpenBabel11122413043D

 32 37  0  0  1  0  0  0  0  0999 V2000
  160.5970  201.5730  149.8730 O   0  0  0  0  0  0  0  0  0  0  0  0
  161.3310  206.2200  151.8120 C   0  0  2  0  0  3  0  0  0  0  0  0
  162.1580  209.8140  148.5460 C   0  0  0  0  0  3  0  0  0  0  0  0
  162.2170  210.7510  149.5750 C   0  0  0  0  0  3  0  0  0  0  0  0
  160.9650  206.9590  154.2050 C   0  0  0  0  0  0  0  0  0  0  0  0
  160.6470  208.0450  155.1990 C   0  0  1  0  0  3  0  0  0  0  0  0
  160.4790  204.0460  150.8970 C   0  0  1  0  0  3  0  0  0  0  0  0
  161.2950  205.8160  149.3230 N   0  0  0  0  0  2  0  0  0  0  0  0
  160.7480  210.3090  155.7010 C   0  0  2  0  0  3  0  0  0  0  0  0
  161.0890  203.5590  148.4200 C   0  0  0  0  0  2  0  0  0  0  0  0
  161.8830  208.4780  148.8350 C   0  0  0  0  0  3  0  0  0  0  0  0
  161.4140  206.7530  150.4040 C   0  0  0  0  0  0  0  0  0  0  0  0
  161.6710  208.0510  150.1580 C   0  0  0  0  0  0  0  0  0  0  0  0
  161.4480  208.6520  152.4810 C   0  0  0  0  0  0  0  0  0  0  0  0
  161.4350  209.5540  156.8320 C   0  0  0  0  0  2  0  0  0  0  0  0
  161.8230  201.9190  150.4740 C   0  0  0  0  0  2  0  0  0  0  0  0
  160.5450  204.5650  149.4390 C   0  0  1  0  0  3  0  0  0  0  0  0
  161.6600  208.1580  156.3110 C   0  0  0  0  0  2  0  0  0  0  0  0
  161.6690  203.1790  151.3350 C   0  0  0  0  0  2  0  0  0  0  0  0
  160.5210  202.1320  148.5680 C   0  0  1  0  0  3  0  0  0  0  0  0
  161.9920  210.3520  150.8930 C   0  0  0  0  0  3  0  0  0  0  0  0
  161.7100  209.0080  151.2070 C   0  0  0  0  0  0  0  0  0  0  0  0
  161.5190  209.6500  153.6030 C   0  0  0  0  0  2  0  0  0  0  0  0
  160.2150  205.1790  151.8860 C   0  0  0  0  0  2  0  0  0  0  0  0
  161.0410  205.7670  154.6050 O   0  0  0  0  0  0  0  0  0  0  0  0
  159.4440  210.9040  156.2000 C   0  0  0  0  0  1  0  0  0  0  0  0
  161.1670  207.2810  152.8160 N   0  0  0  0  0  0  0  0  0  0  0  0
  160.4830  209.3800  154.6040 N   0  0  1  0  0  0  0  0  0  0  0  0
  161.1590  201.2070  147.5390 C   0  0  0  0  0  2  0  0  0  0  0  0
  160.8500  201.6590  146.1480 C   0  0  0  0  0  0  0  0  0  0  0  0
  160.0540  200.7820  145.2450 C   0  0  0  0  0  1  0  0  0  0  0  0
  161.2620  202.7340  145.7440 O   0  0  0  0  0  0  0  0  0  0  0  0
  1 16  1  0  0  0  0
  2 24  1  6  0  0  0
  2 27  1  0  0  0  0
  3 11  2  0  0  0  0
  3  4  1  0  0  0  0
  4 21  2  0  0  0  0
  5 25  2  0  0  0  0
  5  6  1  0  0  0  0
  6 18  1  1  0  0  0
  7 19  1  1  0  0  0
  7 24  1  0  0  0  0
  8 17  1  0  0  0  0
  8 12  1  0  0  0  0
  9 26  1  1  0  0  0
  9 15  1  0  0  0  0
 10 20  1  0  0  0  0
 11 13  1  0  0  0  0
 12  2  1  0  0  0  0
 13 12  2  0  0  0  0
 13 22  1  0  0  0  0
 14 27  1  0  0  0  0
 14 23  1  0  0  0  0
 16 19  1  0  0  0  0
 17 10  1  6  0  0  0
 17  7  1  0  0  0  0
 18 15  1  0  0  0  0
 20 29  1  6  0  0  0
 20  1  1  0  0  0  0
 21 22  1  0  0  0  0
 22 14  2  0  0  0  0
 27  5  1  0  0  0  0
 28 23  1  6  0  0  0
 28  6  1  0  0  0  0
 28  9  1  0  0  0  0
 30 29  1  0  0  0  0
 31 30  1  0  0  0  0
 32 30  2  0  0  0  0
M  END
>  <MODEL>
1

>  <REMARK>
 VINA RESULT:      -9.5      0.000      0.000
  Name = 
  2 active torsions:
  status: ('A' for Active; 'I' for Inactive)
    1  A    between atoms: C_20  and  C_29
    2  A    between atoms: C_29  and  C_30
                            x       y       z     vdW  Elec       q    Type
                         _______ _______ _______ _____ _____    ______ ____

>  <TORSDO>
F 2

$$$$
=
 OpenBabel11122413043D

 32 37  0  0  1  0  0  0  0  0999 V2000
  161.4240  210.7330  153.2510 O   0  0  0  0  0  0  0  0  0  0  0  0
  161.6070  206.6950  150.1600 C   0  0  2  0  0  3  0  0  0  0  0  0
  160.8250  202.3170  152.2810 C   0  0  0  0  0  3  0  0  0  0  0  0
  160.9340  201.6860  151.0440 C   0  0  0  0  0  3  0  0  0  0  0  0
  161.6900  206.7020  147.6300 C   0  0  0  0  0  0  0  0  0  0  0  0
  161.4020  206.0260  146.3150 C   0  0  1  0  0  3  0  0  0  0  0  0
  161.0390  208.7210  151.5250 C   0  0  1  0  0  3  0  0  0  0  0  0
  161.0480  206.4620  152.6080 N   0  0  0  0  0  2  0  0  0  0  0  0
  161.1390  204.0190  145.1790 C   0  0  2  0  0  3  0  0  0  0  0  0
  161.1120  208.3920  154.1000 C   0  0  0  0  0  2  0  0  0  0  0  0
  160.9200  203.7060  152.3650 C   0  0  0  0  0  3  0  0  0  0  0  0
  161.2270  205.8270  151.3340 C   0  0  0  0  0  0  0  0  0  0  0  0
  161.1340  204.4890  151.2170 C   0  0  0  0  0  0  0  0  0  0  0  0
  161.3650  204.5680  148.8190 C   0  0  0  0  0  0  0  0  0  0  0  0
  162.2270  204.8140  144.4680 C   0  0  0  0  0  2  0  0  0  0  0  0
  162.6580  210.2260  152.7980 C   0  0  0  0  0  2  0  0  0  0  0  0
  160.6340  207.8580  152.7460 C   0  0  1  0  0  3  0  0  0  0  0  0
  162.6080  205.9210  145.4170 C   0  0  0  0  0  2  0  0  0  0  0  0
  162.4560  209.3110  151.5840 C   0  0  0  0  0  2  0  0  0  0  0  0
  160.9140  209.9100  154.2920 C   0  0  1  0  0  3  0  0  0  0  0  0
  161.1300  202.4460  149.8900 C   0  0  0  0  0  3  0  0  0  0  0  0
  161.2240  203.8500  149.9520 C   0  0  0  0  0  0  0  0  0  0  0  0
  161.4950  203.9000  147.4800 C   0  0  0  0  0  2  0  0  0  0  0  0
  160.7910  207.9850  150.2090 C   0  0  0  0  0  2  0  0  0  0  0  0
  162.1130  207.8890  147.6280 O   0  0  0  0  0  0  0  0  0  0  0  0
  159.9020  203.9460  144.3040 C   0  0  0  0  0  1  0  0  0  0  0  0
  161.4720  206.0020  148.8700 N   0  0  0  0  0  0  0  0  0  0  0  0
  160.8170  204.6820  146.4410 N   0  0  1  0  0  0  0  0  0  0  0  0
  161.4620  210.3400  155.6480 C   0  0  0  0  0  2  0  0  0  0  0  0
  160.4780  211.1990  156.3750 C   0  0  0  0  0  0  0  0  0  0  0  0
  159.0270  210.8640  156.3280 C   0  0  0  0  0  1  0  0  0  0  0  0
  160.8550  212.1820  156.9900 O   0  0  0  0  0  0  0  0  0  0  0  0
  1 20  1  0  0  0  0
  2 24  1  6  0  0  0
  2 12  1  0  0  0  0
  3 11  2  0  0  0  0
  4  3  1  0  0  0  0
  5 27  1  0  0  0  0
  6 18  1  1  0  0  0
  6 28  1  0  0  0  0
  6  5  1  0  0  0  0
  7 24  1  6  0  0  0
  7 19  1  0  0  0  0
  7 17  1  0  0  0  0
  8 17  1  0  0  0  0
  9 26  1  6  0  0  0
  9 28  1  0  0  0  0
 10 20  1  0  0  0  0
 12  8  1  0  0  0  0
 13 12  2  0  0  0  0
 13 11  1  0  0  0  0
 14 27  1  0  0  0  0
 14 22  2  0  0  0  0
 15  9  1  0  0  0  0
 15 18  1  0  0  0  0
 16  1  1  0  0  0  0
 17 10  1  1  0  0  0
 19 16  1  0  0  0  0
 20 29  1  1  0  0  0
 21 22  1  0  0  0  0
 21  4  2  0  0  0  0
 22 13  1  0  0  0  0
 23 14  1  0  0  0  0
 25  5  2  0  0  0  0
 27  2  1  0  0  0  0
 28 23  1  1  0  0  0
 29 30  1  0  0  0  0
 30 32  2  0  0  0  0
 31 30  1  0  0  0  0
M  END
>  <MODEL>
2

>  <REMARK>
 VINA RESULT:      -8.6      2.497      8.921
  Name = 
  2 active torsions:
  status: ('A' for Active; 'I' for Inactive)
    1  A    between atoms: C_20  and  C_29
    2  A    between atoms: C_29  and  C_30
                            x       y       z     vdW  Elec       q    Type
                         _______ _______ _______ _____ _____    ______ ____

>  <TORSDO>
F 2

$$$$
=
 OpenBabel11122413043D

 32 37  0  0  1  0  0  0  0  0999 V2000
  160.9250  207.6910  156.9350 O   0  0  0  0  0  0  0  0  0  0  0  0
  160.7890  205.9270  152.1640 C   0  0  2  0  0  3  0  0  0  0  0  0
  161.9430  209.1620  148.6330 C   0  0  0  0  0  3  0  0  0  0  0  0
  161.7970  208.1730  147.6630 C   0  0  0  0  0  3  0  0  0  0  0  0
  160.5560  203.5160  151.4250 C   0  0  0  0  0  0  0  0  0  0  0  0
  160.8040  202.4360  150.4050 C   0  0  1  0  0  3  0  0  0  0  0  0
  161.3210  206.6000  154.5200 C   0  0  1  0  0  3  0  0  0  0  0  0
  161.5040  208.2890  152.6800 N   0  0  0  0  0  2  0  0  0  0  0  0
  161.1120  201.9160  148.1640 C   0  0  2  0  0  3  0  0  0  0  0  0
  161.4190  209.1570  154.9580 C   0  0  0  0  0  2  0  0  0  0  0  0
  161.7750  208.8470  149.9800 C   0  0  0  0  0  3  0  0  0  0  0  0
  161.2870  207.2700  151.6930 C   0  0  0  0  0  0  0  0  0  0  0  0
  161.4480  207.5400  150.3840 C   0  0  0  0  0  0  0  0  0  0  0  0
  161.0720  205.2460  149.7480 C   0  0  0  0  0  0  0  0  0  0  0  0
  159.9400  201.0860  148.6750 C   0  0  0  0  0  2  0  0  0  0  0  0
  159.6970  207.4970  156.2710 C   0  0  0  0  0  2  0  0  0  0  0  0
  161.8460  207.9850  154.0690 C   0  0  1  0  0  3  0  0  0  0  0  0
  159.5530  201.6980  149.9960 C   0  0  0  0  0  2  0  0  0  0  0  0
  159.8790  206.5890  155.0490 C   0  0  0  0  0  2  0  0  0  0  0  0
  161.5410  208.8860  156.4730 C   0  0  1  0  0  3  0  0  0  0  0  0
  161.4910  206.8660  148.0430 C   0  0  0  0  0  3  0  0  0  0  0  0
  161.3200  206.5250  149.3990 C   0  0  0  0  0  0  0  0  0  0  0  0
  160.9010  204.1710  148.7120 C   0  0  0  0  0  2  0  0  0  0  0  0
  161.5320  205.5390  153.4410 C   0  0  0  0  0  2  0  0  0  0  0  0
  160.0670  203.2020  152.5430 O   0  0  0  0  0  0  0  0  0  0  0  0
  162.2970  201.0110  147.8840 C   0  0  0  0  0  1  0  0  0  0  0  0
  160.8870  204.8870  151.1290 N   0  0  0  0  0  0  0  0  0  0  0  0
  161.4700  202.9030  149.1800 N   0  0  1  0  0  0  0  0  0  0  0  0
  161.0520  210.0950  157.2610 C   0  0  0  0  0  2  0  0  0  0  0  0
  161.9920  211.2470  157.1130 C   0  0  0  0  0  0  0  0  0  0  0  0
  163.4590  211.0280  157.2550 C   0  0  0  0  0  1  0  0  0  0  0  0
  161.5640  212.3680  156.8960 O   0  0  0  0  0  0  0  0  0  0  0  0
  2 24  1  1  0  0  0
  3 11  2  0  0  0  0
  4 21  2  0  0  0  0
  4  3  1  0  0  0  0
  5 25  2  0  0  0  0
  6 18  1  6  0  0  0
  6  5  1  0  0  0  0
  7 24  1  6  0  0  0
  7 19  1  0  0  0  0
  8 17  1  0  0  0  0
  9 26  1  1  0  0  0
  9 15  1  0  0  0  0
  9 28  1  0  0  0  0
 10 20  1  0  0  0  0
 11 13  1  0  0  0  0
 12  2  1  0  0  0  0
 12  8  1  0  0  0  0
 13 12  2  0  0  0  0
 14 27  1  0  0  0  0
 15 18  1  0  0  0  0
 16  1  1  0  0  0  0
 17  7  1  0  0  0  0
 17 10  1  1  0  0  0
 19 16  1  0  0  0  0
 20  1  1  0  0  0  0
 20 29  1  1  0  0  0
 21 22  1  0  0  0  0
 22 14  2  0  0  0  0
 22 13  1  0  0  0  0
 23 14  1  0  0  0  0
 27  5  1  0  0  0  0
 27  2  1  0  0  0  0
 28 23  1  6  0  0  0
 28  6  1  0  0  0  0
 30 31  1  0  0  0  0
 30 29  1  0  0  0  0
 32 30  2  0  0  0  0
M  END
>  <MODEL>
3

>  <REMARK>
 VINA RESULT:      -6.7      1.984      8.150
  Name = 
  2 active torsions:
  status: ('A' for Active; 'I' for Inactive)
    1  A    between atoms: C_20  and  C_29
    2  A    between atoms: C_29  and  C_30
                            x       y       z     vdW  Elec       q    Type
                         _______ _______ _______ _____ _____    ______ ____

>  <TORSDO>
F 2

$$$$
