=
 OpenBabel11122414113D

 28 32  0  0  1  0  0  0  0  0999 V2000
  161.5080  205.9200  152.3460 C   0  0  0  0  0  0  0  0  0  0  0  0
  163.3910  207.6630  148.7440 O   0  0  0  0  0  0  0  0  0  0  0  0
  158.6400  210.8700  154.2120 O   0  0  0  0  0  0  0  0  0  0  0  0
  160.1600  204.9050  150.1080 C   0  0  0  0  0  3  0  0  0  0  0  0
  160.3690  211.2770  152.6530 N   0  0  0  0  0  0  0  0  0  0  0  0
  162.2270  206.3990  153.5670 C   0  0  0  0  0  2  0  0  0  0  0  0
  161.0580  207.9640  147.9840 O   0  0  0  0  0  0  0  0  0  0  0  0
  162.2120  208.5930  148.7090 S   0  0  0  0  0  0  0  0  0  0  0  0
  162.3620  211.3290  148.5020 C   0  0  0  0  0  0  0  0  0  0  0  0
  161.7600  209.0330  150.3170 N   0  0  0  0  0  0  0  0  0  0  0  0
  159.6520  206.9990  156.0900 O   0  0  0  0  0  0  0  0  0  0  0  0
  161.0830  209.0880  152.4400 C   0  0  0  0  0  0  0  0  0  0  0  0
  161.8590  211.4390  149.8410 N   0  0  0  0  0  2  0  0  0  0  0  0
  162.6450  210.0580  147.9070 N   0  0  0  0  0  2  0  0  0  0  0  0
  160.5450  207.2780  155.2500 C   0  0  0  0  0  0  0  0  0  0  0  0
  161.1120  206.7970  151.3090 C   0  0  0  0  0  0  0  0  0  0  0  0
  159.6080  210.4410  153.5300 C   0  0  0  0  0  0  0  0  0  0  0  0
  162.6540  212.6890  147.6480 S   0  0  0  0  0  0  0  0  0  0  0  0
  160.7420  208.7000  154.8410 C   0  0  0  0  0  2  0  0  0  0  0  0
  160.4310  206.2700  150.2040 C   0  0  0  0  0  3  0  0  0  0  0  0
  161.2380  204.5490  152.2390 C   0  0  0  0  0  3  0  0  0  0  0  0
  160.5660  204.0430  151.1250 C   0  0  0  0  0  3  0  0  0  0  0  0
  161.3700  206.2330  154.7320 N   0  0  0  0  0  2  0  0  0  0  0  0
  161.2490  210.3690  152.0160 C   0  0  0  0  0  0  0  0  0  0  0  0
  160.0520  209.0000  153.5200 C   0  0  2  0  0  3  0  0  0  0  0  0
  161.6580  210.3180  150.7070 C   0  0  0  0  0  0  0  0  0  0  0  0
  159.9050  212.5380  152.0980 C   0  0  0  0  0  1  0  0  0  0  0  0
  161.3760  208.2540  151.3660 C   0  0  0  0  0  0  0  0  0  0  0  0
  1  6  1  0  0  0  0
  4 20  2  0  0  0  0
  4 22  1  0  0  0  0
  5 17  1  0  0  0  0
  6 23  1  0  0  0  0
  7  8  2  0  0  0  0
  8  2  2  0  0  0  0
  8 10  1  0  0  0  0
  9 13  1  0  0  0  0
 10 26  1  0  0  0  0
 10 28  1  0  0  0  0
 12 25  1  0  0  0  0
 13 26  1  0  0  0  0
 14  9  1  0  0  0  0
 14  8  1  0  0  0  0
 15 11  2  0  0  0  0
 16 28  1  0  0  0  0
 16  1  2  0  0  0  0
 17  3  2  0  0  0  0
 18  9  2  0  0  0  0
 19 15  1  0  0  0  0
 20 16  1  0  0  0  0
 21  1  1  0  0  0  0
 22 21  2  0  0  0  0
 23 15  1  0  0  0  0
 24 12  1  0  0  0  0
 24  5  1  0  0  0  0
 25 17  1  0  0  0  0
 25 19  1  1  0  0  0
 26 24  2  0  0  0  0
 27  5  1  0  0  0  0
 28 12  2  0  0  0  0
M  END
>  <MODEL>
1

>  <REMARK>
 VINA RESULT:      -6.6      0.000      0.000
  Name = 
  0 active torsions:
  status: ('A' for Active; 'I' for Inactive)
                            x       y       z     vdW  Elec       q    Type
                         _______ _______ _______ _____ _____    ______ ____

>  <TORSDO>
F 0

$$$$
=
 OpenBabel11122414113D

 28 32  0  0  1  0  0  0  0  0999 V2000
  160.7580  209.8670  155.2490 C   0  0  0  0  0  0  0  0  0  0  0  0
  163.2620  210.0880  151.6100 O   0  0  0  0  0  0  0  0  0  0  0  0
  156.2100  213.2850  153.2880 O   0  0  0  0  0  0  0  0  0  0  0  0
  160.6140  207.3790  153.9670 C   0  0  0  0  0  3  0  0  0  0  0  0
  158.2060  213.5110  152.0410 N   0  0  0  0  0  0  0  0  0  0  0  0
  160.8430  211.1630  155.9920 C   0  0  0  0  0  2  0  0  0  0  0  0
  161.3610  208.9240  150.5420 O   0  0  0  0  0  0  0  0  0  0  0  0
  161.9710  210.2580  150.8610 S   0  0  0  0  0  0  0  0  0  0  0  0
  161.4510  212.2420  149.0320 C   0  0  0  0  0  0  0  0  0  0  0  0
  160.8770  211.2270  151.7830 N   0  0  0  0  0  0  0  0  0  0  0  0
  157.4790  211.8230  157.2610 O   0  0  0  0  0  0  0  0  0  0  0  0
  159.5030  212.0830  153.3150 C   0  0  0  0  0  0  0  0  0  0  0  0
  160.4950  212.8050  149.9420 N   0  0  0  0  0  2  0  0  0  0  0  0
  162.2530  211.1110  149.3890 N   0  0  0  0  0  2  0  0  0  0  0  0
  158.5040  211.9730  156.5480 C   0  0  0  0  0  0  0  0  0  0  0  0
  160.5390  209.8100  153.8520 C   0  0  0  0  0  0  0  0  0  0  0  0
  157.4340  213.0250  153.1430 C   0  0  0  0  0  0  0  0  0  0  0  0
  161.6540  212.9300  147.5660 S   0  0  0  0  0  0  0  0  0  0  0  0
  158.4480  212.8970  155.3780 C   0  0  0  0  0  2  0  0  0  0  0  0
  160.4610  208.5560  153.2330 C   0  0  0  0  0  3  0  0  0  0  0  0
  160.9190  208.6810  155.9770 C   0  0  0  0  0  3  0  0  0  0  0  0
  160.8470  207.4420  155.3400 C   0  0  0  0  0  3  0  0  0  0  0  0
  159.7050  211.2800  156.8930 N   0  0  0  0  0  2  0  0  0  0  0  0
  159.4610  212.8830  152.2160 C   0  0  0  0  0  0  0  0  0  0  0  0
  158.2180  212.1400  154.0800 C   0  0  2  0  0  3  0  0  0  0  0  0
  160.3060  212.3380  151.2810 C   0  0  0  0  0  0  0  0  0  0  0  0
  157.6510  213.9610  150.7740 C   0  0  0  0  0  1  0  0  0  0  0  0
  160.3680  211.0310  153.0310 C   0  0  0  0  0  0  0  0  0  0  0  0
  1 21  1  0  0  0  0
  1  6  1  0  0  0  0
  4 22  1  0  0  0  0
  5 24  1  0  0  0  0
  5 17  1  0  0  0  0
  6 23  1  0  0  0  0
  7  8  2  0  0  0  0
  8  2  2  0  0  0  0
  8 10  1  0  0  0  0
  9 14  1  0  0  0  0
  9 13  1  0  0  0  0
 10 28  1  0  0  0  0
 12 25  1  0  0  0  0
 13 26  1  0  0  0  0
 14  8  1  0  0  0  0
 15 23  1  0  0  0  0
 15 11  2  0  0  0  0
 16  1  2  0  0  0  0
 17  3  2  0  0  0  0
 17 25  1  0  0  0  0
 18  9  2  0  0  0  0
 19 15  1  0  0  0  0
 20 16  1  0  0  0  0
 20  4  2  0  0  0  0
 22 21  2  0  0  0  0
 24 12  1  0  0  0  0
 25 19  1  1  0  0  0
 26 10  1  0  0  0  0
 26 24  2  0  0  0  0
 27  5  1  0  0  0  0
 28 12  2  0  0  0  0
 28 16  1  0  0  0  0
M  END
>  <MODEL>
2

>  <REMARK>
 VINA RESULT:      -5.7      2.748      3.890
  Name = 
  0 active torsions:
  status: ('A' for Active; 'I' for Inactive)
                            x       y       z     vdW  Elec       q    Type
                         _______ _______ _______ _____ _____    ______ ____

>  <TORSDO>
F 0

$$$$
=
 OpenBabel11122414113D

 28 32  0  0  1  0  0  0  0  0999 V2000
  161.9100  205.6340  150.9940 C   0  0  0  0  0  0  0  0  0  0  0  0
  162.2450  201.2550  150.4740 O   0  0  0  0  0  0  0  0  0  0  0  0
  160.0810  206.9540  145.4150 O   0  0  0  0  0  0  0  0  0  0  0  0
  159.7750  204.4500  152.3690 C   0  0  0  0  0  3  0  0  0  0  0  0
  161.0610  204.8140  145.6370 N   0  0  0  0  0  0  0  0  0  0  0  0
  163.0600  206.3060  150.3120 C   0  0  0  0  0  2  0  0  0  0  0  0
  159.8060  201.3720  150.0900 O   0  0  0  0  0  0  0  0  0  0  0  0
  161.1610  201.4020  149.4440 S   0  0  0  0  0  0  0  0  0  0  0  0
  161.2550  200.3880  146.8920 C   0  0  0  0  0  0  0  0  0  0  0  0
  161.3850  202.8660  148.5570 N   0  0  0  0  0  0  0  0  0  0  0  0
  161.6960  209.3290  148.7740 O   0  0  0  0  0  0  0  0  0  0  0  0
  161.6020  204.9790  147.8790 C   0  0  0  0  0  0  0  0  0  0  0  0
  161.3230  201.7280  146.3820 N   0  0  0  0  0  2  0  0  0  0  0  0
  161.2630  200.1170  148.2970 N   0  0  0  0  0  2  0  0  0  0  0  0
  162.1900  208.1740  148.8320 C   0  0  0  0  0  0  0  0  0  0  0  0
  161.1500  204.6180  150.3680 C   0  0  0  0  0  0  0  0  0  0  0  0
  160.6960  206.1100  146.1200 C   0  0  0  0  0  0  0  0  0  0  0  0
  161.2060  199.1400  145.8420 S   0  0  0  0  0  0  0  0  0  0  0  0
  162.2290  207.3360  147.5970 C   0  0  0  0  0  2  0  0  0  0  0  0
  160.0810  204.0470  151.0700 C   0  0  0  0  0  3  0  0  0  0  0  0
  161.6000  206.0280  152.3020 C   0  0  0  0  0  3  0  0  0  0  0  0
  160.5370  205.4400  152.9880 C   0  0  0  0  0  3  0  0  0  0  0  0
  162.7290  207.7030  150.0680 N   0  0  0  0  0  2  0  0  0  0  0  0
  161.6050  204.1800  146.7790 C   0  0  0  0  0  0  0  0  0  0  0  0
  161.0790  206.3440  147.5600 C   0  0  2  0  0  3  0  0  0  0  0  0
  161.4630  202.8850  147.2120 C   0  0  0  0  0  0  0  0  0  0  0  0
  160.4340  204.1410  144.5110 C   0  0  0  0  0  1  0  0  0  0  0  0
  161.4360  204.1570  148.9890 C   0  0  0  0  0  0  0  0  0  0  0  0
  1 21  1  0  0  0  0
  3 17  2  0  0  0  0
  4 22  1  0  0  0  0
  5 17  1  0  0  0  0
  5 24  1  0  0  0  0
  6  1  1  0  0  0  0
  8  7  2  0  0  0  0
  8  2  2  0  0  0  0
  9 14  1  0  0  0  0
 10 28  1  0  0  0  0
 10  8  1  0  0  0  0
 11 15  2  0  0  0  0
 12 28  2  0  0  0  0
 13  9  1  0  0  0  0
 13 26  1  0  0  0  0
 14  8  1  0  0  0  0
 15 23  1  0  0  0  0
 16  1  2  0  0  0  0
 16 20  1  0  0  0  0
 17 25  1  0  0  0  0
 18  9  2  0  0  0  0
 19 15  1  0  0  0  0
 20  4  2  0  0  0  0
 21 22  2  0  0  0  0
 23  6  1  0  0  0  0
 24 26  2  0  0  0  0
 24 12  1  0  0  0  0
 25 19  1  6  0  0  0
 25 12  1  0  0  0  0
 26 10  1  0  0  0  0
 27  5  1  0  0  0  0
 28 16  1  0  0  0  0
M  END
>  <MODEL>
3

>  <REMARK>
 VINA RESULT:      -5.0      4.789      7.475
  Name = 
  0 active torsions:
  status: ('A' for Active; 'I' for Inactive)
                            x       y       z     vdW  Elec       q    Type
                         _______ _______ _______ _____ _____    ______ ____

>  <TORSDO>
F 0

$$$$
=
 OpenBabel11122414113D

 28 32  0  0  1  0  0  0  0  0999 V2000
  159.8100  213.5370  150.7510 C   0  0  0  0  0  0  0  0  0  0  0  0
  159.8860  212.7850  155.1090 O   0  0  0  0  0  0  0  0  0  0  0  0
  161.8330  208.1520  148.9850 O   0  0  0  0  0  0  0  0  0  0  0  0
  157.1570  213.2490  151.6090 C   0  0  0  0  0  3  0  0  0  0  0  0
  162.2350  208.6440  151.2610 N   0  0  0  0  0  0  0  0  0  0  0  0
  161.2060  213.7440  150.2570 C   0  0  0  0  0  2  0  0  0  0  0  0
  158.1900  211.0650  154.5820 O   0  0  0  0  0  0  0  0  0  0  0  0
  159.6550  211.3430  154.7560 S   0  0  0  0  0  0  0  0  0  0  0  0
  161.1360  209.2270  155.6950 C   0  0  0  0  0  0  0  0  0  0  0  0
  160.5300  210.9390  153.3220 N   0  0  0  0  0  0  0  0  0  0  0  0
  161.3850  212.0790  147.0070 O   0  0  0  0  0  0  0  0  0  0  0  0
  161.3470  210.7780  151.2540 C   0  0  0  0  0  0  0  0  0  0  0  0
  161.6460  209.0200  154.3690 N   0  0  0  0  0  2  0  0  0  0  0  0
  160.2730  210.3260  156.0050 N   0  0  0  0  0  2  0  0  0  0  0  0
  161.6110  212.2750  148.2290 C   0  0  0  0  0  0  0  0  0  0  0  0
  159.4630  212.4670  151.6100 C   0  0  0  0  0  0  0  0  0  0  0  0
  161.8050  208.9750  149.9380 C   0  0  0  0  0  0  0  0  0  0  0  0
  161.5800  208.2040  156.8860 S   0  0  0  0  0  0  0  0  0  0  0  0
  162.2830  211.2050  149.0240 C   0  0  0  0  0  2  0  0  0  0  0  0
  158.1300  212.3360  152.0190 C   0  0  0  0  0  3  0  0  0  0  0  0
  158.8290  214.4530  150.3510 C   0  0  0  0  0  3  0  0  0  0  0  0
  157.5080  214.3110  150.7770 C   0  0  0  0  0  3  0  0  0  0  0  0
  161.2490  213.5240  148.8180 N   0  0  0  0  0  2  0  0  0  0  0  0
  161.9150  209.8010  152.0100 C   0  0  0  0  0  0  0  0  0  0  0  0
  161.2770  210.3830  149.8130 C   0  0  2  0  0  3  0  0  0  0  0  0
  161.3960  209.9080  153.2770 C   0  0  0  0  0  0  0  0  0  0  0  0
  162.3310  207.2920  151.7890 C   0  0  0  0  0  1  0  0  0  0  0  0
  160.4590  211.4720  152.0710 C   0  0  0  0  0  0  0  0  0  0  0  0
  1 16  1  0  0  0  0
  3 17  2  0  0  0  0
  4 20  1  0  0  0  0
  5 27  1  0  0  0  0
  5 24  1  0  0  0  0
  6  1  1  0  0  0  0
  7  8  2  0  0  0  0
  8  2  2  0  0  0  0
  8 14  1  0  0  0  0
  9 14  1  0  0  0  0
  9 18  2  0  0  0  0
 10  8  1  0  0  0  0
 11 15  2  0  0  0  0
 12 24  1  0  0  0  0
 12 28  2  0  0  0  0
 13  9  1  0  0  0  0
 15 23  1  0  0  0  0
 15 19  1  0  0  0  0
 16 20  2  0  0  0  0
 16 28  1  0  0  0  0
 17  5  1  0  0  0  0
 21  1  2  0  0  0  0
 21 22  1  0  0  0  0
 22  4  2  0  0  0  0
 23  6  1  0  0  0  0
 24 26  2  0  0  0  0
 25 19  1  6  0  0  0
 25 17  1  0  0  0  0
 25 12  1  0  0  0  0
 26 10  1  0  0  0  0
 26 13  1  0  0  0  0
 28 10  1  0  0  0  0
M  END
>  <MODEL>
4

>  <REMARK>
 VINA RESULT:      -4.2      2.904      7.194
  Name = 
  0 active torsions:
  status: ('A' for Active; 'I' for Inactive)
                            x       y       z     vdW  Elec       q    Type
                         _______ _______ _______ _____ _____    ______ ____

>  <TORSDO>
F 0

$$$$
=
 OpenBabel11122414113D

 28 32  0  0  1  0  0  0  0  0999 V2000
  161.2000  207.3490  149.8630 C   0  0  0  0  0  0  0  0  0  0  0  0
  160.0150  206.0200  145.8140 O   0  0  0  0  0  0  0  0  0  0  0  0
  162.5460  201.9300  152.1090 O   0  0  0  0  0  0  0  0  0  0  0  0
  163.2370  208.1040  148.0920 C   0  0  0  0  0  3  0  0  0  0  0  0
  161.2290  201.8710  150.1480 N   0  0  0  0  0  0  0  0  0  0  0  0
  160.1180  207.0060  150.8370 C   0  0  0  0  0  2  0  0  0  0  0  0
  162.3700  205.2870  145.6450 O   0  0  0  0  0  0  0  0  0  0  0  0
  160.9740  204.8830  146.0230 S   0  0  0  0  0  0  0  0  0  0  0  0
  160.3880  202.2270  145.6350 C   0  0  0  0  0  0  0  0  0  0  0  0
  160.9130  204.3540  147.6660 N   0  0  0  0  0  0  0  0  0  0  0  0
  161.8100  205.9100  153.8860 O   0  0  0  0  0  0  0  0  0  0  0  0
  161.0030  204.1570  149.8850 C   0  0  0  0  0  0  0  0  0  0  0  0
  160.5030  202.0140  147.0490 N   0  0  0  0  0  2  0  0  0  0  0  0
  160.5020  203.5320  145.0590 N   0  0  0  0  0  2  0  0  0  0  0  0
  161.1250  205.8120  152.8350 C   0  0  0  0  0  0  0  0  0  0  0  0
  161.6810  206.4190  148.9100 C   0  0  0  0  0  0  0  0  0  0  0  0
  161.8790  202.5400  151.2320 C   0  0  0  0  0  0  0  0  0  0  0  0
  160.0810  200.9530  144.6610 S   0  0  0  0  0  0  0  0  0  0  0  0
  160.7850  204.4560  152.3120 C   0  0  0  0  0  2  0  0  0  0  0  0
  162.7060  206.8150  148.0410 C   0  0  0  0  0  3  0  0  0  0  0  0
  161.7330  208.6430  149.9020 C   0  0  0  0  0  3  0  0  0  0  0  0
  162.7470  209.0210  149.0210 C   0  0  0  0  0  3  0  0  0  0  0  0
  160.6640  206.9980  152.1860 N   0  0  0  0  0  2  0  0  0  0  0  0
  160.7210  202.9330  149.3630 C   0  0  0  0  0  0  0  0  0  0  0  0
  161.7220  204.0400  151.1910 C   0  0  2  0  0  3  0  0  0  0  0  0
  160.6770  203.0700  147.9980 C   0  0  0  0  0  0  0  0  0  0  0  0
  161.5810  200.5480  149.6580 C   0  0  0  0  0  1  0  0  0  0  0  0
  161.1510  205.0380  148.8190 C   0  0  0  0  0  0  0  0  0  0  0  0
  1 21  1  0  0  0  0
  1  6  1  0  0  0  0
  2  8  2  0  0  0  0
  4 22  1  0  0  0  0
  5 17  1  0  0  0  0
  6 23  1  0  0  0  0
  7  8  2  0  0  0  0
  8 10  1  0  0  0  0
  9 13  1  0  0  0  0
 10 26  1  0  0  0  0
 10 28  1  0  0  0  0
 12 25  1  0  0  0  0
 13 26  1  0  0  0  0
 14  9  1  0  0  0  0
 14  8  1  0  0  0  0
 15 11  2  0  0  0  0
 16  1  2  0  0  0  0
 17  3  2  0  0  0  0
 18  9  2  0  0  0  0
 19 15  1  0  0  0  0
 20  4  2  0  0  0  0
 20 16  1  0  0  0  0
 22 21  2  0  0  0  0
 23 15  1  0  0  0  0
 24 12  1  0  0  0  0
 24  5  1  0  0  0  0
 25 17  1  0  0  0  0
 25 19  1  1  0  0  0
 26 24  2  0  0  0  0
 27  5  1  0  0  0  0
 28 16  1  0  0  0  0
 28 12  2  0  0  0  0
M  END
>  <MODEL>
5

>  <REMARK>
 VINA RESULT:      -4.1      4.124      6.771
  Name = 
  0 active torsions:
  status: ('A' for Active; 'I' for Inactive)
                            x       y       z     vdW  Elec       q    Type
                         _______ _______ _______ _____ _____    ______ ____

>  <TORSDO>
F 0

$$$$
