=
 OpenBabel11122413033D

 32 37  0  0  1  0  0  0  0  0999 V2000
  159.8580  211.5150  154.7310 C   0  0  1  0  0  3  0  0  0  0  0  0
  160.0080  212.9340  149.9110 C   0  0  0  0  0  3  0  0  0  0  0  0
  158.7430  213.3700  150.0190 C   0  0  0  0  0  3  0  0  0  0  0  0
  158.1320  212.5670  156.2660 C   0  0  2  0  0  3  0  0  0  0  0  0
  156.6770  212.5640  156.0320 N   0  0  2  0  0  0  0  0  0  0  0  0
  161.1980  209.9040  155.5470 C   0  0  2  0  0  3  0  0  0  0  0  0
  161.8040  210.8790  153.3250 O   0  0  0  0  0  0  0  0  0  0  0  0
  155.0600  212.7420  154.2490 C   0  0  2  0  0  3  0  0  0  0  0  0
  160.8070  212.4600  151.0990 C   0  0  0  0  0  2  0  0  0  0  0  0
  160.7550  211.8200  153.5280 C   0  0  1  0  0  3  0  0  0  0  0  0
  159.9120  212.0640  152.2740 C   0  0  1  0  0  3  0  0  0  0  0  0
  158.0750  212.9200  153.7920 C   0  0  2  0  0  3  0  0  0  0  0  0
  155.3620  211.2790  154.4490 C   0  0  0  0  0  2  0  0  0  0  0  0
  161.6390  209.6810  154.0730 C   0  0  2  0  0  3  0  0  0  0  0  0
  156.2560  211.2080  155.6760 C   0  0  0  0  0  2  0  0  0  0  0  0
  157.9760  213.3210  151.3160 C   0  0  0  0  0  2  0  0  0  0  0  0
  158.8970  213.2010  152.5290 C   0  0  2  0  0  3  0  0  0  0  0  0
  157.1850  213.9610  154.0820 O   0  0  0  0  0  0  0  0  0  0  0  0
  160.6930  211.1980  155.8050 O   0  0  0  0  0  0  0  0  0  0  0  0
  158.4930  213.6540  157.2610 C   0  0  0  0  0  1  0  0  0  0  0  0
  155.0180  213.0510  152.8880 O   0  0  0  0  0  1  0  0  0  0  0  0
  158.9790  212.7250  154.9980 C   0  0  2  0  0  3  0  0  0  0  0  0
  156.1840  213.4710  154.9680 C   0  0  2  0  0  3  0  0  0  0  0  0
  160.9710  208.7080  151.9320 C   0  0  0  0  0  2  0  0  0  0  0  0
  160.6850  208.7310  153.3620 C   0  0  1  0  0  3  0  0  0  0  0  0
  161.4520  207.6130  152.7890 N   0  0  0  0  0  0  0  0  0  0  0  0
  160.5190  206.5120  152.6320 C   0  0  0  0  0  2  0  0  0  0  0  0
  161.1660  205.4120  151.8690 C   0  0  0  0  0  0  0  0  0  0  0  0
  161.2190  204.2530  152.3580 O   0  0  0  0  0  1  0  0  0  0  0  0
  161.6770  205.6530  150.6010 O   0  0  0  0  0  0  0  0  0  0  0  0
  163.1700  210.8790  156.7080 C   0  0  0  0  0  1  0  0  0  0  0  0
  162.3680  209.6140  156.4700 C   0  0  0  0  0  2  0  0  0  0  0  0
  1 22  1  0  0  0  0
  1 19  1  1  0  0  0
  2  3  2  0  0  0  0
  2  9  1  0  0  0  0
  3 16  1  0  0  0  0
  4 20  1  1  0  0  0
  5 15  1  6  0  0  0
  5  4  1  0  0  0  0
  6 19  1  0  0  0  0
  6 32  1  1  0  0  0
  8 21  1  6  0  0  0
  8 13  1  0  0  0  0
  8 23  1  0  0  0  0
 10  7  1  6  0  0  0
 10  1  1  0  0  0  0
 11  9  1  6  0  0  0
 11 17  1  0  0  0  0
 11 10  1  0  0  0  0
 12 18  1  1  0  0  0
 12 22  1  0  0  0  0
 13 15  1  0  0  0  0
 14  7  1  6  0  0  0
 14  6  1  0  0  0  0
 17 16  1  6  0  0  0
 17 12  1  0  0  0  0
 18 23  1  0  0  0  0
 22  4  1  0  0  0  0
 23  5  1  0  0  0  0
 24 26  1  0  0  0  0
 24 25  1  0  0  0  0
 25 14  1  0  0  0  0
 26 25  1  0  0  0  0
 27 26  1  0  0  0  0
 28 29  1  0  0  0  0
 28 27  1  0  0  0  0
 30 28  2  0  0  0  0
 32 31  1  0  0  0  0
M  END
>  <MODEL>
1

>  <REMARK>
 VINA RESULT:      -3.8      0.000      0.000
  Name = 
  4 active torsions:
  status: ('A' for Active; 'I' for Inactive)
    1  A    between atoms: C_7  and  C_19
    2  A    between atoms: C_10  and  C_17
    3  A    between atoms: N_20  and  C_29
    4  A    between atoms: C_29  and  C_30
                            x       y       z     vdW  Elec       q    Type
                         _______ _______ _______ _____ _____    ______ ____

>  <TORSDO>
F 4

$$$$
=
 OpenBabel11122413033D

 32 37  0  0  1  0  0  0  0  0999 V2000
  160.5310  211.3020  151.0970 C   0  0  1  0  0  3  0  0  0  0  0  0
  163.6070  212.1920  147.2230 C   0  0  0  0  0  3  0  0  0  0  0  0
  162.6970  213.0410  146.7190 C   0  0  0  0  0  3  0  0  0  0  0  0
  158.7250  212.9990  151.6440 C   0  0  2  0  0  3  0  0  0  0  0  0
  157.6950  213.4730  150.7020 N   0  0  2  0  0  0  0  0  0  0  0  0
  160.6330  209.4010  152.2950 C   0  0  2  0  0  3  0  0  0  0  0  0
  162.5820  209.9290  150.8190 O   0  0  0  0  0  0  0  0  0  0  0  0
  157.3970  214.0480  148.3760 C   0  0  2  0  0  3  0  0  0  0  0  0
  163.4680  211.5720  148.5900 C   0  0  0  0  0  2  0  0  0  0  0  0
  161.9610  211.1850  150.5630 C   0  0  1  0  0  3  0  0  0  0  0  0
  162.0230  211.6000  149.0910 C   0  0  1  0  0  3  0  0  0  0  0  0
  160.0730  213.1500  149.5450 C   0  0  2  0  0  3  0  0  0  0  0  0
  157.0480  212.5910  148.5360 C   0  0  0  0  0  2  0  0  0  0  0  0
  161.6680  208.9240  151.2370 C   0  0  2  0  0  3  0  0  0  0  0  0
  157.0970  212.3180  150.0310 C   0  0  0  0  0  2  0  0  0  0  0  0
  161.4060  213.3610  147.4280 C   0  0  0  0  0  2  0  0  0  0  0  0
  161.4680  213.0310  148.9190 C   0  0  2  0  0  3  0  0  0  0  0  0
  159.5660  214.4520  149.4550 O   0  0  0  0  0  0  0  0  0  0  0  0
  160.5300  210.8070  152.4030 O   0  0  0  0  0  0  0  0  0  0  0  0
  158.8570  213.9740  152.7980 C   0  0  0  0  0  1  0  0  0  0  0  0
  158.1690  214.2420  147.2290 O   0  0  0  0  0  1  0  0  0  0  0  0
  160.1000  212.7570  151.0120 C   0  0  2  0  0  3  0  0  0  0  0  0
  158.1560  214.4060  149.6450 C   0  0  2  0  0  3  0  0  0  0  0  0
  161.9300  208.0300  148.9770 C   0  0  0  0  0  2  0  0  0  0  0  0
  160.9660  208.3020  150.0370 C   0  0  1  0  0  3  0  0  0  0  0  0
  161.4670  206.9330  149.8400 N   0  0  0  0  0  0  0  0  0  0  0  0
  160.4380  206.2210  149.1040 C   0  0  0  0  0  2  0  0  0  0  0  0
  160.9650  204.9060  148.6500 C   0  0  0  0  0  0  0  0  0  0  0  0
  160.8410  203.8910  149.3840 O   0  0  0  0  0  1  0  0  0  0  0  0
  161.5580  204.7890  147.4000 O   0  0  0  0  0  0  0  0  0  0  0  0
  160.8790  207.2930  153.5930 C   0  0  0  0  0  1  0  0  0  0  0  0
  160.9850  208.8050  153.6460 C   0  0  0  0  0  2  0  0  0  0  0  0
  1 19  1  1  0  0  0
  2  9  1  0  0  0  0
  3  2  2  0  0  0  0
  3 16  1  0  0  0  0
  4 20  1  1  0  0  0
  5 15  1  6  0  0  0
  5  4  1  0  0  0  0
  6 19  1  0  0  0  0
  6 32  1  1  0  0  0
  8 21  1  6  0  0  0
  8 13  1  0  0  0  0
  8 23  1  0  0  0  0
 10  7  1  6  0  0  0
 10  1  1  0  0  0  0
 11  9  1  1  0  0  0
 11 10  1  0  0  0  0
 12 18  1  1  0  0  0
 12 22  1  0  0  0  0
 13 15  1  0  0  0  0
 14  7  1  6  0  0  0
 14  6  1  0  0  0  0
 17 16  1  6  0  0  0
 17 11  1  0  0  0  0
 17 12  1  0  0  0  0
 18 23  1  0  0  0  0
 22  1  1  0  0  0  0
 22  4  1  0  0  0  0
 23  5  1  0  0  0  0
 24 26  1  0  0  0  0
 24 25  1  0  0  0  0
 25 14  1  0  0  0  0
 26 25  1  0  0  0  0
 27 26  1  0  0  0  0
 28 27  1  0  0  0  0
 28 29  1  0  0  0  0
 30 28  2  0  0  0  0
 31 32  1  0  0  0  0
M  END
>  <MODEL>
2

>  <REMARK>
 VINA RESULT:      -3.6      3.120      4.434
  Name = 
  4 active torsions:
  status: ('A' for Active; 'I' for Inactive)
    1  A    between atoms: C_7  and  C_19
    2  A    between atoms: C_10  and  C_17
    3  A    between atoms: N_20  and  C_29
    4  A    between atoms: C_29  and  C_30
                            x       y       z     vdW  Elec       q    Type
                         _______ _______ _______ _____ _____    ______ ____

>  <TORSDO>
F 4

$$$$
=
 OpenBabel11122413033D

 32 37  0  0  1  0  0  0  0  0999 V2000
  160.9510  210.4870  151.8110 C   0  0  1  0  0  3  0  0  0  0  0  0
  163.1640  212.3670  147.7080 C   0  0  0  0  0  3  0  0  0  0  0  0
  162.2430  213.3430  147.6800 C   0  0  0  0  0  3  0  0  0  0  0  0
  159.4660  212.0010  153.2050 C   0  0  2  0  0  3  0  0  0  0  0  0
  158.2990  212.7450  152.6970 N   0  0  2  0  0  0  0  0  0  0  0  0
  161.1480  208.3240  152.3930 C   0  0  2  0  0  3  0  0  0  0  0  0
  162.7620  209.2040  150.6970 O   0  0  0  0  0  0  0  0  0  0  0  0
  157.5480  213.9600  150.7510 C   0  0  2  0  0  3  0  0  0  0  0  0
  163.2750  211.3880  148.8490 C   0  0  0  0  0  2  0  0  0  0  0  0
  162.2120  210.4950  150.9430 C   0  0  1  0  0  3  0  0  0  0  0  0
  161.9850  211.3070  149.6660 C   0  0  1  0  0  3  0  0  0  0  0  0
  160.3270  212.7090  150.9680 C   0  0  2  0  0  3  0  0  0  0  0  0
  157.1160  212.5250  150.5900 C   0  0  0  0  0  2  0  0  0  0  0  0
  161.8780  208.1420  151.0320 C   0  0  2  0  0  3  0  0  0  0  0  0
  157.4700  211.8410  151.9000 C   0  0  0  0  0  2  0  0  0  0  0  0
  161.1730  213.4790  148.7340 C   0  0  0  0  0  2  0  0  0  0  0  0
  161.5330  212.7410  150.0220 C   0  0  2  0  0  3  0  0  0  0  0  0
  159.9280  213.9940  151.3540 O   0  0  0  0  0  0  0  0  0  0  0  0
  161.1950  209.6440  152.8970 O   0  0  0  0  0  0  0  0  0  0  0  0
  159.9340  212.6070  154.5150 C   0  0  0  0  0  1  0  0  0  0  0  0
  158.0630  214.4530  149.5500 O   0  0  0  0  0  1  0  0  0  0  0  0
  160.6410  211.9160  152.2260 C   0  0  2  0  0  3  0  0  0  0  0  0
  158.5960  213.9280  151.8530 C   0  0  2  0  0  3  0  0  0  0  0  0
  161.4780  208.2280  148.6230 C   0  0  0  0  0  2  0  0  0  0  0  0
  160.8780  207.9000  149.9100 C   0  0  1  0  0  3  0  0  0  0  0  0
  161.3760  206.8220  149.0420 N   0  0  0  0  0  0  0  0  0  0  0  0
  160.2140  206.2650  148.3720 C   0  0  0  0  0  2  0  0  0  0  0  0
  160.6330  205.6180  147.1000 C   0  0  0  0  0  0  0  0  0  0  0  0
  160.3910  206.1790  145.9990 O   0  0  0  0  0  0  0  0  0  0  0  0
  161.3250  204.4140  147.1270 O   0  0  0  0  0  1  0  0  0  0  0  0
  161.2790  205.9470  153.1150 C   0  0  0  0  0  1  0  0  0  0  0  0
  161.7350  207.3630  153.4100 C   0  0  0  0  0  2  0  0  0  0  0  0
  1 22  1  0  0  0  0
  1 19  1  1  0  0  0
  2  9  1  0  0  0  0
  3  2  2  0  0  0  0
  3 16  1  0  0  0  0
  4 20  1  1  0  0  0
  5 15  1  6  0  0  0
  5  4  1  0  0  0  0
  6 19  1  0  0  0  0
  6 32  1  1  0  0  0
  8 21  1  6  0  0  0
  8 23  1  0  0  0  0
 10  7  1  6  0  0  0
 10  1  1  0  0  0  0
 11  9  1  1  0  0  0
 11 17  1  0  0  0  0
 11 10  1  0  0  0  0
 12 18  1  1  0  0  0
 12 22  1  0  0  0  0
 13  8  1  0  0  0  0
 13 15  1  0  0  0  0
 14  7  1  6  0  0  0
 14  6  1  0  0  0  0
 17 16  1  6  0  0  0
 17 12  1  0  0  0  0
 18 23  1  0  0  0  0
 22  4  1  0  0  0  0
 23  5  1  0  0  0  0
 24 26  1  0  0  0  0
 24 25  1  0  0  0  0
 25 14  1  0  0  0  0
 26 25  1  0  0  0  0
 27 26  1  0  0  0  0
 28 30  1  0  0  0  0
 28 27  1  0  0  0  0
 29 28  2  0  0  0  0
 31 32  1  0  0  0  0
M  END
>  <MODEL>
3

>  <REMARK>
 VINA RESULT:      -1.5      2.833      4.022
  Name = 
  4 active torsions:
  status: ('A' for Active; 'I' for Inactive)
    1  A    between atoms: C_7  and  C_19
    2  A    between atoms: C_10  and  C_17
    3  A    between atoms: N_20  and  C_29
    4  A    between atoms: C_29  and  C_30
                            x       y       z     vdW  Elec       q    Type
                         _______ _______ _______ _____ _____    ______ ____

>  <TORSDO>
F 4

$$$$
