=
 OpenBabel11122412573D

 32 37  0  0  1  0  0  0  0  0999 V2000
  161.3580  201.2060  149.8410 C   0  0  0  0  0  2  0  0  0  0  0  0
  160.8430  206.4880  151.9940 C   0  0  1  0  0  3  0  0  0  0  0  0
  162.0290  209.9380  148.6750 C   0  0  0  0  0  2  0  0  0  0  0  0
  161.5820  210.8420  149.8250 C   0  0  0  0  0  2  0  0  0  0  0  0
  160.5460  207.2880  154.4260 N   0  0  0  0  0  0  0  0  0  0  0  0
  160.8450  208.2760  155.4120 C   0  0  0  0  0  0  0  0  0  0  0  0
  161.5350  204.1580  151.3050 N   0  0  2  0  0  0  0  0  0  0  0  0
  160.9700  205.9110  149.6100 C   0  0  0  0  0  2  0  0  0  0  0  0
  161.7150  210.2830  156.1740 N   0  0  0  0  0  0  0  0  0  0  0  0
  161.1090  203.5520  148.9200 C   0  0  0  0  0  2  0  0  0  0  0  0
  162.1690  208.4720  149.1060 C   0  0  0  0  0  2  0  0  0  0  0  0
  161.5830  206.7980  150.6980 C   0  0  1  0  0  3  0  0  0  0  0  0
  161.4870  208.2250  150.3820 N   0  0  1  0  0  0  0  0  0  0  0  0
  161.7230  208.6820  152.8080 C   0  0  0  0  0  0  0  0  0  0  0  0
  160.9590  209.6580  157.2600 C   0  0  0  0  0  2  0  0  0  0  0  0
  162.0580  201.7860  151.0720 C   0  0  0  0  0  2  0  0  0  0  0  0
  160.7420  204.4660  150.0900 C   0  0  1  0  0  3  0  0  0  0  0  0
  160.4360  208.3570  156.6710 C   0  0  0  0  0  3  0  0  0  0  0  0
  161.2080  202.8220  151.7920 C   0  0  0  0  0  2  0  0  0  0  0  0
  160.4560  202.1880  149.0830 C   0  0  1  0  0  3  0  0  0  0  0  0
  162.2930  210.4730  151.1250 C   0  0  0  0  0  2  0  0  0  0  0  0
  162.2450  208.9580  151.4150 C   0  0  2  0  0  3  0  0  0  0  0  0
  161.9930  209.6500  153.8540 N   0  0  0  0  0  0  0  0  0  0  0  0
  161.1870  205.0550  152.4240 C   0  0  0  0  0  2  0  0  0  0  0  0
  159.6200  206.2030  154.7300 C   0  0  0  0  0  1  0  0  0  0  0  0
  162.0540  211.6940  156.1090 C   0  0  0  0  0  1  0  0  0  0  0  0
  161.0880  207.5040  153.0930 C   0  0  0  0  0  0  0  0  0  0  0  0
  161.5940  209.4220  155.0650 C   0  0  0  0  0  0  0  0  0  0  0  0
  160.1330  201.6480  147.7710 N   0  0  0  0  0  2  0  0  0  0  0  0
  160.7230  202.1410  146.5670 C   0  0  0  0  0  0  0  0  0  0  0  0
  161.5810  203.0620  146.6020 O   0  0  0  0  0  0  0  0  0  0  0  0
  160.3260  201.5560  145.2610 C   0  0  0  0  0  1  0  0  0  0  0  0
  1 16  1  0  0  0  0
  2 24  1  1  0  0  0
  2 27  1  0  0  0  0
  3 11  1  0  0  0  0
  3  4  1  0  0  0  0
  4 21  1  0  0  0  0
  5 25  1  0  0  0  0
  5  6  1  0  0  0  0
  6 18  2  0  0  0  0
  7 19  1  1  0  0  0
  7 24  1  0  0  0  0
  8 17  1  0  0  0  0
  9 15  1  0  0  0  0
 10 20  1  0  0  0  0
 12  8  1  6  0  0  0
 12  2  1  0  0  0  0
 13 11  1  6  0  0  0
 13 12  1  0  0  0  0
 13 22  1  0  0  0  0
 14 27  2  0  0  0  0
 14 23  1  0  0  0  0
 16 19  1  0  0  0  0
 17 10  1  6  0  0  0
 17  7  1  0  0  0  0
 18 15  1  0  0  0  0
 20 29  1  6  0  0  0
 20  1  1  0  0  0  0
 22 21  1  6  0  0  0
 22 14  1  0  0  0  0
 23 28  2  0  0  0  0
 26  9  1  0  0  0  0
 27  5  1  0  0  0  0
 28  6  1  0  0  0  0
 28  9  1  0  0  0  0
 30 31  2  0  0  0  0
 30 29  1  0  0  0  0
 32 30  1  0  0  0  0
M  END
>  <MODEL>
1

>  <REMARK>
 VINA RESULT:      -7.4      0.000      0.000
  Name = 
  1 active torsions:
  status: ('A' for Active; 'I' for Inactive)
    1  A    between atoms: C_20  and  N_29
                            x       y       z     vdW  Elec       q    Type
                         _______ _______ _______ _____ _____    ______ ____

>  <TORSDO>
F 1

$$$$
=
 OpenBabel11122412573D

 32 37  0  0  1  0  0  0  0  0999 V2000
  162.2810  212.5710  149.0440 C   0  0  0  0  0  2  0  0  0  0  0  0
  160.9680  206.9960  149.0440 C   0  0  1  0  0  3  0  0  0  0  0  0
  161.1320  205.0800  153.5860 C   0  0  0  0  0  2  0  0  0  0  0  0
  160.6340  203.8550  152.8170 C   0  0  0  0  0  2  0  0  0  0  0  0
  160.7630  205.3200  147.0970 N   0  0  0  0  0  0  0  0  0  0  0  0
  160.9610  203.9850  146.6340 C   0  0  0  0  0  0  0  0  0  0  0  0
  162.0270  209.2840  148.8860 N   0  0  2  0  0  0  0  0  0  0  0  0
  160.9690  208.4760  151.0050 C   0  0  0  0  0  2  0  0  0  0  0  0
  161.4970  201.7420  146.8640 N   0  0  0  0  0  0  0  0  0  0  0  0
  161.4940  210.8660  150.7430 C   0  0  0  0  0  2  0  0  0  0  0  0
  161.5940  206.2060  152.6520 C   0  0  0  0  0  2  0  0  0  0  0  0
  161.5030  207.1460  150.4640 C   0  0  1  0  0  3  0  0  0  0  0  0
  161.1020  206.0010  151.2850 N   0  0  1  0  0  0  0  0  0  0  0  0
  161.4830  204.5630  149.3010 C   0  0  0  0  0  0  0  0  0  0  0  0
  160.9870  201.9660  145.5110 C   0  0  0  0  0  2  0  0  0  0  0  0
  162.9740  211.4470  148.2690 C   0  0  0  0  0  2  0  0  0  0  0  0
  161.0730  209.6130  149.9730 C   0  0  1  0  0  3  0  0  0  0  0  0
  160.6700  203.4520  145.4550 C   0  0  0  0  0  3  0  0  0  0  0  0
  162.0140  210.3360  147.8740 C   0  0  0  0  0  2  0  0  0  0  0  0
  161.1360  212.1190  149.9590 C   0  0  1  0  0  3  0  0  0  0  0  0
  161.5270  203.5580  151.6140 C   0  0  0  0  0  2  0  0  0  0  0  0
  161.8020  204.8130  150.7580 C   0  0  2  0  0  3  0  0  0  0  0  0
  161.6620  203.2250  148.7710 N   0  0  0  0  0  0  0  0  0  0  0  0
  161.6240  208.0650  148.1580 C   0  0  0  0  0  2  0  0  0  0  0  0
  160.0990  206.3010  146.2470 C   0  0  0  0  0  1  0  0  0  0  0  0
  161.5480  200.4500  147.5250 C   0  0  0  0  0  1  0  0  0  0  0  0
  161.1190  205.5970  148.4810 C   0  0  0  0  0  0  0  0  0  0  0  0
  161.4360  202.9900  147.5170 C   0  0  0  0  0  0  0  0  0  0  0  0
  160.7960  213.1880  150.8860 N   0  0  0  0  0  2  0  0  0  0  0  0
  159.4960  213.3210  151.4650 C   0  0  0  0  0  0  0  0  0  0  0  0
  158.5890  212.4870  151.2090 O   0  0  0  0  0  0  0  0  0  0  0  0
  159.2150  214.4530  152.3850 C   0  0  0  0  0  1  0  0  0  0  0  0
  1 20  1  0  0  0  0
  2 24  1  6  0  0  0
  2 12  1  0  0  0  0
  4  3  1  0  0  0  0
  5 27  1  0  0  0  0
  6  5  1  0  0  0  0
  6 28  1  0  0  0  0
  7 19  1  6  0  0  0
  7 17  1  0  0  0  0
  9 28  1  0  0  0  0
  9 26  1  0  0  0  0
 11  3  1  0  0  0  0
 12  8  1  1  0  0  0
 12 13  1  0  0  0  0
 13 11  1  1  0  0  0
 14 22  1  0  0  0  0
 15  9  1  0  0  0  0
 16  1  1  0  0  0  0
 17 10  1  1  0  0  0
 17  8  1  0  0  0  0
 18 15  1  0  0  0  0
 18  6  2  0  0  0  0
 19 16  1  0  0  0  0
 20 10  1  0  0  0  0
 20 29  1  1  0  0  0
 21  4  1  0  0  0  0
 22 13  1  0  0  0  0
 22 21  1  1  0  0  0
 23 14  1  0  0  0  0
 24  7  1  0  0  0  0
 25  5  1  0  0  0  0
 27  2  1  0  0  0  0
 27 14  2  0  0  0  0
 28 23  2  0  0  0  0
 29 30  1  0  0  0  0
 30 32  1  0  0  0  0
 31 30  2  0  0  0  0
M  END
>  <MODEL>
2

>  <REMARK>
 VINA RESULT:      -4.8      3.311      8.922
  Name = 
  1 active torsions:
  status: ('A' for Active; 'I' for Inactive)
    1  A    between atoms: C_20  and  N_29
                            x       y       z     vdW  Elec       q    Type
                         _______ _______ _______ _____ _____    ______ ____

>  <TORSDO>
F 1

$$$$
