=
 OpenBabel11122413563D

 37 45  0  0  1  0  0  0  0  0999 V2000
  159.9050  210.3180  154.9310 C   0  0  2  0  0  3  0  0  0  0  0  0
  159.5820  213.0920  151.3720 C   0  0  0  0  0  0  0  0  0  0  0  0
  161.4050  209.3930  150.3720 C   0  0  1  0  0  3  0  0  0  0  0  0
  160.4180  210.7340  156.3180 C   0  0  1  0  0  0  0  0  0  0  0  0
  161.3230  206.5860  153.0560 C   0  0  0  0  0  2  0  0  0  0  0  0
  160.7360  211.6580  149.5870 C   0  0  2  0  0  3  0  0  0  0  0  0
  161.5170  208.7250  151.7260 C   0  0  2  0  0  3  0  0  0  0  0  0
  160.5780  208.2540  156.3000 C   0  0  2  0  0  3  0  0  0  0  0  0
  161.1280  210.7940  150.7650 C   0  0  1  0  0  3  0  0  0  0  0  0
  161.1190  207.2290  151.6760 C   0  0  1  0  0  3  0  0  0  0  0  0
  161.9070  211.6520  148.5930 C   0  0  0  0  0  2  0  0  0  0  0  0
  159.6270  209.4260  156.0860 C   0  0  2  0  0  3  0  0  0  0  0  0
  160.0810  210.7080  151.7490 N   0  0  2  0  0  0  0  0  0  0  0  0
  158.1380  212.8680  150.9550 C   0  0  0  0  0  1  0  0  0  0  0  0
  163.0810  207.9670  149.0910 C   0  0  0  0  0  2  0  0  0  0  0  0
  162.3470  210.2170  148.2320 C   0  0  0  0  0  2  0  0  0  0  0  0
  160.0050  212.0210  152.3980 C   0  0  0  0  0  2  0  0  0  0  0  0
  161.3200  207.8480  155.0330 C   0  0  1  0  0  3  0  0  0  0  0  0
  160.4540  207.1740  154.0620 N   0  0  0  0  0  2  0  0  0  0  0  0
  162.6460  209.3800  149.4890 C   0  0  1  0  0  3  0  0  0  0  0  0
  160.5150  209.5570  152.5760 C   0  0  2  0  0  3  0  0  0  0  0  0
  160.4960  213.0730  150.1250 C   0  0  0  0  0  2  0  0  0  0  0  0
  161.9340  206.3850  150.6580 C   0  0  2  0  0  3  0  0  0  0  0  0
  159.6850  214.4530  152.0260 C   0  0  0  0  0  1  0  0  0  0  0  0
  161.9830  208.9670  154.4800 O   0  0  0  0  0  0  0  0  0  0  0  0
  159.8460  207.0800  156.9250 C   0  0  0  0  0  1  0  0  0  0  0  0
  161.0580  209.9210  153.9770 C   0  0  2  0  0  3  0  0  0  0  0  0
  161.9740  206.9270  149.2290 C   0  0  0  0  0  2  0  0  0  0  0  0
  160.0130  212.1500  156.1570 C   0  0  0  0  0  2  0  0  0  0  0  0
  159.4810  211.4010  157.2610 N   0  0  0  0  0  2  0  0  0  0  0  0
  161.2740  204.2250  151.7980 C   0  0  0  0  0  3  0  0  0  0  0  0
  161.4640  204.9590  150.6170 C   0  0  0  0  0  0  0  0  0  0  0  0
  161.2060  204.3580  149.3790 C   0  0  0  0  0  3  0  0  0  0  0  0
  160.5140  202.4400  148.0910 O   0  0  0  0  0  1  0  0  0  0  0  0
  160.5800  202.3040  150.4990 C   0  0  0  0  0  3  0  0  0  0  0  0
  160.7660  203.0330  149.3210 C   0  0  0  0  0  0  0  0  0  0  0  0
  160.8330  202.8990  151.7370 C   0  0  0  0  0  3  0  0  0  0  0  0
  1 12  1  0  0  0  0
  1  4  1  0  0  0  0
  2 24  1  0  0  0  0
  2 17  1  0  0  0  0
  3  9  1  0  0  0  0
  3  7  1  0  0  0  0
  4 30  1  0  0  0  0
  5 19  1  0  0  0  0
  6 22  1  0  0  0  0
  6  9  1  0  0  0  0
  7 21  1  0  0  0  0
  8 26  1  0  0  0  0
  9 13  1  0  0  0  0
 10  7  1  0  0  0  0
 10  5  1  0  0  0  0
 11  6  1  0  0  0  0
 12  8  1  0  0  0  0
 12  4  1  0  0  0  0
 13 17  1  0  0  0  0
 13 21  1  0  0  0  0
 14  2  1  0  0  0  0
 15 28  1  0  0  0  0
 15 20  1  0  0  0  0
 16 11  1  0  0  0  0
 16 20  1  0  0  0  0
 18  8  1  0  0  0  0
 19 18  1  0  0  0  0
 20  3  1  0  0  0  0
 21 27  1  0  0  0  0
 22  2  1  0  0  0  0
 23 10  1  0  0  0  0
 25 18  1  0  0  0  0
 27 25  1  0  0  0  0
 27  1  1  0  0  0  0
 28 23  1  0  0  0  0
 29  4  1  0  0  0  0
 29 30  1  0  0  0  0
 32 23  1  0  0  0  0
 32 31  2  0  0  0  0
 33 32  1  0  0  0  0
 34 36  1  0  0  0  0
 35 37  2  0  0  0  0
 36 33  2  0  0  0  0
 36 35  1  0  0  0  0
 37 31  1  0  0  0  0
M  END
>  <MODEL>
1

>  <REMARK>
 VINA RESULT:      -6.8      0.000      0.000
  Name = 
  1 active torsions:
  status: ('A' for Active; 'I' for Inactive)
    1  A    between atoms: C_23  and  C_30
                            x       y       z     vdW  Elec       q    Type
                         _______ _______ _______ _____ _____    ______ ____

>  <TORSDO>
F 1

$$$$
=
 OpenBabel11122413563D

 37 45  0  0  1  0  0  0  0  0999 V2000
  160.0020  209.7700  154.7180 C   0  0  2  0  0  3  0  0  0  0  0  0
  159.2290  213.2850  151.9760 C   0  0  0  0  0  0  0  0  0  0  0  0
  161.2600  210.1230  150.0080 C   0  0  1  0  0  3  0  0  0  0  0  0
  160.5730  209.8820  156.1400 C   0  0  1  0  0  0  0  0  0  0  0  0
  161.5750  206.7520  151.9130 C   0  0  0  0  0  2  0  0  0  0  0  0
  160.3670  212.4400  149.8400 C   0  0  2  0  0  3  0  0  0  0  0  0
  161.5140  209.1590  151.1470 C   0  0  2  0  0  3  0  0  0  0  0  0
  160.9230  207.5070  155.5000 C   0  0  2  0  0  3  0  0  0  0  0  0
  160.9030  211.3550  150.7490 C   0  0  1  0  0  3  0  0  0  0  0  0
  161.2300  207.6890  150.7470 C   0  0  1  0  0  3  0  0  0  0  0  0
  161.4660  212.7820  148.8230 C   0  0  0  0  0  2  0  0  0  0  0  0
  159.8720  208.6040  155.6270 C   0  0  2  0  0  3  0  0  0  0  0  0
  159.9340  210.9370  151.7270 N   0  0  2  0  0  0  0  0  0  0  0  0
  157.7820  213.0380  151.5840 C   0  0  0  0  0  1  0  0  0  0  0  0
  162.9510  209.2100  148.3380 C   0  0  0  0  0  2  0  0  0  0  0  0
  161.9900  211.5240  148.0990 C   0  0  0  0  0  2  0  0  0  0  0  0
  159.8010  212.0400  152.6840 C   0  0  0  0  0  2  0  0  0  0  0  0
  161.6070  207.4900  154.1390 C   0  0  1  0  0  3  0  0  0  0  0  0
  160.7320  206.9960  153.0730 N   0  0  0  0  0  2  0  0  0  0  0  0
  162.4370  210.4370  149.0930 C   0  0  1  0  0  3  0  0  0  0  0  0
  160.5100  209.6640  152.2220 C   0  0  2  0  0  3  0  0  0  0  0  0
  160.0550  213.6530  150.7230 C   0  0  0  0  0  2  0  0  0  0  0  0
  162.0380  207.1960  149.5140 C   0  0  2  0  0  3  0  0  0  0  0  0
  159.2690  214.4500  152.9420 C   0  0  0  0  0  1  0  0  0  0  0  0
  162.1430  208.7650  153.8510 O   0  0  0  0  0  0  0  0  0  0  0  0
  160.3270  206.1540  155.8470 C   0  0  0  0  0  1  0  0  0  0  0  0
  161.1160  209.7240  153.6440 C   0  0  2  0  0  3  0  0  0  0  0  0
  161.9400  208.0700  148.2650 C   0  0  0  0  0  2  0  0  0  0  0  0
  160.0500  211.2520  156.3540 C   0  0  0  0  0  2  0  0  0  0  0  0
  159.6520  210.2120  157.2610 N   0  0  0  0  0  2  0  0  0  0  0  0
  161.1090  204.9130  150.0830 C   0  0  0  0  0  3  0  0  0  0  0  0
  161.6770  205.7860  149.1430 C   0  0  0  0  0  0  0  0  0  0  0  0
  161.9090  205.3420  147.8360 C   0  0  0  0  0  3  0  0  0  0  0  0
  161.8110  203.5970  146.1740 O   0  0  0  0  0  1  0  0  0  0  0  0
  161.0140  203.1660  148.4100 C   0  0  0  0  0  3  0  0  0  0  0  0
  161.5780  204.0340  147.4710 C   0  0  0  0  0  0  0  0  0  0  0  0
  160.7780  203.6050  149.7150 C   0  0  0  0  0  3  0  0  0  0  0  0
  1 12  1  0  0  0  0
  1  4  1  0  0  0  0
  2 17  1  0  0  0  0
  2 24  1  0  0  0  0
  3  9  1  0  0  0  0
  3  7  1  0  0  0  0
  4 29  1  0  0  0  0
  4 30  1  0  0  0  0
  5 19  1  0  0  0  0
  6 22  1  0  0  0  0
  6  9  1  0  0  0  0
  7 21  1  0  0  0  0
  8 12  1  0  0  0  0
  8 26  1  0  0  0  0
  9 13  1  0  0  0  0
 10  7  1  0  0  0  0
 10  5  1  0  0  0  0
 11  6  1  0  0  0  0
 12  4  1  0  0  0  0
 13 21  1  0  0  0  0
 13 17  1  0  0  0  0
 14  2  1  0  0  0  0
 15 20  1  0  0  0  0
 16 11  1  0  0  0  0
 16 20  1  0  0  0  0
 18  8  1  0  0  0  0
 19 18  1  0  0  0  0
 20  3  1  0  0  0  0
 21 27  1  0  0  0  0
 22  2  1  0  0  0  0
 23 10  1  0  0  0  0
 25 18  1  0  0  0  0
 27 25  1  0  0  0  0
 27  1  1  0  0  0  0
 28 15  1  0  0  0  0
 28 23  1  0  0  0  0
 29 30  1  0  0  0  0
 32 23  1  0  0  0  0
 32 31  2  0  0  0  0
 33 32  1  0  0  0  0
 34 36  1  0  0  0  0
 35 37  2  0  0  0  0
 36 33  2  0  0  0  0
 36 35  1  0  0  0  0
 37 31  1  0  0  0  0
M  END
>  <MODEL>
2

>  <REMARK>
 VINA RESULT:      -5.1      1.062      1.292
  Name = 
  1 active torsions:
  status: ('A' for Active; 'I' for Inactive)
    1  A    between atoms: C_23  and  C_30
                            x       y       z     vdW  Elec       q    Type
                         _______ _______ _______ _____ _____    ______ ____

>  <TORSDO>
F 1

$$$$
