=
 OpenBabel11122413593D

 37 42  0  0  1  0  0  0  0  0999 V2000
  160.7810  206.3580  150.1360 C   0  0  1  0  0  3  0  0  0  0  0  0
  160.3130  209.1150  152.2530 C   0  0  0  0  0  2  0  0  0  0  0  0
  160.9620  205.5590  147.6560 C   0  0  2  0  0  3  0  0  0  0  0  0
  161.5210  207.5830  150.6480 C   0  0  2  0  0  3  0  0  0  0  0  0
  160.5770  206.6770  148.6490 C   0  0  2  0  0  3  0  0  0  0  0  0
  161.2950  207.9500  152.1240 C   0  0  2  0  0  3  0  0  0  0  0  0
  161.9630  204.5870  148.2640 C   0  0  0  0  0  2  0  0  0  0  0  0
  161.2780  208.0060  148.4340 C   0  0  0  0  0  2  0  0  0  0  0  0
  161.4500  204.6150  151.8140 C   0  0  0  0  0  2  0  0  0  0  0  0
  161.4490  204.1170  149.4780 O   0  0  0  0  0  0  0  0  0  0  0  0
  162.3390  210.5010  152.1760 O   0  0  0  0  0  0  0  0  0  0  0  0
  160.9360  210.5160  152.0680 C   0  0  1  0  0  3  0  0  0  0  0  0
  161.6850  205.1430  150.4040 C   0  0  1  0  0  3  0  0  0  0  0  0
  161.2370  208.6780  149.7300 N   0  0  2  0  0  0  0  0  0  0  0  0
  160.9310  206.7600  153.0350 C   0  0  1  0  0  3  0  0  0  0  0  0
  161.8320  210.7920  150.8900 C   0  0  2  0  0  3  0  0  0  0  0  0
  162.2910  209.6830  149.9250 C   0  0  2  0  0  3  0  0  0  0  0  0
  161.9160  205.6010  152.8810 C   0  0  0  0  0  2  0  0  0  0  0  0
  159.8740  206.6160  155.2970 C   0  0  0  0  0  3  0  0  0  0  0  0
  160.8600  207.1720  154.4760 C   0  0  0  0  0  0  0  0  0  0  0  0
  161.7660  208.1020  155.0110 C   0  0  0  0  0  3  0  0  0  0  0  0
  162.5730  209.3930  156.8820 O   0  0  0  0  0  1  0  0  0  0  0  0
  160.6890  207.9130  157.1720 C   0  0  0  0  0  3  0  0  0  0  0  0
  161.6780  208.4720  156.3560 C   0  0  0  0  0  0  0  0  0  0  0  0
  159.7880  206.9860  156.6420 C   0  0  0  0  0  3  0  0  0  0  0  0
  162.7420  210.3630  148.6150 C   0  0  0  0  0  2  0  0  0  0  0  0
  162.2510  211.7420  148.4720 N   0  0  0  0  0  0  0  0  0  0  0  0
  162.8510  214.0430  147.9460 C   0  0  0  0  0  1  0  0  0  0  0  0
  163.3100  212.5970  147.9530 C   0  0  0  0  0  2  0  0  0  0  0  0
  161.1390  211.7790  147.5270 C   0  0  0  0  0  2  0  0  0  0  0  0
  160.0650  212.6090  148.0510 N   0  0  0  0  0  2  0  0  0  0  0  0
  159.0860  212.6270  147.1160 O   0  0  0  0  0  1  0  0  0  0  0  0
  161.4580  206.0780  146.4460 O   0  0  0  0  0  0  0  0  0  0  0  0
  160.6990  205.5350  145.3900 C   0  0  0  0  0  0  0  0  0  0  0  0
  160.6500  204.1520  145.4790 F   0  0  0  0  0  0  0  0  0  0  0  0
  159.4120  206.0510  145.3910 F   0  0  0  0  0  0  0  0  0  0  0  0
  161.3020  205.8740  144.1950 F   0  0  0  0  0  0  0  0  0  0  0  0
  1 13  1  0  0  0  0
  1  4  1  0  0  0  0
  3  7  1  0  0  0  0
  3  5  1  0  0  0  0
  4  6  1  0  0  0  0
  5  1  1  0  0  0  0
  6  2  1  0  0  0  0
  6 15  1  0  0  0  0
  7 10  1  0  0  0  0
  8  5  1  0  0  0  0
  8 14  1  0  0  0  0
  9 18  1  0  0  0  0
 10 13  1  0  0  0  0
 12 11  1  0  0  0  0
 12  2  1  0  0  0  0
 13  9  1  0  0  0  0
 14 17  1  0  0  0  0
 14  4  1  0  0  0  0
 15 20  1  0  0  0  0
 16 12  1  0  0  0  0
 16 11  1  0  0  0  0
 17 16  1  0  0  0  0
 18 15  1  0  0  0  0
 19 25  1  0  0  0  0
 20 21  1  0  0  0  0
 20 19  2  0  0  0  0
 21 24  2  0  0  0  0
 24 22  1  0  0  0  0
 24 23  1  0  0  0  0
 25 23  2  0  0  0  0
 26 17  1  0  0  0  0
 27 26  1  0  0  0  0
 28 29  1  0  0  0  0
 29 27  1  0  0  0  0
 30 31  1  0  0  0  0
 30 27  1  0  0  0  0
 32 31  1  0  0  0  0
 33  3  1  0  0  0  0
 34 36  1  0  0  0  0
 34 35  1  0  0  0  0
 34 33  1  0  0  0  0
 37 34  1  0  0  0  0
M  END
>  <MODEL>
1

>  <REMARK>
 VINA RESULT:      -7.7      0.000      0.000
  Name = 
  8 active torsions:
  status: ('A' for Active; 'I' for Inactive)
    1  A    between atoms: C_1  and  N_4
    2  A    between atoms: C_1  and  C_27
    3  A    between atoms: C_2  and  O_22
    4  A    between atoms: N_4  and  C_12
    5  A    between atoms: N_4  and  C_37
    6  A    between atoms: C_6  and  O_22
    7  A    between atoms: N_8  and  C_12
    8  A    between atoms: C_23  and  C_30
                            x       y       z     vdW  Elec       q    Type
                         _______ _______ _______ _____ _____    ______ ____

>  <TORSDO>
F 8

$$$$
=
 OpenBabel11122413593D

 37 42  0  0  1  0  0  0  0  0999 V2000
  160.9930  208.3410  150.4550 C   0  0  1  0  0  3  0  0  0  0  0  0
  160.1660  204.9340  150.5750 C   0  0  0  0  0  2  0  0  0  0  0  0
  161.0850  210.5790  151.7990 C   0  0  2  0  0  3  0  0  0  0  0  0
  161.5020  207.0290  151.0300 C   0  0  2  0  0  3  0  0  0  0  0  0
  160.5740  209.1250  151.7060 C   0  0  2  0  0  3  0  0  0  0  0  0
  161.3550  205.7880  150.1350 C   0  0  2  0  0  3  0  0  0  0  0  0
  162.3280  210.7930  150.9470 C   0  0  0  0  0  2  0  0  0  0  0  0
  160.9490  208.2290  152.8730 C   0  0  0  0  0  2  0  0  0  0  0  0
  162.1870  208.4320  148.2490 C   0  0  0  0  0  2  0  0  0  0  0  0
  162.0530  210.3690  149.6410 O   0  0  0  0  0  0  0  0  0  0  0  0
  161.8290  203.7830  151.9680 O   0  0  0  0  0  0  0  0  0  0  0  0
  160.4520  203.9730  151.7490 C   0  0  1  0  0  3  0  0  0  0  0  0
  162.1580  208.9710  149.6740 C   0  0  1  0  0  3  0  0  0  0  0  0
  160.8980  206.8680  152.3460 N   0  0  2  0  0  0  0  0  0  0  0  0
  161.3490  206.0830  148.6210 C   0  0  1  0  0  3  0  0  0  0  0  0
  161.1430  204.4800  152.9870 C   0  0  2  0  0  3  0  0  0  0  0  0
  161.7270  205.9020  153.0810 C   0  0  2  0  0  3  0  0  0  0  0  0
  162.5390  206.9480  148.2030 C   0  0  0  0  0  2  0  0  0  0  0  0
  161.4290  204.8970  146.4210 C   0  0  0  0  0  3  0  0  0  0  0  0
  161.3400  204.8180  147.8140 C   0  0  0  0  0  0  0  0  0  0  0  0
  161.2430  203.5620  148.4340 C   0  0  0  0  0  3  0  0  0  0  0  0
  161.1370  201.1570  148.2740 O   0  0  0  0  0  1  0  0  0  0  0  0
  161.3230  202.4830  146.2680 C   0  0  0  0  0  3  0  0  0  0  0  0
  161.2340  202.3970  147.6600 C   0  0  0  0  0  0  0  0  0  0  0  0
  161.4200  203.7330  145.6480 C   0  0  0  0  0  3  0  0  0  0  0  0
  161.8850  206.2420  154.5780 C   0  0  0  0  0  2  0  0  0  0  0  0
  161.0700  207.3880  155.0080 N   0  0  0  0  0  0  0  0  0  0  0  0
  159.9570  206.8550  157.1070 C   0  0  0  0  0  1  0  0  0  0  0  0
  159.8230  206.9190  155.5980 C   0  0  0  0  0  2  0  0  0  0  0  0
  161.7860  208.1570  156.0210 C   0  0  0  0  0  2  0  0  0  0  0  0
  161.3740  209.5520  155.9720 N   0  0  0  0  0  2  0  0  0  0  0  0
  162.4880  210.2990  156.1600 O   0  0  0  0  0  1  0  0  0  0  0  0
  161.3320  210.9650  153.1290 O   0  0  0  0  0  0  0  0  0  0  0  0
  160.2720  211.7910  153.5510 C   0  0  0  0  0  0  0  0  0  0  0  0
  159.0920  211.0680  153.6460 F   0  0  0  0  0  0  0  0  0  0  0  0
  160.5610  212.3800  154.7720 F   0  0  0  0  0  0  0  0  0  0  0  0
  160.0950  212.7920  152.6160 F   0  0  0  0  0  0  0  0  0  0  0  0
  1  4  1  0  0  0  0
  1  5  1  0  0  0  0
  2 12  1  0  0  0  0
  3 33  1  0  0  0  0
  4 14  1  0  0  0  0
  5  3  1  0  0  0  0
  5  8  1  0  0  0  0
  6  2  1  0  0  0  0
  6  4  1  0  0  0  0
  7  3  1  0  0  0  0
  9 13  1  0  0  0  0
 10 13  1  0  0  0  0
 10  7  1  0  0  0  0
 11 16  1  0  0  0  0
 12 11  1  0  0  0  0
 12 16  1  0  0  0  0
 13  1  1  0  0  0  0
 14  8  1  0  0  0  0
 14 17  1  0  0  0  0
 15  6  1  0  0  0  0
 16 17  1  0  0  0  0
 17 26  1  0  0  0  0
 18  9  1  0  0  0  0
 18 15  1  0  0  0  0
 19 20  1  0  0  0  0
 20 21  2  0  0  0  0
 20 15  1  0  0  0  0
 23 24  2  0  0  0  0
 24 22  1  0  0  0  0
 24 21  1  0  0  0  0
 25 23  1  0  0  0  0
 25 19  2  0  0  0  0
 26 27  1  0  0  0  0
 27 29  1  0  0  0  0
 27 30  1  0  0  0  0
 29 28  1  0  0  0  0
 31 30  1  0  0  0  0
 31 32  1  0  0  0  0
 33 34  1  0  0  0  0
 34 35  1  0  0  0  0
 34 36  1  0  0  0  0
 37 34  1  0  0  0  0
M  END
>  <MODEL>
2

>  <REMARK>
 VINA RESULT:      -5.7      3.884      7.974
  Name = 
  8 active torsions:
  status: ('A' for Active; 'I' for Inactive)
    1  A    between atoms: C_1  and  N_4
    2  A    between atoms: C_1  and  C_27
    3  A    between atoms: C_2  and  O_22
    4  A    between atoms: N_4  and  C_12
    5  A    between atoms: N_4  and  C_37
    6  A    between atoms: C_6  and  O_22
    7  A    between atoms: N_8  and  C_12
    8  A    between atoms: C_23  and  C_30
                            x       y       z     vdW  Elec       q    Type
                         _______ _______ _______ _____ _____    ______ ____

>  <TORSDO>
F 8

$$$$
=
 OpenBabel11122413593D

 37 42  0  0  1  0  0  0  0  0999 V2000
  160.5240  205.5090  151.6730 C   0  0  1  0  0  3  0  0  0  0  0  0
  160.4850  209.0130  151.5200 C   0  0  0  0  0  2  0  0  0  0  0  0
  160.4740  203.2970  150.2840 C   0  0  2  0  0  3  0  0  0  0  0  0
  161.4220  206.6780  151.3000 C   0  0  2  0  0  3  0  0  0  0  0  0
  160.2710  204.8270  150.3210 C   0  0  2  0  0  3  0  0  0  0  0  0
  161.3240  207.9260  152.1920 C   0  0  2  0  0  3  0  0  0  0  0  0
  161.3950  202.8250  151.4000 C   0  0  0  0  0  2  0  0  0  0  0  0
  161.1010  205.6160  149.3240 C   0  0  0  0  0  2  0  0  0  0  0  0
  161.0930  205.1740  154.0940 C   0  0  0  0  0  2  0  0  0  0  0  0
  160.9030  203.3050  152.6200 O   0  0  0  0  0  0  0  0  0  0  0  0
  162.6420  209.7730  150.6260 O   0  0  0  0  0  0  0  0  0  0  0  0
  161.2450  209.8840  150.4970 C   0  0  1  0  0  3  0  0  0  0  0  0
  161.3030  204.6470  152.6800 C   0  0  1  0  0  3  0  0  0  0  0  0
  161.2090  206.9580  149.8870 N   0  0  2  0  0  0  0  0  0  0  0  0
  160.8840  207.6470  153.6440 C   0  0  1  0  0  3  0  0  0  0  0  0
  162.0980  209.2340  149.4400 C   0  0  2  0  0  3  0  0  0  0  0  0
  162.3750  207.7200  149.4200 C   0  0  2  0  0  3  0  0  0  0  0  0
  161.7260  206.5480  154.2940 C   0  0  0  0  0  2  0  0  0  0  0  0
  162.1150  209.6480  154.5010 C   0  0  0  0  0  3  0  0  0  0  0  0
  160.9420  208.8880  154.4850 C   0  0  0  0  0  0  0  0  0  0  0  0
  159.8390  209.2970  155.2520 C   0  0  0  0  0  3  0  0  0  0  0  0
  158.8280  210.8570  156.7900 O   0  0  0  0  0  1  0  0  0  0  0  0
  161.0940  211.2110  156.0430 C   0  0  0  0  0  3  0  0  0  0  0  0
  159.9170  210.4560  156.0300 C   0  0  0  0  0  0  0  0  0  0  0  0
  162.1930  210.8070  155.2790 C   0  0  0  0  0  3  0  0  0  0  0  0
  162.8220  207.3460  147.9920 C   0  0  0  0  0  2  0  0  0  0  0  0
  161.9220  206.3910  147.3280 N   0  0  0  0  0  0  0  0  0  0  0  0
  160.3190  206.3410  145.4950 C   0  0  0  0  0  1  0  0  0  0  0  0
  160.8080  207.1000  146.7140 C   0  0  0  0  0  2  0  0  0  0  0  0
  162.6390  205.6810  146.2730 C   0  0  0  0  0  2  0  0  0  0  0  0
  162.8180  204.2850  146.6430 N   0  0  0  0  0  2  0  0  0  0  0  0
  162.0150  203.5560  145.8320 O   0  0  0  0  0  1  0  0  0  0  0  0
  160.9540  202.8590  149.0360 O   0  0  0  0  0  0  0  0  0  0  0  0
  160.3630  201.6120  148.7510 C   0  0  0  0  0  0  0  0  0  0  0  0
  161.1790  200.5720  149.1710 F   0  0  0  0  0  0  0  0  0  0  0  0
  159.1190  201.5060  149.3540 F   0  0  0  0  0  0  0  0  0  0  0  0
  160.1930  201.5090  147.3840 F   0  0  0  0  0  0  0  0  0  0  0  0
  1 13  1  0  0  0  0
  2  6  1  0  0  0  0
  3  5  1  0  0  0  0
  3  7  1  0  0  0  0
  4  1  1  0  0  0  0
  4  6  1  0  0  0  0
  5  1  1  0  0  0  0
  6 15  1  0  0  0  0
  7 10  1  0  0  0  0
  8 14  1  0  0  0  0
  8  5  1  0  0  0  0
  9 18  1  0  0  0  0
 10 13  1  0  0  0  0
 12 11  1  0  0  0  0
 12  2  1  0  0  0  0
 13  9  1  0  0  0  0
 14  4  1  0  0  0  0
 15 18  1  0  0  0  0
 15 20  1  0  0  0  0
 16 12  1  0  0  0  0
 16 11  1  0  0  0  0
 17 16  1  0  0  0  0
 17 14  1  0  0  0  0
 19 25  1  0  0  0  0
 20 19  2  0  0  0  0
 20 21  1  0  0  0  0
 21 24  2  0  0  0  0
 24 23  1  0  0  0  0
 24 22  1  0  0  0  0
 25 23  2  0  0  0  0
 26 17  1  0  0  0  0
 27 26  1  0  0  0  0
 28 29  1  0  0  0  0
 29 27  1  0  0  0  0
 30 31  1  0  0  0  0
 30 27  1  0  0  0  0
 32 31  1  0  0  0  0
 33  3  1  0  0  0  0
 34 33  1  0  0  0  0
 34 35  1  0  0  0  0
 34 36  1  0  0  0  0
 37 34  1  0  0  0  0
M  END
>  <MODEL>
3

>  <REMARK>
 VINA RESULT:      -5.6      2.828      4.247
  Name = 
  8 active torsions:
  status: ('A' for Active; 'I' for Inactive)
    1  A    between atoms: C_1  and  N_4
    2  A    between atoms: C_1  and  C_27
    3  A    between atoms: C_2  and  O_22
    4  A    between atoms: N_4  and  C_12
    5  A    between atoms: N_4  and  C_37
    6  A    between atoms: C_6  and  O_22
    7  A    between atoms: N_8  and  C_12
    8  A    between atoms: C_23  and  C_30
                            x       y       z     vdW  Elec       q    Type
                         _______ _______ _______ _____ _____    ______ ____

>  <TORSDO>
F 8

$$$$
=
 OpenBabel11122413593D

 37 42  0  0  1  0  0  0  0  0999 V2000
  161.8250  207.2340  152.7120 C   0  0  1  0  0  3  0  0  0  0  0  0
  162.7600  206.7930  149.3600 C   0  0  0  0  0  2  0  0  0  0  0  0
  161.8290  208.8730  154.7460 C   0  0  2  0  0  3  0  0  0  0  0  0
  161.4270  207.6800  151.3140 C   0  0  2  0  0  3  0  0  0  0  0  0
  162.3680  208.5240  153.3420 C   0  0  2  0  0  3  0  0  0  0  0  0
  161.5020  206.6130  150.2090 C   0  0  2  0  0  3  0  0  0  0  0  0
  160.4880  208.2060  155.0150 C   0  0  0  0  0  2  0  0  0  0  0  0
  162.1610  209.5930  152.2830 C   0  0  0  0  0  2  0  0  0  0  0  0
  160.3740  205.2130  153.0400 C   0  0  0  0  0  2  0  0  0  0  0  0
  160.6170  206.8320  154.7800 O   0  0  0  0  0  0  0  0  0  0  0  0
  161.3090  208.1970  147.9610 O   0  0  0  0  0  0  0  0  0  0  0  0
  162.6440  207.8500  148.2400 C   0  0  1  0  0  3  0  0  0  0  0  0
  160.5570  206.6860  153.3870 C   0  0  1  0  0  3  0  0  0  0  0  0
  162.1880  208.8840  151.0080 N   0  0  2  0  0  0  0  0  0  0  0  0
  161.3180  205.1630  150.7020 C   0  0  1  0  0  3  0  0  0  0  0  0
  162.0910  209.2160  148.5480 C   0  0  2  0  0  3  0  0  0  0  0  0
  161.4820  209.5700  149.9170 C   0  0  2  0  0  3  0  0  0  0  0  0
  160.0620  205.0060  151.5610 C   0  0  0  0  0  2  0  0  0  0  0  0
  160.9450  202.8580  149.8080 C   0  0  0  0  0  3  0  0  0  0  0  0
  161.2680  204.1950  149.5570 C   0  0  0  0  0  0  0  0  0  0  0  0
  161.5390  204.6100  148.2430 C   0  0  0  0  0  3  0  0  0  0  0  0
  161.7580  204.1000  145.8950 O   0  0  0  0  0  1  0  0  0  0  0  0
  161.1650  202.3530  147.4500 C   0  0  0  0  0  3  0  0  0  0  0  0
  161.4880  203.6880  147.1920 C   0  0  0  0  0  0  0  0  0  0  0  0
  160.8930  201.9380  148.7570 C   0  0  0  0  0  3  0  0  0  0  0  0
  161.4940  211.1070  150.0490 C   0  0  0  0  0  2  0  0  0  0  0  0
  161.4420  211.8060  148.7560 N   0  0  0  0  0  0  0  0  0  0  0  0
  160.2000  213.2280  150.2950 C   0  0  0  0  0  1  0  0  0  0  0  0
  160.5500  212.9540  148.8450 C   0  0  0  0  0  2  0  0  0  0  0  0
  162.7700  212.2950  148.4000 C   0  0  0  0  0  2  0  0  0  0  0  0
  162.6580  213.4730  147.5520 N   0  0  0  0  0  2  0  0  0  0  0  0
  162.7400  213.0470  146.2700 O   0  0  0  0  0  1  0  0  0  0  0  0
  161.7320  210.2630  154.9420 O   0  0  0  0  0  0  0  0  0  0  0  0
  162.6050  210.6220  155.9880 C   0  0  0  0  0  0  0  0  0  0  0  0
  163.8260  211.0490  155.4860 F   0  0  0  0  0  0  0  0  0  0  0  0
  162.0480  211.6160  156.7760 F   0  0  0  0  0  0  0  0  0  0  0  0
  162.8230  209.5110  156.7790 F   0  0  0  0  0  0  0  0  0  0  0  0
  1  5  1  0  0  0  0
  1 13  1  0  0  0  0
  2  6  1  0  0  0  0
  3 33  1  0  0  0  0
  3  7  1  0  0  0  0
  4  1  1  0  0  0  0
  5  3  1  0  0  0  0
  6 15  1  0  0  0  0
  6  4  1  0  0  0  0
  8  5  1  0  0  0  0
  9 13  1  0  0  0  0
 10  7  1  0  0  0  0
 11 12  1  0  0  0  0
 11 16  1  0  0  0  0
 12 16  1  0  0  0  0
 12  2  1  0  0  0  0
 13 10  1  0  0  0  0
 14  4  1  0  0  0  0
 14  8  1  0  0  0  0
 15 18  1  0  0  0  0
 16 17  1  0  0  0  0
 17 26  1  0  0  0  0
 17 14  1  0  0  0  0
 18  9  1  0  0  0  0
 20 19  1  0  0  0  0
 20 15  1  0  0  0  0
 21 20  2  0  0  0  0
 22 24  1  0  0  0  0
 23 25  1  0  0  0  0
 24 23  2  0  0  0  0
 24 21  1  0  0  0  0
 25 19  2  0  0  0  0
 27 29  1  0  0  0  0
 27 26  1  0  0  0  0
 29 28  1  0  0  0  0
 30 27  1  0  0  0  0
 31 30  1  0  0  0  0
 32 31  1  0  0  0  0
 33 34  1  0  0  0  0
 34 36  1  0  0  0  0
 34 37  1  0  0  0  0
 35 34  1  0  0  0  0
M  END
>  <MODEL>
4

>  <REMARK>
 VINA RESULT:      -5.3      3.985      6.818
  Name = 
  8 active torsions:
  status: ('A' for Active; 'I' for Inactive)
    1  A    between atoms: C_1  and  N_4
    2  A    between atoms: C_1  and  C_27
    3  A    between atoms: C_2  and  O_22
    4  A    between atoms: N_4  and  C_12
    5  A    between atoms: N_4  and  C_37
    6  A    between atoms: C_6  and  O_22
    7  A    between atoms: N_8  and  C_12
    8  A    between atoms: C_23  and  C_30
                            x       y       z     vdW  Elec       q    Type
                         _______ _______ _______ _____ _____    ______ ____

>  <TORSDO>
F 8

$$$$
=
 OpenBabel11122413593D

 37 42  0  0  1  0  0  0  0  0999 V2000
  161.9010  207.9260  152.1450 C   0  0  1  0  0  3  0  0  0  0  0  0
  162.8050  208.9060  148.9010 C   0  0  0  0  0  2  0  0  0  0  0  0
  161.6790  208.6830  154.6350 C   0  0  2  0  0  3  0  0  0  0  0  0
  161.3940  208.7780  150.9920 C   0  0  2  0  0  3  0  0  0  0  0  0
  162.2310  208.9680  153.2220 C   0  0  2  0  0  3  0  0  0  0  0  0
  161.6210  208.2170  149.5780 C   0  0  2  0  0  3  0  0  0  0  0  0
  160.4800  207.7460  154.5920 C   0  0  0  0  0  2  0  0  0  0  0  0
  161.8150  210.2990  152.6190 C   0  0  0  0  0  2  0  0  0  0  0  0
  160.8270  205.7100  151.6590 C   0  0  0  0  0  2  0  0  0  0  0  0
  160.8360  206.5970  153.8770 O   0  0  0  0  0  0  0  0  0  0  0  0
  161.0980  210.4560  148.0570 O   0  0  0  0  0  0  0  0  0  0  0  0
  162.4800  210.2630  148.2400 C   0  0  1  0  0  3  0  0  0  0  0  0
  160.7640  206.9620  152.5250 C   0  0  1  0  0  3  0  0  0  0  0  0
  161.9290  210.1200  151.1750 N   0  0  2  0  0  0  0  0  0  0  0  0
  161.7020  206.6790  149.5010 C   0  0  1  0  0  3  0  0  0  0  0  0
  161.7090  211.3070  149.0040 C   0  0  2  0  0  3  0  0  0  0  0  0
  161.0860  211.0270  150.3840 C   0  0  2  0  0  3  0  0  0  0  0  0
  160.5160  206.0090  150.1950 C   0  0  0  0  0  2  0  0  0  0  0  0
  162.9350  205.5280  147.6540 C   0  0  0  0  0  3  0  0  0  0  0  0
  161.7870  206.2030  148.0810 C   0  0  0  0  0  0  0  0  0  0  0  0
  160.7360  206.4240  147.1760 C   0  0  0  0  0  3  0  0  0  0  0  0
  159.8000  206.1950  144.9650 O   0  0  0  0  0  1  0  0  0  0  0  0
  161.9900  205.3000  145.4370 C   0  0  0  0  0  3  0  0  0  0  0  0
  160.8390  205.9730  145.8570 C   0  0  0  0  0  0  0  0  0  0  0  0
  163.0370  205.0770  146.3360 C   0  0  0  0  0  3  0  0  0  0  0  0
  160.8370  212.3880  151.0670 C   0  0  0  0  0  2  0  0  0  0  0  0
  159.4120  212.6940  151.2600 N   0  0  0  0  0  0  0  0  0  0  0  0
  157.8150  212.5590  153.0940 C   0  0  0  0  0  1  0  0  0  0  0  0
  159.1670  213.0780  152.6440 C   0  0  0  0  0  2  0  0  0  0  0  0
  159.0230  213.8130  150.4080 C   0  0  0  0  0  2  0  0  0  0  0  0
  158.2260  213.3350  149.2880 N   0  0  0  0  0  2  0  0  0  0  0  0
  156.9390  213.2960  149.7060 O   0  0  0  0  0  1  0  0  0  0  0  0
  161.3500  209.8660  155.3210 O   0  0  0  0  0  0  0  0  0  0  0  0
  162.3360  210.0960  156.3000 C   0  0  0  0  0  0  0  0  0  0  0  0
  162.7070  208.9090  156.9150 F   0  0  0  0  0  0  0  0  0  0  0  0
  163.4510  210.7040  155.7440 F   0  0  0  0  0  0  0  0  0  0  0  0
  161.8150  210.9400  157.2610 F   0  0  0  0  0  0  0  0  0  0  0  0
  1 13  1  0  0  0  0
  1  5  1  0  0  0  0
  2  6  1  0  0  0  0
  3 33  1  0  0  0  0
  4 14  1  0  0  0  0
  4  1  1  0  0  0  0
  5  3  1  0  0  0  0
  6  4  1  0  0  0  0
  7  3  1  0  0  0  0
  8  5  1  0  0  0  0
  9 13  1  0  0  0  0
 10  7  1  0  0  0  0
 11 12  1  0  0  0  0
 11 16  1  0  0  0  0
 12  2  1  0  0  0  0
 12 16  1  0  0  0  0
 13 10  1  0  0  0  0
 14  8  1  0  0  0  0
 15  6  1  0  0  0  0
 15 18  1  0  0  0  0
 16 17  1  0  0  0  0
 17 26  1  0  0  0  0
 17 14  1  0  0  0  0
 18  9  1  0  0  0  0
 19 20  1  0  0  0  0
 20 15  1  0  0  0  0
 21 20  2  0  0  0  0
 22 24  1  0  0  0  0
 23 24  2  0  0  0  0
 23 25  1  0  0  0  0
 24 21  1  0  0  0  0
 25 19  2  0  0  0  0
 26 27  1  0  0  0  0
 27 29  1  0  0  0  0
 29 28  1  0  0  0  0
 30 27  1  0  0  0  0
 31 32  1  0  0  0  0
 31 30  1  0  0  0  0
 33 34  1  0  0  0  0
 34 35  1  0  0  0  0
 34 37  1  0  0  0  0
 36 34  1  0  0  0  0
M  END
>  <MODEL>
5

>  <REMARK>
 VINA RESULT:      -4.9      4.081      7.197
  Name = 
  8 active torsions:
  status: ('A' for Active; 'I' for Inactive)
    1  A    between atoms: C_1  and  N_4
    2  A    between atoms: C_1  and  C_27
    3  A    between atoms: C_2  and  O_22
    4  A    between atoms: N_4  and  C_12
    5  A    between atoms: N_4  and  C_37
    6  A    between atoms: C_6  and  O_22
    7  A    between atoms: N_8  and  C_12
    8  A    between atoms: C_23  and  C_30
                            x       y       z     vdW  Elec       q    Type
                         _______ _______ _______ _____ _____    ______ ____

>  <TORSDO>
F 8

$$$$
