=
 OpenBabel11122413033D

 32 37  0  0  1  0  0  0  0  0999 V2000
  161.8720  201.5370  149.3030 C   0  0  0  0  0  2  0  0  0  0  0  0
  161.2340  205.9460  151.4260 C   0  0  2  0  0  3  0  0  0  0  0  0
  162.2940  209.7100  148.4070 C   0  0  0  0  0  3  0  0  0  0  0  0
  162.1180  210.6140  149.4500 C   0  0  0  0  0  3  0  0  0  0  0  0
  161.0310  206.4890  153.8570 C   0  0  0  0  0  0  0  0  0  0  0  0
  161.0780  207.4770  154.9300 C   0  0  0  0  0  0  0  0  0  0  0  0
  160.1870  203.9850  150.2470 C   0  0  1  0  0  3  0  0  0  0  0  0
  161.6300  205.5770  148.9560 C   0  0  0  0  0  3  0  0  0  0  0  0
  161.1290  209.6080  155.8690 C   0  0  2  0  0  3  0  0  0  0  0  0
  161.2950  203.4020  147.9170 C   0  0  0  0  0  2  0  0  0  0  0  0
  162.1150  208.3470  148.6320 C   0  0  0  0  0  3  0  0  0  0  0  0
  161.5630  206.5340  150.0800 C   0  0  0  0  0  0  0  0  0  0  0  0
  161.7670  207.8560  149.9050 C   0  0  0  0  0  0  0  0  0  0  0  0
  161.2420  208.3620  152.2110 C   0  0  0  0  0  0  0  0  0  0  0  0
  161.1600  208.5320  156.9660 C   0  0  0  0  0  2  0  0  0  0  0  0
  161.7780  202.3230  150.6190 C   0  0  0  0  0  2  0  0  0  0  0  0
  161.0300  204.3830  149.0230 C   0  0  0  0  0  0  0  0  0  0  0  0
  161.0870  207.2310  156.2240 C   0  0  0  0  0  3  0  0  0  0  0  0
  160.4500  202.7260  150.8540 O   0  0  0  0  0  0  0  0  0  0  0  0
  160.9250  202.0420  148.3030 N   0  0  0  0  0  0  0  0  0  0  0  0
  161.7660  210.1520  150.7170 C   0  0  0  0  0  3  0  0  0  0  0  0
  161.5890  208.7780  150.9720 C   0  0  0  0  0  0  0  0  0  0  0  0
  160.9370  209.3880  153.2930 C   0  0  0  0  0  2  0  0  0  0  0  0
  159.9790  205.0900  151.2920 C   0  0  0  0  0  2  0  0  0  0  0  0
  160.9610  205.2590  154.1290 O   0  0  0  0  0  0  0  0  0  0  0  0
  159.8370  210.3990  155.9910 C   0  0  0  0  0  1  0  0  0  0  0  0
  161.0960  206.9450  152.4910 N   0  0  0  0  0  0  0  0  0  0  0  0
  161.1430  208.8490  154.6320 N   0  0  0  0  0  0  0  0  0  0  0  0
  161.0780  201.2150  147.1170 C   0  0  0  0  0  2  0  0  0  0  0  0
  160.7750  202.0130  145.8910 C   0  0  0  0  0  0  0  0  0  0  0  0
  159.6480  201.6110  145.0040 C   0  0  0  0  0  1  0  0  0  0  0  0
  161.4570  202.9830  145.6050 O   0  0  0  0  0  0  0  0  0  0  0  0
  1 16  1  0  0  0  0
  2 24  1  6  0  0  0
  2 27  1  0  0  0  0
  3 11  2  0  0  0  0
  3  4  1  0  0  0  0
  4 21  2  0  0  0  0
  5 25  2  0  0  0  0
  5  6  1  0  0  0  0
  6 18  2  0  0  0  0
  7 19  1  0  0  0  0
  7 24  1  1  0  0  0
  8 17  2  0  0  0  0
  8 12  1  0  0  0  0
  9 26  1  1  0  0  0
  9 15  1  0  0  0  0
 10 20  1  0  0  0  0
 10 17  1  0  0  0  0
 11 13  1  0  0  0  0
 12  2  1  0  0  0  0
 13 12  2  0  0  0  0
 13 22  1  0  0  0  0
 14 27  1  0  0  0  0
 14 23  1  0  0  0  0
 16 19  1  0  0  0  0
 17  7  1  0  0  0  0
 18 15  1  0  0  0  0
 20  1  1  0  0  0  0
 21 22  1  0  0  0  0
 22 14  2  0  0  0  0
 23 28  1  0  0  0  0
 27  5  1  0  0  0  0
 28  6  1  0  0  0  0
 28  9  1  0  0  0  0
 29 20  1  0  0  0  0
 30 29  1  0  0  0  0
 31 30  1  0  0  0  0
 32 30  2  0  0  0  0
M  END
>  <MODEL>
1

>  <REMARK>
 VINA RESULT:      -8.2      0.000      0.000
  Name = 
  2 active torsions:
  status: ('A' for Active; 'I' for Inactive)
    1  A    between atoms: N_20  and  C_29
    2  A    between atoms: C_29  and  C_30
                            x       y       z     vdW  Elec       q    Type
                         _______ _______ _______ _____ _____    ______ ____

>  <TORSDO>
F 2

$$$$
=
 OpenBabel11122413033D

 32 37  0  0  1  0  0  0  0  0999 V2000
  162.5670  210.1400  153.4080 C   0  0  0  0  0  2  0  0  0  0  0  0
  161.4970  206.5500  150.1950 C   0  0  2  0  0  3  0  0  0  0  0  0
  161.0170  202.1250  152.3390 C   0  0  0  0  0  3  0  0  0  0  0  0
  160.8930  201.5200  151.0920 C   0  0  0  0  0  3  0  0  0  0  0  0
  161.7370  206.5650  147.7070 C   0  0  0  0  0  0  0  0  0  0  0  0
  161.8130  205.8280  146.4500 C   0  0  0  0  0  0  0  0  0  0  0  0
  160.6550  208.4460  151.6190 C   0  0  1  0  0  3  0  0  0  0  0  0
  161.3940  206.3140  152.7100 C   0  0  0  0  0  3  0  0  0  0  0  0
  161.6180  203.9830  145.0410 C   0  0  2  0  0  3  0  0  0  0  0  0
  161.3060  208.2550  154.1760 C   0  0  0  0  0  2  0  0  0  0  0  0
  161.1900  203.5050  152.4260 C   0  0  0  0  0  3  0  0  0  0  0  0
  161.3800  205.6450  151.3920 C   0  0  0  0  0  0  0  0  0  0  0  0
  161.2520  204.3090  151.2710 C   0  0  0  0  0  0  0  0  0  0  0  0
  161.1650  204.4170  148.8560 C   0  0  0  0  0  0  0  0  0  0  0  0
  162.1260  205.2060  144.2630 C   0  0  0  0  0  2  0  0  0  0  0  0
  162.6070  209.6780  151.9440 C   0  0  0  0  0  2  0  0  0  0  0  0
  161.0940  207.6120  152.8350 C   0  0  0  0  0  0  0  0  0  0  0  0
  162.1670  206.3120  145.2770 C   0  0  0  0  0  3  0  0  0  0  0  0
  161.3110  209.6880  151.3930 O   0  0  0  0  0  0  0  0  0  0  0  0
  161.3320  209.7130  154.0770 N   0  0  0  0  0  0  0  0  0  0  0  0
  160.9440  202.2960  149.9350 C   0  0  0  0  0  3  0  0  0  0  0  0
  161.1260  203.6910  149.9970 C   0  0  0  0  0  0  0  0  0  0  0  0
  160.9010  203.7370  147.5210 C   0  0  0  0  0  2  0  0  0  0  0  0
  160.4580  207.6590  150.3160 C   0  0  0  0  0  2  0  0  0  0  0  0
  161.9950  207.8000  147.7370 O   0  0  0  0  0  0  0  0  0  0  0  0
  160.2490  203.5940  144.5100 C   0  0  0  0  0  1  0  0  0  0  0  0
  161.3930  205.8490  148.9110 N   0  0  0  0  0  0  0  0  0  0  0  0
  161.5140  204.4560  146.4100 N   0  0  0  0  0  0  0  0  0  0  0  0
  161.3870  210.2230  155.4370 C   0  0  0  0  0  2  0  0  0  0  0  0
  160.0430  210.1170  156.0800 C   0  0  0  0  0  0  0  0  0  0  0  0
  158.8520  210.7100  155.4130 C   0  0  0  0  0  1  0  0  0  0  0  0
  159.9210  209.5590  157.1590 O   0  0  0  0  0  0  0  0  0  0  0  0
  1 20  1  0  0  0  0
  2 24  1  1  0  0  0
  2 12  1  0  0  0  0
  3 11  2  0  0  0  0
  4  3  1  0  0  0  0
  5 25  2  0  0  0  0
  5 27  1  0  0  0  0
  6  5  1  0  0  0  0
  7 24  1  6  0  0  0
  7 17  1  0  0  0  0
  8 17  2  0  0  0  0
  9 26  1  6  0  0  0
  9 28  1  0  0  0  0
 12  8  1  0  0  0  0
 13 12  2  0  0  0  0
 13 11  1  0  0  0  0
 14 27  1  0  0  0  0
 14 22  2  0  0  0  0
 15  9  1  0  0  0  0
 15 18  1  0  0  0  0
 16  1  1  0  0  0  0
 17 10  1  0  0  0  0
 18  6  2  0  0  0  0
 19  7  1  0  0  0  0
 19 16  1  0  0  0  0
 20 10  1  0  0  0  0
 20 29  1  0  0  0  0
 21 22  1  0  0  0  0
 21  4  2  0  0  0  0
 22 13  1  0  0  0  0
 23 14  1  0  0  0  0
 27  2  1  0  0  0  0
 28  6  1  0  0  0  0
 28 23  1  0  0  0  0
 29 30  1  0  0  0  0
 30 32  2  0  0  0  0
 31 30  1  0  0  0  0
M  END
>  <MODEL>
2

>  <REMARK>
 VINA RESULT:      -8.1      2.412      8.661
  Name = 
  2 active torsions:
  status: ('A' for Active; 'I' for Inactive)
    1  A    between atoms: N_20  and  C_29
    2  A    between atoms: C_29  and  C_30
                            x       y       z     vdW  Elec       q    Type
                         _______ _______ _______ _____ _____    ______ ____

>  <TORSDO>
F 2

$$$$
=
 OpenBabel11122413033D

 32 37  0  0  1  0  0  0  0  0999 V2000
  159.6280  207.8320  155.9020 C   0  0  0  0  0  2  0  0  0  0  0  0
  161.2550  207.2700  151.2780 C   0  0  2  0  0  3  0  0  0  0  0  0
  161.9610  211.5680  148.9470 C   0  0  0  0  0  3  0  0  0  0  0  0
  162.2330  210.8950  147.7600 C   0  0  0  0  0  3  0  0  0  0  0  0
  161.2060  205.2200  149.8480 C   0  0  0  0  0  0  0  0  0  0  0  0
  161.2920  204.6120  148.5250 C   0  0  0  0  0  0  0  0  0  0  0  0
  161.8130  207.3600  153.7300 C   0  0  1  0  0  3  0  0  0  0  0  0
  161.1860  209.4670  152.5260 C   0  0  0  0  0  3  0  0  0  0  0  0
  161.7580  204.5170  146.2440 C   0  0  2  0  0  3  0  0  0  0  0  0
  160.9880  209.5570  154.9500 C   0  0  0  0  0  2  0  0  0  0  0  0
  161.6600  210.8460  150.1000 C   0  0  0  0  0  3  0  0  0  0  0  0
  161.3600  208.7700  151.2340 C   0  0  0  0  0  0  0  0  0  0  0  0
  161.6150  209.4390  150.0910 C   0  0  0  0  0  0  0  0  0  0  0  0
  161.8770  207.4000  148.8180 C   0  0  0  0  0  0  0  0  0  0  0  0
  161.2040  203.1730  146.7390 C   0  0  0  0  0  2  0  0  0  0  0  0
  159.7410  206.8960  154.6900 C   0  0  0  0  0  2  0  0  0  0  0  0
  161.3580  208.8290  153.6890 C   0  0  0  0  0  0  0  0  0  0  0  0
  160.9870  203.3690  148.2100 C   0  0  0  0  0  3  0  0  0  0  0  0
  161.0690  206.4550  154.5350 O   0  0  0  0  0  0  0  0  0  0  0  0
  160.8400  208.6390  156.0780 N   0  0  0  0  0  0  0  0  0  0  0  0
  162.2030  209.5020  147.7290 C   0  0  0  0  0  3  0  0  0  0  0  0
  161.8930  208.7500  148.8790 C   0  0  0  0  0  0  0  0  0  0  0  0
  162.3020  206.6980  147.5360 C   0  0  0  0  0  2  0  0  0  0  0  0
  162.1790  206.7460  152.3710 C   0  0  0  0  0  2  0  0  0  0  0  0
  160.8370  204.5330  150.8400 O   0  0  0  0  0  0  0  0  0  0  0  0
  163.1930  204.3220  145.7850 C   0  0  0  0  0  1  0  0  0  0  0  0
  161.5180  206.6200  149.9890 N   0  0  0  0  0  0  0  0  0  0  0  0
  161.7140  205.3690  147.4190 N   0  0  0  0  0  0  0  0  0  0  0  0
  160.6370  209.4600  157.2600 C   0  0  0  0  0  2  0  0  0  0  0  0
  161.5510  210.6410  157.2300 C   0  0  0  0  0  0  0  0  0  0  0  0
  163.0250  210.4380  157.2510 C   0  0  0  0  0  1  0  0  0  0  0  0
  161.0920  211.7720  157.2040 O   0  0  0  0  0  0  0  0  0  0  0  0
  1 20  1  0  0  0  0
  2 24  1  1  0  0  0
  3 11  2  0  0  0  0
  4  3  1  0  0  0  0
  5 27  1  0  0  0  0
  5 25  2  0  0  0  0
  6  5  1  0  0  0  0
  7 24  1  6  0  0  0
  7 19  1  0  0  0  0
  8 17  2  0  0  0  0
  9 26  1  1  0  0  0
  9 15  1  0  0  0  0
  9 28  1  0  0  0  0
 10 20  1  0  0  0  0
 12  2  1  0  0  0  0
 12  8  1  0  0  0  0
 13 11  1  0  0  0  0
 13 12  2  0  0  0  0
 14 22  2  0  0  0  0
 14 27  1  0  0  0  0
 15 18  1  0  0  0  0
 16  1  1  0  0  0  0
 17  7  1  0  0  0  0
 17 10  1  0  0  0  0
 18  6  2  0  0  0  0
 19 16  1  0  0  0  0
 20 29  1  0  0  0  0
 21  4  2  0  0  0  0
 21 22  1  0  0  0  0
 22 13  1  0  0  0  0
 23 14  1  0  0  0  0
 27  2  1  0  0  0  0
 28 23  1  0  0  0  0
 28  6  1  0  0  0  0
 30 31  1  0  0  0  0
 30 29  1  0  0  0  0
 32 30  2  0  0  0  0
M  END
>  <MODEL>
3

>  <REMARK>
 VINA RESULT:      -7.0      1.999      7.922
  Name = 
  2 active torsions:
  status: ('A' for Active; 'I' for Inactive)
    1  A    between atoms: N_20  and  C_29
    2  A    between atoms: C_29  and  C_30
                            x       y       z     vdW  Elec       q    Type
                         _______ _______ _______ _____ _____    ______ ____

>  <TORSDO>
F 2

$$$$
=
 OpenBabel11122413033D

 32 37  0  0  1  0  0  0  0  0999 V2000
  159.5090  208.5220  156.4940 C   0  0  0  0  0  2  0  0  0  0  0  0
  160.8370  206.3360  152.2740 C   0  0  2  0  0  3  0  0  0  0  0  0
  161.9480  209.5590  148.6990 C   0  0  0  0  0  3  0  0  0  0  0  0
  162.0810  208.5190  147.7840 C   0  0  0  0  0  3  0  0  0  0  0  0
  160.4730  203.9670  151.5660 C   0  0  0  0  0  0  0  0  0  0  0  0
  160.4230  202.9690  150.5030 C   0  0  0  0  0  0  0  0  0  0  0  0
  161.5170  207.1150  154.5680 C   0  0  1  0  0  3  0  0  0  0  0  0
  161.0940  208.8030  152.7640 C   0  0  0  0  0  3  0  0  0  0  0  0
  160.7660  202.1060  148.3670 C   0  0  2  0  0  3  0  0  0  0  0  0
  161.0220  209.6710  155.0360 C   0  0  0  0  0  2  0  0  0  0  0  0
  161.6160  209.2800  150.0230 C   0  0  0  0  0  3  0  0  0  0  0  0
  161.1210  207.7210  151.7580 C   0  0  0  0  0  0  0  0  0  0  0  0
  161.4020  207.9590  150.4600 C   0  0  0  0  0  0  0  0  0  0  0  0
  161.3540  205.6080  149.8950 C   0  0  0  0  0  0  0  0  0  0  0  0
  160.0770  201.0670  149.2650 C   0  0  0  0  0  2  0  0  0  0  0  0
  159.4510  207.2490  155.6390 C   0  0  0  0  0  2  0  0  0  0  0  0
  161.2420  208.5440  154.0680 C   0  0  0  0  0  0  0  0  0  0  0  0
  159.9550  201.7410  150.6000 C   0  0  0  0  0  3  0  0  0  0  0  0
  160.7070  206.6120  155.6230 O   0  0  0  0  0  0  0  0  0  0  0  0
  160.8180  209.1800  156.3980 N   0  0  0  0  0  0  0  0  0  0  0  0
  161.8800  207.2030  148.1950 C   0  0  0  0  0  3  0  0  0  0  0  0
  161.5360  206.8960  149.5260 C   0  0  0  0  0  0  0  0  0  0  0  0
  161.6300  204.4920  148.8980 C   0  0  0  0  0  2  0  0  0  0  0  0
  161.7420  206.0650  153.4710 C   0  0  0  0  0  2  0  0  0  0  0  0
  160.0710  203.6780  152.7280 O   0  0  0  0  0  0  0  0  0  0  0  0
  162.1430  201.5920  147.9840 C   0  0  0  0  0  1  0  0  0  0  0  0
  160.9590  205.2870  151.2550 N   0  0  0  0  0  0  0  0  0  0  0  0
  160.8810  203.2800  149.2120 N   0  0  0  0  0  0  0  0  0  0  0  0
  160.7710  210.3490  157.2600 C   0  0  0  0  0  2  0  0  0  0  0  0
  162.0900  211.0510  157.2490 C   0  0  0  0  0  0  0  0  0  0  0  0
  163.3510  210.2590  157.2450 C   0  0  0  0  0  1  0  0  0  0  0  0
  162.1360  212.2700  157.2570 O   0  0  0  0  0  0  0  0  0  0  0  0
  2 24  1  1  0  0  0
  3 11  2  0  0  0  0
  4 21  2  0  0  0  0
  4  3  1  0  0  0  0
  5 25  2  0  0  0  0
  6 18  2  0  0  0  0
  6  5  1  0  0  0  0
  7 24  1  6  0  0  0
  7 19  1  0  0  0  0
  8 17  2  0  0  0  0
  9 26  1  1  0  0  0
  9 28  1  0  0  0  0
  9 15  1  0  0  0  0
 10 20  1  0  0  0  0
 11 13  1  0  0  0  0
 12  2  1  0  0  0  0
 12  8  1  0  0  0  0
 13 12  2  0  0  0  0
 14 27  1  0  0  0  0
 15 18  1  0  0  0  0
 16  1  1  0  0  0  0
 17  7  1  0  0  0  0
 17 10  1  0  0  0  0
 19 16  1  0  0  0  0
 20  1  1  0  0  0  0
 20 29  1  0  0  0  0
 21 22  1  0  0  0  0
 22 14  2  0  0  0  0
 22 13  1  0  0  0  0
 23 28  1  0  0  0  0
 23 14  1  0  0  0  0
 27  5  1  0  0  0  0
 27  2  1  0  0  0  0
 28  6  1  0  0  0  0
 30 32  2  0  0  0  0
 30 29  1  0  0  0  0
 31 30  1  0  0  0  0
M  END
>  <MODEL>
4

>  <REMARK>
 VINA RESULT:      -6.8      1.976      7.959
  Name = 
  2 active torsions:
  status: ('A' for Active; 'I' for Inactive)
    1  A    between atoms: N_20  and  C_29
    2  A    between atoms: C_29  and  C_30
                            x       y       z     vdW  Elec       q    Type
                         _______ _______ _______ _____ _____    ______ ____

>  <TORSDO>
F 2

$$$$
=
 OpenBabel11122413033D

 32 37  0  0  1  0  0  0  0  0999 V2000
  159.8090  202.3910  144.7510 C   0  0  0  0  0  2  0  0  0  0  0  0
  161.2270  205.3940  148.4020 C   0  0  2  0  0  3  0  0  0  0  0  0
  160.5790  203.4180  152.8830 C   0  0  0  0  0  3  0  0  0  0  0  0
  160.9490  204.6190  153.4810 C   0  0  0  0  0  3  0  0  0  0  0  0
  161.6480  207.8560  148.3180 C   0  0  0  0  0  0  0  0  0  0  0  0
  161.8110  209.1250  149.0190 C   0  0  0  0  0  0  0  0  0  0  0  0
  161.8960  203.7100  146.6550 C   0  0  1  0  0  3  0  0  0  0  0  0
  160.6400  202.9510  148.6870 C   0  0  0  0  0  3  0  0  0  0  0  0
  162.1370  210.5250  150.8520 C   0  0  2  0  0  3  0  0  0  0  0  0
  160.5820  201.4190  146.7980 C   0  0  0  0  0  2  0  0  0  0  0  0
  160.5620  203.3110  151.4940 C   0  0  0  0  0  3  0  0  0  0  0  0
  160.9150  204.2530  149.3320 C   0  0  0  0  0  0  0  0  0  0  0  0
  160.9040  204.4020  150.6720 C   0  0  0  0  0  0  0  0  0  0  0  0
  161.6300  206.7050  150.5400 C   0  0  0  0  0  0  0  0  0  0  0  0
  162.0050  211.3470  149.5610 C   0  0  0  0  0  2  0  0  0  0  0  0
  160.0950  203.8370  145.1810 C   0  0  0  0  0  2  0  0  0  0  0  0
  161.0550  202.6900  147.4430 C   0  0  0  0  0  0  0  0  0  0  0  0
  161.8380  210.3250  148.4750 C   0  0  0  0  0  3  0  0  0  0  0  0
  161.4800  204.0360  145.3350 O   0  0  0  0  0  0  0  0  0  0  0  0
  160.7630  201.4500  145.3480 N   0  0  0  0  0  0  0  0  0  0  0  0
  161.2980  205.7110  152.6870 C   0  0  0  0  0  3  0  0  0  0  0  0
  161.2800  205.6300  151.2810 C   0  0  0  0  0  0  0  0  0  0  0  0
  162.1470  207.9600  151.2290 C   0  0  0  0  0  2  0  0  0  0  0  0
  162.3270  204.9560  147.4420 C   0  0  0  0  0  2  0  0  0  0  0  0
  161.5460  207.8340  147.0600 O   0  0  0  0  0  0  0  0  0  0  0  0
  163.5390  210.7060  151.4110 C   0  0  0  0  0  1  0  0  0  0  0  0
  161.5740  206.6410  149.0910 N   0  0  0  0  0  0  0  0  0  0  0  0
  161.9390  209.1540  150.4180 N   0  0  0  0  0  0  0  0  0  0  0  0
  160.4200  200.1260  144.8560 C   0  0  0  0  0  2  0  0  0  0  0  0
  161.2430  199.0900  145.5480 C   0  0  0  0  0  0  0  0  0  0  0  0
  161.5080  197.7860  144.8800 C   0  0  0  0  0  1  0  0  0  0  0  0
  161.6870  199.3030  146.6640 O   0  0  0  0  0  0  0  0  0  0  0  0
  1 16  1  0  0  0  0
  1 20  1  0  0  0  0
  2 24  1  6  0  0  0
  2 27  1  0  0  0  0
  2 12  1  0  0  0  0
  3  4  1  0  0  0  0
  5  6  1  0  0  0  0
  5 27  1  0  0  0  0
  6 28  1  0  0  0  0
  7 24  1  1  0  0  0
  7 17  1  0  0  0  0
  8 12  1  0  0  0  0
  9 26  1  6  0  0  0
 10 17  1  0  0  0  0
 11  3  2  0  0  0  0
 12 13  2  0  0  0  0
 13 22  1  0  0  0  0
 13 11  1  0  0  0  0
 14 23  1  0  0  0  0
 14 22  2  0  0  0  0
 15  9  1  0  0  0  0
 16 19  1  0  0  0  0
 17  8  2  0  0  0  0
 18  6  2  0  0  0  0
 18 15  1  0  0  0  0
 19  7  1  0  0  0  0
 20 10  1  0  0  0  0
 21  4  2  0  0  0  0
 22 21  1  0  0  0  0
 25  5  2  0  0  0  0
 27 14  1  0  0  0  0
 28  9  1  0  0  0  0
 28 23  1  0  0  0  0
 29 20  1  0  0  0  0
 29 30  1  0  0  0  0
 30 32  2  0  0  0  0
 31 30  1  0  0  0  0
M  END
>  <MODEL>
5

>  <REMARK>
 VINA RESULT:      -5.9      2.865      4.964
  Name = 
  2 active torsions:
  status: ('A' for Active; 'I' for Inactive)
    1  A    between atoms: N_20  and  C_29
    2  A    between atoms: C_29  and  C_30
                            x       y       z     vdW  Elec       q    Type
                         _______ _______ _______ _____ _____    ______ ____

>  <TORSDO>
F 2

$$$$
=
 OpenBabel11122413033D

 32 37  0  0  1  0  0  0  0  0999 V2000
  159.3600  209.7460  156.0990 C   0  0  0  0  0  2  0  0  0  0  0  0
  161.1370  208.6250  151.6340 C   0  0  2  0  0  3  0  0  0  0  0  0
  161.8010  212.5960  148.7710 C   0  0  0  0  0  3  0  0  0  0  0  0
  162.1260  211.7810  147.6920 C   0  0  0  0  0  3  0  0  0  0  0  0
  161.1820  206.4040  150.4890 C   0  0  0  0  0  0  0  0  0  0  0  0
  161.3230  205.6290  149.2610 C   0  0  0  0  0  0  0  0  0  0  0  0
  161.6200  209.0550  154.0650 C   0  0  1  0  0  3  0  0  0  0  0  0
  160.9750  210.9660  152.5770 C   0  0  0  0  0  3  0  0  0  0  0  0
  161.8580  205.2470  147.0260 C   0  0  2  0  0  3  0  0  0  0  0  0
  160.7030  211.3690  154.9610 C   0  0  0  0  0  2  0  0  0  0  0  0
  161.4850  212.0250  150.0020 C   0  0  0  0  0  3  0  0  0  0  0  0
  161.2050  210.1100  151.3940 C   0  0  0  0  0  0  0  0  0  0  0  0
  161.4770  210.6280  150.1790 C   0  0  0  0  0  0  0  0  0  0  0  0
  161.8280  208.4470  149.1950 C   0  0  0  0  0  0  0  0  0  0  0  0
  161.3250  203.9640  147.6810 C   0  0  0  0  0  2  0  0  0  0  0  0
  159.5330  208.6630  155.0250 C   0  0  0  0  0  2  0  0  0  0  0  0
  161.1290  210.4920  153.8180 C   0  0  0  0  0  0  0  0  0  0  0  0
  161.0600  204.3470  149.1070 C   0  0  0  0  0  3  0  0  0  0  0  0
  160.8750  208.2440  154.9650 O   0  0  0  0  0  0  0  0  0  0  0  0
  160.5460  210.6050  156.1970 N   0  0  0  0  0  0  0  0  0  0  0  0
  162.1320  210.3950  147.8450 C   0  0  0  0  0  3  0  0  0  0  0  0
  161.8070  209.7940  149.0770 C   0  0  0  0  0  0  0  0  0  0  0  0
  162.3080  207.5950  148.0290 C   0  0  0  0  0  2  0  0  0  0  0  0
  162.0420  208.2780  152.8100 C   0  0  0  0  0  2  0  0  0  0  0  0
  160.8030  205.8440  151.5540 O   0  0  0  0  0  0  0  0  0  0  0  0
  163.3110  205.0350  146.6340 C   0  0  0  0  0  1  0  0  0  0  0  0
  161.4550  207.8190  150.4500 N   0  0  0  0  0  0  0  0  0  0  0  0
  161.7580  206.2450  148.0750 N   0  0  0  0  0  0  0  0  0  0  0  0
  160.2870  211.5690  157.2540 C   0  0  0  0  0  2  0  0  0  0  0  0
  159.6790  212.8090  156.6830 C   0  0  0  0  0  0  0  0  0  0  0  0
  158.2600  212.8000  156.2330 C   0  0  0  0  0  1  0  0  0  0  0  0
  160.3470  213.8240  156.5700 O   0  0  0  0  0  0  0  0  0  0  0  0
  1 20  1  0  0  0  0
  2 24  1  1  0  0  0
  3 11  2  0  0  0  0
  4 21  2  0  0  0  0
  4  3  1  0  0  0  0
  5 25  2  0  0  0  0
  6  5  1  0  0  0  0
  7 24  1  6  0  0  0
  7 19  1  0  0  0  0
  8 17  2  0  0  0  0
  9 26  1  1  0  0  0
  9 15  1  0  0  0  0
  9 28  1  0  0  0  0
 10 20  1  0  0  0  0
 11 13  1  0  0  0  0
 12  2  1  0  0  0  0
 12  8  1  0  0  0  0
 13 12  2  0  0  0  0
 14 27  1  0  0  0  0
 15 18  1  0  0  0  0
 16  1  1  0  0  0  0
 17  7  1  0  0  0  0
 17 10  1  0  0  0  0
 18  6  2  0  0  0  0
 19 16  1  0  0  0  0
 20 29  1  0  0  0  0
 21 22  1  0  0  0  0
 22 14  2  0  0  0  0
 22 13  1  0  0  0  0
 23 28  1  0  0  0  0
 23 14  1  0  0  0  0
 27  5  1  0  0  0  0
 27  2  1  0  0  0  0
 28  6  1  0  0  0  0
 30 29  1  0  0  0  0
 31 30  1  0  0  0  0
 32 30  2  0  0  0  0
M  END
>  <MODEL>
6

>  <REMARK>
 VINA RESULT:      -5.8      2.417      8.283
  Name = 
  2 active torsions:
  status: ('A' for Active; 'I' for Inactive)
    1  A    between atoms: N_20  and  C_29
    2  A    between atoms: C_29  and  C_30
                            x       y       z     vdW  Elec       q    Type
                         _______ _______ _______ _____ _____    ______ ____

>  <TORSDO>
F 2

$$$$
