=
 OpenBabel11122412563D

 32 37  0  0  1  0  0  0  0  0999 V2000
  161.9280  205.1900  148.0210 C   0  0  0  0  0  2  0  0  0  0  0  0
  160.7190  208.2640  152.3850 C   0  0  2  0  0  3  0  0  0  0  0  0
  159.5270  207.3290  156.4560 C   0  0  0  0  0  2  0  0  0  0  0  0
  160.8260  207.2590  157.2610 C   0  0  0  0  0  2  0  0  0  0  0  0
  160.3910  210.7530  152.5850 C   0  0  0  0  0  0  0  0  0  0  0  0
  160.0250  211.8240  153.5130 C   0  0  0  0  0  0  0  0  0  0  0  0
  160.8210  207.0820  150.1750 C   0  0  2  0  0  3  0  0  0  0  0  0
  160.9180  205.7740  152.3490 C   0  0  0  0  0  2  0  0  0  0  0  0
  159.5370  212.7840  155.4460 N   0  0  0  0  0  0  0  0  0  0  0  0
  160.7440  204.5580  150.2060 C   0  0  0  0  0  2  0  0  0  0  0  0
  159.7260  206.9110  154.9900 C   0  0  0  0  0  2  0  0  0  0  0  0
  161.3810  207.0530  153.0360 C   0  0  2  0  0  3  0  0  0  0  0  0
  161.1920  207.0170  154.5360 C   0  0  1  0  0  3  0  0  0  0  0  0
  161.4250  209.5810  154.5330 C   0  0  2  0  0  3  0  0  0  0  0  0
  159.1300  213.7640  154.5240 N   0  0  0  0  0  0  0  0  0  0  0  0
  160.9100  206.1480  147.9540 O   0  0  0  0  0  0  0  0  0  0  0  0
  161.3280  205.7990  150.8750 C   0  0  1  0  0  3  0  0  0  0  0  0
  159.4380  213.1640  153.2110 C   0  0  0  0  0  3  0  0  0  0  0  0
  161.3670  207.2020  148.7550 C   0  0  0  0  0  2  0  0  0  0  0  0
  161.5770  204.0750  149.0110 C   0  0  1  0  0  3  0  0  0  0  0  0
  161.8950  208.1940  156.6720 C   0  0  0  0  0  2  0  0  0  0  0  0
  161.8950  208.2300  155.1310 C   0  0  1  0  0  3  0  0  0  0  0  0
  160.4410  210.3510  155.4410 C   0  0  0  0  0  2  0  0  0  0  0  0
  161.2400  208.3330  150.9500 C   0  0  0  0  0  2  0  0  0  0  0  0
  160.1870  210.8970  151.3500 O   0  0  0  0  0  0  0  0  0  0  0  0
  159.3630  212.9280  156.8800 C   0  0  0  0  0  1  0  0  0  0  0  0
  160.9410  209.5260  153.1240 N   0  0  0  0  0  0  0  0  0  0  0  0
  160.0780  211.6550  154.8030 C   0  0  0  0  0  0  0  0  0  0  0  0
  160.8410  202.9650  148.2780 C   0  0  0  0  0  2  0  0  0  0  0  0
  160.5200  201.8400  149.2040 C   0  0  0  0  0  0  0  0  0  0  0  0
  159.3250  201.4830  149.3700 O   0  0  0  0  0  0  0  0  0  0  0  0
  161.5420  201.1650  149.8580 O   0  0  0  0  0  1  0  0  0  0  0  0
  1 20  1  0  0  0  0
  2 24  1  6  0  0  0
  2 12  1  0  0  0  0
  2 27  1  0  0  0  0
  3  4  1  0  0  0  0
  5 27  1  0  0  0  0
  5  6  1  0  0  0  0
  6 28  2  0  0  0  0
  7 19  1  6  0  0  0
  7 17  1  0  0  0  0
  7 24  1  0  0  0  0
  9 26  1  0  0  0  0
 11  3  1  0  0  0  0
 12  8  1  6  0  0  0
 12 13  1  0  0  0  0
 13 11  1  6  0  0  0
 13 22  1  0  0  0  0
 14 22  1  0  0  0  0
 14 23  1  1  0  0  0
 15  9  1  0  0  0  0
 16  1  1  0  0  0  0
 16 19  1  0  0  0  0
 17 10  1  6  0  0  0
 17  8  1  0  0  0  0
 18  6  1  0  0  0  0
 18 15  2  0  0  0  0
 20 29  1  6  0  0  0
 20 10  1  0  0  0  0
 21  4  1  0  0  0  0
 22 21  1  1  0  0  0
 25  5  2  0  0  0  0
 27 14  1  0  0  0  0
 28 23  1  0  0  0  0
 28  9  1  0  0  0  0
 29 30  1  0  0  0  0
 30 31  2  0  0  0  0
 30 32  1  0  0  0  0
M  END
>  <MODEL>
1

>  <REMARK>
 VINA RESULT:      -8.6      0.000      0.000
  Name = 
  2 active torsions:
  status: ('A' for Active; 'I' for Inactive)
    1  A    between atoms: C_20  and  C_29
    2  A    between atoms: C_29  and  C_30
                            x       y       z     vdW  Elec       q    Type
                         _______ _______ _______ _____ _____    ______ ____

>  <TORSDO>
F 2

$$$$
=
 OpenBabel11122412563D

 32 37  0  0  1  0  0  0  0  0999 V2000
  160.3360  209.9970  155.2380 C   0  0  0  0  0  2  0  0  0  0  0  0
  161.2030  206.3710  151.2320 C   0  0  2  0  0  3  0  0  0  0  0  0
  162.4810  202.2190  151.1890 C   0  0  0  0  0  2  0  0  0  0  0  0
  161.1950  201.3910  151.2290 C   0  0  0  0  0  2  0  0  0  0  0  0
  161.2650  206.6860  148.7340 C   0  0  0  0  0  0  0  0  0  0  0  0
  161.5140  206.0010  147.4640 C   0  0  0  0  0  0  0  0  0  0  0  0
  161.2320  208.2930  152.8430 C   0  0  2  0  0  3  0  0  0  0  0  0
  161.2700  205.8980  153.6840 C   0  0  0  0  0  2  0  0  0  0  0  0
  161.8940  204.3130  146.0850 N   0  0  0  0  0  0  0  0  0  0  0  0
  161.5760  207.7540  155.2850 C   0  0  0  0  0  2  0  0  0  0  0  0
  162.3300  203.5660  151.9150 C   0  0  0  0  0  2  0  0  0  0  0  0
  160.6730  205.4750  152.3480 C   0  0  2  0  0  3  0  0  0  0  0  0
  160.8620  204.0030  152.0570 C   0  0  1  0  0  3  0  0  0  0  0  0
  160.3580  204.5200  149.5860 C   0  0  2  0  0  3  0  0  0  0  0  0
  162.1960  205.4220  145.2770 N   0  0  0  0  0  0  0  0  0  0  0  0
  161.2460  210.2770  154.2130 O   0  0  0  0  0  0  0  0  0  0  0  0
  160.8620  207.3380  154.0030 C   0  0  1  0  0  3  0  0  0  0  0  0
  161.9560  206.5790  146.1600 C   0  0  0  0  0  3  0  0  0  0  0  0
  160.6790  209.6970  153.0720 C   0  0  0  0  0  2  0  0  0  0  0  0
  160.8020  208.8090  156.0850 C   0  0  1  0  0  3  0  0  0  0  0  0
  160.0340  202.1360  150.5500 C   0  0  0  0  0  2  0  0  0  0  0  0
  160.0330  203.6520  150.8290 C   0  0  1  0  0  3  0  0  0  0  0  0
  161.2530  203.8060  148.5490 C   0  0  0  0  0  2  0  0  0  0  0  0
  160.6810  207.7800  151.5110 C   0  0  0  0  0  2  0  0  0  0  0  0
  161.4560  207.9280  148.8230 O   0  0  0  0  0  0  0  0  0  0  0  0
  162.0490  202.9410  145.6360 C   0  0  0  0  0  1  0  0  0  0  0  0
  160.8480  205.8990  149.8760 N   0  0  0  0  0  0  0  0  0  0  0  0
  161.4770  204.7030  147.3710 C   0  0  0  0  0  0  0  0  0  0  0  0
  161.6520  209.3160  157.2390 C   0  0  0  0  0  2  0  0  0  0  0  0
  162.2560  210.6410  156.9110 C   0  0  0  0  0  0  0  0  0  0  0  0
  161.6750  211.7010  157.2610 O   0  0  0  0  0  1  0  0  0  0  0  0
  163.4740  210.7040  156.2490 O   0  0  0  0  0  0  0  0  0  0  0  0
  1 20  1  0  0  0  0
  2 24  1  1  0  0  0
  2 12  1  0  0  0  0
  3  4  1  0  0  0  0
  3 11  1  0  0  0  0
  5 25  2  0  0  0  0
  5 27  1  0  0  0  0
  6  5  1  0  0  0  0
  7 24  1  6  0  0  0
  7 19  1  0  0  0  0
  7 17  1  0  0  0  0
  9 28  1  0  0  0  0
 10 20  1  0  0  0  0
 12  8  1  1  0  0  0
 13 11  1  6  0  0  0
 13 12  1  0  0  0  0
 14 23  1  1  0  0  0
 14 27  1  0  0  0  0
 14 22  1  0  0  0  0
 15  9  1  0  0  0  0
 15 18  2  0  0  0  0
 16  1  1  0  0  0  0
 17  8  1  6  0  0  0
 17 10  1  0  0  0  0
 18  6  1  0  0  0  0
 19 16  1  0  0  0  0
 20 29  1  1  0  0  0
 21  4  1  0  0  0  0
 22 21  1  6  0  0  0
 22 13  1  0  0  0  0
 26  9  1  0  0  0  0
 27  2  1  0  0  0  0
 28  6  2  0  0  0  0
 28 23  1  0  0  0  0
 30 29  1  0  0  0  0
 30 31  1  0  0  0  0
 32 30  2  0  0  0  0
M  END
>  <MODEL>
2

>  <REMARK>
 VINA RESULT:      -6.4      3.344      8.335
  Name = 
  2 active torsions:
  status: ('A' for Active; 'I' for Inactive)
    1  A    between atoms: C_20  and  C_29
    2  A    between atoms: C_29  and  C_30
                            x       y       z     vdW  Elec       q    Type
                         _______ _______ _______ _____ _____    ______ ____

>  <TORSDO>
F 2

$$$$
=
 OpenBabel11122412563D

 32 37  0  0  1  0  0  0  0  0999 V2000
  161.5180  209.7880  154.3940 C   0  0  0  0  0  2  0  0  0  0  0  0
  161.1600  206.0110  150.4500 C   0  0  2  0  0  3  0  0  0  0  0  0
  160.3550  206.2160  146.1860 C   0  0  0  0  0  2  0  0  0  0  0  0
  161.7240  206.3320  145.5130 C   0  0  0  0  0  2  0  0  0  0  0  0
  161.1250  203.4970  150.5990 C   0  0  0  0  0  0  0  0  0  0  0  0
  160.9860  202.2710  149.8130 C   0  0  0  0  0  0  0  0  0  0  0  0
  160.8770  207.4930  152.4540 C   0  0  2  0  0  3  0  0  0  0  0  0
  161.0860  208.4870  150.1270 C   0  0  0  0  0  2  0  0  0  0  0  0
  160.8310  200.9980  148.0090 N   0  0  0  0  0  0  0  0  0  0  0  0
  160.5360  209.9600  152.0330 C   0  0  0  0  0  2  0  0  0  0  0  0
  160.3370  206.8550  147.5840 C   0  0  0  0  0  2  0  0  0  0  0  0
  161.7590  207.1920  149.6920 C   0  0  2  0  0  3  0  0  0  0  0  0
  161.7430  206.9950  148.1920 C   0  0  1  0  0  3  0  0  0  0  0  0
  162.2470  204.5040  148.6070 C   0  0  2  0  0  3  0  0  0  0  0  0
  160.4270  200.1140  149.0240 N   0  0  0  0  0  0  0  0  0  0  0  0
  160.6080  208.7310  154.5050 O   0  0  0  0  0  0  0  0  0  0  0  0
  161.3230  208.7190  151.6210 C   0  0  1  0  0  3  0  0  0  0  0  0
  160.5140  200.9240  150.2550 C   0  0  0  0  0  3  0  0  0  0  0  0
  161.2650  207.6410  153.9230 C   0  0  0  0  0  2  0  0  0  0  0  0
  161.1670  210.7030  153.2170 C   0  0  1  0  0  3  0  0  0  0  0  0
  162.8110  205.6270  146.3400 C   0  0  0  0  0  2  0  0  0  0  0  0
  162.6360  205.8070  147.8610 C   0  0  1  0  0  3  0  0  0  0  0  0
  161.4630  203.5000  147.7340 C   0  0  0  0  0  2  0  0  0  0  0  0
  161.5150  206.2080  151.9230 C   0  0  0  0  0  2  0  0  0  0  0  0
  160.7950  203.5030  151.8150 O   0  0  0  0  0  0  0  0  0  0  0  0
  160.8410  200.6360  146.6030 C   0  0  0  0  0  1  0  0  0  0  0  0
  161.6000  204.6960  149.9370 N   0  0  0  0  0  0  0  0  0  0  0  0
  161.1690  202.2630  148.5240 C   0  0  0  0  0  0  0  0  0  0  0  0
  160.2370  211.8060  153.6960 C   0  0  0  0  0  2  0  0  0  0  0  0
  159.4040  212.3230  152.5710 C   0  0  0  0  0  0  0  0  0  0  0  0
  158.1660  212.0990  152.5500 O   0  0  0  0  0  1  0  0  0  0  0  0
  159.9890  213.0800  151.5650 O   0  0  0  0  0  0  0  0  0  0  0  0
  1 16  1  0  0  0  0
  2 24  1  1  0  0  0
  3 11  1  0  0  0  0
  4  3  1  0  0  0  0
  4 21  1  0  0  0  0
  5 25  2  0  0  0  0
  6 18  1  0  0  0  0
  6  5  1  0  0  0  0
  7 24  1  6  0  0  0
  7 19  1  0  0  0  0
  9 28  1  0  0  0  0
  9 15  1  0  0  0  0
 10 20  1  0  0  0  0
 12  8  1  6  0  0  0
 12  2  1  0  0  0  0
 13 11  1  1  0  0  0
 13 12  1  0  0  0  0
 14 23  1  6  0  0  0
 14 27  1  0  0  0  0
 15 18  2  0  0  0  0
 17  8  1  6  0  0  0
 17 10  1  0  0  0  0
 17  7  1  0  0  0  0
 19 16  1  0  0  0  0
 20 29  1  1  0  0  0
 20  1  1  0  0  0  0
 22 21  1  6  0  0  0
 22 13  1  0  0  0  0
 22 14  1  0  0  0  0
 23 28  1  0  0  0  0
 26  9  1  0  0  0  0
 27  2  1  0  0  0  0
 27  5  1  0  0  0  0
 28  6  2  0  0  0  0
 30 29  1  0  0  0  0
 31 30  1  0  0  0  0
 32 30  2  0  0  0  0
M  END
>  <MODEL>
3

>  <REMARK>
 VINA RESULT:      -6.4      3.333      9.162
  Name = 
  2 active torsions:
  status: ('A' for Active; 'I' for Inactive)
    1  A    between atoms: C_20  and  C_29
    2  A    between atoms: C_29  and  C_30
                            x       y       z     vdW  Elec       q    Type
                         _______ _______ _______ _____ _____    ______ ____

>  <TORSDO>
F 2

$$$$
=
 OpenBabel11122412563D

 32 37  0  0  1  0  0  0  0  0999 V2000
  161.4400  208.9260  155.5330 C   0  0  0  0  0  2  0  0  0  0  0  0
  161.1100  205.7920  151.0590 C   0  0  2  0  0  3  0  0  0  0  0  0
  160.2090  206.6260  146.8920 C   0  0  0  0  0  2  0  0  0  0  0  0
  161.5590  206.8880  146.2220 C   0  0  0  0  0  2  0  0  0  0  0  0
  161.1530  203.2860  150.8180 C   0  0  0  0  0  0  0  0  0  0  0  0
  161.0330  202.1910  149.8530 C   0  0  0  0  0  0  0  0  0  0  0  0
  160.8260  206.9380  153.2710 C   0  0  2  0  0  3  0  0  0  0  0  0
  160.9560  208.2850  151.1240 C   0  0  0  0  0  2  0  0  0  0  0  0
  160.8780  201.2070  147.8770 N   0  0  0  0  0  0  0  0  0  0  0  0
  160.4030  209.4270  153.2430 C   0  0  0  0  0  2  0  0  0  0  0  0
  160.2010  207.0410  148.3720 C   0  0  0  0  0  2  0  0  0  0  0  0
  161.6580  207.0950  150.4820 C   0  0  2  0  0  3  0  0  0  0  0  0
  161.6150  207.1310  148.9710 C   0  0  1  0  0  3  0  0  0  0  0  0
  162.2020  204.6240  148.9870 C   0  0  2  0  0  3  0  0  0  0  0  0
  160.5220  200.1650  148.7500 N   0  0  0  0  0  0  0  0  0  0  0  0
  160.5640  207.8360  155.4930 O   0  0  0  0  0  0  0  0  0  0  0  0
  161.2170  208.2910  152.6310 C   0  0  1  0  0  3  0  0  0  0  0  0
  160.6120  200.7780  150.0890 C   0  0  0  0  0  3  0  0  0  0  0  0
  161.2400  206.8700  154.7390 C   0  0  0  0  0  2  0  0  0  0  0  0
  161.0370  209.9990  154.5170 C   0  0  1  0  0  3  0  0  0  0  0  0
  162.6840  206.1000  146.9120 C   0  0  0  0  0  2  0  0  0  0  0  0
  162.5360  206.0380  148.4450 C   0  0  1  0  0  3  0  0  0  0  0  0
  161.4290  203.7410  147.9820 C   0  0  0  0  0  2  0  0  0  0  0  0
  161.4900  205.7710  152.5380 C   0  0  0  0  0  2  0  0  0  0  0  0
  160.8490  203.0930  152.0250 O   0  0  0  0  0  0  0  0  0  0  0  0
  160.8690  201.0660  146.4320 C   0  0  0  0  0  1  0  0  0  0  0  0
  161.5770  204.5860  150.3410 N   0  0  0  0  0  0  0  0  0  0  0  0
  161.1890  202.3880  148.5760 C   0  0  0  0  0  0  0  0  0  0  0  0
  160.0850  210.9840  155.1760 C   0  0  0  0  0  2  0  0  0  0  0  0
  159.3490  211.7790  154.1500 C   0  0  0  0  0  0  0  0  0  0  0  0
  159.9780  212.5590  153.3890 O   0  0  0  0  0  0  0  0  0  0  0  0
  157.9760  211.6330  154.0110 O   0  0  0  0  0  1  0  0  0  0  0  0
  2 24  1  1  0  0  0
  3 11  1  0  0  0  0
  4  3  1  0  0  0  0
  4 21  1  0  0  0  0
  5 25  2  0  0  0  0
  6 18  1  0  0  0  0
  6  5  1  0  0  0  0
  7 24  1  6  0  0  0
  7 19  1  0  0  0  0
  9 28  1  0  0  0  0
  9 15  1  0  0  0  0
 10 20  1  0  0  0  0
 12  2  1  0  0  0  0
 12  8  1  1  0  0  0
 13 11  1  1  0  0  0
 13 12  1  0  0  0  0
 14 23  1  6  0  0  0
 14 27  1  0  0  0  0
 15 18  2  0  0  0  0
 16  1  1  0  0  0  0
 17  8  1  6  0  0  0
 17 10  1  0  0  0  0
 17  7  1  0  0  0  0
 19 16  1  0  0  0  0
 20 29  1  1  0  0  0
 20  1  1  0  0  0  0
 22 21  1  6  0  0  0
 22 13  1  0  0  0  0
 22 14  1  0  0  0  0
 23 28  1  0  0  0  0
 26  9  1  0  0  0  0
 27  5  1  0  0  0  0
 27  2  1  0  0  0  0
 28  6  2  0  0  0  0
 30 29  1  0  0  0  0
 31 30  2  0  0  0  0
 32 30  1  0  0  0  0
M  END
>  <MODEL>
4

>  <REMARK>
 VINA RESULT:      -5.7      3.217      9.092
  Name = 
  2 active torsions:
  status: ('A' for Active; 'I' for Inactive)
    1  A    between atoms: C_20  and  C_29
    2  A    between atoms: C_29  and  C_30
                            x       y       z     vdW  Elec       q    Type
                         _______ _______ _______ _____ _____    ______ ____

>  <TORSDO>
F 2

$$$$
