=
 OpenBabel11122412403D

 30 35  0  0  1  0  0  0  0  0999 V2000
  161.5050  206.1780  150.0450 C   0  0  0  0  0  0  0  0  0  0  0  0
  161.3450  203.6470  149.8810 C   0  0  0  0  0  0  0  0  0  0  0  0
  160.8470  205.9500  154.1460 N   0  0  0  0  0  2  0  0  0  0  0  0
  161.3570  207.3790  150.9660 C   0  0  0  0  0  0  0  0  0  0  0  0
  160.7150  206.3660  148.8910 O   0  0  0  0  0  0  0  0  0  0  0  0
  161.5800  209.8110  148.3040 O   0  0  0  0  0  0  0  0  0  0  0  0
  160.5300  210.2840  151.9130 C   0  0  1  0  0  3  0  0  0  0  0  0
  161.4560  208.7160  148.9140 C   0  0  0  0  0  0  0  0  0  0  0  0
  160.2710  209.4840  153.1920 C   0  0  2  0  0  3  0  0  0  0  0  0
  160.8270  207.3460  154.4430 C   0  0  0  0  0  0  0  0  0  0  0  0
  161.2420  207.4420  148.1260 C   0  0  1  0  0  3  0  0  0  0  0  0
  161.5230  208.6660  150.3490 N   0  0  0  0  0  0  0  0  0  0  0  0
  161.1790  202.3880  150.4640 C   0  0  0  0  0  3  0  0  0  0  0  0
  160.6380  210.4160  154.3300 C   0  0  0  0  0  2  0  0  0  0  0  0
  160.6160  211.7470  152.3200 C   0  0  0  0  0  2  0  0  0  0  0  0
  161.5960  203.7290  148.5500 F   0  0  0  0  0  0  0  0  0  0  0  0
  161.0000  205.8950  152.8670 C   0  0  0  0  0  0  0  0  0  0  0  0
  160.9480  202.2700  151.8360 C   0  0  0  0  0  3  0  0  0  0  0  0
  161.2650  204.8100  150.6700 C   0  0  0  0  0  0  0  0  0  0  0  0
  161.1010  207.2080  152.2740 C   0  0  0  0  0  0  0  0  0  0  0  0
  160.6500  207.7810  155.6120 O   0  0  0  0  0  0  0  0  0  0  0  0
  160.9790  208.2000  153.2990 N   0  0  0  0  0  0  0  0  0  0  0  0
  160.3400  211.8020  153.8090 C   0  0  0  0  0  2  0  0  0  0  0  0
  163.0660  209.8380  151.8900 C   0  0  0  0  0  1  0  0  0  0  0  0
  160.8870  203.4130  152.6350 C   0  0  0  0  0  3  0  0  0  0  0  0
  161.0520  204.6780  152.0600 C   0  0  0  0  0  0  0  0  0  0  0  0
  161.7620  209.8950  151.0990 C   0  0  2  0  0  3  0  0  0  0  0  0
  162.4270  207.0370  147.2410 C   0  0  0  0  0  2  0  0  0  0  0  0
  162.9570  205.0370  145.9350 C   0  0  0  0  0  2  0  0  0  0  0  0
  162.0730  205.9790  146.2460 C   0  0  0  0  0  3  0  0  0  0  0  0
  1 19  2  0  0  0  0
  1  4  1  0  0  0  0
  2 13  2  0  0  0  0
  2 19  1  0  0  0  0
  3 10  1  0  0  0  0
  4 20  2  0  0  0  0
  5  1  1  0  0  0  0
  6  8  2  0  0  0  0
  7 15  1  1  0  0  0
  7  9  1  0  0  0  0
  8 12  1  0  0  0  0
  9 22  1  0  0  0  0
  9 14  1  1  0  0  0
 10 21  2  0  0  0  0
 11 28  1  1  0  0  0
 11  5  1  0  0  0  0
 11  8  1  0  0  0  0
 12  4  1  0  0  0  0
 12 27  1  0  0  0  0
 13 18  1  0  0  0  0
 15 23  1  0  0  0  0
 16  2  1  0  0  0  0
 17  3  1  0  0  0  0
 18 25  2  0  0  0  0
 19 26  1  0  0  0  0
 20 17  1  0  0  0  0
 20 22  1  0  0  0  0
 22 10  1  0  0  0  0
 23 14  1  0  0  0  0
 26 25  1  0  0  0  0
 26 17  2  0  0  0  0
 27 24  1  1  0  0  0
 27  7  1  0  0  0  0
 29 30  2  0  0  0  0
 30 28  1  0  0  0  0
M  END
>  <MODEL>
1

>  <REMARK>
 VINA RESULT:      -8.4      0.000      0.000
  Name = 
  2 active torsions:
  status: ('A' for Active; 'I' for Inactive)
    1  A    between atoms: C_11  and  C_28
    2  A    between atoms: C_28  and  C_30
                            x       y       z     vdW  Elec       q    Type
                         _______ _______ _______ _____ _____    ______ ____

>  <TORSDO>
F 2

$$$$
=
 OpenBabel11122412403D

 30 35  0  0  1  0  0  0  0  0999 V2000
  161.2880  208.6030  151.5260 C   0  0  0  0  0  0  0  0  0  0  0  0
  161.1030  209.0760  154.0160 C   0  0  0  0  0  0  0  0  0  0  0  0
  160.7540  204.5450  152.2610 N   0  0  0  0  0  2  0  0  0  0  0  0
  161.3580  207.5150  150.4660 C   0  0  0  0  0  0  0  0  0  0  0  0
  162.3830  209.4810  151.3770 O   0  0  0  0  0  0  0  0  0  0  0  0
  162.2440  209.7770  147.7910 O   0  0  0  0  0  0  0  0  0  0  0  0
  162.3220  205.9910  147.8650 C   0  0  1  0  0  3  0  0  0  0  0  0
  162.0290  209.3160  148.9440 C   0  0  0  0  0  0  0  0  0  0  0  0
  162.0960  204.8130  148.8180 C   0  0  2  0  0  3  0  0  0  0  0  0
  160.9020  204.0590  150.9270 C   0  0  0  0  0  0  0  0  0  0  0  0
  162.2560  210.1960  150.1550 C   0  0  1  0  0  3  0  0  0  0  0  0
  161.5640  207.9670  149.1180 N   0  0  0  0  0  0  0  0  0  0  0  0
  160.9100  208.6540  155.3340 C   0  0  0  0  0  3  0  0  0  0  0  0
  161.5770  203.6860  147.9480 C   0  0  0  0  0  2  0  0  0  0  0  0
  162.3510  205.4160  146.4570 C   0  0  0  0  0  2  0  0  0  0  0  0
  161.2430  210.4020  153.7630 F   0  0  0  0  0  0  0  0  0  0  0  0
  160.9510  205.8150  152.1650 C   0  0  0  0  0  0  0  0  0  0  0  0
  160.7360  207.2990  155.6230 C   0  0  0  0  0  3  0  0  0  0  0  0
  161.1380  208.1370  152.9690 C   0  0  0  0  0  0  0  0  0  0  0  0
  161.2170  206.2230  150.8050 C   0  0  0  0  0  0  0  0  0  0  0  0
  160.8150  202.8330  150.6460 O   0  0  0  0  0  0  0  0  0  0  0  0
  161.2010  205.0720  149.9540 N   0  0  0  0  0  0  0  0  0  0  0  0
  162.2120  203.9140  146.5960 C   0  0  0  0  0  2  0  0  0  0  0  0
  159.8530  206.7190  147.8350 C   0  0  0  0  0  1  0  0  0  0  0  0
  160.7470  206.3580  154.5920 C   0  0  0  0  0  3  0  0  0  0  0  0
  160.9390  206.7720  153.2690 C   0  0  0  0  0  0  0  0  0  0  0  0
  161.3170  207.1370  147.9430 C   0  0  2  0  0  3  0  0  0  0  0  0
  161.3120  211.3990  150.2500 C   0  0  0  0  0  2  0  0  0  0  0  0
  160.5920  213.2840  148.8640 C   0  0  0  0  0  2  0  0  0  0  0  0
  161.5400  212.4030  149.1650 C   0  0  0  0  0  3  0  0  0  0  0  0
  1 19  1  0  0  0  0
  2 13  1  0  0  0  0
  4 20  1  0  0  0  0
  4  1  2  0  0  0  0
  5  1  1  0  0  0  0
  6  8  2  0  0  0  0
  7 15  1  6  0  0  0
  7 27  1  0  0  0  0
  7  9  1  0  0  0  0
  8 12  1  0  0  0  0
  8 11  1  0  0  0  0
  9 14  1  6  0  0  0
  9 22  1  0  0  0  0
 10  3  1  0  0  0  0
 11 28  1  1  0  0  0
 11  5  1  0  0  0  0
 12  4  1  0  0  0  0
 13 18  2  0  0  0  0
 15 23  1  0  0  0  0
 16  2  1  0  0  0  0
 17  3  1  0  0  0  0
 17 26  1  0  0  0  0
 19 26  1  0  0  0  0
 19  2  2  0  0  0  0
 20 17  2  0  0  0  0
 21 10  2  0  0  0  0
 22 20  1  0  0  0  0
 22 10  1  0  0  0  0
 23 14  1  0  0  0  0
 25 18  1  0  0  0  0
 26 25  2  0  0  0  0
 27 24  1  1  0  0  0
 27 12  1  0  0  0  0
 29 30  2  0  0  0  0
 30 28  1  0  0  0  0
M  END
>  <MODEL>
2

>  <REMARK>
 VINA RESULT:      -6.9      2.449      5.721
  Name = 
  2 active torsions:
  status: ('A' for Active; 'I' for Inactive)
    1  A    between atoms: C_11  and  C_28
    2  A    between atoms: C_28  and  C_30
                            x       y       z     vdW  Elec       q    Type
                         _______ _______ _______ _____ _____    ______ ____

>  <TORSDO>
F 2

$$$$
=
 OpenBabel11122412403D

 30 35  0  0  1  0  0  0  0  0999 V2000
  161.4240  209.2490  151.5470 C   0  0  0  0  0  0  0  0  0  0  0  0
  161.4610  211.5840  150.5440 C   0  0  0  0  0  0  0  0  0  0  0  0
  161.9540  207.6180  147.7580 N   0  0  0  0  0  2  0  0  0  0  0  0
  161.4260  207.7600  151.2380 C   0  0  0  0  0  0  0  0  0  0  0  0
  160.3310  209.5580  152.3850 O   0  0  0  0  0  0  0  0  0  0  0  0
  160.6740  206.7630  154.6290 O   0  0  0  0  0  0  0  0  0  0  0  0
  160.6280  204.7050  151.4490 C   0  0  1  0  0  3  0  0  0  0  0  0
  160.8270  207.4710  153.5970 C   0  0  0  0  0  0  0  0  0  0  0  0
  160.8100  204.8470  149.9350 C   0  0  2  0  0  3  0  0  0  0  0  0
  161.8880  206.2350  148.1030 C   0  0  0  0  0  0  0  0  0  0  0  0
  160.5220  208.9520  153.6560 C   0  0  1  0  0  3  0  0  0  0  0  0
  161.2940  206.8860  152.3710 N   0  0  0  0  0  0  0  0  0  0  0  0
  161.5810  212.4490  149.4530 C   0  0  0  0  0  3  0  0  0  0  0  0
  161.3890  203.5250  149.4750 C   0  0  0  0  0  2  0  0  0  0  0  0
  160.6860  203.2170  151.7600 C   0  0  0  0  0  2  0  0  0  0  0  0
  161.3230  212.1080  151.7890 F   0  0  0  0  0  0  0  0  0  0  0  0
  161.7510  208.2380  148.8690 C   0  0  0  0  0  0  0  0  0  0  0  0
  161.7520  211.9400  148.1640 C   0  0  0  0  0  3  0  0  0  0  0  0
  161.4950  210.1900  150.3510 C   0  0  0  0  0  0  0  0  0  0  0  0
  161.5600  207.3260  149.9740 C   0  0  0  0  0  0  0  0  0  0  0  0
  162.0020  205.3210  147.2420 O   0  0  0  0  0  0  0  0  0  0  0  0
  161.6360  205.9800  149.4940 N   0  0  0  0  0  0  0  0  0  0  0  0
  160.8310  202.5000  150.4340 C   0  0  0  0  0  2  0  0  0  0  0  0
  163.0870  205.2180  152.0110 C   0  0  0  0  0  1  0  0  0  0  0  0
  161.8090  210.5610  147.9600 C   0  0  0  0  0  3  0  0  0  0  0  0
  161.6890  209.6870  149.0460 C   0  0  0  0  0  0  0  0  0  0  0  0
  161.6160  205.4630  152.3320 C   0  0  2  0  0  3  0  0  0  0  0  0
  161.4470  209.7540  154.5790 C   0  0  0  0  0  2  0  0  0  0  0  0
  159.6470  211.1240  155.5120 C   0  0  0  0  0  2  0  0  0  0  0  0
  160.8650  211.0700  154.9840 C   0  0  0  0  0  3  0  0  0  0  0  0
  1  5  1  0  0  0  0
  2 16  1  0  0  0  0
  3 10  1  0  0  0  0
  3 17  1  0  0  0  0
  4  1  1  0  0  0  0
  4 12  1  0  0  0  0
  5 11  1  0  0  0  0
  7 15  1  6  0  0  0
  7 27  1  0  0  0  0
  8 11  1  0  0  0  0
  8  6  2  0  0  0  0
  9 14  1  1  0  0  0
  9  7  1  0  0  0  0
 10 22  1  0  0  0  0
 11 28  1  6  0  0  0
 12  8  1  0  0  0  0
 13  2  2  0  0  0  0
 14 23  1  0  0  0  0
 17 26  2  0  0  0  0
 17 20  1  0  0  0  0
 18 13  1  0  0  0  0
 19  2  1  0  0  0  0
 19  1  2  0  0  0  0
 20  4  2  0  0  0  0
 21 10  2  0  0  0  0
 22  9  1  0  0  0  0
 22 20  1  0  0  0  0
 23 15  1  0  0  0  0
 25 18  2  0  0  0  0
 25 26  1  0  0  0  0
 26 19  1  0  0  0  0
 27 24  1  6  0  0  0
 27 12  1  0  0  0  0
 28 30  1  0  0  0  0
 30 29  2  0  0  0  0
M  END
>  <MODEL>
3

>  <REMARK>
 VINA RESULT:      -6.5      2.368      7.091
  Name = 
  2 active torsions:
  status: ('A' for Active; 'I' for Inactive)
    1  A    between atoms: C_11  and  C_28
    2  A    between atoms: C_28  and  C_30
                            x       y       z     vdW  Elec       q    Type
                         _______ _______ _______ _____ _____    ______ ____

>  <TORSDO>
F 2

$$$$
