=
 OpenBabel11122414083D

 28 33  0  0  1  0  0  0  0  0999 V2000
  159.1120  211.9370  152.5560 C   0  0  0  0  0  0  0  0  0  0  0  0
  156.3670  213.1930  149.8090 C   0  0  0  0  0  2  0  0  0  0  0  0
  163.2700  211.8880  147.7690 O   0  0  0  0  0  0  0  0  0  0  0  0
  158.6310  214.4360  153.7340 C   0  0  0  0  0  3  0  0  0  0  0  0
  162.3740  214.0950  148.2050 C   0  0  2  0  0  3  0  0  0  0  0  0
  159.4340  210.5910  151.9950 C   0  0  0  0  0  2  0  0  0  0  0  0
  156.3500  214.4530  148.9490 C   0  0  0  0  0  2  0  0  0  0  0  0
  157.5240  213.5070  148.8910 C   0  0  0  0  0  0  0  0  0  0  0  0
  158.6460  212.7440  146.9210 C   0  0  0  0  0  0  0  0  0  0  0  0
  158.8230  214.0560  149.4680 C   0  0  2  0  0  3  0  0  0  0  0  0
  163.0600  210.3070  151.5660 O   0  0  0  0  0  0  0  0  0  0  0  0
  161.0520  213.3290  150.1330 C   0  0  2  0  0  3  0  0  0  0  0  0
  159.7810  213.4710  147.3010 O   0  0  0  0  0  0  0  0  0  0  0  0
  157.5800  212.7400  147.6560 N   0  0  0  0  0  0  0  0  0  0  0  0
  161.8510  210.4540  151.2470 C   0  0  0  0  0  0  0  0  0  0  0  0
  159.1890  213.1070  151.7720 C   0  0  0  0  0  0  0  0  0  0  0  0
  162.5290  212.6450  148.4510 C   0  0  0  0  0  0  0  0  0  0  0  0
  158.6810  211.9340  145.6760 C   0  0  0  0  0  1  0  0  0  0  0  0
  161.5020  210.7900  149.8330 C   0  0  0  0  0  2  0  0  0  0  0  0
  158.9590  214.3540  152.3790 C   0  0  0  0  0  3  0  0  0  0  0  0
  158.7880  212.0300  153.9150 C   0  0  0  0  0  3  0  0  0  0  0  0
  158.5410  213.2740  154.5010 C   0  0  0  0  0  3  0  0  0  0  0  0
  160.8360  210.2810  152.2370 N   0  0  0  0  0  2  0  0  0  0  0  0
  161.1520  214.4460  149.0810 C   0  0  2  0  0  3  0  0  0  0  0  0
  161.7690  212.1970  149.5560 N   0  0  0  0  0  0  0  0  0  0  0  0
  159.7940  214.4420  148.3610 C   0  0  2  0  0  3  0  0  0  0  0  0
  162.1840  214.3750  146.8620 F   0  0  0  0  0  0  0  0  0  0  0  0
  159.5670  213.0310  150.3160 C   0  0  1  0  0  3  0  0  0  0  0  0
  1 21  1  0  0  0  0
  3 17  2  0  0  0  0
  4 22  1  0  0  0  0
  5 27  1  6  0  0  0
  5 17  1  0  0  0  0
  5 24  1  0  0  0  0
  6 23  1  0  0  0  0
  6  1  1  0  0  0  0
  7  2  1  0  0  0  0
  8  7  1  0  0  0  0
  8  2  1  0  0  0  0
  9 13  1  0  0  0  0
  9 14  2  0  0  0  0
 10  8  1  6  0  0  0
 10 28  1  0  0  0  0
 12 25  1  6  0  0  0
 12 28  1  0  0  0  0
 13 26  1  0  0  0  0
 14  8  1  0  0  0  0
 15 11  2  0  0  0  0
 15 23  1  0  0  0  0
 16 20  1  0  0  0  0
 16  1  2  0  0  0  0
 17 25  1  0  0  0  0
 18  9  1  0  0  0  0
 19 15  1  0  0  0  0
 20  4  2  0  0  0  0
 21 22  2  0  0  0  0
 24 12  1  0  0  0  0
 25 19  1  0  0  0  0
 26 24  1  0  0  0  0
 26 10  1  0  0  0  0
 28 16  1  0  0  0  0
M  END
>  <MODEL>
1

>  <REMARK>
 VINA RESULT:      -2.5      0.000      0.000
  Name = 
  0 active torsions:
  status: ('A' for Active; 'I' for Inactive)
                            x       y       z     vdW  Elec       q    Type
                         _______ _______ _______ _____ _____    ______ ____

>  <TORSDO>
F 0

$$$$
=
 OpenBabel11122414083D

 28 33  0  0  1  0  0  0  0  0999 V2000
  157.6660  213.0320  153.9520 C   0  0  0  0  0  0  0  0  0  0  0  0
  159.8840  211.4720  157.0010 C   0  0  0  0  0  2  0  0  0  0  0  0
  162.2540  210.9530  150.1000 O   0  0  0  0  0  0  0  0  0  0  0  0
  155.7770  211.1190  154.7490 C   0  0  0  0  0  3  0  0  0  0  0  0
  161.1590  209.1590  151.3010 C   0  0  2  0  0  3  0  0  0  0  0  0
  158.6140  214.0750  153.4560 C   0  0  0  0  0  2  0  0  0  0  0  0
  160.3160  210.0320  157.2590 C   0  0  0  0  0  2  0  0  0  0  0  0
  160.6670  210.7110  155.9590 C   0  0  0  0  0  0  0  0  0  0  0  0
  162.7800  210.6490  154.8400 C   0  0  0  0  0  0  0  0  0  0  0  0
  159.9550  210.1570  154.7300 C   0  0  2  0  0  3  0  0  0  0  0  0
  159.1240  213.6190  149.8590 O   0  0  0  0  0  0  0  0  0  0  0  0
  159.5530  210.6770  152.3830 C   0  0  2  0  0  3  0  0  0  0  0  0
  162.2000  209.8960  153.8110 O   0  0  0  0  0  0  0  0  0  0  0  0
  162.0770  211.0490  155.8520 N   0  0  0  0  0  0  0  0  0  0  0  0
  159.3780  213.5830  151.0910 C   0  0  0  0  0  0  0  0  0  0  0  0
  158.0540  211.6840  154.0980 C   0  0  0  0  0  0  0  0  0  0  0  0
  161.3700  210.5690  150.9110 C   0  0  0  0  0  0  0  0  0  0  0  0
  164.2140  211.0290  154.7470 C   0  0  0  0  0  1  0  0  0  0  0  0
  160.6190  212.8970  151.5630 C   0  0  0  0  0  2  0  0  0  0  0  0
  157.0920  210.7340  154.4850 C   0  0  0  0  0  3  0  0  0  0  0  0
  156.3430  213.4080  154.2130 C   0  0  0  0  0  3  0  0  0  0  0  0
  155.4030  212.4570  154.6160 C   0  0  0  0  0  3  0  0  0  0  0  0
  158.4840  214.2090  152.0120 N   0  0  0  0  0  2  0  0  0  0  0  0
  160.2130  209.2930  152.5130 C   0  0  2  0  0  3  0  0  0  0  0  0
  160.4530  211.4480  151.5320 N   0  0  0  0  0  0  0  0  0  0  0  0
  160.8940  209.3020  153.8910 C   0  0  2  0  0  3  0  0  0  0  0  0
  162.3500  208.5220  151.6040 F   0  0  0  0  0  0  0  0  0  0  0  0
  159.4640  211.2540  153.7930 C   0  0  1  0  0  3  0  0  0  0  0  0
  1 16  2  0  0  0  0
  1 21  1  0  0  0  0
  2  7  1  0  0  0  0
  3 17  2  0  0  0  0
  5 27  1  1  0  0  0
  5 24  1  0  0  0  0
  6  1  1  0  0  0  0
  8  2  1  0  0  0  0
  8  7  1  0  0  0  0
  9 14  2  0  0  0  0
 10  8  1  1  0  0  0
 11 15  2  0  0  0  0
 12 25  1  6  0  0  0
 12 24  1  0  0  0  0
 12 28  1  0  0  0  0
 13 26  1  0  0  0  0
 13  9  1  0  0  0  0
 14  8  1  0  0  0  0
 15 19  1  0  0  0  0
 15 23  1  0  0  0  0
 16 20  1  0  0  0  0
 17  5  1  0  0  0  0
 17 25  1  0  0  0  0
 18  9  1  0  0  0  0
 20  4  2  0  0  0  0
 21 22  2  0  0  0  0
 22  4  1  0  0  0  0
 23  6  1  0  0  0  0
 24 26  1  0  0  0  0
 25 19  1  0  0  0  0
 26 10  1  0  0  0  0
 28 16  1  0  0  0  0
 28 10  1  0  0  0  0
M  END
>  <MODEL>
2

>  <REMARK>
 VINA RESULT:      -2.2      2.972      6.094
  Name = 
  0 active torsions:
  status: ('A' for Active; 'I' for Inactive)
                            x       y       z     vdW  Elec       q    Type
                         _______ _______ _______ _____ _____    ______ ____

>  <TORSDO>
F 0

$$$$
=
 OpenBabel11122414083D

 28 33  0  0  1  0  0  0  0  0999 V2000
  159.4650  212.4830  152.0930 C   0  0  0  0  0  0  0  0  0  0  0  0
  160.0960  213.6050  155.9660 C   0  0  0  0  0  2  0  0  0  0  0  0
  162.1910  206.9810  153.6770 O   0  0  0  0  0  0  0  0  0  0  0  0
  156.7580  212.7480  152.7730 C   0  0  0  0  0  3  0  0  0  0  0  0
  160.1610  207.4100  154.9240 C   0  0  2  0  0  3  0  0  0  0  0  0
  160.8810  212.3110  151.6460 C   0  0  0  0  0  2  0  0  0  0  0  0
  159.5690  212.9920  157.2600 C   0  0  0  0  0  2  0  0  0  0  0  0
  160.3470  212.1500  156.2810 C   0  0  0  0  0  0  0  0  0  0  0  0
  162.0870  210.5930  156.8030 C   0  0  0  0  0  0  0  0  0  0  0  0
  159.5370  211.0700  155.5730 C   0  0  2  0  0  3  0  0  0  0  0  0
  161.2820  208.9750  150.1900 O   0  0  0  0  0  0  0  0  0  0  0  0
  159.6950  209.5010  153.7150 C   0  0  2  0  0  3  0  0  0  0  0  0
  161.2490  209.5430  156.4050 O   0  0  0  0  0  0  0  0  0  0  0  0
  161.6860  211.8240  156.7450 N   0  0  0  0  0  0  0  0  0  0  0  0
  161.3740  209.9010  151.0370 C   0  0  0  0  0  0  0  0  0  0  0  0
  158.9660  211.8360  153.2430 C   0  0  0  0  0  0  0  0  0  0  0  0
  161.1950  207.7150  153.9130 C   0  0  0  0  0  0  0  0  0  0  0  0
  163.4680  210.2920  157.2610 C   0  0  0  0  0  1  0  0  0  0  0  0
  161.9270  209.6030  152.3920 C   0  0  0  0  0  2  0  0  0  0  0  0
  157.6030  211.9660  153.5630 C   0  0  0  0  0  3  0  0  0  0  0  0
  158.6090  213.2590  151.3040 C   0  0  0  0  0  3  0  0  0  0  0  0
  157.2620  213.3970  151.6450 C   0  0  0  0  0  3  0  0  0  0  0  0
  160.9620  211.2230  150.6830 N   0  0  0  0  0  2  0  0  0  0  0  0
  159.3930  208.7460  155.0200 C   0  0  2  0  0  3  0  0  0  0  0  0
  160.9360  208.9180  153.2160 N   0  0  0  0  0  0  0  0  0  0  0  0
  159.8440  209.6930  156.1440 C   0  0  2  0  0  3  0  0  0  0  0  0
  160.7160  207.0090  156.1270 F   0  0  0  0  0  0  0  0  0  0  0  0
  159.8640  210.9710  154.0880 C   0  0  1  0  0  3  0  0  0  0  0  0
  1 16  1  0  0  0  0
  2  8  1  0  0  0  0
  2  7  1  0  0  0  0
  3 17  2  0  0  0  0
  4 20  1  0  0  0  0
  5 24  1  0  0  0  0
  5 27  1  1  0  0  0
  6  1  1  0  0  0  0
  8 14  1  0  0  0  0
  8  7  1  0  0  0  0
  9 18  1  0  0  0  0
 10 26  1  0  0  0  0
 10  8  1  1  0  0  0
 11 15  2  0  0  0  0
 12 25  1  1  0  0  0
 12 28  1  0  0  0  0
 12 24  1  0  0  0  0
 13  9  1  0  0  0  0
 14  9  2  0  0  0  0
 15 19  1  0  0  0  0
 16 20  2  0  0  0  0
 16 28  1  0  0  0  0
 17  5  1  0  0  0  0
 19 25  1  0  0  0  0
 21 22  1  0  0  0  0
 21  1  2  0  0  0  0
 22  4  2  0  0  0  0
 23 15  1  0  0  0  0
 23  6  1  0  0  0  0
 24 26  1  0  0  0  0
 25 17  1  0  0  0  0
 26 13  1  0  0  0  0
 28 10  1  0  0  0  0
M  END
>  <MODEL>
3

>  <REMARK>
 VINA RESULT:      -1.3      3.723      6.974
  Name = 
  0 active torsions:
  status: ('A' for Active; 'I' for Inactive)
                            x       y       z     vdW  Elec       q    Type
                         _______ _______ _______ _____ _____    ______ ____

>  <TORSDO>
F 0

$$$$
=
 OpenBabel11122414083D

 28 33  0  0  1  0  0  0  0  0999 V2000
  158.6340  212.4730  151.5550 C   0  0  0  0  0  0  0  0  0  0  0  0
  160.8310  209.3890  150.0330 C   0  0  0  0  0  2  0  0  0  0  0  0
  159.8940  210.0100  157.2610 O   0  0  0  0  0  0  0  0  0  0  0  0
  160.6520  214.0660  150.4370 C   0  0  0  0  0  3  0  0  0  0  0  0
  161.8910  210.7070  156.0830 C   0  0  2  0  0  3  0  0  0  0  0  0
  157.5200  211.7020  152.1860 C   0  0  0  0  0  2  0  0  0  0  0  0
  162.2980  209.0310  150.2530 C   0  0  0  0  0  2  0  0  0  0  0  0
  161.3610  209.1610  151.4280 C   0  0  0  0  0  0  0  0  0  0  0  0
  161.2060  207.6810  153.3000 C   0  0  0  0  0  0  0  0  0  0  0  0
  161.6330  210.3510  152.3400 C   0  0  2  0  0  3  0  0  0  0  0  0
  157.2050  212.7060  155.6940 O   0  0  0  0  0  0  0  0  0  0  0  0
  160.6220  211.5980  154.1730 C   0  0  2  0  0  3  0  0  0  0  0  0
  161.7170  208.6910  154.1250 O   0  0  0  0  0  0  0  0  0  0  0  0
  161.0230  207.8830  152.0340 N   0  0  0  0  0  0  0  0  0  0  0  0
  157.5050  211.9900  154.7040 C   0  0  0  0  0  0  0  0  0  0  0  0
  159.9860  212.1900  151.8390 C   0  0  0  0  0  0  0  0  0  0  0  0
  160.4330  210.5330  156.2500 C   0  0  0  0  0  0  0  0  0  0  0  0
  160.8310  206.3720  153.8950 C   0  0  0  0  0  1  0  0  0  0  0  0
  158.2890  210.7360  154.9180 C   0  0  0  0  0  2  0  0  0  0  0  0
  160.9870  213.0060  151.2820 C   0  0  0  0  0  3  0  0  0  0  0  0
  158.3080  213.5410  150.7120 C   0  0  0  0  0  3  0  0  0  0  0  0
  159.3130  214.3310  150.1480 C   0  0  0  0  0  3  0  0  0  0  0  0
  157.0800  212.3800  153.3970 N   0  0  0  0  0  2  0  0  0  0  0  0
  162.0080  211.0770  154.5890 C   0  0  2  0  0  3  0  0  0  0  0  0
  159.6960  211.0390  155.1530 N   0  0  0  0  0  0  0  0  0  0  0  0
  162.3000  209.9090  153.6350 C   0  0  2  0  0  3  0  0  0  0  0  0
  162.5910  209.5610  156.4190 F   0  0  0  0  0  0  0  0  0  0  0  0
  160.3570  211.0650  152.7690 C   0  0  1  0  0  3  0  0  0  0  0  0
  1 16  1  0  0  0  0
  1  6  1  0  0  0  0
  2  7  1  0  0  0  0
  2  8  1  0  0  0  0
  4 20  1  0  0  0  0
  5 17  1  0  0  0  0
  5 27  1  6  0  0  0
  6 23  1  0  0  0  0
  7  8  1  0  0  0  0
  8 14  1  0  0  0  0
  9 18  1  0  0  0  0
  9 13  1  0  0  0  0
 10  8  1  6  0  0  0
 10 28  1  0  0  0  0
 10 26  1  0  0  0  0
 12 24  1  0  0  0  0
 12 25  1  1  0  0  0
 14  9  2  0  0  0  0
 15 19  1  0  0  0  0
 15 11  2  0  0  0  0
 16 28  1  0  0  0  0
 17  3  2  0  0  0  0
 19 25  1  0  0  0  0
 20 16  2  0  0  0  0
 21  1  2  0  0  0  0
 22  4  2  0  0  0  0
 22 21  1  0  0  0  0
 23 15  1  0  0  0  0
 24  5  1  0  0  0  0
 25 17  1  0  0  0  0
 26 13  1  0  0  0  0
 26 24  1  0  0  0  0
 28 12  1  0  0  0  0
M  END
>  <MODEL>
4

>  <REMARK>
 VINA RESULT:      -0.2      3.888      6.578
  Name = 
  0 active torsions:
  status: ('A' for Active; 'I' for Inactive)
                            x       y       z     vdW  Elec       q    Type
                         _______ _______ _______ _____ _____    ______ ____

>  <TORSDO>
F 0

$$$$
