=
 OpenBabel11122414073D

 28 32  0  0  1  0  0  0  0  0999 V2000
  160.6840  210.8760  140.5370 C   0  0  0  0  0  0  0  0  0  0  0  0
  156.7740  209.1200  137.8160 F   0  0  0  0  0  0  0  0  0  0  0  0
  160.8270  214.1150  137.3320 O   0  0  0  0  0  0  0  0  0  0  0  0
  159.6740  212.9780  142.0870 C   0  0  0  0  0  3  0  0  0  0  0  0
  158.4580  213.6970  137.5430 C   0  0  1  0  0  3  0  0  0  0  0  0
  161.2310  209.8590  139.6950 N   0  0  0  0  0  2  0  0  0  0  0  0
  156.1460  208.7390  139.9470 O   0  0  0  0  0  1  0  0  0  0  0  0
  156.1950  209.7010  138.9390 C   0  0  1  0  0  0  0  0  0  0  0  0
  154.9600  211.1070  137.6580 C   0  0  1  0  0  3  0  0  0  0  0  0
  157.0240  210.8990  139.4560 C   0  0  2  0  0  3  0  0  0  0  0  0
  163.2280  212.0370  137.9840 O   0  0  0  0  0  0  0  0  0  0  0  0
  158.7950  211.2610  137.8220 C   0  0  1  0  0  3  0  0  0  0  0  0
  155.3640  212.3160  138.2500 O   0  0  0  0  0  0  0  0  0  0  0  0
  154.8770  210.1010  138.6390 O   0  0  0  0  0  0  0  0  0  0  0  0
  162.3800  211.1610  138.0150 C   0  0  0  0  0  0  0  0  0  0  0  0
  159.3600  211.3070  140.3420 C   0  0  0  0  0  0  0  0  0  0  0  0
  159.8840  213.3010  137.5170 C   0  0  0  0  0  0  0  0  0  0  0  0
  153.6030  211.2920  137.0110 C   0  0  0  0  0  1  0  0  0  0  0  0
  161.2200  211.2180  137.0680 C   0  0  0  0  0  2  0  0  0  0  0  0
  158.8680  212.3690  141.1230 C   0  0  0  0  0  3  0  0  0  0  0  0
  161.4940  211.5050  141.4920 C   0  0  0  0  0  3  0  0  0  0  0  0
  160.9880  212.5470  142.2710 C   0  0  0  0  0  3  0  0  0  0  0  0
  162.5000  210.0450  139.0080 C   0  0  0  0  0  2  0  0  0  0  0  0
  157.7290  212.3340  137.5640 C   0  0  1  0  0  3  0  0  0  0  0  0
  160.0900  211.9090  137.6790 N   0  0  0  0  0  0  0  0  0  0  0  0
  156.7030  212.1900  138.6870 C   0  0  2  0  0  3  0  0  0  0  0  0
  158.2080  214.4480  138.6950 O   0  0  0  0  0  1  0  0  0  0  0  0
  158.5220  210.6910  139.2330 C   0  0  1  0  0  3  0  0  0  0  0  0
  1 21  1  0  0  0  0
  3 17  2  0  0  0  0
  4 22  1  0  0  0  0
  5 24  1  0  0  0  0
  5 27  1  1  0  0  0
  6  1  1  0  0  0  0
  8  2  1  6  0  0  0
  8 10  1  0  0  0  0
  8  7  1  0  0  0  0
  9 18  1  1  0  0  0
  9 13  1  0  0  0  0
  9 14  1  0  0  0  0
 11 15  2  0  0  0  0
 12 28  1  0  0  0  0
 13 26  1  0  0  0  0
 14  8  1  0  0  0  0
 15 23  1  0  0  0  0
 16  1  2  0  0  0  0
 16 20  1  0  0  0  0
 17  5  1  0  0  0  0
 17 25  1  0  0  0  0
 19 25  1  0  0  0  0
 19 15  1  0  0  0  0
 20  4  2  0  0  0  0
 21 22  2  0  0  0  0
 23  6  1  0  0  0  0
 24 12  1  0  0  0  0
 24 26  1  0  0  0  0
 25 12  1  0  0  0  0
 26 10  1  0  0  0  0
 28 10  1  0  0  0  0
 28 16  1  0  0  0  0
M  END
>  <MODEL>
1

>  <REMARK>
 VINA RESULT:      -3.6      0.000      0.000
  Name = 
  0 active torsions:
  status: ('A' for Active; 'I' for Inactive)
                            x       y       z     vdW  Elec       q    Type
                         _______ _______ _______ _____ _____    ______ ____

>  <TORSDO>
F 0

$$$$
=
 OpenBabel11122414073D

 28 32  0  0  1  0  0  0  0  0999 V2000
  160.9600  209.2020  156.2930 C   0  0  0  0  0  0  0  0  0  0  0  0
  157.3670  211.3740  153.4390 F   0  0  0  0  0  0  0  0  0  0  0  0
  162.5480  207.7080  152.2890 O   0  0  0  0  0  0  0  0  0  0  0  0
  163.1990  210.8760  156.1320 C   0  0  0  0  0  3  0  0  0  0  0  0
  161.6950  209.8950  151.7260 C   0  0  1  0  0  3  0  0  0  0  0  0
  159.8530  208.2990  156.3200 N   0  0  0  0  0  2  0  0  0  0  0  0
  157.7450  212.8960  155.0570 O   0  0  0  0  0  1  0  0  0  0  0  0
  158.1950  212.4210  153.8270 C   0  0  1  0  0  0  0  0  0  0  0  0
  158.6170  212.9740  151.6680 C   0  0  1  0  0  3  0  0  0  0  0  0
  159.6610  211.9590  153.9950 C   0  0  2  0  0  3  0  0  0  0  0  0
  161.5590  205.8090  154.7230 O   0  0  0  0  0  0  0  0  0  0  0  0
  159.7420  209.6480  153.2260 C   0  0  1  0  0  3  0  0  0  0  0  0
  160.0200  212.9250  151.7250 O   0  0  0  0  0  0  0  0  0  0  0  0
  158.1090  213.4660  152.8840 O   0  0  0  0  0  0  0  0  0  0  0  0
  160.5950  206.5490  154.8280 C   0  0  0  0  0  0  0  0  0  0  0  0
  160.9420  210.3030  155.4170 C   0  0  0  0  0  0  0  0  0  0  0  0
  161.6780  208.6050  152.4500 C   0  0  0  0  0  0  0  0  0  0  0  0
  158.1910  213.8890  150.5380 C   0  0  0  0  0  1  0  0  0  0  0  0
  159.9820  207.1470  153.5990 C   0  0  0  0  0  2  0  0  0  0  0  0
  162.0770  211.1310  155.3420 C   0  0  0  0  0  3  0  0  0  0  0  0
  162.0970  208.9410  157.0680 C   0  0  0  0  0  3  0  0  0  0  0  0
  163.2100  209.7800  156.9950 C   0  0  0  0  0  3  0  0  0  0  0  0
  160.0430  206.8630  156.1860 C   0  0  0  0  0  2  0  0  0  0  0  0
  160.3270  210.5100  152.0990 C   0  0  1  0  0  3  0  0  0  0  0  0
  160.5670  208.4520  153.3150 N   0  0  0  0  0  0  0  0  0  0  0  0
  160.4090  211.9310  152.6530 C   0  0  2  0  0  3  0  0  0  0  0  0
  162.7650  210.6690  152.1850 O   0  0  0  0  0  1  0  0  0  0  0  0
  159.7470  210.5190  154.5030 C   0  0  1  0  0  3  0  0  0  0  0  0
  1  6  1  0  0  0  0
  1 21  1  0  0  0  0
  3 17  2  0  0  0  0
  4 22  1  0  0  0  0
  5 24  1  0  0  0  0
  5 27  1  1  0  0  0
  5 17  1  0  0  0  0
  8  2  1  6  0  0  0
  8 10  1  0  0  0  0
  8  7  1  0  0  0  0
  9 18  1  6  0  0  0
  9 13  1  0  0  0  0
  9 14  1  0  0  0  0
 10 28  1  0  0  0  0
 11 15  2  0  0  0  0
 12 25  1  0  0  0  0
 12 28  1  0  0  0  0
 13 26  1  0  0  0  0
 14  8  1  0  0  0  0
 15 23  1  0  0  0  0
 16  1  2  0  0  0  0
 17 25  1  0  0  0  0
 19 15  1  0  0  0  0
 20 16  1  0  0  0  0
 20  4  2  0  0  0  0
 22 21  2  0  0  0  0
 23  6  1  0  0  0  0
 24 26  1  0  0  0  0
 24 12  1  0  0  0  0
 25 19  1  0  0  0  0
 26 10  1  0  0  0  0
 28 16  1  0  0  0  0
M  END
>  <MODEL>
2

>  <REMARK>
 VINA RESULT:      -2.0     13.281     15.612
  Name = 
  0 active torsions:
  status: ('A' for Active; 'I' for Inactive)
                            x       y       z     vdW  Elec       q    Type
                         _______ _______ _______ _____ _____    ______ ____

>  <TORSDO>
F 0

$$$$
=
 OpenBabel11122414073D

 28 32  0  0  1  0  0  0  0  0999 V2000
  160.2460  210.0680  156.2630 C   0  0  0  0  0  0  0  0  0  0  0  0
  155.4360  210.9090  154.8760 F   0  0  0  0  0  0  0  0  0  0  0  0
  161.2170  211.7760  152.1500 O   0  0  0  0  0  0  0  0  0  0  0  0
  161.2550  212.5380  157.1140 C   0  0  0  0  0  3  0  0  0  0  0  0
  159.2950  213.0780  152.8130 C   0  0  1  0  0  3  0  0  0  0  0  0
  159.7700  208.8190  155.7590 N   0  0  0  0  0  2  0  0  0  0  0  0
  155.4470  211.4180  157.0720 O   0  0  0  0  0  1  0  0  0  0  0  0
  155.7220  211.9110  155.7970 C   0  0  1  0  0  0  0  0  0  0  0  0
  155.2240  213.5310  154.2900 C   0  0  1  0  0  3  0  0  0  0  0  0
  157.2110  212.3240  155.7500 C   0  0  2  0  0  3  0  0  0  0  0  0
  161.9690  208.7840  153.1450 O   0  0  0  0  0  0  0  0  0  0  0  0
  158.1920  211.1300  153.8670 C   0  0  1  0  0  3  0  0  0  0  0  0
  156.4320  214.2460  154.3680 O   0  0  0  0  0  0  0  0  0  0  0  0
  154.8900  213.0240  155.5590 O   0  0  0  0  0  0  0  0  0  0  0  0
  160.8360  208.7140  153.5920 C   0  0  0  0  0  0  0  0  0  0  0  0
  159.4620  211.2260  156.1140 C   0  0  0  0  0  0  0  0  0  0  0  0
  160.1010  211.8400  152.7310 C   0  0  0  0  0  0  0  0  0  0  0  0
  154.1220  214.4530  153.8100 C   0  0  0  0  0  1  0  0  0  0  0  0
  159.7050  209.3600  152.8510 C   0  0  0  0  0  2  0  0  0  0  0  0
  159.9850  212.4610  156.5400 C   0  0  0  0  0  3  0  0  0  0  0  0
  161.5280  210.1550  156.8230 C   0  0  0  0  0  3  0  0  0  0  0  0
  162.0270  211.3840  157.2550 C   0  0  0  0  0  3  0  0  0  0  0  0
  160.5890  207.9940  154.8830 C   0  0  0  0  0  2  0  0  0  0  0  0
  157.9580  212.5730  153.4020 C   0  0  1  0  0  3  0  0  0  0  0  0
  159.4820  210.7180  153.3340 N   0  0  0  0  0  0  0  0  0  0  0  0
  157.4860  213.3430  154.6340 C   0  0  2  0  0  3  0  0  0  0  0  0
  159.9330  213.9910  153.6570 O   0  0  0  0  0  1  0  0  0  0  0  0
  158.1170  211.1400  155.4110 C   0  0  1  0  0  3  0  0  0  0  0  0
  1 21  1  0  0  0  0
  3 17  2  0  0  0  0
  4 22  1  0  0  0  0
  5 24  1  0  0  0  0
  5 27  1  1  0  0  0
  6  1  1  0  0  0  0
  8  2  1  6  0  0  0
  8  7  1  0  0  0  0
  9 18  1  1  0  0  0
  9 13  1  0  0  0  0
  9 14  1  0  0  0  0
 10  8  1  0  0  0  0
 11 15  2  0  0  0  0
 12 28  1  0  0  0  0
 13 26  1  0  0  0  0
 14  8  1  0  0  0  0
 15 23  1  0  0  0  0
 16  1  2  0  0  0  0
 16 20  1  0  0  0  0
 17  5  1  0  0  0  0
 17 25  1  0  0  0  0
 19 25  1  0  0  0  0
 19 15  1  0  0  0  0
 20  4  2  0  0  0  0
 21 22  2  0  0  0  0
 23  6  1  0  0  0  0
 24 12  1  0  0  0  0
 24 26  1  0  0  0  0
 25 12  1  0  0  0  0
 26 10  1  0  0  0  0
 28 10  1  0  0  0  0
 28 16  1  0  0  0  0
M  END
>  <MODEL>
3

>  <REMARK>
 VINA RESULT:      -1.8     14.279     16.013
  Name = 
  0 active torsions:
  status: ('A' for Active; 'I' for Inactive)
                            x       y       z     vdW  Elec       q    Type
                         _______ _______ _______ _____ _____    ______ ____

>  <TORSDO>
F 0

$$$$
=
 OpenBabel11122414073D

 28 32  0  0  1  0  0  0  0  0999 V2000
  160.9500  209.1570  156.8040 C   0  0  0  0  0  0  0  0  0  0  0  0
  156.3110  210.6350  155.3660 F   0  0  0  0  0  0  0  0  0  0  0  0
  161.8100  209.1750  152.3270 O   0  0  0  0  0  0  0  0  0  0  0  0
  162.5530  211.4530  156.7410 C   0  0  0  0  0  3  0  0  0  0  0  0
  160.2970  211.0410  152.5730 C   0  0  1  0  0  3  0  0  0  0  0  0
  160.1650  207.9650  156.7640 N   0  0  0  0  0  2  0  0  0  0  0  0
  156.6720  211.8010  157.2610 O   0  0  0  0  0  1  0  0  0  0  0  0
  156.9050  211.7790  155.8870 C   0  0  1  0  0  0  0  0  0  0  0  0
  156.6060  212.9020  153.9390 C   0  0  1  0  0  3  0  0  0  0  0  0
  158.4340  211.7870  155.6570 C   0  0  2  0  0  3  0  0  0  0  0  0
  162.0060  206.5710  154.2470 O   0  0  0  0  0  0  0  0  0  0  0  0
  158.9230  209.8550  154.2550 C   0  0  1  0  0  3  0  0  0  0  0  0
  157.9400  213.2940  153.7330 O   0  0  0  0  0  0  0  0  0  0  0  0
  156.3110  212.9230  155.3140 O   0  0  0  0  0  0  0  0  0  0  0  0
  160.9400  206.9210  154.7270 C   0  0  0  0  0  0  0  0  0  0  0  0
  160.4220  210.3590  156.2970 C   0  0  0  0  0  0  0  0  0  0  0  0
  160.8050  209.6870  152.8870 C   0  0  0  0  0  0  0  0  0  0  0  0
  155.6820  213.8570  153.2110 C   0  0  0  0  0  1  0  0  0  0  0  0
  159.9000  207.5460  153.8480 C   0  0  0  0  0  2  0  0  0  0  0  0
  161.2420  211.5020  156.2660 C   0  0  0  0  0  3  0  0  0  0  0  0
  162.2740  209.1100  157.2610 C   0  0  0  0  0  3  0  0  0  0  0  0
  163.0700  210.2560  157.2380 C   0  0  0  0  0  3  0  0  0  0  0  0
  160.6870  206.7320  156.1920 C   0  0  0  0  0  2  0  0  0  0  0  0
  158.9560  211.0860  153.3390 C   0  0  1  0  0  3  0  0  0  0  0  0
  160.0290  208.9990  153.8520 N   0  0  0  0  0  0  0  0  0  0  0  0
  158.7980  212.2980  154.2550 C   0  0  2  0  0  3  0  0  0  0  0  0
  161.2060  211.9950  153.0400 O   0  0  0  0  0  1  0  0  0  0  0  0
  159.0220  210.3770  155.7080 C   0  0  1  0  0  3  0  0  0  0  0  0
  1 21  1  0  0  0  0
  3 17  2  0  0  0  0
  4 22  1  0  0  0  0
  5 17  1  0  0  0  0
  5 27  1  1  0  0  0
  5 24  1  0  0  0  0
  6  1  1  0  0  0  0
  8  2  1  6  0  0  0
  8  7  1  0  0  0  0
  9 18  1  6  0  0  0
  9 14  1  0  0  0  0
 10 28  1  0  0  0  0
 10  8  1  0  0  0  0
 11 15  2  0  0  0  0
 12 28  1  0  0  0  0
 13  9  1  0  0  0  0
 13 26  1  0  0  0  0
 14  8  1  0  0  0  0
 15 23  1  0  0  0  0
 16  1  2  0  0  0  0
 17 25  1  0  0  0  0
 19 25  1  0  0  0  0
 19 15  1  0  0  0  0
 20 16  1  0  0  0  0
 20  4  2  0  0  0  0
 22 21  2  0  0  0  0
 23  6  1  0  0  0  0
 24 26  1  0  0  0  0
 24 12  1  0  0  0  0
 25 12  1  0  0  0  0
 26 10  1  0  0  0  0
 28 16  1  0  0  0  0
M  END
>  <MODEL>
4

>  <REMARK>
 VINA RESULT:      -1.8     14.374     16.365
  Name = 
  0 active torsions:
  status: ('A' for Active; 'I' for Inactive)
                            x       y       z     vdW  Elec       q    Type
                         _______ _______ _______ _____ _____    ______ ____

>  <TORSDO>
F 0

$$$$
