=
 OpenBabel11122414283D

 34 41  0  0  1  0  0  0  0  0999 V2000
  161.3670  205.1410  152.2620 C   0  0  2  0  0  3  0  0  0  0  0  0
  161.1190  206.5600  154.2200 C   0  0  0  0  0  2  0  0  0  0  0  0
  161.8060  204.1780  145.7070 C   0  0  2  0  0  3  0  0  0  0  0  0
  161.4930  203.7940  150.1220 C   0  0  1  0  0  3  0  0  0  0  0  0
  161.4500  205.0470  147.9280 C   0  0  1  0  0  3  0  0  0  0  0  0
  161.2790  206.1280  145.5760 C   0  0  0  0  0  2  0  0  0  0  0  0
  162.0190  205.2120  144.7090 N   0  0  0  0  0  2  0  0  0  0  0  0
  160.4740  201.9110  146.6160 S   0  0  0  0  0  0  0  0  0  0  0  0
  161.4460  207.4800  152.1850 C   0  0  1  0  0  3  0  0  0  0  0  0
  161.4560  210.5860  151.5620 C   0  0  0  0  0  3  0  0  0  0  0  0
  160.9210  206.2490  148.7040 C   0  0  0  0  0  2  0  0  0  0  0  0
  161.6050  202.4910  147.9500 C   0  0  0  0  0  2  0  0  0  0  0  0
  161.1340  207.5480  150.6820 C   0  0  2  0  0  3  0  0  0  0  0  0
  161.1780  208.0740  154.4320 C   0  0  0  0  0  2  0  0  0  0  0  0
  161.0470  203.7410  148.6550 C   0  0  1  0  0  3  0  0  0  0  0  0
  161.0950  202.9350  145.2090 C   0  0  0  0  0  2  0  0  0  0  0  0
  161.9500  209.8660  152.7840 C   0  0  2  0  0  3  0  0  0  0  0  0
  160.9940  205.1000  150.7680 C   0  0  2  0  0  3  0  0  0  0  0  0
  160.8740  205.0210  146.5260 C   0  0  1  0  0  3  0  0  0  0  0  0
  161.5180  206.2730  150.0410 N   0  0  1  0  0  0  0  0  0  0  0  0
  160.1570  202.8740  152.1120 C   0  0  0  0  0  2  0  0  0  0  0  0
  161.4530  210.0400  150.3390 C   0  0  0  0  0  3  0  0  0  0  0  0
  161.0200  202.5450  150.8930 C   0  0  0  0  0  2  0  0  0  0  0  0
  161.9770  208.6640  150.0510 C   0  0  0  0  0  2  0  0  0  0  0  0
  161.0470  208.6610  153.0340 C   0  0  1  0  0  3  0  0  0  0  0  0
  160.8600  203.8920  153.0140 C   0  0  0  0  0  2  0  0  0  0  0  0
  160.7840  206.3570  152.8140 N   0  0  1  0  0  0  0  0  0  0  0  0
  161.9030  210.7460  153.8690 O   0  0  0  0  0  0  0  0  0  0  0  0
  160.7340  211.4880  153.6790 C   0  0  0  0  0  2  0  0  0  0  0  0
  158.9740  210.2450  156.1140 O   0  0  0  0  0  0  0  0  0  0  0  0
  161.0330  211.3980  156.1300 C   0  0  0  0  0  2  0  0  0  0  0  0
  160.1930  211.9540  155.0170 C   0  0  2  0  0  3  0  0  0  0  0  0
  160.0650  210.5640  156.9350 C   0  0  0  0  0  2  0  0  0  0  0  0
  158.8310  211.3410  155.2510 C   0  0  0  0  0  2  0  0  0  0  0  0
  1 27  1  0  0  0  0
  1 26  1  1  0  0  0
  2 14  1  0  0  0  0
  3 16  1  6  0  0  0
  3 19  1  0  0  0  0
  4 18  1  0  0  0  0
  4 23  1  1  0  0  0
  5 15  1  0  0  0  0
  5 11  1  1  0  0  0
  6 19  1  0  0  0  0
  7  6  1  0  0  0  0
  7  3  1  0  0  0  0
  8 12  1  0  0  0  0
  9 27  1  0  0  0  0
  9 25  1  0  0  0  0
 10 17  1  0  0  0  0
 11 20  1  0  0  0  0
 12 15  1  0  0  0  0
 13  9  1  0  0  0  0
 15  4  1  0  0  0  0
 16  8  1  0  0  0  0
 17 25  1  0  0  0  0
 17 28  1  0  0  0  0
 18  1  1  0  0  0  0
 19  5  1  0  0  0  0
 20 13  1  0  0  0  0
 20 18  1  0  0  0  0
 21 26  1  0  0  0  0
 22 10  2  0  0  0  0
 23 21  1  0  0  0  0
 24 22  1  0  0  0  0
 24 13  1  0  0  0  0
 25 14  1  0  0  0  0
 27  2  1  0  0  0  0
 29 28  1  0  0  0  0
 29 32  1  0  0  0  0
 30 33  1  0  0  0  0
 31 33  1  0  0  0  0
 32 34  1  0  0  0  0
 32 31  1  0  0  0  0
 34 30  1  0  0  0  0
M  END
>  <MODEL>
1

>  <REMARK>
 VINA RESULT:      -8.9      0.000      0.000
  Name = 
  3 active torsions:
  status: ('A' for Active; 'I' for Inactive)
    1  A    between atoms: C_17  and  O_28
    2  A    between atoms: O_28  and  C_29
    3  A    between atoms: C_29  and  C_32
                            x       y       z     vdW  Elec       q    Type
                         _______ _______ _______ _____ _____    ______ ____

>  <TORSDO>
F 3

$$$$
=
 OpenBabel11122414283D

 34 41  0  0  1  0  0  0  0  0999 V2000
  161.1040  209.2370  151.2110 C   0  0  2  0  0  3  0  0  0  0  0  0
  161.3540  211.0320  152.8320 C   0  0  0  0  0  2  0  0  0  0  0  0
  160.5340  202.8300  149.5660 C   0  0  2  0  0  3  0  0  0  0  0  0
  160.9680  207.2500  149.6480 C   0  0  1  0  0  3  0  0  0  0  0  0
  160.9170  204.9390  150.6690 C   0  0  1  0  0  3  0  0  0  0  0  0
  160.9960  202.4850  151.5060 C   0  0  0  0  0  2  0  0  0  0  0  0
  160.2640  201.7370  150.4850 N   0  0  0  0  0  2  0  0  0  0  0  0
  161.9600  203.9280  147.4440 S   0  0  0  0  0  0  0  0  0  0  0  0
  160.9480  208.9240  153.5270 C   0  0  1  0  0  3  0  0  0  0  0  0
  160.8250  207.9870  156.5500 C   0  0  0  0  0  3  0  0  0  0  0  0
  161.4270  205.5740  151.9600 C   0  0  0  0  0  2  0  0  0  0  0  0
  160.8440  205.2270  148.1250 C   0  0  0  0  0  2  0  0  0  0  0  0
  161.2210  207.4130  153.4490 C   0  0  2  0  0  3  0  0  0  0  0  0
  161.2520  211.0900  154.3570 C   0  0  0  0  0  2  0  0  0  0  0  0
  161.3790  205.7850  149.4580 C   0  0  1  0  0  3  0  0  0  0  0  0
  161.2730  202.4420  148.3000 C   0  0  0  0  0  2  0  0  0  0  0  0
  160.3840  209.2890  155.9470 C   0  0  2  0  0  3  0  0  0  0  0  0
  161.4410  207.7450  151.0280 C   0  0  2  0  0  3  0  0  0  0  0  0
  161.4590  203.5320  150.5150 C   0  0  1  0  0  3  0  0  0  0  0  0
  160.8620  206.9170  152.1040 N   0  0  1  0  0  0  0  0  0  0  0  0
  162.3810  209.2870  148.9780 C   0  0  0  0  0  2  0  0  0  0  0  0
  160.8140  206.8270  155.8820 C   0  0  0  0  0  3  0  0  0  0  0  0
  161.4990  208.1310  148.5000 C   0  0  0  0  0  2  0  0  0  0  0  0
  160.3270  206.6950  154.4690 C   0  0  0  0  0  2  0  0  0  0  0  0
  161.3300  209.6360  154.8000 C   0  0  1  0  0  3  0  0  0  0  0  0
  161.6690  210.0990  150.0620 C   0  0  0  0  0  2  0  0  0  0  0  0
  161.6610  209.6460  152.4940 N   0  0  1  0  0  0  0  0  0  0  0  0
  160.4300  210.2770  156.9340 O   0  0  0  0  0  0  0  0  0  0  0  0
  159.0920  210.5360  157.2430 C   0  0  0  0  0  2  0  0  0  0  0  0
  156.2120  211.5190  156.0970 O   0  0  0  0  0  0  0  0  0  0  0  0
  157.9190  212.7110  157.2090 C   0  0  0  0  0  2  0  0  0  0  0  0
  158.5630  211.6520  156.3610 C   0  0  2  0  0  3  0  0  0  0  0  0
  156.4870  212.7390  156.7310 C   0  0  0  0  0  2  0  0  0  0  0  0
  157.4260  211.1260  155.5140 C   0  0  0  0  0  2  0  0  0  0  0  0
  1 26  1  6  0  0  0
  1 27  1  0  0  0  0
  2 14  1  0  0  0  0
  3 16  1  6  0  0  0
  3  7  1  0  0  0  0
  3 19  1  0  0  0  0
  4 23  1  6  0  0  0
  4 18  1  0  0  0  0
  5 11  1  1  0  0  0
  7  6  1  0  0  0  0
  8 12  1  0  0  0  0
  8 16  1  0  0  0  0
  9 25  1  0  0  0  0
 11 20  1  0  0  0  0
 12 15  1  0  0  0  0
 13  9  1  0  0  0  0
 13 24  1  0  0  0  0
 14 25  1  0  0  0  0
 15  4  1  0  0  0  0
 15  5  1  0  0  0  0
 17 10  1  0  0  0  0
 17 28  1  0  0  0  0
 18  1  1  0  0  0  0
 18 20  1  0  0  0  0
 19  5  1  0  0  0  0
 19  6  1  0  0  0  0
 20 13  1  0  0  0  0
 21 26  1  0  0  0  0
 22 10  2  0  0  0  0
 23 21  1  0  0  0  0
 24 22  1  0  0  0  0
 25 17  1  0  0  0  0
 27  2  1  0  0  0  0
 27  9  1  0  0  0  0
 28 29  1  0  0  0  0
 30 33  1  0  0  0  0
 32 31  1  0  0  0  0
 32 29  1  0  0  0  0
 33 31  1  0  0  0  0
 34 30  1  0  0  0  0
 34 32  1  0  0  0  0
M  END
>  <MODEL>
2

>  <REMARK>
 VINA RESULT:      -7.8      1.971      4.242
  Name = 
  3 active torsions:
  status: ('A' for Active; 'I' for Inactive)
    1  A    between atoms: C_17  and  O_28
    2  A    between atoms: O_28  and  C_29
    3  A    between atoms: C_29  and  C_32
                            x       y       z     vdW  Elec       q    Type
                         _______ _______ _______ _____ _____    ______ ____

>  <TORSDO>
F 3

$$$$
=
 OpenBabel11122414283D

 34 41  0  0  1  0  0  0  0  0999 V2000
  161.9990  208.4180  149.7660 C   0  0  2  0  0  3  0  0  0  0  0  0
  161.8360  207.2130  147.6600 C   0  0  0  0  0  2  0  0  0  0  0  0
  161.2880  208.8850  156.3510 C   0  0  2  0  0  3  0  0  0  0  0  0
  161.9910  209.5730  152.0190 C   0  0  1  0  0  3  0  0  0  0  0  0
  161.2050  208.2530  154.0250 C   0  0  1  0  0  3  0  0  0  0  0  0
  160.3050  207.1240  156.1800 C   0  0  0  0  0  2  0  0  0  0  0  0
  161.0430  207.7770  157.2600 N   0  0  0  0  0  2  0  0  0  0  0  0
  160.7390  211.4580  155.4470 S   0  0  0  0  0  0  0  0  0  0  0  0
  161.5120  206.1320  149.6150 C   0  0  1  0  0  3  0  0  0  0  0  0
  160.6670  203.0930  149.9060 C   0  0  0  0  0  3  0  0  0  0  0  0
  160.5820  207.2650  153.0440 C   0  0  0  0  0  2  0  0  0  0  0  0
  161.9540  210.6870  154.2950 C   0  0  0  0  0  2  0  0  0  0  0  0
  160.8890  206.0630  151.0180 C   0  0  2  0  0  3  0  0  0  0  0  0
  161.5820  205.7460  147.3090 C   0  0  0  0  0  2  0  0  0  0  0  0
  161.2770  209.6550  153.3740 C   0  0  1  0  0  3  0  0  0  0  0  0
  160.8000  210.2360  156.8320 C   0  0  0  0  0  2  0  0  0  0  0  0
  161.5570  203.7310  148.8780 C   0  0  2  0  0  3  0  0  0  0  0  0
  161.3460  208.4690  151.1600 C   0  0  2  0  0  3  0  0  0  0  0  0
  160.3750  208.3460  155.2900 C   0  0  1  0  0  3  0  0  0  0  0  0
  161.4200  207.1650  151.8480 N   0  0  1  0  0  0  0  0  0  0  0  0
  161.3470  210.9030  149.9190 C   0  0  0  0  0  2  0  0  0  0  0  0
  160.5400  203.5550  151.1560 C   0  0  0  0  0  3  0  0  0  0  0  0
  161.9930  210.9400  151.3060 C   0  0  0  0  0  2  0  0  0  0  0  0
  161.3000  204.7390  151.6780 C   0  0  0  0  0  2  0  0  0  0  0  0
  161.0320  205.1360  148.5900 C   0  0  1  0  0  3  0  0  0  0  0  0
  161.9630  209.7930  149.0650 C   0  0  0  0  0  2  0  0  0  0  0  0
  161.2740  207.4170  148.9920 N   0  0  1  0  0  0  0  0  0  0  0  0
  161.5310  202.9520  147.7190 O   0  0  0  0  0  0  0  0  0  0  0  0
  161.5870  201.6320  148.1740 C   0  0  0  0  0  2  0  0  0  0  0  0
  160.4490  201.3030  145.1450 O   0  0  0  0  0  0  0  0  0  0  0  0
  161.2220  199.6920  146.6870 C   0  0  0  0  0  2  0  0  0  0  0  0
  160.5470  200.7910  147.4560 C   0  0  2  0  0  3  0  0  0  0  0  0
  160.8310  199.9580  145.2540 C   0  0  0  0  0  2  0  0  0  0  0  0
  159.8780  201.6240  146.3850 C   0  0  0  0  0  2  0  0  0  0  0  0
  1 26  1  6  0  0  0
  1 18  1  0  0  0  0
  2 27  1  0  0  0  0
  3 16  1  1  0  0  0
  3  7  1  0  0  0  0
  4 23  1  6  0  0  0
  4 15  1  0  0  0  0
  5 11  1  6  0  0  0
  5 19  1  0  0  0  0
  6  7  1  0  0  0  0
  8 16  1  0  0  0  0
  9 13  1  0  0  0  0
 10 22  2  0  0  0  0
 12  8  1  0  0  0  0
 13 24  1  0  0  0  0
 13 20  1  0  0  0  0
 14  2  1  0  0  0  0
 14 25  1  0  0  0  0
 15  5  1  0  0  0  0
 15 12  1  0  0  0  0
 17 10  1  0  0  0  0
 18 20  1  0  0  0  0
 18  4  1  0  0  0  0
 19  6  1  0  0  0  0
 19  3  1  0  0  0  0
 20 11  1  0  0  0  0
 21 23  1  0  0  0  0
 22 24  1  0  0  0  0
 25 17  1  0  0  0  0
 25  9  1  0  0  0  0
 26 21  1  0  0  0  0
 27  9  1  0  0  0  0
 27  1  1  0  0  0  0
 28 29  1  0  0  0  0
 28 17  1  0  0  0  0
 30 33  1  0  0  0  0
 30 34  1  0  0  0  0
 31 32  1  0  0  0  0
 32 29  1  0  0  0  0
 33 31  1  0  0  0  0
 34 32  1  0  0  0  0
M  END
>  <MODEL>
3

>  <REMARK>
 VINA RESULT:      -7.5      3.915      9.319
  Name = 
  3 active torsions:
  status: ('A' for Active; 'I' for Inactive)
    1  A    between atoms: C_17  and  O_28
    2  A    between atoms: O_28  and  C_29
    3  A    between atoms: C_29  and  C_32
                            x       y       z     vdW  Elec       q    Type
                         _______ _______ _______ _____ _____    ______ ____

>  <TORSDO>
F 3

$$$$
=
 OpenBabel11122414283D

 34 41  0  0  1  0  0  0  0  0999 V2000
  161.3430  205.1190  152.1860 C   0  0  2  0  0  3  0  0  0  0  0  0
  161.0920  206.5090  154.1650 C   0  0  0  0  0  2  0  0  0  0  0  0
  161.8010  204.2550  145.6190 C   0  0  2  0  0  3  0  0  0  0  0  0
  161.4740  203.8040  150.0260 C   0  0  1  0  0  3  0  0  0  0  0  0
  161.4400  205.0910  147.8520 C   0  0  1  0  0  3  0  0  0  0  0  0
  161.2780  206.2070  145.5150 C   0  0  0  0  0  2  0  0  0  0  0  0
  162.0190  205.3040  144.6370 N   0  0  0  0  0  2  0  0  0  0  0  0
  160.4620  201.9760  146.4890 S   0  0  0  0  0  0  0  0  0  0  0  0
  161.4270  207.4590  152.1450 C   0  0  1  0  0  3  0  0  0  0  0  0
  161.4440  210.5740  151.5690 C   0  0  0  0  0  3  0  0  0  0  0  0
  160.9100  206.2820  148.6450 C   0  0  0  0  0  2  0  0  0  0  0  0
  161.5900  202.5340  147.8360 C   0  0  0  0  0  2  0  0  0  0  0  0
  161.1200  207.5500  150.6420 C   0  0  2  0  0  3  0  0  0  0  0  0
  161.1530  208.0190  154.4000 C   0  0  0  0  0  2  0  0  0  0  0  0
  161.0320  203.7750  148.5570 C   0  0  1  0  0  3  0  0  0  0  0  0
  161.0890  203.0210  145.1000 C   0  0  0  0  0  2  0  0  0  0  0  0
  161.9330  209.8350  152.7820 C   0  0  2  0  0  3  0  0  0  0  0  0
  160.9750  205.1020  150.6910 C   0  0  2  0  0  3  0  0  0  0  0  0
  160.8680  205.0870  146.4470 C   0  0  1  0  0  3  0  0  0  0  0  0
  161.5040  206.2850  149.9830 N   0  0  1  0  0  0  0  0  0  0  0  0
  160.1300  202.8570  151.9980 C   0  0  0  0  0  2  0  0  0  0  0  0
  161.4450  210.0460  150.3390 C   0  0  0  0  0  3  0  0  0  0  0  0
  160.9960  202.5450  150.7770 C   0  0  0  0  0  2  0  0  0  0  0  0
  161.9670  208.6740  150.0310 C   0  0  0  0  0  2  0  0  0  0  0  0
  161.0270  208.6270  153.0110 C   0  0  1  0  0  3  0  0  0  0  0  0
  160.8310  203.8590  152.9180 C   0  0  0  0  0  2  0  0  0  0  0  0
  160.7600  206.3270  152.7550 N   0  0  1  0  0  0  0  0  0  0  0  0
  161.8840  210.6980  153.8800 O   0  0  0  0  0  0  0  0  0  0  0  0
  162.9720  210.3280  154.6750 C   0  0  0  0  0  2  0  0  0  0  0  0
  162.5400  212.2580  157.2560 O   0  0  0  0  0  0  0  0  0  0  0  0
  161.1160  210.6530  156.2730 C   0  0  0  0  0  2  0  0  0  0  0  0
  162.5320  210.1790  156.1190 C   0  0  2  0  0  3  0  0  0  0  0  0
  161.2170  211.7910  157.2600 C   0  0  0  0  0  2  0  0  0  0  0  0
  163.3270  211.1290  156.9880 C   0  0  0  0  0  2  0  0  0  0  0  0
  1 27  1  0  0  0  0
  1 26  1  1  0  0  0
  2 14  1  0  0  0  0
  3 16  1  6  0  0  0
  3 19  1  0  0  0  0
  4 18  1  0  0  0  0
  4 23  1  1  0  0  0
  5 15  1  0  0  0  0
  5 11  1  1  0  0  0
  6 19  1  0  0  0  0
  7  6  1  0  0  0  0
  7  3  1  0  0  0  0
  8 12  1  0  0  0  0
  9 27  1  0  0  0  0
  9 25  1  0  0  0  0
 10 17  1  0  0  0  0
 11 20  1  0  0  0  0
 12 15  1  0  0  0  0
 13  9  1  0  0  0  0
 15  4  1  0  0  0  0
 16  8  1  0  0  0  0
 17 25  1  0  0  0  0
 17 28  1  0  0  0  0
 18  1  1  0  0  0  0
 19  5  1  0  0  0  0
 20 13  1  0  0  0  0
 20 18  1  0  0  0  0
 21 26  1  0  0  0  0
 22 10  2  0  0  0  0
 23 21  1  0  0  0  0
 24 22  1  0  0  0  0
 24 13  1  0  0  0  0
 25 14  1  0  0  0  0
 27  2  1  0  0  0  0
 28 29  1  0  0  0  0
 29 32  1  0  0  0  0
 30 33  1  0  0  0  0
 31 33  1  0  0  0  0
 32 31  1  0  0  0  0
 32 34  1  0  0  0  0
 34 30  1  0  0  0  0
M  END
>  <MODEL>
4

>  <REMARK>
 VINA RESULT:      -6.6      0.968      1.353
  Name = 
  3 active torsions:
  status: ('A' for Active; 'I' for Inactive)
    1  A    between atoms: C_17  and  O_28
    2  A    between atoms: O_28  and  C_29
    3  A    between atoms: C_29  and  C_32
                            x       y       z     vdW  Elec       q    Type
                         _______ _______ _______ _____ _____    ______ ____

>  <TORSDO>
F 3

$$$$
=
 OpenBabel11122414283D

 34 41  0  0  1  0  0  0  0  0999 V2000
  160.4980  207.1230  153.8830 C   0  0  2  0  0  3  0  0  0  0  0  0
  161.5040  205.0850  153.0190 C   0  0  0  0  0  2  0  0  0  0  0  0
  158.8060  213.5240  153.3800 C   0  0  2  0  0  3  0  0  0  0  0  0
  159.6050  209.3530  154.6830 C   0  0  1  0  0  3  0  0  0  0  0  0
  159.7600  211.3250  153.1120 C   0  0  1  0  0  3  0  0  0  0  0  0
  159.9510  213.5000  151.7100 C   0  0  0  0  0  2  0  0  0  0  0  0
  158.8220  214.3130  152.1590 N   0  0  0  0  0  2  0  0  0  0  0  0
  159.3890  213.2090  156.0820 S   0  0  0  0  0  0  0  0  0  0  0  0
  161.2240  206.8720  151.6700 C   0  0  1  0  0  3  0  0  0  0  0  0
  162.1990  207.0650  148.6630 C   0  0  0  0  0  3  0  0  0  0  0  0
  160.7790  210.5190  152.3120 C   0  0  0  0  0  2  0  0  0  0  0  0
  158.7350  211.6100  155.4410 C   0  0  0  0  0  2  0  0  0  0  0  0
  161.3180  208.3850  151.4170 C   0  0  2  0  0  3  0  0  0  0  0  0
  162.0030  204.6670  151.6350 C   0  0  0  0  0  2  0  0  0  0  0  0
  159.7870  210.8730  154.5910 C   0  0  1  0  0  3  0  0  0  0  0  0
  158.9640  214.3140  154.6630 C   0  0  0  0  0  2  0  0  0  0  0  0
  161.6700  205.8750  149.4090 C   0  0  2  0  0  3  0  0  0  0  0  0
  160.6130  208.6530  153.7520 C   0  0  2  0  0  3  0  0  0  0  0  0
  160.0810  212.8050  153.0490 C   0  0  1  0  0  3  0  0  0  0  0  0
  160.4280  209.0980  152.3570 N   0  0  1  0  0  0  0  0  0  0  0  0
  160.8140  207.8110  156.3430 C   0  0  0  0  0  2  0  0  0  0  0  0
  161.8350  208.3240  148.9360 C   0  0  0  0  0  3  0  0  0  0  0  0
  159.7230  208.8640  156.1410 C   0  0  0  0  0  2  0  0  0  0  0  0
  160.8310  208.6810  149.9920 C   0  0  0  0  0  2  0  0  0  0  0  0
  162.1250  205.9730  150.8630 C   0  0  1  0  0  3  0  0  0  0  0  0
  160.6460  206.6600  155.3490 C   0  0  0  0  0  2  0  0  0  0  0  0
  161.5400  206.5440  153.0450 N   0  0  1  0  0  0  0  0  0  0  0  0
  162.1750  204.7150  148.8160 O   0  0  0  0  0  0  0  0  0  0  0  0
  161.2660  204.4060  147.8010 C   0  0  0  0  0  2  0  0  0  0  0  0
  160.5130  203.9580  144.6690 O   0  0  0  0  0  0  0  0  0  0  0  0
  162.0480  205.4300  145.6930 C   0  0  0  0  0  2  0  0  0  0  0  0
  162.0050  204.1640  146.4980 C   0  0  2  0  0  3  0  0  0  0  0  0
  161.3230  205.0750  144.4180 C   0  0  0  0  0  2  0  0  0  0  0  0
  161.2060  203.2130  145.6350 C   0  0  0  0  0  2  0  0  0  0  0  0
  1 26  1  1  0  0  0
  2 27  1  0  0  0  0
  3 16  1  1  0  0  0
  4 23  1  1  0  0  0
  5 11  1  6  0  0  0
  5 15  1  0  0  0  0
  6  7  1  0  0  0  0
  6 19  1  0  0  0  0
  7  3  1  0  0  0  0
  9 27  1  0  0  0  0
 10 22  2  0  0  0  0
 10 17  1  0  0  0  0
 11 20  1  0  0  0  0
 12  8  1  0  0  0  0
 13  9  1  0  0  0  0
 13 20  1  0  0  0  0
 14  2  1  0  0  0  0
 15  4  1  0  0  0  0
 15 12  1  0  0  0  0
 16  8  1  0  0  0  0
 17 25  1  0  0  0  0
 18  1  1  0  0  0  0
 18  4  1  0  0  0  0
 19  5  1  0  0  0  0
 19  3  1  0  0  0  0
 20 18  1  0  0  0  0
 22 24  1  0  0  0  0
 23 21  1  0  0  0  0
 24 13  1  0  0  0  0
 25 14  1  0  0  0  0
 25  9  1  0  0  0  0
 26 21  1  0  0  0  0
 27  1  1  0  0  0  0
 28 17  1  0  0  0  0
 29 28  1  0  0  0  0
 30 34  1  0  0  0  0
 31 32  1  0  0  0  0
 32 29  1  0  0  0  0
 33 30  1  0  0  0  0
 33 31  1  0  0  0  0
 34 32  1  0  0  0  0
M  END
>  <MODEL>
5

>  <REMARK>
 VINA RESULT:      -6.6      4.022      8.663
  Name = 
  3 active torsions:
  status: ('A' for Active; 'I' for Inactive)
    1  A    between atoms: C_17  and  O_28
    2  A    between atoms: O_28  and  C_29
    3  A    between atoms: C_29  and  C_32
                            x       y       z     vdW  Elec       q    Type
                         _______ _______ _______ _____ _____    ______ ____

>  <TORSDO>
F 3

$$$$
