=
 OpenBabel11122414383D

 34 40  0  0  1  0  0  0  0  0999 V2000
  161.7220  208.2580  154.8490 C   0  0  1  0  0  3  0  0  0  0  0  0
  160.5560  206.3030  153.9580 C   0  0  0  0  0  2  0  0  0  0  0  0
  157.3500  212.8110  154.0920 C   0  0  0  0  0  0  0  0  0  0  0  0
  160.5730  210.3120  155.6520 C   0  0  2  0  0  3  0  0  0  0  0  0
  159.7550  211.9920  153.9490 C   0  0  2  0  0  3  0  0  0  0  0  0
  158.7380  213.3590  152.2120 F   0  0  0  0  0  0  0  0  0  0  0  0
  156.4680  212.4500  153.3290 O   0  0  0  0  0  0  0  0  0  0  0  0
  158.2730  213.4140  156.3540 C   0  0  0  0  0  2  0  0  0  0  0  0
  161.8480  207.5660  152.4860 C   0  0  2  0  0  3  0  0  0  0  0  0
  161.6020  207.3700  149.3370 C   0  0  0  0  0  2  0  0  0  0  0  0
  159.8040  210.8990  152.8790 C   0  0  0  0  0  2  0  0  0  0  0  0
  159.4080  212.3850  156.4810 C   0  0  0  0  0  2  0  0  0  0  0  0
  160.9860  208.8170  152.1080 C   0  0  1  0  0  3  0  0  0  0  0  0
  160.4540  205.5910  152.6220 C   0  0  0  0  0  2  0  0  0  0  0  0
  159.5000  211.3580  155.3400 C   0  0  2  0  0  3  0  0  0  0  0  0
  157.0570  212.9190  155.5650 C   0  0  0  0  0  2  0  0  0  0  0  0
  160.7110  206.6260  150.3380 C   0  0  2  0  0  3  0  0  0  0  0  0
  160.6100  209.2490  154.5420 C   0  0  1  0  0  3  0  0  0  0  0  0
  158.7380  213.0850  153.5700 C   0  0  1  0  0  3  0  0  0  0  0  0
  160.9070  209.8900  153.1980 C   0  0  2  0  0  3  0  0  0  0  0  0
  161.4760  208.9700  157.2270 C   0  0  0  0  0  2  0  0  0  0  0  0
  162.3330  208.5820  149.9120 C   0  0  0  0  0  2  0  0  0  0  0  0
  160.3120  209.6840  156.8850 O   0  0  0  0  0  0  0  0  0  0  0  0
  161.4460  209.4700  150.7890 C   0  0  0  0  0  2  0  0  0  0  0  0
  161.3990  206.3300  151.6850 C   0  0  1  0  0  3  0  0  0  0  0  0
  161.6470  207.7650  156.2980 C   0  0  0  0  0  2  0  0  0  0  0  0
  161.7460  207.1440  153.8920 N   0  0  1  0  0  0  0  0  0  0  0  0
  160.2430  205.3910  149.7260 N   0  0  0  0  0  2  0  0  0  0  0  0
  161.1170  205.1230  148.5970 C   0  0  0  0  0  2  0  0  0  0  0  0
  160.1830  201.7120  149.0260 C   0  0  0  0  0  2  0  0  0  0  0  0
  161.2460  203.0090  147.3100 C   0  0  0  0  0  2  0  0  0  0  0  0
  161.5760  203.6760  148.6270 C   0  0  0  0  0  3  0  0  0  0  0  0
  160.8330  201.6000  147.6660 C   0  0  0  0  0  2  0  0  0  0  0  0
  160.8330  202.9020  149.7060 C   0  0  0  0  0  2  0  0  0  0  0  0
  1 26  1  1  0  0  0
  3 16  1  0  0  0  0
  4 23  1  1  0  0  0
  5 11  1  6  0  0  0
  5 15  1  0  0  0  0
  6 19  1  0  0  0  0
  7  3  2  0  0  0  0
  8 12  1  0  0  0  0
  9 27  1  0  0  0  0
 10 22  1  0  0  0  0
 10 17  1  0  0  0  0
 11 20  1  0  0  0  0
 13  9  1  0  0  0  0
 13 20  1  0  0  0  0
 14  2  1  0  0  0  0
 15  4  1  0  0  0  0
 15 12  1  0  0  0  0
 16  8  1  0  0  0  0
 17 25  1  0  0  0  0
 18  1  1  0  0  0  0
 18  4  1  0  0  0  0
 19  5  1  0  0  0  0
 19  3  1  0  0  0  0
 20 18  1  0  0  0  0
 22 24  1  0  0  0  0
 23 21  1  0  0  0  0
 24 13  1  0  0  0  0
 25  9  1  0  0  0  0
 25 14  1  0  0  0  0
 26 21  1  0  0  0  0
 27  2  1  0  0  0  0
 27  1  1  0  0  0  0
 28 17  1  0  0  0  0
 29 32  1  0  0  0  0
 29 28  1  0  0  0  0
 30 34  1  0  0  0  0
 31 33  1  0  0  0  0
 31 32  1  0  0  0  0
 32 34  1  0  0  0  0
 33 30  1  0  0  0  0
M  END
>  <MODEL>
1

>  <REMARK>
 VINA RESULT:      -8.1      0.000      0.000
  Name = 
  3 active torsions:
  status: ('A' for Active; 'I' for Inactive)
    1  A    between atoms: C_17  and  N_28
    2  A    between atoms: N_28  and  C_29
    3  A    between atoms: C_29  and  C_32
                            x       y       z     vdW  Elec       q    Type
                         _______ _______ _______ _____ _____    ______ ____

>  <TORSDO>
F 3

$$$$
=
 OpenBabel11122414383D

 34 40  0  0  1  0  0  0  0  0999 V2000
  161.6120  208.1350  154.8010 C   0  0  1  0  0  3  0  0  0  0  0  0
  160.7730  206.2850  153.4420 C   0  0  0  0  0  2  0  0  0  0  0  0
  156.6210  212.0720  154.8250 C   0  0  0  0  0  0  0  0  0  0  0  0
  160.1500  209.7720  155.9720 C   0  0  2  0  0  3  0  0  0  0  0  0
  159.1240  211.6570  154.6370 C   0  0  2  0  0  3  0  0  0  0  0  0
  157.9500  213.2200  153.1890 F   0  0  0  0  0  0  0  0  0  0  0  0
  155.8190  211.7700  153.9560 O   0  0  0  0  0  0  0  0  0  0  0  0
  157.3950  212.2770  157.2110 C   0  0  0  0  0  2  0  0  0  0  0  0
  161.8910  208.0170  152.3540 C   0  0  2  0  0  3  0  0  0  0  0  0
  161.7430  208.5010  149.2310 C   0  0  0  0  0  2  0  0  0  0  0  0
  159.3600  210.8500  153.3570 C   0  0  0  0  0  2  0  0  0  0  0  0
  158.6690  211.4170  157.1710 C   0  0  0  0  0  2  0  0  0  0  0  0
  160.8580  209.1860  152.2140 C   0  0  1  0  0  3  0  0  0  0  0  0
  160.8080  205.8840  151.9790 C   0  0  0  0  0  2  0  0  0  0  0  0
  158.9380  210.6970  155.8390 C   0  0  2  0  0  3  0  0  0  0  0  0
  156.2840  211.8030  156.2680 C   0  0  0  0  0  2  0  0  0  0  0  0
  160.9530  207.4320  149.9940 C   0  0  2  0  0  3  0  0  0  0  0  0
  160.3700  209.0010  154.6600 C   0  0  1  0  0  3  0  0  0  0  0  0
  157.9620  212.6510  154.4520 C   0  0  1  0  0  3  0  0  0  0  0  0
  160.5950  209.9630  153.5070 C   0  0  2  0  0  3  0  0  0  0  0  0
  161.2120  208.2520  157.2600 C   0  0  0  0  0  2  0  0  0  0  0  0
  162.2710  209.6440  150.0960 C   0  0  0  0  0  2  0  0  0  0  0  0
  159.9610  208.8520  157.0210 O   0  0  0  0  0  0  0  0  0  0  0  0
  161.2420  210.1770  151.0970 C   0  0  0  0  0  2  0  0  0  0  0  0
  161.6500  206.9420  151.2790 C   0  0  1  0  0  3  0  0  0  0  0  0
  161.5830  207.3240  156.1010 C   0  0  0  0  0  2  0  0  0  0  0  0
  161.8250  207.2800  153.6260 N   0  0  1  0  0  0  0  0  0  0  0  0
  160.6900  206.3130  149.1030 N   0  0  0  0  0  2  0  0  0  0  0  0
  161.2390  206.6690  147.8050 C   0  0  0  0  0  2  0  0  0  0  0  0
  161.2310  203.2030  146.9840 C   0  0  0  0  0  2  0  0  0  0  0  0
  161.5930  205.2570  145.8000 C   0  0  0  0  0  2  0  0  0  0  0  0
  162.0180  205.4990  147.2320 C   0  0  0  0  0  3  0  0  0  0  0  0
  161.6000  203.7570  145.6270 C   0  0  0  0  0  2  0  0  0  0  0  0
  161.7090  204.2230  147.9990 C   0  0  0  0  0  2  0  0  0  0  0  0
  1 26  1  1  0  0  0
  2 27  1  0  0  0  0
  3 16  1  0  0  0  0
  4 23  1  1  0  0  0
  5 11  1  6  0  0  0
  5 15  1  0  0  0  0
  6 19  1  0  0  0  0
  7  3  2  0  0  0  0
  9 27  1  0  0  0  0
 10 17  1  0  0  0  0
 10 22  1  0  0  0  0
 11 20  1  0  0  0  0
 12  8  1  0  0  0  0
 13  9  1  0  0  0  0
 13 20  1  0  0  0  0
 14  2  1  0  0  0  0
 15  4  1  0  0  0  0
 15 12  1  0  0  0  0
 16  8  1  0  0  0  0
 17 25  1  0  0  0  0
 18  1  1  0  0  0  0
 18  4  1  0  0  0  0
 19  5  1  0  0  0  0
 19  3  1  0  0  0  0
 20 18  1  0  0  0  0
 22 24  1  0  0  0  0
 23 21  1  0  0  0  0
 24 13  1  0  0  0  0
 25 14  1  0  0  0  0
 25  9  1  0  0  0  0
 26 21  1  0  0  0  0
 27  1  1  0  0  0  0
 28 17  1  0  0  0  0
 29 28  1  0  0  0  0
 30 34  1  0  0  0  0
 31 32  1  0  0  0  0
 32 29  1  0  0  0  0
 32 34  1  0  0  0  0
 33 31  1  0  0  0  0
 33 30  1  0  0  0  0
M  END
>  <MODEL>
2

>  <REMARK>
 VINA RESULT:      -8.1      1.101      1.370
  Name = 
  3 active torsions:
  status: ('A' for Active; 'I' for Inactive)
    1  A    between atoms: C_17  and  N_28
    2  A    between atoms: N_28  and  C_29
    3  A    between atoms: C_29  and  C_32
                            x       y       z     vdW  Elec       q    Type
                         _______ _______ _______ _____ _____    ______ ____

>  <TORSDO>
F 3

$$$$
=
 OpenBabel11122414383D

 34 40  0  0  1  0  0  0  0  0999 V2000
  161.5550  210.8210  151.2720 C   0  0  1  0  0  3  0  0  0  0  0  0
  159.3180  211.4710  152.0110 C   0  0  0  0  0  2  0  0  0  0  0  0
  160.7430  204.6420  150.0190 C   0  0  0  0  0  0  0  0  0  0  0  0
  162.0290  208.8120  149.8850 C   0  0  2  0  0  3  0  0  0  0  0  0
  162.1060  206.5490  151.0080 C   0  0  2  0  0  3  0  0  0  0  0  0
  161.8340  204.4150  152.1450 F   0  0  0  0  0  0  0  0  0  0  0  0
  159.7060  204.2260  150.5110 O   0  0  0  0  0  0  0  0  0  0  0  0
  162.2150  205.3240  148.0950 C   0  0  0  0  0  2  0  0  0  0  0  0
  160.8330  210.7470  153.6280 C   0  0  2  0  0  3  0  0  0  0  0  0
  159.9820  209.8520  156.5420 C   0  0  0  0  0  2  0  0  0  0  0  0
  161.3040  207.1260  152.1770 C   0  0  0  0  0  2  0  0  0  0  0  0
  162.5050  206.7880  148.4650 C   0  0  0  0  0  2  0  0  0  0  0  0
  160.8450  209.1840  153.5480 C   0  0  1  0  0  3  0  0  0  0  0  0
  158.5820  211.5890  153.3330 C   0  0  0  0  0  2  0  0  0  0  0  0
  161.7640  207.3150  149.7050 C   0  0  2  0  0  3  0  0  0  0  0  0
  160.8320  204.8260  148.5270 C   0  0  0  0  0  2  0  0  0  0  0  0
  159.0110  210.2480  155.4240 C   0  0  2  0  0  3  0  0  0  0  0  0
  161.2290  209.3470  151.0830 C   0  0  1  0  0  3  0  0  0  0  0  0
  161.9020  205.0260  150.9030 C   0  0  1  0  0  3  0  0  0  0  0  0
  161.6140  208.6130  152.3540 C   0  0  2  0  0  3  0  0  0  0  0  0
  162.1980  210.8180  148.8620 C   0  0  0  0  0  2  0  0  0  0  0  0
  161.3800  209.4610  156.0640 C   0  0  0  0  0  2  0  0  0  0  0  0
  161.6590  209.5240  148.7270 O   0  0  0  0  0  0  0  0  0  0  0  0
  161.3700  208.5350  154.8450 C   0  0  0  0  0  2  0  0  0  0  0  0
  159.6030  211.2460  154.4080 C   0  0  1  0  0  3  0  0  0  0  0  0
  161.4500  211.5900  149.9510 C   0  0  0  0  0  2  0  0  0  0  0  0
  160.7410  211.4340  152.3300 N   0  0  1  0  0  0  0  0  0  0  0  0
  157.8000  210.7900  156.0200 N   0  0  0  0  0  2  0  0  0  0  0  0
  158.2150  211.8260  156.9500 C   0  0  0  0  0  2  0  0  0  0  0  0
  156.8770  214.4530  154.9490 C   0  0  0  0  0  2  0  0  0  0  0  0
  155.9900  212.5860  156.1660 C   0  0  0  0  0  2  0  0  0  0  0  0
  157.2600  213.0030  156.8750 C   0  0  0  0  0  3  0  0  0  0  0  0
  155.5810  213.7810  155.3380 C   0  0  0  0  0  2  0  0  0  0  0  0
  157.8650  214.1330  156.0550 C   0  0  0  0  0  2  0  0  0  0  0  0
  1 26  1  6  0  0  0
  1 27  1  0  0  0  0
  2 27  1  0  0  0  0
  2 14  1  0  0  0  0
  3  7  2  0  0  0  0
  3 19  1  0  0  0  0
  4 23  1  6  0  0  0
  4 18  1  0  0  0  0
  5 11  1  1  0  0  0
  8 12  1  0  0  0  0
  8 16  1  0  0  0  0
  9 25  1  0  0  0  0
 11 20  1  0  0  0  0
 12 15  1  0  0  0  0
 13  9  1  0  0  0  0
 13 24  1  0  0  0  0
 14 25  1  0  0  0  0
 15  4  1  0  0  0  0
 15  5  1  0  0  0  0
 16  3  1  0  0  0  0
 17 28  1  0  0  0  0
 17 10  1  0  0  0  0
 18  1  1  0  0  0  0
 18 20  1  0  0  0  0
 19  5  1  0  0  0  0
 19  6  1  0  0  0  0
 20 13  1  0  0  0  0
 21 26  1  0  0  0  0
 22 10  1  0  0  0  0
 23 21  1  0  0  0  0
 24 22  1  0  0  0  0
 25 17  1  0  0  0  0
 27  9  1  0  0  0  0
 28 29  1  0  0  0  0
 30 33  1  0  0  0  0
 30 34  1  0  0  0  0
 31 32  1  0  0  0  0
 32 29  1  0  0  0  0
 33 31  1  0  0  0  0
 34 32  1  0  0  0  0
M  END
>  <MODEL>
3

>  <REMARK>
 VINA RESULT:      -7.0      3.182      8.762
  Name = 
  3 active torsions:
  status: ('A' for Active; 'I' for Inactive)
    1  A    between atoms: C_17  and  N_28
    2  A    between atoms: N_28  and  C_29
    3  A    between atoms: C_29  and  C_32
                            x       y       z     vdW  Elec       q    Type
                         _______ _______ _______ _____ _____    ______ ____

>  <TORSDO>
F 3

$$$$
