=
 OpenBabel11122414113D

 28 32  0  0  1  0  0  0  0  0999 V2000
  161.4300  208.7560  155.9030 C   0  0  2  0  0  3  0  0  0  0  0  0
  162.6080  207.1880  153.6810 O   0  0  0  0  0  0  0  0  0  0  0  0
  159.3320  214.1600  152.9730 O   0  0  0  0  0  0  0  0  0  0  0  0
  159.5110  206.6560  156.1620 C   0  0  0  0  0  3  0  0  0  0  0  0
  160.1250  212.2690  151.7930 N   0  0  0  0  0  0  0  0  0  0  0  0
  162.0860  210.1140  156.1530 C   0  0  0  0  0  2  0  0  0  0  0  0
  160.5960  206.2400  152.6180 O   0  0  0  0  0  0  0  0  0  0  0  0
  161.5970  207.3590  152.5850 S   0  0  0  0  0  0  0  0  0  0  0  0
  161.6510  208.2070  150.0080 C   0  0  2  0  0  3  0  0  0  0  0  0
  160.7900  208.8870  152.7210 N   0  0  0  0  0  0  0  0  0  0  0  0
  158.9890  211.0400  156.6630 O   0  0  0  0  0  1  0  0  0  0  0  0
  159.7630  210.7160  153.4580 C   0  0  0  0  0  0  0  0  0  0  0  0
  161.5580  209.6670  150.4510 C   0  0  0  0  0  2  0  0  0  0  0  0
  162.4360  207.3650  151.0120 C   0  0  0  0  0  2  0  0  0  0  0  0
  160.1720  211.7820  156.5980 C   0  0  2  0  0  3  0  0  0  0  0  0
  160.0760  208.8490  155.1790 C   0  0  2  0  0  3  0  0  0  0  0  0
  159.6120  212.9320  152.9550 C   0  0  0  0  0  0  0  0  0  0  0  0
  162.3310  208.1350  148.6580 C   0  0  0  0  0  1  0  0  0  0  0  0
  160.4560  212.3630  155.2060 C   0  0  0  0  0  2  0  0  0  0  0  0
  159.3510  207.5300  155.1640 C   0  0  0  0  0  3  0  0  0  0  0  0
  161.3340  207.9380  157.1660 C   0  0  0  0  0  3  0  0  0  0  0  0
  160.4560  206.9350  157.2600 C   0  0  0  0  0  3  0  0  0  0  0  0
  161.3530  210.9960  157.1720 C   0  0  0  0  0  2  0  0  0  0  0  0
  160.1120  210.9120  152.1740 C   0  0  0  0  0  0  0  0  0  0  0  0
  159.4190  212.0070  154.1410 C   0  0  2  0  0  3  0  0  0  0  0  0
  160.7680  209.7950  151.7180 C   0  0  0  0  0  0  0  0  0  0  0  0
  160.1160  212.7780  150.4330 C   0  0  0  0  0  1  0  0  0  0  0  0
  160.1790  209.4430  153.8060 C   0  0  0  0  0  0  0  0  0  0  0  0
  1  6  1  1  0  0  0
  1 21  1  0  0  0  0
  4 22  1  0  0  0  0
  5 24  1  0  0  0  0
  5 17  1  0  0  0  0
  6 23  1  0  0  0  0
  8  7  2  0  0  0  0
  8 10  1  0  0  0  0
  8  2  2  0  0  0  0
  9 18  1  6  0  0  0
  9 13  1  0  0  0  0
  9 14  1  0  0  0  0
 10 28  1  0  0  0  0
 12 28  2  0  0  0  0
 12 25  1  0  0  0  0
 13 26  1  0  0  0  0
 14  8  1  0  0  0  0
 15 11  1  6  0  0  0
 15 23  1  0  0  0  0
 16 20  1  6  0  0  0
 16  1  1  0  0  0  0
 17  3  2  0  0  0  0
 17 25  1  0  0  0  0
 19 15  1  0  0  0  0
 20  4  2  0  0  0  0
 21 22  2  0  0  0  0
 24 12  1  0  0  0  0
 25 19  1  1  0  0  0
 26 24  2  0  0  0  0
 26 10  1  0  0  0  0
 27  5  1  0  0  0  0
 28 16  1  0  0  0  0
M  END
>  <MODEL>
1

>  <REMARK>
 VINA RESULT:      -4.1      0.000      0.000
  Name = 
  0 active torsions:
  status: ('A' for Active; 'I' for Inactive)
                            x       y       z     vdW  Elec       q    Type
                         _______ _______ _______ _____ _____    ______ ____

>  <TORSDO>
F 0

$$$$
=
 OpenBabel11122414113D

 28 32  0  0  1  0  0  0  0  0999 V2000
  160.4380  209.3650  154.1410 C   0  0  2  0  0  3  0  0  0  0  0  0
  157.9260  210.3270  155.3860 O   0  0  0  0  0  0  0  0  0  0  0  0
  160.8780  212.9160  148.7210 O   0  0  0  0  0  0  0  0  0  0  0  0
  161.7910  210.4130  156.4280 C   0  0  0  0  0  3  0  0  0  0  0  0
  159.2790  213.3280  150.4140 N   0  0  0  0  0  0  0  0  0  0  0  0
  160.2740  208.7420  152.7550 C   0  0  0  0  0  2  0  0  0  0  0  0
  158.6600  212.4400  156.4220 O   0  0  0  0  0  0  0  0  0  0  0  0
  158.0220  211.8160  155.2140 S   0  0  0  0  0  0  0  0  0  0  0  0
  156.4560  213.7520  154.1380 C   0  0  2  0  0  3  0  0  0  0  0  0
  158.9220  212.2160  153.7880 N   0  0  0  0  0  0  0  0  0  0  0  0
  163.0760  210.3280  152.1760 O   0  0  0  0  0  1  0  0  0  0  0  0
  160.4100  212.2950  152.1370 C   0  0  0  0  0  0  0  0  0  0  0  0
  156.9970  213.4600  152.7390 C   0  0  0  0  0  2  0  0  0  0  0  0
  156.3860  212.4850  154.9880 C   0  0  0  0  0  2  0  0  0  0  0  0
  162.2310  209.6140  151.3220 C   0  0  2  0  0  3  0  0  0  0  0  0
  161.0210  210.7880  154.1130 C   0  0  2  0  0  3  0  0  0  0  0  0
  160.4940  212.7600  149.9100 C   0  0  0  0  0  0  0  0  0  0  0  0
  155.0710  214.3520  154.0240 C   0  0  0  0  0  1  0  0  0  0  0  0
  161.2060  210.4960  150.5950 C   0  0  0  0  0  2  0  0  0  0  0  0
  161.3930  211.2750  155.4870 C   0  0  0  0  0  3  0  0  0  0  0  0
  161.2060  208.4640  155.0740 C   0  0  0  0  0  3  0  0  0  0  0  0
  161.8040  208.9620  156.1600 C   0  0  0  0  0  3  0  0  0  0  0  0
  161.5930  208.4230  152.0410 C   0  0  0  0  0  2  0  0  0  0  0  0
  159.3540  213.0550  151.7950 C   0  0  0  0  0  0  0  0  0  0  0  0
  161.2730  211.9810  150.9510 C   0  0  2  0  0  3  0  0  0  0  0  0
  158.4200  212.9930  152.8000 C   0  0  0  0  0  0  0  0  0  0  0  0
  158.4890  214.3740  149.7890 C   0  0  0  0  0  1  0  0  0  0  0  0
  160.1490  211.7710  153.3910 C   0  0  0  0  0  0  0  0  0  0  0  0
  1  6  1  6  0  0  0
  1 21  1  0  0  0  0
  3 17  2  0  0  0  0
  5 24  1  0  0  0  0
  8  2  2  0  0  0  0
  8  7  2  0  0  0  0
  9 18  1  6  0  0  0
  9 14  1  0  0  0  0
 10  8  1  0  0  0  0
 12 28  2  0  0  0  0
 13 26  1  0  0  0  0
 13  9  1  0  0  0  0
 14  8  1  0  0  0  0
 15 23  1  0  0  0  0
 15 11  1  1  0  0  0
 16  1  1  0  0  0  0
 16 20  1  1  0  0  0
 17  5  1  0  0  0  0
 17 25  1  0  0  0  0
 19 15  1  0  0  0  0
 20  4  2  0  0  0  0
 21 22  2  0  0  0  0
 22  4  1  0  0  0  0
 23  6  1  0  0  0  0
 24 12  1  0  0  0  0
 24 26  2  0  0  0  0
 25 19  1  6  0  0  0
 25 12  1  0  0  0  0
 26 10  1  0  0  0  0
 27  5  1  0  0  0  0
 28 10  1  0  0  0  0
 28 16  1  0  0  0  0
M  END
>  <MODEL>
2

>  <REMARK>
 VINA RESULT:      -4.1      2.445      5.200
  Name = 
  0 active torsions:
  status: ('A' for Active; 'I' for Inactive)
                            x       y       z     vdW  Elec       q    Type
                         _______ _______ _______ _____ _____    ______ ____

>  <TORSDO>
F 0

$$$$
=
 OpenBabel11122414113D

 28 32  0  0  1  0  0  0  0  0999 V2000
  161.3370  210.3430  155.0580 C   0  0  2  0  0  3  0  0  0  0  0  0
  162.9380  210.3060  152.5640 O   0  0  0  0  0  0  0  0  0  0  0  0
  156.5030  214.4530  153.6720 O   0  0  0  0  0  0  0  0  0  0  0  0
  160.7990  207.5800  154.5710 C   0  0  0  0  0  3  0  0  0  0  0  0
  158.0380  213.6640  152.0550 N   0  0  0  0  0  0  0  0  0  0  0  0
  161.2240  211.7100  155.7330 C   0  0  0  0  0  2  0  0  0  0  0  0
  161.6070  208.7980  151.1390 O   0  0  0  0  0  0  0  0  0  0  0  0
  161.8840  210.2300  151.4980 S   0  0  0  0  0  0  0  0  0  0  0  0
  161.2550  211.6670  149.2840 C   0  0  2  0  0  3  0  0  0  0  0  0
  160.4260  211.0110  152.0130 N   0  0  0  0  0  0  0  0  0  0  0  0
  158.1540  210.7170  156.2760 O   0  0  0  0  0  1  0  0  0  0  0  0
  158.6800  211.7540  153.1730 C   0  0  0  0  0  0  0  0  0  0  0  0
  160.4690  212.6760  150.1210 C   0  0  0  0  0  2  0  0  0  0  0  0
  162.4500  211.1100  150.0540 C   0  0  0  0  0  2  0  0  0  0  0  0
  158.7770  211.9460  156.5080 C   0  0  2  0  0  3  0  0  0  0  0  0
  160.0660  209.9220  154.3010 C   0  0  2  0  0  3  0  0  0  0  0  0
  157.3690  213.6090  153.3200 C   0  0  0  0  0  0  0  0  0  0  0  0
  161.7460  212.3390  148.0200 C   0  0  0  0  0  1  0  0  0  0  0  0
  158.5920  212.9540  155.3650 C   0  0  0  0  0  2  0  0  0  0  0  0
  160.1210  208.4850  153.8580 C   0  0  0  0  0  3  0  0  0  0  0  0
  161.7920  209.2770  156.0230 C   0  0  0  0  0  3  0  0  0  0  0  0
  161.5660  207.9860  155.7650 C   0  0  0  0  0  3  0  0  0  0  0  0
  160.2420  211.7590  156.9100 C   0  0  0  0  0  2  0  0  0  0  0  0
  158.7580  212.4530  152.0270 C   0  0  0  0  0  0  0  0  0  0  0  0
  157.7890  212.4290  154.1740 C   0  0  2  0  0  3  0  0  0  0  0  0
  159.8480  212.0160  151.3140 C   0  0  0  0  0  0  0  0  0  0  0  0
  157.6420  214.4530  150.9010 C   0  0  0  0  0  1  0  0  0  0  0  0
  159.7210  210.8410  153.1680 C   0  0  0  0  0  0  0  0  0  0  0  0
  1  6  1  1  0  0  0
  1 21  1  0  0  0  0
  4 22  1  0  0  0  0
  5 17  1  0  0  0  0
  6 23  1  0  0  0  0
  7  8  2  0  0  0  0
  8 10  1  0  0  0  0
  8  2  2  0  0  0  0
  9 18  1  6  0  0  0
  9 14  1  0  0  0  0
  9 13  1  0  0  0  0
 10 28  1  0  0  0  0
 12 25  1  0  0  0  0
 13 26  1  0  0  0  0
 14  8  1  0  0  0  0
 15 11  1  6  0  0  0
 15 23  1  0  0  0  0
 16 20  1  6  0  0  0
 16  1  1  0  0  0  0
 17  3  2  0  0  0  0
 17 25  1  0  0  0  0
 19 15  1  0  0  0  0
 20  4  2  0  0  0  0
 22 21  2  0  0  0  0
 24  5  1  0  0  0  0
 24 12  1  0  0  0  0
 25 19  1  1  0  0  0
 26 10  1  0  0  0  0
 26 24  2  0  0  0  0
 27  5  1  0  0  0  0
 28 12  2  0  0  0  0
 28 16  1  0  0  0  0
M  END
>  <MODEL>
3

>  <REMARK>
 VINA RESULT:      -3.9      2.013      2.485
  Name = 
  0 active torsions:
  status: ('A' for Active; 'I' for Inactive)
                            x       y       z     vdW  Elec       q    Type
                         _______ _______ _______ _____ _____    ______ ____

>  <TORSDO>
F 0

$$$$
=
 OpenBabel11122414113D

 28 32  0  0  1  0  0  0  0  0999 V2000
  160.2270  207.9190  154.9530 C   0  0  2  0  0  3  0  0  0  0  0  0
  158.8180  210.5210  155.1270 O   0  0  0  0  0  0  0  0  0  0  0  0
  162.6730  207.9400  148.9370 O   0  0  0  0  0  0  0  0  0  0  0  0
  161.9590  208.8950  157.0040 C   0  0  0  0  0  3  0  0  0  0  0  0
  161.6640  209.8340  149.9330 N   0  0  0  0  0  0  0  0  0  0  0  0
  159.7070  206.9750  153.8690 C   0  0  0  0  0  2  0  0  0  0  0  0
  160.6890  212.0750  155.5260 O   0  0  0  0  0  0  0  0  0  0  0  0
  159.7930  211.4660  154.4860 S   0  0  0  0  0  0  0  0  0  0  0  0
  159.7040  213.2680  152.4600 C   0  0  2  0  0  3  0  0  0  0  0  0
  160.7380  210.6560  153.2820 N   0  0  0  0  0  0  0  0  0  0  0  0
  162.8930  206.3280  153.4990 O   0  0  0  0  0  1  0  0  0  0  0  0
  161.9560  209.1960  152.1290 C   0  0  0  0  0  0  0  0  0  0  0  0
  159.9460  212.1680  151.4260 C   0  0  0  0  0  2  0  0  0  0  0  0
  158.8910  212.7540  153.6450 C   0  0  0  0  0  2  0  0  0  0  0  0
  161.7800  205.9190  152.7600 C   0  0  2  0  0  3  0  0  0  0  0  0
  161.5510  208.6090  154.5860 C   0  0  2  0  0  3  0  0  0  0  0  0
  162.2840  208.5430  149.9720 C   0  0  0  0  0  0  0  0  0  0  0  0
  158.9630  214.4140  151.8070 C   0  0  0  0  0  1  0  0  0  0  0  0
  161.4900  206.8100  151.5440 C   0  0  0  0  0  2  0  0  0  0  0  0
  162.1540  209.3370  155.7580 C   0  0  0  0  0  3  0  0  0  0  0  0
  160.3030  207.2410  156.2980 C   0  0  0  0  0  3  0  0  0  0  0  0
  161.0900  207.7290  157.2610 C   0  0  0  0  0  3  0  0  0  0  0  0
  160.5580  205.7170  153.6600 C   0  0  0  0  0  2  0  0  0  0  0  0
  161.5710  210.1790  151.2970 C   0  0  0  0  0  0  0  0  0  0  0  0
  162.4440  207.9920  151.3760 C   0  0  2  0  0  3  0  0  0  0  0  0
  160.7990  211.0740  151.9960 C   0  0  0  0  0  0  0  0  0  0  0  0
  161.6600  210.7570  148.8120 C   0  0  0  0  0  1  0  0  0  0  0  0
  161.4430  209.4930  153.3790 C   0  0  0  0  0  0  0  0  0  0  0  0
  1  6  1  6  0  0  0
  1 21  1  0  0  0  0
  3 17  2  0  0  0  0
  4 22  1  0  0  0  0
  5 17  1  0  0  0  0
  5 24  1  0  0  0  0
  8  2  2  0  0  0  0
  8  7  2  0  0  0  0
  9 18  1  6  0  0  0
  9 14  1  0  0  0  0
 10 28  1  0  0  0  0
 10  8  1  0  0  0  0
 12 28  2  0  0  0  0
 13 26  1  0  0  0  0
 13  9  1  0  0  0  0
 14  8  1  0  0  0  0
 15 11  1  1  0  0  0
 15 23  1  0  0  0  0
 16  1  1  0  0  0  0
 16 20  1  1  0  0  0
 17 25  1  0  0  0  0
 19 15  1  0  0  0  0
 20  4  2  0  0  0  0
 21 22  2  0  0  0  0
 23  6  1  0  0  0  0
 24 26  2  0  0  0  0
 24 12  1  0  0  0  0
 25 19  1  6  0  0  0
 25 12  1  0  0  0  0
 26 10  1  0  0  0  0
 27  5  1  0  0  0  0
 28 16  1  0  0  0  0
M  END
>  <MODEL>
4

>  <REMARK>
 VINA RESULT:      -3.2      1.937      4.858
  Name = 
  0 active torsions:
  status: ('A' for Active; 'I' for Inactive)
                            x       y       z     vdW  Elec       q    Type
                         _______ _______ _______ _____ _____    ______ ____

>  <TORSDO>
F 0

$$$$
=
 OpenBabel11122414113D

 28 32  0  0  1  0  0  0  0  0999 V2000
  160.8320  205.9960  150.8940 C   0  0  2  0  0  3  0  0  0  0  0  0
  159.8730  207.0190  153.5060 O   0  0  0  0  0  0  0  0  0  0  0  0
  162.0470  211.4110  147.5210 O   0  0  0  0  0  0  0  0  0  0  0  0
  163.0490  204.8920  152.3160 C   0  0  0  0  0  3  0  0  0  0  0  0
  161.5320  211.4100  149.8300 N   0  0  0  0  0  0  0  0  0  0  0  0
  159.9810  206.4030  149.6910 C   0  0  0  0  0  2  0  0  0  0  0  0
  161.9900  207.6370  154.6070 O   0  0  0  0  0  0  0  0  0  0  0  0
  160.8310  208.1380  153.7930 S   0  0  0  0  0  0  0  0  0  0  0  0
  160.6130  210.7760  154.3870 C   0  0  2  0  0  3  0  0  0  0  0  0
  161.3990  208.8570  152.3220 N   0  0  0  0  0  0  0  0  0  0  0  0
  162.9090  206.7030  148.2610 O   0  0  0  0  0  1  0  0  0  0  0  0
  162.1490  209.2310  150.2620 C   0  0  0  0  0  0  0  0  0  0  0  0
  160.4900  211.1350  152.9060 C   0  0  0  0  0  2  0  0  0  0  0  0
  159.9790  209.4210  154.6910 C   0  0  0  0  0  2  0  0  0  0  0  0
  161.6270  207.0250  147.8070 C   0  0  2  0  0  3  0  0  0  0  0  0
  162.1450  206.7860  151.0170 C   0  0  2  0  0  3  0  0  0  0  0  0
  161.9560  210.7870  148.6110 C   0  0  0  0  0  0  0  0  0  0  0  0
  159.9330  211.8420  155.2190 C   0  0  0  0  0  1  0  0  0  0  0  0
  161.2390  208.4900  148.0550 C   0  0  0  0  0  2  0  0  0  0  0  0
  163.0620  206.2030  152.0590 C   0  0  0  0  0  3  0  0  0  0  0  0
  161.0680  204.5080  150.9370 C   0  0  0  0  0  3  0  0  0  0  0  0
  162.0880  204.0020  151.6360 C   0  0  0  0  0  3  0  0  0  0  0  0
  160.5860  206.0330  148.3310 C   0  0  0  0  0  2  0  0  0  0  0  0
  161.7560  210.4040  150.7910 C   0  0  0  0  0  0  0  0  0  0  0  0
  162.3030  209.3200  148.7720 C   0  0  2  0  0  3  0  0  0  0  0  0
  161.2700  210.1780  152.0560 C   0  0  0  0  0  0  0  0  0  0  0  0
  161.4460  212.8370  150.0870 C   0  0  0  0  0  1  0  0  0  0  0  0
  161.9350  208.2570  151.2210 C   0  0  0  0  0  0  0  0  0  0  0  0
  1  6  1  6  0  0  0
  1 21  1  0  0  0  0
  1 16  1  0  0  0  0
  2  8  2  0  0  0  0
  3 17  2  0  0  0  0
  5 27  1  0  0  0  0
  5 24  1  0  0  0  0
  8  7  2  0  0  0  0
  8 14  1  0  0  0  0
  9 14  1  0  0  0  0
  9 18  1  1  0  0  0
 10  8  1  0  0  0  0
 12 24  1  0  0  0  0
 12 28  2  0  0  0  0
 13  9  1  0  0  0  0
 15 19  1  0  0  0  0
 15 11  1  1  0  0  0
 15 23  1  0  0  0  0
 16 28  1  0  0  0  0
 16 20  1  1  0  0  0
 17 25  1  0  0  0  0
 17  5  1  0  0  0  0
 20  4  2  0  0  0  0
 21 22  2  0  0  0  0
 22  4  1  0  0  0  0
 23  6  1  0  0  0  0
 24 26  2  0  0  0  0
 25 19  1  6  0  0  0
 25 12  1  0  0  0  0
 26 10  1  0  0  0  0
 26 13  1  0  0  0  0
 28 10  1  0  0  0  0
M  END
>  <MODEL>
5

>  <REMARK>
 VINA RESULT:      -3.0      2.342      5.816
  Name = 
  0 active torsions:
  status: ('A' for Active; 'I' for Inactive)
                            x       y       z     vdW  Elec       q    Type
                         _______ _______ _______ _____ _____    ______ ____

>  <TORSDO>
F 0

$$$$
=
 OpenBabel11122414113D

 28 32  0  0  1  0  0  0  0  0999 V2000
  162.1640  205.0960  146.7710 C   0  0  2  0  0  3  0  0  0  0  0  0
  163.0460  207.8180  147.5430 O   0  0  0  0  0  0  0  0  0  0  0  0
  160.4730  202.4080  152.4370 O   0  0  0  0  0  0  0  0  0  0  0  0
  160.0560  206.3590  145.3160 C   0  0  0  0  0  3  0  0  0  0  0  0
  160.9990  204.7020  152.1960 N   0  0  0  0  0  0  0  0  0  0  0  0
  162.9700  203.9560  147.3940 C   0  0  0  0  0  2  0  0  0  0  0  0
  160.8900  208.9760  147.8390 O   0  0  0  0  0  0  0  0  0  0  0  0
  161.9980  208.2360  148.5330 S   0  0  0  0  0  0  0  0  0  0  0  0
  161.9930  209.1510  151.0870 C   0  0  2  0  0  3  0  0  0  0  0  0
  161.3630  206.8620  149.3760 N   0  0  0  0  0  0  0  0  0  0  0  0
  160.0190  202.5590  147.6170 O   0  0  0  0  0  1  0  0  0  0  0  0
  160.5730  204.8600  149.9360 C   0  0  0  0  0  0  0  0  0  0  0  0
  162.0770  207.7260  151.6340 C   0  0  0  0  0  2  0  0  0  0  0  0
  162.7430  209.2890  149.7630 C   0  0  0  0  0  2  0  0  0  0  0  0
  161.2660  202.1550  148.1010 C   0  0  2  0  0  3  0  0  0  0  0  0
  160.7880  205.3080  147.4250 C   0  0  2  0  0  3  0  0  0  0  0  0
  160.6230  203.4140  151.6940 C   0  0  0  0  0  0  0  0  0  0  0  0
  162.5850  210.1110  152.0970 C   0  0  0  0  0  1  0  0  0  0  0  0
  161.5300  202.5820  149.5510 C   0  0  0  0  0  2  0  0  0  0  0  0
  159.9310  206.2660  146.6430 C   0  0  0  0  0  3  0  0  0  0  0  0
  162.0550  204.9540  145.2740 C   0  0  0  0  0  3  0  0  0  0  0  0
  161.0850  205.5800  144.6010 C   0  0  0  0  0  3  0  0  0  0  0  0
  162.3910  202.5570  147.1430 C   0  0  0  0  0  2  0  0  0  0  0  0
  160.8670  205.5310  151.0630 C   0  0  0  0  0  0  0  0  0  0  0  0
  160.4030  203.3910  150.1930 C   0  0  2  0  0  3  0  0  0  0  0  0
  161.3770  206.7610  150.7260 C   0  0  0  0  0  0  0  0  0  0  0  0
  160.9650  205.1330  153.5830 C   0  0  0  0  0  1  0  0  0  0  0  0
  160.8740  205.6930  148.8720 C   0  0  0  0  0  0  0  0  0  0  0  0
  1 21  1  6  0  0  0
  1  6  1  0  0  0  0
  1 16  1  0  0  0  0
  2  8  2  0  0  0  0
  4 20  2  0  0  0  0
  5 27  1  0  0  0  0
  7  8  2  0  0  0  0
  8 10  1  0  0  0  0
  8 14  1  0  0  0  0
  9 13  1  0  0  0  0
  9 18  1  1  0  0  0
 10 26  1  0  0  0  0
 12 25  1  0  0  0  0
 12 24  1  0  0  0  0
 14  9  1  0  0  0  0
 15 11  1  6  0  0  0
 15 19  1  0  0  0  0
 16 20  1  6  0  0  0
 16 28  1  0  0  0  0
 17  5  1  0  0  0  0
 17  3  2  0  0  0  0
 22 21  2  0  0  0  0
 22  4  1  0  0  0  0
 23  6  1  0  0  0  0
 23 15  1  0  0  0  0
 24  5  1  0  0  0  0
 25 19  1  6  0  0  0
 25 17  1  0  0  0  0
 26 24  2  0  0  0  0
 26 13  1  0  0  0  0
 28 10  1  0  0  0  0
 28 12  2  0  0  0  0
M  END
>  <MODEL>
6

>  <REMARK>
 VINA RESULT:      -2.8      4.344      8.708
  Name = 
  0 active torsions:
  status: ('A' for Active; 'I' for Inactive)
                            x       y       z     vdW  Elec       q    Type
                         _______ _______ _______ _____ _____    ______ ____

>  <TORSDO>
F 0

$$$$
=
 OpenBabel11122414113D

 28 32  0  0  1  0  0  0  0  0999 V2000
  160.6480  211.9610  147.9880 C   0  0  2  0  0  3  0  0  0  0  0  0
  161.0740  209.0640  147.5280 O   0  0  0  0  0  0  0  0  0  0  0  0
  159.3980  212.2980  154.3530 O   0  0  0  0  0  0  0  0  0  0  0  0
  163.3790  212.3240  147.2360 C   0  0  0  0  0  3  0  0  0  0  0  0
  160.1490  210.3270  153.2810 N   0  0  0  0  0  0  0  0  0  0  0  0
  159.2630  212.3340  148.5180 C   0  0  0  0  0  2  0  0  0  0  0  0
  163.3800  208.7630  148.3440 O   0  0  0  0  0  0  0  0  0  0  0  0
  161.9240  208.6660  148.7000 S   0  0  0  0  0  0  0  0  0  0  0  0
  161.7780  206.7940  150.6580 C   0  0  2  0  0  3  0  0  0  0  0  0
  161.5770  209.6560  150.0790 N   0  0  0  0  0  0  0  0  0  0  0  0
  160.9890  214.4530  150.3170 O   0  0  0  0  0  1  0  0  0  0  0  0
  161.1160  211.3430  151.4520 C   0  0  0  0  0  0  0  0  0  0  0  0
  160.8740  207.6960  151.4990 C   0  0  0  0  0  2  0  0  0  0  0  0
  161.5310  206.9900  149.1630 C   0  0  0  0  0  2  0  0  0  0  0  0
  159.6310  214.1210  150.3380 C   0  0  2  0  0  3  0  0  0  0  0  0
  161.7500  211.9980  149.0610 C   0  0  2  0  0  3  0  0  0  0  0  0
  159.9440  211.7420  153.3630 C   0  0  0  0  0  0  0  0  0  0  0  0
  161.5190  205.3480  151.0190 C   0  0  0  0  0  1  0  0  0  0  0  0
  159.2800  213.0380  151.3670 C   0  0  0  0  0  2  0  0  0  0  0  0
  163.1250  211.8640  148.4650 C   0  0  0  0  0  3  0  0  0  0  0  0
  161.0220  212.7740  146.7750 C   0  0  0  0  0  3  0  0  0  0  0  0
  162.3010  212.9060  146.4130 C   0  0  0  0  0  3  0  0  0  0  0  0
  159.1150  213.8030  148.9330 C   0  0  0  0  0  2  0  0  0  0  0  0
  160.9360  210.1900  152.1200 C   0  0  0  0  0  0  0  0  0  0  0  0
  160.4710  212.4990  152.1590 C   0  0  2  0  0  3  0  0  0  0  0  0
  161.1960  209.1410  151.2710 C   0  0  0  0  0  0  0  0  0  0  0  0
  160.0620  209.3760  154.3760 C   0  0  0  0  0  1  0  0  0  0  0  0
  161.5270  211.0160  150.1720 C   0  0  0  0  0  0  0  0  0  0  0  0
  1 21  1  6  0  0  0
  1  6  1  0  0  0  0
  1 16  1  0  0  0  0
  2  8  2  0  0  0  0
  4 20  2  0  0  0  0
  5 17  1  0  0  0  0
  5 27  1  0  0  0  0
  6 23  1  0  0  0  0
  7  8  2  0  0  0  0
  8 14  1  0  0  0  0
  8 10  1  0  0  0  0
  9 18  1  1  0  0  0
  9 13  1  0  0  0  0
 10 28  1  0  0  0  0
 10 26  1  0  0  0  0
 12 24  1  0  0  0  0
 12 25  1  0  0  0  0
 14  9  1  0  0  0  0
 15 11  1  6  0  0  0
 15 19  1  0  0  0  0
 16 20  1  6  0  0  0
 16 28  1  0  0  0  0
 17  3  2  0  0  0  0
 22 21  2  0  0  0  0
 22  4  1  0  0  0  0
 23 15  1  0  0  0  0
 24  5  1  0  0  0  0
 25 19  1  6  0  0  0
 25 17  1  0  0  0  0
 26 13  1  0  0  0  0
 26 24  2  0  0  0  0
 28 12  2  0  0  0  0
M  END
>  <MODEL>
7

>  <REMARK>
 VINA RESULT:      -1.4      2.796      6.224
  Name = 
  0 active torsions:
  status: ('A' for Active; 'I' for Inactive)
                            x       y       z     vdW  Elec       q    Type
                         _______ _______ _______ _____ _____    ______ ____

>  <TORSDO>
F 0

$$$$
