=
 OpenBabel11122414083D

 28 32  0  0  1  0  0  0  0  0999 V2000
  163.0640  211.6240  139.7290 C   0  0  0  0  0  0  0  0  0  0  0  0
  163.2600  212.3200  143.1570 O   0  0  0  0  0  0  0  0  0  0  0  0
  156.7870  212.4320  139.5050 O   0  0  0  0  0  1  0  0  0  0  0  0
  164.2880  213.9910  138.8590 C   0  0  0  0  0  3  0  0  0  0  0  0
  157.8900  214.1510  140.7200 C   0  0  2  0  0  3  0  0  0  0  0  0
  162.4240  210.3370  140.1460 C   0  0  0  0  0  2  0  0  0  0  0  0
  162.7990  214.4530  144.2950 O   0  0  0  0  0  0  0  0  0  0  0  0
  162.1920  213.3080  143.5350 S   0  0  0  0  0  0  0  0  0  0  0  0
  159.6340  212.5100  144.0860 C   0  0  0  0  0  0  0  0  0  0  0  0
  161.3710  213.9310  142.0880 C   0  0  2  0  0  3  0  0  0  0  0  0
  159.3920  209.8390  138.1410 O   0  0  0  0  0  0  0  0  0  0  0  0
  160.0810  213.3900  140.1100 C   0  0  2  0  0  3  0  0  0  0  0  0
  159.1980  213.2480  143.1070 N   0  0  0  0  0  0  0  0  0  0  0  0
  160.9970  212.5400  144.5030 N   0  0  0  0  0  2  0  0  0  0  0  0
  160.1070  210.2170  139.1040 C   0  0  0  0  0  0  0  0  0  0  0  0
  162.5320  212.8710  140.1110 C   0  0  0  0  0  0  0  0  0  0  0  0
  157.8410  212.6790  140.3860 C   0  0  2  0  0  3  0  0  0  0  0  0
  158.7390  211.6070  144.7220 N   0  0  0  0  0  1  0  0  0  0  0  0
  159.4810  210.9950  140.2170 C   0  0  0  0  0  2  0  0  0  0  0  0
  163.1470  214.0500  139.6630 C   0  0  0  0  0  3  0  0  0  0  0  0
  164.2060  211.5740  138.9200 C   0  0  0  0  0  3  0  0  0  0  0  0
  164.8190  212.7530  138.4890 C   0  0  0  0  0  3  0  0  0  0  0  0
  161.4970  209.8800  139.1190 N   0  0  0  0  0  2  0  0  0  0  0  0
  159.3630  214.4420  140.9420 C   0  0  2  0  0  3  0  0  0  0  0  0
  159.1090  212.3300  139.7480 N   0  0  2  0  0  0  0  0  0  0  0  0
  159.9240  214.3000  142.3700 C   0  0  2  0  0  3  0  0  0  0  0  0
  157.1010  214.4530  141.8330 O   0  0  0  0  0  1  0  0  0  0  0  0
  161.2870  212.9350  140.9460 C   0  0  1  0  0  3  0  0  0  0  0  0
  1 16  1  0  0  0  0
  1  6  1  0  0  0  0
  2  8  2  0  0  0  0
  3 17  1  0  0  0  0
  4 20  1  0  0  0  0
  5 24  1  0  0  0  0
  5 27  1  1  0  0  0
  8  7  2  0  0  0  0
  8 14  1  0  0  0  0
  9 14  1  0  0  0  0
  9 18  1  0  0  0  0
 10 26  1  0  0  0  0
 10  8  1  1  0  0  0
 11 15  2  0  0  0  0
 12 24  1  0  0  0  0
 12 28  1  0  0  0  0
 13  9  2  0  0  0  0
 15 23  1  0  0  0  0
 15 19  1  0  0  0  0
 16 28  1  0  0  0  0
 17  5  1  0  0  0  0
 20 16  2  0  0  0  0
 21  1  2  0  0  0  0
 22  4  2  0  0  0  0
 22 21  1  0  0  0  0
 23  6  1  0  0  0  0
 24 26  1  0  0  0  0
 25 12  1  0  0  0  0
 25 19  1  0  0  0  0
 25 17  1  0  0  0  0
 26 13  1  0  0  0  0
 28 10  1  0  0  0  0
M  END
>  <MODEL>
1

>  <REMARK>
 VINA RESULT:      -2.8      0.000      0.000
  Name = 
  0 active torsions:
  status: ('A' for Active; 'I' for Inactive)
                            x       y       z     vdW  Elec       q    Type
                         _______ _______ _______ _____ _____    ______ ____

>  <TORSDO>
F 0

$$$$
=
 OpenBabel11122414083D

 28 32  0  0  1  0  0  0  0  0999 V2000
  157.4810  212.3000  155.0080 C   0  0  0  0  0  0  0  0  0  0  0  0
  159.7040  210.7670  157.2400 O   0  0  0  0  0  0  0  0  0  0  0  0
  161.3500  211.6180  150.0410 O   0  0  0  0  0  1  0  0  0  0  0  0
  155.6050  210.2180  154.9550 C   0  0  0  0  0  3  0  0  0  0  0  0
  161.1810  209.6420  151.3500 C   0  0  2  0  0  3  0  0  0  0  0  0
  158.4430  213.4460  155.0200 C   0  0  0  0  0  2  0  0  0  0  0  0
  160.4460  208.4200  157.2610 O   0  0  0  0  0  0  0  0  0  0  0  0
  160.5080  209.7230  156.5160 S   0  0  0  0  0  0  0  0  0  0  0  0
  162.7550  210.3760  155.0980 C   0  0  0  0  0  0  0  0  0  0  0  0
  159.8940  209.4880  154.8650 C   0  0  2  0  0  3  0  0  0  0  0  0
  159.1000  214.4520  151.5530 O   0  0  0  0  0  0  0  0  0  0  0  0
  159.4200  210.5160  152.7230 C   0  0  2  0  0  3  0  0  0  0  0  0
  162.2030  209.9100  154.0160 N   0  0  0  0  0  0  0  0  0  0  0  0
  162.1450  210.2320  156.3780 N   0  0  0  0  0  2  0  0  0  0  0  0
  159.2530  213.8400  152.6410 C   0  0  0  0  0  0  0  0  0  0  0  0
  157.8830  211.0010  154.6420 C   0  0  0  0  0  0  0  0  0  0  0  0
  161.2400  211.1520  151.3510 C   0  0  2  0  0  3  0  0  0  0  0  0
  163.9760  211.0980  154.9940 N   0  0  0  0  0  1  0  0  0  0  0  0
  160.3330  212.8120  152.7560 C   0  0  0  0  0  2  0  0  0  0  0  0
  156.9350  209.9670  154.6100 C   0  0  0  0  0  3  0  0  0  0  0  0
  156.1440  212.5430  155.3480 C   0  0  0  0  0  3  0  0  0  0  0  0
  155.2100  211.5050  155.3260 C   0  0  0  0  0  3  0  0  0  0  0  0
  158.4000  214.1520  153.7460 N   0  0  0  0  0  2  0  0  0  0  0  0
  160.3090  209.2950  152.5420 C   0  0  2  0  0  3  0  0  0  0  0  0
  159.9980  211.6400  151.9470 N   0  0  2  0  0  0  0  0  0  0  0  0
  160.9940  209.0710  153.9020 C   0  0  2  0  0  3  0  0  0  0  0  0
  162.4570  209.0770  151.4250 O   0  0  0  0  0  1  0  0  0  0  0  0
  159.3050  210.7390  154.2390 C   0  0  1  0  0  3  0  0  0  0  0  0
  1  6  1  0  0  0  0
  1 21  1  0  0  0  0
  3 17  1  0  0  0  0
  4 22  1  0  0  0  0
  5 17  1  0  0  0  0
  5 27  1  1  0  0  0
  5 24  1  0  0  0  0
  8  2  2  0  0  0  0
  8  7  2  0  0  0  0
  9 14  1  0  0  0  0
 10  8  1  1  0  0  0
 11 15  2  0  0  0  0
 12 28  1  0  0  0  0
 13  9  2  0  0  0  0
 14  8  1  0  0  0  0
 15 19  1  0  0  0  0
 15 23  1  0  0  0  0
 16  1  2  0  0  0  0
 17 25  1  0  0  0  0
 18  9  1  0  0  0  0
 20 16  1  0  0  0  0
 20  4  2  0  0  0  0
 22 21  2  0  0  0  0
 23  6  1  0  0  0  0
 24 12  1  0  0  0  0
 24 26  1  0  0  0  0
 25 12  1  0  0  0  0
 25 19  1  0  0  0  0
 26 13  1  0  0  0  0
 26 10  1  0  0  0  0
 28 16  1  0  0  0  0
 28 10  1  0  0  0  0
M  END
>  <MODEL>
2

>  <REMARK>
 VINA RESULT:      -1.0     10.995     14.174
  Name = 
  0 active torsions:
  status: ('A' for Active; 'I' for Inactive)
                            x       y       z     vdW  Elec       q    Type
                         _______ _______ _______ _____ _____    ______ ____

>  <TORSDO>
F 0

$$$$
