=
 OpenBabel11122412573D

 32 37  0  0  1  0  0  0  0  0999 V2000
  159.0720  211.2580  156.6460 C   0  0  0  0  0  2  0  0  0  0  0  0
  161.7190  208.5520  152.8190 N   0  0  0  0  0  0  0  0  0  0  0  0
  161.6050  211.2310  148.7450 C   0  0  0  0  0  2  0  0  0  0  0  0
  161.5760  209.9520  147.8860 C   0  0  0  0  0  2  0  0  0  0  0  0
  161.2610  206.0270  152.6960 C   0  0  0  0  0  0  0  0  0  0  0  0
  161.0500  204.8620  151.8440 C   0  0  0  0  0  0  0  0  0  0  0  0
  160.2010  209.2770  154.5890 C   0  0  2  0  0  3  0  0  0  0  0  0
  160.4430  210.5890  152.4330 C   0  0  0  0  0  2  0  0  0  0  0  0
  160.8880  203.6470  149.9850 N   0  0  0  0  0  0  0  0  0  0  0  0
  158.7680  211.2980  154.1010 C   0  0  0  0  0  2  0  0  0  0  0  0
  162.4530  211.0880  150.0110 C   0  0  0  0  0  2  0  0  0  0  0  0
  161.7710  209.8760  152.1930 C   0  0  2  0  0  3  0  0  0  0  0  0
  162.0880  209.8200  150.7280 C   0  0  0  0  0  0  0  0  0  0  0  0
  161.6550  207.3980  150.6860 C   0  0  0  0  0  0  0  0  0  0  0  0
  160.6750  202.7320  151.1010 C   0  0  0  0  0  2  0  0  0  0  0  0
  158.8320  209.8910  156.4770 O   0  0  0  0  0  0  0  0  0  0  0  0
  160.1510  210.6760  153.9320 C   0  0  1  0  0  3  0  0  0  0  0  0
  160.7630  203.5680  152.2560 O   0  0  0  0  0  0  0  0  0  0  0  0
  160.0720  209.3600  156.1090 C   0  0  0  0  0  2  0  0  0  0  0  0
  158.6100  212.0570  155.4250 C   0  0  1  0  0  3  0  0  0  0  0  0
  162.2450  208.7320  148.5420 C   0  0  0  0  0  2  0  0  0  0  0  0
  161.9770  208.6830  150.0240 C   0  0  0  0  0  0  0  0  0  0  0  0
  161.4930  206.1730  149.7940 C   0  0  0  0  0  2  0  0  0  0  0  0
  161.5210  208.5780  154.2640 C   0  0  0  0  0  2  0  0  0  0  0  0
  161.2030  205.8970  153.9460 O   0  0  0  0  0  0  0  0  0  0  0  0
  161.2060  203.2420  148.6270 C   0  0  0  0  0  1  0  0  0  0  0  0
  161.5460  207.3400  152.0420 C   0  0  0  0  0  0  0  0  0  0  0  0
  161.1310  204.9270  150.5440 C   0  0  0  0  0  0  0  0  0  0  0  0
  157.2200  212.4500  155.6020 N   0  0  0  0  0  2  0  0  0  0  0  0
  156.6840  213.6570  155.0580 C   0  0  0  0  0  0  0  0  0  0  0  0
  157.4160  214.4530  154.4130 O   0  0  0  0  0  0  0  0  0  0  0  0
  155.2470  213.9790  155.2600 C   0  0  0  0  0  1  0  0  0  0  0  0
  2 24  1  0  0  0  0
  3 11  1  0  0  0  0
  4 21  1  0  0  0  0
  4  3  1  0  0  0  0
  5 25  2  0  0  0  0
  6 18  1  0  0  0  0
  6  5  1  0  0  0  0
  7 24  1  1  0  0  0
  7 19  1  0  0  0  0
  9 28  1  0  0  0  0
  9 15  1  0  0  0  0
 10 20  1  0  0  0  0
 11 13  1  0  0  0  0
 12  8  1  6  0  0  0
 12  2  1  0  0  0  0
 13 12  1  0  0  0  0
 14 27  2  0  0  0  0
 15 18  1  0  0  0  0
 16  1  1  0  0  0  0
 17  8  1  6  0  0  0
 17 10  1  0  0  0  0
 17  7  1  0  0  0  0
 19 16  1  0  0  0  0
 20 29  1  1  0  0  0
 20  1  1  0  0  0  0
 21 22  1  0  0  0  0
 22 14  1  0  0  0  0
 22 13  2  0  0  0  0
 23 28  1  0  0  0  0
 23 14  1  0  0  0  0
 26  9  1  0  0  0  0
 27  5  1  0  0  0  0
 27  2  1  0  0  0  0
 28  6  2  0  0  0  0
 30 32  1  0  0  0  0
 30 29  1  0  0  0  0
 31 30  2  0  0  0  0
M  END
>  <MODEL>
1

>  <REMARK>
 VINA RESULT:      -7.5      0.000      0.000
  Name = 
  1 active torsions:
  status: ('A' for Active; 'I' for Inactive)
    1  A    between atoms: C_20  and  N_29
                            x       y       z     vdW  Elec       q    Type
                         _______ _______ _______ _____ _____    ______ ____

>  <TORSDO>
F 1

$$$$
=
 OpenBabel11122412573D

 32 37  0  0  1  0  0  0  0  0999 V2000
  162.6440  207.3000  147.9510 C   0  0  0  0  0  2  0  0  0  0  0  0
  161.2820  210.1380  152.3160 N   0  0  0  0  0  0  0  0  0  0  0  0
  160.3630  206.9850  155.9210 C   0  0  0  0  0  2  0  0  0  0  0  0
  159.2950  207.9320  156.5000 C   0  0  0  0  0  2  0  0  0  0  0  0
  159.6980  212.1240  151.9260 C   0  0  0  0  0  0  0  0  0  0  0  0
  158.5570  212.8920  152.4120 C   0  0  0  0  0  0  0  0  0  0  0  0
  161.4530  209.1570  150.0870 C   0  0  2  0  0  3  0  0  0  0  0  0
  161.1330  207.7150  152.1480 C   0  0  0  0  0  2  0  0  0  0  0  0
  156.9080  213.5390  153.7610 N   0  0  0  0  0  0  0  0  0  0  0  0
  161.1330  206.6580  149.9170 C   0  0  0  0  0  2  0  0  0  0  0  0
  161.5540  207.7230  155.3060 C   0  0  0  0  0  2  0  0  0  0  0  0
  161.6210  208.8850  152.9960 C   0  0  2  0  0  3  0  0  0  0  0  0
  161.0660  208.8040  154.3870 C   0  0  0  0  0  0  0  0  0  0  0  0
  159.5900  210.7250  153.9530 C   0  0  0  0  0  0  0  0  0  0  0  0
  156.8990  214.4530  152.6230 C   0  0  0  0  0  2  0  0  0  0  0  0
  161.7400  208.3590  147.8290 O   0  0  0  0  0  0  0  0  0  0  0  0
  161.7400  207.7860  150.7460 C   0  0  1  0  0  3  0  0  0  0  0  0
  157.9540  213.9740  151.7870 O   0  0  0  0  0  0  0  0  0  0  0  0
  162.1850  209.3080  148.7550 C   0  0  0  0  0  2  0  0  0  0  0  0
  162.0620  206.1680  148.7990 C   0  0  1  0  0  3  0  0  0  0  0  0
  159.5350  209.4200  156.1940 C   0  0  0  0  0  2  0  0  0  0  0  0
  160.0860  209.6190  154.8050 C   0  0  0  0  0  0  0  0  0  0  0  0
  158.4350  211.5600  154.4920 C   0  0  0  0  0  2  0  0  0  0  0  0
  161.8990  210.2950  151.0040 C   0  0  0  0  0  2  0  0  0  0  0  0
  160.2400  212.4440  150.8370 O   0  0  0  0  0  0  0  0  0  0  0  0
  156.2430  213.7830  155.0280 C   0  0  0  0  0  1  0  0  0  0  0  0
  160.1850  210.9790  152.7550 C   0  0  0  0  0  0  0  0  0  0  0  0
  157.9750  212.6300  153.5490 C   0  0  0  0  0  0  0  0  0  0  0  0
  161.3450  205.2370  147.9390 N   0  0  0  0  0  2  0  0  0  0  0  0
  161.9790  204.5240  146.8770 C   0  0  0  0  0  0  0  0  0  0  0  0
  163.2020  204.6950  146.6260 O   0  0  0  0  0  0  0  0  0  0  0  0
  161.1860  203.5710  146.0560 C   0  0  0  0  0  1  0  0  0  0  0  0
  1 20  1  0  0  0  0
  2 27  1  0  0  0  0
  2 12  1  0  0  0  0
  3  4  1  0  0  0  0
  5  6  1  0  0  0  0
  5 27  1  0  0  0  0
  6 28  2  0  0  0  0
  7 19  1  6  0  0  0
  7 17  1  0  0  0  0
  7 24  1  0  0  0  0
  9 26  1  0  0  0  0
 11  3  1  0  0  0  0
 12  8  1  6  0  0  0
 12 13  1  0  0  0  0
 13 22  2  0  0  0  0
 13 11  1  0  0  0  0
 14 23  1  0  0  0  0
 14 22  1  0  0  0  0
 15  9  1  0  0  0  0
 16  1  1  0  0  0  0
 16 19  1  0  0  0  0
 17 10  1  6  0  0  0
 17  8  1  0  0  0  0
 18  6  1  0  0  0  0
 18 15  1  0  0  0  0
 20 29  1  6  0  0  0
 20 10  1  0  0  0  0
 21  4  1  0  0  0  0
 22 21  1  0  0  0  0
 24  2  1  0  0  0  0
 25  5  2  0  0  0  0
 27 14  2  0  0  0  0
 28  9  1  0  0  0  0
 28 23  1  0  0  0  0
 30 29  1  0  0  0  0
 31 30  2  0  0  0  0
 32 30  1  0  0  0  0
M  END
>  <MODEL>
2

>  <REMARK>
 VINA RESULT:      -7.5      2.494      8.662
  Name = 
  1 active torsions:
  status: ('A' for Active; 'I' for Inactive)
    1  A    between atoms: C_20  and  N_29
                            x       y       z     vdW  Elec       q    Type
                         _______ _______ _______ _____ _____    ______ ____

>  <TORSDO>
F 1

$$$$
=
 OpenBabel11122412573D

 32 37  0  0  1  0  0  0  0  0999 V2000
  159.9070  209.9750  156.9260 C   0  0  0  0  0  2  0  0  0  0  0  0
  162.1690  207.7800  152.5620 N   0  0  0  0  0  0  0  0  0  0  0  0
  161.8530  211.0180  148.9280 C   0  0  0  0  0  2  0  0  0  0  0  0
  161.7150  209.8770  147.9020 C   0  0  0  0  0  2  0  0  0  0  0  0
  161.6120  205.3110  152.1200 C   0  0  0  0  0  0  0  0  0  0  0  0
  161.2980  204.2860  151.1310 C   0  0  0  0  0  0  0  0  0  0  0  0
  160.8110  208.2810  154.5290 C   0  0  2  0  0  3  0  0  0  0  0  0
  160.9410  209.8820  152.5680 C   0  0  0  0  0  2  0  0  0  0  0  0
  160.9570  203.3550  149.1370 N   0  0  0  0  0  0  0  0  0  0  0  0
  159.4190  210.3860  154.4440 C   0  0  0  0  0  2  0  0  0  0  0  0
  162.7850  210.6730  150.0920 C   0  0  0  0  0  2  0  0  0  0  0  0
  162.2210  209.1790  152.1270 C   0  0  2  0  0  3  0  0  0  0  0  0
  162.4290  209.3260  150.6490 C   0  0  0  0  0  0  0  0  0  0  0  0
  161.9070  206.9460  150.2990 C   0  0  0  0  0  0  0  0  0  0  0  0
  160.7930  202.2950  150.1260 C   0  0  0  0  0  2  0  0  0  0  0  0
  159.6060  208.6530  156.5850 O   0  0  0  0  0  0  0  0  0  0  0  0
  160.7630  209.7620  154.0820 C   0  0  1  0  0  3  0  0  0  0  0  0
  160.9950  202.9540  151.3770 O   0  0  0  0  0  0  0  0  0  0  0  0
  160.7960  208.1490  156.0500 C   0  0  0  0  0  2  0  0  0  0  0  0
  159.3860  210.9520  155.8700 C   0  0  1  0  0  3  0  0  0  0  0  0
  162.3860  208.5590  148.3250 C   0  0  0  0  0  2  0  0  0  0  0  0
  162.2260  208.3050  149.8020 C   0  0  0  0  0  0  0  0  0  0  0  0
  161.6370  205.8660  149.2580 C   0  0  0  0  0  2  0  0  0  0  0  0
  162.0780  207.6040  154.0070 C   0  0  0  0  0  2  0  0  0  0  0  0
  161.6410  205.0050  153.3400 O   0  0  0  0  0  0  0  0  0  0  0  0
  161.1600  203.1420  147.7150 C   0  0  0  0  0  1  0  0  0  0  0  0
  161.8960  206.6970  151.6370 C   0  0  0  0  0  0  0  0  0  0  0  0
  161.2860  204.5350  149.8510 C   0  0  0  0  0  0  0  0  0  0  0  0
  158.0270  211.3500  156.2070 N   0  0  0  0  0  2  0  0  0  0  0  0
  157.7230  212.5870  156.8530 C   0  0  0  0  0  0  0  0  0  0  0  0
  158.6420  213.3840  157.1820 O   0  0  0  0  0  0  0  0  0  0  0  0
  156.3080  212.9350  157.1440 C   0  0  0  0  0  1  0  0  0  0  0  0
  2 24  1  0  0  0  0
  3 11  1  0  0  0  0
  4 21  1  0  0  0  0
  4  3  1  0  0  0  0
  5 25  2  0  0  0  0
  6 18  1  0  0  0  0
  6  5  1  0  0  0  0
  7 24  1  1  0  0  0
  7 19  1  0  0  0  0
  9 28  1  0  0  0  0
  9 15  1  0  0  0  0
 10 20  1  0  0  0  0
 11 13  1  0  0  0  0
 12  2  1  0  0  0  0
 12  8  1  6  0  0  0
 13 12  1  0  0  0  0
 14 27  2  0  0  0  0
 15 18  1  0  0  0  0
 16  1  1  0  0  0  0
 17  8  1  6  0  0  0
 17 10  1  0  0  0  0
 17  7  1  0  0  0  0
 19 16  1  0  0  0  0
 20 29  1  1  0  0  0
 20  1  1  0  0  0  0
 21 22  1  0  0  0  0
 22 14  1  0  0  0  0
 22 13  2  0  0  0  0
 23 28  1  0  0  0  0
 23 14  1  0  0  0  0
 26  9  1  0  0  0  0
 27  5  1  0  0  0  0
 27  2  1  0  0  0  0
 28  6  2  0  0  0  0
 29 30  1  0  0  0  0
 30 32  1  0  0  0  0
 30 31  2  0  0  0  0
M  END
>  <MODEL>
3

>  <REMARK>
 VINA RESULT:      -6.1      1.195      1.257
  Name = 
  1 active torsions:
  status: ('A' for Active; 'I' for Inactive)
    1  A    between atoms: C_20  and  N_29
                            x       y       z     vdW  Elec       q    Type
                         _______ _______ _______ _____ _____    ______ ____

>  <TORSDO>
F 1

$$$$
=
 OpenBabel11122412573D

 32 37  0  0  1  0  0  0  0  0999 V2000
  162.3720  204.8900  146.8060 C   0  0  0  0  0  2  0  0  0  0  0  0
  162.2260  208.4590  150.8330 N   0  0  0  0  0  0  0  0  0  0  0  0
  160.4330  206.2000  154.7660 C   0  0  0  0  0  2  0  0  0  0  0  0
  159.7730  207.5100  155.2370 C   0  0  0  0  0  2  0  0  0  0  0  0
  161.3950  210.8140  150.2270 C   0  0  0  0  0  0  0  0  0  0  0  0
  160.6030  211.9720  150.6260 C   0  0  0  0  0  0  0  0  0  0  0  0
  161.9660  207.2520  148.7260 C   0  0  2  0  0  3  0  0  0  0  0  0
  161.2570  206.2280  150.9330 C   0  0  0  0  0  2  0  0  0  0  0  0
  159.3260  213.2790  151.8980 N   0  0  0  0  0  0  0  0  0  0  0  0
  160.8100  205.0100  148.8340 C   0  0  0  0  0  2  0  0  0  0  0  0
  161.7790  206.4190  154.0710 C   0  0  0  0  0  2  0  0  0  0  0  0
  162.1460  207.2430  151.6460 C   0  0  2  0  0  3  0  0  0  0  0  0
  161.6500  207.5000  153.0390 C   0  0  0  0  0  0  0  0  0  0  0  0
  160.8990  209.7540  152.3970 C   0  0  0  0  0  0  0  0  0  0  0  0
  159.5830  214.0190  150.6660 C   0  0  0  0  0  2  0  0  0  0  0  0
  161.8770  206.1760  146.5690 O   0  0  0  0  0  0  0  0  0  0  0  0
  161.7960  205.9430  149.5310 C   0  0  1  0  0  3  0  0  0  0  0  0
  160.3790  213.1240  149.8860 O   0  0  0  0  0  0  0  0  0  0  0  0
  162.6530  207.0060  147.3840 C   0  0  0  0  0  2  0  0  0  0  0  0
  161.4730  204.1190  147.7760 C   0  0  1  0  0  3  0  0  0  0  0  0
  160.4920  208.7870  154.7680 C   0  0  0  0  0  2  0  0  0  0  0  0
  161.0220  208.6400  153.3650 C   0  0  0  0  0  0  0  0  0  0  0  0
  160.1180  210.9850  152.8420 C   0  0  0  0  0  2  0  0  0  0  0  0
  162.8070  208.2590  149.5100 C   0  0  0  0  0  2  0  0  0  0  0  0
  161.9710  210.8150  149.1090 O   0  0  0  0  0  0  0  0  0  0  0  0
  158.8330  213.8660  153.1320 C   0  0  0  0  0  1  0  0  0  0  0  0
  161.4970  209.6640  151.1770 C   0  0  0  0  0  0  0  0  0  0  0  0
  160.0110  212.0440  151.7860 C   0  0  0  0  0  0  0  0  0  0  0  0
  160.4500  203.4060  147.0250 N   0  0  0  0  0  2  0  0  0  0  0  0
  160.7630  202.4710  145.9920 C   0  0  0  0  0  0  0  0  0  0  0  0
  161.9590  202.2430  145.6700 O   0  0  0  0  0  0  0  0  0  0  0  0
  159.6630  201.7630  145.2850 C   0  0  0  0  0  1  0  0  0  0  0  0
  1 20  1  0  0  0  0
  2 27  1  0  0  0  0
  2 12  1  0  0  0  0
  3  4  1  0  0  0  0
  5  6  1  0  0  0  0
  5 27  1  0  0  0  0
  6 28  2  0  0  0  0
  7 19  1  6  0  0  0
  7 24  1  0  0  0  0
  7 17  1  0  0  0  0
  9 26  1  0  0  0  0
 11  3  1  0  0  0  0
 12  8  1  6  0  0  0
 12 13  1  0  0  0  0
 13 22  2  0  0  0  0
 13 11  1  0  0  0  0
 14 23  1  0  0  0  0
 14 22  1  0  0  0  0
 15  9  1  0  0  0  0
 16  1  1  0  0  0  0
 16 19  1  0  0  0  0
 17 10  1  6  0  0  0
 17  8  1  0  0  0  0
 18  6  1  0  0  0  0
 18 15  1  0  0  0  0
 20 29  1  6  0  0  0
 20 10  1  0  0  0  0
 21  4  1  0  0  0  0
 22 21  1  0  0  0  0
 24  2  1  0  0  0  0
 25  5  2  0  0  0  0
 27 14  2  0  0  0  0
 28  9  1  0  0  0  0
 28 23  1  0  0  0  0
 30 29  1  0  0  0  0
 31 30  2  0  0  0  0
 32 30  1  0  0  0  0
M  END
>  <MODEL>
4

>  <REMARK>
 VINA RESULT:      -5.3      3.049      8.897
  Name = 
  1 active torsions:
  status: ('A' for Active; 'I' for Inactive)
    1  A    between atoms: C_20  and  N_29
                            x       y       z     vdW  Elec       q    Type
                         _______ _______ _______ _____ _____    ______ ____

>  <TORSDO>
F 1

$$$$
=
 OpenBabel11122412573D

 32 37  0  0  1  0  0  0  0  0999 V2000
  161.1640  214.1080  146.5630 C   0  0  0  0  0  2  0  0  0  0  0  0
  160.3230  212.9450  141.3750 N   0  0  0  0  0  0  0  0  0  0  0  0
  155.5890  213.6530  140.4340 C   0  0  0  0  0  2  0  0  0  0  0  0
  155.6070  212.5090  139.4020 C   0  0  0  0  0  2  0  0  0  0  0  0
  161.4980  210.8420  140.4820 C   0  0  0  0  0  0  0  0  0  0  0  0
  161.4110  209.6600  139.6320 C   0  0  0  0  0  0  0  0  0  0  0  0
  160.9260  212.9200  143.7410 C   0  0  2  0  0  3  0  0  0  0  0  0
  158.5590  213.4200  142.9830 C   0  0  0  0  0  2  0  0  0  0  0  0
  160.5670  208.2060  138.1720 N   0  0  0  0  0  0  0  0  0  0  0  0
  159.0480  213.2530  145.3970 C   0  0  0  0  0  2  0  0  0  0  0  0
  156.8930  214.4530  140.4700 C   0  0  0  0  0  2  0  0  0  0  0  0
  159.1100  213.7380  141.5970 C   0  0  2  0  0  3  0  0  0  0  0  0
  158.0650  213.5170  140.5440 C   0  0  0  0  0  0  0  0  0  0  0  0
  159.2540  211.5250  139.7240 C   0  0  0  0  0  0  0  0  0  0  0  0
  161.9000  207.7220  138.5190 C   0  0  0  0  0  2  0  0  0  0  0  0
  161.7220  212.9470  146.0170 O   0  0  0  0  0  0  0  0  0  0  0  0
  159.6200  213.6900  144.0510 C   0  0  1  0  0  3  0  0  0  0  0  0
  162.3760  208.6750  139.4720 O   0  0  0  0  0  0  0  0  0  0  0  0
  162.0480  213.2990  144.7040 C   0  0  0  0  0  2  0  0  0  0  0  0
  159.6350  214.0330  146.5800 C   0  0  1  0  0  3  0  0  0  0  0  0
  156.9750  212.2750  138.7390 C   0  0  0  0  0  2  0  0  0  0  0  0
  158.1050  212.4600  139.7190 C   0  0  0  0  0  0  0  0  0  0  0  0
  159.1820  210.3220  138.7910 C   0  0  0  0  0  2  0  0  0  0  0  0
  161.4000  213.2190  142.3200 C   0  0  0  0  0  2  0  0  0  0  0  0
  162.5440  211.0480  141.1500 O   0  0  0  0  0  0  0  0  0  0  0  0
  159.7990  207.7700  137.0200 C   0  0  0  0  0  1  0  0  0  0  0  0
  160.3300  211.7750  140.5190 C   0  0  0  0  0  0  0  0  0  0  0  0
  160.3680  209.4110  138.8910 C   0  0  0  0  0  0  0  0  0  0  0  0
  159.1930  213.4340  147.8300 N   0  0  0  0  0  2  0  0  0  0  0  0
  157.9010  213.6770  148.3880 C   0  0  0  0  0  0  0  0  0  0  0  0
  157.0900  214.4530  147.8180 O   0  0  0  0  0  0  0  0  0  0  0  0
  157.5130  213.0090  149.6580 C   0  0  0  0  0  1  0  0  0  0  0  0
  1 20  1  0  0  0  0
  2 12  1  0  0  0  0
  2 24  1  0  0  0  0
  3 11  1  0  0  0  0
  4  3  1  0  0  0  0
  5 27  1  0  0  0  0
  5 25  2  0  0  0  0
  6  5  1  0  0  0  0
  7 24  1  6  0  0  0
  7 17  1  0  0  0  0
  7 19  1  0  0  0  0
  9 15  1  0  0  0  0
  9 28  1  0  0  0  0
 10 20  1  0  0  0  0
 11 13  1  0  0  0  0
 12  8  1  1  0  0  0
 13 12  1  0  0  0  0
 14 27  2  0  0  0  0
 15 18  1  0  0  0  0
 16  1  1  0  0  0  0
 17  8  1  6  0  0  0
 17 10  1  0  0  0  0
 18  6  1  0  0  0  0
 19 16  1  0  0  0  0
 20 29  1  1  0  0  0
 21  4  1  0  0  0  0
 21 22  1  0  0  0  0
 22 14  1  0  0  0  0
 22 13  2  0  0  0  0
 23 28  1  0  0  0  0
 23 14  1  0  0  0  0
 26  9  1  0  0  0  0
 27  2  1  0  0  0  0
 28  6  2  0  0  0  0
 29 30  1  0  0  0  0
 30 32  1  0  0  0  0
 31 30  2  0  0  0  0
M  END
>  <MODEL>
5

>  <REMARK>
 VINA RESULT:      -5.3      8.720     11.358
  Name = 
  1 active torsions:
  status: ('A' for Active; 'I' for Inactive)
    1  A    between atoms: C_20  and  N_29
                            x       y       z     vdW  Elec       q    Type
                         _______ _______ _______ _____ _____    ______ ____

>  <TORSDO>
F 1

$$$$
