=
 OpenBabel11122413253D

 31 35  0  0  1  0  0  0  0  0999 V2000
  161.1740  204.2780  145.5440 C   0  0  0  0  0  0  0  0  0  0  0  0
  160.5350  205.8910  148.9340 C   0  0  2  0  0  3  0  0  0  0  0  0
  160.8850  204.8700  149.9990 C   0  0  0  0  0  0  0  0  0  0  0  0
  161.0910  202.5490  150.7040 C   0  0  0  0  0  0  0  0  0  0  0  0
  161.1470  205.5880  147.5870 C   0  0  0  0  0  0  0  0  0  0  0  0
  162.2680  205.0130  145.0820 C   0  0  0  0  0  3  0  0  0  0  0  0
  160.8470  203.4980  149.7070 C   0  0  0  0  0  3  0  0  0  0  0  0
  162.3350  207.6730  149.1930 C   0  0  2  0  0  3  0  0  0  0  0  0
  160.6570  203.2840  144.7830 F   0  0  0  0  0  0  0  0  0  0  0  0
  161.1780  206.7300  151.6930 C   0  0  0  0  0  2  0  0  0  0  0  0
  161.0650  201.1970  150.3960 O   0  0  0  0  0  1  0  0  0  0  0  0
  162.7530  207.4040  147.8560 O   0  0  0  0  0  0  0  0  0  0  0  0
  160.8460  207.3340  149.3800 C   0  0  2  0  0  3  0  0  0  0  0  0
  160.6130  204.5670  146.7910 C   0  0  0  0  0  3  0  0  0  0  0  0
  161.3580  202.9630  152.0100 C   0  0  0  0  0  3  0  0  0  0  0  0
  162.2420  206.3380  147.1120 C   0  0  0  0  0  0  0  0  0  0  0  0
  162.7990  206.0440  145.8620 C   0  0  0  0  0  3  0  0  0  0  0  0
  160.4020  207.5550  150.7620 N   0  0  0  0  0  2  0  0  0  0  0  0
  161.1150  205.2770  151.3310 C   0  0  0  0  0  0  0  0  0  0  0  0
  161.3710  204.3240  152.3220 C   0  0  0  0  0  3  0  0  0  0  0  0
  161.3060  209.8860  147.7260 O   0  0  0  0  0  0  0  0  0  0  0  0
  162.0230  210.1360  148.7340 C   0  0  0  0  0  0  0  0  0  0  0  0
  162.5760  209.0730  149.5090 N   0  0  0  0  0  2  0  0  0  0  0  0
  160.9240  213.4780  147.4800 C   0  0  1  0  0  3  0  0  0  0  0  0
  161.0370  212.2980  149.5440 C   0  0  0  0  0  2  0  0  0  0  0  0
  164.1590  211.6320  147.5680 O   0  0  0  0  0  1  0  0  0  0  0  0
  160.0150  213.8970  146.3430 C   0  0  0  0  0  1  0  0  0  0  0  0
  160.1970  212.5840  148.3780 N   0  0  0  0  0  2  0  0  0  0  0  0
  163.0690  212.3530  148.0580 C   0  0  2  0  0  3  0  0  0  0  0  0
  162.3130  211.5550  149.1330 C   0  0  2  0  0  3  0  0  0  0  0  0
  162.1490  212.7680  146.9130 C   0  0  0  0  0  2  0  0  0  0  0  0
  1 14  1  0  0  0  0
  2  5  1  6  0  0  0
  2 13  1  0  0  0  0
  2  3  1  0  0  0  0
  3 19  1  0  0  0  0
  4 15  2  0  0  0  0
  6  1  2  0  0  0  0
  6 17  1  0  0  0  0
  7  3  2  0  0  0  0
  7  4  1  0  0  0  0
  8 13  1  0  0  0  0
  8 23  1  6  0  0  0
  9  1  1  0  0  0  0
 11  4  1  0  0  0  0
 12  8  1  0  0  0  0
 13 18  1  1  0  0  0
 14  5  2  0  0  0  0
 15 20  1  0  0  0  0
 16  5  1  0  0  0  0
 16 12  1  0  0  0  0
 17 16  2  0  0  0  0
 18 10  1  0  0  0  0
 19 10  1  0  0  0  0
 19 20  2  0  0  0  0
 21 22  2  0  0  0  0
 22 23  1  0  0  0  0
 24 27  1  6  0  0  0
 24 28  1  0  0  0  0
 28 25  1  0  0  0  0
 29 26  1  6  0  0  0
 29 30  1  0  0  0  0
 30 22  1  6  0  0  0
 30 25  1  0  0  0  0
 31 24  1  0  0  0  0
 31 29  1  0  0  0  0
M  END
>  <MODEL>
1

>  <REMARK>
 VINA RESULT:      -8.1      0.000      0.000
  Name = 
  2 active torsions:
  status: ('A' for Active; 'I' for Inactive)
    1  A    between atoms: C_5  and  C_30
    2  A    between atoms: C_10  and  N_16
                            x       y       z     vdW  Elec       q    Type
                         _______ _______ _______ _____ _____    ______ ____

>  <TORSDO>
F 2

$$$$
=
 OpenBabel11122413253D

 31 35  0  0  1  0  0  0  0  0999 V2000
  160.9360  206.7510  146.8140 C   0  0  0  0  0  0  0  0  0  0  0  0
  160.3080  205.0450  150.1610 C   0  0  2  0  0  3  0  0  0  0  0  0
  160.7480  203.6000  150.0260 C   0  0  0  0  0  0  0  0  0  0  0  0
  161.1080  201.6290  148.6440 C   0  0  0  0  0  0  0  0  0  0  0  0
  160.8960  205.9520  149.1060 C   0  0  0  0  0  0  0  0  0  0  0  0
  161.9720  207.6320  147.1350 C   0  0  0  0  0  3  0  0  0  0  0  0
  160.7800  202.9820  148.7660 C   0  0  0  0  0  3  0  0  0  0  0  0
  162.0090  206.0460  151.7680 C   0  0  2  0  0  3  0  0  0  0  0  0
  160.4550  206.7060  145.5490 F   0  0  0  0  0  0  0  0  0  0  0  0
  160.9850  203.4330  152.5420 C   0  0  0  0  0  2  0  0  0  0  0  0
  161.1510  201.0360  147.3900 O   0  0  0  0  0  1  0  0  0  0  0  0
  162.4020  206.9550  150.7410 O   0  0  0  0  0  0  0  0  0  0  0  0
  160.5490  205.6020  151.5780 C   0  0  2  0  0  3  0  0  0  0  0  0
  160.3980  205.9170  147.7970 C   0  0  0  0  0  3  0  0  0  0  0  0
  161.3900  200.8740  149.7840 C   0  0  0  0  0  3  0  0  0  0  0  0
  161.9310  206.8530  149.4300 C   0  0  0  0  0  0  0  0  0  0  0  0
  162.4660  207.6860  148.4410 C   0  0  0  0  0  3  0  0  0  0  0  0
  160.1350  204.6270  152.5930 N   0  0  0  0  0  2  0  0  0  0  0  0
  160.9940  202.8180  151.1760 C   0  0  0  0  0  0  0  0  0  0  0  0
  161.3340  201.4680  151.0460 C   0  0  0  0  0  3  0  0  0  0  0  0
  160.5530  208.3090  152.6980 O   0  0  0  0  0  0  0  0  0  0  0  0
  161.4100  207.8050  153.4770 C   0  0  0  0  0  0  0  0  0  0  0  0
  162.1790  206.6750  153.0690 N   0  0  0  0  0  2  0  0  0  0  0  0
  159.4200  210.0080  155.7450 C   0  0  1  0  0  3  0  0  0  0  0  0
  160.5740  207.9280  155.8410 C   0  0  0  0  0  2  0  0  0  0  0  0
  162.6030  210.3740  153.8430 O   0  0  0  0  0  1  0  0  0  0  0  0
  158.0620  210.6630  155.6030 C   0  0  0  0  0  1  0  0  0  0  0  0
  159.2830  208.5640  155.5640 N   0  0  0  0  0  2  0  0  0  0  0  0
  161.7400  209.9240  154.8430 C   0  0  2  0  0  3  0  0  0  0  0  0
  161.6390  208.3900  154.8410 C   0  0  2  0  0  3  0  0  0  0  0  0
  160.3690  210.5790  154.6950 C   0  0  0  0  0  2  0  0  0  0  0  0
  1  6  2  0  0  0  0
  1 14  1  0  0  0  0
  2  5  1  6  0  0  0
  2 13  1  0  0  0  0
  3  2  1  0  0  0  0
  3 19  1  0  0  0  0
  4  7  1  0  0  0  0
  4 15  2  0  0  0  0
  5 16  1  0  0  0  0
  6 17  1  0  0  0  0
  7  3  2  0  0  0  0
  8 23  1  1  0  0  0
  9  1  1  0  0  0  0
 10 18  1  0  0  0  0
 11  4  1  0  0  0  0
 12  8  1  0  0  0  0
 13  8  1  0  0  0  0
 13 18  1  1  0  0  0
 14  5  2  0  0  0  0
 15 20  1  0  0  0  0
 16 12  1  0  0  0  0
 17 16  2  0  0  0  0
 19 10  1  0  0  0  0
 20 19  2  0  0  0  0
 21 22  2  0  0  0  0
 23 22  1  0  0  0  0
 24 27  1  6  0  0  0
 28 24  1  0  0  0  0
 28 25  1  0  0  0  0
 29 26  1  6  0  0  0
 30 22  1  6  0  0  0
 30 29  1  0  0  0  0
 30 25  1  0  0  0  0
 31 29  1  0  0  0  0
 31 24  1  0  0  0  0
M  END
>  <MODEL>
2

>  <REMARK>
 VINA RESULT:      -7.5      3.496      4.884
  Name = 
  2 active torsions:
  status: ('A' for Active; 'I' for Inactive)
    1  A    between atoms: C_5  and  C_30
    2  A    between atoms: C_10  and  N_16
                            x       y       z     vdW  Elec       q    Type
                         _______ _______ _______ _____ _____    ______ ____

>  <TORSDO>
F 2

$$$$
=
 OpenBabel11122413253D

 31 35  0  0  1  0  0  0  0  0999 V2000
  161.0150  204.6900  145.1630 C   0  0  0  0  0  0  0  0  0  0  0  0
  160.5000  205.1290  148.9110 C   0  0  2  0  0  3  0  0  0  0  0  0
  160.8310  203.8060  149.5760 C   0  0  0  0  0  0  0  0  0  0  0  0
  160.9640  201.3780  149.4810 C   0  0  0  0  0  0  0  0  0  0  0  0
  161.0750  205.2630  147.5210 C   0  0  0  0  0  0  0  0  0  0  0  0
  162.1270  205.5030  144.9330 C   0  0  0  0  0  3  0  0  0  0  0  0
  160.7370  202.6060  148.8550 C   0  0  0  0  0  3  0  0  0  0  0  0
  162.3690  206.6750  149.6810 C   0  0  2  0  0  3  0  0  0  0  0  0
  160.4470  204.0130  144.1370 F   0  0  0  0  0  0  0  0  0  0  0  0
  161.2250  205.0040  151.7720 C   0  0  0  0  0  2  0  0  0  0  0  0
  160.8830  200.2010  148.7510 O   0  0  0  0  0  1  0  0  0  0  0  0
  162.7520  206.8450  148.3180 O   0  0  0  0  0  0  0  0  0  0  0  0
  160.8730  206.3380  149.7930 C   0  0  2  0  0  3  0  0  0  0  0  0
  160.4890  204.5730  146.4520 C   0  0  0  0  0  3  0  0  0  0  0  0
  161.2700  201.3360  150.8430 C   0  0  0  0  0  3  0  0  0  0  0  0
  162.1880  206.0950  147.2830 C   0  0  0  0  0  0  0  0  0  0  0  0
  162.7100  206.2080  145.9900 C   0  0  0  0  0  3  0  0  0  0  0  0
  160.4630  206.1090  151.1830 N   0  0  0  0  0  2  0  0  0  0  0  0
  161.1010  203.7510  150.9600 C   0  0  0  0  0  0  0  0  0  0  0  0
  161.3400  202.5200  151.5790 C   0  0  0  0  0  3  0  0  0  0  0  0
  161.5810  209.3040  148.9220 O   0  0  0  0  0  0  0  0  0  0  0  0
  162.2360  209.1770  149.9940 C   0  0  0  0  0  0  0  0  0  0  0  0
  162.6670  207.8890  150.4270 N   0  0  0  0  0  2  0  0  0  0  0  0
  160.3130  211.3750  152.3240 C   0  0  1  0  0  3  0  0  0  0  0  0
  162.3370  210.1210  152.3180 C   0  0  0  0  0  2  0  0  0  0  0  0
  161.9390  211.8400  149.0040 O   0  0  0  0  0  1  0  0  0  0  0  0
  158.8640  211.3810  152.7630 C   0  0  0  0  0  1  0  0  0  0  0  0
  160.9040  210.0710  152.6170 N   0  0  0  0  0  2  0  0  0  0  0  0
  161.8500  211.6600  150.3860 C   0  0  2  0  0  3  0  0  0  0  0  0
  162.5770  210.3800  150.8270 C   0  0  2  0  0  3  0  0  0  0  0  0
  160.3890  211.6590  150.8270 C   0  0  0  0  0  2  0  0  0  0  0  0
  1 14  1  0  0  0  0
  2  5  1  6  0  0  0
  2  3  1  0  0  0  0
  2 13  1  0  0  0  0
  3 19  1  0  0  0  0
  4 15  2  0  0  0  0
  6  1  2  0  0  0  0
  6 17  1  0  0  0  0
  7  4  1  0  0  0  0
  7  3  2  0  0  0  0
  8 13  1  0  0  0  0
  8 23  1  1  0  0  0
  9  1  1  0  0  0  0
 11  4  1  0  0  0  0
 12  8  1  0  0  0  0
 13 18  1  1  0  0  0
 14  5  2  0  0  0  0
 15 20  1  0  0  0  0
 16  5  1  0  0  0  0
 16 12  1  0  0  0  0
 17 16  2  0  0  0  0
 18 10  1  0  0  0  0
 19 20  2  0  0  0  0
 19 10  1  0  0  0  0
 21 22  2  0  0  0  0
 22 23  1  0  0  0  0
 24 28  1  0  0  0  0
 24 27  1  6  0  0  0
 25 28  1  0  0  0  0
 29 26  1  6  0  0  0
 29 30  1  0  0  0  0
 29 31  1  0  0  0  0
 30 22  1  6  0  0  0
 30 25  1  0  0  0  0
 31 24  1  0  0  0  0
M  END
>  <MODEL>
3

>  <REMARK>
 VINA RESULT:      -6.7      1.954      2.486
  Name = 
  2 active torsions:
  status: ('A' for Active; 'I' for Inactive)
    1  A    between atoms: C_5  and  C_30
    2  A    between atoms: C_10  and  N_16
                            x       y       z     vdW  Elec       q    Type
                         _______ _______ _______ _____ _____    ______ ____

>  <TORSDO>
F 2

$$$$
=
 OpenBabel11122413253D

 31 35  0  0  1  0  0  0  0  0999 V2000
  161.4000  207.9100  138.0440 C   0  0  0  0  0  0  0  0  0  0  0  0
  159.5170  211.1700  138.6210 C   0  0  2  0  0  3  0  0  0  0  0  0
  158.0420  210.8330  138.7230 C   0  0  0  0  0  0  0  0  0  0  0  0
  156.1660  209.3950  138.1430 C   0  0  0  0  0  0  0  0  0  0  0  0
  160.4210  209.9810  138.8460 C   0  0  0  0  0  0  0  0  0  0  0  0
  162.0980  207.7700  139.2450 C   0  0  0  0  0  3  0  0  0  0  0  0
  157.5350  209.6710  138.1200 C   0  0  0  0  0  3  0  0  0  0  0  0
  160.1320  211.9060  140.9780 C   0  0  2  0  0  3  0  0  0  0  0  0
  161.5300  206.9750  137.0730 F   0  0  0  0  0  0  0  0  0  0  0  0
  157.6300  212.9990  139.9690 C   0  0  0  0  0  2  0  0  0  0  0  0
  155.6820  208.2350  137.5560 O   0  0  0  0  0  1  0  0  0  0  0  0
  161.0630  210.8270  141.0420 O   0  0  0  0  0  0  0  0  0  0  0  0
  159.9120  212.3550  139.5240 C   0  0  2  0  0  3  0  0  0  0  0  0
  160.5670  209.0130  137.8430 C   0  0  0  0  0  3  0  0  0  0  0  0
  155.2840  210.2890  138.7530 C   0  0  0  0  0  3  0  0  0  0  0  0
  161.1390  209.8440  140.0520 C   0  0  0  0  0  0  0  0  0  0  0  0
  161.9720  208.7370  140.2460 C   0  0  0  0  0  3  0  0  0  0  0  0
  158.9200  213.4320  139.4260 N   0  0  0  0  0  2  0  0  0  0  0  0
  157.1380  211.7510  139.3010 C   0  0  0  0  0  0  0  0  0  0  0  0
  155.7700  211.4630  139.3320 C   0  0  0  0  0  3  0  0  0  0  0  0
  160.1100  212.0100  143.8240 O   0  0  0  0  0  0  0  0  0  0  0  0
  160.5840  213.0040  143.2070 C   0  0  0  0  0  0  0  0  0  0  0  0
  160.6180  213.0190  141.7800 N   0  0  0  0  0  2  0  0  0  0  0  0
  162.3770  213.4470  146.4540 C   0  0  1  0  0  3  0  0  0  0  0  0
  162.6280  214.0920  144.1760 C   0  0  0  0  0  2  0  0  0  0  0  0
  159.0150  214.3880  145.1510 O   0  0  0  0  0  1  0  0  0  0  0  0
  162.8250  212.4680  147.5170 C   0  0  0  0  0  1  0  0  0  0  0  0
  162.9520  213.0630  145.1660 N   0  0  0  0  0  2  0  0  0  0  0  0
  160.4020  214.4340  145.3020 C   0  0  2  0  0  3  0  0  0  0  0  0
  161.1140  214.1900  143.9610 C   0  0  2  0  0  3  0  0  0  0  0  0
  160.8540  213.4410  146.3690 C   0  0  0  0  0  2  0  0  0  0  0  0
  1  6  1  0  0  0  0
  2  3  1  1  0  0  0
  2  5  1  0  0  0  0
  2 13  1  0  0  0  0
  3 19  1  0  0  0  0
  4 15  2  0  0  0  0
  5 16  2  0  0  0  0
  6 17  2  0  0  0  0
  7  4  1  0  0  0  0
  7  3  2  0  0  0  0
  8 12  1  0  0  0  0
  8 23  1  1  0  0  0
  9  1  1  0  0  0  0
 11  4  1  0  0  0  0
 13 18  1  1  0  0  0
 13  8  1  0  0  0  0
 14  1  2  0  0  0  0
 14  5  1  0  0  0  0
 15 20  1  0  0  0  0
 16 17  1  0  0  0  0
 16 12  1  0  0  0  0
 18 10  1  0  0  0  0
 19 20  2  0  0  0  0
 19 10  1  0  0  0  0
 22 21  2  0  0  0  0
 23 22  1  0  0  0  0
 24 27  1  1  0  0  0
 25 28  1  0  0  0  0
 28 24  1  0  0  0  0
 29 26  1  6  0  0  0
 29 31  1  0  0  0  0
 30 22  1  1  0  0  0
 30 25  1  0  0  0  0
 30 29  1  0  0  0  0
 31 24  1  0  0  0  0
M  END
>  <MODEL>
4

>  <REMARK>
 VINA RESULT:      -6.1      6.961      9.999
  Name = 
  2 active torsions:
  status: ('A' for Active; 'I' for Inactive)
    1  A    between atoms: C_5  and  C_30
    2  A    between atoms: C_10  and  N_16
                            x       y       z     vdW  Elec       q    Type
                         _______ _______ _______ _____ _____    ______ ____

>  <TORSDO>
F 2

$$$$
=
 OpenBabel11122413253D

 31 35  0  0  1  0  0  0  0  0999 V2000
  161.5820  202.8440  151.7830 C   0  0  0  0  0  0  0  0  0  0  0  0
  162.3320  206.2070  150.1590 C   0  0  2  0  0  3  0  0  0  0  0  0
  161.7650  206.1720  148.7530 C   0  0  0  0  0  0  0  0  0  0  0  0
  161.1340  204.9120  146.7690 C   0  0  0  0  0  0  0  0  0  0  0  0
  161.7390  205.1600  151.0720 C   0  0  0  0  0  0  0  0  0  0  0  0
  160.6520  203.2030  152.7610 C   0  0  0  0  0  3  0  0  0  0  0  0
  161.5810  204.9470  148.0920 C   0  0  0  0  0  3  0  0  0  0  0  0
  160.8530  207.8920  151.3640 C   0  0  2  0  0  3  0  0  0  0  0  0
  161.9560  201.5500  151.6470 F   0  0  0  0  0  0  0  0  0  0  0  0
  161.7170  208.7030  148.7050 C   0  0  0  0  0  2  0  0  0  0  0  0
  160.9420  203.6930  146.1340 O   0  0  0  0  0  1  0  0  0  0  0  0
  160.4560  206.8580  152.2630 O   0  0  0  0  0  0  0  0  0  0  0  0
  162.2520  207.6120  150.7890 C   0  0  2  0  0  3  0  0  0  0  0  0
  162.1270  203.8200  150.9440 C   0  0  0  0  0  3  0  0  0  0  0  0
  160.8820  206.1030  146.0850 C   0  0  0  0  0  3  0  0  0  0  0  0
  160.8110  205.5210  152.0700 C   0  0  0  0  0  0  0  0  0  0  0  0
  160.2700  204.5390  152.9070 C   0  0  0  0  0  3  0  0  0  0  0  0
  162.6640  208.6360  149.8220 N   0  0  0  0  0  2  0  0  0  0  0  0
  161.5480  207.3710  148.0400 C   0  0  0  0  0  0  0  0  0  0  0  0
  161.0870  207.3280  146.7200 C   0  0  0  0  0  3  0  0  0  0  0  0
  161.2060  208.2480  154.1670 O   0  0  0  0  0  0  0  0  0  0  0  0
  161.0310  209.2820  153.4640 C   0  0  0  0  0  0  0  0  0  0  0  0
  160.8400  209.1730  152.0540 N   0  0  0  0  0  2  0  0  0  0  0  0
  158.4060  211.3580  155.1240 C   0  0  1  0  0  3  0  0  0  0  0  0
  160.6070  210.5720  155.5760 C   0  0  0  0  0  2  0  0  0  0  0  0
  160.3900  211.6380  151.9820 O   0  0  0  0  0  1  0  0  0  0  0  0
  156.9330  211.1270  155.3860 C   0  0  0  0  0  1  0  0  0  0  0  0
  159.1810  210.2680  155.7130 N   0  0  0  0  0  2  0  0  0  0  0  0
  160.1320  211.6580  153.3540 C   0  0  2  0  0  3  0  0  0  0  0  0
  161.0130  210.6430  154.1000 C   0  0  2  0  0  3  0  0  0  0  0  0
  158.6480  211.4180  153.6180 C   0  0  0  0  0  2  0  0  0  0  0  0
  1  6  1  0  0  0  0
  2  3  1  6  0  0  0
  2 13  1  0  0  0  0
  2  5  1  0  0  0  0
  4  7  2  0  0  0  0
  5 16  2  0  0  0  0
  6 17  2  0  0  0  0
  7  3  1  0  0  0  0
  8 23  1  1  0  0  0
  8 12  1  0  0  0  0
  9  1  1  0  0  0  0
 10 18  1  0  0  0  0
 11  4  1  0  0  0  0
 13 18  1  6  0  0  0
 13  8  1  0  0  0  0
 14  5  1  0  0  0  0
 14  1  2  0  0  0  0
 15 20  2  0  0  0  0
 15  4  1  0  0  0  0
 16 12  1  0  0  0  0
 16 17  1  0  0  0  0
 19 10  1  0  0  0  0
 19  3  2  0  0  0  0
 20 19  1  0  0  0  0
 22 21  2  0  0  0  0
 23 22  1  0  0  0  0
 24 27  1  6  0  0  0
 24 28  1  0  0  0  0
 25 28  1  0  0  0  0
 29 26  1  6  0  0  0
 29 31  1  0  0  0  0
 29 30  1  0  0  0  0
 30 22  1  6  0  0  0
 30 25  1  0  0  0  0
 31 24  1  0  0  0  0
M  END
>  <MODEL>
5

>  <REMARK>
 VINA RESULT:      -5.3      3.659      5.668
  Name = 
  2 active torsions:
  status: ('A' for Active; 'I' for Inactive)
    1  A    between atoms: C_5  and  C_30
    2  A    between atoms: C_10  and  N_16
                            x       y       z     vdW  Elec       q    Type
                         _______ _______ _______ _____ _____    ______ ____

>  <TORSDO>
F 2

$$$$
=
 OpenBabel11122413253D

 31 35  0  0  1  0  0  0  0  0999 V2000
  161.9530  206.5310  147.5720 C   0  0  0  0  0  0  0  0  0  0  0  0
  162.3200  209.3130  150.1470 C   0  0  2  0  0  3  0  0  0  0  0  0
  161.7060  210.5670  149.5550 C   0  0  0  0  0  0  0  0  0  0  0  0
  161.1230  211.9090  147.6100 C   0  0  0  0  0  0  0  0  0  0  0  0
  161.8630  208.0430  149.4680 C   0  0  0  0  0  0  0  0  0  0  0  0
  161.0300  205.6880  148.1950 C   0  0  0  0  0  3  0  0  0  0  0  0
  161.6140  210.7240  148.1630 C   0  0  0  0  0  3  0  0  0  0  0  0
  160.7340  208.7030  152.0420 C   0  0  2  0  0  3  0  0  0  0  0  0
  162.4420  206.2120  146.3500 F   0  0  0  0  0  0  0  0  0  0  0  0
  161.4160  211.5280  151.8800 C   0  0  0  0  0  2  0  0  0  0  0  0
  161.0240  212.0430  146.2320 O   0  0  0  0  0  1  0  0  0  0  0  0
  160.4710  207.4640  151.3860 O   0  0  0  0  0  0  0  0  0  0  0  0
  162.1300  209.2320  151.6750 C   0  0  2  0  0  3  0  0  0  0  0  0
  162.3700  207.7020  148.2070 C   0  0  0  0  0  3  0  0  0  0  0  0
  160.7340  212.9590  148.4440 C   0  0  0  0  0  3  0  0  0  0  0  0
  160.9430  207.1820  150.1010 C   0  0  0  0  0  0  0  0  0  0  0  0
  160.5290  206.0100  149.4590 C   0  0  0  0  0  3  0  0  0  0  0  0
  162.4070  210.5320  152.2990 N   0  0  0  0  0  2  0  0  0  0  0  0
  161.3500  211.6490  150.3880 C   0  0  0  0  0  0  0  0  0  0  0  0
  160.8460  212.8280  149.8290 C   0  0  0  0  0  3  0  0  0  0  0  0
  159.1840  210.3360  153.7860 O   0  0  0  0  0  0  0  0  0  0  0  0
  159.8250  209.3770  154.2990 C   0  0  0  0  0  0  0  0  0  0  0  0
  160.6260  208.5250  153.4820 N   0  0  0  0  0  2  0  0  0  0  0  0
  162.1130  210.0560  157.1730 C   0  0  1  0  0  3  0  0  0  0  0  0
  159.8370  210.4230  156.5820 C   0  0  0  0  0  2  0  0  0  0  0  0
  160.8620  206.9870  155.4690 O   0  0  0  0  0  1  0  0  0  0  0  0
  163.4850  210.6900  157.2610 C   0  0  0  0  0  1  0  0  0  0  0  0
  161.1870  210.9890  156.5350 N   0  0  0  0  0  2  0  0  0  0  0  0
  160.8210  208.1260  156.2760 C   0  0  2  0  0  3  0  0  0  0  0  0
  159.7600  209.1210  155.7780 C   0  0  2  0  0  3  0  0  0  0  0  0
  162.2020  208.7690  156.3580 C   0  0  0  0  0  2  0  0  0  0  0  0
  1  6  2  0  0  0  0
  1 14  1  0  0  0  0
  2  5  1  6  0  0  0
  2 13  1  0  0  0  0
  3  2  1  0  0  0  0
  3 19  1  0  0  0  0
  4  7  1  0  0  0  0
  4 15  2  0  0  0  0
  5 16  1  0  0  0  0
  6 17  1  0  0  0  0
  7  3  2  0  0  0  0
  8 23  1  1  0  0  0
  9  1  1  0  0  0  0
 10 18  1  0  0  0  0
 11  4  1  0  0  0  0
 12  8  1  0  0  0  0
 13  8  1  0  0  0  0
 13 18  1  1  0  0  0
 14  5  2  0  0  0  0
 15 20  1  0  0  0  0
 16 12  1  0  0  0  0
 17 16  2  0  0  0  0
 19 10  1  0  0  0  0
 20 19  2  0  0  0  0
 21 22  2  0  0  0  0
 23 22  1  0  0  0  0
 24 27  1  6  0  0  0
 28 25  1  0  0  0  0
 28 24  1  0  0  0  0
 29 26  1  6  0  0  0
 29 31  1  0  0  0  0
 30 22  1  6  0  0  0
 30 29  1  0  0  0  0
 30 25  1  0  0  0  0
 31 24  1  0  0  0  0
M  END
>  <MODEL>
6

>  <REMARK>
 VINA RESULT:      -5.1      3.841      7.087
  Name = 
  2 active torsions:
  status: ('A' for Active; 'I' for Inactive)
    1  A    between atoms: C_5  and  C_30
    2  A    between atoms: C_10  and  N_16
                            x       y       z     vdW  Elec       q    Type
                         _______ _______ _______ _____ _____    ______ ____

>  <TORSDO>
F 2

$$$$
