=
 OpenBabel11122413073D

 31 35  0  0  1  0  0  0  0  0999 V2000
  160.6840  207.4970  156.5010 C   0  0  0  0  0  0  0  0  0  0  0  0
  161.3540  208.9520  153.1020 N   0  0  0  0  0  0  0  0  0  0  0  0
  161.3480  207.8780  152.1280 C   0  0  0  0  0  0  0  0  0  0  0  0
  161.1190  205.5250  151.5420 C   0  0  0  0  0  0  0  0  0  0  0  0
  160.8350  208.7690  154.4350 C   0  0  0  0  0  0  0  0  0  0  0  0
  159.7960  208.4410  157.0220 C   0  0  0  0  0  3  0  0  0  0  0  0
  161.1910  206.5330  152.5060 C   0  0  0  0  0  3  0  0  0  0  0  0
  160.0320  210.9670  152.7450 C   0  0  2  0  0  3  0  0  0  0  0  0
  161.0410  206.4220  157.2430 F   0  0  0  0  0  0  0  0  0  0  0  0
  161.5830  209.5150  150.3610 O   0  0  0  0  0  0  0  0  0  0  0  0
  160.9560  204.1090  151.9610 C   0  0  0  0  0  1  0  0  0  0  0  0
  159.5860  210.9800  154.2130 C   0  0  0  0  0  2  0  0  0  0  0  0
  161.4270  210.3500  152.6510 C   0  0  2  0  0  3  0  0  0  0  0  0
  161.2040  207.6630  155.2160 C   0  0  0  0  0  3  0  0  0  0  0  0
  161.1860  205.8500  150.1860 C   0  0  0  0  0  3  0  0  0  0  0  0
  159.9410  209.7250  154.9700 C   0  0  0  0  0  0  0  0  0  0  0  0
  159.4310  209.5540  156.2610 C   0  0  0  0  0  3  0  0  0  0  0  0
  162.0730  210.4940  151.2680 C   0  0  0  0  0  2  0  0  0  0  0  0
  161.4290  208.1890  150.7590 C   0  0  0  0  0  0  0  0  0  0  0  0
  161.3380  207.1820  149.7950 C   0  0  0  0  0  3  0  0  0  0  0  0
  160.0390  212.2770  152.2560 O   0  0  0  0  0  0  0  0  0  0  0  0
  158.3570  212.3250  150.7050 O   0  0  0  0  0  1  0  0  0  0  0  0
  158.6950  212.5880  152.0330 C   0  0  2  0  0  3  0  0  0  0  0  0
  156.7390  213.7270  154.7240 C   0  0  0  0  0  0  0  0  0  0  0  0
  158.9560  214.3640  153.8290 C   0  0  0  0  0  2  0  0  0  0  0  0
  156.4050  214.2710  151.0710 C   0  0  0  0  0  1  0  0  0  0  0  0
  156.0180  213.5140  155.7330 O   0  0  0  0  0  0  0  0  0  0  0  0
  158.1220  213.8650  154.8760 O   0  0  0  0  0  0  0  0  0  0  0  0
  156.9580  214.4530  152.4050 N   0  0  0  0  0  0  0  0  0  0  0  0
  158.3770  214.0420  152.4530 C   0  0  2  0  0  3  0  0  0  0  0  0
  156.1270  213.7140  153.3560 C   0  0  0  0  0  2  0  0  0  0  0  0
  1  6  1  0  0  0  0
  1  9  1  0  0  0  0
  2  5  1  0  0  0  0
  3  7  1  0  0  0  0
  3  2  1  0  0  0  0
  4 11  1  0  0  0  0
  4  7  2  0  0  0  0
  5 16  2  0  0  0  0
  5 14  1  0  0  0  0
  8 21  1  1  0  0  0
  8 12  1  0  0  0  0
 10 19  1  0  0  0  0
 10 18  1  0  0  0  0
 12 16  1  0  0  0  0
 13 18  1  6  0  0  0
 13  8  1  0  0  0  0
 13  2  1  0  0  0  0
 14  1  2  0  0  0  0
 15  4  1  0  0  0  0
 16 17  1  0  0  0  0
 17  6  2  0  0  0  0
 19  3  2  0  0  0  0
 20 15  2  0  0  0  0
 20 19  1  0  0  0  0
 23 22  1  6  0  0  0
 23 21  1  0  0  0  0
 24 28  1  0  0  0  0
 24 27  2  0  0  0  0
 25 28  1  0  0  0  0
 26 29  1  0  0  0  0
 29 30  1  0  0  0  0
 29 31  1  0  0  0  0
 30 23  1  1  0  0  0
 30 25  1  0  0  0  0
 31 24  1  0  0  0  0
M  END
>  <MODEL>
1

>  <REMARK>
 VINA RESULT:      -6.8      0.000      0.000
  Name = 
  3 active torsions:
  status: ('A' for Active; 'I' for Inactive)
    1  A    between atoms: C_5  and  O_16
    2  A    between atoms: C_5  and  C_30
    3  A    between atoms: C_10  and  O_16
                            x       y       z     vdW  Elec       q    Type
                         _______ _______ _______ _____ _____    ______ ____

>  <TORSDO>
F 3

$$$$
=
 OpenBabel11122413073D

 31 35  0  0  1  0  0  0  0  0999 V2000
  160.7530  207.3320  154.6730 C   0  0  0  0  0  0  0  0  0  0  0  0
  161.7390  208.5930  151.2730 N   0  0  0  0  0  0  0  0  0  0  0  0
  161.4800  207.5510  150.2990 C   0  0  0  0  0  0  0  0  0  0  0  0
  160.7060  205.3180  149.7120 C   0  0  0  0  0  0  0  0  0  0  0  0
  161.1940  208.5350  152.6070 C   0  0  0  0  0  0  0  0  0  0  0  0
  160.1110  208.4570  155.1960 C   0  0  0  0  0  3  0  0  0  0  0  0
  161.0130  206.2800  150.6770 C   0  0  0  0  0  3  0  0  0  0  0  0
  160.9240  210.8620  150.9200 C   0  0  2  0  0  3  0  0  0  0  0  0
  160.8500  206.2030  155.4140 F   0  0  0  0  0  0  0  0  0  0  0  0
  162.0880  209.0890  148.5310 O   0  0  0  0  0  0  0  0  0  0  0  0
  160.2160  203.9780  150.1310 C   0  0  0  0  0  1  0  0  0  0  0  0
  160.4960  210.9780  152.3880 C   0  0  0  0  0  2  0  0  0  0  0  0
  162.1360  209.9350  150.8220 C   0  0  2  0  0  3  0  0  0  0  0  0
  161.2960  207.3730  153.3870 C   0  0  0  0  0  3  0  0  0  0  0  0
  160.8440  205.6180  148.3560 C   0  0  0  0  0  3  0  0  0  0  0  0
  160.5490  209.6730  153.1440 C   0  0  0  0  0  0  0  0  0  0  0  0
  160.0160  209.6250  154.4360 C   0  0  0  0  0  3  0  0  0  0  0  0
  162.7950  209.9250  149.4380 C   0  0  0  0  0  2  0  0  0  0  0  0
  161.6280  207.8360  148.9290 C   0  0  0  0  0  0  0  0  0  0  0  0
  161.3030  206.8780  147.9650 C   0  0  0  0  0  3  0  0  0  0  0  0
  161.2370  212.1340  150.4310 O   0  0  0  0  0  0  0  0  0  0  0  0
  160.8210  212.1110  148.1800 O   0  0  0  0  0  1  0  0  0  0  0  0
  160.2840  212.3850  149.4390 C   0  0  2  0  0  3  0  0  0  0  0  0
  157.8560  213.6410  151.6510 C   0  0  0  0  0  0  0  0  0  0  0  0
  160.0680  214.4530  150.8970 C   0  0  0  0  0  2  0  0  0  0  0  0
  157.9400  213.5140  147.9450 C   0  0  0  0  0  1  0  0  0  0  0  0
  157.0420  213.4900  152.5980 O   0  0  0  0  0  0  0  0  0  0  0  0
  159.1760  214.0130  151.9220 O   0  0  0  0  0  0  0  0  0  0  0  0
  158.2830  213.9970  149.2740 N   0  0  0  0  0  0  0  0  0  0  0  0
  159.7240  213.8220  149.5490 C   0  0  2  0  0  3  0  0  0  0  0  0
  157.4380  213.3070  150.2510 C   0  0  0  0  0  2  0  0  0  0  0  0
  1  6  1  0  0  0  0
  1  9  1  0  0  0  0
  2  5  1  0  0  0  0
  3  7  1  0  0  0  0
  3  2  1  0  0  0  0
  4 11  1  0  0  0  0
  4  7  2  0  0  0  0
  5 16  2  0  0  0  0
  5 14  1  0  0  0  0
  8 21  1  1  0  0  0
  8 12  1  0  0  0  0
 10 19  1  0  0  0  0
 10 18  1  0  0  0  0
 12 16  1  0  0  0  0
 13 18  1  6  0  0  0
 13  8  1  0  0  0  0
 13  2  1  0  0  0  0
 14  1  2  0  0  0  0
 15  4  1  0  0  0  0
 16 17  1  0  0  0  0
 17  6  2  0  0  0  0
 19  3  2  0  0  0  0
 20 15  2  0  0  0  0
 20 19  1  0  0  0  0
 23 22  1  6  0  0  0
 23 21  1  0  0  0  0
 24 28  1  0  0  0  0
 24 27  2  0  0  0  0
 25 28  1  0  0  0  0
 26 29  1  0  0  0  0
 29 30  1  0  0  0  0
 29 31  1  0  0  0  0
 30 23  1  1  0  0  0
 30 25  1  0  0  0  0
 31 24  1  0  0  0  0
M  END
>  <MODEL>
2

>  <REMARK>
 VINA RESULT:      -6.4      1.933      2.459
  Name = 
  3 active torsions:
  status: ('A' for Active; 'I' for Inactive)
    1  A    between atoms: C_5  and  O_16
    2  A    between atoms: C_5  and  C_30
    3  A    between atoms: C_10  and  O_16
                            x       y       z     vdW  Elec       q    Type
                         _______ _______ _______ _____ _____    ______ ____

>  <TORSDO>
F 3

$$$$
=
 OpenBabel11122413073D

 31 35  0  0  1  0  0  0  0  0999 V2000
  162.1750  210.4260  149.5380 C   0  0  0  0  0  0  0  0  0  0  0  0
  161.9280  207.4770  151.8540 N   0  0  0  0  0  0  0  0  0  0  0  0
  161.2620  207.8970  153.0710 C   0  0  0  0  0  0  0  0  0  0  0  0
  160.1810  209.5980  154.4380 C   0  0  0  0  0  0  0  0  0  0  0  0
  161.9070  208.2870  150.6600 C   0  0  0  0  0  0  0  0  0  0  0  0
  161.8460  209.8310  148.3180 C   0  0  0  0  0  3  0  0  0  0  0  0
  160.8830  209.2340  153.2870 C   0  0  0  0  0  3  0  0  0  0  0  0
  161.1930  205.4890  150.6520 C   0  0  2  0  0  3  0  0  0  0  0  0
  162.4620  211.7480  149.5910 F   0  0  0  0  0  0  0  0  0  0  0  0
  161.2810  205.6030  153.8420 O   0  0  0  0  0  0  0  0  0  0  0  0
  159.7920  211.0170  154.6510 C   0  0  0  0  0  1  0  0  0  0  0  0
  161.3410  206.2040  149.3020 C   0  0  0  0  0  2  0  0  0  0  0  0
  162.2210  206.0530  151.6330 C   0  0  2  0  0  3  0  0  0  0  0  0
  162.2110  209.6560  150.7030 C   0  0  0  0  0  3  0  0  0  0  0  0
  159.8330  208.6290  155.3810 C   0  0  0  0  0  3  0  0  0  0  0  0
  161.5810  207.6890  149.4210 C   0  0  0  0  0  0  0  0  0  0  0  0
  161.5560  208.4670  148.2600 C   0  0  0  0  0  3  0  0  0  0  0  0
  162.3250  205.2580  152.9400 C   0  0  0  0  0  2  0  0  0  0  0  0
  160.9180  206.9330  154.0360 C   0  0  0  0  0  0  0  0  0  0  0  0
  160.1990  207.2970  155.1780 C   0  0  0  0  0  3  0  0  0  0  0  0
  161.3890  204.1170  150.4680 O   0  0  0  0  0  0  0  0  0  0  0  0
  159.7070  203.1320  149.2670 O   0  0  0  0  0  1  0  0  0  0  0  0
  160.9010  203.8500  149.1860 C   0  0  2  0  0  3  0  0  0  0  0  0
  160.6530  202.7580  145.8520 C   0  0  0  0  0  0  0  0  0  0  0  0
  162.3740  204.0010  147.1220 C   0  0  0  0  0  2  0  0  0  0  0  0
  161.3650  200.8930  148.9780 C   0  0  0  0  0  1  0  0  0  0  0  0
  160.0090  202.6230  144.7800 O   0  0  0  0  0  0  0  0  0  0  0  0
  161.4230  203.9060  146.0610 O   0  0  0  0  0  0  0  0  0  0  0  0
  161.6440  201.7740  147.8540 N   0  0  0  0  0  0  0  0  0  0  0  0
  161.9650  203.1400  148.3160 C   0  0  2  0  0  3  0  0  0  0  0  0
  160.4960  201.7450  146.9450 C   0  0  0  0  0  2  0  0  0  0  0  0
  1  9  1  0  0  0  0
  1 14  1  0  0  0  0
  2  3  1  0  0  0  0
  3  7  2  0  0  0  0
  3 19  1  0  0  0  0
  4 11  1  0  0  0  0
  4 15  2  0  0  0  0
  5 14  2  0  0  0  0
  5  2  1  0  0  0  0
  6  1  2  0  0  0  0
  7  4  1  0  0  0  0
  8 21  1  6  0  0  0
  8 13  1  0  0  0  0
 10 19  1  0  0  0  0
 12 16  1  0  0  0  0
 12  8  1  0  0  0  0
 13  2  1  0  0  0  0
 13 18  1  1  0  0  0
 16  5  1  0  0  0  0
 17  6  1  0  0  0  0
 17 16  2  0  0  0  0
 18 10  1  0  0  0  0
 19 20  2  0  0  0  0
 20 15  1  0  0  0  0
 23 22  1  1  0  0  0
 23 21  1  0  0  0  0
 24 28  1  0  0  0  0
 24 31  1  0  0  0  0
 25 30  1  0  0  0  0
 27 24  2  0  0  0  0
 28 25  1  0  0  0  0
 29 30  1  0  0  0  0
 29 26  1  0  0  0  0
 30 23  1  6  0  0  0
 31 29  1  0  0  0  0
M  END
>  <MODEL>
3

>  <REMARK>
 VINA RESULT:      -6.2      4.462      9.070
  Name = 
  3 active torsions:
  status: ('A' for Active; 'I' for Inactive)
    1  A    between atoms: C_5  and  O_16
    2  A    between atoms: C_5  and  C_30
    3  A    between atoms: C_10  and  O_16
                            x       y       z     vdW  Elec       q    Type
                         _______ _______ _______ _____ _____    ______ ____

>  <TORSDO>
F 3

$$$$
=
 OpenBabel11122413073D

 31 35  0  0  1  0  0  0  0  0999 V2000
  160.8310  206.1980  146.3290 C   0  0  0  0  0  0  0  0  0  0  0  0
  160.7170  205.0980  149.9210 N   0  0  0  0  0  0  0  0  0  0  0  0
  160.8520  203.6560  149.9690 C   0  0  0  0  0  0  0  0  0  0  0  0
  161.1250  201.4970  148.8760 C   0  0  0  0  0  0  0  0  0  0  0  0
  161.0220  205.8490  148.7270 C   0  0  0  0  0  0  0  0  0  0  0  0
  161.6460  207.3280  146.4250 C   0  0  0  0  0  3  0  0  0  0  0  0
  160.9250  202.8770  148.8010 C   0  0  0  0  0  3  0  0  0  0  0  0
  162.1150  206.5310  151.3110 C   0  0  2  0  0  3  0  0  0  0  0  0
  160.3440  205.8140  145.1250 F   0  0  0  0  0  0  0  0  0  0  0  0
  160.9220  203.7700  152.3860 O   0  0  0  0  0  0  0  0  0  0  0  0
  161.1960  200.6890  147.6300 C   0  0  0  0  0  1  0  0  0  0  0  0
  162.3310  207.5110  150.1500 C   0  0  0  0  0  2  0  0  0  0  0  0
  160.7400  205.8790  151.1670 C   0  0  2  0  0  3  0  0  0  0  0  0
  160.5170  205.4650  147.4760 C   0  0  0  0  0  3  0  0  0  0  0  0
  161.2730  200.8790  150.1190 C   0  0  0  0  0  3  0  0  0  0  0  0
  161.8410  206.9980  148.8190 C   0  0  0  0  0  0  0  0  0  0  0  0
  162.1430  207.7300  147.6670 C   0  0  0  0  0  3  0  0  0  0  0  0
  160.3170  205.0560  152.3900 C   0  0  0  0  0  2  0  0  0  0  0  0
  160.9890  203.0180  151.2150 C   0  0  0  0  0  0  0  0  0  0  0  0
  161.2070  201.6400  151.2880 C   0  0  0  0  0  3  0  0  0  0  0  0
  162.2070  207.2250  152.5210 O   0  0  0  0  0  0  0  0  0  0  0  0
  162.6860  209.4580  152.3750 O   0  0  0  0  0  1  0  0  0  0  0  0
  161.6850  208.4930  152.2520 C   0  0  2  0  0  3  0  0  0  0  0  0
  161.4400  210.6340  155.0310 C   0  0  0  0  0  0  0  0  0  0  0  0
  160.0340  210.2600  153.0310 C   0  0  0  0  0  2  0  0  0  0  0  0
  160.8310  206.9900  154.7040 C   0  0  0  0  0  1  0  0  0  0  0  0
  161.9450  211.4530  155.8410 O   0  0  0  0  0  0  0  0  0  0  0  0
  160.8480  211.0970  153.8530 O   0  0  0  0  0  0  0  0  0  0  0  0
  160.5490  208.4110  154.5620 N   0  0  0  0  0  0  0  0  0  0  0  0
  160.4540  208.7940  153.1380 C   0  0  2  0  0  3  0  0  0  0  0  0
  161.5820  209.1620  155.2780 C   0  0  0  0  0  2  0  0  0  0  0  0
  1  6  2  0  0  0  0
  1 14  1  0  0  0  0
  2  3  1  0  0  0  0
  2 13  1  0  0  0  0
  3 19  1  0  0  0  0
  4 15  2  0  0  0  0
  5 16  1  0  0  0  0
  5  2  1  0  0  0  0
  6 17  1  0  0  0  0
  7  4  1  0  0  0  0
  7  3  2  0  0  0  0
  8 21  1  1  0  0  0
  9  1  1  0  0  0  0
 10 18  1  0  0  0  0
 11  4  1  0  0  0  0
 12  8  1  0  0  0  0
 13  8  1  0  0  0  0
 13 18  1  1  0  0  0
 14  5  2  0  0  0  0
 15 20  1  0  0  0  0
 16 12  1  0  0  0  0
 17 16  2  0  0  0  0
 19 20  2  0  0  0  0
 19 10  1  0  0  0  0
 23 22  1  1  0  0  0
 23 21  1  0  0  0  0
 24 31  1  0  0  0  0
 24 27  2  0  0  0  0
 25 30  1  0  0  0  0
 25 28  1  0  0  0  0
 28 24  1  0  0  0  0
 29 26  1  0  0  0  0
 29 31  1  0  0  0  0
 30 23  1  1  0  0  0
 30 29  1  0  0  0  0
M  END
>  <MODEL>
4

>  <REMARK>
 VINA RESULT:      -5.7      3.817      6.715
  Name = 
  3 active torsions:
  status: ('A' for Active; 'I' for Inactive)
    1  A    between atoms: C_5  and  O_16
    2  A    between atoms: C_5  and  C_30
    3  A    between atoms: C_10  and  O_16
                            x       y       z     vdW  Elec       q    Type
                         _______ _______ _______ _____ _____    ______ ____

>  <TORSDO>
F 3

$$$$
=
 OpenBabel11122413073D

 31 35  0  0  1  0  0  0  0  0999 V2000
  161.5920  203.5160  152.0120 C   0  0  0  0  0  0  0  0  0  0  0  0
  162.0050  206.8710  150.3700 N   0  0  0  0  0  0  0  0  0  0  0  0
  161.6730  206.7440  148.9650 C   0  0  0  0  0  0  0  0  0  0  0  0
  160.9600  205.4210  147.0480 C   0  0  0  0  0  0  0  0  0  0  0  0
  161.6600  205.8470  151.3260 C   0  0  0  0  0  0  0  0  0  0  0  0
  160.9650  203.8810  153.2050 C   0  0  0  0  0  3  0  0  0  0  0  0
  161.3420  205.5050  148.3890 C   0  0  0  0  0  3  0  0  0  0  0  0
  161.0130  208.6310  151.7330 C   0  0  2  0  0  3  0  0  0  0  0  0
  161.8620  202.2130  151.7600 F   0  0  0  0  0  0  0  0  0  0  0  0
  161.9290  209.1370  148.7150 O   0  0  0  0  0  0  0  0  0  0  0  0
  160.6170  204.1020  146.4550 C   0  0  0  0  0  1  0  0  0  0  0  0
  160.7920  207.6570  152.8970 C   0  0  0  0  0  2  0  0  0  0  0  0
  162.2520  208.2010  150.9470 C   0  0  2  0  0  3  0  0  0  0  0  0
  161.9420  204.4940  151.0790 C   0  0  0  0  0  3  0  0  0  0  0  0
  160.8850  206.5780  146.2700 C   0  0  0  0  0  3  0  0  0  0  0  0
  161.0310  206.2120  152.5390 C   0  0  0  0  0  0  0  0  0  0  0  0
  160.6910  205.2250  153.4690 C   0  0  0  0  0  3  0  0  0  0  0  0
  162.7060  209.2260  149.9020 C   0  0  0  0  0  2  0  0  0  0  0  0
  161.6070  207.8990  148.1650 C   0  0  0  0  0  0  0  0  0  0  0  0
  161.2060  207.8170  146.8290 C   0  0  0  0  0  3  0  0  0  0  0  0
  161.1750  209.9240  152.2390 O   0  0  0  0  0  0  0  0  0  0  0  0
  159.0280  210.7030  152.3870 O   0  0  0  0  0  1  0  0  0  0  0  0
  160.0830  210.1200  153.0890 C   0  0  2  0  0  3  0  0  0  0  0  0
  161.1270  208.9410  156.2340 C   0  0  0  0  0  0  0  0  0  0  0  0
  161.9520  210.7030  154.7070 C   0  0  0  0  0  2  0  0  0  0  0  0
  158.2550  211.0790  155.2660 C   0  0  0  0  0  1  0  0  0  0  0  0
  161.4010  208.0020  157.0260 O   0  0  0  0  0  0  0  0  0  0  0  0
  162.1300  209.4810  155.4230 O   0  0  0  0  0  0  0  0  0  0  0  0
  159.6460  210.7550  155.5470 N   0  0  0  0  0  0  0  0  0  0  0  0
  160.4850  210.9300  154.3430 C   0  0  2  0  0  3  0  0  0  0  0  0
  159.7060  209.3920  156.0800 C   0  0  0  0  0  2  0  0  0  0  0  0
  1  6  1  0  0  0  0
  2 13  1  0  0  0  0
  2  5  1  0  0  0  0
  3  2  1  0  0  0  0
  4  7  2  0  0  0  0
  5 16  2  0  0  0  0
  6 17  2  0  0  0  0
  7  3  1  0  0  0  0
  8 21  1  1  0  0  0
  8 12  1  0  0  0  0
  9  1  1  0  0  0  0
 10 18  1  0  0  0  0
 11  4  1  0  0  0  0
 13 18  1  6  0  0  0
 13  8  1  0  0  0  0
 14  5  1  0  0  0  0
 14  1  2  0  0  0  0
 15 20  2  0  0  0  0
 15  4  1  0  0  0  0
 16 12  1  0  0  0  0
 16 17  1  0  0  0  0
 19 10  1  0  0  0  0
 19  3  2  0  0  0  0
 20 19  1  0  0  0  0
 21 23  1  0  0  0  0
 23 22  1  6  0  0  0
 24 27  2  0  0  0  0
 25 28  1  0  0  0  0
 26 29  1  0  0  0  0
 28 24  1  0  0  0  0
 29 31  1  0  0  0  0
 30 23  1  6  0  0  0
 30 25  1  0  0  0  0
 30 29  1  0  0  0  0
 31 24  1  0  0  0  0
M  END
>  <MODEL>
5

>  <REMARK>
 VINA RESULT:      -5.6      2.945      4.690
  Name = 
  3 active torsions:
  status: ('A' for Active; 'I' for Inactive)
    1  A    between atoms: C_5  and  O_16
    2  A    between atoms: C_5  and  C_30
    3  A    between atoms: C_10  and  O_16
                            x       y       z     vdW  Elec       q    Type
                         _______ _______ _______ _____ _____    ______ ____

>  <TORSDO>
F 3

$$$$
=
 OpenBabel11122413073D

 31 35  0  0  1  0  0  0  0  0999 V2000
  161.2210  201.9150  150.6290 C   0  0  0  0  0  0  0  0  0  0  0  0
  161.7320  204.9600  148.4870 N   0  0  0  0  0  0  0  0  0  0  0  0
  161.3460  204.6400  147.1270 C   0  0  0  0  0  0  0  0  0  0  0  0
  160.5050  203.0840  145.4530 C   0  0  0  0  0  0  0  0  0  0  0  0
  161.3730  204.1100  149.5960 C   0  0  0  0  0  0  0  0  0  0  0  0
  160.6530  202.4870  151.7700 C   0  0  0  0  0  3  0  0  0  0  0  0
  160.9380  203.3480  146.7550 C   0  0  0  0  0  3  0  0  0  0  0  0
  160.8710  206.9530  149.5940 C   0  0  2  0  0  3  0  0  0  0  0  0
  161.4210  200.5770  150.5710 F   0  0  0  0  0  0  0  0  0  0  0  0
  161.7030  206.9530  146.5100 O   0  0  0  0  0  0  0  0  0  0  0  0
  160.0800  201.7100  145.0770 C   0  0  0  0  0  1  0  0  0  0  0  0
  160.6460  206.1780  150.8980 C   0  0  0  0  0  2  0  0  0  0  0  0
  162.0610  206.3470  148.8490 C   0  0  2  0  0  3  0  0  0  0  0  0
  161.5830  202.7230  149.5490 C   0  0  0  0  0  3  0  0  0  0  0  0
  160.4560  204.1130  144.5110 C   0  0  0  0  0  3  0  0  0  0  0  0
  160.8050  204.6840  150.7560 C   0  0  0  0  0  0  0  0  0  0  0  0
  160.4530  203.8670  151.8350 C   0  0  0  0  0  3  0  0  0  0  0  0
  162.5250  207.1790  147.6480 C   0  0  0  0  0  2  0  0  0  0  0  0
  161.3060  205.6640  146.1630 C   0  0  0  0  0  0  0  0  0  0  0  0
  160.8550  205.4030  144.8670 C   0  0  0  0  0  3  0  0  0  0  0  0
  161.1110  208.2970  149.8930 O   0  0  0  0  0  0  0  0  0  0  0  0
  160.4560  208.1680  152.0830 O   0  0  0  0  0  1  0  0  0  0  0  0
  161.5460  208.3000  151.2220 C   0  0  2  0  0  3  0  0  0  0  0  0
  160.5030  211.4590  152.3610 C   0  0  0  0  0  0  0  0  0  0  0  0
  162.3310  209.9240  153.0100 C   0  0  0  0  0  2  0  0  0  0  0  0
  162.3270  210.4590  149.2900 C   0  0  0  0  0  1  0  0  0  0  0  0
  159.6040  212.2600  152.7250 O   0  0  0  0  0  0  0  0  0  0  0  0
  161.1380  210.6500  153.3080 O   0  0  0  0  0  0  0  0  0  0  0  0
  162.1500  210.7500  150.7050 N   0  0  0  0  0  0  0  0  0  0  0  0
  162.4020  209.5500  151.5300 C   0  0  2  0  0  3  0  0  0  0  0  0
  160.8050  211.2930  150.9020 C   0  0  0  0  0  2  0  0  0  0  0  0
  1  6  1  0  0  0  0
  2 13  1  0  0  0  0
  2  5  1  0  0  0  0
  3  2  1  0  0  0  0
  4  7  2  0  0  0  0
  5 16  2  0  0  0  0
  6 17  2  0  0  0  0
  7  3  1  0  0  0  0
  8 21  1  1  0  0  0
  8 12  1  0  0  0  0
  9  1  1  0  0  0  0
 10 18  1  0  0  0  0
 11  4  1  0  0  0  0
 13 18  1  6  0  0  0
 13  8  1  0  0  0  0
 14  5  1  0  0  0  0
 14  1  2  0  0  0  0
 15 20  2  0  0  0  0
 15  4  1  0  0  0  0
 16 12  1  0  0  0  0
 16 17  1  0  0  0  0
 19 10  1  0  0  0  0
 19  3  2  0  0  0  0
 20 19  1  0  0  0  0
 21 23  1  0  0  0  0
 23 22  1  1  0  0  0
 24 27  2  0  0  0  0
 24 28  1  0  0  0  0
 25 28  1  0  0  0  0
 26 29  1  0  0  0  0
 29 31  1  0  0  0  0
 29 30  1  0  0  0  0
 30 23  1  1  0  0  0
 30 25  1  0  0  0  0
 31 24  1  0  0  0  0
M  END
>  <MODEL>
6

>  <REMARK>
 VINA RESULT:      -5.5      3.524      6.204
  Name = 
  3 active torsions:
  status: ('A' for Active; 'I' for Inactive)
    1  A    between atoms: C_5  and  O_16
    2  A    between atoms: C_5  and  C_30
    3  A    between atoms: C_10  and  O_16
                            x       y       z     vdW  Elec       q    Type
                         _______ _______ _______ _____ _____    ______ ____

>  <TORSDO>
F 3

$$$$
=
 OpenBabel11122413073D

 31 35  0  0  1  0  0  0  0  0999 V2000
  160.7590  201.6890  148.9700 C   0  0  0  0  0  0  0  0  0  0  0  0
  161.9490  205.0810  150.0660 N   0  0  0  0  0  0  0  0  0  0  0  0
  161.6860  206.0310  149.0030 C   0  0  0  0  0  0  0  0  0  0  0  0
  160.8370  206.5780  146.7880 C   0  0  0  0  0  0  0  0  0  0  0  0
  161.3450  203.7720  150.0790 C   0  0  0  0  0  0  0  0  0  0  0  0
  160.1470  201.2340  150.1400 C   0  0  0  0  0  3  0  0  0  0  0  0
  161.1450  205.6330  147.7690 C   0  0  0  0  0  3  0  0  0  0  0  0
  161.2560  205.5450  152.3560 C   0  0  2  0  0  3  0  0  0  0  0  0
  160.7720  200.9080  147.8640 F   0  0  0  0  0  0  0  0  0  0  0  0
  162.4410  207.8190  150.4500 O   0  0  0  0  0  0  0  0  0  0  0  0
  160.2690  206.1390  145.4870 C   0  0  0  0  0  1  0  0  0  0  0  0
  160.7700  204.1020  152.5410 C   0  0  0  0  0  2  0  0  0  0  0  0
  162.4270  205.5570  151.3730 C   0  0  2  0  0  3  0  0  0  0  0  0
  161.3590  202.9500  148.9420 C   0  0  0  0  0  3  0  0  0  0  0  0
  161.0480  207.9360  147.0350 C   0  0  0  0  0  3  0  0  0  0  0  0
  160.7300  203.3020  151.2630 C   0  0  0  0  0  0  0  0  0  0  0  0
  160.1390  202.0350  151.2840 C   0  0  0  0  0  3  0  0  0  0  0  0
  163.1450  206.9090  151.2860 C   0  0  0  0  0  2  0  0  0  0  0  0
  161.9070  207.4010  149.2340 C   0  0  0  0  0  0  0  0  0  0  0  0
  161.5810  208.3470  148.2590 C   0  0  0  0  0  3  0  0  0  0  0  0
  161.6480  206.0610  153.5950 O   0  0  0  0  0  0  0  0  0  0  0  0
  160.4560  207.7280  152.5760 O   0  0  0  0  0  1  0  0  0  0  0  0
  160.8250  207.1720  153.8010 C   0  0  2  0  0  3  0  0  0  0  0  0
  159.3320  209.7610  155.6530 C   0  0  0  0  0  0  0  0  0  0  0  0
  161.0140  208.0270  156.1860 C   0  0  0  0  0  2  0  0  0  0  0  0
  161.9550  209.8430  153.0330 C   0  0  0  0  0  1  0  0  0  0  0  0
  158.3220  210.4150  156.0210 O   0  0  0  0  0  0  0  0  0  0  0  0
  159.7430  208.6460  156.3890 O   0  0  0  0  0  0  0  0  0  0  0  0
  161.3950  209.6210  154.3570 N   0  0  0  0  0  0  0  0  0  0  0  0
  161.4940  208.1990  154.7450 C   0  0  2  0  0  3  0  0  0  0  0  0
  160.0150  210.1110  154.3660 C   0  0  0  0  0  2  0  0  0  0  0  0
  1  6  1  0  0  0  0
  2  5  1  0  0  0  0
  2 13  1  0  0  0  0
  3 19  1  0  0  0  0
  3  2  1  0  0  0  0
  4 15  2  0  0  0  0
  4  7  1  0  0  0  0
  5 16  2  0  0  0  0
  6 17  2  0  0  0  0
  7  3  2  0  0  0  0
  8 12  1  0  0  0  0
  8 21  1  1  0  0  0
  9  1  1  0  0  0  0
 10 18  1  0  0  0  0
 11  4  1  0  0  0  0
 13 18  1  6  0  0  0
 13  8  1  0  0  0  0
 14  1  2  0  0  0  0
 14  5  1  0  0  0  0
 15 20  1  0  0  0  0
 16 17  1  0  0  0  0
 16 12  1  0  0  0  0
 19 10  1  0  0  0  0
 20 19  2  0  0  0  0
 21 23  1  0  0  0  0
 23 22  1  6  0  0  0
 24 27  2  0  0  0  0
 24 28  1  0  0  0  0
 25 28  1  0  0  0  0
 26 29  1  0  0  0  0
 29 31  1  0  0  0  0
 29 30  1  0  0  0  0
 30 23  1  6  0  0  0
 30 25  1  0  0  0  0
 31 24  1  0  0  0  0
M  END
>  <MODEL>
7

>  <REMARK>
 VINA RESULT:      -5.4      3.690      6.322
  Name = 
  3 active torsions:
  status: ('A' for Active; 'I' for Inactive)
    1  A    between atoms: C_5  and  O_16
    2  A    between atoms: C_5  and  C_30
    3  A    between atoms: C_10  and  O_16
                            x       y       z     vdW  Elec       q    Type
                         _______ _______ _______ _____ _____    ______ ____

>  <TORSDO>
F 3

$$$$
=
 OpenBabel11122413073D

 31 35  0  0  1  0  0  0  0  0999 V2000
  161.0900  201.6600  150.1040 C   0  0  0  0  0  0  0  0  0  0  0  0
  161.7940  205.0150  148.5640 N   0  0  0  0  0  0  0  0  0  0  0  0
  161.3850  204.9830  147.1740 C   0  0  0  0  0  0  0  0  0  0  0  0
  160.4410  203.8260  145.2500 C   0  0  0  0  0  0  0  0  0  0  0  0
  161.3840  203.9960  149.4990 C   0  0  0  0  0  0  0  0  0  0  0  0
  160.5640  202.0430  151.3400 C   0  0  0  0  0  3  0  0  0  0  0  0
  160.8930  203.8120  146.5710 C   0  0  0  0  0  3  0  0  0  0  0  0
  161.0690  206.8150  150.0380 C   0  0  2  0  0  3  0  0  0  0  0  0
  161.2020  200.3470  149.7920 F   0  0  0  0  0  0  0  0  0  0  0  0
  161.8920  207.3430  146.9970 O   0  0  0  0  0  0  0  0  0  0  0  0
  159.9270  202.5780  144.6290 C   0  0  0  0  0  1  0  0  0  0  0  0
  160.7960  205.8240  151.1770 C   0  0  0  0  0  2  0  0  0  0  0  0
  162.2140  206.2850  149.1750 C   0  0  2  0  0  3  0  0  0  0  0  0
  161.5020  202.6330  149.1900 C   0  0  0  0  0  3  0  0  0  0  0  0
  160.4580  205.0150  144.5180 C   0  0  0  0  0  3  0  0  0  0  0  0
  160.8560  204.3770  150.7550 C   0  0  0  0  0  0  0  0  0  0  0  0
  160.4540  203.3960  151.6660 C   0  0  0  0  0  3  0  0  0  0  0  0
  162.7300  207.2980  148.1450 C   0  0  0  0  0  2  0  0  0  0  0  0
  161.4110  206.1710  146.4200 C   0  0  0  0  0  0  0  0  0  0  0  0
  160.9410  206.1870  145.1050 C   0  0  0  0  0  3  0  0  0  0  0  0
  161.3970  208.0610  150.5810 O   0  0  0  0  0  0  0  0  0  0  0  0
  159.9950  209.1680  152.0120 O   0  0  0  0  0  1  0  0  0  0  0  0
  160.8290  208.0600  151.8580 C   0  0  2  0  0  3  0  0  0  0  0  0
  160.4340  207.5200  155.3110 C   0  0  0  0  0  0  0  0  0  0  0  0
  161.9510  206.5850  153.5950 C   0  0  0  0  0  2  0  0  0  0  0  0
  161.9600  210.3400  153.4460 C   0  0  0  0  0  1  0  0  0  0  0  0
  159.7130  207.3160  156.3210 O   0  0  0  0  0  0  0  0  0  0  0  0
  160.9260  206.4360  154.5780 O   0  0  0  0  0  0  0  0  0  0  0  0
  161.8750  209.0030  154.0140 N   0  0  0  0  0  0  0  0  0  0  0  0
  161.9140  207.9720  152.9560 C   0  0  2  0  0  3  0  0  0  0  0  0
  160.6630  208.9220  154.8320 C   0  0  0  0  0  2  0  0  0  0  0  0
  1  6  1  0  0  0  0
  2 13  1  0  0  0  0
  2  5  1  0  0  0  0
  3  2  1  0  0  0  0
  4  7  2  0  0  0  0
  5 16  2  0  0  0  0
  6 17  2  0  0  0  0
  7  3  1  0  0  0  0
  8 21  1  1  0  0  0
  8 12  1  0  0  0  0
  9  1  1  0  0  0  0
 10 18  1  0  0  0  0
 11  4  1  0  0  0  0
 13 18  1  6  0  0  0
 13  8  1  0  0  0  0
 14  5  1  0  0  0  0
 14  1  2  0  0  0  0
 15 20  2  0  0  0  0
 15  4  1  0  0  0  0
 16 12  1  0  0  0  0
 16 17  1  0  0  0  0
 19 10  1  0  0  0  0
 19  3  2  0  0  0  0
 20 19  1  0  0  0  0
 21 23  1  0  0  0  0
 23 22  1  1  0  0  0
 24 27  2  0  0  0  0
 25 28  1  0  0  0  0
 26 29  1  0  0  0  0
 28 24  1  0  0  0  0
 29 31  1  0  0  0  0
 30 23  1  6  0  0  0
 30 25  1  0  0  0  0
 30 29  1  0  0  0  0
 31 24  1  0  0  0  0
M  END
>  <MODEL>
8

>  <REMARK>
 VINA RESULT:      -5.3      4.012      6.675
  Name = 
  3 active torsions:
  status: ('A' for Active; 'I' for Inactive)
    1  A    between atoms: C_5  and  O_16
    2  A    between atoms: C_5  and  C_30
    3  A    between atoms: C_10  and  O_16
                            x       y       z     vdW  Elec       q    Type
                         _______ _______ _______ _____ _____    ______ ____

>  <TORSDO>
F 3

$$$$
=
 OpenBabel11122413073D

 31 35  0  0  1  0  0  0  0  0999 V2000
  161.1220  213.2390  148.8810 C   0  0  0  0  0  0  0  0  0  0  0  0
  160.7670  211.5560  152.2220 N   0  0  0  0  0  0  0  0  0  0  0  0
  159.4970  211.9430  152.8040 C   0  0  0  0  0  0  0  0  0  0  0  0
  157.3960  213.1700  152.7250 C   0  0  0  0  0  0  0  0  0  0  0  0
  161.0650  211.7880  150.8300 C   0  0  0  0  0  0  0  0  0  0  0  0
  161.6470  212.1960  148.1150 C   0  0  0  0  0  3  0  0  0  0  0  0
  158.6440  212.8680  152.1780 C   0  0  0  0  0  3  0  0  0  0  0  0
  161.4160  209.2110  152.0850 C   0  0  2  0  0  3  0  0  0  0  0  0
  160.8920  214.4470  148.3140 F   0  0  0  0  0  0  0  0  0  0  0  0
  159.8940  210.4020  154.6280 O   0  0  0  0  0  0  0  0  0  0  0  0
  156.5080  214.1540  152.0510 C   0  0  0  0  0  1  0  0  0  0  0  0
  161.9570  209.4050  150.6630 C   0  0  0  0  0  2  0  0  0  0  0  0
  161.5820  210.5150  152.8660 C   0  0  2  0  0  3  0  0  0  0  0  0
  160.8370  213.0370  150.2330 C   0  0  0  0  0  3  0  0  0  0  0  0
  156.9740  212.5380  153.8960 C   0  0  0  0  0  3  0  0  0  0  0  0
  161.6030  210.7370  150.0500 C   0  0  0  0  0  0  0  0  0  0  0  0
  161.8920  210.9520  148.6990 C   0  0  0  0  0  3  0  0  0  0  0  0
  161.2910  210.3760  154.3650 C   0  0  0  0  0  2  0  0  0  0  0  0
  159.0670  211.3240  153.9910 C   0  0  0  0  0  0  0  0  0  0  0  0
  157.8090  211.6130  154.5280 C   0  0  0  0  0  3  0  0  0  0  0  0
  162.1170  208.1720  152.7060 O   0  0  0  0  0  0  0  0  0  0  0  0
  160.8060  206.5460  153.6410 O   0  0  0  0  0  1  0  0  0  0  0  0
  161.3600  207.0240  152.4530 C   0  0  2  0  0  3  0  0  0  0  0  0
  161.0230  205.8700  149.1490 C   0  0  0  0  0  0  0  0  0  0  0  0
  162.9550  206.5600  150.5320 C   0  0  0  0  0  2  0  0  0  0  0  0
  160.8360  204.0710  152.3870 C   0  0  0  0  0  1  0  0  0  0  0  0
  160.4550  205.8870  148.0260 O   0  0  0  0  0  0  0  0  0  0  0  0
  162.1110  206.7150  149.3900 O   0  0  0  0  0  0  0  0  0  0  0  0
  161.4760  204.7420  151.2650 N   0  0  0  0  0  0  0  0  0  0  0  0
  162.1940  205.9540  151.7110 C   0  0  2  0  0  3  0  0  0  0  0  0
  160.4560  205.0330  150.2550 C   0  0  0  0  0  2  0  0  0  0  0  0
  1 14  1  0  0  0  0
  2  3  1  0  0  0  0
  2 13  1  0  0  0  0
  3 19  1  0  0  0  0
  4 15  2  0  0  0  0
  5  2  1  0  0  0  0
  6 17  1  0  0  0  0
  6  1  2  0  0  0  0
  7  4  1  0  0  0  0
  7  3  2  0  0  0  0
  8 21  1  1  0  0  0
  8 13  1  0  0  0  0
  9  1  1  0  0  0  0
 11  4  1  0  0  0  0
 12  8  1  0  0  0  0
 13 18  1  1  0  0  0
 14  5  2  0  0  0  0
 15 20  1  0  0  0  0
 16 12  1  0  0  0  0
 16  5  1  0  0  0  0
 17 16  2  0  0  0  0
 18 10  1  0  0  0  0
 19 20  2  0  0  0  0
 19 10  1  0  0  0  0
 23 21  1  0  0  0  0
 23 22  1  1  0  0  0
 24 28  1  0  0  0  0
 24 31  1  0  0  0  0
 25 30  1  0  0  0  0
 27 24  2  0  0  0  0
 28 25  1  0  0  0  0
 29 30  1  0  0  0  0
 29 26  1  0  0  0  0
 30 23  1  6  0  0  0
 31 29  1  0  0  0  0
M  END
>  <MODEL>
9

>  <REMARK>
 VINA RESULT:      -5.0      3.237      7.936
  Name = 
  3 active torsions:
  status: ('A' for Active; 'I' for Inactive)
    1  A    between atoms: C_5  and  O_16
    2  A    between atoms: C_5  and  C_30
    3  A    between atoms: C_10  and  O_16
                            x       y       z     vdW  Elec       q    Type
                         _______ _______ _______ _____ _____    ______ ____

>  <TORSDO>
F 3

$$$$
