=
 OpenBabel11122412373D

 30 35  0  0  1  0  0  0  0  0999 V2000
  161.3020  205.9390  150.1110 C   0  0  0  0  0  0  0  0  0  0  0  0
  161.0060  203.4530  149.9530 C   0  0  0  0  0  0  0  0  0  0  0  0
  161.1020  205.7330  154.3100 N   0  0  0  0  0  2  0  0  0  0  0  0
  161.3930  207.1100  150.9270 C   0  0  0  0  0  0  0  0  0  0  0  0
  161.3980  206.0800  148.7200 C   0  0  0  0  0  3  0  0  0  0  0  0
  161.7790  209.7180  148.3000 O   0  0  0  0  0  1  0  0  0  0  0  0
  160.3530  209.8570  152.0140 C   0  0  1  0  0  3  0  0  0  0  0  0
  161.6310  208.4750  148.9120 C   0  0  0  0  0  0  0  0  0  0  0  0
  160.3530  209.0350  153.3120 C   0  0  2  0  0  3  0  0  0  0  0  0
  161.3010  207.1060  154.6160 C   0  0  0  0  0  0  0  0  0  0  0  0
  161.5730  207.3230  148.1230 C   0  0  0  0  0  0  0  0  0  0  0  0
  161.5370  208.3850  150.3110 C   0  0  0  0  0  0  0  0  0  0  0  0
  160.8270  202.2630  150.5860 N   0  0  0  0  0  0  0  0  0  0  0  0
  160.4580  210.0510  154.4340 C   0  0  0  0  0  2  0  0  0  0  0  0
  160.1930  211.3150  152.4080 C   0  0  0  0  0  2  0  0  0  0  0  0
  161.0750  203.4500  148.5990 F   0  0  0  0  0  0  0  0  0  0  0  0
  161.1330  205.6990  152.8920 C   0  0  0  0  0  0  0  0  0  0  0  0
  160.7460  202.1640  151.9360 C   0  0  0  0  0  3  0  0  0  0  0  0
  161.1130  204.6530  150.7050 C   0  0  0  0  0  0  0  0  0  0  0  0
  161.3160  206.9450  152.3250 C   0  0  0  0  0  0  0  0  0  0  0  0
  161.3810  207.5250  155.8000 O   0  0  0  0  0  0  0  0  0  0  0  0
  161.4590  207.9780  153.4050 C   0  0  1  0  0  3  0  0  0  0  0  0
  159.8530  211.3200  153.8820 C   0  0  0  0  0  2  0  0  0  0  0  0
  162.9210  209.9670  151.7140 C   0  0  0  0  0  1  0  0  0  0  0  0
  160.8440  203.3040  152.7260 C   0  0  0  0  0  3  0  0  0  0  0  0
  161.0260  204.5490  152.1170 C   0  0  0  0  0  0  0  0  0  0  0  0
  161.5630  209.6780  151.0820 C   0  0  2  0  0  3  0  0  0  0  0  0
  161.6500  207.4050  146.6350 C   0  0  0  0  0  2  0  0  0  0  0  0
  160.2840  206.2640  145.2560 O   0  0  0  0  0  1  0  0  0  0  0  0
  161.3630  206.1040  146.0560 N   0  0  0  0  0  2  0  0  0  0  0  0
  1 19  2  0  0  0  0
  1  4  1  0  0  0  0
  2 13  2  0  0  0  0
  2 19  1  0  0  0  0
  3 10  1  0  0  0  0
  4 20  2  0  0  0  0
  5  1  1  0  0  0  0
  6  8  1  0  0  0  0
  7 15  1  1  0  0  0
  7  9  1  0  0  0  0
  8 12  2  0  0  0  0
  9 22  1  0  0  0  0
  9 14  1  1  0  0  0
 10 21  2  0  0  0  0
 11  5  2  0  0  0  0
 11  8  1  0  0  0  0
 12  4  1  0  0  0  0
 12 27  1  0  0  0  0
 13 18  1  0  0  0  0
 15 23  1  0  0  0  0
 16  2  1  0  0  0  0
 17  3  1  0  0  0  0
 18 25  2  0  0  0  0
 19 26  1  0  0  0  0
 20 17  1  0  0  0  0
 22 20  1  6  0  0  0
 22 10  1  0  0  0  0
 23 14  1  0  0  0  0
 26 25  1  0  0  0  0
 26 17  2  0  0  0  0
 27 24  1  1  0  0  0
 27  7  1  0  0  0  0
 28 11  1  0  0  0  0
 29 30  1  0  0  0  0
 30 28  1  0  0  0  0
M  END
>  <MODEL>
1

>  <REMARK>
 VINA RESULT:      -8.0      0.000      0.000
  Name = 
  2 active torsions:
  status: ('A' for Active; 'I' for Inactive)
    1  A    between atoms: C_11  and  C_28
    2  A    between atoms: C_28  and  N_30
                            x       y       z     vdW  Elec       q    Type
                         _______ _______ _______ _____ _____    ______ ____

>  <TORSDO>
F 2

$$$$
=
 OpenBabel11122412373D

 30 35  0  0  1  0  0  0  0  0999 V2000
  161.2510  209.3210  151.6840 C   0  0  0  0  0  0  0  0  0  0  0  0
  161.1510  211.7180  150.9510 C   0  0  0  0  0  0  0  0  0  0  0  0
  162.2520  208.1280  147.7730 N   0  0  0  0  0  2  0  0  0  0  0  0
  161.4590  207.9480  151.3460 C   0  0  0  0  0  0  0  0  0  0  0  0
  160.9410  209.6480  153.0110 C   0  0  0  0  0  3  0  0  0  0  0  0
  160.8550  206.3550  154.6560 O   0  0  0  0  0  1  0  0  0  0  0  0
  160.5170  204.9900  150.9310 C   0  0  1  0  0  3  0  0  0  0  0  0
  160.9990  207.3250  153.6660 C   0  0  0  0  0  0  0  0  0  0  0  0
  160.9550  205.3370  149.5000 C   0  0  2  0  0  3  0  0  0  0  0  0
  162.4020  206.7330  147.9910 C   0  0  0  0  0  0  0  0  0  0  0  0
  160.8280  208.6730  153.9950 C   0  0  0  0  0  0  0  0  0  0  0  0
  161.3080  206.9470  152.3480 C   0  0  0  0  0  0  0  0  0  0  0  0
  161.2660  212.6320  149.9500 N   0  0  0  0  0  0  0  0  0  0  0  0
  161.2760  204.0070  148.8420 C   0  0  0  0  0  2  0  0  0  0  0  0
  160.3400  203.4820  150.9910 C   0  0  0  0  0  2  0  0  0  0  0  0
  160.8400  212.1690  152.1910 F   0  0  0  0  0  0  0  0  0  0  0  0
  161.8890  208.6290  149.0510 C   0  0  0  0  0  0  0  0  0  0  0  0
  161.5750  212.2790  148.6770 C   0  0  0  0  0  3  0  0  0  0  0  0
  161.3550  210.3380  150.6850 C   0  0  0  0  0  0  0  0  0  0  0  0
  161.7910  207.6410  150.0100 C   0  0  0  0  0  0  0  0  0  0  0  0
  162.7710  205.9470  147.0800 O   0  0  0  0  0  0  0  0  0  0  0  0
  162.1350  206.3110  149.4070 C   0  0  1  0  0  3  0  0  0  0  0  0
  160.4280  202.9890  149.5640 C   0  0  0  0  0  2  0  0  0  0  0  0
  162.8780  205.0000  151.9920 C   0  0  0  0  0  1  0  0  0  0  0  0
  161.7850  210.9430  148.3560 C   0  0  0  0  0  3  0  0  0  0  0  0
  161.6750  209.9700  149.3530 C   0  0  0  0  0  0  0  0  0  0  0  0
  161.4300  205.4730  152.0700 C   0  0  2  0  0  3  0  0  0  0  0  0
  160.4780  209.0870  155.3850 C   0  0  0  0  0  2  0  0  0  0  0  0
  162.0240  208.4930  156.9110 O   0  0  0  0  0  1  0  0  0  0  0  0
  161.6770  209.5090  156.0880 N   0  0  0  0  0  2  0  0  0  0  0  0
  1  5  2  0  0  0  0
  2 16  1  0  0  0  0
  3 10  1  0  0  0  0
  3 17  1  0  0  0  0
  4  1  1  0  0  0  0
  4 12  2  0  0  0  0
  5 11  1  0  0  0  0
  7 15  1  6  0  0  0
  7 27  1  0  0  0  0
  8 11  2  0  0  0  0
  8  6  1  0  0  0  0
  9 14  1  1  0  0  0
  9  7  1  0  0  0  0
 11 28  1  0  0  0  0
 12  8  1  0  0  0  0
 13  2  2  0  0  0  0
 14 23  1  0  0  0  0
 17 26  1  0  0  0  0
 17 20  2  0  0  0  0
 18 13  1  0  0  0  0
 19  2  1  0  0  0  0
 19  1  1  0  0  0  0
 20  4  1  0  0  0  0
 21 10  2  0  0  0  0
 22 10  1  6  0  0  0
 22  9  1  0  0  0  0
 22 20  1  0  0  0  0
 23 15  1  0  0  0  0
 25 18  2  0  0  0  0
 25 26  1  0  0  0  0
 26 19  2  0  0  0  0
 27 24  1  6  0  0  0
 27 12  1  0  0  0  0
 28 30  1  0  0  0  0
 30 29  1  0  0  0  0
M  END
>  <MODEL>
2

>  <REMARK>
 VINA RESULT:      -7.8      2.775      7.241
  Name = 
  2 active torsions:
  status: ('A' for Active; 'I' for Inactive)
    1  A    between atoms: C_11  and  C_28
    2  A    between atoms: C_28  and  N_30
                            x       y       z     vdW  Elec       q    Type
                         _______ _______ _______ _____ _____    ______ ____

>  <TORSDO>
F 2

$$$$
=
 OpenBabel11122412373D

 30 35  0  0  1  0  0  0  0  0999 V2000
  161.4380  208.1960  151.5070 C   0  0  0  0  0  0  0  0  0  0  0  0
  161.5280  210.6230  150.8770 C   0  0  0  0  0  0  0  0  0  0  0  0
  162.3000  207.0970  147.5360 N   0  0  0  0  0  2  0  0  0  0  0  0
  161.5310  206.8260  151.1080 C   0  0  0  0  0  0  0  0  0  0  0  0
  161.1700  208.4890  152.8500 C   0  0  0  0  0  3  0  0  0  0  0  0
  160.8320  205.1450  154.3550 O   0  0  0  0  0  1  0  0  0  0  0  0
  160.3460  203.9750  150.5810 C   0  0  1  0  0  3  0  0  0  0  0  0
  161.0440  206.1430  153.4060 C   0  0  0  0  0  0  0  0  0  0  0  0
  160.7970  204.3470  149.1600 C   0  0  2  0  0  3  0  0  0  0  0  0
  162.3370  205.6850  147.6920 C   0  0  0  0  0  0  0  0  0  0  0  0
  160.9880  207.4850  153.7940 C   0  0  0  0  0  0  0  0  0  0  0  0
  161.3080  205.7990  152.0690 C   0  0  0  0  0  0  0  0  0  0  0  0
  161.7070  211.5660  149.9150 N   0  0  0  0  0  0  0  0  0  0  0  0
  161.0020  203.0260  148.4420 C   0  0  0  0  0  2  0  0  0  0  0  0
  160.0480  202.4850  150.5800 C   0  0  0  0  0  2  0  0  0  0  0  0
  161.2660  211.0430  152.1400 F   0  0  0  0  0  0  0  0  0  0  0  0
  161.9910  207.5690  148.8380 C   0  0  0  0  0  0  0  0  0  0  0  0
  161.9730  211.2460  148.6240 C   0  0  0  0  0  3  0  0  0  0  0  0
  161.6150  209.2430  150.5500 C   0  0  0  0  0  0  0  0  0  0  0  0
  161.8230  206.5520  149.7560 C   0  0  0  0  0  0  0  0  0  0  0  0
  162.6320  204.9120  146.7440 O   0  0  0  0  0  0  0  0  0  0  0  0
  162.0510  205.2260  149.0920 C   0  0  1  0  0  3  0  0  0  0  0  0
  160.0800  202.0490  149.1310 C   0  0  0  0  0  2  0  0  0  0  0  0
  162.7100  203.7470  151.6090 C   0  0  0  0  0  1  0  0  0  0  0  0
  162.0700  209.9120  148.2430 C   0  0  0  0  0  3  0  0  0  0  0  0
  161.8910  208.9090  149.2000 C   0  0  0  0  0  0  0  0  0  0  0  0
  161.3060  204.3330  151.7270 C   0  0  2  0  0  3  0  0  0  0  0  0
  160.6860  207.8650  155.2040 C   0  0  0  0  0  2  0  0  0  0  0  0
  162.0430  208.5180  156.8790 O   0  0  0  0  0  1  0  0  0  0  0  0
  161.6190  208.8860  155.6480 N   0  0  0  0  0  2  0  0  0  0  0  0
  1  5  2  0  0  0  0
  2 16  1  0  0  0  0
  3 10  1  0  0  0  0
  3 17  1  0  0  0  0
  4  1  1  0  0  0  0
  4 12  2  0  0  0  0
  5 11  1  0  0  0  0
  7 15  1  6  0  0  0
  7 27  1  0  0  0  0
  8 11  2  0  0  0  0
  8  6  1  0  0  0  0
  9 14  1  6  0  0  0
  9  7  1  0  0  0  0
 11 28  1  0  0  0  0
 12  8  1  0  0  0  0
 13  2  2  0  0  0  0
 14 23  1  0  0  0  0
 17 26  1  0  0  0  0
 17 20  2  0  0  0  0
 18 13  1  0  0  0  0
 19  2  1  0  0  0  0
 19  1  1  0  0  0  0
 20  4  1  0  0  0  0
 21 10  2  0  0  0  0
 22 10  1  6  0  0  0
 22  9  1  0  0  0  0
 22 20  1  0  0  0  0
 23 15  1  0  0  0  0
 25 18  2  0  0  0  0
 25 26  1  0  0  0  0
 26 19  2  0  0  0  0
 27 24  1  6  0  0  0
 27 12  1  0  0  0  0
 28 30  1  0  0  0  0
 30 29  1  0  0  0  0
M  END
>  <MODEL>
3

>  <REMARK>
 VINA RESULT:      -7.7      2.630      7.209
  Name = 
  2 active torsions:
  status: ('A' for Active; 'I' for Inactive)
    1  A    between atoms: C_11  and  C_28
    2  A    between atoms: C_28  and  N_30
                            x       y       z     vdW  Elec       q    Type
                         _______ _______ _______ _____ _____    ______ ____

>  <TORSDO>
F 2

$$$$
=
 OpenBabel11122412373D

 30 35  0  0  1  0  0  0  0  0999 V2000
  160.8550  209.6540  152.5490 C   0  0  0  0  0  0  0  0  0  0  0  0
  160.5160  212.0970  152.0890 C   0  0  0  0  0  0  0  0  0  0  0  0
  162.0360  209.0300  148.5570 N   0  0  0  0  0  2  0  0  0  0  0  0
  161.2120  208.3570  152.0630 C   0  0  0  0  0  0  0  0  0  0  0  0
  160.4930  209.7920  153.8950 C   0  0  0  0  0  3  0  0  0  0  0  0
  160.7290  206.3390  155.1530 O   0  0  0  0  0  1  0  0  0  0  0  0
  160.5920  205.3860  151.2910 C   0  0  1  0  0  3  0  0  0  0  0  0
  160.7840  207.4270  154.2850 C   0  0  0  0  0  0  0  0  0  0  0  0
  161.0140  205.9390  149.9210 C   0  0  2  0  0  3  0  0  0  0  0  0
  162.3290  207.6410  148.6200 C   0  0  0  0  0  0  0  0  0  0  0  0
  160.4680  208.7030  154.7590 C   0  0  0  0  0  0  0  0  0  0  0  0
  161.1520  207.2380  152.9410 C   0  0  0  0  0  0  0  0  0  0  0  0
  160.5500  213.1260  151.2020 N   0  0  0  0  0  0  0  0  0  0  0  0
  161.4830  204.7350  149.1250 C   0  0  0  0  0  2  0  0  0  0  0  0
  160.5750  203.8710  151.1750 C   0  0  0  0  0  2  0  0  0  0  0  0
  160.1400  212.3670  153.3640 F   0  0  0  0  0  0  0  0  0  0  0  0
  161.6030  209.3400  149.8730 C   0  0  0  0  0  0  0  0  0  0  0  0
  160.9130  212.9570  149.9070 C   0  0  0  0  0  3  0  0  0  0  0  0
  160.8670  210.7850  151.6740 C   0  0  0  0  0  0  0  0  0  0  0  0
  161.5950  208.2430  150.7110 C   0  0  0  0  0  0  0  0  0  0  0  0
  162.7920  207.0080  147.6350 O   0  0  0  0  0  0  0  0  0  0  0  0
  162.0860  207.0340  149.9700 C   0  0  1  0  0  3  0  0  0  0  0  0
  160.7350  203.5580  149.7040 C   0  0  0  0  0  2  0  0  0  0  0  0
  162.9230  205.5160  152.4100 C   0  0  0  0  0  1  0  0  0  0  0  0
  161.2670  211.6950  149.4410 C   0  0  0  0  0  3  0  0  0  0  0  0
  161.2450  210.6080  150.3190 C   0  0  0  0  0  0  0  0  0  0  0  0
  161.4320  205.8260  152.5020 C   0  0  2  0  0  3  0  0  0  0  0  0
  160.0550  208.9160  156.1770 C   0  0  0  0  0  2  0  0  0  0  0  0
  162.1270  208.9770  157.0580 O   0  0  0  0  0  1  0  0  0  0  0  0
  161.0340  209.7490  156.8530 N   0  0  0  0  0  2  0  0  0  0  0  0
  1  5  2  0  0  0  0
  2 16  1  0  0  0  0
  3 10  1  0  0  0  0
  3 17  1  0  0  0  0
  4  1  1  0  0  0  0
  4 12  2  0  0  0  0
  5 11  1  0  0  0  0
  7 15  1  6  0  0  0
  7 27  1  0  0  0  0
  8 11  2  0  0  0  0
  8  6  1  0  0  0  0
  9 14  1  6  0  0  0
  9 22  1  0  0  0  0
  9  7  1  0  0  0  0
 11 28  1  0  0  0  0
 12  8  1  0  0  0  0
 13  2  2  0  0  0  0
 14 23  1  0  0  0  0
 17 26  1  0  0  0  0
 17 20  2  0  0  0  0
 18 13  1  0  0  0  0
 19  2  1  0  0  0  0
 19  1  1  0  0  0  0
 20  4  1  0  0  0  0
 21 10  2  0  0  0  0
 22 10  1  6  0  0  0
 22 20  1  0  0  0  0
 23 15  1  0  0  0  0
 25 18  2  0  0  0  0
 25 26  1  0  0  0  0
 26 19  2  0  0  0  0
 27 24  1  6  0  0  0
 27 12  1  0  0  0  0
 28 30  1  0  0  0  0
 30 29  1  0  0  0  0
M  END
>  <MODEL>
4

>  <REMARK>
 VINA RESULT:      -7.6      2.961      7.373
  Name = 
  2 active torsions:
  status: ('A' for Active; 'I' for Inactive)
    1  A    between atoms: C_11  and  C_28
    2  A    between atoms: C_28  and  N_30
                            x       y       z     vdW  Elec       q    Type
                         _______ _______ _______ _____ _____    ______ ____

>  <TORSDO>
F 2

$$$$
=
 OpenBabel11122412373D

 30 35  0  0  1  0  0  0  0  0999 V2000
  161.5940  208.0190  149.6400 C   0  0  0  0  0  0  0  0  0  0  0  0
  161.5330  206.1110  148.0120 C   0  0  0  0  0  0  0  0  0  0  0  0
  161.0490  205.3460  152.8460 N   0  0  0  0  0  2  0  0  0  0  0  0
  161.5100  208.4730  150.9930 C   0  0  0  0  0  0  0  0  0  0  0  0
  161.7980  208.9620  148.6250 C   0  0  0  0  0  3  0  0  0  0  0  0
  161.8910  212.1400  150.4820 O   0  0  0  0  0  1  0  0  0  0  0  0
  160.1410  210.0100  153.3530 C   0  0  1  0  0  3  0  0  0  0  0  0
  161.8010  210.7750  150.2190 C   0  0  0  0  0  0  0  0  0  0  0  0
  160.1010  208.5770  153.9050 C   0  0  2  0  0  3  0  0  0  0  0  0
  161.0980  206.2700  153.9250 C   0  0  0  0  0  0  0  0  0  0  0  0
  161.9140  210.3190  148.9020 C   0  0  0  0  0  0  0  0  0  0  0  0
  161.5940  209.8670  151.2720 C   0  0  0  0  0  0  0  0  0  0  0  0
  161.4060  204.7750  147.7930 N   0  0  0  0  0  0  0  0  0  0  0  0
  160.0180  208.7260  155.4140 C   0  0  0  0  0  2  0  0  0  0  0  0
  159.8190  210.9430  154.5090 C   0  0  0  0  0  2  0  0  0  0  0  0
  161.7200  206.9170  146.9370 F   0  0  0  0  0  0  0  0  0  0  0  0
  161.2060  206.1650  151.6980 C   0  0  0  0  0  0  0  0  0  0  0  0
  161.2170  203.8890  148.8020 C   0  0  0  0  0  3  0  0  0  0  0  0
  161.4690  206.6280  149.3330 C   0  0  0  0  0  0  0  0  0  0  0  0
  161.3270  207.5060  152.0020 C   0  0  0  0  0  0  0  0  0  0  0  0
  161.0380  205.9020  155.1270 O   0  0  0  0  0  0  0  0  0  0  0  0
  161.2840  207.6940  153.4910 C   0  0  1  0  0  3  0  0  0  0  0  0
  159.3540  210.0620  155.6470 C   0  0  0  0  0  2  0  0  0  0  0  0
  162.7060  210.3270  153.4940 C   0  0  0  0  0  1  0  0  0  0  0  0
  161.1450  204.3360  150.1170 C   0  0  0  0  0  3  0  0  0  0  0  0
  161.2690  205.7010  150.3880 C   0  0  0  0  0  0  0  0  0  0  0  0
  161.4380  210.4450  152.6530 C   0  0  2  0  0  3  0  0  0  0  0  0
  162.1120  211.2730  147.7730 C   0  0  0  0  0  2  0  0  0  0  0  0
  160.9580  213.1750  147.4210 O   0  0  0  0  0  1  0  0  0  0  0  0
  160.8320  211.8280  147.3700 N   0  0  0  0  0  2  0  0  0  0  0  0
  1  4  1  0  0  0  0
  2 19  1  0  0  0  0
  3 10  1  0  0  0  0
  4 12  1  0  0  0  0
  4 20  2  0  0  0  0
  5 11  2  0  0  0  0
  5  1  1  0  0  0  0
  7  9  1  0  0  0  0
  7 15  1  1  0  0  0
  8  6  1  0  0  0  0
  8 12  2  0  0  0  0
  9 14  1  1  0  0  0
 10 21  2  0  0  0  0
 11  8  1  0  0  0  0
 12 27  1  0  0  0  0
 13  2  2  0  0  0  0
 13 18  1  0  0  0  0
 14 23  1  0  0  0  0
 15 23  1  0  0  0  0
 16  2  1  0  0  0  0
 17 20  1  0  0  0  0
 17  3  1  0  0  0  0
 18 25  2  0  0  0  0
 19  1  2  0  0  0  0
 19 26  1  0  0  0  0
 22 20  1  6  0  0  0
 22  9  1  0  0  0  0
 22 10  1  0  0  0  0
 25 26  1  0  0  0  0
 26 17  2  0  0  0  0
 27  7  1  0  0  0  0
 27 24  1  1  0  0  0
 28 11  1  0  0  0  0
 30 29  1  0  0  0  0
 30 28  1  0  0  0  0
M  END
>  <MODEL>
5

>  <REMARK>
 VINA RESULT:      -6.8      2.186      2.898
  Name = 
  2 active torsions:
  status: ('A' for Active; 'I' for Inactive)
    1  A    between atoms: C_11  and  C_28
    2  A    between atoms: C_28  and  N_30
                            x       y       z     vdW  Elec       q    Type
                         _______ _______ _______ _____ _____    ______ ____

>  <TORSDO>
F 2

$$$$
=
 OpenBabel11122412373D

 30 35  0  0  1  0  0  0  0  0999 V2000
  161.4630  207.5250  150.8590 C   0  0  0  0  0  0  0  0  0  0  0  0
  161.3950  205.2660  149.7690 C   0  0  0  0  0  0  0  0  0  0  0  0
  160.5760  205.7910  154.5910 N   0  0  0  0  0  2  0  0  0  0  0  0
  161.3240  208.3150  152.0420 C   0  0  0  0  0  0  0  0  0  0  0  0
  161.7810  208.1660  149.6550 C   0  0  0  0  0  3  0  0  0  0  0  0
  161.9400  211.7100  150.6440 O   0  0  0  0  0  1  0  0  0  0  0  0
  159.9020  210.4600  153.8270 C   0  0  1  0  0  3  0  0  0  0  0  0
  161.7890  210.3270  150.7310 C   0  0  0  0  0  0  0  0  0  0  0  0
  159.7480  209.2200  154.7210 C   0  0  2  0  0  3  0  0  0  0  0  0
  160.6120  206.9590  155.3990 C   0  0  0  0  0  0  0  0  0  0  0  0
  161.9560  209.5440  149.5850 C   0  0  0  0  0  0  0  0  0  0  0  0
  161.4680  209.7300  151.9620 C   0  0  0  0  0  0  0  0  0  0  0  0
  161.2060  203.9250  149.8880 N   0  0  0  0  0  0  0  0  0  0  0  0
  159.5830  209.7550  156.1320 C   0  0  0  0  0  2  0  0  0  0  0  0
  159.5630  211.6710  154.6810 C   0  0  0  0  0  2  0  0  0  0  0  0
  161.6910  205.7600  148.5410 F   0  0  0  0  0  0  0  0  0  0  0  0
  160.8480  206.2800  153.2860 C   0  0  0  0  0  0  0  0  0  0  0  0
  160.9070  203.3370  151.0730 C   0  0  0  0  0  3  0  0  0  0  0  0
  161.2790  206.1080  150.9070 C   0  0  0  0  0  0  0  0  0  0  0  0
  161.0250  207.6480  153.2480 C   0  0  0  0  0  0  0  0  0  0  0  0
  160.4580  206.9150  156.6480 O   0  0  0  0  0  0  0  0  0  0  0  0
  160.9030  208.2150  154.6320 C   0  0  1  0  0  3  0  0  0  0  0  0
  158.9820  211.1310  155.9680 C   0  0  0  0  0  2  0  0  0  0  0  0
  162.4670  210.7030  154.0690 C   0  0  0  0  0  1  0  0  0  0  0  0
  160.7810  204.1090  152.2220 C   0  0  0  0  0  3  0  0  0  0  0  0
  160.9640  205.4920  152.1450 C   0  0  0  0  0  0  0  0  0  0  0  0
  161.2620  210.6500  153.1360 C   0  0  2  0  0  3  0  0  0  0  0  0
  162.2750  210.1660  148.2680 C   0  0  0  0  0  2  0  0  0  0  0  0
  161.8090  212.2030  147.4280 O   0  0  0  0  0  1  0  0  0  0  0  0
  161.2110  211.0780  147.8860 N   0  0  0  0  0  2  0  0  0  0  0  0
  1 19  2  0  0  0  0
  1  4  1  0  0  0  0
  2 13  2  0  0  0  0
  2 19  1  0  0  0  0
  3 10  1  0  0  0  0
  4 20  2  0  0  0  0
  5  1  1  0  0  0  0
  6  8  1  0  0  0  0
  7 15  1  1  0  0  0
  7  9  1  0  0  0  0
  8 12  2  0  0  0  0
  9 14  1  1  0  0  0
 10 21  2  0  0  0  0
 11  5  2  0  0  0  0
 11  8  1  0  0  0  0
 12  4  1  0  0  0  0
 12 27  1  0  0  0  0
 13 18  1  0  0  0  0
 15 23  1  0  0  0  0
 16  2  1  0  0  0  0
 17  3  1  0  0  0  0
 18 25  2  0  0  0  0
 19 26  1  0  0  0  0
 20 17  1  0  0  0  0
 22 20  1  6  0  0  0
 22  9  1  0  0  0  0
 22 10  1  0  0  0  0
 23 14  1  0  0  0  0
 26 25  1  0  0  0  0
 26 17  2  0  0  0  0
 27  7  1  0  0  0  0
 27 24  1  1  0  0  0
 28 11  1  0  0  0  0
 29 30  1  0  0  0  0
 30 28  1  0  0  0  0
M  END
>  <MODEL>
6

>  <REMARK>
 VINA RESULT:      -6.6      1.968      2.440
  Name = 
  2 active torsions:
  status: ('A' for Active; 'I' for Inactive)
    1  A    between atoms: C_11  and  C_28
    2  A    between atoms: C_28  and  N_30
                            x       y       z     vdW  Elec       q    Type
                         _______ _______ _______ _____ _____    ______ ____

>  <TORSDO>
F 2

$$$$
=
 OpenBabel11122412373D

 30 35  0  0  1  0  0  0  0  0999 V2000
  161.4870  208.0670  151.2170 C   0  0  0  0  0  0  0  0  0  0  0  0
  161.4510  208.2950  153.7150 C   0  0  0  0  0  0  0  0  0  0  0  0
  160.5220  203.9820  151.5400 N   0  0  0  0  0  2  0  0  0  0  0  0
  161.3500  207.2320  150.0640 C   0  0  0  0  0  0  0  0  0  0  0  0
  161.7880  209.4230  151.0330 C   0  0  0  0  0  3  0  0  0  0  0  0
  162.0640  209.7020  147.3720 O   0  0  0  0  0  1  0  0  0  0  0  0
  162.4480  205.7440  147.5370 C   0  0  1  0  0  3  0  0  0  0  0  0
  161.8610  209.1510  148.6360 C   0  0  0  0  0  0  0  0  0  0  0  0
  161.9810  204.5440  148.3750 C   0  0  2  0  0  3  0  0  0  0  0  0
  160.4500  203.6550  150.1600 C   0  0  0  0  0  0  0  0  0  0  0  0
  161.9610  209.9680  149.7660 C   0  0  0  0  0  0  0  0  0  0  0  0
  161.5630  207.7840  148.7690 C   0  0  0  0  0  0  0  0  0  0  0  0
  161.2790  207.7130  154.9310 N   0  0  0  0  0  0  0  0  0  0  0  0
  161.7280  203.4270  147.3790 C   0  0  0  0  0  2  0  0  0  0  0  0
  162.7070  205.2320  146.1300 C   0  0  0  0  0  2  0  0  0  0  0  0
  161.7460  209.6180  153.6790 F   0  0  0  0  0  0  0  0  0  0  0  0
  160.8680  205.3590  151.5390 C   0  0  0  0  0  0  0  0  0  0  0  0
  160.9800  206.3970  155.0700 C   0  0  0  0  0  3  0  0  0  0  0  0
  161.3200  207.5250  152.5290 C   0  0  0  0  0  0  0  0  0  0  0  0
  161.0260  205.8760  150.2680 C   0  0  0  0  0  0  0  0  0  0  0  0
  160.1170  202.5090  149.7580 O   0  0  0  0  0  0  0  0  0  0  0  0
  160.7490  204.8090  149.2490 C   0  0  1  0  0  3  0  0  0  0  0  0
  162.6350  203.7230  146.2090 C   0  0  0  0  0  2  0  0  0  0  0  0
  160.0980  206.6970  147.0200 C   0  0  0  0  0  1  0  0  0  0  0  0
  160.8410  205.5920  153.9460 C   0  0  0  0  0  3  0  0  0  0  0  0
  161.0100  206.1490  152.6750 C   0  0  0  0  0  0  0  0  0  0  0  0
  161.5190  206.9680  147.5040 C   0  0  2  0  0  3  0  0  0  0  0  0
  162.2980  211.4150  149.6420 C   0  0  0  0  0  2  0  0  0  0  0  0
  161.1940  212.7860  148.2370 O   0  0  0  0  0  1  0  0  0  0  0  0
  161.0840  212.1870  149.4460 N   0  0  0  0  0  2  0  0  0  0  0  0
  1 19  1  0  0  0  0
  2 13  1  0  0  0  0
  4 20  1  0  0  0  0
  4  1  2  0  0  0  0
  5  1  1  0  0  0  0
  6  8  1  0  0  0  0
  7 15  1  6  0  0  0
  7  9  1  0  0  0  0
  8 12  2  0  0  0  0
  8 11  1  0  0  0  0
  9 14  1  6  0  0  0
  9 22  1  0  0  0  0
 10  3  1  0  0  0  0
 11  5  2  0  0  0  0
 12  4  1  0  0  0  0
 13 18  2  0  0  0  0
 15 23  1  0  0  0  0
 16  2  1  0  0  0  0
 17  3  1  0  0  0  0
 17 26  1  0  0  0  0
 19 26  1  0  0  0  0
 19  2  2  0  0  0  0
 20 17  2  0  0  0  0
 21 10  2  0  0  0  0
 22 10  1  1  0  0  0
 22 20  1  0  0  0  0
 23 14  1  0  0  0  0
 25 18  1  0  0  0  0
 26 25  2  0  0  0  0
 27 24  1  1  0  0  0
 27  7  1  0  0  0  0
 27 12  1  0  0  0  0
 28 11  1  0  0  0  0
 29 30  1  0  0  0  0
 30 28  1  0  0  0  0
M  END
>  <MODEL>
7

>  <REMARK>
 VINA RESULT:      -6.5      2.856      5.649
  Name = 
  2 active torsions:
  status: ('A' for Active; 'I' for Inactive)
    1  A    between atoms: C_11  and  C_28
    2  A    between atoms: C_28  and  N_30
                            x       y       z     vdW  Elec       q    Type
                         _______ _______ _______ _____ _____    ______ ____

>  <TORSDO>
F 2

$$$$
=
 OpenBabel11122412373D

 30 35  0  0  1  0  0  0  0  0999 V2000
  161.0660  204.8760  149.0450 C   0  0  0  0  0  0  0  0  0  0  0  0
  160.6340  202.4330  148.6700 C   0  0  0  0  0  0  0  0  0  0  0  0
  161.2060  204.2500  153.2050 N   0  0  0  0  0  2  0  0  0  0  0  0
  161.2840  205.9510  149.9610 C   0  0  0  0  0  0  0  0  0  0  0  0
  161.0540  205.1530  147.6720 C   0  0  0  0  0  3  0  0  0  0  0  0
  161.5810  208.7960  147.5790 O   0  0  0  0  0  1  0  0  0  0  0  0
  160.4760  208.6140  151.3990 C   0  0  1  0  0  3  0  0  0  0  0  0
  161.4220  207.5050  148.0760 C   0  0  0  0  0  0  0  0  0  0  0  0
  160.5430  207.6650  152.6060 C   0  0  2  0  0  3  0  0  0  0  0  0
  161.4980  205.5750  153.6260 C   0  0  0  0  0  0  0  0  0  0  0  0
  161.2410  206.4420  147.1860 C   0  0  0  0  0  0  0  0  0  0  0  0
  161.4400  207.2760  149.4630 C   0  0  0  0  0  0  0  0  0  0  0  0
  160.4490  201.1930  149.1960 N   0  0  0  0  0  0  0  0  0  0  0  0
  160.7920  208.5560  153.8090 C   0  0  0  0  0  2  0  0  0  0  0  0
  160.4230  210.0300  151.9480 C   0  0  0  0  0  2  0  0  0  0  0  0
  160.5900  202.5650  147.3220 F   0  0  0  0  0  0  0  0  0  0  0  0
  161.1170  204.3600  151.7930 C   0  0  0  0  0  0  0  0  0  0  0  0
  160.4750  200.9600  150.5320 C   0  0  0  0  0  3  0  0  0  0  0  0
  160.8640  203.5440  149.5240 C   0  0  0  0  0  0  0  0  0  0  0  0
  161.3150  205.6480  151.3380 C   0  0  0  0  0  0  0  0  0  0  0  0
  161.6970  205.8680  154.8340 O   0  0  0  0  0  0  0  0  0  0  0  0
  161.5990  206.5580  152.4960 C   0  0  1  0  0  3  0  0  0  0  0  0
  160.2080  209.8980  153.4390 C   0  0  0  0  0  2  0  0  0  0  0  0
  163.0130  208.6480  150.8880 C   0  0  0  0  0  1  0  0  0  0  0  0
  160.6960  202.0080  151.4190 C   0  0  0  0  0  3  0  0  0  0  0  0
  160.8890  203.3000  150.9220 C   0  0  0  0  0  0  0  0  0  0  0  0
  161.5940  208.4810  150.3520 C   0  0  2  0  0  3  0  0  0  0  0  0
  161.1970  206.6730  145.7130 C   0  0  0  0  0  2  0  0  0  0  0  0
  162.9130  205.2930  145.2380 O   0  0  0  0  0  1  0  0  0  0  0  0
  161.5880  205.4610  145.0150 N   0  0  0  0  0  2  0  0  0  0  0  0
  1 19  2  0  0  0  0
  1  4  1  0  0  0  0
  2 13  2  0  0  0  0
  2 19  1  0  0  0  0
  3 10  1  0  0  0  0
  4 20  2  0  0  0  0
  5  1  1  0  0  0  0
  6  8  1  0  0  0  0
  7 15  1  1  0  0  0
  7  9  1  0  0  0  0
  8 12  2  0  0  0  0
  9 14  1  1  0  0  0
 10 21  2  0  0  0  0
 11  5  2  0  0  0  0
 11  8  1  0  0  0  0
 12  4  1  0  0  0  0
 12 27  1  0  0  0  0
 13 18  1  0  0  0  0
 15 23  1  0  0  0  0
 16  2  1  0  0  0  0
 17  3  1  0  0  0  0
 18 25  2  0  0  0  0
 19 26  1  0  0  0  0
 20 17  1  0  0  0  0
 22 20  1  6  0  0  0
 22  9  1  0  0  0  0
 22 10  1  0  0  0  0
 23 14  1  0  0  0  0
 26 25  1  0  0  0  0
 26 17  2  0  0  0  0
 27 24  1  1  0  0  0
 27  7  1  0  0  0  0
 28 11  1  0  0  0  0
 30 29  1  0  0  0  0
 30 28  1  0  0  0  0
M  END
>  <MODEL>
8

>  <REMARK>
 VINA RESULT:      -5.9      1.293      1.639
  Name = 
  2 active torsions:
  status: ('A' for Active; 'I' for Inactive)
    1  A    between atoms: C_11  and  C_28
    2  A    between atoms: C_28  and  N_30
                            x       y       z     vdW  Elec       q    Type
                         _______ _______ _______ _____ _____    ______ ____

>  <TORSDO>
F 2

$$$$
=
 OpenBabel11122412373D

 30 35  0  0  1  0  0  0  0  0999 V2000
  160.7860  210.5650  151.7120 C   0  0  0  0  0  0  0  0  0  0  0  0
  161.9530  208.6950  150.5150 C   0  0  0  0  0  0  0  0  0  0  0  0
  160.5000  208.2100  155.1890 N   0  0  0  0  0  2  0  0  0  0  0  0
  160.1560  211.0500  152.9000 C   0  0  0  0  0  0  0  0  0  0  0  0
  160.8650  211.4120  150.5990 C   0  0  0  0  0  3  0  0  0  0  0  0
  159.1520  214.4530  151.7730 O   0  0  0  0  0  1  0  0  0  0  0  0
  157.6880  212.0230  154.5650 C   0  0  1  0  0  3  0  0  0  0  0  0
  159.6960  213.1700  151.7690 C   0  0  0  0  0  0  0  0  0  0  0  0
  158.0780  210.7710  155.3660 C   0  0  2  0  0  3  0  0  0  0  0  0
  159.8720  209.1490  156.0500 C   0  0  0  0  0  0  0  0  0  0  0  0
  160.3430  212.7000  150.6230 C   0  0  0  0  0  0  0  0  0  0  0  0
  159.5900  212.3570  152.9110 C   0  0  0  0  0  0  0  0  0  0  0  0
  162.4410  207.4260  150.5410 N   0  0  0  0  0  0  0  0  0  0  0  0
  157.5280  210.9960  156.7630 C   0  0  0  0  0  2  0  0  0  0  0  0
  156.7110  212.8140  155.4200 C   0  0  0  0  0  2  0  0  0  0  0  0
  162.0900  209.4060  149.3690 F   0  0  0  0  0  0  0  0  0  0  0  0
  160.6250  208.9130  153.9630 C   0  0  0  0  0  0  0  0  0  0  0  0
  162.3540  206.6370  151.6400 C   0  0  0  0  0  3  0  0  0  0  0  0
  161.3230  209.2410  151.6640 C   0  0  0  0  0  0  0  0  0  0  0  0
  160.1060  210.1910  154.0170 C   0  0  0  0  0  0  0  0  0  0  0  0
  159.6350  208.8960  157.2600 O   0  0  0  0  0  0  0  0  0  0  0  0
  159.5800  210.4670  155.3950 C   0  0  1  0  0  3  0  0  0  0  0  0
  156.3460  211.9180  156.5830 C   0  0  0  0  0  2  0  0  0  0  0  0
  159.7590  213.4470  155.1850 C   0  0  0  0  0  1  0  0  0  0  0  0
  161.7470  207.1160  152.7960 C   0  0  0  0  0  3  0  0  0  0  0  0
  161.2300  208.4140  152.8130 C   0  0  0  0  0  0  0  0  0  0  0  0
  158.8390  212.9230  154.0860 C   0  0  2  0  0  3  0  0  0  0  0  0
  160.4440  213.5440  149.3970 C   0  0  0  0  0  2  0  0  0  0  0  0
  162.3220  213.4690  148.1560 O   0  0  0  0  0  1  0  0  0  0  0  0
  161.1530  212.8170  148.3580 N   0  0  0  0  0  2  0  0  0  0  0  0
  1  4  1  0  0  0  0
  2 13  2  0  0  0  0
  2 19  1  0  0  0  0
  3 10  1  0  0  0  0
  4 12  1  0  0  0  0
  4 20  2  0  0  0  0
  5 11  2  0  0  0  0
  5  1  1  0  0  0  0
  7  9  1  0  0  0  0
  7 15  1  1  0  0  0
  8  6  1  0  0  0  0
  8 12  2  0  0  0  0
  9 22  1  0  0  0  0
  9 14  1  1  0  0  0
 10 21  2  0  0  0  0
 11  8  1  0  0  0  0
 12 27  1  0  0  0  0
 13 18  1  0  0  0  0
 15 23  1  0  0  0  0
 16  2  1  0  0  0  0
 17 20  1  0  0  0  0
 17  3  1  0  0  0  0
 18 25  2  0  0  0  0
 19  1  2  0  0  0  0
 19 26  1  0  0  0  0
 22 20  1  6  0  0  0
 22 10  1  0  0  0  0
 23 14  1  0  0  0  0
 25 26  1  0  0  0  0
 26 17  2  0  0  0  0
 27  7  1  0  0  0  0
 27 24  1  1  0  0  0
 28 11  1  0  0  0  0
 29 30  1  0  0  0  0
 30 28  1  0  0  0  0
M  END
>  <MODEL>
9

>  <REMARK>
 VINA RESULT:      -5.7      3.183      5.037
  Name = 
  2 active torsions:
  status: ('A' for Active; 'I' for Inactive)
    1  A    between atoms: C_11  and  C_28
    2  A    between atoms: C_28  and  N_30
                            x       y       z     vdW  Elec       q    Type
                         _______ _______ _______ _____ _____    ______ ____

>  <TORSDO>
F 2

$$$$
