=
 OpenBabel11122413263D

 31 35  0  0  1  0  0  0  0  0999 V2000
  160.5710  207.2960  155.1230 C   0  0  0  0  0  0  0  0  0  0  0  0
  161.3990  207.6230  151.4780 C   0  0  0  0  0  0  0  0  0  0  0  0
  161.3030  206.2250  150.9400 C   0  0  0  0  0  0  0  0  0  0  0  0
  161.5230  203.8140  151.2210 C   0  0  0  0  0  0  0  0  0  0  0  0
  161.1360  207.9430  152.8390 C   0  0  0  0  0  0  0  0  0  0  0  0
  160.5980  208.6320  155.5200 C   0  0  0  0  0  3  0  0  0  0  0  0
  161.6130  205.1100  151.7360 C   0  0  0  0  0  3  0  0  0  0  0  0
  161.6300  210.0220  150.9950 C   0  0  0  0  0  0  0  0  0  0  0  0
  160.2910  206.3270  156.0260 F   0  0  0  0  0  0  0  0  0  0  0  0
  160.6540  207.1650  148.6910 C   0  0  0  0  0  2  0  0  0  0  0  0
  161.8250  202.7250  152.0260 O   0  0  0  0  0  1  0  0  0  0  0  0
  161.3800  210.3120  152.3380 C   0  0  0  0  0  3  0  0  0  0  0  0
  161.6570  208.6830  150.5680 C   0  0  0  0  0  0  0  0  0  0  0  0
  160.8340  206.9560  153.7940 C   0  0  0  0  0  3  0  0  0  0  0  0
  161.1300  203.6140  149.8960 C   0  0  0  0  0  3  0  0  0  0  0  0
  161.1410  209.2960  153.2560 C   0  0  0  0  0  0  0  0  0  0  0  0
  160.8780  209.6310  154.5870 C   0  0  0  0  0  3  0  0  0  0  0  0
  162.0410  208.3230  148.8400 S   0  0  0  0  0  0  0  0  0  0  0  0
  160.9280  206.0090  149.5940 C   0  0  0  0  0  0  0  0  0  0  0  0
  160.8370  204.7110  149.0840 C   0  0  0  0  0  3  0  0  0  0  0  0
  160.2040  212.5870  150.6830 O   0  0  0  0  0  0  0  0  0  0  0  0
  161.1680  212.3100  149.9200 C   0  0  0  0  0  0  0  0  0  0  0  0
  161.8800  211.0720  150.0460 N   0  0  0  0  0  2  0  0  0  0  0  0
  159.9010  213.1760  146.5130 C   0  0  1  0  0  3  0  0  0  0  0  0
  160.4860  214.2890  148.5330 C   0  0  0  0  0  2  0  0  0  0  0  0
  162.9930  211.5800  147.8470 O   0  0  0  0  0  1  0  0  0  0  0  0
  158.7520  212.6450  145.6820 C   0  0  0  0  0  1  0  0  0  0  0  0
  159.3920  213.6510  147.7980 N   0  0  0  0  0  2  0  0  0  0  0  0
  162.0840  212.6020  147.5650 C   0  0  2  0  0  3  0  0  0  0  0  0
  161.5940  213.2800  148.8550 C   0  0  2  0  0  3  0  0  0  0  0  0
  160.9230  212.0650  146.7330 C   0  0  0  0  0  2  0  0  0  0  0  0
  1  6  1  0  0  0  0
  1  9  1  0  0  0  0
  2  5  1  0  0  0  0
  3  2  1  0  0  0  0
  3  7  1  0  0  0  0
  4  7  2  0  0  0  0
  4 11  1  0  0  0  0
  5 16  2  0  0  0  0
  5 14  1  0  0  0  0
  8 12  2  0  0  0  0
 10 18  1  0  0  0  0
 10 19  1  0  0  0  0
 12 16  1  0  0  0  0
 13  8  1  0  0  0  0
 13  2  2  0  0  0  0
 14  1  2  0  0  0  0
 15  4  1  0  0  0  0
 16 17  1  0  0  0  0
 17  6  2  0  0  0  0
 18 13  1  0  0  0  0
 19  3  2  0  0  0  0
 20 19  1  0  0  0  0
 20 15  2  0  0  0  0
 22 23  1  0  0  0  0
 22 21  2  0  0  0  0
 23  8  1  0  0  0  0
 24 27  1  6  0  0  0
 24 31  1  0  0  0  0
 24 28  1  0  0  0  0
 25 30  1  0  0  0  0
 28 25  1  0  0  0  0
 29 26  1  1  0  0  0
 29 30  1  0  0  0  0
 30 22  1  1  0  0  0
 31 29  1  0  0  0  0
M  END
>  <MODEL>
1

>  <REMARK>
 VINA RESULT:      -9.7      0.000      0.000
  Name = 
  2 active torsions:
  status: ('A' for Active; 'I' for Inactive)
    1  A    between atoms: C_5  and  C_30
    2  A    between atoms: C_10  and  N_16
                            x       y       z     vdW  Elec       q    Type
                         _______ _______ _______ _____ _____    ______ ____

>  <TORSDO>
F 2

$$$$
=
 OpenBabel11122413263D

 31 35  0  0  1  0  0  0  0  0999 V2000
  160.6400  202.1370  150.7050 C   0  0  0  0  0  0  0  0  0  0  0  0
  161.4530  205.5510  149.3760 C   0  0  0  0  0  0  0  0  0  0  0  0
  161.3330  205.4160  147.8860 C   0  0  0  0  0  0  0  0  0  0  0  0
  161.5190  204.1000  145.8430 C   0  0  0  0  0  0  0  0  0  0  0  0
  161.2020  204.4700  150.2670 C   0  0  0  0  0  0  0  0  0  0  0  0
  160.6890  202.3710  152.0780 C   0  0  0  0  0  3  0  0  0  0  0  0
  161.6300  204.2090  147.2310 C   0  0  0  0  0  3  0  0  0  0  0  0
  161.7170  207.0430  151.3110 C   0  0  0  0  0  0  0  0  0  0  0  0
  160.3510  200.8990  150.2380 F   0  0  0  0  0  0  0  0  0  0  0  0
  160.6850  207.8500  147.7460 C   0  0  0  0  0  2  0  0  0  0  0  0
  161.8090  202.8950  145.2170 O   0  0  0  0  0  1  0  0  0  0  0  0
  161.4790  205.9660  152.1680 C   0  0  0  0  0  3  0  0  0  0  0  0
  161.7210  206.8340  149.9200 C   0  0  0  0  0  0  0  0  0  0  0  0
  160.8910  203.1790  149.8080 C   0  0  0  0  0  3  0  0  0  0  0  0
  161.1150  205.2000  145.0850 C   0  0  0  0  0  3  0  0  0  0  0  0
  161.2290  204.6940  151.6650 C   0  0  0  0  0  0  0  0  0  0  0  0
  160.9790  203.6480  152.5580 C   0  0  0  0  0  3  0  0  0  0  0  0
  162.0910  208.2250  148.8290 S   0  0  0  0  0  0  0  0  0  0  0  0
  160.9470  206.5290  147.1040 C   0  0  0  0  0  0  0  0  0  0  0  0
  160.8330  206.4130  145.7150 C   0  0  0  0  0  3  0  0  0  0  0  0
  160.4700  208.3760  153.6300 O   0  0  0  0  0  0  0  0  0  0  0  0
  161.3540  208.9780  152.9620 C   0  0  0  0  0  0  0  0  0  0  0  0
  161.9770  208.3570  151.8300 N   0  0  0  0  0  2  0  0  0  0  0  0
  160.3500  211.3720  155.6500 C   0  0  1  0  0  3  0  0  0  0  0  0
  162.3430  210.4190  154.7650 C   0  0  0  0  0  2  0  0  0  0  0  0
  160.0330  211.2950  151.9380 O   0  0  0  0  0  1  0  0  0  0  0  0
  159.3300  211.2900  156.7660 C   0  0  0  0  0  1  0  0  0  0  0  0
  161.2820  210.2520  155.7600 N   0  0  0  0  0  2  0  0  0  0  0  0
  160.6610  211.4160  153.1790 C   0  0  2  0  0  3  0  0  0  0  0  0
  161.7750  210.3690  153.3420 C   0  0  2  0  0  3  0  0  0  0  0  0
  159.6330  211.3260  154.3040 C   0  0  0  0  0  2  0  0  0  0  0  0
  1  6  1  0  0  0  0
  2 13  2  0  0  0  0
  2  5  1  0  0  0  0
  3  2  1  0  0  0  0
  4  7  2  0  0  0  0
  5 16  2  0  0  0  0
  6 17  2  0  0  0  0
  7  3  1  0  0  0  0
  8 23  1  0  0  0  0
  8 12  2  0  0  0  0
  9  1  1  0  0  0  0
 10 18  1  0  0  0  0
 11  4  1  0  0  0  0
 13  8  1  0  0  0  0
 14  5  1  0  0  0  0
 14  1  2  0  0  0  0
 15 20  2  0  0  0  0
 15  4  1  0  0  0  0
 16 12  1  0  0  0  0
 16 17  1  0  0  0  0
 18 13  1  0  0  0  0
 19 10  1  0  0  0  0
 19  3  2  0  0  0  0
 20 19  1  0  0  0  0
 22 21  2  0  0  0  0
 23 22  1  0  0  0  0
 24 28  1  0  0  0  0
 24 27  1  1  0  0  0
 25 28  1  0  0  0  0
 29 26  1  6  0  0  0
 29 30  1  0  0  0  0
 29 31  1  0  0  0  0
 30 22  1  1  0  0  0
 30 25  1  0  0  0  0
 31 24  1  0  0  0  0
M  END
>  <MODEL>
2

>  <REMARK>
 VINA RESULT:      -9.6      3.583      5.739
  Name = 
  2 active torsions:
  status: ('A' for Active; 'I' for Inactive)
    1  A    between atoms: C_5  and  C_30
    2  A    between atoms: C_10  and  N_16
                            x       y       z     vdW  Elec       q    Type
                         _______ _______ _______ _____ _____    ______ ____

>  <TORSDO>
F 2

$$$$
=
 OpenBabel11122413263D

 31 35  0  0  1  0  0  0  0  0999 V2000
  160.5400  201.4010  149.7680 C   0  0  0  0  0  0  0  0  0  0  0  0
  161.5190  205.0140  149.5070 C   0  0  0  0  0  0  0  0  0  0  0  0
  161.4150  205.3300  148.0440 C   0  0  0  0  0  0  0  0  0  0  0  0
  161.5750  204.6680  145.7040 C   0  0  0  0  0  0  0  0  0  0  0  0
  161.2080  203.7310  150.0400 C   0  0  0  0  0  0  0  0  0  0  0  0
  160.5780  201.2170  151.1490 C   0  0  0  0  0  3  0  0  0  0  0  0
  161.6700  204.3580  147.0630 C   0  0  0  0  0  3  0  0  0  0  0  0
  161.8180  205.8550  151.7980 C   0  0  0  0  0  0  0  0  0  0  0  0
  160.2040  200.3700  148.9560 F   0  0  0  0  0  0  0  0  0  0  0  0
  160.8750  207.7240  148.6280 C   0  0  0  0  0  2  0  0  0  0  0  0
  161.8220  203.6900  144.7510 O   0  0  0  0  0  1  0  0  0  0  0  0
  161.5210  204.5860  152.2980 C   0  0  0  0  0  3  0  0  0  0  0  0
  161.8340  206.0660  150.4070 C   0  0  0  0  0  0  0  0  0  0  0  0
  160.8480  202.6480  149.2200 C   0  0  0  0  0  3  0  0  0  0  0  0
  161.2300  205.9600  145.3040 C   0  0  0  0  0  3  0  0  0  0  0  0
  161.2240  203.5310  151.4420 C   0  0  0  0  0  0  0  0  0  0  0  0
  160.9160  202.2810  151.9860 C   0  0  0  0  0  3  0  0  0  0  0  0
  162.2790  207.6990  149.7760 S   0  0  0  0  0  0  0  0  0  0  0  0
  161.0890  206.6400  147.6250 C   0  0  0  0  0  0  0  0  0  0  0  0
  160.9920  206.9450  146.2640 C   0  0  0  0  0  3  0  0  0  0  0  0
  160.1140  208.1450  152.5480 O   0  0  0  0  0  0  0  0  0  0  0  0
  161.2750  208.0440  153.0280 C   0  0  0  0  0  0  0  0  0  0  0  0
  162.1270  206.9440  152.6820 N   0  0  0  0  0  2  0  0  0  0  0  0
  159.8500  211.1510  154.5390 C   0  0  1  0  0  3  0  0  0  0  0  0
  160.9420  209.1610  155.2530 C   0  0  0  0  0  2  0  0  0  0  0  0
  162.5860  210.4150  152.1180 O   0  0  0  0  0  1  0  0  0  0  0  0
  158.5100  211.8400  154.3900 C   0  0  0  0  0  1  0  0  0  0  0  0
  159.6410  209.7720  154.9770 N   0  0  0  0  0  2  0  0  0  0  0  0
  161.9340  210.4800  153.3510 C   0  0  2  0  0  3  0  0  0  0  0  0
  161.7940  209.0840  153.9800 C   0  0  2  0  0  3  0  0  0  0  0  0
  160.5810  211.1690  153.1990 C   0  0  0  0  0  2  0  0  0  0  0  0
  1  6  1  0  0  0  0
  2  5  2  0  0  0  0
  2 13  1  0  0  0  0
  3  2  1  0  0  0  0
  4  7  1  0  0  0  0
  5 16  1  0  0  0  0
  6 17  2  0  0  0  0
  7  3  2  0  0  0  0
  8 12  1  0  0  0  0
  8 23  1  0  0  0  0
  9  1  1  0  0  0  0
 10 18  1  0  0  0  0
 11  4  1  0  0  0  0
 13  8  2  0  0  0  0
 14  1  2  0  0  0  0
 14  5  1  0  0  0  0
 15  4  2  0  0  0  0
 15 20  1  0  0  0  0
 16 17  1  0  0  0  0
 16 12  2  0  0  0  0
 18 13  1  0  0  0  0
 19  3  1  0  0  0  0
 19 10  1  0  0  0  0
 20 19  2  0  0  0  0
 21 22  2  0  0  0  0
 23 22  1  0  0  0  0
 24 27  1  6  0  0  0
 24 28  1  0  0  0  0
 28 25  1  0  0  0  0
 29 26  1  6  0  0  0
 29 30  1  0  0  0  0
 30 22  1  6  0  0  0
 30 25  1  0  0  0  0
 31 29  1  0  0  0  0
 31 24  1  0  0  0  0
M  END
>  <MODEL>
3

>  <REMARK>
 VINA RESULT:      -8.0      3.847      6.008
  Name = 
  2 active torsions:
  status: ('A' for Active; 'I' for Inactive)
    1  A    between atoms: C_5  and  C_30
    2  A    between atoms: C_10  and  N_16
                            x       y       z     vdW  Elec       q    Type
                         _______ _______ _______ _____ _____    ______ ____

>  <TORSDO>
F 2

$$$$
=
 OpenBabel11122413263D

 31 35  0  0  1  0  0  0  0  0999 V2000
  160.5750  212.7940  150.9220 C   0  0  0  0  0  0  0  0  0  0  0  0
  161.6220  209.2210  151.3840 C   0  0  0  0  0  0  0  0  0  0  0  0
  161.3200  208.9200  152.8230 C   0  0  0  0  0  0  0  0  0  0  0  0
  161.1190  209.6180  155.1490 C   0  0  0  0  0  0  0  0  0  0  0  0
  161.3500  210.4850  150.7900 C   0  0  0  0  0  0  0  0  0  0  0  0
  160.8060  212.9620  149.5570 C   0  0  0  0  0  3  0  0  0  0  0  0
  161.3990  209.9130  153.8130 C   0  0  0  0  0  3  0  0  0  0  0  0
  162.2760  208.3610  149.1760 C   0  0  0  0  0  0  0  0  0  0  0  0
  160.0930  213.8230  151.6590 F   0  0  0  0  0  0  0  0  0  0  0  0
  160.9470  206.5010  152.2100 C   0  0  0  0  0  2  0  0  0  0  0  0
  161.1950  210.6160  156.1110 O   0  0  0  0  0  1  0  0  0  0  0  0
  162.0130  209.6130  148.6160 C   0  0  0  0  0  3  0  0  0  0  0  0
  162.0980  208.1680  150.5580 C   0  0  0  0  0  0  0  0  0  0  0  0
  160.8420  211.5650  151.5310 C   0  0  0  0  0  3  0  0  0  0  0  0
  160.7630  208.3200  155.5180 C   0  0  0  0  0  3  0  0  0  0  0  0
  161.5620  210.6670  149.4010 C   0  0  0  0  0  0  0  0  0  0  0  0
  161.2950  211.8990  148.7970 C   0  0  0  0  0  3  0  0  0  0  0  0
  162.5000  206.5600  151.2750 S   0  0  0  0  0  0  0  0  0  0  0  0
  160.9790  207.6050  153.2140 C   0  0  0  0  0  0  0  0  0  0  0  0
  160.6970  207.3140  154.5520 C   0  0  0  0  0  3  0  0  0  0  0  0
  160.7090  206.5790  147.4220 O   0  0  0  0  0  0  0  0  0  0  0  0
  161.9550  206.4220  147.5200 C   0  0  0  0  0  0  0  0  0  0  0  0
  162.7440  207.2710  148.3640 N   0  0  0  0  0  2  0  0  0  0  0  0
  160.8800  203.9930  144.8920 C   0  0  1  0  0  3  0  0  0  0  0  0
  162.6030  205.5980  145.2380 C   0  0  0  0  0  2  0  0  0  0  0  0
  162.0090  203.7150  148.4320 O   0  0  0  0  0  1  0  0  0  0  0  0
  159.5480  203.7350  144.2200 C   0  0  0  0  0  1  0  0  0  0  0  0
  161.2530  205.3940  144.7080 N   0  0  0  0  0  2  0  0  0  0  0  0
  162.1110  203.9260  147.0550 C   0  0  2  0  0  3  0  0  0  0  0  0
  162.6460  205.3340  146.7480 C   0  0  2  0  0  3  0  0  0  0  0  0
  160.7670  203.6720  146.3800 C   0  0  0  0  0  2  0  0  0  0  0  0
  1 14  1  0  0  0  0
  1  9  1  0  0  0  0
  2  3  1  0  0  0  0
  3 19  2  0  0  0  0
  3  7  1  0  0  0  0
  4 15  1  0  0  0  0
  4 11  1  0  0  0  0
  5  2  1  0  0  0  0
  5 14  2  0  0  0  0
  6  1  2  0  0  0  0
  7  4  2  0  0  0  0
  8 13  1  0  0  0  0
 10 19  1  0  0  0  0
 12  8  2  0  0  0  0
 12 16  1  0  0  0  0
 13 18  1  0  0  0  0
 13  2  2  0  0  0  0
 16  5  1  0  0  0  0
 17 16  2  0  0  0  0
 17  6  1  0  0  0  0
 18 10  1  0  0  0  0
 19 20  1  0  0  0  0
 20 15  2  0  0  0  0
 21 22  2  0  0  0  0
 22 23  1  0  0  0  0
 23  8  1  0  0  0  0
 24 27  1  6  0  0  0
 24 31  1  0  0  0  0
 25 30  1  0  0  0  0
 28 24  1  0  0  0  0
 28 25  1  0  0  0  0
 29 26  1  1  0  0  0
 30 29  1  0  0  0  0
 30 22  1  1  0  0  0
 31 29  1  0  0  0  0
M  END
>  <MODEL>
4

>  <REMARK>
 VINA RESULT:      -7.9      3.382      6.516
  Name = 
  2 active torsions:
  status: ('A' for Active; 'I' for Inactive)
    1  A    between atoms: C_5  and  C_30
    2  A    between atoms: C_10  and  N_16
                            x       y       z     vdW  Elec       q    Type
                         _______ _______ _______ _____ _____    ______ ____

>  <TORSDO>
F 2

$$$$
=
 OpenBabel11122413263D

 31 35  0  0  1  0  0  0  0  0999 V2000
  161.6550  203.8310  145.8250 C   0  0  0  0  0  0  0  0  0  0  0  0
  161.4220  205.6100  149.1200 C   0  0  0  0  0  0  0  0  0  0  0  0
  161.2050  204.5180  150.1260 C   0  0  0  0  0  0  0  0  0  0  0  0
  160.3070  202.3380  150.7450 C   0  0  0  0  0  0  0  0  0  0  0  0
  161.5840  205.3530  147.7300 C   0  0  0  0  0  0  0  0  0  0  0  0
  161.9400  204.8960  144.9710 C   0  0  0  0  0  3  0  0  0  0  0  0
  160.5060  203.3450  149.7970 C   0  0  0  0  0  3  0  0  0  0  0  0
  161.9110  207.9830  148.7040 C   0  0  0  0  0  0  0  0  0  0  0  0
  161.5450  202.5760  145.3290 F   0  0  0  0  0  0  0  0  0  0  0  0
  162.3670  205.9270  151.8660 C   0  0  0  0  0  2  0  0  0  0  0  0
  159.6220  201.1830  150.3970 O   0  0  0  0  0  1  0  0  0  0  0  0
  162.0550  207.7090  147.3430 C   0  0  0  0  0  3  0  0  0  0  0  0
  161.5790  206.9410  149.5890 C   0  0  0  0  0  0  0  0  0  0  0  0
  161.4830  204.0580  147.1920 C   0  0  0  0  0  3  0  0  0  0  0  0
  160.7990  202.4930  152.0430 C   0  0  0  0  0  3  0  0  0  0  0  0
  161.8910  206.4200  146.8510 C   0  0  0  0  0  0  0  0  0  0  0  0
  162.0610  206.1880  145.4830 C   0  0  0  0  0  3  0  0  0  0  0  0
  161.3370  207.3230  151.3380 S   0  0  0  0  0  0  0  0  0  0  0  0
  161.6780  204.6710  151.4500 C   0  0  0  0  0  0  0  0  0  0  0  0
  161.4800  203.6600  152.3940 C   0  0  0  0  0  3  0  0  0  0  0  0
  161.1880  210.5380  147.4160 O   0  0  0  0  0  0  0  0  0  0  0  0
  161.7150  210.5410  148.5610 C   0  0  0  0  0  0  0  0  0  0  0  0
  162.0780  209.3160  149.2130 N   0  0  0  0  0  2  0  0  0  0  0  0
  160.0690  213.8960  148.5670 C   0  0  1  0  0  3  0  0  0  0  0  0
  160.7820  212.2570  150.1390 C   0  0  0  0  0  2  0  0  0  0  0  0
  163.3670  212.5820  147.4360 O   0  0  0  0  0  1  0  0  0  0  0  0
  158.8780  214.4530  147.8170 C   0  0  0  0  0  1  0  0  0  0  0  0
  159.6610  212.7040  149.3090 N   0  0  0  0  0  2  0  0  0  0  0  0
  162.3750  212.9860  148.3320 C   0  0  2  0  0  3  0  0  0  0  0  0
  161.9750  211.8380  149.2720 C   0  0  2  0  0  3  0  0  0  0  0  0
  161.1730  213.5420  147.5740 C   0  0  0  0  0  2  0  0  0  0  0  0
  1 14  1  0  0  0  0
  2 13  2  0  0  0  0
  2  3  1  0  0  0  0
  3 19  1  0  0  0  0
  4 15  2  0  0  0  0
  5  2  1  0  0  0  0
  6 17  1  0  0  0  0
  6  1  2  0  0  0  0
  7  3  2  0  0  0  0
  7  4  1  0  0  0  0
  8 23  1  0  0  0  0
  8 13  1  0  0  0  0
  9  1  1  0  0  0  0
 11  4  1  0  0  0  0
 12  8  2  0  0  0  0
 13 18  1  0  0  0  0
 14  5  2  0  0  0  0
 15 20  1  0  0  0  0
 16 12  1  0  0  0  0
 16  5  1  0  0  0  0
 17 16  2  0  0  0  0
 18 10  1  0  0  0  0
 19 10  1  0  0  0  0
 19 20  2  0  0  0  0
 21 22  2  0  0  0  0
 22 23  1  0  0  0  0
 24 27  1  6  0  0  0
 24 28  1  0  0  0  0
 28 25  1  0  0  0  0
 29 26  1  6  0  0  0
 29 30  1  0  0  0  0
 30 22  1  6  0  0  0
 30 25  1  0  0  0  0
 31 29  1  0  0  0  0
 31 24  1  0  0  0  0
M  END
>  <MODEL>
5

>  <REMARK>
 VINA RESULT:      -7.7      3.159      4.985
  Name = 
  2 active torsions:
  status: ('A' for Active; 'I' for Inactive)
    1  A    between atoms: C_5  and  C_30
    2  A    between atoms: C_10  and  N_16
                            x       y       z     vdW  Elec       q    Type
                         _______ _______ _______ _____ _____    ______ ____

>  <TORSDO>
F 2

$$$$
=
 OpenBabel11122413263D

 31 35  0  0  1  0  0  0  0  0999 V2000
  161.3220  204.9690  151.8520 C   0  0  0  0  0  0  0  0  0  0  0  0
  161.0820  208.5420  152.9710 C   0  0  0  0  0  0  0  0  0  0  0  0
  160.9230  208.4620  154.4610 C   0  0  0  0  0  0  0  0  0  0  0  0
  160.1160  207.3260  156.4610 C   0  0  0  0  0  0  0  0  0  0  0  0
  161.2300  207.3880  152.1520 C   0  0  0  0  0  0  0  0  0  0  0  0
  161.5520  205.1350  150.4870 C   0  0  0  0  0  3  0  0  0  0  0  0
  160.2610  207.3850  155.0730 C   0  0  0  0  0  3  0  0  0  0  0  0
  161.4780  209.9530  150.9970 C   0  0  0  0  0  0  0  0  0  0  0  0
  161.2480  203.7230  152.3790 F   0  0  0  0  0  0  0  0  0  0  0  0
  162.0640  210.7020  154.6750 C   0  0  0  0  0  2  0  0  0  0  0  0
  159.4670  206.2480  157.0460 O   0  0  0  0  0  1  0  0  0  0  0  0
  161.6080  208.8070  150.2110 C   0  0  0  0  0  3  0  0  0  0  0  0
  161.2000  209.8230  152.3700 C   0  0  0  0  0  0  0  0  0  0  0  0
  161.1660  206.0850  152.6760 C   0  0  0  0  0  3  0  0  0  0  0  0
  160.6250  208.3510  157.2610 C   0  0  0  0  0  3  0  0  0  0  0  0
  161.4820  207.5390  150.7670 C   0  0  0  0  0  0  0  0  0  0  0  0
  161.6360  206.4190  149.9450 C   0  0  0  0  0  3  0  0  0  0  0  0
  160.9750  211.3160  153.3610 S   0  0  0  0  0  0  0  0  0  0  0  0
  161.4140  209.5040  155.2820 C   0  0  0  0  0  0  0  0  0  0  0  0
  161.2690  209.4400  156.6710 C   0  0  0  0  0  3  0  0  0  0  0  0
  161.6500  210.6920  148.1460 O   0  0  0  0  0  0  0  0  0  0  0  0
  161.6860  211.5910  149.0290 C   0  0  0  0  0  0  0  0  0  0  0  0
  161.6050  211.2630  150.4220 N   0  0  0  0  0  2  0  0  0  0  0  0
  160.5890  213.6070  146.0800 C   0  0  1  0  0  3  0  0  0  0  0  0
  160.4440  213.6960  148.4540 C   0  0  0  0  0  2  0  0  0  0  0  0
  163.8800  212.5480  147.4700 O   0  0  0  0  0  1  0  0  0  0  0  0
  159.8500  213.2440  144.8090 C   0  0  0  0  0  1  0  0  0  0  0  0
  159.7870  213.2150  147.2370 N   0  0  0  0  0  2  0  0  0  0  0  0
  162.6810  213.2580  147.3850 C   0  0  2  0  0  3  0  0  0  0  0  0
  161.8150  213.0350  148.6360 C   0  0  2  0  0  3  0  0  0  0  0  0
  161.9340  212.8870  146.1080 C   0  0  0  0  0  2  0  0  0  0  0  0
  1  9  1  0  0  0  0
  1 14  1  0  0  0  0
  2  3  1  0  0  0  0
  3  7  2  0  0  0  0
  3 19  1  0  0  0  0
  4 11  1  0  0  0  0
  4 15  2  0  0  0  0
  5 14  2  0  0  0  0
  5  2  1  0  0  0  0
  6  1  2  0  0  0  0
  7  4  1  0  0  0  0
  8 13  1  0  0  0  0
 10 19  1  0  0  0  0
 12 16  1  0  0  0  0
 12  8  2  0  0  0  0
 13  2  2  0  0  0  0
 13 18  1  0  0  0  0
 16  5  1  0  0  0  0
 17  6  1  0  0  0  0
 17 16  2  0  0  0  0
 18 10  1  0  0  0  0
 19 20  2  0  0  0  0
 20 15  1  0  0  0  0
 21 22  2  0  0  0  0
 22 23  1  0  0  0  0
 23  8  1  0  0  0  0
 24 27  1  6  0  0  0
 24 31  1  0  0  0  0
 24 28  1  0  0  0  0
 25 30  1  0  0  0  0
 28 25  1  0  0  0  0
 29 26  1  1  0  0  0
 29 30  1  0  0  0  0
 30 22  1  6  0  0  0
 31 29  1  0  0  0  0
M  END
>  <MODEL>
6

>  <REMARK>
 VINA RESULT:      -7.7      2.098      4.258
  Name = 
  2 active torsions:
  status: ('A' for Active; 'I' for Inactive)
    1  A    between atoms: C_5  and  C_30
    2  A    between atoms: C_10  and  N_16
                            x       y       z     vdW  Elec       q    Type
                         _______ _______ _______ _____ _____    ______ ____

>  <TORSDO>
F 2

$$$$
=
 OpenBabel11122413263D

 31 35  0  0  1  0  0  0  0  0999 V2000
  161.9300  206.8660  147.1540 C   0  0  0  0  0  0  0  0  0  0  0  0
  161.1530  206.1290  150.7490 C   0  0  0  0  0  0  0  0  0  0  0  0
  161.0250  204.6350  150.8110 C   0  0  0  0  0  0  0  0  0  0  0  0
  160.4260  202.5030  149.7920 C   0  0  0  0  0  0  0  0  0  0  0  0
  161.4680  206.8240  149.5480 C   0  0  0  0  0  0  0  0  0  0  0  0
  162.1160  208.2470  147.2020 C   0  0  0  0  0  3  0  0  0  0  0  0
  160.5440  203.8940  149.7190 C   0  0  0  0  0  3  0  0  0  0  0  0
  161.3030  208.2520  151.9780 C   0  0  0  0  0  0  0  0  0  0  0  0
  162.0550  206.2070  145.9770 F   0  0  0  0  0  0  0  0  0  0  0  0
  161.8080  204.6940  153.2080 C   0  0  0  0  0  2  0  0  0  0  0  0
  159.9570  201.7890  148.6980 O   0  0  0  0  0  1  0  0  0  0  0  0
  161.6000  208.9150  150.7860 C   0  0  0  0  0  3  0  0  0  0  0  0
  161.0640  206.8670  151.9590 C   0  0  0  0  0  0  0  0  0  0  0  0
  161.6120  206.1620  148.3170 C   0  0  0  0  0  3  0  0  0  0  0  0
  160.7780  201.8320  150.9640 C   0  0  0  0  0  3  0  0  0  0  0  0
  161.6790  208.2240  149.5830 C   0  0  0  0  0  0  0  0  0  0  0  0
  161.9950  208.9250  148.4160 C   0  0  0  0  0  3  0  0  0  0  0  0
  160.6220  206.0350  153.5010 S   0  0  0  0  0  0  0  0  0  0  0  0
  161.3570  203.9450  151.9990 C   0  0  0  0  0  0  0  0  0  0  0  0
  161.2400  202.5530  152.0670 C   0  0  0  0  0  3  0  0  0  0  0  0
  160.8520  211.1370  152.4040 O   0  0  0  0  0  0  0  0  0  0  0  0
  160.9990  210.3730  153.3960 C   0  0  0  0  0  0  0  0  0  0  0  0
  161.2200  208.9680  153.2210 N   0  0  0  0  0  2  0  0  0  0  0  0
  160.5860  208.8660  156.7910 C   0  0  1  0  0  3  0  0  0  0  0  0
  162.0650  210.3560  155.6700 C   0  0  0  0  0  2  0  0  0  0  0  0
  158.5350  211.1130  154.6390 O   0  0  0  0  0  1  0  0  0  0  0  0
  160.3900  207.4400  157.2610 C   0  0  0  0  0  1  0  0  0  0  0  0
  161.8120  208.9520  155.9990 N   0  0  0  0  0  2  0  0  0  0  0  0
  159.5820  210.7300  155.4790 C   0  0  2  0  0  3  0  0  0  0  0  0
  160.9440  210.9250  154.7920 C   0  0  2  0  0  3  0  0  0  0  0  0
  159.3870  209.2900  155.9470 C   0  0  0  0  0  2  0  0  0  0  0  0
  1  6  2  0  0  0  0
  1 14  1  0  0  0  0
  2  3  1  0  0  0  0
  2 13  2  0  0  0  0
  3 19  1  0  0  0  0
  4 15  2  0  0  0  0
  5 16  1  0  0  0  0
  5  2  1  0  0  0  0
  6 17  1  0  0  0  0
  7  4  1  0  0  0  0
  7  3  2  0  0  0  0
  8 23  1  0  0  0  0
  9  1  1  0  0  0  0
 10 18  1  0  0  0  0
 11  4  1  0  0  0  0
 12  8  2  0  0  0  0
 13  8  1  0  0  0  0
 13 18  1  0  0  0  0
 14  5  2  0  0  0  0
 15 20  1  0  0  0  0
 16 12  1  0  0  0  0
 17 16  2  0  0  0  0
 19 20  2  0  0  0  0
 19 10  1  0  0  0  0
 21 22  2  0  0  0  0
 23 22  1  0  0  0  0
 24 27  1  6  0  0  0
 25 28  1  0  0  0  0
 28 24  1  0  0  0  0
 29 26  1  6  0  0  0
 29 31  1  0  0  0  0
 30 22  1  6  0  0  0
 30 29  1  0  0  0  0
 30 25  1  0  0  0  0
 31 24  1  0  0  0  0
M  END
>  <MODEL>
7

>  <REMARK>
 VINA RESULT:      -7.5      3.686      6.312
  Name = 
  2 active torsions:
  status: ('A' for Active; 'I' for Inactive)
    1  A    between atoms: C_5  and  C_30
    2  A    between atoms: C_10  and  N_16
                            x       y       z     vdW  Elec       q    Type
                         _______ _______ _______ _____ _____    ______ ____

>  <TORSDO>
F 2

$$$$
=
 OpenBabel11122413263D

 31 35  0  0  1  0  0  0  0  0999 V2000
  161.9560  206.8080  147.1070 C   0  0  0  0  0  0  0  0  0  0  0  0
  161.2050  205.1570  150.3920 C   0  0  0  0  0  0  0  0  0  0  0  0
  161.0750  203.6990  150.0620 C   0  0  0  0  0  0  0  0  0  0  0  0
  160.4650  201.9070  148.5260 C   0  0  0  0  0  0  0  0  0  0  0  0
  161.5120  206.1420  149.4120 C   0  0  0  0  0  0  0  0  0  0  0  0
  162.1450  208.1280  147.5130 C   0  0  0  0  0  3  0  0  0  0  0  0
  160.5850  203.2680  148.8180 C   0  0  0  0  0  3  0  0  0  0  0  0
  161.3680  206.8860  152.1310 C   0  0  0  0  0  0  0  0  0  0  0  0
  162.0720  206.4790  145.7980 F   0  0  0  0  0  0  0  0  0  0  0  0
  161.8760  203.1300  152.3860 C   0  0  0  0  0  2  0  0  0  0  0  0
  159.9870  201.5020  147.2880 O   0  0  0  0  0  1  0  0  0  0  0  0
  161.6570  207.8370  151.1510 C   0  0  0  0  0  3  0  0  0  0  0  0
  161.1270  205.5530  151.7530 C   0  0  0  0  0  0  0  0  0  0  0  0
  161.6460  205.8240  148.0490 C   0  0  0  0  0  3  0  0  0  0  0  0
  160.8260  200.9530  149.4800 C   0  0  0  0  0  3  0  0  0  0  0  0
  161.7250  207.4840  149.8090 C   0  0  0  0  0  0  0  0  0  0  0  0
  162.0340  208.4650  148.8630 C   0  0  0  0  0  3  0  0  0  0  0  0
  160.6950  204.3470  153.0270 S   0  0  0  0  0  0  0  0  0  0  0  0
  161.4150  202.7220  151.0260 C   0  0  0  0  0  0  0  0  0  0  0  0
  161.2960  201.3610  150.7290 C   0  0  0  0  0  3  0  0  0  0  0  0
  161.1770  209.5860  153.3060 O   0  0  0  0  0  0  0  0  0  0  0  0
  161.2030  208.5760  154.0590 C   0  0  0  0  0  0  0  0  0  0  0  0
  161.2960  207.2520  153.5190 N   0  0  0  0  0  2  0  0  0  0  0  0
  159.3870  210.9010  156.3540 C   0  0  1  0  0  3  0  0  0  0  0  0
  159.7060  208.5590  156.0760 C   0  0  0  0  0  2  0  0  0  0  0  0
  162.9620  210.3280  155.4720 O   0  0  0  0  0  1  0  0  0  0  0  0
  158.4440  212.0580  156.1020 C   0  0  0  0  0  1  0  0  0  0  0  0
  158.8630  209.6980  155.7090 N   0  0  0  0  0  2  0  0  0  0  0  0
  161.7160  210.0740  156.0500 C   0  0  2  0  0  3  0  0  0  0  0  0
  161.1350  208.7420  155.5510 C   0  0  2  0  0  3  0  0  0  0  0  0
  160.7650  211.2380  155.7900 C   0  0  0  0  0  2  0  0  0  0  0  0
  1  6  2  0  0  0  0
  1 14  1  0  0  0  0
  2 13  2  0  0  0  0
  3  2  1  0  0  0  0
  3 19  1  0  0  0  0
  4  7  1  0  0  0  0
  4 15  2  0  0  0  0
  5 16  1  0  0  0  0
  5  2  1  0  0  0  0
  6 17  1  0  0  0  0
  7  3  2  0  0  0  0
  8 23  1  0  0  0  0
  9  1  1  0  0  0  0
 10 18  1  0  0  0  0
 11  4  1  0  0  0  0
 12  8  2  0  0  0  0
 13  8  1  0  0  0  0
 13 18  1  0  0  0  0
 14  5  2  0  0  0  0
 15 20  1  0  0  0  0
 16 12  1  0  0  0  0
 17 16  2  0  0  0  0
 19 10  1  0  0  0  0
 20 19  2  0  0  0  0
 21 22  2  0  0  0  0
 23 22  1  0  0  0  0
 24 27  1  6  0  0  0
 28 25  1  0  0  0  0
 28 24  1  0  0  0  0
 29 26  1  6  0  0  0
 30 22  1  6  0  0  0
 30 29  1  0  0  0  0
 30 25  1  0  0  0  0
 31 29  1  0  0  0  0
 31 24  1  0  0  0  0
M  END
>  <MODEL>
8

>  <REMARK>
 VINA RESULT:      -7.5      4.165      6.431
  Name = 
  2 active torsions:
  status: ('A' for Active; 'I' for Inactive)
    1  A    between atoms: C_5  and  C_30
    2  A    between atoms: C_10  and  N_16
                            x       y       z     vdW  Elec       q    Type
                         _______ _______ _______ _____ _____    ______ ____

>  <TORSDO>
F 2

$$$$
=
 OpenBabel11122413263D

 31 35  0  0  1  0  0  0  0  0999 V2000
  162.4060  207.7040  147.8910 C   0  0  0  0  0  0  0  0  0  0  0  0
  161.2150  207.3500  151.4320 C   0  0  0  0  0  0  0  0  0  0  0  0
  161.0850  205.8700  151.6420 C   0  0  0  0  0  0  0  0  0  0  0  0
  160.6160  203.6310  150.8010 C   0  0  0  0  0  0  0  0  0  0  0  0
  161.6670  207.9160  150.2060 C   0  0  0  0  0  0  0  0  0  0  0  0
  162.5820  209.0840  147.8090 C   0  0  0  0  0  3  0  0  0  0  0  0
  160.7380  205.0070  150.5900 C   0  0  0  0  0  3  0  0  0  0  0  0
  161.2140  209.5980  152.4280 C   0  0  0  0  0  0  0  0  0  0  0  0
  162.6710  206.9220  146.8170 F   0  0  0  0  0  0  0  0  0  0  0  0
  161.5810  206.2030  154.0930 C   0  0  0  0  0  2  0  0  0  0  0  0
  160.2820  202.7940  149.7460 O   0  0  0  0  0  1  0  0  0  0  0  0
  161.6460  210.1320  151.2130 C   0  0  0  0  0  3  0  0  0  0  0  0
  160.9820  208.2140  152.5340 C   0  0  0  0  0  0  0  0  0  0  0  0
  161.9560  207.1260  149.0800 C   0  0  0  0  0  3  0  0  0  0  0  0
  160.8310  203.0980  152.0730 C   0  0  0  0  0  3  0  0  0  0  0  0
  161.8670  209.3140  150.1110 C   0  0  0  0  0  0  0  0  0  0  0  0
  162.3160  209.8880  148.9180 C   0  0  0  0  0  3  0  0  0  0  0  0
  160.3650  207.5490  154.0960 S   0  0  0  0  0  0  0  0  0  0  0  0
  161.2780  205.3190  152.9300 C   0  0  0  0  0  0  0  0  0  0  0  0
  161.1580  203.9420  153.1360 C   0  0  0  0  0  3  0  0  0  0  0  0
  158.8410  211.2430  153.0370 O   0  0  0  0  0  0  0  0  0  0  0  0
  159.8160  211.2320  153.8350 C   0  0  0  0  0  0  0  0  0  0  0  0
  160.9830  210.4430  153.5670 N   0  0  0  0  0  2  0  0  0  0  0  0
  157.1930  211.9650  156.3930 C   0  0  1  0  0  3  0  0  0  0  0  0
  159.4410  211.1890  156.3180 C   0  0  0  0  0  2  0  0  0  0  0  0
  159.0130  213.9730  153.8360 O   0  0  0  0  0  1  0  0  0  0  0  0
  155.7440  211.5450  156.5230 C   0  0  0  0  0  1  0  0  0  0  0  0
  158.0370  210.7750  156.3010 N   0  0  0  0  0  2  0  0  0  0  0  0
  158.8200  213.2520  155.0160 C   0  0  2  0  0  3  0  0  0  0  0  0
  159.7750  212.0500  155.0940 C   0  0  2  0  0  3  0  0  0  0  0  0
  157.3610  212.8240  155.1430 C   0  0  0  0  0  2  0  0  0  0  0  0
  1 14  1  0  0  0  0
  2  3  1  0  0  0  0
  2 13  2  0  0  0  0
  3 19  1  0  0  0  0
  4 15  2  0  0  0  0
  5  2  1  0  0  0  0
  6  1  2  0  0  0  0
  6 17  1  0  0  0  0
  7  4  1  0  0  0  0
  7  3  2  0  0  0  0
  8 13  1  0  0  0  0
  8 23  1  0  0  0  0
  9  1  1  0  0  0  0
 10 18  1  0  0  0  0
 11  4  1  0  0  0  0
 12  8  2  0  0  0  0
 13 18  1  0  0  0  0
 14  5  2  0  0  0  0
 15 20  1  0  0  0  0
 16  5  1  0  0  0  0
 16 12  1  0  0  0  0
 17 16  2  0  0  0  0
 19 20  2  0  0  0  0
 19 10  1  0  0  0  0
 21 22  2  0  0  0  0
 23 22  1  0  0  0  0
 24 27  1  6  0  0  0
 28 25  1  0  0  0  0
 28 24  1  0  0  0  0
 29 26  1  6  0  0  0
 29 30  1  0  0  0  0
 29 31  1  0  0  0  0
 30 22  1  6  0  0  0
 30 25  1  0  0  0  0
 31 24  1  0  0  0  0
M  END
>  <MODEL>
9

>  <REMARK>
 VINA RESULT:      -7.3      3.536      5.909
  Name = 
  2 active torsions:
  status: ('A' for Active; 'I' for Inactive)
    1  A    between atoms: C_5  and  C_30
    2  A    between atoms: C_10  and  N_16
                            x       y       z     vdW  Elec       q    Type
                         _______ _______ _______ _____ _____    ______ ____

>  <TORSDO>
F 2

$$$$
