=
 OpenBabel11122413313D

 31 35  0  0  1  0  0  0  0  0999 V2000
  160.5800  207.5730  156.1390 C   0  0  0  0  0  0  0  0  0  0  0  0
  161.9910  208.8340  152.8350 C   0  0  2  0  0  3  0  0  0  0  0  0
  161.5320  207.8890  151.7370 C   0  0  0  0  0  0  0  0  0  0  0  0
  158.1220  212.3910  152.0850 O   0  0  0  0  0  0  0  0  0  0  0  0
  159.1090  212.7170  151.3710 C   0  0  0  0  0  0  0  0  0  0  0  0
  160.7210  205.7100  151.0220 C   0  0  0  0  0  0  0  0  0  0  0  0
  161.1470  208.7130  154.0770 C   0  0  0  0  0  0  0  0  0  0  0  0
  159.4660  208.4050  156.2930 C   0  0  0  0  0  3  0  0  0  0  0  0
  161.1220  206.5810  152.0390 C   0  0  0  0  0  3  0  0  0  0  0  0
  160.6460  210.9450  152.3810 C   0  0  0  0  0  0  0  0  0  0  0  0
  160.8490  206.5930  157.0840 O   0  0  0  0  0  1  0  0  0  0  0  0
  162.0300  209.5750  150.0480 O   0  0  0  0  0  0  0  0  0  0  0  0
  160.2950  204.3920  151.3440 N   0  0  0  0  0  1  0  0  0  0  0  0
  159.7820  210.6000  153.2940 N   0  0  0  0  0  0  0  0  0  0  0  0
  162.0240  210.3080  152.3630 C   0  0  2  0  0  3  0  0  0  0  0  0
  160.3570  212.0250  151.4810 N   0  0  0  0  0  2  0  0  0  0  0  0
  161.4170  207.7230  155.0290 C   0  0  0  0  0  3  0  0  0  0  0  0
  160.7360  206.1340  149.6930 C   0  0  0  0  0  3  0  0  0  0  0  0
  160.0350  209.5570  154.2410 C   0  0  0  0  0  0  0  0  0  0  0  0
  159.1940  209.3960  155.3460 C   0  0  0  0  0  3  0  0  0  0  0  0
  162.6960  210.4080  150.9940 C   0  0  0  0  0  2  0  0  0  0  0  0
  161.5810  208.2960  150.3870 C   0  0  0  0  0  0  0  0  0  0  0  0
  161.1670  207.4240  149.3760 C   0  0  0  0  0  3  0  0  0  0  0  0
  157.7970  212.9070  147.8850 C   0  0  0  0  0  0  0  0  0  0  0  0
  157.5320  214.1380  150.0320 C   0  0  0  0  0  2  0  0  0  0  0  0
  161.0640  213.7850  149.1980 O   0  0  0  0  0  0  0  0  0  0  0  0
  157.2790  212.5200  146.8070 O   0  0  0  0  0  0  0  0  0  0  0  0
  156.9400  213.0780  149.1020 C   0  0  0  0  0  2  0  0  0  0  0  0
  159.8200  213.5970  149.1620 C   0  0  0  0  0  0  0  0  0  0  0  0
  158.9920  213.8440  150.3920 C   0  0  2  0  0  3  0  0  0  0  0  0
  159.2070  213.1270  147.9580 N   0  0  0  0  0  2  0  0  0  0  0  0
  1  8  1  0  0  0  0
  1 11  1  0  0  0  0
  2  3  1  6  0  0  0
  2  7  1  0  0  0  0
  3  9  1  0  0  0  0
  5 16  1  0  0  0  0
  5  4  2  0  0  0  0
  6 13  1  0  0  0  0
  6  9  2  0  0  0  0
  7 19  2  0  0  0  0
  7 17  1  0  0  0  0
 10 14  2  0  0  0  0
 12 22  1  0  0  0  0
 12 21  1  0  0  0  0
 14 19  1  0  0  0  0
 15 21  1  6  0  0  0
 15 10  1  0  0  0  0
 15  2  1  0  0  0  0
 16 10  1  0  0  0  0
 17  1  2  0  0  0  0
 18  6  1  0  0  0  0
 19 20  1  0  0  0  0
 20  8  2  0  0  0  0
 22  3  2  0  0  0  0
 23 18  2  0  0  0  0
 23 22  1  0  0  0  0
 24 31  1  0  0  0  0
 24 28  1  0  0  0  0
 25 30  1  0  0  0  0
 27 24  2  0  0  0  0
 28 25  1  0  0  0  0
 29 26  2  0  0  0  0
 29 30  1  0  0  0  0
 30  5  1  1  0  0  0
 31 29  1  0  0  0  0
M  END
>  <MODEL>
1

>  <REMARK>
 VINA RESULT:      -7.0      0.000      0.000
  Name = 
  1 active torsions:
  status: ('A' for Active; 'I' for Inactive)
    1  A    between atoms: C_5  and  C_30
                            x       y       z     vdW  Elec       q    Type
                         _______ _______ _______ _____ _____    ______ ____

>  <TORSDO>
F 1

$$$$
=
 OpenBabel11122413313D

 31 35  0  0  1  0  0  0  0  0999 V2000
  162.0850  213.7900  147.0000 C   0  0  0  0  0  0  0  0  0  0  0  0
  159.8800  214.4500  150.0330 C   0  0  2  0  0  3  0  0  0  0  0  0
  158.4330  214.2480  149.6140 C   0  0  0  0  0  0  0  0  0  0  0  0
  160.5060  209.5770  152.0440 O   0  0  0  0  0  0  0  0  0  0  0  0
  160.1160  210.3440  152.9670 C   0  0  0  0  0  0  0  0  0  0  0  0
  156.7220  214.1520  147.8880 C   0  0  0  0  0  0  0  0  0  0  0  0
  160.8430  213.7900  149.0800 C   0  0  0  0  0  0  0  0  0  0  0  0
  162.5030  212.4790  147.2490 C   0  0  0  0  0  3  0  0  0  0  0  0
  158.0580  214.3180  148.2640 C   0  0  0  0  0  3  0  0  0  0  0  0
  160.3300  212.4520  151.5420 C   0  0  0  0  0  0  0  0  0  0  0  0
  162.4910  214.4390  145.8430 O   0  0  0  0  0  1  0  0  0  0  0  0
  157.7650  214.0310  151.9490 O   0  0  0  0  0  0  0  0  0  0  0  0
  156.3590  214.2120  146.5140 N   0  0  0  0  0  1  0  0  0  0  0  0
  160.8970  211.8220  150.5520 N   0  0  0  0  0  0  0  0  0  0  0  0
  160.1460  213.9580  151.4760 C   0  0  2  0  0  3  0  0  0  0  0  0
  160.0070  211.7550  152.7540 N   0  0  0  0  0  2  0  0  0  0  0  0
  161.2500  214.4440  147.9120 C   0  0  0  0  0  3  0  0  0  0  0  0
  155.7460  213.9260  148.8590 C   0  0  0  0  0  3  0  0  0  0  0  0
  161.2750  212.4780  149.3360 C   0  0  0  0  0  0  0  0  0  0  0  0
  162.1000  211.8230  148.4160 C   0  0  0  0  0  3  0  0  0  0  0  0
  159.0450  214.4530  152.4140 C   0  0  0  0  0  2  0  0  0  0  0  0
  157.4340  214.0580  150.5920 C   0  0  0  0  0  0  0  0  0  0  0  0
  156.1010  213.8800  150.2090 C   0  0  0  0  0  3  0  0  0  0  0  0
  161.9400  210.2330  156.2180 C   0  0  0  0  0  0  0  0  0  0  0  0
  159.6880  210.8820  155.3810 C   0  0  0  0  0  2  0  0  0  0  0  0
  160.5570  207.5320  154.2280 O   0  0  0  0  0  0  0  0  0  0  0  0
  162.8650  210.4240  157.0480 O   0  0  0  0  0  0  0  0  0  0  0  0
  161.0740  211.3790  155.7950 C   0  0  0  0  0  2  0  0  0  0  0  0
  160.6960  208.6840  154.7190 C   0  0  0  0  0  0  0  0  0  0  0  0
  159.7610  209.7870  154.3110 C   0  0  2  0  0  3  0  0  0  0  0  0
  161.7580  208.9380  155.6420 N   0  0  0  0  0  2  0  0  0  0  0  0
  1  8  2  0  0  0  0
  1 17  1  0  0  0  0
  2  7  1  6  0  0  0
  2 15  1  0  0  0  0
  3  2  1  0  0  0  0
  3 22  1  0  0  0  0
  4  5  2  0  0  0  0
  6  9  1  0  0  0  0
  6 18  2  0  0  0  0
  7 19  1  0  0  0  0
  8 20  1  0  0  0  0
  9  3  2  0  0  0  0
 10 16  1  0  0  0  0
 11  1  1  0  0  0  0
 12 21  1  0  0  0  0
 13  6  1  0  0  0  0
 14 10  2  0  0  0  0
 15 10  1  0  0  0  0
 15 21  1  1  0  0  0
 16  5  1  0  0  0  0
 17  7  2  0  0  0  0
 18 23  1  0  0  0  0
 19 14  1  0  0  0  0
 20 19  2  0  0  0  0
 22 12  1  0  0  0  0
 23 22  2  0  0  0  0
 24 27  2  0  0  0  0
 25 28  1  0  0  0  0
 26 29  2  0  0  0  0
 28 24  1  0  0  0  0
 29 31  1  0  0  0  0
 30  5  1  6  0  0  0
 30 29  1  0  0  0  0
 30 25  1  0  0  0  0
 31 24  1  0  0  0  0
M  END
>  <MODEL>
2

>  <REMARK>
 VINA RESULT:      -5.4      2.908      8.017
  Name = 
  1 active torsions:
  status: ('A' for Active; 'I' for Inactive)
    1  A    between atoms: C_5  and  C_30
                            x       y       z     vdW  Elec       q    Type
                         _______ _______ _______ _____ _____    ______ ____

>  <TORSDO>
F 1

$$$$
=
 OpenBabel11122413313D

 31 35  0  0  1  0  0  0  0  0999 V2000
  161.6350  206.1950  152.6510 C   0  0  0  0  0  0  0  0  0  0  0  0
  159.8970  209.4910  153.4290 C   0  0  2  0  0  3  0  0  0  0  0  0
  160.6730  210.1800  154.5400 C   0  0  0  0  0  0  0  0  0  0  0  0
  162.2470  212.1250  149.4650 O   0  0  0  0  0  0  0  0  0  0  0  0
  161.2150  212.7620  149.8110 C   0  0  0  0  0  0  0  0  0  0  0  0
  162.2140  210.0850  156.4190 C   0  0  0  0  0  0  0  0  0  0  0  0
  160.7170  208.4360  152.7350 C   0  0  0  0  0  0  0  0  0  0  0  0
  162.3770  206.5410  151.5160 C   0  0  0  0  0  3  0  0  0  0  0  0
  161.5200  209.4490  155.3870 C   0  0  0  0  0  3  0  0  0  0  0  0
  160.4030  210.9280  151.3920 C   0  0  0  0  0  0  0  0  0  0  0  0
  161.7250  204.9130  153.1720 O   0  0  0  0  0  1  0  0  0  0  0  0
  159.6200  212.3090  153.9840 O   0  0  0  0  0  0  0  0  0  0  0  0
  163.0800  209.3340  157.2610 N   0  0  0  0  0  1  0  0  0  0  0  0
  161.3250  210.0860  151.0180 N   0  0  0  0  0  0  0  0  0  0  0  0
  159.3440  210.4970  152.3910 C   0  0  2  0  0  3  0  0  0  0  0  0
  160.2950  212.2120  150.7610 N   0  0  0  0  0  2  0  0  0  0  0  0
  160.8100  207.1430  153.2630 C   0  0  0  0  0  3  0  0  0  0  0  0
  162.0600  211.4580  156.6220 C   0  0  0  0  0  3  0  0  0  0  0  0
  161.4520  208.7780  151.5880 C   0  0  0  0  0  0  0  0  0  0  0  0
  162.2860  207.8310  150.9850 C   0  0  0  0  0  3  0  0  0  0  0  0
  158.6920  211.6840  153.1000 C   0  0  0  0  0  2  0  0  0  0  0  0
  160.4930  211.5600  154.7770 C   0  0  0  0  0  0  0  0  0  0  0  0
  161.2010  212.1930  155.8040 C   0  0  0  0  0  3  0  0  0  0  0  0
  159.2220  213.8730  146.8610 C   0  0  0  0  0  0  0  0  0  0  0  0
  159.4350  214.4480  149.2720 C   0  0  0  0  0  2  0  0  0  0  0  0
  162.7120  214.4530  147.6700 O   0  0  0  0  0  0  0  0  0  0  0  0
  158.4840  213.7840  145.8460 O   0  0  0  0  0  0  0  0  0  0  0  0
  158.6380  213.6710  148.2240 C   0  0  0  0  0  2  0  0  0  0  0  0
  161.4820  214.2430  147.8380 C   0  0  0  0  0  0  0  0  0  0  0  0
  160.9300  214.1120  149.2300 C   0  0  2  0  0  3  0  0  0  0  0  0
  160.6230  214.1080  146.7030 N   0  0  0  0  0  2  0  0  0  0  0  0
  1 11  1  0  0  0  0
  1 17  1  0  0  0  0
  2  7  1  6  0  0  0
  2  3  1  0  0  0  0
  3 22  2  0  0  0  0
  3  9  1  0  0  0  0
  4  5  2  0  0  0  0
  5 16  1  0  0  0  0
  6 18  1  0  0  0  0
  6 13  1  0  0  0  0
  7 17  2  0  0  0  0
  8  1  2  0  0  0  0
  9  6  2  0  0  0  0
 10 15  1  0  0  0  0
 12 22  1  0  0  0  0
 14 10  2  0  0  0  0
 14 19  1  0  0  0  0
 15 21  1  1  0  0  0
 15  2  1  0  0  0  0
 16 10  1  0  0  0  0
 19  7  1  0  0  0  0
 20  8  1  0  0  0  0
 20 19  2  0  0  0  0
 21 12  1  0  0  0  0
 22 23  1  0  0  0  0
 23 18  2  0  0  0  0
 24 28  1  0  0  0  0
 26 29  2  0  0  0  0
 27 24  2  0  0  0  0
 28 25  1  0  0  0  0
 29 30  1  0  0  0  0
 30 25  1  0  0  0  0
 30  5  1  6  0  0  0
 31 24  1  0  0  0  0
 31 29  1  0  0  0  0
M  END
>  <MODEL>
3

>  <REMARK>
 VINA RESULT:      -4.2      2.204      4.325
  Name = 
  1 active torsions:
  status: ('A' for Active; 'I' for Inactive)
    1  A    between atoms: C_5  and  C_30
                            x       y       z     vdW  Elec       q    Type
                         _______ _______ _______ _____ _____    ______ ____

>  <TORSDO>
F 1

$$$$
