=
 OpenBabel11122414063D

 28 32  0  0  1  0  0  0  0  0999 V2000
  161.7260  212.8720  142.7820 C   0  0  0  0  0  0  0  0  0  0  0  0
  157.4070  213.7170  140.7340 C   0  0  0  0  0  1  0  0  0  0  0  0
  162.7070  210.3440  137.0110 O   0  0  0  0  0  0  0  0  0  0  0  0
  159.3740  213.0530  144.2940 C   0  0  0  0  0  3  0  0  0  0  0  0
  161.1330  209.5200  138.5540 N   0  0  0  0  0  0  0  0  0  0  0  0
  163.0400  212.7400  142.0890 C   0  0  0  0  0  2  0  0  0  0  0  0
  158.3560  213.4910  138.4830 C   0  0  0  0  0  1  0  0  0  0  0  0
  157.8560  212.7080  139.6970 C   0  0  0  0  0  0  0  0  0  0  0  0
  157.1070  210.8030  138.5260 C   0  0  2  0  0  3  0  0  0  0  0  0
  158.9470  211.8020  140.2910 C   0  0  1  0  0  3  0  0  0  0  0  0
  163.7480  214.4530  138.9530 O   0  0  0  0  0  0  0  0  0  0  0  0
  161.2990  211.2410  140.1800 C   0  0  1  0  0  3  0  0  0  0  0  0
  158.0280  209.9490  139.1770 O   0  0  0  0  0  0  0  0  0  0  0  0
  156.7270  211.9050  139.3500 O   0  0  0  0  0  0  0  0  0  0  0  0
  163.5230  213.5130  139.7590 C   0  0  0  0  0  0  0  0  0  0  0  0
  160.4750  212.6280  142.1480 C   0  0  0  0  0  0  0  0  0  0  0  0
  162.0550  210.4810  138.0800 C   0  0  0  0  0  0  0  0  0  0  0  0
  155.9240  210.0470  138.1550 N   0  0  0  0  0  1  0  0  0  0  0  0
  163.5120  212.1020  139.2640 C   0  0  0  0  0  2  0  0  0  0  0  0
  159.3130  212.7340  142.9380 C   0  0  0  0  0  3  0  0  0  0  0  0
  161.7740  213.1910  144.1440 C   0  0  0  0  0  3  0  0  0  0  0  0
  160.6060  213.2840  144.8970 C   0  0  0  0  0  3  0  0  0  0  0  0
  163.2240  213.8090  141.1220 N   0  0  0  0  0  2  0  0  0  0  0  0
  160.4420  210.0410  139.7180 C   0  0  1  0  0  3  0  0  0  0  0  0
  162.0870  211.6920  138.9300 C   0  0  2  0  0  3  0  0  0  0  0  0
  159.1770  210.7320  139.2800 C   0  0  2  0  0  3  0  0  0  0  0  0
  160.7210  208.3350  137.8190 C   0  0  0  0  0  1  0  0  0  0  0  0
  160.3360  212.3530  140.6460 C   0  0  2  0  0  3  0  0  0  0  0  0
  1 21  1  0  0  0  0
  3 17  2  0  0  0  0
  4 22  1  0  0  0  0
  5 24  1  0  0  0  0
  6  1  1  0  0  0  0
  7  8  1  0  0  0  0
  8  2  1  0  0  0  0
  9 18  1  1  0  0  0
  9 13  1  0  0  0  0
  9 14  1  0  0  0  0
 10  8  1  6  0  0  0
 10 28  1  0  0  0  0
 11 15  2  0  0  0  0
 12 28  1  0  0  0  0
 13 26  1  0  0  0  0
 14  8  1  0  0  0  0
 15 23  1  0  0  0  0
 16  1  2  0  0  0  0
 16 20  1  0  0  0  0
 17  5  1  0  0  0  0
 17 25  1  0  0  0  0
 19 15  1  0  0  0  0
 20  4  2  0  0  0  0
 21 22  2  0  0  0  0
 23  6  1  0  0  0  0
 24 12  1  0  0  0  0
 25 19  1  0  0  0  0
 25 12  1  0  0  0  0
 26 24  1  0  0  0  0
 26 10  1  0  0  0  0
 27  5  1  0  0  0  0
 28 16  1  0  0  0  0
M  END
>  <MODEL>
1

>  <REMARK>
 VINA RESULT:      -5.1      0.000      0.000
  Name = 
  0 active torsions:
  status: ('A' for Active; 'I' for Inactive)
                            x       y       z     vdW  Elec       q    Type
                         _______ _______ _______ _____ _____    ______ ____

>  <TORSDO>
F 0

$$$$
=
 OpenBabel11122414063D

 28 32  0  0  1  0  0  0  0  0999 V2000
  161.7410  210.5260  150.4840 C   0  0  0  0  0  0  0  0  0  0  0  0
  157.7940  212.6570  152.3400 C   0  0  0  0  0  1  0  0  0  0  0  0
  161.6950  207.9290  156.3080 O   0  0  0  0  0  0  0  0  0  0  0  0
  160.8740  213.0510  149.6310 C   0  0  0  0  0  3  0  0  0  0  0  0
  161.9980  210.2270  155.8990 N   0  0  0  0  0  0  0  0  0  0  0  0
  162.3090  209.2010  150.8630 C   0  0  0  0  0  2  0  0  0  0  0  0
  157.5720  210.9090  154.0470 C   0  0  0  0  0  1  0  0  0  0  0  0
  158.3320  212.1810  153.6730 C   0  0  0  0  0  0  0  0  0  0  0  0
  158.7480  212.9280  155.8710 C   0  0  2  0  0  3  0  0  0  0  0  0
  159.8470  211.9390  153.5650 C   0  0  1  0  0  3  0  0  0  0  0  0
  160.2220  206.4950  152.1230 O   0  0  0  0  0  0  0  0  0  0  0  0
  161.5600  210.2290  153.5660 C   0  0  1  0  0  3  0  0  0  0  0  0
  160.1520  212.8290  155.7180 O   0  0  0  0  0  0  0  0  0  0  0  0
  158.0960  213.2120  154.6330 O   0  0  0  0  0  0  0  0  0  0  0  0
  161.0840  207.4110  152.1110 C   0  0  0  0  0  0  0  0  0  0  0  0
  160.9230  211.3070  151.3500 C   0  0  0  0  0  0  0  0  0  0  0  0
  161.6630  208.9080  155.5150 C   0  0  0  0  0  0  0  0  0  0  0  0
  158.4390  213.9730  156.8310 N   0  0  0  0  0  1  0  0  0  0  0  0
  161.8620  207.7120  153.3520 C   0  0  0  0  0  2  0  0  0  0  0  0
  160.5010  212.5680  150.8850 C   0  0  0  0  0  3  0  0  0  0  0  0
  162.1080  211.0220  149.2290 C   0  0  0  0  0  3  0  0  0  0  0  0
  161.6770  212.2750  148.8000 C   0  0  0  0  0  3  0  0  0  0  0  0
  161.2670  208.1910  150.9300 N   0  0  0  0  0  2  0  0  0  0  0  0
  161.7130  211.1380  154.8070 C   0  0  1  0  0  3  0  0  0  0  0  0
  161.1840  208.8360  154.1170 C   0  0  2  0  0  3  0  0  0  0  0  0
  160.3130  211.6730  154.9560 C   0  0  2  0  0  3  0  0  0  0  0  0
  162.2850  210.6450  157.2610 C   0  0  0  0  0  1  0  0  0  0  0  0
  160.4140  210.8010  152.7050 C   0  0  2  0  0  3  0  0  0  0  0  0
  1  6  1  0  0  0  0
  1 16  1  0  0  0  0
  2  8  1  0  0  0  0
  4 20  1  0  0  0  0
  5 27  1  0  0  0  0
  6 23  1  0  0  0  0
  8  7  1  0  0  0  0
  8 14  1  0  0  0  0
  9 18  1  1  0  0  0
 10  8  1  1  0  0  0
 10 26  1  0  0  0  0
 12 25  1  0  0  0  0
 12 24  1  0  0  0  0
 13  9  1  0  0  0  0
 14  9  1  0  0  0  0
 15 11  2  0  0  0  0
 15 19  1  0  0  0  0
 16 28  1  0  0  0  0
 17  5  1  0  0  0  0
 17  3  2  0  0  0  0
 19 25  1  0  0  0  0
 20 16  2  0  0  0  0
 21  1  2  0  0  0  0
 22 21  1  0  0  0  0
 22  4  2  0  0  0  0
 23 15  1  0  0  0  0
 24 26  1  0  0  0  0
 24  5  1  0  0  0  0
 25 17  1  0  0  0  0
 26 13  1  0  0  0  0
 28 10  1  0  0  0  0
 28 12  1  0  0  0  0
M  END
>  <MODEL>
2

>  <REMARK>
 VINA RESULT:      -4.4     10.839     14.094
  Name = 
  0 active torsions:
  status: ('A' for Active; 'I' for Inactive)
                            x       y       z     vdW  Elec       q    Type
                         _______ _______ _______ _____ _____    ______ ____

>  <TORSDO>
F 0

$$$$
=
 OpenBabel11122414063D

 28 32  0  0  1  0  0  0  0  0999 V2000
  159.3130  209.5970  137.9790 C   0  0  0  0  0  0  0  0  0  0  0  0
  163.2010  212.5020  137.9380 C   0  0  0  0  0  1  0  0  0  0  0  0
  157.1410  214.4290  141.5280 O   0  0  0  0  0  0  0  0  0  0  0  0
  161.9160  208.5950  137.6990 C   0  0  0  0  0  3  0  0  0  0  0  0
  158.9390  213.0450  142.1550 N   0  0  0  0  0  0  0  0  0  0  0  0
  157.8880  210.0040  138.1360 C   0  0  0  0  0  2  0  0  0  0  0  0
  161.8340  214.4510  138.5320 C   0  0  0  0  0  1  0  0  0  0  0  0
  162.5180  213.2040  139.0940 C   0  0  0  0  0  0  0  0  0  0  0  0
  162.9420  214.0530  141.2520 C   0  0  2  0  0  3  0  0  0  0  0  0
  161.5180  212.2480  139.7640 C   0  0  1  0  0  3  0  0  0  0  0  0
  156.6800  213.2610  137.0370 O   0  0  0  0  0  0  0  0  0  0  0  0
  159.1640  211.8220  140.1320 C   0  0  1  0  0  3  0  0  0  0  0  0
  162.1220  213.0820  141.8750 O   0  0  0  0  0  0  0  0  0  0  0  0
  163.5220  213.5630  140.0430 O   0  0  0  0  0  0  0  0  0  0  0  0
  157.0090  212.3240  137.8110 C   0  0  0  0  0  0  0  0  0  0  0  0
  160.4090  210.3730  138.4520 C   0  0  0  0  0  0  0  0  0  0  0  0
  157.9900  213.5450  141.2330 C   0  0  0  0  0  0  0  0  0  0  0  0
  163.9960  214.4530  142.1670 N   0  0  0  0  0  1  0  0  0  0  0  0
  156.8610  212.5000  139.2880 C   0  0  0  0  0  2  0  0  0  0  0  0
  161.7030  209.8400  138.2890 C   0  0  0  0  0  3  0  0  0  0  0  0
  159.5400  208.3480  137.3890 C   0  0  0  0  0  3  0  0  0  0  0  0
  160.8310  207.8480  137.2460 C   0  0  0  0  0  3  0  0  0  0  0  0
  157.5740  211.1300  137.2730 N   0  0  0  0  0  2  0  0  0  0  0  0
  159.8610  212.1590  141.4700 C   0  0  1  0  0  3  0  0  0  0  0  0
  158.1760  212.9830  139.8780 C   0  0  2  0  0  3  0  0  0  0  0  0
  161.0510  212.9500  140.9930 C   0  0  2  0  0  3  0  0  0  0  0  0
  159.1480  213.5700  143.4940 C   0  0  0  0  0  1  0  0  0  0  0  0
  160.2490  211.7810  139.0360 C   0  0  2  0  0  3  0  0  0  0  0  0
  1  6  1  0  0  0  0
  1 16  1  0  0  0  0
  2  8  1  0  0  0  0
  4 20  1  0  0  0  0
  5 27  1  0  0  0  0
  7  8  1  0  0  0  0
  8 14  1  0  0  0  0
  9 13  1  0  0  0  0
  9 18  1  1  0  0  0
 10  8  1  6  0  0  0
 10 26  1  0  0  0  0
 11 15  2  0  0  0  0
 12 24  1  0  0  0  0
 14  9  1  0  0  0  0
 15 19  1  0  0  0  0
 16 28  1  0  0  0  0
 17  3  2  0  0  0  0
 17  5  1  0  0  0  0
 19 25  1  0  0  0  0
 20 16  2  0  0  0  0
 21  1  2  0  0  0  0
 22 21  1  0  0  0  0
 22  4  2  0  0  0  0
 23 15  1  0  0  0  0
 23  6  1  0  0  0  0
 24  5  1  0  0  0  0
 25 12  1  0  0  0  0
 25 17  1  0  0  0  0
 26 24  1  0  0  0  0
 26 13  1  0  0  0  0
 28 10  1  0  0  0  0
 28 12  1  0  0  0  0
M  END
>  <MODEL>
3

>  <REMARK>
 VINA RESULT:      -4.4      1.961      6.379
  Name = 
  0 active torsions:
  status: ('A' for Active; 'I' for Inactive)
                            x       y       z     vdW  Elec       q    Type
                         _______ _______ _______ _____ _____    ______ ____

>  <TORSDO>
F 0

$$$$
=
 OpenBabel11122414063D

 28 32  0  0  1  0  0  0  0  0999 V2000
  158.6550  212.4560  154.3990 C   0  0  0  0  0  0  0  0  0  0  0  0
  161.5600  211.6510  150.5950 C   0  0  0  0  0  1  0  0  0  0  0  0
  162.0710  207.5490  156.6140 O   0  0  0  0  0  0  0  0  0  0  0  0
  157.8780  213.0740  151.7780 C   0  0  0  0  0  3  0  0  0  0  0  0
  160.6230  207.4100  154.7640 N   0  0  0  0  0  0  0  0  0  0  0  0
  158.9450  212.1590  155.8300 C   0  0  0  0  0  2  0  0  0  0  0  0
  163.1810  210.4600  152.0000 C   0  0  0  0  0  1  0  0  0  0  0  0
  161.8460  210.3250  151.2680 C   0  0  0  0  0  0  0  0  0  0  0  0
  161.9960  208.0160  150.8140 C   0  0  2  0  0  3  0  0  0  0  0  0
  160.6950  209.9700  152.2240 C   0  0  1  0  0  3  0  0  0  0  0  0
  162.3380  212.1720  157.1550 O   0  0  0  0  0  0  0  0  0  0  0  0
  160.0960  209.7160  154.5560 C   0  0  1  0  0  3  0  0  0  0  0  0
  160.8530  207.7130  151.5910 O   0  0  0  0  0  0  0  0  0  0  0  0
  161.9260  209.3260  150.2510 O   0  0  0  0  0  0  0  0  0  0  0  0
  161.2200  211.7330  156.7810 C   0  0  0  0  0  0  0  0  0  0  0  0
  159.2830  211.7820  153.3130 C   0  0  0  0  0  0  0  0  0  0  0  0
  161.3510  208.1160  155.7490 C   0  0  0  0  0  0  0  0  0  0  0  0
  162.1290  207.0380  149.7480 N   0  0  0  0  0  1  0  0  0  0  0  0
  160.9230  210.2720  156.8970 C   0  0  0  0  0  2  0  0  0  0  0  0
  158.8710  212.1220  152.0090 C   0  0  0  0  0  3  0  0  0  0  0  0
  157.6590  213.4080  154.1530 C   0  0  0  0  0  3  0  0  0  0  0  0
  157.2730  213.7190  152.8520 C   0  0  0  0  0  3  0  0  0  0  0  0
  160.2710  212.6250  156.1970 N   0  0  0  0  0  2  0  0  0  0  0  0
  160.0250  208.3500  153.8350 C   0  0  1  0  0  3  0  0  0  0  0  0
  161.2440  209.5820  155.5810 C   0  0  2  0  0  3  0  0  0  0  0  0
  160.9650  208.5760  152.6790 C   0  0  2  0  0  3  0  0  0  0  0  0
  160.7130  205.9780  154.5360 C   0  0  0  0  0  1  0  0  0  0  0  0
  160.4340  210.7870  153.4980 C   0  0  2  0  0  3  0  0  0  0  0  0
  1  6  1  0  0  0  0
  2  8  1  0  0  0  0
  4 20  2  0  0  0  0
  4 22  1  0  0  0  0
  5 17  1  0  0  0  0
  6 23  1  0  0  0  0
  8  7  1  0  0  0  0
  9 18  1  6  0  0  0
  9 13  1  0  0  0  0
 10  8  1  1  0  0  0
 10 26  1  0  0  0  0
 10 28  1  0  0  0  0
 12 25  1  0  0  0  0
 13 26  1  0  0  0  0
 14  9  1  0  0  0  0
 14  8  1  0  0  0  0
 15 19  1  0  0  0  0
 15 11  2  0  0  0  0
 16 28  1  0  0  0  0
 16  1  2  0  0  0  0
 17  3  2  0  0  0  0
 20 16  1  0  0  0  0
 21  1  1  0  0  0  0
 22 21  2  0  0  0  0
 23 15  1  0  0  0  0
 24 12  1  0  0  0  0
 24  5  1  0  0  0  0
 25 17  1  0  0  0  0
 25 19  1  0  0  0  0
 26 24  1  0  0  0  0
 27  5  1  0  0  0  0
 28 12  1  0  0  0  0
M  END
>  <MODEL>
4

>  <REMARK>
 VINA RESULT:      -3.4     11.190     14.194
  Name = 
  0 active torsions:
  status: ('A' for Active; 'I' for Inactive)
                            x       y       z     vdW  Elec       q    Type
                         _______ _______ _______ _____ _____    ______ ____

>  <TORSDO>
F 0

$$$$
=
 OpenBabel11122414063D

 28 32  0  0  1  0  0  0  0  0999 V2000
  160.7190  211.7940  155.8660 C   0  0  0  0  0  0  0  0  0  0  0  0
  161.9750  207.9200  153.2260 C   0  0  0  0  0  1  0  0  0  0  0  0
  157.4540  212.9740  150.5180 O   0  0  0  0  0  0  0  0  0  0  0  0
  163.1650  210.4770  156.2300 C   0  0  0  0  0  3  0  0  0  0  0  0
  159.8030  212.8990  150.6310 N   0  0  0  0  0  0  0  0  0  0  0  0
  159.4610  212.5870  155.7580 C   0  0  0  0  0  2  0  0  0  0  0  0
  160.0190  208.1940  151.7720 C   0  0  0  0  0  1  0  0  0  0  0  0
  161.4290  208.7110  152.0560 C   0  0  0  0  0  0  0  0  0  0  0  0
  161.9560  209.3480  149.8480 C   0  0  2  0  0  3  0  0  0  0  0  0
  161.4370  210.2110  152.3950 C   0  0  1  0  0  3  0  0  0  0  0  0
  156.3320  211.0960  154.6360 O   0  0  0  0  0  0  0  0  0  0  0  0
  160.0240  212.1200  152.8620 C   0  0  1  0  0  3  0  0  0  0  0  0
  162.0930  210.7130  150.1950 O   0  0  0  0  0  0  0  0  0  0  0  0
  162.2860  208.4850  150.9370 O   0  0  0  0  0  0  0  0  0  0  0  0
  157.3650  211.8150  154.6300 C   0  0  0  0  0  0  0  0  0  0  0  0
  161.2530  211.0180  154.7990 C   0  0  0  0  0  0  0  0  0  0  0  0
  158.5050  212.6910  151.1520 C   0  0  0  0  0  0  0  0  0  0  0  0
  162.8160  209.0480  148.7170 N   0  0  0  0  0  1  0  0  0  0  0  0
  157.6270  212.7220  153.4710 C   0  0  0  0  0  2  0  0  0  0  0  0
  162.4820  210.3650  155.0200 C   0  0  0  0  0  3  0  0  0  0  0  0
  161.4150  211.8990  157.0760 C   0  0  0  0  0  3  0  0  0  0  0  0
  162.6300  211.2440  157.2610 C   0  0  0  0  0  3  0  0  0  0  0  0
  158.3020  211.7120  155.7010 N   0  0  0  0  0  2  0  0  0  0  0  0
  160.7860  212.3330  151.5350 C   0  0  1  0  0  3  0  0  0  0  0  0
  158.5320  212.0220  152.4710 C   0  0  2  0  0  3  0  0  0  0  0  0
  161.0780  210.9120  151.1290 C   0  0  2  0  0  3  0  0  0  0  0  0
  160.0910  213.3280  149.2720 C   0  0  0  0  0  1  0  0  0  0  0  0
  160.5130  210.7910  153.4760 C   0  0  2  0  0  3  0  0  0  0  0  0
  1 21  1  0  0  0  0
  3 17  2  0  0  0  0
  4 22  1  0  0  0  0
  5 17  1  0  0  0  0
  5 24  1  0  0  0  0
  6  1  1  0  0  0  0
  7  8  1  0  0  0  0
  8  2  1  0  0  0  0
  9 18  1  6  0  0  0
  9 13  1  0  0  0  0
  9 14  1  0  0  0  0
 10  8  1  6  0  0  0
 10 28  1  0  0  0  0
 12 28  1  0  0  0  0
 13 26  1  0  0  0  0
 14  8  1  0  0  0  0
 15 11  2  0  0  0  0
 15 23  1  0  0  0  0
 16 20  1  0  0  0  0
 16  1  2  0  0  0  0
 17 25  1  0  0  0  0
 19 15  1  0  0  0  0
 20  4  2  0  0  0  0
 21 22  2  0  0  0  0
 23  6  1  0  0  0  0
 24 12  1  0  0  0  0
 25 12  1  0  0  0  0
 25 19  1  0  0  0  0
 26 24  1  0  0  0  0
 26 10  1  0  0  0  0
 27  5  1  0  0  0  0
 28 16  1  0  0  0  0
M  END
>  <MODEL>
5

>  <REMARK>
 VINA RESULT:      -2.3     10.183     13.580
  Name = 
  0 active torsions:
  status: ('A' for Active; 'I' for Inactive)
                            x       y       z     vdW  Elec       q    Type
                         _______ _______ _______ _____ _____    ______ ____

>  <TORSDO>
F 0

$$$$
