=
 OpenBabel11122414073D

 28 32  0  0  1  0  0  0  0  0999 V2000
  161.2300  208.1150  155.1920 C   0  0  0  0  0  0  0  0  0  0  0  0
  157.9300  210.7060  152.6370 O   0  0  0  0  0  0  0  0  0  0  0  0
  162.0700  207.3170  148.8000 C   0  0  0  0  0  1  0  0  0  0  0  0
  161.9620  210.5640  156.3960 C   0  0  0  0  0  3  0  0  0  0  0  0
  162.2770  209.4990  149.6120 C   0  0  2  0  0  3  0  0  0  0  0  0
  161.3820  206.8840  154.7940 N   0  0  0  0  0  0  0  0  0  0  0  0
  159.2630  211.8860  154.3520 O   0  0  0  0  0  0  0  0  0  0  0  0
  159.1660  211.5200  152.8990 S   0  0  0  0  0  0  0  0  0  0  0  0
  160.1490  213.1900  150.9430 C   0  0  0  0  0  0  0  0  0  0  0  0
  160.5800  210.6520  152.3730 C   0  0  0  0  0  0  0  0  0  0  0  0
  161.3340  204.7340  151.8410 C   0  0  0  0  0  1  0  0  0  0  0  0
  162.1470  208.9160  151.9040 C   0  0  2  0  0  3  0  0  0  0  0  0
  161.1040  212.3360  150.7000 N   0  0  0  0  0  0  0  0  0  0  0  0
  159.1430  212.9510  151.9370 N   0  0  0  0  0  2  0  0  0  0  0  0
  160.8660  205.9940  152.5390 C   0  0  2  0  0  3  0  0  0  0  0  0
  161.4770  209.3110  154.3300 C   0  0  0  0  0  0  0  0  0  0  0  0
  161.5080  208.2710  149.7460 N   0  0  0  0  0  0  0  0  0  0  0  0
  160.0930  214.4500  150.1580 C   0  0  0  0  0  1  0  0  0  0  0  0
  160.5590  207.0670  151.4920 C   0  0  0  0  0  2  0  0  0  0  0  0
  161.8700  210.4470  154.9280 C   0  0  0  0  0  3  0  0  0  0  0  0
  161.0820  208.3410  156.5980 N   0  0  0  0  0  2  0  0  0  0  0  0
  161.5450  209.5660  157.1790 C   0  0  0  0  0  3  0  0  0  0  0  0
  161.9390  206.4440  153.5210 C   0  0  0  0  0  2  0  0  0  0  0  0
  162.3960  210.1150  150.9960 C   0  0  2  0  0  3  0  0  0  0  0  0
  161.7720  207.7690  151.0370 N   0  0  2  0  0  0  0  0  0  0  0  0
  161.3040  211.0720  151.3600 C   0  0  0  0  0  0  0  0  0  0  0  0
  161.6850  210.4080  148.5400 C   0  0  0  0  0  1  0  0  0  0  0  0
  161.0320  209.3310  152.8830 C   0  0  1  0  0  3  0  0  0  0  0  0
  1 21  1  0  0  0  0
  2  8  2  0  0  0  0
  3 17  1  0  0  0  0
  4 22  2  0  0  0  0
  5 27  1  6  0  0  0
  5 17  1  0  0  0  0
  5 24  1  0  0  0  0
  6  1  2  0  0  0  0
  8  7  2  0  0  0  0
  9 14  1  0  0  0  0
 10 28  1  0  0  0  0
 10  8  1  0  0  0  0
 11 15  1  0  0  0  0
 12 28  1  0  0  0  0
 13  9  2  0  0  0  0
 13 26  1  0  0  0  0
 14  8  1  0  0  0  0
 15 23  1  0  0  0  0
 16 20  2  0  0  0  0
 16  1  1  0  0  0  0
 17 25  1  0  0  0  0
 18  9  1  0  0  0  0
 19 15  1  0  0  0  0
 20  4  1  0  0  0  0
 21 22  1  0  0  0  0
 23  6  1  0  0  0  0
 24 26  1  0  0  0  0
 24 12  1  0  0  0  0
 25 19  1  0  0  0  0
 25 12  1  0  0  0  0
 26 10  2  0  0  0  0
 28 16  1  0  0  0  0
M  END
>  <MODEL>
1

>  <REMARK>
 VINA RESULT:      -5.1      0.000      0.000
  Name = 
  0 active torsions:
  status: ('A' for Active; 'I' for Inactive)
                            x       y       z     vdW  Elec       q    Type
                         _______ _______ _______ _____ _____    ______ ____

>  <TORSDO>
F 0

$$$$
=
 OpenBabel11122414073D

 28 32  0  0  1  0  0  0  0  0999 V2000
  161.4600  206.5270  152.7500 C   0  0  0  0  0  0  0  0  0  0  0  0
  163.6290  210.6970  151.3220 O   0  0  0  0  0  0  0  0  0  0  0  0
  159.4610  211.5540  156.3460 C   0  0  0  0  0  1  0  0  0  0  0  0
  160.5660  206.2830  150.0810 C   0  0  0  0  0  3  0  0  0  0  0  0
  159.0380  211.6830  154.0510 C   0  0  2  0  0  3  0  0  0  0  0  0
  161.4540  206.3300  154.0380 N   0  0  0  0  0  0  0  0  0  0  0  0
  162.4930  209.3270  149.6060 O   0  0  0  0  0  0  0  0  0  0  0  0
  162.3490  210.4720  150.5680 S   0  0  0  0  0  0  0  0  0  0  0  0
  160.6940  212.6000  150.0080 C   0  0  0  0  0  0  0  0  0  0  0  0
  161.0370  210.1980  151.6780 C   0  0  0  0  0  0  0  0  0  0  0  0
  161.2710  208.0400  157.2600 C   0  0  0  0  0  1  0  0  0  0  0  0
  159.7470  209.4790  153.5510 C   0  0  2  0  0  3  0  0  0  0  0  0
  159.8800  212.2070  150.9490 N   0  0  0  0  0  0  0  0  0  0  0  0
  161.9120  211.9030  149.7110 N   0  0  0  0  0  2  0  0  0  0  0  0
  161.6390  208.0710  155.7910 C   0  0  2  0  0  3  0  0  0  0  0  0
  160.8260  207.7030  152.0790 C   0  0  0  0  0  0  0  0  0  0  0  0
  160.0260  211.2680  155.0350 N   0  0  0  0  0  0  0  0  0  0  0  0
  160.3560  213.8150  149.2240 C   0  0  0  0  0  1  0  0  0  0  0  0
  161.5210  209.5060  155.2720 C   0  0  0  0  0  2  0  0  0  0  0  0
  160.3680  207.5410  150.8270 C   0  0  0  0  0  3  0  0  0  0  0  0
  161.8560  205.4320  151.9160 N   0  0  0  0  0  2  0  0  0  0  0  0
  161.3110  205.3030  150.5970 C   0  0  0  0  0  3  0  0  0  0  0  0
  160.7320  207.1120  155.0330 C   0  0  0  0  0  2  0  0  0  0  0  0
  159.1010  210.6950  152.8970 C   0  0  2  0  0  3  0  0  0  0  0  0
  160.1340  209.8660  154.9330 N   0  0  2  0  0  0  0  0  0  0  0  0
  160.0540  211.0610  151.8020 C   0  0  0  0  0  0  0  0  0  0  0  0
  159.2180  213.1480  153.6680 C   0  0  0  0  0  1  0  0  0  0  0  0
  160.9480  209.0920  152.6670 C   0  0  1  0  0  3  0  0  0  0  0  0
  1  6  2  0  0  0  0
  4 22  2  0  0  0  0
  4 20  1  0  0  0  0
  5 27  1  6  0  0  0
  5 17  1  0  0  0  0
  6 23  1  0  0  0  0
  7  8  2  0  0  0  0
  8  2  2  0  0  0  0
  8 10  1  0  0  0  0
  9 13  2  0  0  0  0
 10 26  2  0  0  0  0
 10 28  1  0  0  0  0
 12 25  1  0  0  0  0
 13 26  1  0  0  0  0
 14  9  1  0  0  0  0
 14  8  1  0  0  0  0
 15 11  1  0  0  0  0
 16 28  1  0  0  0  0
 16  1  1  0  0  0  0
 17  3  1  0  0  0  0
 18  9  1  0  0  0  0
 19 15  1  0  0  0  0
 20 16  2  0  0  0  0
 21  1  1  0  0  0  0
 22 21  1  0  0  0  0
 23 15  1  0  0  0  0
 24 12  1  0  0  0  0
 24  5  1  0  0  0  0
 25 17  1  0  0  0  0
 25 19  1  0  0  0  0
 26 24  1  0  0  0  0
 28 12  1  0  0  0  0
M  END
>  <MODEL>
2

>  <REMARK>
 VINA RESULT:      -2.8      2.312      4.750
  Name = 
  0 active torsions:
  status: ('A' for Active; 'I' for Inactive)
                            x       y       z     vdW  Elec       q    Type
                         _______ _______ _______ _____ _____    ______ ____

>  <TORSDO>
F 0

$$$$
=
 OpenBabel11122414073D

 28 32  0  0  1  0  0  0  0  0999 V2000
  158.0860  213.6050  150.3310 C   0  0  0  0  0  0  0  0  0  0  0  0
  159.3280  209.4700  152.6740 O   0  0  0  0  0  0  0  0  0  0  0  0
  156.0910  213.7290  156.5120 C   0  0  0  0  0  1  0  0  0  0  0  0
  160.8360  213.8950  149.7510 C   0  0  0  0  0  3  0  0  0  0  0  0
  158.3930  213.5240  156.1660 C   0  0  2  0  0  3  0  0  0  0  0  0
  156.8540  213.9880  150.5170 N   0  0  0  0  0  0  0  0  0  0  0  0
  161.1000  210.7080  151.4770 O   0  0  0  0  0  0  0  0  0  0  0  0
  160.4130  210.5030  152.7960 S   0  0  0  0  0  0  0  0  0  0  0  0
  161.7760  210.7870  155.1700 C   0  0  0  0  0  0  0  0  0  0  0  0
  159.7550  211.9960  153.4010 C   0  0  0  0  0  0  0  0  0  0  0  0
  154.1450  214.0450  152.9650 C   0  0  0  0  0  1  0  0  0  0  0  0
  158.3140  213.8490  153.8210 C   0  0  2  0  0  3  0  0  0  0  0  0
  161.1010  211.8740  155.4220 N   0  0  0  0  0  0  0  0  0  0  0  0
  161.5620  210.0110  153.9840 N   0  0  0  0  0  2  0  0  0  0  0  0
  155.4060  213.3940  152.4370 C   0  0  2  0  0  3  0  0  0  0  0  0
  159.0880  213.4430  151.4290 C   0  0  0  0  0  0  0  0  0  0  0  0
  157.0940  213.0920  155.6710 N   0  0  0  0  0  0  0  0  0  0  0  0
  162.7940  210.3290  156.1500 C   0  0  0  0  0  1  0  0  0  0  0  0
  156.1370  212.7020  153.5900 C   0  0  0  0  0  2  0  0  0  0  0  0
  160.3840  213.6350  151.1310 C   0  0  0  0  0  3  0  0  0  0  0  0
  158.5810  213.6010  148.9870 N   0  0  0  0  0  2  0  0  0  0  0  0
  159.9710  213.8370  148.7360 C   0  0  0  0  0  3  0  0  0  0  0  0
  156.2680  214.4530  151.7670 C   0  0  0  0  0  2  0  0  0  0  0  0
  159.3090  213.6820  154.9630 C   0  0  2  0  0  3  0  0  0  0  0  0
  156.9520  213.6410  154.3790 N   0  0  2  0  0  0  0  0  0  0  0  0
  160.0810  212.4550  154.5900 C   0  0  0  0  0  0  0  0  0  0  0  0
  158.9050  212.5930  157.2610 C   0  0  0  0  0  1  0  0  0  0  0  0
  158.6990  212.8120  152.7480 C   0  0  1  0  0  3  0  0  0  0  0  0
  1  6  2  0  0  0  0
  1 16  1  0  0  0  0
  2  8  2  0  0  0  0
  4 20  1  0  0  0  0
  5 27  1  1  0  0  0
  6 23  1  0  0  0  0
  7  8  2  0  0  0  0
  8 10  1  0  0  0  0
  8 14  1  0  0  0  0
  9 13  2  0  0  0  0
  9 18  1  0  0  0  0
 10 26  2  0  0  0  0
 12 25  1  0  0  0  0
 12 24  1  0  0  0  0
 14  9  1  0  0  0  0
 15 11  1  0  0  0  0
 15 19  1  0  0  0  0
 16 28  1  0  0  0  0
 17  5  1  0  0  0  0
 17  3  1  0  0  0  0
 19 25  1  0  0  0  0
 20 16  2  0  0  0  0
 21  1  1  0  0  0  0
 22 21  1  0  0  0  0
 22  4  2  0  0  0  0
 23 15  1  0  0  0  0
 24  5  1  0  0  0  0
 25 17  1  0  0  0  0
 26 24  1  0  0  0  0
 26 13  1  0  0  0  0
 28 10  1  0  0  0  0
 28 12  1  0  0  0  0
M  END
>  <MODEL>
3

>  <REMARK>
 VINA RESULT:      -2.5      3.609      7.414
  Name = 
  0 active torsions:
  status: ('A' for Active; 'I' for Inactive)
                            x       y       z     vdW  Elec       q    Type
                         _______ _______ _______ _____ _____    ______ ____

>  <TORSDO>
F 0

$$$$
