=
 OpenBabel11122412543D

 32 38  0  0  1  0  0  0  0  0999 V2000
  160.2750  208.8260  156.7250 C   0  0  1  0  0  3  0  0  0  0  0  0
  161.1600  206.6650  152.1440 C   0  0  0  0  0  0  0  0  0  0  0  0
  162.1370  210.4780  149.3070 N   0  0  0  0  0  0  0  0  0  0  0  0
  162.1180  209.6960  148.1980 C   0  0  0  0  0  3  0  0  0  0  0  0
  160.9220  204.3900  151.0690 C   0  0  0  0  0  0  0  0  0  0  0  0
  160.9140  203.6840  149.8700 C   0  0  0  0  0  0  0  0  0  0  0  0
  161.2210  207.0990  154.6280 C   0  0  1  0  0  3  0  0  0  0  0  0
  161.5110  208.9520  153.2020 C   0  0  0  0  0  2  0  0  0  0  0  0
  161.1120  203.3060  147.6830 N   0  0  0  0  0  0  0  0  0  0  0  0
  160.8010  209.4190  155.4150 C   0  0  2  0  0  3  0  0  0  0  0  0
  161.9090  209.9620  150.5440 C   0  0  0  0  0  3  0  0  0  0  0  0
  161.4070  208.0540  151.9850 C   0  0  0  0  0  0  0  0  0  0  0  0
  161.6480  208.5930  150.7120 C   0  0  0  0  0  0  0  0  0  0  0  0
  161.3790  206.3900  149.7030 C   0  0  0  0  0  0  0  0  0  0  0  0
  160.9100  202.0270  148.2510 N   0  0  0  0  0  0  0  0  0  0  0  0
  159.7610  207.5060  156.5330 O   0  0  0  0  0  0  0  0  0  0  0  0
  160.7130  208.4410  154.3100 N   0  0  2  0  0  0  0  0  0  0  0  0
  160.7760  202.2900  149.6390 N   0  0  0  0  0  0  0  0  0  0  0  0
  160.7030  206.6070  155.9810 C   0  0  0  0  0  2  0  0  0  0  0  0
  161.7820  209.0420  156.5260 C   0  0  1  0  0  3  0  0  0  0  0  0
  161.8650  208.3300  148.3110 C   0  0  0  0  0  3  0  0  0  0  0  0
  161.6270  207.7650  149.5720 C   0  0  0  0  0  0  0  0  0  0  0  0
  161.3660  205.6060  148.5790 N   0  0  0  0  0  0  0  0  0  0  0  0
  160.8070  206.1440  153.5210 C   0  0  0  0  0  2  0  0  0  0  0  0
  160.7310  203.6100  152.3290 C   0  0  0  0  0  1  0  0  0  0  0  0
  161.4940  203.5180  146.2990 C   0  0  0  0  0  1  0  0  0  0  0  0
  161.1470  205.8080  151.0020 C   0  0  0  0  0  0  0  0  0  0  0  0
  161.1200  204.2840  148.6960 C   0  0  0  0  0  0  0  0  0  0  0  0
  162.2090  210.2970  157.2600 C   0  0  0  0  0  2  0  0  0  0  0  0
  163.3820  210.9070  156.5770 C   0  0  0  0  0  0  0  0  0  0  0  0
  163.4530  210.9070  155.1890 O   0  0  0  0  0  0  0  0  0  0  0  0
  164.3230  211.3940  157.2540 O   0  0  0  0  0  1  0  0  0  0  0  0
  1 16  1  6  0  0  0
  2 24  1  0  0  0  0
  3 11  2  0  0  0  0
  4 21  2  0  0  0  0
  4  3  1  0  0  0  0
  5 25  1  0  0  0  0
  6  5  2  0  0  0  0
  7 24  1  6  0  0  0
  7 19  1  0  0  0  0
  8 17  1  0  0  0  0
  9 15  1  0  0  0  0
  9 28  1  0  0  0  0
 10 20  1  0  0  0  0
 10  1  1  0  0  0  0
 11 13  1  0  0  0  0
 12  2  1  0  0  0  0
 12  8  1  0  0  0  0
 13 12  2  0  0  0  0
 14 27  1  0  0  0  0
 15 18  2  0  0  0  0
 17  7  1  0  0  0  0
 17 10  1  0  0  0  0
 18  6  1  0  0  0  0
 19 16  1  0  0  0  0
 20  1  1  0  0  0  0
 20 29  1  0  0  0  0
 21 22  1  0  0  0  0
 22 14  2  0  0  0  0
 22 13  1  0  0  0  0
 23 28  2  0  0  0  0
 23 14  1  0  0  0  0
 26  9  1  0  0  0  0
 27  5  1  0  0  0  0
 27  2  2  0  0  0  0
 28  6  1  0  0  0  0
 30 32  1  0  0  0  0
 30 29  1  0  0  0  0
 31 30  2  0  0  0  0
M  END
>  <MODEL>
1

>  <REMARK>
 VINA RESULT:     -10.3      0.000      0.000
  Name = 
  2 active torsions:
  status: ('A' for Active; 'I' for Inactive)
    1  A    between atoms: C_20  and  C_29
    2  A    between atoms: C_29  and  C_30
                            x       y       z     vdW  Elec       q    Type
                         _______ _______ _______ _____ _____    ______ ____

>  <TORSDO>
F 2

$$$$
=
 OpenBabel11122412543D

 32 38  0  0  1  0  0  0  0  0999 V2000
  161.9930  203.1060  146.9490 C   0  0  1  0  0  3  0  0  0  0  0  0
  161.2810  206.5270  150.7220 C   0  0  0  0  0  0  0  0  0  0  0  0
  162.2040  210.7630  148.5430 N   0  0  0  0  0  0  0  0  0  0  0  0
  162.1580  211.4180  149.7320 C   0  0  0  0  0  3  0  0  0  0  0  0
  160.9220  206.5080  153.2230 C   0  0  0  0  0  0  0  0  0  0  0  0
  160.9080  207.2730  154.3840 C   0  0  0  0  0  0  0  0  0  0  0  0
  160.9160  204.5580  149.1860 C   0  0  1  0  0  3  0  0  0  0  0  0
  161.5440  206.5990  148.1920 C   0  0  0  0  0  2  0  0  0  0  0  0
  160.9980  209.0870  155.6760 N   0  0  0  0  0  0  0  0  0  0  0  0
  161.9520  204.6360  146.9280 C   0  0  2  0  0  3  0  0  0  0  0  0
  162.0100  209.4200  148.4650 C   0  0  0  0  0  3  0  0  0  0  0  0
  161.5570  207.2760  149.5480 C   0  0  0  0  0  0  0  0  0  0  0  0
  161.7520  208.6650  149.6210 C   0  0  0  0  0  0  0  0  0  0  0  0
  161.4340  208.6070  152.0370 C   0  0  0  0  0  0  0  0  0  0  0  0
  160.6430  208.0390  156.5550 N   0  0  0  0  0  0  0  0  0  0  0  0
  162.0510  202.6020  148.2850 O   0  0  0  0  0  0  0  0  0  0  0  0
  161.9010  205.1900  148.2970 N   0  0  2  0  0  0  0  0  0  0  0  0
  160.6020  206.8940  155.7180 N   0  0  0  0  0  0  0  0  0  0  0  0
  160.9780  203.0320  149.0990 C   0  0  0  0  0  2  0  0  0  0  0  0
  160.7140  203.8370  146.5160 C   0  0  1  0  0  3  0  0  0  0  0  0
  161.9040  210.7140  150.9080 C   0  0  0  0  0  3  0  0  0  0  0  0
  161.6990  209.3280  150.8630 C   0  0  0  0  0  0  0  0  0  0  0  0
  161.3850  209.2760  153.2320 N   0  0  0  0  0  0  0  0  0  0  0  0
  161.1760  205.0200  150.6110 C   0  0  0  0  0  2  0  0  0  0  0  0
  160.6000  205.0540  153.3520 C   0  0  0  0  0  1  0  0  0  0  0  0
  160.9730  210.4900  156.0480 C   0  0  0  0  0  1  0  0  0  0  0  0
  161.2110  207.1830  151.9870 C   0  0  0  0  0  0  0  0  0  0  0  0
  161.1390  208.5880  154.3660 C   0  0  0  0  0  0  0  0  0  0  0  0
  160.6140  203.8180  145.0040 C   0  0  0  0  0  2  0  0  0  0  0  0
  160.7330  205.2030  144.4730 C   0  0  0  0  0  0  0  0  0  0  0  0
  159.9900  206.2300  145.0420 O   0  0  0  0  0  1  0  0  0  0  0  0
  161.4810  205.4380  143.4890 O   0  0  0  0  0  0  0  0  0  0  0  0
  1 16  1  1  0  0  0
  2 27  1  0  0  0  0
  3  4  1  0  0  0  0
  4 21  2  0  0  0  0
  5 25  1  0  0  0  0
  5  6  1  0  0  0  0
  6 18  1  0  0  0  0
  7 19  1  1  0  0  0
  7 24  1  0  0  0  0
  8 17  1  0  0  0  0
  8 12  1  0  0  0  0
  9 26  1  0  0  0  0
  9 15  1  0  0  0  0
 10  1  1  0  0  0  0
 10 17  1  0  0  0  0
 11  3  2  0  0  0  0
 11 13  1  0  0  0  0
 12 13  1  0  0  0  0
 12  2  2  0  0  0  0
 13 22  2  0  0  0  0
 14 23  2  0  0  0  0
 16 19  1  0  0  0  0
 17  7  1  0  0  0  0
 18 15  2  0  0  0  0
 20 10  1  0  0  0  0
 20  1  1  0  0  0  0
 22 21  1  0  0  0  0
 22 14  1  0  0  0  0
 23 28  1  0  0  0  0
 24  2  1  0  0  0  0
 27 14  1  0  0  0  0
 27  5  2  0  0  0  0
 28  6  2  0  0  0  0
 28  9  1  0  0  0  0
 29 20  1  0  0  0  0
 30 29  1  0  0  0  0
 30 31  1  0  0  0  0
 32 30  2  0  0  0  0
M  END
>  <MODEL>
2

>  <REMARK>
 VINA RESULT:      -8.9      3.732      7.856
  Name = 
  2 active torsions:
  status: ('A' for Active; 'I' for Inactive)
    1  A    between atoms: C_20  and  C_29
    2  A    between atoms: C_29  and  C_30
                            x       y       z     vdW  Elec       q    Type
                         _______ _______ _______ _____ _____    ______ ____

>  <TORSDO>
F 2

$$$$
=
 OpenBabel11122412543D

 32 38  0  0  1  0  0  0  0  0999 V2000
  161.9490  209.8870  154.0710 C   0  0  1  0  0  3  0  0  0  0  0  0
  161.1470  206.5820  150.2140 C   0  0  0  0  0  0  0  0  0  0  0  0
  160.7950  202.3110  152.4910 N   0  0  0  0  0  0  0  0  0  0  0  0
  160.8040  201.6460  151.3070 C   0  0  0  0  0  3  0  0  0  0  0  0
  161.2060  206.6020  147.6880 C   0  0  0  0  0  0  0  0  0  0  0  0
  161.2180  205.8240  146.5360 C   0  0  0  0  0  0  0  0  0  0  0  0
  160.9640  208.6270  151.6800 C   0  0  1  0  0  3  0  0  0  0  0  0
  160.9800  206.5290  152.7520 C   0  0  0  0  0  2  0  0  0  0  0  0
  161.1290  203.9940  145.2660 N   0  0  0  0  0  0  0  0  0  0  0  0
  161.5840  208.4010  154.0770 C   0  0  2  0  0  3  0  0  0  0  0  0
  160.8790  203.6670  152.5430 C   0  0  0  0  0  3  0  0  0  0  0  0
  161.0670  205.8250  151.4130 C   0  0  0  0  0  0  0  0  0  0  0  0
  160.9750  204.4260  151.3650 C   0  0  0  0  0  0  0  0  0  0  0  0
  161.0670  204.4790  148.9300 C   0  0  0  0  0  0  0  0  0  0  0  0
  161.1490  205.0670  144.3470 N   0  0  0  0  0  0  0  0  0  0  0  0
  162.3250  210.3290  152.7650 O   0  0  0  0  0  0  0  0  0  0  0  0
  161.6380  207.8290  152.7150 N   0  0  2  0  0  0  0  0  0  0  0  0
  161.2160  206.2190  145.1720 N   0  0  0  0  0  0  0  0  0  0  0  0
  161.3300  210.1080  151.7850 C   0  0  0  0  0  2  0  0  0  0  0  0
  160.4930  209.4520  154.2860 C   0  0  1  0  0  3  0  0  0  0  0  0
  160.8960  202.3530  150.1090 C   0  0  0  0  0  3  0  0  0  0  0  0
  160.9820  203.7530  150.1280 C   0  0  0  0  0  0  0  0  0  0  0  0
  161.0710  203.8000  147.7390 N   0  0  0  0  0  0  0  0  0  0  0  0
  161.3450  208.0800  150.3140 C   0  0  0  0  0  2  0  0  0  0  0  0
  161.2220  208.0870  147.5160 C   0  0  0  0  0  1  0  0  0  0  0  0
  160.8690  202.6170  144.8880 C   0  0  0  0  0  1  0  0  0  0  0  0
  161.1440  205.9180  148.9510 C   0  0  0  0  0  0  0  0  0  0  0  0
  161.1600  204.4910  146.5840 C   0  0  0  0  0  0  0  0  0  0  0  0
  160.1570  209.5350  155.7610 C   0  0  0  0  0  2  0  0  0  0  0  0
  160.1950  208.1760  156.3650 C   0  0  0  0  0  0  0  0  0  0  0  0
  161.2050  207.8410  157.2590 O   0  0  0  0  0  1  0  0  0  0  0  0
  159.3320  207.3190  156.0430 O   0  0  0  0  0  0  0  0  0  0  0  0
  1 16  1  6  0  0  0
  1 10  1  0  0  0  0
  1 20  1  0  0  0  0
  2 24  1  0  0  0  0
  2 12  1  0  0  0  0
  3 11  2  0  0  0  0
  4  3  1  0  0  0  0
  5 27  1  0  0  0  0
  6 28  1  0  0  0  0
  6  5  2  0  0  0  0
  7 24  1  6  0  0  0
  7 19  1  0  0  0  0
  7 17  1  0  0  0  0
  9 28  1  0  0  0  0
 10 20  1  0  0  0  0
 12  8  1  0  0  0  0
 13 12  2  0  0  0  0
 13 11  1  0  0  0  0
 14 27  1  0  0  0  0
 14 22  2  0  0  0  0
 15 18  2  0  0  0  0
 15  9  1  0  0  0  0
 17  8  1  0  0  0  0
 17 10  1  0  0  0  0
 18  6  1  0  0  0  0
 19 16  1  0  0  0  0
 20 29  1  0  0  0  0
 21 22  1  0  0  0  0
 21  4  2  0  0  0  0
 22 13  1  0  0  0  0
 23 14  1  0  0  0  0
 25  5  1  0  0  0  0
 26  9  1  0  0  0  0
 27  2  2  0  0  0  0
 28 23  2  0  0  0  0
 29 30  1  0  0  0  0
 30 31  1  0  0  0  0
 32 30  2  0  0  0  0
M  END
>  <MODEL>
3

>  <REMARK>
 VINA RESULT:      -8.2      1.815      4.501
  Name = 
  2 active torsions:
  status: ('A' for Active; 'I' for Inactive)
    1  A    between atoms: C_20  and  C_29
    2  A    between atoms: C_29  and  C_30
                            x       y       z     vdW  Elec       q    Type
                         _______ _______ _______ _____ _____    ______ ____

>  <TORSDO>
F 2

$$$$
=
 OpenBabel11122412543D

 32 38  0  0  1  0  0  0  0  0999 V2000
  161.5460  201.2590  147.5550 C   0  0  1  0  0  3  0  0  0  0  0  0
  161.1180  205.3150  150.6870 C   0  0  0  0  0  0  0  0  0  0  0  0
  162.1880  209.0530  147.7850 N   0  0  0  0  0  0  0  0  0  0  0  0
  162.2100  209.9050  148.8420 C   0  0  0  0  0  3  0  0  0  0  0  0
  160.8330  205.7490  153.1600 C   0  0  0  0  0  0  0  0  0  0  0  0
  160.8920  206.7030  154.1700 C   0  0  0  0  0  0  0  0  0  0  0  0
  160.6100  203.1330  149.5270 C   0  0  1  0  0  3  0  0  0  0  0  0
  161.3100  204.9340  148.1790 C   0  0  0  0  0  2  0  0  0  0  0  0
  161.1110  208.7060  155.1240 N   0  0  0  0  0  0  0  0  0  0  0  0
  161.5810  202.7620  147.2690 C   0  0  2  0  0  3  0  0  0  0  0  0
  161.9250  207.7290  147.9460 C   0  0  0  0  0  3  0  0  0  0  0  0
  161.3970  205.8340  149.3950 C   0  0  0  0  0  0  0  0  0  0  0  0
  161.6640  207.2010  149.2210 C   0  0  0  0  0  0  0  0  0  0  0  0
  161.4140  207.5790  151.6160 C   0  0  0  0  0  0  0  0  0  0  0  0
  160.7300  207.8470  156.1790 N   0  0  0  0  0  0  0  0  0  0  0  0
  161.6180  200.9910  148.9580 O   0  0  0  0  0  0  0  0  0  0  0  0
  161.5990  203.5470  148.5210 N   0  0  2  0  0  0  0  0  0  0  0  0
  160.6060  206.5780  155.5550 N   0  0  0  0  0  0  0  0  0  0  0  0
  160.5920  201.6140  149.7060 C   0  0  0  0  0  2  0  0  0  0  0  0
  160.2930  201.9720  147.0280 C   0  0  1  0  0  3  0  0  0  0  0  0
  161.9560  209.4310  150.1270 C   0  0  0  0  0  3  0  0  0  0  0  0
  161.6800  208.0710  150.3290 C   0  0  0  0  0  0  0  0  0  0  0  0
  161.4340  208.4470  152.6770 N   0  0  0  0  0  0  0  0  0  0  0  0
  160.9340  203.8190  150.8430 C   0  0  0  0  0  2  0  0  0  0  0  0
  160.4420  204.3590  153.5470 C   0  0  0  0  0  1  0  0  0  0  0  0
  161.1670  210.1510  155.2450 C   0  0  0  0  0  1  0  0  0  0  0  0
  161.1190  206.1830  151.8200 C   0  0  0  0  0  0  0  0  0  0  0  0
  161.1870  207.9800  153.9190 C   0  0  0  0  0  0  0  0  0  0  0  0
  160.1470  201.6970  145.5450 C   0  0  0  0  0  2  0  0  0  0  0  0
  159.9970  202.9800  144.8060 C   0  0  0  0  0  0  0  0  0  0  0  0
  160.9920  203.9470  144.8860 O   0  0  0  0  0  1  0  0  0  0  0  0
  158.9560  203.2030  144.1360 O   0  0  0  0  0  0  0  0  0  0  0  0
  1 16  1  1  0  0  0
  2 24  1  0  0  0  0
  2 27  1  0  0  0  0
  3 11  2  0  0  0  0
  3  4  1  0  0  0  0
  4 21  2  0  0  0  0
  5 25  1  0  0  0  0
  5  6  1  0  0  0  0
  6 18  1  0  0  0  0
  7 19  1  1  0  0  0
  7 24  1  0  0  0  0
  8 17  1  0  0  0  0
  8 12  1  0  0  0  0
  9 26  1  0  0  0  0
  9 15  1  0  0  0  0
 10  1  1  0  0  0  0
 10 17  1  0  0  0  0
 11 13  1  0  0  0  0
 12  2  2  0  0  0  0
 13 12  1  0  0  0  0
 13 22  2  0  0  0  0
 14 27  1  0  0  0  0
 14 23  2  0  0  0  0
 16 19  1  0  0  0  0
 17  7  1  0  0  0  0
 18 15  2  0  0  0  0
 20 10  1  0  0  0  0
 20  1  1  0  0  0  0
 21 22  1  0  0  0  0
 22 14  1  0  0  0  0
 23 28  1  0  0  0  0
 27  5  2  0  0  0  0
 28  6  2  0  0  0  0
 28  9  1  0  0  0  0
 29 20  1  0  0  0  0
 30 31  1  0  0  0  0
 30 29  1  0  0  0  0
 32 30  2  0  0  0  0
M  END
>  <MODEL>
4

>  <REMARK>
 VINA RESULT:      -7.8      3.881      8.069
  Name = 
  2 active torsions:
  status: ('A' for Active; 'I' for Inactive)
    1  A    between atoms: C_20  and  C_29
    2  A    between atoms: C_29  and  C_30
                            x       y       z     vdW  Elec       q    Type
                         _______ _______ _______ _____ _____    ______ ____

>  <TORSDO>
F 2

$$$$
