=
 OpenBabel11122412423D

 30 35  0  0  1  0  0  0  0  0999 V2000
  161.2670  207.7150  151.2420 C   0  0  0  0  0  0  0  0  0  0  0  0
  161.5280  210.1930  150.9980 C   0  0  0  0  0  0  0  0  0  0  0  0
  162.2060  207.1170  147.2710 N   0  0  0  0  0  0  0  0  0  0  0  0
  161.3240  206.4100  150.6690 C   0  0  0  0  0  0  0  0  0  0  0  0
  160.8250  207.8340  152.6720 C   0  0  0  0  0  2  0  0  0  0  0  0
  161.0050  204.4400  153.7320 O   0  0  0  0  0  0  0  0  0  0  0  0
  160.4340  203.6050  149.7300 C   0  0  1  0  0  3  0  0  0  0  0  0
  161.1970  205.4210  152.9610 C   0  0  0  0  0  0  0  0  0  0  0  0
  161.2800  203.9430  148.6120 N   0  0  0  0  0  0  0  0  0  0  0  0
  162.0690  205.8030  147.1790 N   0  0  0  0  0  0  0  0  0  0  0  0
  161.4890  206.7770  153.5370 C   0  0  2  0  0  3  0  0  0  0  0  0
  161.1890  205.2400  151.5270 N   0  0  0  0  0  0  0  0  0  0  0  0
  161.8330  211.2930  150.1920 C   0  0  0  0  0  3  0  0  0  0  0  0
  161.4810  202.8420  147.6930 C   0  0  0  0  0  2  0  0  0  0  0  0
  160.1060  202.1260  149.5780 C   0  0  0  0  0  2  0  0  0  0  0  0
  161.2110  210.4360  152.2940 F   0  0  0  0  0  0  0  0  0  0  0  0
  161.9380  207.4470  148.5500 C   0  0  0  0  0  0  0  0  0  0  0  0
  162.1770  211.1210  148.8520 C   0  0  0  0  0  3  0  0  0  0  0  0
  161.5610  208.8800  150.4620 C   0  0  0  0  0  0  0  0  0  0  0  0
  161.6330  206.3330  149.2940 C   0  0  0  0  0  0  0  0  0  0  0  0
  162.2170  205.0890  145.9220 C   0  0  0  0  0  1  0  0  0  0  0  0
  161.7120  205.2910  148.3820 C   0  0  0  0  0  0  0  0  0  0  0  0
  160.6080  201.7100  148.2020 C   0  0  0  0  0  2  0  0  0  0  0  0
  161.7950  202.9800  151.5910 O   0  0  0  0  0  0  0  0  0  0  0  0
  162.2170  209.8410  148.3030 C   0  0  0  0  0  3  0  0  0  0  0  0
  161.9160  208.7270  149.0930 C   0  0  0  0  0  0  0  0  0  0  0  0
  161.1590  203.8980  151.0030 C   0  0  0  0  0  0  0  0  0  0  0  0
  160.9920  206.9080  154.9740 C   0  0  0  0  0  2  0  0  0  0  0  0
  161.8350  208.4180  156.5470 C   0  0  0  0  0  1  0  0  0  0  0  0
  160.9760  208.3040  155.3810 N   0  0  0  0  0  2  0  0  0  0  0  0
  1  5  1  0  0  0  0
  2 16  1  0  0  0  0
  3 17  2  0  0  0  0
  4  1  2  0  0  0  0
  4 12  1  0  0  0  0
  5 11  1  0  0  0  0
  7 15  1  1  0  0  0
  7 27  1  0  0  0  0
  8 11  1  0  0  0  0
  8  6  2  0  0  0  0
  9  7  1  0  0  0  0
 10  3  1  0  0  0  0
 10 22  1  0  0  0  0
 11 28  1  1  0  0  0
 12  8  1  0  0  0  0
 13  2  2  0  0  0  0
 14 23  1  0  0  0  0
 14  9  1  0  0  0  0
 17 26  1  0  0  0  0
 17 20  1  0  0  0  0
 18 13  1  0  0  0  0
 19  2  1  0  0  0  0
 19  1  1  0  0  0  0
 20  4  1  0  0  0  0
 21 10  1  0  0  0  0
 22  9  1  0  0  0  0
 22 20  2  0  0  0  0
 23 15  1  0  0  0  0
 25 18  2  0  0  0  0
 25 26  1  0  0  0  0
 26 19  2  0  0  0  0
 27 12  1  0  0  0  0
 27 24  2  0  0  0  0
 28 30  1  0  0  0  0
 30 29  1  0  0  0  0
M  END
>  <MODEL>
1

>  <REMARK>
 VINA RESULT:      -9.4      0.000      0.000
  Name = 
  2 active torsions:
  status: ('A' for Active; 'I' for Inactive)
    1  A    between atoms: C_11  and  C_28
    2  A    between atoms: C_28  and  N_30
                            x       y       z     vdW  Elec       q    Type
                         _______ _______ _______ _____ _____    ______ ____

>  <TORSDO>
F 2

$$$$
=
 OpenBabel11122412423D

 30 35  0  0  1  0  0  0  0  0999 V2000
  161.0760  205.5670  149.8240 C   0  0  0  0  0  0  0  0  0  0  0  0
  160.8880  203.0810  149.5950 C   0  0  0  0  0  0  0  0  0  0  0  0
  161.1830  205.2870  153.9370 N   0  0  0  0  0  0  0  0  0  0  0  0
  161.2050  206.7190  150.6550 C   0  0  0  0  0  0  0  0  0  0  0  0
  160.9530  205.7810  148.3440 C   0  0  0  0  0  2  0  0  0  0  0  0
  161.8890  209.2040  148.0620 O   0  0  0  0  0  0  0  0  0  0  0  0
  160.5730  209.4430  151.9680 C   0  0  1  0  0  3  0  0  0  0  0  0
  161.7500  208.0880  148.6360 C   0  0  0  0  0  0  0  0  0  0  0  0
  161.0840  208.7620  153.1310 N   0  0  0  0  0  0  0  0  0  0  0  0
  161.2340  206.5680  154.2710 N   0  0  0  0  0  0  0  0  0  0  0  0
  161.9490  206.8190  147.8580 C   0  0  2  0  0  3  0  0  0  0  0  0
  161.4490  208.0210  150.0480 N   0  0  0  0  0  0  0  0  0  0  0  0
  160.8310  201.8220  150.2000 C   0  0  0  0  0  3  0  0  0  0  0  0
  161.2420  209.6300  154.2790 C   0  0  0  0  0  2  0  0  0  0  0  0
  160.4530  210.9100  152.3570 C   0  0  0  0  0  2  0  0  0  0  0  0
  160.8360  203.1280  148.2410 F   0  0  0  0  0  0  0  0  0  0  0  0
  161.1610  205.2380  152.5900 C   0  0  0  0  0  0  0  0  0  0  0  0
  160.8880  201.6940  151.5860 C   0  0  0  0  0  3  0  0  0  0  0  0
  161.0040  204.2520  150.3880 C   0  0  0  0  0  0  0  0  0  0  0  0
  161.2060  206.4990  152.0500 C   0  0  0  0  0  0  0  0  0  0  0  0
  161.2060  207.0160  155.6540 C   0  0  0  0  0  1  0  0  0  0  0  0
  161.2390  207.3360  153.1550 C   0  0  0  0  0  0  0  0  0  0  0  0
  160.6920  210.9800  153.8590 C   0  0  0  0  0  2  0  0  0  0  0  0
  162.3970  210.0970  150.5700 O   0  0  0  0  0  0  0  0  0  0  0  0
  161.0020  202.8290  152.3860 C   0  0  0  0  0  3  0  0  0  0  0  0
  161.0620  204.0980  151.8010 C   0  0  0  0  0  0  0  0  0  0  0  0
  161.5100  209.2350  150.8230 C   0  0  0  0  0  0  0  0  0  0  0  0
  161.7720  207.0340  146.3570 C   0  0  0  0  0  2  0  0  0  0  0  0
  161.2060  205.4930  144.6930 C   0  0  0  0  0  1  0  0  0  0  0  0
  160.6910  206.2030  145.8500 N   0  0  0  0  0  2  0  0  0  0  0  0
  1 19  1  0  0  0  0
  1  4  2  0  0  0  0
  2 13  2  0  0  0  0
  2 19  1  0  0  0  0
  3 10  1  0  0  0  0
  4 20  1  0  0  0  0
  5  1  1  0  0  0  0
  6  8  2  0  0  0  0
  7 15  1  1  0  0  0
  7  9  1  0  0  0  0
  8 12  1  0  0  0  0
  9 22  1  0  0  0  0
  9 14  1  0  0  0  0
 10 21  1  0  0  0  0
 11 28  1  6  0  0  0
 11  5  1  0  0  0  0
 11  8  1  0  0  0  0
 12  4  1  0  0  0  0
 12 27  1  0  0  0  0
 13 18  1  0  0  0  0
 15 23  1  0  0  0  0
 16  2  1  0  0  0  0
 17  3  2  0  0  0  0
 18 25  2  0  0  0  0
 19 26  2  0  0  0  0
 20 17  1  0  0  0  0
 20 22  2  0  0  0  0
 22 10  1  0  0  0  0
 23 14  1  0  0  0  0
 24 27  2  0  0  0  0
 26 25  1  0  0  0  0
 26 17  1  0  0  0  0
 27  7  1  0  0  0  0
 29 30  1  0  0  0  0
 30 28  1  0  0  0  0
M  END
>  <MODEL>
2

>  <REMARK>
 VINA RESULT:      -9.4      2.824      7.340
  Name = 
  2 active torsions:
  status: ('A' for Active; 'I' for Inactive)
    1  A    between atoms: C_11  and  C_28
    2  A    between atoms: C_28  and  N_30
                            x       y       z     vdW  Elec       q    Type
                         _______ _______ _______ _____ _____    ______ ____

>  <TORSDO>
F 2

$$$$
=
 OpenBabel11122412423D

 30 35  0  0  1  0  0  0  0  0999 V2000
  161.7070  208.6000  151.5670 C   0  0  0  0  0  0  0  0  0  0  0  0
  161.5550  209.1970  153.9930 C   0  0  0  0  0  0  0  0  0  0  0  0
  160.7000  204.6800  152.3560 N   0  0  0  0  0  0  0  0  0  0  0  0
  161.5850  207.6300  150.5290 C   0  0  0  0  0  0  0  0  0  0  0  0
  162.1680  209.9780  151.1880 C   0  0  0  0  0  2  0  0  0  0  0  0
  161.8480  209.8600  147.6440 O   0  0  0  0  0  0  0  0  0  0  0  0
  162.3390  205.7940  148.1610 C   0  0  1  0  0  3  0  0  0  0  0  0
  161.6920  209.4620  148.8320 C   0  0  0  0  0  0  0  0  0  0  0  0
  161.4970  204.8720  148.8830 N   0  0  0  0  0  0  0  0  0  0  0  0
  160.7780  204.1550  151.1420 N   0  0  0  0  0  0  0  0  0  0  0  0
  161.4670  210.4610  149.9300 C   0  0  2  0  0  3  0  0  0  0  0  0
  161.6760  208.0490  149.1360 N   0  0  0  0  0  0  0  0  0  0  0  0
  161.2900  208.8070  155.3090 C   0  0  0  0  0  3  0  0  0  0  0  0
  161.2380  203.6460  148.1580 C   0  0  0  0  0  2  0  0  0  0  0  0
  162.5990  205.1540  146.8050 C   0  0  0  0  0  2  0  0  0  0  0  0
  161.8960  210.4910  153.7810 F   0  0  0  0  0  0  0  0  0  0  0  0
  160.9960  205.9890  152.2320 C   0  0  0  0  0  0  0  0  0  0  0  0
  160.9250  207.4950  155.6050 C   0  0  0  0  0  3  0  0  0  0  0  0
  161.4570  208.2570  152.9350 C   0  0  0  0  0  0  0  0  0  0  0  0
  161.2590  206.3140  150.9240 C   0  0  0  0  0  0  0  0  0  0  0  0
  160.5840  202.7370  150.8910 C   0  0  0  0  0  1  0  0  0  0  0  0
  161.1240  205.1120  150.2470 C   0  0  0  0  0  0  0  0  0  0  0  0
  162.0640  203.7310  146.8880 C   0  0  0  0  0  2  0  0  0  0  0  0
  160.9710  207.3770  147.0080 O   0  0  0  0  0  0  0  0  0  0  0  0
  160.8220  206.5540  154.5820 C   0  0  0  0  0  3  0  0  0  0  0  0
  161.0810  206.9240  153.2580 C   0  0  0  0  0  0  0  0  0  0  0  0
  161.6420  207.1100  148.0430 C   0  0  0  0  0  0  0  0  0  0  0  0
  161.9850  211.8480  149.5580 C   0  0  0  0  0  2  0  0  0  0  0  0
  160.8960  213.2630  148.0500 C   0  0  0  0  0  1  0  0  0  0  0  0
  160.8800  212.7830  149.4200 N   0  0  0  0  0  2  0  0  0  0  0  0
  1 19  1  0  0  0  0
  2 13  1  0  0  0  0
  4 20  1  0  0  0  0
  4  1  2  0  0  0  0
  5  1  1  0  0  0  0
  6  8  2  0  0  0  0
  7 15  1  6  0  0  0
  7  9  1  0  0  0  0
  8 12  1  0  0  0  0
  8 11  1  0  0  0  0
  9 22  1  0  0  0  0
 10  3  1  0  0  0  0
 11 28  1  6  0  0  0
 11  5  1  0  0  0  0
 12  4  1  0  0  0  0
 13 18  2  0  0  0  0
 14  9  1  0  0  0  0
 15 23  1  0  0  0  0
 16  2  1  0  0  0  0
 17  3  2  0  0  0  0
 17 26  1  0  0  0  0
 19 26  1  0  0  0  0
 19  2  2  0  0  0  0
 20 17  1  0  0  0  0
 21 10  1  0  0  0  0
 22 20  2  0  0  0  0
 22 10  1  0  0  0  0
 23 14  1  0  0  0  0
 24 27  2  0  0  0  0
 25 18  1  0  0  0  0
 26 25  2  0  0  0  0
 27  7  1  0  0  0  0
 27 12  1  0  0  0  0
 29 30  1  0  0  0  0
 30 28  1  0  0  0  0
M  END
>  <MODEL>
3

>  <REMARK>
 VINA RESULT:      -7.5      2.465      5.031
  Name = 
  2 active torsions:
  status: ('A' for Active; 'I' for Inactive)
    1  A    between atoms: C_11  and  C_28
    2  A    between atoms: C_28  and  N_30
                            x       y       z     vdW  Elec       q    Type
                         _______ _______ _______ _____ _____    ______ ____

>  <TORSDO>
F 2

$$$$
=
 OpenBabel11122412423D

 30 35  0  0  1  0  0  0  0  0999 V2000
  161.5000  210.4140  150.7600 C   0  0  0  0  0  0  0  0  0  0  0  0
  161.5160  212.2040  149.0100 C   0  0  0  0  0  0  0  0  0  0  0  0
  159.4320  212.8390  153.3760 N   0  0  0  0  0  0  0  0  0  0  0  0
  161.1130  209.9660  152.0570 C   0  0  0  0  0  0  0  0  0  0  0  0
  162.3300  209.4890  149.9180 C   0  0  0  0  0  2  0  0  0  0  0  0
  161.9970  206.4340  151.7170 O   0  0  0  0  0  0  0  0  0  0  0  0
  161.3260  208.9090  154.9520 C   0  0  1  0  0  3  0  0  0  0  0  0
  161.7330  207.6310  151.4130 C   0  0  0  0  0  0  0  0  0  0  0  0
  160.2580  209.8570  155.1520 N   0  0  0  0  0  0  0  0  0  0  0  0
  159.3610  212.0530  154.4390 N   0  0  0  0  0  0  0  0  0  0  0  0
  161.7950  208.0680  149.9780 C   0  0  2  0  0  3  0  0  0  0  0  0
  161.3210  208.5720  152.4310 N   0  0  0  0  0  0  0  0  0  0  0  0
  161.1500  213.4920  148.6090 C   0  0  0  0  0  3  0  0  0  0  0  0
  159.6660  209.7830  156.4720 C   0  0  0  0  0  2  0  0  0  0  0  0
  161.3990  208.0810  156.2280 C   0  0  0  0  0  2  0  0  0  0  0  0
  162.2070  211.4450  148.1240 F   0  0  0  0  0  0  0  0  0  0  0  0
  160.0830  212.1440  152.4220 C   0  0  0  0  0  0  0  0  0  0  0  0
  160.4310  214.3260  149.4620 C   0  0  0  0  0  3  0  0  0  0  0  0
  161.1600  211.7260  150.2980 C   0  0  0  0  0  0  0  0  0  0  0  0
  160.4290  210.8940  152.8720 C   0  0  0  0  0  0  0  0  0  0  0  0
  158.7780  212.4910  155.6970 C   0  0  0  0  0  1  0  0  0  0  0  0
  159.9640  210.8680  154.1780 C   0  0  0  0  0  0  0  0  0  0  0  0
  160.4860  208.7620  157.2380 C   0  0  0  0  0  2  0  0  0  0  0  0
  160.4590  206.9540  153.8870 O   0  0  0  0  0  0  0  0  0  0  0  0
  160.0700  213.8800  150.7310 C   0  0  0  0  0  3  0  0  0  0  0  0
  160.4250  212.5940  151.1520 C   0  0  0  0  0  0  0  0  0  0  0  0
  161.0270  208.0740  153.7500 C   0  0  0  0  0  0  0  0  0  0  0  0
  162.6820  207.1530  149.1390 C   0  0  0  0  0  2  0  0  0  0  0  0
  160.8340  206.2100  148.0620 C   0  0  0  0  0  1  0  0  0  0  0  0
  162.0810  206.9180  147.8360 N   0  0  0  0  0  2  0  0  0  0  0  0
  1  4  2  0  0  0  0
  2 19  1  0  0  0  0
  3 10  1  0  0  0  0
  4 12  1  0  0  0  0
  4 20  1  0  0  0  0
  5 11  1  0  0  0  0
  5  1  1  0  0  0  0
  7  9  1  0  0  0  0
  7 15  1  1  0  0  0
  8  6  2  0  0  0  0
  8 12  1  0  0  0  0
  9 14  1  0  0  0  0
 10 21  1  0  0  0  0
 11 28  1  6  0  0  0
 11  8  1  0  0  0  0
 12 27  1  0  0  0  0
 13  2  2  0  0  0  0
 13 18  1  0  0  0  0
 14 23  1  0  0  0  0
 15 23  1  0  0  0  0
 16  2  1  0  0  0  0
 17 20  1  0  0  0  0
 17  3  2  0  0  0  0
 18 25  2  0  0  0  0
 19  1  1  0  0  0  0
 19 26  2  0  0  0  0
 20 22  2  0  0  0  0
 22 10  1  0  0  0  0
 22  9  1  0  0  0  0
 25 26  1  0  0  0  0
 26 17  1  0  0  0  0
 27 24  2  0  0  0  0
 27  7  1  0  0  0  0
 30 29  1  0  0  0  0
 30 28  1  0  0  0  0
M  END
>  <MODEL>
4

>  <REMARK>
 VINA RESULT:      -6.5      2.579      6.744
  Name = 
  2 active torsions:
  status: ('A' for Active; 'I' for Inactive)
    1  A    between atoms: C_11  and  C_28
    2  A    between atoms: C_28  and  N_30
                            x       y       z     vdW  Elec       q    Type
                         _______ _______ _______ _____ _____    ______ ____

>  <TORSDO>
F 2

$$$$
=
 OpenBabel11122412423D

 30 35  0  0  1  0  0  0  0  0999 V2000
  161.2450  205.4540  151.8470 C   0  0  0  0  0  0  0  0  0  0  0  0
  161.0780  202.9560  151.7960 C   0  0  0  0  0  0  0  0  0  0  0  0
  160.9480  205.6670  147.7400 N   0  0  0  0  0  0  0  0  0  0  0  0
  161.2540  206.7000  151.1540 C   0  0  0  0  0  0  0  0  0  0  0  0
  161.4510  205.4760  153.3340 C   0  0  0  0  0  2  0  0  0  0  0  0
  161.0320  208.9420  154.0340 O   0  0  0  0  0  0  0  0  0  0  0  0
  162.2250  209.4420  150.1140 C   0  0  1  0  0  3  0  0  0  0  0  0
  160.9870  207.8910  153.3360 C   0  0  0  0  0  0  0  0  0  0  0  0
  161.5790  208.9770  148.9120 N   0  0  0  0  0  0  0  0  0  0  0  0
  161.0710  206.9720  147.5500 N   0  0  0  0  0  0  0  0  0  0  0  0
  160.6340  206.5820  153.9810 C   0  0  2  0  0  3  0  0  0  0  0  0
  161.2230  207.9460  151.9110 N   0  0  0  0  0  0  0  0  0  0  0  0
  160.9300  201.7800  151.0560 C   0  0  0  0  0  3  0  0  0  0  0  0
  161.5070  209.9850  147.8750 C   0  0  0  0  0  2  0  0  0  0  0  0
  162.5430  210.9120  149.8810 C   0  0  0  0  0  2  0  0  0  0  0  0
  161.1860  202.8400  153.1420 F   0  0  0  0  0  0  0  0  0  0  0  0
  161.0120  205.4600  149.0700 C   0  0  0  0  0  0  0  0  0  0  0  0
  160.8040  201.8210  149.6690 C   0  0  0  0  0  3  0  0  0  0  0  0
  161.1040  204.2150  151.1420 C   0  0  0  0  0  0  0  0  0  0  0  0
  161.1700  206.6450  149.7460 C   0  0  0  0  0  0  0  0  0  0  0  0
  161.1130  207.5670  146.2250 C   0  0  0  0  0  1  0  0  0  0  0  0
  161.2180  207.6000  148.7420 C   0  0  0  0  0  0  0  0  0  0  0  0
  162.2620  211.1880  148.4100 C   0  0  0  0  0  2  0  0  0  0  0  0
  160.5680  210.1800  151.6680 O   0  0  0  0  0  0  0  0  0  0  0  0
  160.8270  203.0450  149.0040 C   0  0  0  0  0  3  0  0  0  0  0  0
  160.9730  204.2350  149.7250 C   0  0  0  0  0  0  0  0  0  0  0  0
  161.3110  209.2370  151.2770 C   0  0  0  0  0  0  0  0  0  0  0  0
  160.8950  206.5950  155.4850 C   0  0  0  0  0  2  0  0  0  0  0  0
  160.1950  207.9450  157.2610 C   0  0  0  0  0  1  0  0  0  0  0  0
  159.7220  207.0720  156.2000 N   0  0  0  0  0  2  0  0  0  0  0  0
  1  5  1  0  0  0  0
  2 16  1  0  0  0  0
  3 17  2  0  0  0  0
  4  1  2  0  0  0  0
  4 12  1  0  0  0  0
  5 11  1  0  0  0  0
  7 15  1  6  0  0  0
  7 27  1  0  0  0  0
  8 11  1  0  0  0  0
  8  6  2  0  0  0  0
  9  7  1  0  0  0  0
 10  3  1  0  0  0  0
 10 22  1  0  0  0  0
 11 28  1  1  0  0  0
 12  8  1  0  0  0  0
 13  2  2  0  0  0  0
 14 23  1  0  0  0  0
 14  9  1  0  0  0  0
 17 26  1  0  0  0  0
 17 20  1  0  0  0  0
 18 13  1  0  0  0  0
 19  2  1  0  0  0  0
 19  1  1  0  0  0  0
 20  4  1  0  0  0  0
 21 10  1  0  0  0  0
 22  9  1  0  0  0  0
 22 20  2  0  0  0  0
 23 15  1  0  0  0  0
 25 18  2  0  0  0  0
 25 26  1  0  0  0  0
 26 19  2  0  0  0  0
 27 24  2  0  0  0  0
 27 12  1  0  0  0  0
 28 30  1  0  0  0  0
 30 29  1  0  0  0  0
M  END
>  <MODEL>
5

>  <REMARK>
 VINA RESULT:      -6.4      2.354      5.282
  Name = 
  2 active torsions:
  status: ('A' for Active; 'I' for Inactive)
    1  A    between atoms: C_11  and  C_28
    2  A    between atoms: C_28  and  N_30
                            x       y       z     vdW  Elec       q    Type
                         _______ _______ _______ _____ _____    ______ ____

>  <TORSDO>
F 2

$$$$
