=
 OpenBabel11122412313D

 30 35  0  0  1  0  0  0  0  0999 V2000
  158.9280  211.4750  155.3310 C   0  0  0  0  0  0  0  0  0  0  0  0
  156.7100  212.3780  156.0080 C   0  0  0  0  0  0  0  0  0  0  0  0
  158.6760  213.3490  151.5750 N   0  0  0  0  0  2  0  0  0  0  0  0
  159.9690  211.4060  154.3730 C   0  0  0  0  0  0  0  0  0  0  0  0
  159.0600  210.7700  156.5360 O   0  0  0  0  0  0  0  0  0  0  0  0
  162.3390  209.7090  156.5590 O   0  0  0  0  0  0  0  0  0  0  0  0
  161.0260  209.4690  152.4380 C   0  0  1  0  0  3  0  0  0  0  0  0
  161.2860  210.0300  156.0320 C   0  0  0  0  0  0  0  0  0  0  0  0
  160.7430  210.5770  151.4150 C   0  0  2  0  0  3  0  0  0  0  0  0
  159.9150  212.8940  151.0360 C   0  0  0  0  0  0  0  0  0  0  0  0
  159.9900  209.7000  156.7060 C   0  0  2  0  0  3  0  0  0  0  0  0
  161.2930  210.7410  154.7070 C   0  0  1  0  0  3  0  0  0  0  0  0
  155.5790  213.1370  155.6960 C   0  0  0  0  0  3  0  0  0  0  0  0
  161.7830  210.4090  150.3330 C   0  0  0  0  0  2  0  0  0  0  0  0
  161.6900  208.3550  151.6450 C   0  0  0  0  0  2  0  0  0  0  0  0
  156.7680  211.7680  157.2560 O   0  0  0  0  0  1  0  0  0  0  0  0
  158.6610  212.7890  152.8790 C   0  0  0  0  0  0  0  0  0  0  0  0
  155.4680  213.7780  154.4620 C   0  0  0  0  0  3  0  0  0  0  0  0
  157.7610  212.2490  155.0690 C   0  0  0  0  0  0  0  0  0  0  0  0
  159.7950  212.0610  153.1530 C   0  0  0  0  0  0  0  0  0  0  0  0
  160.3100  213.2220  149.8880 O   0  0  0  0  0  0  0  0  0  0  0  0
  160.6970  212.0100  151.9660 C   0  0  1  0  0  3  0  0  0  0  0  0
  162.0450  208.9190  150.2770 C   0  0  0  0  0  2  0  0  0  0  0  0
  163.1200  210.4770  153.1620 O   0  0  0  0  0  1  0  0  0  0  0  0
  156.4920  213.6660  153.5230 C   0  0  0  0  0  3  0  0  0  0  0  0
  157.6340  212.9130  153.8150 C   0  0  0  0  0  0  0  0  0  0  0  0
  161.9400  209.8770  153.6100 C   0  0  2  0  0  3  0  0  0  0  0  0
  159.4310  208.4030  156.1290 C   0  0  0  0  0  2  0  0  0  0  0  0
  160.5800  206.6750  154.7490 C   0  0  0  0  0  1  0  0  0  0  0  0
  160.4820  207.3050  156.1250 C   0  0  0  0  0  2  0  0  0  0  0  0
  1  5  1  0  0  0  0
  2 16  1  0  0  0  0
  3 17  1  0  0  0  0
  4  1  2  0  0  0  0
  5 11  1  0  0  0  0
  7 15  1  6  0  0  0
  7 27  1  0  0  0  0
  8  6  2  0  0  0  0
  8 11  1  0  0  0  0
  9 14  1  6  0  0  0
  9 22  1  0  0  0  0
  9  7  1  0  0  0  0
 10  3  1  0  0  0  0
 11 28  1  6  0  0  0
 12  4  1  6  0  0  0
 12  8  1  0  0  0  0
 13  2  1  0  0  0  0
 17 20  2  0  0  0  0
 17 26  1  0  0  0  0
 18 13  2  0  0  0  0
 19  1  1  0  0  0  0
 19  2  2  0  0  0  0
 20  4  1  0  0  0  0
 21 10  2  0  0  0  0
 22 10  1  6  0  0  0
 22 20  1  0  0  0  0
 23 14  1  0  0  0  0
 23 15  1  0  0  0  0
 25 26  2  0  0  0  0
 25 18  1  0  0  0  0
 26 19  1  0  0  0  0
 27 24  1  6  0  0  0
 27 12  1  0  0  0  0
 29 30  1  0  0  0  0
 30 28  1  0  0  0  0
M  END
>  <MODEL>
1

>  <REMARK>
 VINA RESULT:      -5.3      0.000      0.000
  Name = 
  2 active torsions:
  status: ('A' for Active; 'I' for Inactive)
    1  A    between atoms: C_11  and  C_28
    2  A    between atoms: C_28  and  C_30
                            x       y       z     vdW  Elec       q    Type
                         _______ _______ _______ _____ _____    ______ ____

>  <TORSDO>
F 2

$$$$
=
 OpenBabel11122412313D

 30 35  0  0  1  0  0  0  0  0999 V2000
  161.6310  210.1160  149.8590 C   0  0  0  0  0  0  0  0  0  0  0  0
  162.2340  207.7190  149.5690 C   0  0  0  0  0  0  0  0  0  0  0  0
  160.1030  209.3870  153.7080 N   0  0  0  0  0  2  0  0  0  0  0  0
  161.1200  211.1480  150.6850 C   0  0  0  0  0  0  0  0  0  0  0  0
  162.0640  210.4300  148.5630 O   0  0  0  0  0  0  0  0  0  0  0  0
  162.0910  213.8750  148.4720 O   0  0  0  0  0  0  0  0  0  0  0  0
  158.6780  212.7620  150.8970 C   0  0  1  0  0  3  0  0  0  0  0  0
  161.6950  212.7840  148.8470 C   0  0  0  0  0  0  0  0  0  0  0  0
  158.6090  212.1820  152.3160 C   0  0  2  0  0  3  0  0  0  0  0  0
  159.6820  210.7140  154.0160 C   0  0  0  0  0  0  0  0  0  0  0  0
  161.6830  211.6310  147.8920 C   0  0  2  0  0  3  0  0  0  0  0  0
  161.2090  212.6030  150.2590 C   0  0  1  0  0  3  0  0  0  0  0  0
  162.2640  206.4200  150.0830 C   0  0  0  0  0  3  0  0  0  0  0  0
  157.9430  213.2440  153.1590 C   0  0  0  0  0  2  0  0  0  0  0  0
  157.5160  213.7390  150.8080 C   0  0  0  0  0  2  0  0  0  0  0  0
  162.7450  207.9340  148.2930 O   0  0  0  0  0  1  0  0  0  0  0  0
  160.6700  209.5160  152.4140 C   0  0  0  0  0  0  0  0  0  0  0  0
  161.7720  206.1460  151.3590 C   0  0  0  0  0  3  0  0  0  0  0  0
  161.7000  208.7780  150.3420 C   0  0  0  0  0  0  0  0  0  0  0  0
  160.6340  210.8090  151.9480 C   0  0  0  0  0  0  0  0  0  0  0  0
  159.1560  211.0140  155.1180 O   0  0  0  0  0  0  0  0  0  0  0  0
  159.9400  211.7060  152.9170 C   0  0  1  0  0  3  0  0  0  0  0  0
  156.9790  213.9350  152.2180 C   0  0  0  0  0  2  0  0  0  0  0  0
  160.3170  214.4530  151.5150 O   0  0  0  0  0  1  0  0  0  0  0  0
  161.2430  207.1740  152.1380 C   0  0  0  0  0  3  0  0  0  0  0  0
  161.2050  208.4820  151.6450 C   0  0  0  0  0  0  0  0  0  0  0  0
  159.9890  213.4950  150.5520 C   0  0  2  0  0  3  0  0  0  0  0  0
  160.2920  211.4900  147.2810 C   0  0  0  0  0  2  0  0  0  0  0  0
  158.3090  212.9910  147.1200 C   0  0  0  0  0  1  0  0  0  0  0  0
  159.7760  212.8260  146.7720 C   0  0  0  0  0  2  0  0  0  0  0  0
  1 19  2  0  0  0  0
  1  4  1  0  0  0  0
  2 13  2  0  0  0  0
  2 19  1  0  0  0  0
  3 10  1  0  0  0  0
  4 20  2  0  0  0  0
  5  1  1  0  0  0  0
  6  8  2  0  0  0  0
  7 15  1  1  0  0  0
  7  9  1  0  0  0  0
  9 22  1  0  0  0  0
  9 14  1  1  0  0  0
 10 21  2  0  0  0  0
 11 28  1  1  0  0  0
 11  5  1  0  0  0  0
 11  8  1  0  0  0  0
 12  8  1  6  0  0  0
 12 27  1  0  0  0  0
 12  4  1  0  0  0  0
 13 18  1  0  0  0  0
 15 23  1  0  0  0  0
 16  2  1  0  0  0  0
 17  3  1  0  0  0  0
 18 25  2  0  0  0  0
 19 26  1  0  0  0  0
 20 17  1  0  0  0  0
 22 20  1  6  0  0  0
 22 10  1  0  0  0  0
 23 14  1  0  0  0  0
 26 25  1  0  0  0  0
 26 17  2  0  0  0  0
 27  7  1  0  0  0  0
 27 24  1  1  0  0  0
 30 29  1  0  0  0  0
 30 28  1  0  0  0  0
M  END
>  <MODEL>
2

>  <REMARK>
 VINA RESULT:      -4.8      2.407      7.292
  Name = 
  2 active torsions:
  status: ('A' for Active; 'I' for Inactive)
    1  A    between atoms: C_11  and  C_28
    2  A    between atoms: C_28  and  C_30
                            x       y       z     vdW  Elec       q    Type
                         _______ _______ _______ _____ _____    ______ ____

>  <TORSDO>
F 2

$$$$
=
 OpenBabel11122412313D

 30 35  0  0  1  0  0  0  0  0999 V2000
  161.9450  207.8400  149.5550 C   0  0  0  0  0  0  0  0  0  0  0  0
  161.6930  205.8670  148.0600 C   0  0  0  0  0  0  0  0  0  0  0  0
  160.7530  205.6000  152.9080 N   0  0  0  0  0  2  0  0  0  0  0  0
  161.9040  208.3860  150.8610 C   0  0  0  0  0  0  0  0  0  0  0  0
  162.2920  208.6690  148.4790 O   0  0  0  0  0  0  0  0  0  0  0  0
  163.4280  211.5690  149.9540 O   0  0  0  0  0  0  0  0  0  0  0  0
  160.1680  210.1560  152.4320 C   0  0  1  0  0  3  0  0  0  0  0  0
  162.7480  210.5580  149.8850 C   0  0  0  0  0  0  0  0  0  0  0  0
  160.0910  208.9620  153.3940 C   0  0  2  0  0  3  0  0  0  0  0  0
  160.8300  206.6370  153.8840 C   0  0  0  0  0  0  0  0  0  0  0  0
  162.2430  210.0940  148.5550 C   0  0  2  0  0  3  0  0  0  0  0  0
  162.4090  209.7920  151.1340 C   0  0  1  0  0  3  0  0  0  0  0  0
  161.3620  204.5180  147.9000 C   0  0  0  0  0  3  0  0  0  0  0  0
  159.9170  209.5590  154.7710 C   0  0  0  0  0  2  0  0  0  0  0  0
  159.3860  211.2680  153.1130 C   0  0  0  0  0  2  0  0  0  0  0  0
  162.0830  206.5850  146.9350 O   0  0  0  0  0  1  0  0  0  0  0  0
  161.1660  206.2450  151.7130 C   0  0  0  0  0  0  0  0  0  0  0  0
  160.9700  203.7460  148.9940 C   0  0  0  0  0  3  0  0  0  0  0  0
  161.6330  206.4670  149.3400 C   0  0  0  0  0  0  0  0  0  0  0  0
  161.4950  207.5650  151.9130 C   0  0  0  0  0  0  0  0  0  0  0  0
  160.5710  206.4370  155.0990 O   0  0  0  0  0  0  0  0  0  0  0  0
  161.2580  207.9660  153.3300 C   0  0  1  0  0  3  0  0  0  0  0  0
  159.1220  210.8270  154.5450 C   0  0  0  0  0  2  0  0  0  0  0  0
  162.3320  210.8820  153.2800 O   0  0  0  0  0  1  0  0  0  0  0  0
  160.9060  204.3160  150.2640 C   0  0  0  0  0  3  0  0  0  0  0  0
  161.2350  205.6630  150.4470 C   0  0  0  0  0  0  0  0  0  0  0  0
  161.5930  210.6520  152.1160 C   0  0  2  0  0  3  0  0  0  0  0  0
  160.8170  210.5960  148.3470 C   0  0  0  0  0  2  0  0  0  0  0  0
  160.5720  213.0750  148.4470 C   0  0  0  0  0  1  0  0  0  0  0  0
  160.7990  211.8820  147.5380 C   0  0  0  0  0  2  0  0  0  0  0  0
  1  4  1  0  0  0  0
  2 19  1  0  0  0  0
  3 10  1  0  0  0  0
  4 12  1  0  0  0  0
  4 20  2  0  0  0  0
  5 11  1  0  0  0  0
  5  1  1  0  0  0  0
  7 15  1  1  0  0  0
  7  9  1  0  0  0  0
  8  6  2  0  0  0  0
  9 14  1  1  0  0  0
 10 21  2  0  0  0  0
 11 28  1  1  0  0  0
 11  8  1  0  0  0  0
 12  8  1  6  0  0  0
 12 27  1  0  0  0  0
 13  2  2  0  0  0  0
 13 18  1  0  0  0  0
 15 23  1  0  0  0  0
 16  2  1  0  0  0  0
 17 20  1  0  0  0  0
 17  3  1  0  0  0  0
 18 25  2  0  0  0  0
 19  1  2  0  0  0  0
 19 26  1  0  0  0  0
 22 20  1  6  0  0  0
 22  9  1  0  0  0  0
 22 10  1  0  0  0  0
 23 14  1  0  0  0  0
 25 26  1  0  0  0  0
 26 17  2  0  0  0  0
 27  7  1  0  0  0  0
 27 24  1  1  0  0  0
 30 28  1  0  0  0  0
 30 29  1  0  0  0  0
M  END
>  <MODEL>
3

>  <REMARK>
 VINA RESULT:      -4.6      3.313      7.829
  Name = 
  2 active torsions:
  status: ('A' for Active; 'I' for Inactive)
    1  A    between atoms: C_11  and  C_28
    2  A    between atoms: C_28  and  C_30
                            x       y       z     vdW  Elec       q    Type
                         _______ _______ _______ _____ _____    ______ ____

>  <TORSDO>
F 2

$$$$
=
 OpenBabel11122412313D

 30 35  0  0  1  0  0  0  0  0999 V2000
  161.7410  205.4460  149.7670 C   0  0  0  0  0  0  0  0  0  0  0  0
  161.1440  203.0620  149.3700 C   0  0  0  0  0  0  0  0  0  0  0  0
  160.9480  205.0810  153.8800 N   0  0  0  0  0  2  0  0  0  0  0  0
  161.9350  206.5130  150.6780 C   0  0  0  0  0  0  0  0  0  0  0  0
  161.9670  205.6650  148.4000 O   0  0  0  0  0  0  0  0  0  0  0  0
  163.4880  208.7540  148.2610 O   0  0  0  0  0  0  0  0  0  0  0  0
  160.5700  208.9920  151.4540 C   0  0  1  0  0  3  0  0  0  0  0  0
  162.7460  207.9090  148.7350 C   0  0  0  0  0  0  0  0  0  0  0  0
  160.5700  208.3660  152.8540 C   0  0  2  0  0  3  0  0  0  0  0  0
  161.2360  206.4250  154.2630 C   0  0  0  0  0  0  0  0  0  0  0  0
  162.0150  206.9710  147.8260 C   0  0  2  0  0  3  0  0  0  0  0  0
  162.5590  207.8210  150.2240 C   0  0  1  0  0  3  0  0  0  0  0  0
  160.7130  201.8340  149.8780 C   0  0  0  0  0  3  0  0  0  0  0  0
  160.6470  209.5250  153.8200 C   0  0  0  0  0  2  0  0  0  0  0  0
  159.9700  210.3770  151.6360 C   0  0  0  0  0  2  0  0  0  0  0  0
  161.3990  203.1560  148.0060 O   0  0  0  0  0  1  0  0  0  0  0  0
  161.2100  205.0760  152.4850 C   0  0  0  0  0  0  0  0  0  0  0  0
  160.4480  201.6790  151.2390 C   0  0  0  0  0  3  0  0  0  0  0  0
  161.3180  204.1690  150.2360 C   0  0  0  0  0  0  0  0  0  0  0  0
  161.6440  206.2970  152.0260 C   0  0  0  0  0  0  0  0  0  0  0  0
  161.1560  206.8150  155.4560 O   0  0  0  0  0  0  0  0  0  0  0  0
  161.6520  207.3090  153.1220 C   0  0  1  0  0  3  0  0  0  0  0  0
  159.9030  210.6510  153.1320 C   0  0  0  0  0  2  0  0  0  0  0  0
  162.8770  209.7460  151.6340 O   0  0  0  0  0  1  0  0  0  0  0  0
  160.6150  202.7540  152.1100 C   0  0  0  0  0  3  0  0  0  0  0  0
  161.0480  203.9920  151.6230 C   0  0  0  0  0  0  0  0  0  0  0  0
  161.9560  209.1190  150.7920 C   0  0  2  0  0  3  0  0  0  0  0  0
  160.6070  207.5000  147.5710 C   0  0  0  0  0  2  0  0  0  0  0  0
  160.4560  206.2030  145.4480 C   0  0  0  0  0  1  0  0  0  0  0  0
  159.7810  206.5060  146.7720 C   0  0  0  0  0  2  0  0  0  0  0  0
  1 19  2  0  0  0  0
  1  4  1  0  0  0  0
  2 13  2  0  0  0  0
  2 19  1  0  0  0  0
  3 10  1  0  0  0  0
  4 20  2  0  0  0  0
  5  1  1  0  0  0  0
  6  8  2  0  0  0  0
  7 15  1  1  0  0  0
  7  9  1  0  0  0  0
  9 22  1  0  0  0  0
  9 14  1  1  0  0  0
 10 21  2  0  0  0  0
 11 28  1  1  0  0  0
 11  5  1  0  0  0  0
 11  8  1  0  0  0  0
 12  8  1  6  0  0  0
 12  4  1  0  0  0  0
 12 27  1  0  0  0  0
 13 18  1  0  0  0  0
 15 23  1  0  0  0  0
 16  2  1  0  0  0  0
 17  3  1  0  0  0  0
 18 25  2  0  0  0  0
 19 26  1  0  0  0  0
 20 17  1  0  0  0  0
 22 20  1  6  0  0  0
 22 10  1  0  0  0  0
 23 14  1  0  0  0  0
 26 25  1  0  0  0  0
 26 17  2  0  0  0  0
 27  7  1  0  0  0  0
 27 24  1  1  0  0  0
 29 30  1  0  0  0  0
 30 28  1  0  0  0  0
M  END
>  <MODEL>
4

>  <REMARK>
 VINA RESULT:      -4.2      4.283      8.460
  Name = 
  2 active torsions:
  status: ('A' for Active; 'I' for Inactive)
    1  A    between atoms: C_11  and  C_28
    2  A    between atoms: C_28  and  C_30
                            x       y       z     vdW  Elec       q    Type
                         _______ _______ _______ _____ _____    ______ ____

>  <TORSDO>
F 2

$$$$
=
 OpenBabel11122412313D

 30 35  0  0  1  0  0  0  0  0999 V2000
  159.9760  212.0160  153.4230 C   0  0  0  0  0  0  0  0  0  0  0  0
  159.0840  213.7560  151.8840 C   0  0  0  0  0  0  0  0  0  0  0  0
  161.7940  209.9610  150.2370 N   0  0  0  0  0  2  0  0  0  0  0  0
  160.7590  210.8510  153.6160 C   0  0  0  0  0  0  0  0  0  0  0  0
  159.3500  212.6070  154.5300 O   0  0  0  0  0  0  0  0  0  0  0  0
  160.7070  210.9940  157.2560 O   0  0  0  0  0  0  0  0  0  0  0  0
  160.3270  207.9980  154.1510 C   0  0  1  0  0  3  0  0  0  0  0  0
  160.3390  211.0830  156.0960 C   0  0  0  0  0  0  0  0  0  0  0  0
  161.1240  207.7980  152.8550 C   0  0  2  0  0  3  0  0  0  0  0  0
  162.3550  208.8820  150.9830 C   0  0  0  0  0  0  0  0  0  0  0  0
  159.1410  211.9140  155.7600 C   0  0  2  0  0  3  0  0  0  0  0  0
  161.0810  210.3490  155.0120 C   0  0  1  0  0  3  0  0  0  0  0  0
  158.9550  214.2540  150.5850 C   0  0  0  0  0  3  0  0  0  0  0  0
  161.8530  206.4850  153.0220 C   0  0  0  0  0  2  0  0  0  0  0  0
  160.0640  206.5960  154.6780 C   0  0  0  0  0  2  0  0  0  0  0  0
  158.4720  214.4530  152.9200 O   0  0  0  0  0  1  0  0  0  0  0  0
  161.1620  210.7520  151.2320 C   0  0  0  0  0  0  0  0  0  0  0  0
  159.5520  213.6000  149.5070 C   0  0  0  0  0  3  0  0  0  0  0  0
  159.8270  212.5740  152.1220 C   0  0  0  0  0  0  0  0  0  0  0  0
  161.3230  210.2370  152.4960 C   0  0  0  0  0  0  0  0  0  0  0  0
  163.0380  207.9750  150.4420 O   0  0  0  0  0  0  0  0  0  0  0  0
  162.0650  208.9440  152.4560 C   0  0  1  0  0  3  0  0  0  0  0  0
  160.9320  205.6380  153.8750 C   0  0  0  0  0  2  0  0  0  0  0  0
  162.3270  208.3470  155.4940 O   0  0  0  0  0  1  0  0  0  0  0  0
  160.2890  212.4360  149.7190 C   0  0  0  0  0  3  0  0  0  0  0  0
  160.4340  211.9210  151.0110 C   0  0  0  0  0  0  0  0  0  0  0  0
  161.0400  208.8270  155.2370 C   0  0  2  0  0  3  0  0  0  0  0  0
  157.9080  211.0200  155.6730 C   0  0  0  0  0  2  0  0  0  0  0  0
  155.5180  210.8560  154.9850 C   0  0  0  0  0  1  0  0  0  0  0  0
  156.7410  211.7520  155.0320 C   0  0  0  0  0  2  0  0  0  0  0  0
  1  4  1  0  0  0  0
  1  5  1  0  0  0  0
  2 19  1  0  0  0  0
  2 16  1  0  0  0  0
  3 10  1  0  0  0  0
  3 17  1  0  0  0  0
  5 11  1  0  0  0  0
  7 15  1  1  0  0  0
  7 27  1  0  0  0  0
  8  6  2  0  0  0  0
  9 14  1  1  0  0  0
  9  7  1  0  0  0  0
 11 28  1  6  0  0  0
 11  8  1  0  0  0  0
 12  4  1  6  0  0  0
 12 27  1  0  0  0  0
 12  8  1  0  0  0  0
 13  2  2  0  0  0  0
 14 23  1  0  0  0  0
 17 20  1  0  0  0  0
 18 25  2  0  0  0  0
 18 13  1  0  0  0  0
 19  1  2  0  0  0  0
 20  4  2  0  0  0  0
 21 10  2  0  0  0  0
 22 10  1  6  0  0  0
 22 20  1  0  0  0  0
 22  9  1  0  0  0  0
 23 15  1  0  0  0  0
 25 26  1  0  0  0  0
 26 17  2  0  0  0  0
 26 19  1  0  0  0  0
 27 24  1  6  0  0  0
 29 30  1  0  0  0  0
 30 28  1  0  0  0  0
M  END
>  <MODEL>
5

>  <REMARK>
 VINA RESULT:      -4.2      1.941      4.135
  Name = 
  2 active torsions:
  status: ('A' for Active; 'I' for Inactive)
    1  A    between atoms: C_11  and  C_28
    2  A    between atoms: C_28  and  C_30
                            x       y       z     vdW  Elec       q    Type
                         _______ _______ _______ _____ _____    ______ ____

>  <TORSDO>
F 2

$$$$
=
 OpenBabel11122412313D

 30 35  0  0  1  0  0  0  0  0999 V2000
  160.3340  210.8540  152.9140 C   0  0  0  0  0  0  0  0  0  0  0  0
  161.7490  211.0400  150.8750 C   0  0  0  0  0  0  0  0  0  0  0  0
  157.6230  213.7090  151.4350 N   0  0  0  0  0  2  0  0  0  0  0  0
  159.1600  211.2260  153.6150 C   0  0  0  0  0  0  0  0  0  0  0  0
  161.2220  209.9420  153.5030 O   0  0  0  0  0  0  0  0  0  0  0  0
  159.5160  208.7210  156.2370 O   0  0  0  0  0  0  0  0  0  0  0  0
  158.4300  212.9020  155.9100 C   0  0  1  0  0  3  0  0  0  0  0  0
  159.8080  209.5630  155.4040 C   0  0  0  0  0  0  0  0  0  0  0  0
  157.5340  213.6230  154.8950 C   0  0  2  0  0  3  0  0  0  0  0  0
  156.7250  213.7300  152.5430 C   0  0  0  0  0  0  0  0  0  0  0  0
  161.2150  209.6520  154.9010 C   0  0  2  0  0  3  0  0  0  0  0  0
  158.7590  210.5140  154.8950 C   0  0  1  0  0  3  0  0  0  0  0  0
  161.9800  211.6210  149.6250 C   0  0  0  0  0  3  0  0  0  0  0  0
  156.3470  214.1270  155.6830 C   0  0  0  0  0  2  0  0  0  0  0  0
  158.1350  213.5670  157.2450 C   0  0  0  0  0  2  0  0  0  0  0  0
  162.6610  210.1000  151.3410 O   0  0  0  0  0  1  0  0  0  0  0  0
  158.5890  212.7410  151.8170 C   0  0  0  0  0  0  0  0  0  0  0  0
  161.0960  212.5660  149.1040 C   0  0  0  0  0  3  0  0  0  0  0  0
  160.6080  211.4050  151.6290 C   0  0  0  0  0  0  0  0  0  0  0  0
  158.3200  212.1820  153.0440 C   0  0  0  0  0  0  0  0  0  0  0  0
  155.6960  214.4530  152.5600 O   0  0  0  0  0  0  0  0  0  0  0  0
  157.1150  212.8070  153.6630 C   0  0  1  0  0  3  0  0  0  0  0  0
  156.9000  214.4350  157.0580 C   0  0  0  0  0  2  0  0  0  0  0  0
  156.8420  211.0850  156.2350 O   0  0  0  0  0  1  0  0  0  0  0  0
  159.9650  212.9390  149.8290 C   0  0  0  0  0  3  0  0  0  0  0  0
  159.7130  212.3680  151.0800 C   0  0  0  0  0  0  0  0  0  0  0  0
  158.1920  211.3840  156.0320 C   0  0  2  0  0  3  0  0  0  0  0  0
  161.9680  210.7270  155.6790 C   0  0  0  0  0  2  0  0  0  0  0  0
  163.8930  211.1130  157.2140 C   0  0  0  0  0  1  0  0  0  0  0  0
  162.8500  210.1130  156.7520 C   0  0  0  0  0  2  0  0  0  0  0  0
  1  5  1  0  0  0  0
  1  4  1  0  0  0  0
  2 16  1  0  0  0  0
  2 19  1  0  0  0  0
  3 17  1  0  0  0  0
  3 10  1  0  0  0  0
  5 11  1  0  0  0  0
  7 27  1  0  0  0  0
  7 15  1  1  0  0  0
  8  6  2  0  0  0  0
  9 14  1  1  0  0  0
  9  7  1  0  0  0  0
 10 21  2  0  0  0  0
 11  8  1  0  0  0  0
 11 28  1  1  0  0  0
 12  4  1  6  0  0  0
 12  8  1  0  0  0  0
 12 27  1  0  0  0  0
 13  2  2  0  0  0  0
 14 23  1  0  0  0  0
 17 20  1  0  0  0  0
 18 13  1  0  0  0  0
 18 25  2  0  0  0  0
 19  1  2  0  0  0  0
 20  4  2  0  0  0  0
 20 22  1  0  0  0  0
 22 10  1  6  0  0  0
 22  9  1  0  0  0  0
 23 15  1  0  0  0  0
 25 26  1  0  0  0  0
 26 19  1  0  0  0  0
 26 17  2  0  0  0  0
 27 24  1  6  0  0  0
 28 30  1  0  0  0  0
 30 29  1  0  0  0  0
M  END
>  <MODEL>
6

>  <REMARK>
 VINA RESULT:      -3.9      1.778      5.418
  Name = 
  2 active torsions:
  status: ('A' for Active; 'I' for Inactive)
    1  A    between atoms: C_11  and  C_28
    2  A    between atoms: C_28  and  C_30
                            x       y       z     vdW  Elec       q    Type
                         _______ _______ _______ _____ _____    ______ ____

>  <TORSDO>
F 2

$$$$
=
 OpenBabel11122412313D

 30 35  0  0  1  0  0  0  0  0999 V2000
  160.8670  210.5050  151.7450 C   0  0  0  0  0  0  0  0  0  0  0  0
  161.8610  208.6800  150.3760 C   0  0  0  0  0  0  0  0  0  0  0  0
  160.7140  208.0320  155.1430 N   0  0  0  0  0  2  0  0  0  0  0  0
  160.4080  210.9660  153.0030 C   0  0  0  0  0  0  0  0  0  0  0  0
  160.8280  211.3720  150.6440 O   0  0  0  0  0  0  0  0  0  0  0  0
  160.0850  214.4530  151.9980 O   0  0  0  0  0  0  0  0  0  0  0  0
  157.8450  211.5520  154.3070 C   0  0  1  0  0  3  0  0  0  0  0  0
  160.0590  213.2340  151.9470 C   0  0  0  0  0  0  0  0  0  0  0  0
  158.3170  210.5210  155.3400 C   0  0  2  0  0  3  0  0  0  0  0  0
  160.1260  208.9650  156.0470 C   0  0  0  0  0  0  0  0  0  0  0  0
  160.0200  212.5490  150.6170 C   0  0  2  0  0  3  0  0  0  0  0  0
  160.0550  212.4270  153.2160 C   0  0  1  0  0  3  0  0  0  0  0  0
  162.3180  207.3620  150.2850 C   0  0  0  0  0  3  0  0  0  0  0  0
  157.7110  210.9540  156.6540 C   0  0  0  0  0  2  0  0  0  0  0  0
  156.5260  212.0820  154.8450 C   0  0  0  0  0  2  0  0  0  0  0  0
  161.9220  209.4760  149.2370 O   0  0  0  0  0  1  0  0  0  0  0  0
  160.8410  208.7780  153.9410 C   0  0  0  0  0  0  0  0  0  0  0  0
  162.2880  206.5190  151.3950 C   0  0  0  0  0  3  0  0  0  0  0  0
  161.3590  209.1760  151.6030 C   0  0  0  0  0  0  0  0  0  0  0  0
  160.3940  210.0710  154.0740 C   0  0  0  0  0  0  0  0  0  0  0  0
  159.8900  208.6780  157.2490 O   0  0  0  0  0  0  0  0  0  0  0  0
  159.8350  210.3060  155.4370 C   0  0  1  0  0  3  0  0  0  0  0  0
  156.3910  211.5930  156.2800 C   0  0  0  0  0  2  0  0  0  0  0  0
  159.1880  213.3410  155.2680 O   0  0  0  0  0  1  0  0  0  0  0  0
  161.7990  206.9870  152.6140 C   0  0  0  0  0  3  0  0  0  0  0  0
  161.3390  208.3030  152.7290 C   0  0  0  0  0  0  0  0  0  0  0  0
  158.8100  212.7310  154.0690 C   0  0  2  0  0  3  0  0  0  0  0  0
  158.5760  212.2030  150.2640 C   0  0  0  0  0  2  0  0  0  0  0  0
  157.0950  212.9730  148.4130 C   0  0  0  0  0  1  0  0  0  0  0  0
  157.8580  213.3960  149.6540 C   0  0  0  0  0  2  0  0  0  0  0  0
  1  4  1  0  0  0  0
  2 19  1  0  0  0  0
  3 10  1  0  0  0  0
  4 12  1  0  0  0  0
  4 20  2  0  0  0  0
  5  1  1  0  0  0  0
  7 15  1  1  0  0  0
  7  9  1  0  0  0  0
  8  6  2  0  0  0  0
  9 22  1  0  0  0  0
  9 14  1  1  0  0  0
 10 21  2  0  0  0  0
 11 28  1  1  0  0  0
 11  5  1  0  0  0  0
 11  8  1  0  0  0  0
 12  8  1  6  0  0  0
 12 27  1  0  0  0  0
 13  2  2  0  0  0  0
 13 18  1  0  0  0  0
 15 23  1  0  0  0  0
 16  2  1  0  0  0  0
 17 20  1  0  0  0  0
 17  3  1  0  0  0  0
 18 25  2  0  0  0  0
 19  1  2  0  0  0  0
 19 26  1  0  0  0  0
 22 20  1  6  0  0  0
 22 10  1  0  0  0  0
 23 14  1  0  0  0  0
 25 26  1  0  0  0  0
 26 17  2  0  0  0  0
 27  7  1  0  0  0  0
 27 24  1  1  0  0  0
 29 30  1  0  0  0  0
 30 28  1  0  0  0  0
M  END
>  <MODEL>
7

>  <REMARK>
 VINA RESULT:      -3.7      2.171      6.867
  Name = 
  2 active torsions:
  status: ('A' for Active; 'I' for Inactive)
    1  A    between atoms: C_11  and  C_28
    2  A    between atoms: C_28  and  C_30
                            x       y       z     vdW  Elec       q    Type
                         _______ _______ _______ _____ _____    ______ ____

>  <TORSDO>
F 2

$$$$
=
 OpenBabel11122412313D

 30 35  0  0  1  0  0  0  0  0999 V2000
  157.9430  212.6980  153.2060 C   0  0  0  0  0  0  0  0  0  0  0  0
  156.0130  213.8870  152.1790 C   0  0  0  0  0  0  0  0  0  0  0  0
  159.9910  212.6080  149.5340 N   0  0  0  0  0  2  0  0  0  0  0  0
  159.2440  212.1540  153.0720 C   0  0  0  0  0  0  0  0  0  0  0  0
  157.3000  212.6330  154.4500 O   0  0  0  0  0  0  0  0  0  0  0  0
  159.7540  211.5950  156.6360 O   0  0  0  0  0  0  0  0  0  0  0  0
  160.4930  209.5030  152.9150 C   0  0  1  0  0  3  0  0  0  0  0  0
  159.2010  211.6680  155.5510 C   0  0  0  0  0  0  0  0  0  0  0  0
  161.0360  210.0140  151.5740 C   0  0  2  0  0  3  0  0  0  0  0  0
  161.1580  211.9120  149.9690 C   0  0  0  0  0  0  0  0  0  0  0  0
  157.7080  211.7360  155.4830 C   0  0  2  0  0  3  0  0  0  0  0  0
  160.0190  211.6780  154.2880 C   0  0  1  0  0  3  0  0  0  0  0  0
  155.4160  214.4510  151.0480 C   0  0  0  0  0  3  0  0  0  0  0  0
  162.3670  209.3240  151.3840 C   0  0  0  0  0  2  0  0  0  0  0  0
  161.1100  208.1250  153.0970 C   0  0  0  0  0  2  0  0  0  0  0  0
  155.3140  213.9290  153.3800 O   0  0  0  0  0  1  0  0  0  0  0  0
  159.2190  212.7220  150.7200 C   0  0  0  0  0  0  0  0  0  0  0  0
  156.0720  214.4430  149.8170 C   0  0  0  0  0  3  0  0  0  0  0  0
  157.2970  213.2990  152.0870 C   0  0  0  0  0  0  0  0  0  0  0  0
  159.8440  212.1680  151.8120 C   0  0  0  0  0  0  0  0  0  0  0  0
  162.1130  211.6520  149.1930 O   0  0  0  0  0  0  0  0  0  0  0  0
  161.1400  211.5390  151.4240 C   0  0  1  0  0  3  0  0  0  0  0  0
  162.2000  207.9730  152.0460 C   0  0  0  0  0  2  0  0  0  0  0  0
  162.1990  210.6600  154.2100 O   0  0  0  0  0  1  0  0  0  0  0  0
  157.3390  213.8710  149.7040 C   0  0  0  0  0  3  0  0  0  0  0  0
  157.9560  213.3040  150.8240 C   0  0  0  0  0  0  0  0  0  0  0  0
  160.8320  210.3800  154.1370 C   0  0  2  0  0  3  0  0  0  0  0  0
  157.1450  210.3390  155.2370 C   0  0  0  0  0  2  0  0  0  0  0  0
  154.8110  210.2040  156.1030 C   0  0  0  0  0  1  0  0  0  0  0  0
  155.6720  210.3960  154.8690 C   0  0  0  0  0  2  0  0  0  0  0  0
  1  5  1  0  0  0  0
  2 16  1  0  0  0  0
  3 10  1  0  0  0  0
  3 17  1  0  0  0  0
  4  1  1  0  0  0  0
  5 11  1  0  0  0  0
  7 15  1  1  0  0  0
  7 27  1  0  0  0  0
  8  6  2  0  0  0  0
  9 14  1  1  0  0  0
  9  7  1  0  0  0  0
 11 28  1  6  0  0  0
 11  8  1  0  0  0  0
 12  4  1  6  0  0  0
 12  8  1  0  0  0  0
 13  2  2  0  0  0  0
 14 23  1  0  0  0  0
 17 26  2  0  0  0  0
 17 20  1  0  0  0  0
 18 13  1  0  0  0  0
 19  2  1  0  0  0  0
 19  1  2  0  0  0  0
 20  4  2  0  0  0  0
 21 10  2  0  0  0  0
 22 10  1  6  0  0  0
 22  9  1  0  0  0  0
 22 20  1  0  0  0  0
 23 15  1  0  0  0  0
 25 18  2  0  0  0  0
 25 26  1  0  0  0  0
 26 19  1  0  0  0  0
 27 24  1  6  0  0  0
 27 12  1  0  0  0  0
 30 28  1  0  0  0  0
 30 29  1  0  0  0  0
M  END
>  <MODEL>
8

>  <REMARK>
 VINA RESULT:      -3.7      1.985      3.166
  Name = 
  2 active torsions:
  status: ('A' for Active; 'I' for Inactive)
    1  A    between atoms: C_11  and  C_28
    2  A    between atoms: C_28  and  C_30
                            x       y       z     vdW  Elec       q    Type
                         _______ _______ _______ _____ _____    ______ ____

>  <TORSDO>
F 2

$$$$
=
 OpenBabel11122412313D

 30 35  0  0  1  0  0  0  0  0999 V2000
  161.1430  211.0010  151.2830 C   0  0  0  0  0  0  0  0  0  0  0  0
  161.3780  209.4920  153.2480 C   0  0  0  0  0  0  0  0  0  0  0  0
  157.6750  212.7510  152.8940 N   0  0  0  0  0  2  0  0  0  0  0  0
  160.4550  212.0600  150.6420 C   0  0  0  0  0  0  0  0  0  0  0  0
  162.2550  210.4260  150.6510 O   0  0  0  0  0  0  0  0  0  0  0  0
  162.9270  212.5320  148.0070 O   0  0  0  0  0  0  0  0  0  0  0  0
  158.6140  212.4150  148.3850 C   0  0  1  0  0  3  0  0  0  0  0  0
  162.2080  211.9810  148.8240 C   0  0  0  0  0  0  0  0  0  0  0  0
  157.6880  213.0280  149.4440 C   0  0  2  0  0  3  0  0  0  0  0  0
  157.3950  213.6620  151.8330 C   0  0  0  0  0  0  0  0  0  0  0  0
  162.5140  210.5810  149.2560 C   0  0  2  0  0  3  0  0  0  0  0  0
  161.0130  212.7030  149.3840 C   0  0  1  0  0  3  0  0  0  0  0  0
  160.8980  209.0500  154.4840 C   0  0  0  0  0  3  0  0  0  0  0  0
  156.8690  214.0680  148.7160 C   0  0  0  0  0  2  0  0  0  0  0  0
  157.8760  212.5800  147.0660 C   0  0  0  0  0  2  0  0  0  0  0  0
  162.5250  208.8960  152.7380 O   0  0  0  0  0  1  0  0  0  0  0  0
  158.8650  212.1070  152.4650 C   0  0  0  0  0  0  0  0  0  0  0  0
  159.7550  209.6150  155.0490 C   0  0  0  0  0  3  0  0  0  0  0  0
  160.7050  210.5240  152.5520 C   0  0  0  0  0  0  0  0  0  0  0  0
  159.3130  212.5780  151.2530 C   0  0  0  0  0  0  0  0  0  0  0  0
  156.4170  214.4530  151.8670 O   0  0  0  0  0  0  0  0  0  0  0  0
  158.3740  213.5950  150.6960 C   0  0  1  0  0  3  0  0  0  0  0  0
  156.7050  213.5200  147.3140 C   0  0  0  0  0  2  0  0  0  0  0  0
  159.9220  214.4530  148.1420 O   0  0  0  0  0  1  0  0  0  0  0  0
  159.0770  210.6340  154.3820 C   0  0  0  0  0  3  0  0  0  0  0  0
  159.5410  211.0940  153.1450 C   0  0  0  0  0  0  0  0  0  0  0  0
  160.0070  213.0650  148.2770 C   0  0  2  0  0  3  0  0  0  0  0  0
  161.6760  209.6010  148.4400 C   0  0  0  0  0  2  0  0  0  0  0  0
  161.0130  207.2310  148.8380 C   0  0  0  0  0  1  0  0  0  0  0  0
  162.1770  208.1760  148.6070 C   0  0  0  0  0  2  0  0  0  0  0  0
  1 19  1  0  0  0  0
  2 13  1  0  0  0  0
  4 20  1  0  0  0  0
  4  1  2  0  0  0  0
  5  1  1  0  0  0  0
  6  8  2  0  0  0  0
  7 15  1  6  0  0  0
  7  9  1  0  0  0  0
  8 11  1  0  0  0  0
  9 14  1  6  0  0  0
  9 22  1  0  0  0  0
 10 21  2  0  0  0  0
 10  3  1  0  0  0  0
 11 28  1  6  0  0  0
 11  5  1  0  0  0  0
 12  8  1  6  0  0  0
 12  4  1  0  0  0  0
 13 18  2  0  0  0  0
 15 23  1  0  0  0  0
 16  2  1  0  0  0  0
 17  3  1  0  0  0  0
 17 26  1  0  0  0  0
 19 26  1  0  0  0  0
 19  2  2  0  0  0  0
 20 17  2  0  0  0  0
 22 20  1  1  0  0  0
 22 10  1  0  0  0  0
 23 14  1  0  0  0  0
 25 18  1  0  0  0  0
 26 25  2  0  0  0  0
 27 24  1  1  0  0  0
 27  7  1  0  0  0  0
 27 12  1  0  0  0  0
 28 30  1  0  0  0  0
 30 29  1  0  0  0  0
M  END
>  <MODEL>
9

>  <REMARK>
 VINA RESULT:      -3.5      2.495      5.889
  Name = 
  2 active torsions:
  status: ('A' for Active; 'I' for Inactive)
    1  A    between atoms: C_11  and  C_28
    2  A    between atoms: C_28  and  C_30
                            x       y       z     vdW  Elec       q    Type
                         _______ _______ _______ _____ _____    ______ ____

>  <TORSDO>
F 2

$$$$
