=
 OpenBabel11122413053D

 32 38  0  0  1  0  0  0  0  0999 V2000
  161.1790  205.4190  144.2590 O   0  0  0  0  0  0  0  0  0  0  0  0
  161.5050  207.0100  149.1870 C   0  0  2  0  0  3  0  0  0  0  0  0
  161.2690  203.0080  152.1030 C   0  0  0  0  0  3  0  0  0  0  0  0
  160.7300  203.8130  153.1080 C   0  0  0  0  0  3  0  0  0  0  0  0
  161.4250  209.2220  150.2770 C   0  0  1  0  0  3  0  0  0  0  0  0
  161.7150  209.9640  151.5890 C   0  0  1  0  0  3  0  0  0  0  0  0
  162.0570  206.6020  146.7540 C   0  0  1  0  0  3  0  0  0  0  0  0
  161.5700  204.7760  148.2730 O   0  0  0  0  0  0  0  0  0  0  0  0
  161.4000  209.9720  153.8930 C   0  0  2  0  0  3  0  0  0  0  0  0
  162.2740  204.1990  146.0380 C   0  0  0  0  0  2  0  0  0  0  0  0
  161.6570  203.5750  150.8870 C   0  0  0  0  0  3  0  0  0  0  0  0
  161.9760  205.5520  149.3760 C   0  0  2  0  0  3  0  0  0  0  0  0
  161.5020  204.9500  150.6660 C   0  0  0  0  0  0  0  0  0  0  0  0
  160.7900  207.2450  151.4220 C   0  0  1  0  0  3  0  0  0  0  0  0
  160.8560  211.2850  153.3430 C   0  0  0  0  0  2  0  0  0  0  0  0
  160.1830  205.6310  145.2330 C   0  0  2  0  0  3  0  0  0  0  0  0
  162.3890  205.1740  147.2000 C   0  0  1  0  0  3  0  0  0  0  0  0
  160.7410  211.0820  151.8550 C   0  0  0  0  0  2  0  0  0  0  0  0
  160.6150  206.7010  146.2470 C   0  0  0  0  0  2  0  0  0  0  0  0
  161.0010  204.3850  145.2040 C   0  0  1  0  0  0  0  0  0  0  0  0
  160.5930  205.1890  152.9020 C   0  0  0  0  0  3  0  0  0  0  0  0
  161.0070  205.7730  151.6940 C   0  0  0  0  0  0  0  0  0  0  0  0
  160.7110  208.0820  152.7120 C   0  0  0  0  0  2  0  0  0  0  0  0
  162.2490  207.5400  147.9490 C   0  0  0  0  0  2  0  0  0  0  0  0
  162.2130  209.8240  149.2950 O   0  0  0  0  0  1  0  0  0  0  0  0
  162.6210  210.2420  154.7500 C   0  0  0  0  0  1  0  0  0  0  0  0
  161.7450  207.7840  150.4280 N   0  0  1  0  0  0  0  0  0  0  0  0
  161.7580  209.1020  152.7760 N   0  0  1  0  0  0  0  0  0  0  0  0
  160.3480  203.1620  144.5730 C   0  0  0  0  0  2  0  0  0  0  0  0
  160.4290  201.9590  145.4590 C   0  0  0  0  0  0  0  0  0  0  0  0
  160.0770  200.6170  144.9160 C   0  0  0  0  0  1  0  0  0  0  0  0
  160.7540  202.0740  146.6290 O   0  0  0  0  0  0  0  0  0  0  0  0
  1 20  1  0  0  0  0
  1 16  1  0  0  0  0
  2 24  1  6  0  0  0
  2 12  1  0  0  0  0
  2 27  1  0  0  0  0
  3  4  1  0  0  0  0
  5 25  1  6  0  0  0
  5 27  1  0  0  0  0
  5  6  1  0  0  0  0
  6 18  1  1  0  0  0
  6 28  1  0  0  0  0
  7 19  1  1  0  0  0
  7 17  1  0  0  0  0
  7 24  1  0  0  0  0
  9 26  1  6  0  0  0
 11  3  2  0  0  0  0
 12  8  1  6  0  0  0
 12 13  1  0  0  0  0
 13 11  1  0  0  0  0
 13 22  2  0  0  0  0
 14 22  1  0  0  0  0
 14 23  1  1  0  0  0
 15  9  1  0  0  0  0
 16 19  1  1  0  0  0
 17 10  1  6  0  0  0
 17  8  1  0  0  0  0
 18 15  1  0  0  0  0
 20 29  1  6  0  0  0
 20 16  1  0  0  0  0
 20 10  1  0  0  0  0
 21  4  2  0  0  0  0
 22 21  1  0  0  0  0
 23 28  1  0  0  0  0
 27 14  1  0  0  0  0
 28  9  1  0  0  0  0
 29 30  1  0  0  0  0
 30 32  2  0  0  0  0
 31 30  1  0  0  0  0
M  END
>  <MODEL>
1

>  <REMARK>
 VINA RESULT:      -8.3      0.000      0.000
  Name = 
  2 active torsions:
  status: ('A' for Active; 'I' for Inactive)
    1  A    between atoms: C_20  and  C_29
    2  A    between atoms: C_29  and  C_30
                            x       y       z     vdW  Elec       q    Type
                         _______ _______ _______ _____ _____    ______ ____

>  <TORSDO>
F 2

$$$$
=
 OpenBabel11122413053D

 32 38  0  0  1  0  0  0  0  0999 V2000
  160.0810  208.0230  157.0050 O   0  0  0  0  0  0  0  0  0  0  0  0
  161.2720  206.8430  152.0950 C   0  0  2  0  0  3  0  0  0  0  0  0
  162.2320  211.0740  149.6960 C   0  0  0  0  0  3  0  0  0  0  0  0
  161.8250  210.4560  148.5120 C   0  0  0  0  0  3  0  0  0  0  0  0
  161.1370  204.7770  150.7530 C   0  0  1  0  0  3  0  0  0  0  0  0
  161.6060  204.1180  149.4490 C   0  0  1  0  0  3  0  0  0  0  0  0
  161.3210  206.9420  154.6210 C   0  0  1  0  0  3  0  0  0  0  0  0
  161.4340  208.9490  153.2650 O   0  0  0  0  0  0  0  0  0  0  0  0
  161.8110  204.3630  147.1460 C   0  0  2  0  0  3  0  0  0  0  0  0
  161.6970  209.2080  155.6500 C   0  0  0  0  0  2  0  0  0  0  0  0
  162.2610  210.3480  150.8890 C   0  0  0  0  0  3  0  0  0  0  0  0
  161.9660  208.2190  152.1840 C   0  0  2  0  0  3  0  0  0  0  0  0
  161.8750  209.0000  150.9070 C   0  0  0  0  0  0  0  0  0  0  0  0
  161.0440  206.9230  149.7490 C   0  0  1  0  0  3  0  0  0  0  0  0
  160.9860  203.1100  147.4100 C   0  0  0  0  0  2  0  0  0  0  0  0
  159.3060  208.0600  155.8290 C   0  0  2  0  0  3  0  0  0  0  0  0
  161.9340  208.3330  154.4280 C   0  0  1  0  0  3  0  0  0  0  0  0
  160.5730  203.1960  148.8560 C   0  0  0  0  0  2  0  0  0  0  0  0
  159.8030  207.0280  154.8040 C   0  0  0  0  0  2  0  0  0  0  0  0
  160.2590  209.1520  156.1760 C   0  0  1  0  0  0  0  0  0  0  0  0
  161.4610  209.1070  148.5190 C   0  0  0  0  0  3  0  0  0  0  0  0
  161.5130  208.3600  149.7070 C   0  0  0  0  0  0  0  0  0  0  0  0
  161.1410  206.2260  148.3790 C   0  0  0  0  0  2  0  0  0  0  0  0
  161.6440  206.0940  153.3870 C   0  0  0  0  0  2  0  0  0  0  0  0
  161.5980  203.9730  151.7970 O   0  0  0  0  0  1  0  0  0  0  0  0
  163.1430  203.9800  146.5330 C   0  0  0  0  0  1  0  0  0  0  0  0
  161.6740  206.1540  150.8460 N   0  0  1  0  0  0  0  0  0  0  0  0
  162.0270  205.0630  148.4100 N   0  0  1  0  0  0  0  0  0  0  0  0
  159.6540  210.4020  156.8020 C   0  0  0  0  0  2  0  0  0  0  0  0
  159.7870  211.5990  155.9130 C   0  0  0  0  0  0  0  0  0  0  0  0
  159.1370  211.6000  154.5730 C   0  0  0  0  0  1  0  0  0  0  0  0
  160.4470  212.5620  156.2680 O   0  0  0  0  0  0  0  0  0  0  0  0
  2 12  1  0  0  0  0
  2 24  1  1  0  0  0
  3 11  1  0  0  0  0
  4 21  1  0  0  0  0
  4  3  2  0  0  0  0
  5 27  1  0  0  0  0
  5 25  1  1  0  0  0
  6 18  1  6  0  0  0
  6  5  1  0  0  0  0
  7 24  1  6  0  0  0
  7 19  1  0  0  0  0
  8 17  1  0  0  0  0
  9 26  1  1  0  0  0
  9 15  1  0  0  0  0
  9 28  1  0  0  0  0
 10 20  1  0  0  0  0
 11 13  2  0  0  0  0
 12 13  1  6  0  0  0
 12  8  1  0  0  0  0
 14 23  1  6  0  0  0
 14 27  1  0  0  0  0
 15 18  1  0  0  0  0
 16 19  1  6  0  0  0
 16 20  1  0  0  0  0
 16  1  1  0  0  0  0
 17  7  1  0  0  0  0
 17 10  1  1  0  0  0
 20 29  1  1  0  0  0
 20  1  1  0  0  0  0
 21 22  2  0  0  0  0
 22 14  1  0  0  0  0
 22 13  1  0  0  0  0
 23 28  1  0  0  0  0
 27  2  1  0  0  0  0
 28  6  1  0  0  0  0
 30 32  2  0  0  0  0
 30 29  1  0  0  0  0
 31 30  1  0  0  0  0
M  END
>  <MODEL>
2

>  <REMARK>
 VINA RESULT:      -7.4      2.894      8.730
  Name = 
  2 active torsions:
  status: ('A' for Active; 'I' for Inactive)
    1  A    between atoms: C_20  and  C_29
    2  A    between atoms: C_29  and  C_30
                            x       y       z     vdW  Elec       q    Type
                         _______ _______ _______ _____ _____    ______ ____

>  <TORSDO>
F 2

$$$$
=
 OpenBabel11122413053D

 32 38  0  0  1  0  0  0  0  0999 V2000
  161.6950  205.6050  148.6850 O   0  0  0  0  0  0  0  0  0  0  0  0
  160.6500  209.0740  152.4000 C   0  0  2  0  0  3  0  0  0  0  0  0
  160.7810  206.7250  156.7640 C   0  0  0  0  0  3  0  0  0  0  0  0
  159.8800  207.6680  157.2610 C   0  0  0  0  0  3  0  0  0  0  0  0
  159.8390  211.4030  152.3830 C   0  0  1  0  0  3  0  0  0  0  0  0
  159.6780  212.6620  153.2460 C   0  0  1  0  0  3  0  0  0  0  0  0
  161.7560  207.9000  150.4530 C   0  0  1  0  0  3  0  0  0  0  0  0
  161.4170  206.7910  152.5830 O   0  0  0  0  0  0  0  0  0  0  0  0
  158.9170  213.5090  155.2730 C   0  0  2  0  0  3  0  0  0  0  0  0
  162.6680  205.5970  150.9000 C   0  0  0  0  0  2  0  0  0  0  0  0
  161.2600  206.8380  155.4570 C   0  0  0  0  0  3  0  0  0  0  0  0
  161.4020  208.0300  153.2530 C   0  0  2  0  0  3  0  0  0  0  0  0
  160.8350  207.8910  154.6350 C   0  0  0  0  0  0  0  0  0  0  0  0
  159.4690  209.9690  154.2340 C   0  0  1  0  0  3  0  0  0  0  0  0
  158.2020  214.2590  154.1570 C   0  0  0  0  0  2  0  0  0  0  0  0
  160.5030  205.8860  149.3830 C   0  0  2  0  0  3  0  0  0  0  0  0
  162.3180  206.9450  151.5120 C   0  0  1  0  0  3  0  0  0  0  0  0
  158.4360  213.4460  152.9100 C   0  0  0  0  0  2  0  0  0  0  0  0
  160.4620  207.3510  149.8450 C   0  0  0  0  0  2  0  0  0  0  0  0
  161.5800  205.0410  149.9740 C   0  0  1  0  0  0  0  0  0  0  0  0
  159.4680  208.7320  156.4540 C   0  0  0  0  0  3  0  0  0  0  0  0
  159.9660  208.8710  155.1480 C   0  0  0  0  0  0  0  0  0  0  0  0
  158.9410  211.1920  155.0070 C   0  0  0  0  0  2  0  0  0  0  0  0
  161.4800  209.2520  151.1170 C   0  0  0  0  0  2  0  0  0  0  0  0
  160.6430  211.7610  151.2990 O   0  0  0  0  0  1  0  0  0  0  0  0
  159.8450  214.4530  156.0120 C   0  0  0  0  0  1  0  0  0  0  0  0
  160.4500  210.3170  153.1810 N   0  0  1  0  0  0  0  0  0  0  0  0
  159.6840  212.4110  154.6910 N   0  0  1  0  0  0  0  0  0  0  0  0
  161.3710  203.5340  149.9040 C   0  0  0  0  0  2  0  0  0  0  0  0
  161.3070  202.9100  151.2630 C   0  0  0  0  0  0  0  0  0  0  0  0
  160.4700  203.5360  152.3250 C   0  0  0  0  0  1  0  0  0  0  0  0
  161.9550  201.9070  151.5140 O   0  0  0  0  0  0  0  0  0  0  0  0
  1 16  1  0  0  0  0
  1 20  1  0  0  0  0
  2 24  1  6  0  0  0
  2 27  1  0  0  0  0
  2 12  1  0  0  0  0
  3  4  1  0  0  0  0
  5 25  1  6  0  0  0
  5 27  1  0  0  0  0
  5  6  1  0  0  0  0
  6 18  1  6  0  0  0
  6 28  1  0  0  0  0
  7 19  1  1  0  0  0
  7 24  1  0  0  0  0
  7 17  1  0  0  0  0
  9 26  1  6  0  0  0
 11  3  2  0  0  0  0
 12  8  1  6  0  0  0
 12 13  1  0  0  0  0
 13 22  2  0  0  0  0
 13 11  1  0  0  0  0
 14 23  1  1  0  0  0
 14 22  1  0  0  0  0
 15  9  1  0  0  0  0
 16 19  1  1  0  0  0
 16 20  1  0  0  0  0
 17 10  1  6  0  0  0
 17  8  1  0  0  0  0
 18 15  1  0  0  0  0
 20 29  1  1  0  0  0
 20 10  1  0  0  0  0
 21  4  2  0  0  0  0
 22 21  1  0  0  0  0
 27 14  1  0  0  0  0
 28 23  1  0  0  0  0
 28  9  1  0  0  0  0
 29 30  1  0  0  0  0
 30 32  2  0  0  0  0
 30 31  1  0  0  0  0
M  END
>  <MODEL>
3

>  <REMARK>
 VINA RESULT:      -6.0      2.935      4.744
  Name = 
  2 active torsions:
  status: ('A' for Active; 'I' for Inactive)
    1  A    between atoms: C_20  and  C_29
    2  A    between atoms: C_29  and  C_30
                            x       y       z     vdW  Elec       q    Type
                         _______ _______ _______ _____ _____    ______ ____

>  <TORSDO>
F 2

$$$$
=
 OpenBabel11122413053D

 32 38  0  0  1  0  0  0  0  0999 V2000
  160.9170  200.8500  150.7280 O   0  0  0  0  0  0  0  0  0  0  0  0
  161.0290  205.8700  152.0350 C   0  0  2  0  0  3  0  0  0  0  0  0
  161.6300  208.5160  147.8860 C   0  0  0  0  0  3  0  0  0  0  0  0
  162.2440  209.5100  148.6480 C   0  0  0  0  0  3  0  0  0  0  0  0
  161.1640  207.0730  154.1840 C   0  0  1  0  0  3  0  0  0  0  0  0
  160.9860  208.4470  154.8440 C   0  0  1  0  0  3  0  0  0  0  0  0
  160.2550  203.4800  151.7470 C   0  0  1  0  0  3  0  0  0  0  0  0
  160.9260  204.8390  149.8540 O   0  0  0  0  0  0  0  0  0  0  0  0
  161.5200  210.7070  154.7340 C   0  0  2  0  0  3  0  0  0  0  0  0
  160.0240  202.6500  149.3820 C   0  0  0  0  0  2  0  0  0  0  0  0
  161.1150  207.3760  148.5080 C   0  0  0  0  0  3  0  0  0  0  0  0
  160.6100  206.0180  150.5570 C   0  0  2  0  0  3  0  0  0  0  0  0
  161.2180  207.2200  149.8970 C   0  0  0  0  0  0  0  0  0  0  0  0
  161.9490  208.0370  152.1650 C   0  0  1  0  0  3  0  0  0  0  0  0
  161.9800  210.1850  156.0890 C   0  0  0  0  0  2  0  0  0  0  0  0
  161.9970  201.7360  150.9120 C   0  0  2  0  0  3  0  0  0  0  0  0
  159.9990  203.8720  150.2880 C   0  0  1  0  0  3  0  0  0  0  0  0
  161.9560  208.6830  155.9720 C   0  0  0  0  0  2  0  0  0  0  0  0
  161.6400  202.8460  151.9130 C   0  0  0  0  0  2  0  0  0  0  0  0
  161.2060  201.7120  149.6480 C   0  0  1  0  0  0  0  0  0  0  0  0
  162.3310  209.3710  150.0360 C   0  0  0  0  0  3  0  0  0  0  0  0
  161.7910  208.2430  150.6750 C   0  0  0  0  0  0  0  0  0  0  0  0
  162.1320  209.3600  152.9310 C   0  0  0  0  0  2  0  0  0  0  0  0
  160.1590  204.7400  152.6120 C   0  0  0  0  0  2  0  0  0  0  0  0
  160.2730  206.2060  154.8180 O   0  0  0  0  0  1  0  0  0  0  0  0
  160.3810  211.6900  154.9230 C   0  0  0  0  0  1  0  0  0  0  0  0
  160.8920  207.1700  152.7320 N   0  0  1  0  0  0  0  0  0  0  0  0
  161.0750  209.5810  153.9180 N   0  0  1  0  0  0  0  0  0  0  0  0
  161.8220  200.9530  148.4800 C   0  0  0  0  0  2  0  0  0  0  0  0
  161.3790  201.4960  147.1580 C   0  0  0  0  0  0  0  0  0  0  0  0
  161.5810  202.9390  146.8470 C   0  0  0  0  0  1  0  0  0  0  0  0
  160.8310  200.7710  146.3440 O   0  0  0  0  0  0  0  0  0  0  0  0
  1 16  1  0  0  0  0
  2 24  1  1  0  0  0
  2 27  1  0  0  0  0
  3 11  2  0  0  0  0
  3  4  1  0  0  0  0
  4 21  2  0  0  0  0
  5 25  1  1  0  0  0
  5  6  1  0  0  0  0
  6 18  1  1  0  0  0
  7 19  1  6  0  0  0
  7 24  1  0  0  0  0
  8 17  1  0  0  0  0
  9 26  1  1  0  0  0
  9 15  1  0  0  0  0
 10 20  1  0  0  0  0
 11 13  1  0  0  0  0
 12  8  1  6  0  0  0
 12  2  1  0  0  0  0
 13 12  1  0  0  0  0
 13 22  2  0  0  0  0
 14 27  1  0  0  0  0
 14 23  1  1  0  0  0
 16 19  1  1  0  0  0
 17 10  1  6  0  0  0
 17  7  1  0  0  0  0
 18 15  1  0  0  0  0
 20 29  1  6  0  0  0
 20  1  1  0  0  0  0
 20 16  1  0  0  0  0
 21 22  1  0  0  0  0
 22 14  1  0  0  0  0
 23 28  1  0  0  0  0
 27  5  1  0  0  0  0
 28  9  1  0  0  0  0
 28  6  1  0  0  0  0
 30 29  1  0  0  0  0
 31 30  1  0  0  0  0
 32 30  2  0  0  0  0
M  END
>  <MODEL>
4

>  <REMARK>
 VINA RESULT:      -5.9      2.166      4.524
  Name = 
  2 active torsions:
  status: ('A' for Active; 'I' for Inactive)
    1  A    between atoms: C_20  and  C_29
    2  A    between atoms: C_29  and  C_30
                            x       y       z     vdW  Elec       q    Type
                         _______ _______ _______ _____ _____    ______ ____

>  <TORSDO>
F 2

$$$$
=
 OpenBabel11122413053D

 32 38  0  0  1  0  0  0  0  0999 V2000
  160.2810  214.4500  146.0340 O   0  0  0  0  0  0  0  0  0  0  0  0
  160.2130  212.4380  150.8160 C   0  0  2  0  0  3  0  0  0  0  0  0
  162.4450  208.0160  150.6450 C   0  0  0  0  0  3  0  0  0  0  0  0
  161.6670  207.6180  151.7330 C   0  0  0  0  0  3  0  0  0  0  0  0
  159.0800  213.0630  152.9170 C   0  0  1  0  0  3  0  0  0  0  0  0
  159.0630  212.8180  154.4320 C   0  0  1  0  0  3  0  0  0  0  0  0
  160.6450  213.9960  148.8720 C   0  0  1  0  0  3  0  0  0  0  0  0
  161.3640  211.6810  148.8330 O   0  0  0  0  0  0  0  0  0  0  0  0
  159.0300  211.2080  156.1100 C   0  0  2  0  0  3  0  0  0  0  0  0
  162.0330  213.0790  146.9830 C   0  0  0  0  0  2  0  0  0  0  0  0
  162.3450  209.3190  150.1540 C   0  0  0  0  0  3  0  0  0  0  0  0
  161.4050  211.6440  150.2400 C   0  0  2  0  0  3  0  0  0  0  0  0
  161.4600  210.2310  150.7430 C   0  0  0  0  0  0  0  0  0  0  0  0
  159.7170  210.8240  152.4630 C   0  0  1  0  0  3  0  0  0  0  0  0
  157.8180  212.1100  156.3050 C   0  0  0  0  0  2  0  0  0  0  0  0
  159.4310  213.4940  146.6250 C   0  0  2  0  0  3  0  0  0  0  0  0
  161.7300  212.9910  148.4720 C   0  0  1  0  0  3  0  0  0  0  0  0
  157.6760  212.8800  155.0170 C   0  0  0  0  0  2  0  0  0  0  0  0
  159.3280  213.7060  148.1440 C   0  0  0  0  0  2  0  0  0  0  0  0
  160.7790  213.1310  146.1030 C   0  0  1  0  0  0  0  0  0  0  0  0
  160.7990  208.5290  152.3400 C   0  0  0  0  0  3  0  0  0  0  0  0
  160.7110  209.8500  151.8720 C   0  0  0  0  0  0  0  0  0  0  0  0
  159.3380  210.4800  153.9150 C   0  0  0  0  0  2  0  0  0  0  0  0
  160.4290  213.9000  150.3850 C   0  0  0  0  0  2  0  0  0  0  0  0
  159.3210  214.4260  152.7350 O   0  0  0  0  0  1  0  0  0  0  0  0
  160.0000  211.3980  157.2590 C   0  0  0  0  0  1  0  0  0  0  0  0
  160.1300  212.2350  152.2820 N   0  0  1  0  0  0  0  0  0  0  0  0
  159.6800  211.5530  154.8470 N   0  0  1  0  0  0  0  0  0  0  0  0
  160.8170  212.4780  144.7280 C   0  0  0  0  0  2  0  0  0  0  0  0
  161.7220  213.2050  143.7830 C   0  0  0  0  0  0  0  0  0  0  0  0
  161.1580  214.2340  142.8640 C   0  0  0  0  0  1  0  0  0  0  0  0
  162.9130  212.9430  143.7420 O   0  0  0  0  0  0  0  0  0  0  0  0
  1 20  1  0  0  0  0
  1 16  1  0  0  0  0
  2 24  1  1  0  0  0
  2 27  1  0  0  0  0
  3  4  1  0  0  0  0
  4 21  2  0  0  0  0
  5 25  1  1  0  0  0
  5  6  1  0  0  0  0
  6 28  1  0  0  0  0
  6 18  1  6  0  0  0
  7 19  1  6  0  0  0
  7 24  1  0  0  0  0
  9 15  1  0  0  0  0
  9 26  1  1  0  0  0
 11  3  2  0  0  0  0
 11 13  1  0  0  0  0
 12  8  1  6  0  0  0
 12 13  1  0  0  0  0
 12  2  1  0  0  0  0
 13 22  2  0  0  0  0
 14 23  1  1  0  0  0
 16 19  1  1  0  0  0
 17 10  1  6  0  0  0
 17  8  1  0  0  0  0
 17  7  1  0  0  0  0
 18 15  1  0  0  0  0
 20 29  1  6  0  0  0
 20 16  1  0  0  0  0
 20 10  1  0  0  0  0
 22 21  1  0  0  0  0
 22 14  1  0  0  0  0
 23 28  1  0  0  0  0
 27 14  1  0  0  0  0
 27  5  1  0  0  0  0
 28  9  1  0  0  0  0
 30 29  1  0  0  0  0
 31 30  1  0  0  0  0
 32 30  2  0  0  0  0
M  END
>  <MODEL>
5

>  <REMARK>
 VINA RESULT:      -5.7      4.922      6.972
  Name = 
  2 active torsions:
  status: ('A' for Active; 'I' for Inactive)
    1  A    between atoms: C_20  and  C_29
    2  A    between atoms: C_29  and  C_30
                            x       y       z     vdW  Elec       q    Type
                         _______ _______ _______ _____ _____    ______ ____

>  <TORSDO>
F 2

$$$$
=
 OpenBabel11122413053D

 32 38  0  0  1  0  0  0  0  0999 V2000
  160.0960  208.6160  157.0740 O   0  0  0  0  0  0  0  0  0  0  0  0
  160.9090  206.0770  152.6230 C   0  0  2  0  0  3  0  0  0  0  0  0
  162.2210  209.3990  149.1860 C   0  0  0  0  0  3  0  0  0  0  0  0
  161.6910  208.5510  148.2120 C   0  0  0  0  0  3  0  0  0  0  0  0
  160.4790  203.7670  151.8710 C   0  0  1  0  0  3  0  0  0  0  0  0
  160.8080  202.7420  150.7770 C   0  0  1  0  0  3  0  0  0  0  0  0
  161.0910  206.8150  155.0350 C   0  0  1  0  0  3  0  0  0  0  0  0
  161.3630  208.3770  153.2000 O   0  0  0  0  0  0  0  0  0  0  0  0
  160.9280  202.3590  148.4870 C   0  0  2  0  0  3  0  0  0  0  0  0
  161.7670  209.2070  155.4290 C   0  0  0  0  0  2  0  0  0  0  0  0
  162.2250  209.0060  150.5260 C   0  0  0  0  0  3  0  0  0  0  0  0
  161.7570  207.3340  152.3380 C   0  0  2  0  0  3  0  0  0  0  0  0
  161.6930  207.7660  150.9030 C   0  0  0  0  0  0  0  0  0  0  0  0
  160.5790  205.5770  150.3420 C   0  0  1  0  0  3  0  0  0  0  0  0
  159.9820  201.3250  149.0830 C   0  0  0  0  0  2  0  0  0  0  0  0
  159.2740  208.4410  155.9430 C   0  0  2  0  0  3  0  0  0  0  0  0
  161.8460  208.0260  154.4740 C   0  0  1  0  0  3  0  0  0  0  0  0
  159.6510  201.8300  150.4630 C   0  0  0  0  0  2  0  0  0  0  0  0
  159.6020  207.1280  155.2150 C   0  0  0  0  0  2  0  0  0  0  0  0
  160.3590  209.4630  155.9760 C   0  0  1  0  0  0  0  0  0  0  0  0
  161.1780  207.3030  148.5770 C   0  0  0  0  0  3  0  0  0  0  0  0
  161.2040  206.8870  149.9180 C   0  0  0  0  0  0  0  0  0  0  0  0
  160.5310  204.5440  149.2010 C   0  0  0  0  0  2  0  0  0  0  0  0
  161.2570  205.6460  154.0590 C   0  0  0  0  0  2  0  0  0  0  0  0
  160.8970  203.2090  153.0800 O   0  0  0  0  0  1  0  0  0  0  0  0
  162.1780  201.6730  147.9720 C   0  0  0  0  0  1  0  0  0  0  0  0
  161.1710  205.0460  151.5920 N   0  0  1  0  0  0  0  0  0  0  0  0
  161.2820  203.3300  149.5190 N   0  0  1  0  0  0  0  0  0  0  0  0
  159.9290  210.8960  156.2640 C   0  0  0  0  0  2  0  0  0  0  0  0
  159.0370  211.4430  155.1930 C   0  0  0  0  0  0  0  0  0  0  0  0
  159.0280  210.8110  153.8440 C   0  0  0  0  0  1  0  0  0  0  0  0
  158.3370  212.4190  155.4100 O   0  0  0  0  0  0  0  0  0  0  0  0
  2 24  1  1  0  0  0
  3 11  1  0  0  0  0
  4 21  1  0  0  0  0
  4  3  2  0  0  0  0
  5 25  1  1  0  0  0
  6 18  1  6  0  0  0
  6  5  1  0  0  0  0
  7 24  1  6  0  0  0
  7 19  1  0  0  0  0
  8 17  1  0  0  0  0
  9 26  1  1  0  0  0
  9 15  1  0  0  0  0
  9 28  1  0  0  0  0
 10 20  1  0  0  0  0
 11 13  2  0  0  0  0
 12 13  1  6  0  0  0
 12  2  1  0  0  0  0
 12  8  1  0  0  0  0
 14 23  1  6  0  0  0
 14 27  1  0  0  0  0
 15 18  1  0  0  0  0
 16 19  1  6  0  0  0
 16 20  1  0  0  0  0
 16  1  1  0  0  0  0
 17  7  1  0  0  0  0
 17 10  1  1  0  0  0
 20 29  1  1  0  0  0
 20  1  1  0  0  0  0
 21 22  2  0  0  0  0
 22 14  1  0  0  0  0
 22 13  1  0  0  0  0
 23 28  1  0  0  0  0
 27  5  1  0  0  0  0
 27  2  1  0  0  0  0
 28  6  1  0  0  0  0
 30 32  2  0  0  0  0
 30 29  1  0  0  0  0
 31 30  1  0  0  0  0
M  END
>  <MODEL>
6

>  <REMARK>
 VINA RESULT:      -5.5      3.215      8.724
  Name = 
  2 active torsions:
  status: ('A' for Active; 'I' for Inactive)
    1  A    between atoms: C_20  and  C_29
    2  A    between atoms: C_29  and  C_30
                            x       y       z     vdW  Elec       q    Type
                         _______ _______ _______ _____ _____    ______ ____

>  <TORSDO>
F 2

$$$$
