=
 OpenBabel11122412453D

 30 35  0  0  1  0  0  0  0  0999 V2000
  160.0680  212.1590  151.9900 C   0  0  2  0  0  3  0  0  0  0  0  0
  160.5340  213.3180  149.7660 C   0  0  0  0  0  0  0  0  0  0  0  0
  161.4990  208.7720  150.6360 O   0  0  0  0  0  0  0  0  0  0  0  0
  160.0090  210.7160  152.5210 C   0  0  2  0  0  3  0  0  0  0  0  0
  158.7660  212.6840  151.9240 O   0  0  0  0  0  0  0  0  0  0  0  0
  157.4270  211.7620  155.3040 C   0  0  0  0  0  1  0  0  0  0  0  0
  160.7880  209.1730  155.2070 C   0  0  2  0  0  3  0  0  0  0  0  0
  157.9950  211.5970  153.8970 C   0  0  1  0  0  3  0  0  0  0  0  0
  160.5280  208.2980  154.0600 N   0  0  2  0  0  0  0  0  0  0  0  0
  161.2490  207.9430  151.7110 C   0  0  0  0  0  0  0  0  0  0  0  0
  158.3640  212.9330  153.2460 C   0  0  2  0  0  3  0  0  0  0  0  0
  159.1850  210.6170  153.8360 C   0  0  2  0  0  3  0  0  0  0  0  0
  161.1420  213.3500  148.5080 C   0  0  0  0  0  3  0  0  0  0  0  0
  160.8340  206.9640  154.5640 C   0  0  0  0  0  2  0  0  0  0  0  0
  160.4210  208.4040  156.4520 C   0  0  0  0  0  2  0  0  0  0  0  0
  159.7590  214.4040  150.1560 O   0  0  0  0  0  1  0  0  0  0  0  0
  161.9600  210.0260  151.1130 C   0  0  2  0  0  3  0  0  0  0  0  0
  161.9610  212.3020  148.0940 C   0  0  0  0  0  3  0  0  0  0  0  0
  160.7190  212.2060  150.6190 C   0  0  0  0  0  0  0  0  0  0  0  0
  161.4400  210.1180  152.5560 C   0  0  2  0  0  3  0  0  0  0  0  0
  160.9120  206.7370  151.5850 O   0  0  0  0  0  0  0  0  0  0  0  0
  161.4930  208.6370  153.0080 C   0  0  1  0  0  3  0  0  0  0  0  0
  160.5350  206.9520  156.0500 C   0  0  0  0  0  2  0  0  0  0  0  0
  160.8780  211.5740  155.2740 O   0  0  0  0  0  1  0  0  0  0  0  0
  162.1930  211.2220  148.9440 C   0  0  0  0  0  3  0  0  0  0  0  0
  161.5900  211.1690  150.2060 C   0  0  0  0  0  0  0  0  0  0  0  0
  160.0090  210.4910  155.1300 C   0  0  2  0  0  3  0  0  0  0  0  0
  157.1940  213.8660  153.2290 C   0  0  0  0  0  3  0  0  0  0  0  0
  154.8990  214.4490  152.6310 C   0  0  0  0  0  1  0  0  0  0  0  0
  156.0560  213.5120  152.6390 C   0  0  0  0  0  3  0  0  0  0  0  0
  1 19  1  6  0  0  0
  1  4  1  0  0  0  0
  2 16  1  0  0  0  0
  2 19  1  0  0  0  0
  3 17  1  0  0  0  0
  3 10  1  0  0  0  0
  4 20  1  0  0  0  0
  4 12  1  0  0  0  0
  5  1  1  0  0  0  0
  5 11  1  0  0  0  0
  7 15  1  0  0  0  0
  8  6  1  0  0  0  0
  9 14  1  0  0  0  0
  9  7  1  0  0  0  0
 10 22  1  0  0  0  0
 11  8  1  0  0  0  0
 12  8  1  0  0  0  0
 12 27  1  0  0  0  0
 13  2  2  0  0  0  0
 14 23  1  0  0  0  0
 17 20  1  0  0  0  0
 18 13  1  0  0  0  0
 18 25  2  0  0  0  0
 20 22  1  0  0  0  0
 21 10  2  0  0  0  0
 22  9  1  0  0  0  0
 23 15  1  0  0  0  0
 25 26  1  0  0  0  0
 26 19  2  0  0  0  0
 26 17  1  0  0  0  0
 27  7  1  0  0  0  0
 27 24  1  0  0  0  0
 28 11  1  0  0  0  0
 29 30  1  0  0  0  0
 30 28  2  0  0  0  0
M  END
>  <MODEL>
1

>  <REMARK>
 VINA RESULT:      -6.6      0.000      0.000
  Name = 
  1 active torsions:
  status: ('A' for Active; 'I' for Inactive)
    1  A    between atoms: C_11  and  C_28
                            x       y       z     vdW  Elec       q    Type
                         _______ _______ _______ _____ _____    ______ ____

>  <TORSDO>
F 1

$$$$
=
 OpenBabel11122412453D

 30 35  0  0  1  0  0  0  0  0999 V2000
  161.1870  208.3830  153.2040 C   0  0  2  0  0  3  0  0  0  0  0  0
  160.7160  207.4310  155.5230 C   0  0  0  0  0  0  0  0  0  0  0  0
  158.9420  211.5130  153.9250 O   0  0  0  0  0  0  0  0  0  0  0  0
  160.6110  209.4850  152.2960 C   0  0  2  0  0  3  0  0  0  0  0  0
  160.8470  207.1240  152.6820 O   0  0  0  0  0  0  0  0  0  0  0  0
  161.7780  207.5460  149.0730 C   0  0  0  0  0  1  0  0  0  0  0  0
  161.7330  211.6330  150.2170 C   0  0  2  0  0  3  0  0  0  0  0  0
  161.0590  207.7720  150.4010 C   0  0  1  0  0  3  0  0  0  0  0  0
  160.3510  211.8660  150.6410 N   0  0  2  0  0  0  0  0  0  0  0  0
  158.9940  212.1490  152.7010 C   0  0  0  0  0  0  0  0  0  0  0  0
  161.6420  206.9330  151.5410 C   0  0  2  0  0  3  0  0  0  0  0  0
  160.9890  209.2600  150.8040 C   0  0  2  0  0  3  0  0  0  0  0  0
  160.2310  207.5710  156.8260 C   0  0  0  0  0  3  0  0  0  0  0  0
  159.9980  213.1270  149.9990 C   0  0  0  0  0  2  0  0  0  0  0  0
  161.8740  212.1820  148.8170 C   0  0  0  0  0  2  0  0  0  0  0  0
  161.2570  206.2080  155.1440 O   0  0  0  0  0  1  0  0  0  0  0  0
  160.2300  211.0110  154.2430 C   0  0  2  0  0  3  0  0  0  0  0  0
  159.7180  208.7910  157.2610 C   0  0  0  0  0  3  0  0  0  0  0  0
  160.6610  208.5190  154.6220 C   0  0  0  0  0  0  0  0  0  0  0  0
  160.9500  210.8770  152.8920 C   0  0  2  0  0  3  0  0  0  0  0  0
  158.0160  212.7670  152.2060 O   0  0  0  0  0  0  0  0  0  0  0  0
  160.3530  212.0640  152.0950 C   0  0  1  0  0  3  0  0  0  0  0  0
  160.7860  213.2240  148.7070 C   0  0  0  0  0  2  0  0  0  0  0  0
  163.2880  209.9800  151.0080 O   0  0  0  0  0  1  0  0  0  0  0  0
  159.7050  209.8870  156.4000 C   0  0  0  0  0  3  0  0  0  0  0  0
  160.1810  209.7670  155.0890 C   0  0  0  0  0  0  0  0  0  0  0  0
  162.1210  210.1510  150.2630 C   0  0  2  0  0  3  0  0  0  0  0  0
  161.6450  205.4770  151.1910 C   0  0  0  0  0  3  0  0  0  0  0  0
  161.2450  203.1250  151.7120 C   0  0  0  0  0  1  0  0  0  0  0  0
  161.2380  204.5690  152.0730 C   0  0  0  0  0  3  0  0  0  0  0  0
  1  5  1  6  0  0  0
  1 19  1  0  0  0  0
  2 13  1  0  0  0  0
  3 17  1  0  0  0  0
  4 20  1  0  0  0  0
  4  1  1  0  0  0  0
  6  8  1  0  0  0  0
  7 27  1  0  0  0  0
  7  9  1  0  0  0  0
  8 12  1  0  0  0  0
  8 11  1  0  0  0  0
  9 22  1  0  0  0  0
 10  3  1  0  0  0  0
 11  5  1  0  0  0  0
 12  4  1  0  0  0  0
 13 18  2  0  0  0  0
 14  9  1  0  0  0  0
 15  7  1  0  0  0  0
 16  2  1  0  0  0  0
 17 26  1  0  0  0  0
 19 26  1  0  0  0  0
 19  2  2  0  0  0  0
 20 17  1  0  0  0  0
 21 10  2  0  0  0  0
 22 10  1  0  0  0  0
 22 20  1  0  0  0  0
 23 15  1  0  0  0  0
 23 14  1  0  0  0  0
 25 18  1  0  0  0  0
 26 25  2  0  0  0  0
 27 12  1  0  0  0  0
 27 24  1  0  0  0  0
 28 11  1  0  0  0  0
 28 30  2  0  0  0  0
 29 30  1  0  0  0  0
M  END
>  <MODEL>
2

>  <REMARK>
 VINA RESULT:      -5.7      1.965      7.188
  Name = 
  1 active torsions:
  status: ('A' for Active; 'I' for Inactive)
    1  A    between atoms: C_11  and  C_28
                            x       y       z     vdW  Elec       q    Type
                         _______ _______ _______ _____ _____    ______ ____

>  <TORSDO>
F 1

$$$$
=
 OpenBabel11122412453D

 30 35  0  0  1  0  0  0  0  0999 V2000
  161.2010  207.5940  150.9840 C   0  0  2  0  0  3  0  0  0  0  0  0
  161.1510  208.9540  153.1410 C   0  0  0  0  0  0  0  0  0  0  0  0
  161.5810  204.2470  152.9870 O   0  0  0  0  0  0  0  0  0  0  0  0
  161.5700  206.1610  150.5600 C   0  0  2  0  0  3  0  0  0  0  0  0
  162.1800  208.4850  150.5140 O   0  0  0  0  0  0  0  0  0  0  0  0
  162.5180  207.3920  146.9410 C   0  0  0  0  0  1  0  0  0  0  0  0
  160.5060  203.9860  148.4770 C   0  0  2  0  0  3  0  0  0  0  0  0
  162.5580  207.3290  148.4660 C   0  0  1  0  0  3  0  0  0  0  0  0
  161.4260  203.4570  149.4880 N   0  0  2  0  0  0  0  0  0  0  0  0
  161.7190  203.3460  151.9500 C   0  0  0  0  0  0  0  0  0  0  0  0
  161.9950  208.5920  149.1260 C   0  0  2  0  0  3  0  0  0  0  0  0
  161.8760  206.0690  149.0380 C   0  0  2  0  0  3  0  0  0  0  0  0
  161.0380  209.0360  154.5310 C   0  0  0  0  0  3  0  0  0  0  0  0
  161.4470  202.0230  149.2220 C   0  0  0  0  0  2  0  0  0  0  0  0
  160.6680  203.1430  147.2350 C   0  0  0  0  0  2  0  0  0  0  0  0
  161.3210  210.1290  152.4180 O   0  0  0  0  0  1  0  0  0  0  0  0
  160.5820  205.1960  152.6480 C   0  0  2  0  0  3  0  0  0  0  0  0
  160.8250  207.8880  155.2910 C   0  0  0  0  0  3  0  0  0  0  0  0
  161.0830  207.6990  152.4940 C   0  0  0  0  0  0  0  0  0  0  0  0
  160.5130  205.1690  151.1120 C   0  0  2  0  0  3  0  0  0  0  0  0
  162.4730  202.3400  152.0110 O   0  0  0  0  0  0  0  0  0  0  0  0
  160.8240  203.6820  150.8070 C   0  0  1  0  0  3  0  0  0  0  0  0
  161.2060  201.8250  147.7380 C   0  0  0  0  0  2  0  0  0  0  0  0
  159.5750  206.1950  148.3030 O   0  0  0  0  0  1  0  0  0  0  0  0
  160.7040  206.6500  154.6620 C   0  0  0  0  0  3  0  0  0  0  0  0
  160.8200  206.5450  153.2720 C   0  0  0  0  0  0  0  0  0  0  0  0
  160.7580  205.4660  148.1690 C   0  0  2  0  0  3  0  0  0  0  0  0
  162.7020  209.8170  148.6360 C   0  0  0  0  0  3  0  0  0  0  0  0
  162.8040  212.2070  148.1470 C   0  0  0  0  0  1  0  0  0  0  0  0
  162.0890  210.9970  148.6360 C   0  0  0  0  0  3  0  0  0  0  0  0
  1  5  1  1  0  0  0
  1 19  1  0  0  0  0
  2 13  1  0  0  0  0
  4  1  1  0  0  0  0
  4 20  1  0  0  0  0
  6  8  1  0  0  0  0
  7  9  1  0  0  0  0
  8 12  1  0  0  0  0
  8 11  1  0  0  0  0
  9 22  1  0  0  0  0
 10 21  2  0  0  0  0
 10  3  1  0  0  0  0
 11  5  1  0  0  0  0
 12  4  1  0  0  0  0
 13 18  2  0  0  0  0
 14  9  1  0  0  0  0
 15 23  1  0  0  0  0
 15  7  1  0  0  0  0
 16  2  1  0  0  0  0
 17  3  1  0  0  0  0
 17 26  1  0  0  0  0
 19  2  2  0  0  0  0
 19 26  1  0  0  0  0
 20 17  1  0  0  0  0
 22 20  1  0  0  0  0
 22 10  1  0  0  0  0
 23 14  1  0  0  0  0
 25 18  1  0  0  0  0
 26 25  2  0  0  0  0
 27 24  1  0  0  0  0
 27  7  1  0  0  0  0
 27 12  1  0  0  0  0
 28 11  1  0  0  0  0
 29 30  1  0  0  0  0
 30 28  2  0  0  0  0
M  END
>  <MODEL>
3

>  <REMARK>
 VINA RESULT:      -5.5      3.628      7.214
  Name = 
  1 active torsions:
  status: ('A' for Active; 'I' for Inactive)
    1  A    between atoms: C_11  and  C_28
                            x       y       z     vdW  Elec       q    Type
                         _______ _______ _______ _____ _____    ______ ____

>  <TORSDO>
F 1

$$$$
=
 OpenBabel11122412453D

 30 35  0  0  1  0  0  0  0  0999 V2000
  160.9300  209.3060  153.7040 C   0  0  2  0  0  3  0  0  0  0  0  0
  160.1570  209.0400  156.1210 C   0  0  0  0  0  0  0  0  0  0  0  0
  158.6260  212.4380  153.2090 O   0  0  0  0  0  0  0  0  0  0  0  0
  160.4820  210.0840  152.4540 C   0  0  2  0  0  3  0  0  0  0  0  0
  160.6540  207.9400  153.5270 O   0  0  0  0  0  0  0  0  0  0  0  0
  162.0460  207.3460  150.0950 C   0  0  0  0  0  1  0  0  0  0  0  0
  161.8760  211.5860  150.0040 C   0  0  2  0  0  3  0  0  0  0  0  0
  161.1630  207.9180  151.2010 C   0  0  1  0  0  3  0  0  0  0  0  0
  160.4510  211.8860  150.1670 N   0  0  2  0  0  0  0  0  0  0  0  0
  158.8410  212.7010  151.8710 C   0  0  0  0  0  0  0  0  0  0  0  0
  161.5890  207.4570  152.5980 C   0  0  2  0  0  3  0  0  0  0  0  0
  161.0490  209.4560  151.1490 C   0  0  2  0  0  3  0  0  0  0  0  0
  159.5080  209.5300  157.2570 C   0  0  0  0  0  3  0  0  0  0  0  0
  160.1910  212.9000  149.1510 C   0  0  0  0  0  2  0  0  0  0  0  0
  162.2000  211.7170  148.5360 C   0  0  0  0  0  2  0  0  0  0  0  0
  160.7360  207.7780  156.1790 O   0  0  0  0  0  1  0  0  0  0  0  0
  159.8600  212.0890  153.8180 C   0  0  2  0  0  3  0  0  0  0  0  0
  158.9490  210.8060  157.2550 C   0  0  0  0  0  3  0  0  0  0  0  0
  160.2250  209.8230  154.9460 C   0  0  0  0  0  0  0  0  0  0  0  0
  160.7480  211.5980  152.6630 C   0  0  2  0  0  3  0  0  0  0  0  0
  157.9380  213.1200  151.1010 O   0  0  0  0  0  0  0  0  0  0  0  0
  160.2670  212.4900  151.4910 C   0  0  1  0  0  3  0  0  0  0  0  0
  161.1410  212.6490  147.9950 C   0  0  0  0  0  2  0  0  0  0  0  0
  163.3060  210.2770  151.4250 O   0  0  0  0  0  1  0  0  0  0  0  0
  159.0540  211.6100  156.1220 C   0  0  0  0  0  3  0  0  0  0  0  0
  159.6950  211.1370  154.9720 C   0  0  0  0  0  0  0  0  0  0  0  0
  162.2460  210.1910  150.5220 C   0  0  2  0  0  3  0  0  0  0  0  0
  161.6290  205.9630  152.6830 C   0  0  0  0  0  3  0  0  0  0  0  0
  160.9160  203.7350  151.9820 C   0  0  0  0  0  1  0  0  0  0  0  0
  160.8660  205.2200  151.8870 C   0  0  0  0  0  3  0  0  0  0  0  0
  1  5  1  6  0  0  0
  1 19  1  0  0  0  0
  2 16  1  0  0  0  0
  2 13  1  0  0  0  0
  3 17  1  0  0  0  0
  4 20  1  0  0  0  0
  4  1  1  0  0  0  0
  6  8  1  0  0  0  0
  7  9  1  0  0  0  0
  7 27  1  0  0  0  0
  8 11  1  0  0  0  0
  9 22  1  0  0  0  0
 10  3  1  0  0  0  0
 11 28  1  0  0  0  0
 11  5  1  0  0  0  0
 12  8  1  0  0  0  0
 12  4  1  0  0  0  0
 14  9  1  0  0  0  0
 15  7  1  0  0  0  0
 17 26  1  0  0  0  0
 18 13  2  0  0  0  0
 19 26  1  0  0  0  0
 19  2  2  0  0  0  0
 20 17  1  0  0  0  0
 21 10  2  0  0  0  0
 22 10  1  0  0  0  0
 22 20  1  0  0  0  0
 23 15  1  0  0  0  0
 23 14  1  0  0  0  0
 25 18  1  0  0  0  0
 26 25  2  0  0  0  0
 27 12  1  0  0  0  0
 27 24  1  0  0  0  0
 30 29  1  0  0  0  0
 30 28  2  0  0  0  0
M  END
>  <MODEL>
4

>  <REMARK>
 VINA RESULT:      -5.2      2.008      6.964
  Name = 
  1 active torsions:
  status: ('A' for Active; 'I' for Inactive)
    1  A    between atoms: C_11  and  C_28
                            x       y       z     vdW  Elec       q    Type
                         _______ _______ _______ _____ _____    ______ ____

>  <TORSDO>
F 1

$$$$
=
 OpenBabel11122412453D

 30 35  0  0  1  0  0  0  0  0999 V2000
  161.4520  207.2410  151.6210 C   0  0  2  0  0  3  0  0  0  0  0  0
  161.0850  206.1270  153.8860 C   0  0  0  0  0  0  0  0  0  0  0  0
  160.2640  210.7030  153.0200 O   0  0  0  0  0  0  0  0  0  0  0  0
  161.0690  208.5660  150.9380 C   0  0  2  0  0  3  0  0  0  0  0  0
  160.7120  206.1920  151.0500 O   0  0  0  0  0  0  0  0  0  0  0  0
  161.1850  206.8600  147.3900 C   0  0  0  0  0  1  0  0  0  0  0  0
  162.4130  210.6300  148.9050 C   0  0  2  0  0  3  0  0  0  0  0  0
  160.7560  207.0750  148.8390 C   0  0  1  0  0  3  0  0  0  0  0  0
  161.2220  211.1420  149.5880 N   0  0  2  0  0  0  0  0  0  0  0  0
  160.3080  211.4690  151.8720 C   0  0  0  0  0  0  0  0  0  0  0  0
  161.2510  205.9670  149.7730 C   0  0  2  0  0  3  0  0  0  0  0  0
  161.1500  208.4620  149.3880 C   0  0  2  0  0  3  0  0  0  0  0  0
  160.8510  206.2030  155.2610 C   0  0  0  0  0  3  0  0  0  0  0  0
  161.1320  212.5270  149.1400 C   0  0  0  0  0  2  0  0  0  0  0  0
  162.4910  211.3140  147.5620 C   0  0  0  0  0  2  0  0  0  0  0  0
  161.2150  204.8720  153.3030 O   0  0  0  0  0  1  0  0  0  0  0  0
  161.4010  209.8560  153.0570 C   0  0  2  0  0  3  0  0  0  0  0  0
  160.7560  207.4410  155.8930 C   0  0  0  0  0  3  0  0  0  0  0  0
  161.1950  207.3070  153.1160 C   0  0  0  0  0  0  0  0  0  0  0  0
  161.8530  209.7330  151.5930 C   0  0  2  0  0  3  0  0  0  0  0  0
  159.4710  212.3740  151.6190 O   0  0  0  0  0  0  0  0  0  0  0  0
  161.4900  211.1300  151.0300 C   0  0  1  0  0  3  0  0  0  0  0  0
  161.7210  212.6000  147.7440 C   0  0  0  0  0  2  0  0  0  0  0  0
  163.5620  208.5470  149.2490 O   0  0  0  0  0  1  0  0  0  0  0  0
  160.9130  208.6130  155.1560 C   0  0  0  0  0  3  0  0  0  0  0  0
  161.1430  208.5590  153.7770 C   0  0  0  0  0  0  0  0  0  0  0  0
  162.3890  209.1060  148.7410 C   0  0  2  0  0  3  0  0  0  0  0  0
  160.8100  204.6190  149.2920 C   0  0  0  0  0  3  0  0  0  0  0  0
  160.4560  202.2220  149.5950 C   0  0  0  0  0  1  0  0  0  0  0  0
  160.8990  203.5560  150.0860 C   0  0  0  0  0  3  0  0  0  0  0  0
  1  5  1  6  0  0  0
  1 19  1  0  0  0  0
  2 13  1  0  0  0  0
  3 17  1  0  0  0  0
  4 20  1  0  0  0  0
  4  1  1  0  0  0  0
  6  8  1  0  0  0  0
  7  9  1  0  0  0  0
  8 12  1  0  0  0  0
  8 11  1  0  0  0  0
  9 22  1  0  0  0  0
 10  3  1  0  0  0  0
 11  5  1  0  0  0  0
 12  4  1  0  0  0  0
 13 18  2  0  0  0  0
 14  9  1  0  0  0  0
 15 23  1  0  0  0  0
 15  7  1  0  0  0  0
 16  2  1  0  0  0  0
 17 26  1  0  0  0  0
 19 26  1  0  0  0  0
 19  2  2  0  0  0  0
 20 17  1  0  0  0  0
 21 10  2  0  0  0  0
 22 20  1  0  0  0  0
 22 10  1  0  0  0  0
 23 14  1  0  0  0  0
 25 18  1  0  0  0  0
 26 25  2  0  0  0  0
 27  7  1  0  0  0  0
 27 24  1  0  0  0  0
 27 12  1  0  0  0  0
 28 11  1  0  0  0  0
 28 30  2  0  0  0  0
 29 30  1  0  0  0  0
M  END
>  <MODEL>
5

>  <REMARK>
 VINA RESULT:      -4.5      2.500      7.571
  Name = 
  1 active torsions:
  status: ('A' for Active; 'I' for Inactive)
    1  A    between atoms: C_11  and  C_28
                            x       y       z     vdW  Elec       q    Type
                         _______ _______ _______ _____ _____    ______ ____

>  <TORSDO>
F 1

$$$$
=
 OpenBabel11122412453D

 30 35  0  0  1  0  0  0  0  0999 V2000
  161.5340  204.8160  149.2010 C   0  0  2  0  0  3  0  0  0  0  0  0
  161.1610  202.3140  148.8720 C   0  0  0  0  0  0  0  0  0  0  0  0
  160.4660  204.5800  152.9640 O   0  0  0  0  0  0  0  0  0  0  0  0
  161.1820  205.8820  150.2530 C   0  0  2  0  0  3  0  0  0  0  0  0
  160.7570  205.0230  148.0490 O   0  0  0  0  0  0  0  0  0  0  0  0
  161.2060  208.7080  147.5110 C   0  0  0  0  0  1  0  0  0  0  0  0
  162.5630  208.4660  151.5250 C   0  0  2  0  0  3  0  0  0  0  0  0
  160.8010  207.4000  148.1860 C   0  0  1  0  0  3  0  0  0  0  0  0
  161.3960  207.9770  152.2640 N   0  0  2  0  0  0  0  0  0  0  0  0
  160.5190  205.9120  153.3250 C   0  0  0  0  0  0  0  0  0  0  0  0
  161.2730  206.1650  147.4140 C   0  0  2  0  0  3  0  0  0  0  0  0
  161.2420  207.3190  149.6620 C   0  0  2  0  0  3  0  0  0  0  0  0
  160.9460  201.0320  149.3860 C   0  0  0  0  0  3  0  0  0  0  0  0
  161.3420  208.8400  153.4390 C   0  0  0  0  0  2  0  0  0  0  0  0
  162.6450  209.9560  151.7460 C   0  0  0  0  0  2  0  0  0  0  0  0
  161.2460  202.4700  147.4930 O   0  0  0  0  0  1  0  0  0  0  0  0
  161.5780  204.2800  152.1350 C   0  0  2  0  0  3  0  0  0  0  0  0
  160.8950  200.8240  150.7620 C   0  0  0  0  0  3  0  0  0  0  0  0
  161.2960  203.4180  149.7440 C   0  0  0  0  0  0  0  0  0  0  0  0
  162.0080  205.6310  151.5420 C   0  0  2  0  0  3  0  0  0  0  0  0
  159.7060  206.4370  154.1300 O   0  0  0  0  0  0  0  0  0  0  0  0
  161.6800  206.6060  152.7000 C   0  0  1  0  0  3  0  0  0  0  0  0
  161.9150  210.1880  153.0480 C   0  0  0  0  0  2  0  0  0  0  0  0
  163.6540  207.4830  149.6220 O   0  0  0  0  0  1  0  0  0  0  0  0
  161.0780  201.8950  151.6360 C   0  0  0  0  0  3  0  0  0  0  0  0
  161.2900  203.1860  151.1420 C   0  0  0  0  0  0  0  0  0  0  0  0
  162.4910  208.1390  150.0290 C   0  0  2  0  0  3  0  0  0  0  0  0
  160.7870  206.1940  145.9990 C   0  0  0  0  0  3  0  0  0  0  0  0
  160.8490  205.4530  143.6730 C   0  0  0  0  0  1  0  0  0  0  0  0
  161.3430  205.4140  145.0760 C   0  0  0  0  0  3  0  0  0  0  0  0
  1  5  1  6  0  0  0
  1 19  1  0  0  0  0
  1  4  1  0  0  0  0
  2 13  2  0  0  0  0
  2 19  1  0  0  0  0
  3 10  1  0  0  0  0
  4 20  1  0  0  0  0
  6  8  1  0  0  0  0
  7 15  1  0  0  0  0
  7  9  1  0  0  0  0
  8 12  1  0  0  0  0
  9 22  1  0  0  0  0
  9 14  1  0  0  0  0
 10 21  2  0  0  0  0
 11  5  1  0  0  0  0
 11  8  1  0  0  0  0
 12 27  1  0  0  0  0
 12  4  1  0  0  0  0
 13 18  1  0  0  0  0
 15 23  1  0  0  0  0
 16  2  1  0  0  0  0
 17  3  1  0  0  0  0
 18 25  2  0  0  0  0
 19 26  2  0  0  0  0
 20 17  1  0  0  0  0
 20 22  1  0  0  0  0
 22 10  1  0  0  0  0
 23 14  1  0  0  0  0
 24 27  1  0  0  0  0
 26 25  1  0  0  0  0
 26 17  1  0  0  0  0
 27  7  1  0  0  0  0
 28 11  1  0  0  0  0
 29 30  1  0  0  0  0
 30 28  2  0  0  0  0
M  END
>  <MODEL>
6

>  <REMARK>
 VINA RESULT:      -4.4      4.304      8.127
  Name = 
  1 active torsions:
  status: ('A' for Active; 'I' for Inactive)
    1  A    between atoms: C_11  and  C_28
                            x       y       z     vdW  Elec       q    Type
                         _______ _______ _______ _____ _____    ______ ____

>  <TORSDO>
F 1

$$$$
=
 OpenBabel11122412453D

 30 35  0  0  1  0  0  0  0  0999 V2000
  160.6220  211.1810  151.9450 C   0  0  2  0  0  3  0  0  0  0  0  0
  161.2040  211.7290  149.5230 C   0  0  0  0  0  0  0  0  0  0  0  0
  161.3930  207.3820  151.3740 O   0  0  0  0  0  0  0  0  0  0  0  0
  160.3320  209.9210  152.7800 C   0  0  2  0  0  3  0  0  0  0  0  0
  159.4300  211.9020  151.7600 O   0  0  0  0  0  0  0  0  0  0  0  0
  158.0710  211.9880  155.2550 C   0  0  0  0  0  1  0  0  0  0  0  0
  160.9250  208.8850  155.7420 C   0  0  2  0  0  3  0  0  0  0  0  0
  158.5510  211.4230  153.9210 C   0  0  1  0  0  3  0  0  0  0  0  0
  160.4770  207.8430  154.8150 N   0  0  2  0  0  0  0  0  0  0  0  0
  161.0410  206.8650  152.6040 C   0  0  0  0  0  0  0  0  0  0  0  0
  159.1240  212.4990  152.9940 C   0  0  2  0  0  3  0  0  0  0  0  0
  159.5510  210.2580  154.0820 C   0  0  2  0  0  3  0  0  0  0  0  0
  161.7630  211.3790  148.2910 C   0  0  0  0  0  3  0  0  0  0  0  0
  160.5640  206.6170  155.6000 C   0  0  0  0  0  2  0  0  0  0  0  0
  160.4740  208.4820  157.1250 C   0  0  0  0  0  2  0  0  0  0  0  0
  160.6430  212.9940  149.6610 O   0  0  0  0  0  1  0  0  0  0  0  0
  162.0820  208.6080  151.5650 C   0  0  2  0  0  3  0  0  0  0  0  0
  162.3720  210.1380  148.1200 C   0  0  0  0  0  3  0  0  0  0  0  0
  161.2220  210.8140  150.5990 C   0  0  0  0  0  0  0  0  0  0  0  0
  161.6370  209.1010  152.9510 C   0  0  2  0  0  3  0  0  0  0  0  0
  160.4950  205.7390  152.7450 O   0  0  0  0  0  0  0  0  0  0  0  0
  161.4480  207.7680  153.7180 C   0  0  1  0  0  3  0  0  0  0  0  0
  160.3200  206.9810  157.0520 C   0  0  0  0  0  2  0  0  0  0  0  0
  161.4330  211.1880  155.2800 O   0  0  0  0  0  1  0  0  0  0  0  0
  162.4430  209.2450  149.1880 C   0  0  0  0  0  3  0  0  0  0  0  0
  161.8850  209.5740  150.4280 C   0  0  0  0  0  0  0  0  0  0  0  0
  160.3850  210.2720  155.3750 C   0  0  2  0  0  3  0  0  0  0  0  0
  158.1340  213.5980  152.7680 C   0  0  0  0  0  3  0  0  0  0  0  0
  155.9380  214.4300  152.0960 C   0  0  0  0  0  1  0  0  0  0  0  0
  156.9130  213.3260  152.3160 C   0  0  0  0  0  3  0  0  0  0  0  0
  1 19  1  6  0  0  0
  1  4  1  0  0  0  0
  2 16  1  0  0  0  0
  2 19  1  0  0  0  0
  3 17  1  0  0  0  0
  3 10  1  0  0  0  0
  4 20  1  0  0  0  0
  4 12  1  0  0  0  0
  5  1  1  0  0  0  0
  5 11  1  0  0  0  0
  7 15  1  0  0  0  0
  8 12  1  0  0  0  0
  8  6  1  0  0  0  0
  9 14  1  0  0  0  0
  9  7  1  0  0  0  0
 10 21  2  0  0  0  0
 10 22  1  0  0  0  0
 11  8  1  0  0  0  0
 12 27  1  0  0  0  0
 13  2  2  0  0  0  0
 14 23  1  0  0  0  0
 17 20  1  0  0  0  0
 18 13  1  0  0  0  0
 18 25  2  0  0  0  0
 20 22  1  0  0  0  0
 22  9  1  0  0  0  0
 23 15  1  0  0  0  0
 24 27  1  0  0  0  0
 25 26  1  0  0  0  0
 26 19  2  0  0  0  0
 26 17  1  0  0  0  0
 27  7  1  0  0  0  0
 28 11  1  0  0  0  0
 29 30  1  0  0  0  0
 30 28  2  0  0  0  0
M  END
>  <MODEL>
7

>  <REMARK>
 VINA RESULT:      -4.3      1.036      1.278
  Name = 
  1 active torsions:
  status: ('A' for Active; 'I' for Inactive)
    1  A    between atoms: C_11  and  C_28
                            x       y       z     vdW  Elec       q    Type
                         _______ _______ _______ _____ _____    ______ ____

>  <TORSDO>
F 1

$$$$
=
 OpenBabel11122412453D

 30 35  0  0  1  0  0  0  0  0999 V2000
  161.6370  208.0930  151.3690 C   0  0  2  0  0  3  0  0  0  0  0  0
  161.6870  206.0480  149.8450 C   0  0  0  0  0  0  0  0  0  0  0  0
  160.0400  206.0070  154.2770 O   0  0  0  0  0  0  0  0  0  0  0  0
  160.9740  208.4950  152.6990 C   0  0  2  0  0  3  0  0  0  0  0  0
  161.0270  208.7920  150.3140 O   0  0  0  0  0  0  0  0  0  0  0  0
  161.0150  212.2930  151.6600 C   0  0  0  0  0  1  0  0  0  0  0  0
  161.7490  210.2060  155.2820 C   0  0  2  0  0  3  0  0  0  0  0  0
  160.7030  210.8030  151.5480 C   0  0  1  0  0  3  0  0  0  0  0  0
  160.5640  209.3600  155.4490 N   0  0  2  0  0  0  0  0  0  0  0  0
  159.8420  206.9960  155.2190 C   0  0  0  0  0  0  0  0  0  0  0  0
  161.4650  210.1230  150.4070 C   0  0  2  0  0  3  0  0  0  0  0  0
  160.9150  210.0390  152.8720 C   0  0  2  0  0  3  0  0  0  0  0  0
  161.5820  204.6690  149.6460 C   0  0  0  0  0  3  0  0  0  0  0  0
  160.2030  209.5410  156.8500 C   0  0  0  0  0  2  0  0  0  0  0  0
  161.5780  211.4040  156.1830 C   0  0  0  0  0  2  0  0  0  0  0  0
  161.9630  206.8580  148.7490 O   0  0  0  0  0  1  0  0  0  0  0  0
  161.2990  206.2040  153.6540 C   0  0  2  0  0  3  0  0  0  0  0  0
  161.3480  203.8170  150.7230 C   0  0  0  0  0  3  0  0  0  0  0  0
  161.5230  206.5960  151.1370 C   0  0  0  0  0  0  0  0  0  0  0  0
  161.6160  207.6940  153.8620 C   0  0  2  0  0  3  0  0  0  0  0  0
  158.8460  207.0220  155.9890 O   0  0  0  0  0  0  0  0  0  0  0  0
  160.9740  207.9660  155.2450 C   0  0  1  0  0  3  0  0  0  0  0  0
  160.6290  210.9370  157.2610 C   0  0  0  0  0  2  0  0  0  0  0  0
  163.2540  210.3280  153.4120 O   0  0  0  0  0  1  0  0  0  0  0  0
  161.2350  204.3380  152.0110 C   0  0  0  0  0  3  0  0  0  0  0  0
  161.3310  205.7160  152.2310 C   0  0  0  0  0  0  0  0  0  0  0  0
  161.9600  210.6420  153.8270 C   0  0  2  0  0  3  0  0  0  0  0  0
  161.2060  210.8090  149.1020 C   0  0  0  0  0  3  0  0  0  0  0  0
  161.8240  212.3380  147.3000 C   0  0  0  0  0  1  0  0  0  0  0  0
  162.0940  211.6620  148.5990 C   0  0  0  0  0  3  0  0  0  0  0  0
  1  5  1  6  0  0  0
  1  4  1  0  0  0  0
  2 19  1  0  0  0  0
  3 10  1  0  0  0  0
  4 12  1  0  0  0  0
  4 20  1  0  0  0  0
  5 11  1  0  0  0  0
  7  9  1  0  0  0  0
  7 15  1  0  0  0  0
  8  6  1  0  0  0  0
  8 12  1  0  0  0  0
  9 14  1  0  0  0  0
 10 22  1  0  0  0  0
 10 21  2  0  0  0  0
 11  8  1  0  0  0  0
 12 27  1  0  0  0  0
 13  2  2  0  0  0  0
 13 18  1  0  0  0  0
 14 23  1  0  0  0  0
 15 23  1  0  0  0  0
 16  2  1  0  0  0  0
 17 20  1  0  0  0  0
 17  3  1  0  0  0  0
 18 25  2  0  0  0  0
 19  1  1  0  0  0  0
 19 26  2  0  0  0  0
 20 22  1  0  0  0  0
 22  9  1  0  0  0  0
 24 27  1  0  0  0  0
 25 26  1  0  0  0  0
 26 17  1  0  0  0  0
 27  7  1  0  0  0  0
 28 11  1  0  0  0  0
 29 30  1  0  0  0  0
 30 28  2  0  0  0  0
M  END
>  <MODEL>
8

>  <REMARK>
 VINA RESULT:      -4.2      2.772      5.334
  Name = 
  1 active torsions:
  status: ('A' for Active; 'I' for Inactive)
    1  A    between atoms: C_11  and  C_28
                            x       y       z     vdW  Elec       q    Type
                         _______ _______ _______ _____ _____    ______ ____

>  <TORSDO>
F 1

$$$$
=
 OpenBabel11122412453D

 30 35  0  0  1  0  0  0  0  0999 V2000
  161.6750  207.3690  151.1620 C   0  0  2  0  0  3  0  0  0  0  0  0
  161.9820  209.8990  151.2570 C   0  0  0  0  0  0  0  0  0  0  0  0
  160.9480  207.5030  147.3140 O   0  0  0  0  0  0  0  0  0  0  0  0
  161.1100  206.3360  150.1710 C   0  0  2  0  0  3  0  0  0  0  0  0
  160.8000  207.4930  152.2550 O   0  0  0  0  0  0  0  0  0  0  0  0
  160.1870  203.8950  153.1210 C   0  0  0  0  0  1  0  0  0  0  0  0
  161.8050  203.3630  149.2330 C   0  0  2  0  0  3  0  0  0  0  0  0
  160.1990  205.1900  152.3120 C   0  0  1  0  0  3  0  0  0  0  0  0
  160.8650  204.0690  148.3590 N   0  0  2  0  0  0  0  0  0  0  0  0
  160.6560  206.1770  147.0650 C   0  0  0  0  0  0  0  0  0  0  0  0
  160.9430  206.3250  153.0200 C   0  0  2  0  0  3  0  0  0  0  0  0
  160.7360  205.0020  150.8780 C   0  0  2  0  0  3  0  0  0  0  0  0
  162.1590  211.1330  150.6260 C   0  0  0  0  0  3  0  0  0  0  0  0
  160.6500  203.1390  147.2570 C   0  0  0  0  0  2  0  0  0  0  0  0
  161.4890  201.8900  149.1400 C   0  0  0  0  0  2  0  0  0  0  0  0
  161.9360  209.8650  152.6460 O   0  0  0  0  0  1  0  0  0  0  0  0
  162.0460  207.5770  148.2090 C   0  0  2  0  0  3  0  0  0  0  0  0
  162.2530  211.2090  149.2380 C   0  0  0  0  0  3  0  0  0  0  0  0
  161.8640  208.7180  150.4910 C   0  0  0  0  0  0  0  0  0  0  0  0
  162.0520  206.2260  148.9430 C   0  0  2  0  0  3  0  0  0  0  0  0
  159.7820  205.8110  146.2370 O   0  0  0  0  0  0  0  0  0  0  0  0
  161.5410  205.2640  147.8420 C   0  0  1  0  0  3  0  0  0  0  0  0
  160.8060  201.7330  147.8020 C   0  0  0  0  0  2  0  0  0  0  0  0
  163.0030  204.2040  151.1400 O   0  0  0  0  0  1  0  0  0  0  0  0
  162.1890  210.0460  148.4720 C   0  0  0  0  0  3  0  0  0  0  0  0
  162.0070  208.8010  149.0840 C   0  0  0  0  0  0  0  0  0  0  0  0
  161.7330  203.8450  150.6870 C   0  0  2  0  0  3  0  0  0  0  0  0
  160.3810  206.5680  154.3860 C   0  0  0  0  0  3  0  0  0  0  0  0
  160.2480  207.8150  156.4820 C   0  0  0  0  0  1  0  0  0  0  0  0
  160.8170  207.5830  155.1260 C   0  0  0  0  0  3  0  0  0  0  0  0
  1 19  1  6  0  0  0
  1  5  1  0  0  0  0
  2 16  1  0  0  0  0
  3 17  1  0  0  0  0
  4 12  1  0  0  0  0
  4  1  1  0  0  0  0
  5 11  1  0  0  0  0
  7 27  1  0  0  0  0
  8 11  1  0  0  0  0
  8  6  1  0  0  0  0
  9  7  1  0  0  0  0
 10  3  1  0  0  0  0
 10 22  1  0  0  0  0
 11 28  1  0  0  0  0
 12  8  1  0  0  0  0
 13  2  1  0  0  0  0
 14 23  1  0  0  0  0
 14  9  1  0  0  0  0
 15  7  1  0  0  0  0
 17 20  1  0  0  0  0
 17 26  1  0  0  0  0
 18 13  2  0  0  0  0
 19  2  2  0  0  0  0
 20  4  1  0  0  0  0
 21 10  2  0  0  0  0
 22  9  1  0  0  0  0
 22 20  1  0  0  0  0
 23 15  1  0  0  0  0
 25 26  2  0  0  0  0
 25 18  1  0  0  0  0
 26 19  1  0  0  0  0
 27 12  1  0  0  0  0
 27 24  1  0  0  0  0
 28 30  2  0  0  0  0
 30 29  1  0  0  0  0
M  END
>  <MODEL>
9

>  <REMARK>
 VINA RESULT:      -4.2      3.740      6.512
  Name = 
  1 active torsions:
  status: ('A' for Active; 'I' for Inactive)
    1  A    between atoms: C_11  and  C_28
                            x       y       z     vdW  Elec       q    Type
                         _______ _______ _______ _____ _____    ______ ____

>  <TORSDO>
F 1

$$$$
