=
 OpenBabel11122414213D

 34 41  0  0  1  0  0  0  0  0999 V2000
  160.8600  207.8370  154.1740 C   0  0  0  0  0  0  0  0  0  0  0  0
  162.2240  206.1420  152.8770 C   0  0  0  0  0  2  0  0  0  0  0  0
  159.1940  213.5670  155.6900 C   0  0  2  0  0  3  0  0  0  0  0  0
  159.2400  209.3560  155.1070 C   0  0  0  0  0  0  0  0  0  0  0  0
  158.7840  211.6090  154.0370 C   0  0  1  0  0  3  0  0  0  0  0  0
  160.7720  212.1940  155.3410 O   0  0  0  0  0  0  0  0  0  0  0  0
  160.3660  212.9670  156.4470 C   0  0  0  0  0  2  0  0  0  0  0  0
  157.8520  212.0460  156.9040 C   0  0  0  0  0  2  0  0  0  0  0  0
  162.2330  208.4510  152.1400 C   0  0  2  0  0  3  0  0  0  0  0  0
  161.6370  208.7520  148.9420 C   0  0  0  0  0  2  0  0  0  0  0  0
  159.3260  210.9700  152.7560 C   0  0  0  0  0  2  0  0  0  0  0  0
  157.4590  210.8610  156.0410 C   0  0  0  0  0  2  0  0  0  0  0  0
  161.0950  209.4350  151.7840 C   0  0  1  0  0  3  0  0  0  0  0  0
  163.0150  206.2100  151.5800 C   0  0  0  0  0  2  0  0  0  0  0  0
  158.5030  210.5920  155.0600 N   0  0  0  0  0  0  0  0  0  0  0  0
  157.8790  213.2190  156.1230 O   0  0  0  0  0  0  0  0  0  0  0  0
  161.7710  207.4660  149.7790 C   0  0  1  0  0  3  0  0  0  0  0  0
  160.1950  209.0680  154.1190 C   0  0  0  0  0  0  0  0  0  0  0  0
  159.7270  212.7150  154.5520 C   0  0  2  0  0  3  0  0  0  0  0  0
  160.5410  210.0900  153.0610 C   0  0  2  0  0  3  0  0  0  0  0  0
  159.6340  207.2440  156.1060 C   0  0  0  0  0  3  0  0  0  0  0  0
  162.2970  209.9840  149.5650 C   0  0  0  0  0  2  0  0  0  0  0  0
  158.9810  208.4350  156.0760 N   0  0  0  0  0  0  0  0  0  0  0  0
  161.5480  210.5150  150.7900 C   0  0  0  0  0  2  0  0  0  0  0  0
  162.7420  207.5840  150.9760 C   0  0  1  0  0  3  0  0  0  0  0  0
  160.5620  206.9500  155.1590 N   0  0  0  0  0  0  0  0  0  0  0  0
  161.8110  207.5030  153.1550 N   0  0  0  0  0  0  0  0  0  0  0  0
  160.5050  207.0330  150.1900 O   0  0  0  0  0  0  0  0  0  0  0  0
  160.0880  206.1330  149.2060 C   0  0  0  0  0  2  0  0  0  0  0  0
  160.7730  202.6450  149.1120 C   0  0  0  0  0  2  0  0  0  0  0  0
  161.2020  204.5120  147.6980 C   0  0  0  0  0  2  0  0  0  0  0  0
  161.0630  204.9720  149.1270 C   0  0  2  0  0  3  0  0  0  0  0  0
  161.4570  203.0390  147.8210 C   0  0  0  0  0  2  0  0  0  0  0  0
  160.5770  203.8460  149.9170 N   0  0  0  0  0  2  0  0  0  0  0  0
  1 26  1  0  0  0  0
  2 27  1  0  0  0  0
  3 16  1  0  0  0  0
  3  7  1  1  0  0  0
  4 23  2  0  0  0  0
  5 11  1  6  0  0  0
  5 19  1  0  0  0  0
  5 15  1  0  0  0  0
  6  7  1  0  0  0  0
  9 27  1  1  0  0  0
 10 22  1  0  0  0  0
 10 17  1  0  0  0  0
 12  8  1  0  0  0  0
 13 24  1  6  0  0  0
 13  9  1  0  0  0  0
 13 20  1  0  0  0  0
 14  2  1  0  0  0  0
 15  4  1  0  0  0  0
 15 12  1  0  0  0  0
 16  8  1  0  0  0  0
 17 28  1  1  0  0  0
 17 25  1  0  0  0  0
 18  1  2  0  0  0  0
 18  4  1  0  0  0  0
 19  6  1  1  0  0  0
 19  3  1  0  0  0  0
 20 11  1  6  0  0  0
 20 18  1  0  0  0  0
 22 24  1  0  0  0  0
 23 21  1  0  0  0  0
 25 14  1  1  0  0  0
 25  9  1  0  0  0  0
 26 21  2  0  0  0  0
 27  1  1  0  0  0  0
 29 28  1  0  0  0  0
 30 34  1  0  0  0  0
 31 33  1  0  0  0  0
 31 32  1  0  0  0  0
 32 29  1  6  0  0  0
 32 34  1  0  0  0  0
 33 30  1  0  0  0  0
M  END
>  <MODEL>
1

>  <REMARK>
 VINA RESULT:      -6.4      0.000      0.000
  Name = 
  3 active torsions:
  status: ('A' for Active; 'I' for Inactive)
    1  A    between atoms: C_17  and  O_28
    2  A    between atoms: O_28  and  C_29
    3  A    between atoms: C_29  and  C_32
                            x       y       z     vdW  Elec       q    Type
                         _______ _______ _______ _____ _____    ______ ____

>  <TORSDO>
F 3

$$$$
=
 OpenBabel11122414213D

 34 41  0  0  1  0  0  0  0  0999 V2000
  161.2060  210.8710  151.2570 C   0  0  0  0  0  0  0  0  0  0  0  0
  161.0150  212.7230  149.5400 C   0  0  0  0  0  2  0  0  0  0  0  0
  160.9090  208.6110  156.9770 C   0  0  2  0  0  3  0  0  0  0  0  0
  160.9800  208.9880  152.7420 C   0  0  0  0  0  0  0  0  0  0  0  0
  159.5460  209.1260  154.8290 C   0  0  1  0  0  3  0  0  0  0  0  0
  161.5920  210.1560  155.6950 O   0  0  0  0  0  0  0  0  0  0  0  0
  162.2270  209.2320  156.5490 C   0  0  0  0  0  2  0  0  0  0  0  0
  161.4560  206.8490  155.4980 C   0  0  0  0  0  2  0  0  0  0  0  0
  160.0940  213.0880  151.7520 C   0  0  2  0  0  3  0  0  0  0  0  0
  157.0300  214.2180  151.6660 C   0  0  0  0  0  2  0  0  0  0  0  0
  158.8140  210.2560  154.1000 C   0  0  0  0  0  2  0  0  0  0  0  0
  160.6740  206.9670  154.2020 C   0  0  0  0  0  2  0  0  0  0  0  0
  159.0850  212.2860  152.6050 C   0  0  1  0  0  3  0  0  0  0  0  0
  160.3050  214.0680  149.5280 C   0  0  0  0  0  2  0  0  0  0  0  0
  160.4050  208.3690  153.9090 N   0  0  0  0  0  0  0  0  0  0  0  0
  160.6520  207.2640  156.5800 O   0  0  0  0  0  0  0  0  0  0  0  0
  157.9770  213.9140  150.4900 C   0  0  1  0  0  3  0  0  0  0  0  0
  160.6620  210.3170  152.4230 C   0  0  0  0  0  0  0  0  0  0  0  0
  160.3210  209.6610  156.0510 C   0  0  2  0  0  3  0  0  0  0  0  0
  159.8050  211.1500  153.3500 C   0  0  2  0  0  3  0  0  0  0  0  0
  162.3040  208.8310  150.7840 C   0  0  0  0  0  3  0  0  0  0  0  0
  157.7370  214.4530  153.0030 C   0  0  0  0  0  2  0  0  0  0  0  0
  161.7910  208.2770  151.9130 N   0  0  0  0  0  0  0  0  0  0  0  0
  158.3300  213.1760  153.6040 C   0  0  0  0  0  2  0  0  0  0  0  0
  159.4740  214.1320  150.8060 C   0  0  1  0  0  3  0  0  0  0  0  0
  162.0070  210.1170  150.4600 N   0  0  0  0  0  0  0  0  0  0  0  0
  160.8660  212.2130  150.8880 N   0  0  0  0  0  0  0  0  0  0  0  0
  157.7380  212.6210  150.0100 O   0  0  0  0  0  0  0  0  0  0  0  0
  156.8260  212.7810  148.9640 C   0  0  0  0  0  2  0  0  0  0  0  0
  157.8520  213.0400  145.5690 C   0  0  0  0  0  2  0  0  0  0  0  0
  156.4290  214.2730  147.0260 C   0  0  0  0  0  2  0  0  0  0  0  0
  157.4800  213.5470  147.8280 C   0  0  2  0  0  3  0  0  0  0  0  0
  156.9850  214.2780  145.6330 C   0  0  0  0  0  2  0  0  0  0  0  0
  158.1770  212.6320  146.9320 N   0  0  0  0  0  2  0  0  0  0  0  0
  1 18  1  0  0  0  0
  2 27  1  0  0  0  0
  3  7  1  6  0  0  0
  4 15  1  0  0  0  0
  5 11  1  6  0  0  0
  5 19  1  0  0  0  0
  6  7  1  0  0  0  0
  8 16  1  0  0  0  0
  9 27  1  6  0  0  0
  9 13  1  0  0  0  0
 10 22  1  0  0  0  0
 12  8  1  0  0  0  0
 13 20  1  0  0  0  0
 13 24  1  1  0  0  0
 14  2  1  0  0  0  0
 15 12  1  0  0  0  0
 15  5  1  0  0  0  0
 16  3  1  0  0  0  0
 17 28  1  1  0  0  0
 17 25  1  0  0  0  0
 17 10  1  0  0  0  0
 18  4  2  0  0  0  0
 18 20  1  0  0  0  0
 19  6  1  6  0  0  0
 19  3  1  0  0  0  0
 20 11  1  6  0  0  0
 21 23  2  0  0  0  0
 22 24  1  0  0  0  0
 23  4  1  0  0  0  0
 25 14  1  6  0  0  0
 25  9  1  0  0  0  0
 26 21  1  0  0  0  0
 26  1  2  0  0  0  0
 27  1  1  0  0  0  0
 29 28  1  0  0  0  0
 30 33  1  0  0  0  0
 30 34  1  0  0  0  0
 31 32  1  0  0  0  0
 32 29  1  1  0  0  0
 33 31  1  0  0  0  0
 34 32  1  0  0  0  0
M  END
>  <MODEL>
2

>  <REMARK>
 VINA RESULT:      -4.2      3.888      6.516
  Name = 
  3 active torsions:
  status: ('A' for Active; 'I' for Inactive)
    1  A    between atoms: C_17  and  O_28
    2  A    between atoms: O_28  and  C_29
    3  A    between atoms: C_29  and  C_32
                            x       y       z     vdW  Elec       q    Type
                         _______ _______ _______ _____ _____    ______ ____

>  <TORSDO>
F 3

$$$$
