=
 OpenBabel11122413233D

 31 35  0  0  1  0  0  0  0  0999 V2000
  161.2770  203.8890  145.6860 C   0  0  0  0  0  0  0  0  0  0  0  0
  160.5350  205.6870  148.8950 C   0  0  2  0  0  3  0  0  0  0  0  0
  160.8780  204.6790  149.9770 C   0  0  0  0  0  0  0  0  0  0  0  0
  161.0720  202.3670  150.7120 C   0  0  0  0  0  0  0  0  0  0  0  0
  161.1640  205.3600  147.5570 C   0  0  0  0  0  0  0  0  0  0  0  0
  162.3120  204.6390  145.1260 C   0  0  0  0  0  3  0  0  0  0  0  0
  160.8310  203.3020  149.7030 C   0  0  0  0  0  3  0  0  0  0  0  0
  162.2860  207.5210  149.1220 C   0  0  2  0  0  3  0  0  0  0  0  0
  160.8170  202.7870  145.0480 F   0  0  0  0  0  0  0  0  0  0  0  0
  161.1750  206.5580  151.6440 C   0  0  0  0  0  2  0  0  0  0  0  0
  161.0380  201.0100  150.4230 O   0  0  0  0  0  1  0  0  0  0  0  0
  162.6370  207.4380  147.6400 C   0  0  0  0  0  2  0  0  0  0  0  0
  160.8140  207.1400  149.3320 C   0  0  2  0  0  3  0  0  0  0  0  0
  160.7310  204.2640  146.8740 N   0  0  0  0  0  0  0  0  0  0  0  0
  161.3430  202.7960  152.0130 C   0  0  0  0  0  3  0  0  0  0  0  0
  162.2080  206.1420  147.0180 C   0  0  0  0  0  0  0  0  0  0  0  0
  162.7690  205.7740  145.7930 C   0  0  0  0  0  3  0  0  0  0  0  0
  160.3740  207.3600  150.7150 N   0  0  0  0  0  2  0  0  0  0  0  0
  161.1120  205.1020  151.3030 C   0  0  0  0  0  0  0  0  0  0  0  0
  161.3640  204.1620  152.3060 C   0  0  0  0  0  3  0  0  0  0  0  0
  161.2790  209.9110  147.9180 O   0  0  0  0  0  0  0  0  0  0  0  0
  161.9820  210.0320  148.9560 C   0  0  0  0  0  0  0  0  0  0  0  0
  162.5250  208.8760  149.6010 N   0  0  0  0  0  2  0  0  0  0  0  0
  160.4840  213.4370  148.3430 C   0  0  1  0  0  3  0  0  0  0  0  0
  161.0260  211.9140  150.2440 C   0  0  0  0  0  3  0  0  0  0  0  0
  163.8040  211.8690  147.7190 C   0  0  0  0  0  1  0  0  0  0  0  0
  159.2200  213.4700  147.5100 C   0  0  0  0  0  1  0  0  0  0  0  0
  160.2000  212.8110  149.6860 C   0  0  0  0  0  3  0  0  0  0  0  0
  162.6890  212.3910  148.4980 N   0  0  0  0  0  0  0  0  0  0  0  0
  162.2450  211.4100  149.5110 C   0  0  2  0  0  3  0  0  0  0  0  0
  161.5890  212.6990  147.5840 C   0  0  0  0  0  2  0  0  0  0  0  0
  1 14  1  0  0  0  0
  2  5  1  6  0  0  0
  2 13  1  0  0  0  0
  2  3  1  0  0  0  0
  3 19  1  0  0  0  0
  4 15  2  0  0  0  0
  6  1  2  0  0  0  0
  6 17  1  0  0  0  0
  7  3  2  0  0  0  0
  7  4  1  0  0  0  0
  8 13  1  0  0  0  0
  8 23  1  6  0  0  0
  9  1  1  0  0  0  0
 11  4  1  0  0  0  0
 12  8  1  0  0  0  0
 13 18  1  1  0  0  0
 14  5  2  0  0  0  0
 15 20  1  0  0  0  0
 16  5  1  0  0  0  0
 16 12  1  0  0  0  0
 17 16  2  0  0  0  0
 18 10  1  0  0  0  0
 19 10  1  0  0  0  0
 19 20  2  0  0  0  0
 21 22  2  0  0  0  0
 22 23  1  0  0  0  0
 24 27  1  6  0  0  0
 24 28  1  0  0  0  0
 26 29  1  0  0  0  0
 28 25  2  0  0  0  0
 29 30  1  0  0  0  0
 30 22  1  6  0  0  0
 30 25  1  0  0  0  0
 31 24  1  0  0  0  0
 31 29  1  0  0  0  0
M  END
>  <MODEL>
1

>  <REMARK>
 VINA RESULT:      -7.9      0.000      0.000
  Name = 
  2 active torsions:
  status: ('A' for Active; 'I' for Inactive)
    1  A    between atoms: C_5  and  C_30
    2  A    between atoms: C_10  and  N_16
                            x       y       z     vdW  Elec       q    Type
                         _______ _______ _______ _____ _____    ______ ____

>  <TORSDO>
F 2

$$$$
=
 OpenBabel11122413233D

 31 35  0  0  1  0  0  0  0  0999 V2000
  160.6830  207.6580  156.3730 C   0  0  0  0  0  0  0  0  0  0  0  0
  161.9140  208.5990  152.9560 C   0  0  2  0  0  3  0  0  0  0  0  0
  161.4750  207.4460  152.0700 C   0  0  0  0  0  0  0  0  0  0  0  0
  160.9440  205.0860  151.7980 C   0  0  0  0  0  0  0  0  0  0  0  0
  161.1560  208.6620  154.2660 C   0  0  0  0  0  0  0  0  0  0  0  0
  159.7550  208.6570  156.6700 C   0  0  0  0  0  3  0  0  0  0  0  0
  161.2740  206.1680  152.6170 C   0  0  0  0  0  3  0  0  0  0  0  0
  160.5110  210.5830  152.1990 C   0  0  2  0  0  3  0  0  0  0  0  0
  160.9120  206.6610  157.2610 F   0  0  0  0  0  0  0  0  0  0  0  0
  161.6010  208.9500  150.0400 C   0  0  0  0  0  2  0  0  0  0  0  0
  160.7330  203.8330  152.3550 O   0  0  0  0  0  1  0  0  0  0  0  0
  160.0600  210.8720  153.6270 C   0  0  0  0  0  2  0  0  0  0  0  0
  161.9100  209.9490  152.2120 C   0  0  2  0  0  3  0  0  0  0  0  0
  161.3570  207.6840  155.1930 N   0  0  0  0  0  0  0  0  0  0  0  0
  160.8300  205.2650  150.4170 C   0  0  0  0  0  3  0  0  0  0  0  0
  160.2260  209.6890  154.5340 C   0  0  0  0  0  0  0  0  0  0  0  0
  159.5370  209.6790  155.7480 C   0  0  0  0  0  3  0  0  0  0  0  0
  162.4660  209.8010  150.8610 N   0  0  0  0  0  2  0  0  0  0  0  0
  161.3990  207.6070  150.6700 C   0  0  0  0  0  0  0  0  0  0  0  0
  161.0560  206.5230  149.8560 C   0  0  0  0  0  3  0  0  0  0  0  0
  158.2320  212.2000  151.5910 O   0  0  0  0  0  0  0  0  0  0  0  0
  159.3550  212.5940  151.1770 C   0  0  0  0  0  0  0  0  0  0  0  0
  160.5330  211.8250  151.4380 N   0  0  0  0  0  2  0  0  0  0  0  0
  158.1220  213.7100  147.7930 C   0  0  1  0  0  3  0  0  0  0  0  0
  158.0600  214.4480  150.1770 C   0  0  0  0  0  3  0  0  0  0  0  0
  161.4700  213.1360  149.3180 C   0  0  0  0  0  1  0  0  0  0  0  0
  157.1690  212.7700  147.0860 C   0  0  0  0  0  1  0  0  0  0  0  0
  157.4430  214.3270  148.9910 C   0  0  0  0  0  3  0  0  0  0  0  0
  160.1740  213.7700  149.1210 N   0  0  0  0  0  0  0  0  0  0  0  0
  159.4420  213.8850  150.4010 C   0  0  2  0  0  3  0  0  0  0  0  0
  159.4030  212.9650  148.1740 C   0  0  0  0  0  2  0  0  0  0  0  0
  1  6  1  0  0  0  0
  1  9  1  0  0  0  0
  2  3  1  6  0  0  0
  2  5  1  0  0  0  0
  3  7  1  0  0  0  0
  4 11  1  0  0  0  0
  4  7  2  0  0  0  0
  5 16  2  0  0  0  0
  5 14  1  0  0  0  0
  8 23  1  6  0  0  0
  8 13  1  0  0  0  0
  8 12  1  0  0  0  0
 10 19  1  0  0  0  0
 10 18  1  0  0  0  0
 12 16  1  0  0  0  0
 13 18  1  6  0  0  0
 13  2  1  0  0  0  0
 14  1  2  0  0  0  0
 15  4  1  0  0  0  0
 16 17  1  0  0  0  0
 17  6  2  0  0  0  0
 19  3  2  0  0  0  0
 20 15  2  0  0  0  0
 20 19  1  0  0  0  0
 22 23  1  0  0  0  0
 22 21  2  0  0  0  0
 24 27  1  1  0  0  0
 24 31  1  0  0  0  0
 24 28  1  0  0  0  0
 25 30  1  0  0  0  0
 28 25  2  0  0  0  0
 29 26  1  0  0  0  0
 29 30  1  0  0  0  0
 30 22  1  6  0  0  0
 31 29  1  0  0  0  0
M  END
>  <MODEL>
2

>  <REMARK>
 VINA RESULT:      -7.5      3.746      6.057
  Name = 
  2 active torsions:
  status: ('A' for Active; 'I' for Inactive)
    1  A    between atoms: C_5  and  C_30
    2  A    between atoms: C_10  and  N_16
                            x       y       z     vdW  Elec       q    Type
                         _______ _______ _______ _____ _____    ______ ____

>  <TORSDO>
F 2

$$$$
=
 OpenBabel11122413233D

 31 35  0  0  1  0  0  0  0  0999 V2000
  161.0530  206.4620  146.6590 C   0  0  0  0  0  0  0  0  0  0  0  0
  160.3140  205.1060  150.0790 C   0  0  2  0  0  3  0  0  0  0  0  0
  160.7460  203.6520  150.0060 C   0  0  0  0  0  0  0  0  0  0  0  0
  161.0910  201.6220  148.7090 C   0  0  0  0  0  0  0  0  0  0  0  0
  160.9180  205.9600  148.9840 C   0  0  0  0  0  0  0  0  0  0  0  0
  162.0270  207.4320  146.8980 C   0  0  0  0  0  3  0  0  0  0  0  0
  160.7670  202.9790  148.7740 C   0  0  0  0  0  3  0  0  0  0  0  0
  161.9670  206.2080  151.6710 C   0  0  2  0  0  3  0  0  0  0  0  0
  160.6360  206.2190  145.3940 F   0  0  0  0  0  0  0  0  0  0  0  0
  160.9900  203.5930  152.5240 C   0  0  0  0  0  2  0  0  0  0  0  0
  161.1230  200.9750  147.4810 O   0  0  0  0  0  1  0  0  0  0  0  0
  162.2750  207.3120  150.6650 C   0  0  0  0  0  2  0  0  0  0  0  0
  160.5250  205.7160  151.4800 C   0  0  2  0  0  3  0  0  0  0  0  0
  160.5250  205.7580  147.6950 N   0  0  0  0  0  0  0  0  0  0  0  0
  161.3790  200.9160  149.8780 C   0  0  0  0  0  3  0  0  0  0  0  0
  161.9000  206.9360  149.2620 C   0  0  0  0  0  0  0  0  0  0  0  0
  162.4410  207.6730  148.2070 C   0  0  0  0  0  3  0  0  0  0  0  0
  160.1170  204.7700  152.5260 N   0  0  0  0  0  2  0  0  0  0  0  0
  160.9970  202.9200  151.1860 C   0  0  0  0  0  0  0  0  0  0  0  0
  161.3320  201.5650  151.1140 C   0  0  0  0  0  3  0  0  0  0  0  0
  160.4980  208.3670  152.8360 O   0  0  0  0  0  0  0  0  0  0  0  0
  161.3680  207.8000  153.5490 C   0  0  0  0  0  0  0  0  0  0  0  0
  162.1450  206.7210  153.0220 N   0  0  0  0  0  2  0  0  0  0  0  0
  159.4470  210.0580  155.8790 C   0  0  1  0  0  3  0  0  0  0  0  0
  160.4660  207.7800  155.8510 C   0  0  0  0  0  3  0  0  0  0  0  0
  162.7480  210.2380  154.1660 C   0  0  0  0  0  1  0  0  0  0  0  0
  158.0600  210.4610  155.4240 C   0  0  0  0  0  1  0  0  0  0  0  0
  159.4670  208.5910  156.2310 C   0  0  0  0  0  3  0  0  0  0  0  0
  161.7390  209.7400  155.0920 N   0  0  0  0  0  0  0  0  0  0  0  0
  161.5820  208.2750  154.9650 C   0  0  2  0  0  3  0  0  0  0  0  0
  160.4710  210.4060  154.7970 C   0  0  0  0  0  2  0  0  0  0  0  0
  1  6  2  0  0  0  0
  1 14  1  0  0  0  0
  2  5  1  6  0  0  0
  2 13  1  0  0  0  0
  3  2  1  0  0  0  0
  3 19  1  0  0  0  0
  4  7  1  0  0  0  0
  4 15  2  0  0  0  0
  5 16  1  0  0  0  0
  6 17  1  0  0  0  0
  7  3  2  0  0  0  0
  8 23  1  1  0  0  0
  9  1  1  0  0  0  0
 10 18  1  0  0  0  0
 11  4  1  0  0  0  0
 12  8  1  0  0  0  0
 13  8  1  0  0  0  0
 13 18  1  1  0  0  0
 14  5  2  0  0  0  0
 15 20  1  0  0  0  0
 16 12  1  0  0  0  0
 17 16  2  0  0  0  0
 19 10  1  0  0  0  0
 20 19  2  0  0  0  0
 21 22  2  0  0  0  0
 23 22  1  0  0  0  0
 24 27  1  6  0  0  0
 24 28  1  0  0  0  0
 25 28  2  0  0  0  0
 26 29  1  0  0  0  0
 30 22  1  6  0  0  0
 30 29  1  0  0  0  0
 30 25  1  0  0  0  0
 31 29  1  0  0  0  0
 31 24  1  0  0  0  0
M  END
>  <MODEL>
3

>  <REMARK>
 VINA RESULT:      -7.4      3.395      4.583
  Name = 
  2 active torsions:
  status: ('A' for Active; 'I' for Inactive)
    1  A    between atoms: C_5  and  C_30
    2  A    between atoms: C_10  and  N_16
                            x       y       z     vdW  Elec       q    Type
                         _______ _______ _______ _____ _____    ______ ____

>  <TORSDO>
F 2

$$$$
=
 OpenBabel11122413233D

 31 35  0  0  1  0  0  0  0  0999 V2000
  161.1830  204.3260  145.3870 C   0  0  0  0  0  0  0  0  0  0  0  0
  160.5480  205.2900  148.9570 C   0  0  2  0  0  3  0  0  0  0  0  0
  160.9020  204.0440  149.7490 C   0  0  0  0  0  0  0  0  0  0  0  0
  161.0800  201.6210  149.8910 C   0  0  0  0  0  0  0  0  0  0  0  0
  161.1380  205.2940  147.5620 C   0  0  0  0  0  0  0  0  0  0  0  0
  162.2150  205.1810  144.9980 C   0  0  0  0  0  3  0  0  0  0  0  0
  160.8280  202.7770  149.1490 C   0  0  0  0  0  3  0  0  0  0  0  0
  162.3310  206.9970  149.5770 C   0  0  2  0  0  3  0  0  0  0  0  0
  160.6910  203.4180  144.5110 F   0  0  0  0  0  0  0  0  0  0  0  0
  161.2690  205.4560  151.8160 C   0  0  0  0  0  2  0  0  0  0  0  0
  161.0190  200.3760  149.2800 O   0  0  0  0  0  1  0  0  0  0  0  0
  162.6430  207.2760  148.1110 C   0  0  0  0  0  2  0  0  0  0  0  0
  160.8580  206.5890  149.7280 C   0  0  2  0  0  3  0  0  0  0  0  0
  160.6720  204.4030  146.6440 N   0  0  0  0  0  0  0  0  0  0  0  0
  161.3910  201.7170  151.2490 C   0  0  0  0  0  3  0  0  0  0  0  0
  162.1800  206.1770  147.2020 C   0  0  0  0  0  0  0  0  0  0  0  0
  162.7040  206.1150  145.9100 C   0  0  0  0  0  3  0  0  0  0  0  0
  160.4560  206.4670  151.1350 N   0  0  0  0  0  2  0  0  0  0  0  0
  161.1750  204.1280  151.1310 C   0  0  0  0  0  0  0  0  0  0  0  0
  161.4390  202.9690  151.8670 C   0  0  0  0  0  3  0  0  0  0  0  0
  161.5810  209.6640  148.8660 O   0  0  0  0  0  0  0  0  0  0  0  0
  162.1890  209.4990  149.9570 C   0  0  0  0  0  0  0  0  0  0  0  0
  162.6010  208.1920  150.3650 N   0  0  0  0  0  2  0  0  0  0  0  0
  160.1460  211.5280  152.3910 C   0  0  1  0  0  3  0  0  0  0  0  0
  162.3320  210.3280  152.2820 C   0  0  0  0  0  3  0  0  0  0  0  0
  161.7170  212.1890  149.0800 C   0  0  0  0  0  1  0  0  0  0  0  0
  158.7920  210.9610  152.7610 C   0  0  0  0  0  1  0  0  0  0  0  0
  161.2410  210.6750  152.9820 C   0  0  0  0  0  3  0  0  0  0  0  0
  161.6590  211.8860  150.5040 N   0  0  0  0  0  0  0  0  0  0  0  0
  162.4780  210.6980  150.8270 C   0  0  2  0  0  3  0  0  0  0  0  0
  160.2630  211.6470  150.8700 C   0  0  0  0  0  2  0  0  0  0  0  0
  1 14  1  0  0  0  0
  2  5  1  6  0  0  0
  2 13  1  0  0  0  0
  2  3  1  0  0  0  0
  3 19  1  0  0  0  0
  4 15  2  0  0  0  0
  6  1  2  0  0  0  0
  6 17  1  0  0  0  0
  7  3  2  0  0  0  0
  7  4  1  0  0  0  0
  8 13  1  0  0  0  0
  8 23  1  1  0  0  0
  9  1  1  0  0  0  0
 11  4  1  0  0  0  0
 12  8  1  0  0  0  0
 13 18  1  1  0  0  0
 14  5  2  0  0  0  0
 15 20  1  0  0  0  0
 16  5  1  0  0  0  0
 16 12  1  0  0  0  0
 17 16  2  0  0  0  0
 18 10  1  0  0  0  0
 19 10  1  0  0  0  0
 19 20  2  0  0  0  0
 21 22  2  0  0  0  0
 22 23  1  0  0  0  0
 24 27  1  6  0  0  0
 24 28  1  0  0  0  0
 25 28  2  0  0  0  0
 26 29  1  0  0  0  0
 29 30  1  0  0  0  0
 29 31  1  0  0  0  0
 30 22  1  6  0  0  0
 30 25  1  0  0  0  0
 31 24  1  0  0  0  0
M  END
>  <MODEL>
4

>  <REMARK>
 VINA RESULT:      -6.6      1.374      1.997
  Name = 
  2 active torsions:
  status: ('A' for Active; 'I' for Inactive)
    1  A    between atoms: C_5  and  C_30
    2  A    between atoms: C_10  and  N_16
                            x       y       z     vdW  Elec       q    Type
                         _______ _______ _______ _____ _____    ______ ____

>  <TORSDO>
F 2

$$$$
=
 OpenBabel11122413233D

 31 35  0  0  1  0  0  0  0  0999 V2000
  161.4010  202.4520  151.1800 C   0  0  0  0  0  0  0  0  0  0  0  0
  162.3230  205.7640  149.6770 C   0  0  2  0  0  3  0  0  0  0  0  0
  161.6550  205.7540  148.3130 C   0  0  0  0  0  0  0  0  0  0  0  0
  160.8300  204.5220  146.3830 C   0  0  0  0  0  0  0  0  0  0  0  0
  161.7360  204.7460  150.6320 C   0  0  0  0  0  0  0  0  0  0  0  0
  160.6340  202.8020  152.2920 C   0  0  0  0  0  3  0  0  0  0  0  0
  161.3750  204.5380  147.6690 C   0  0  0  0  0  3  0  0  0  0  0  0
  161.0770  207.5390  151.0100 C   0  0  2  0  0  3  0  0  0  0  0  0
  161.6160  201.1470  150.8910 F   0  0  0  0  0  0  0  0  0  0  0  0
  161.7140  208.2830  148.2600 C   0  0  0  0  0  2  0  0  0  0  0  0
  160.5430  203.3120  145.7660 O   0  0  0  0  0  1  0  0  0  0  0  0
  160.8320  206.5710  152.1630 C   0  0  0  0  0  2  0  0  0  0  0  0
  162.3860  207.1760  150.2940 C   0  0  2  0  0  3  0  0  0  0  0  0
  161.9310  203.4200  150.3860 N   0  0  0  0  0  0  0  0  0  0  0  0
  160.5760  205.7230  145.7170 C   0  0  0  0  0  3  0  0  0  0  0  0
  160.9670  205.1360  151.7500 C   0  0  0  0  0  0  0  0  0  0  0  0
  160.4280  204.1510  152.5790 C   0  0  0  0  0  3  0  0  0  0  0  0
  162.7600  208.1700  149.2800 N   0  0  0  0  0  2  0  0  0  0  0  0
  161.4340  206.9610  147.6150 C   0  0  0  0  0  0  0  0  0  0  0  0
  160.8770  206.9390  146.3330 C   0  0  0  0  0  3  0  0  0  0  0  0
  160.9680  208.2760  153.7710 O   0  0  0  0  0  0  0  0  0  0  0  0
  161.1000  209.2000  152.9240 C   0  0  0  0  0  0  0  0  0  0  0  0
  161.1510  208.8990  151.5270 N   0  0  0  0  0  2  0  0  0  0  0  0
  160.1280  210.9800  156.1030 C   0  0  1  0  0  3  0  0  0  0  0  0
  162.1080  210.7050  154.6080 C   0  0  0  0  0  3  0  0  0  0  0  0
  158.9870  211.1050  152.5610 C   0  0  0  0  0  1  0  0  0  0  0  0
  159.7080  210.0980  157.2600 C   0  0  0  0  0  1  0  0  0  0  0  0
  161.6070  210.8230  155.8470 C   0  0  0  0  0  3  0  0  0  0  0  0
  159.8990  211.2630  153.6850 N   0  0  0  0  0  0  0  0  0  0  0  0
  161.2040  210.6270  153.4020 C   0  0  2  0  0  3  0  0  0  0  0  0
  159.2900  210.6520  154.8660 C   0  0  0  0  0  2  0  0  0  0  0  0
  1  6  1  0  0  0  0
  2  3  1  6  0  0  0
  2 13  1  0  0  0  0
  2  5  1  0  0  0  0
  4  7  2  0  0  0  0
  5 16  2  0  0  0  0
  6 17  2  0  0  0  0
  7  3  1  0  0  0  0
  8 23  1  1  0  0  0
  8 12  1  0  0  0  0
  9  1  1  0  0  0  0
 10 18  1  0  0  0  0
 11  4  1  0  0  0  0
 13 18  1  6  0  0  0
 13  8  1  0  0  0  0
 14  5  1  0  0  0  0
 14  1  2  0  0  0  0
 15 20  2  0  0  0  0
 15  4  1  0  0  0  0
 16 12  1  0  0  0  0
 16 17  1  0  0  0  0
 19 10  1  0  0  0  0
 19  3  2  0  0  0  0
 20 19  1  0  0  0  0
 22 21  2  0  0  0  0
 23 22  1  0  0  0  0
 24 27  1  1  0  0  0
 25 28  2  0  0  0  0
 26 29  1  0  0  0  0
 28 24  1  0  0  0  0
 29 31  1  0  0  0  0
 30 22  1  1  0  0  0
 30 29  1  0  0  0  0
 30 25  1  0  0  0  0
 31 24  1  0  0  0  0
M  END
>  <MODEL>
5

>  <REMARK>
 VINA RESULT:      -6.0      3.410      5.455
  Name = 
  2 active torsions:
  status: ('A' for Active; 'I' for Inactive)
    1  A    between atoms: C_5  and  C_30
    2  A    between atoms: C_10  and  N_16
                            x       y       z     vdW  Elec       q    Type
                         _______ _______ _______ _____ _____    ______ ____

>  <TORSDO>
F 2

$$$$
=
 OpenBabel11122413233D

 31 35  0  0  1  0  0  0  0  0999 V2000
  161.9540  206.7320  147.5950 C   0  0  0  0  0  0  0  0  0  0  0  0
  162.3720  209.2800  150.3170 C   0  0  2  0  0  3  0  0  0  0  0  0
  161.7450  210.5400  149.7490 C   0  0  0  0  0  0  0  0  0  0  0  0
  161.1670  211.9220  147.8310 C   0  0  0  0  0  0  0  0  0  0  0  0
  161.9340  208.0220  149.5970 C   0  0  0  0  0  0  0  0  0  0  0  0
  161.1170  205.7750  148.1710 C   0  0  0  0  0  3  0  0  0  0  0  0
  161.6750  210.7340  148.3600 C   0  0  0  0  0  3  0  0  0  0  0  0
  160.8320  208.5730  152.2170 C   0  0  2  0  0  3  0  0  0  0  0  0
  162.3800  206.5770  146.3190 F   0  0  0  0  0  0  0  0  0  0  0  0
  161.4020  211.4330  152.0920 C   0  0  0  0  0  2  0  0  0  0  0  0
  161.0900  212.0920  146.4560 O   0  0  0  0  0  1  0  0  0  0  0  0
  160.7180  207.1570  151.6630 C   0  0  0  0  0  2  0  0  0  0  0  0
  162.1970  209.1700  151.8460 C   0  0  2  0  0  3  0  0  0  0  0  0
  162.3420  207.8190  148.3130 N   0  0  0  0  0  0  0  0  0  0  0  0
  160.7410  212.9410  148.6850 C   0  0  0  0  0  3  0  0  0  0  0  0
  161.0880  207.0730  150.2120 C   0  0  0  0  0  0  0  0  0  0  0  0
  160.6940  205.9460  149.4880 C   0  0  0  0  0  3  0  0  0  0  0  0
  162.4310  210.4680  152.4910 N   0  0  0  0  0  2  0  0  0  0  0  0
  161.3500  211.5920  150.6040 C   0  0  0  0  0  0  0  0  0  0  0  0
  160.8320  212.7750  150.0690 C   0  0  0  0  0  3  0  0  0  0  0  0
  159.1300  210.2880  153.7470 O   0  0  0  0  0  0  0  0  0  0  0  0
  159.8000  209.4220  154.3700 C   0  0  0  0  0  0  0  0  0  0  0  0
  160.6780  208.5400  153.6650 N   0  0  0  0  0  2  0  0  0  0  0  0
  162.1400  210.0420  157.2610 C   0  0  1  0  0  3  0  0  0  0  0  0
  159.8540  210.6870  156.4940 C   0  0  0  0  0  3  0  0  0  0  0  0
  160.4610  207.0420  155.8290 C   0  0  0  0  0  1  0  0  0  0  0  0
  163.4560  210.7100  156.9220 C   0  0  0  0  0  1  0  0  0  0  0  0
  161.0060  211.0240  157.0930 C   0  0  0  0  0  3  0  0  0  0  0  0
  160.5680  208.3340  156.4930 N   0  0  0  0  0  0  0  0  0  0  0  0
  159.6650  209.3260  155.8700 C   0  0  2  0  0  3  0  0  0  0  0  0
  161.9540  208.7910  156.4000 C   0  0  0  0  0  2  0  0  0  0  0  0
  1  6  2  0  0  0  0
  1 14  1  0  0  0  0
  2  5  1  6  0  0  0
  2 13  1  0  0  0  0
  3  2  1  0  0  0  0
  3 19  1  0  0  0  0
  4  7  1  0  0  0  0
  4 15  2  0  0  0  0
  5 16  1  0  0  0  0
  6 17  1  0  0  0  0
  7  3  2  0  0  0  0
  8 23  1  1  0  0  0
  9  1  1  0  0  0  0
 10 18  1  0  0  0  0
 11  4  1  0  0  0  0
 12  8  1  0  0  0  0
 13  8  1  0  0  0  0
 13 18  1  1  0  0  0
 14  5  2  0  0  0  0
 15 20  1  0  0  0  0
 16 12  1  0  0  0  0
 17 16  2  0  0  0  0
 19 10  1  0  0  0  0
 20 19  2  0  0  0  0
 21 22  2  0  0  0  0
 23 22  1  0  0  0  0
 24 27  1  6  0  0  0
 25 28  2  0  0  0  0
 26 29  1  0  0  0  0
 28 24  1  0  0  0  0
 30 22  1  6  0  0  0
 30 29  1  0  0  0  0
 30 25  1  0  0  0  0
 31 29  1  0  0  0  0
 31 24  1  0  0  0  0
M  END
>  <MODEL>
6

>  <REMARK>
 VINA RESULT:      -5.6      3.704      6.969
  Name = 
  2 active torsions:
  status: ('A' for Active; 'I' for Inactive)
    1  A    between atoms: C_5  and  C_30
    2  A    between atoms: C_10  and  N_16
                            x       y       z     vdW  Elec       q    Type
                         _______ _______ _______ _____ _____    ______ ____

>  <TORSDO>
F 2

$$$$
=
 OpenBabel11122413233D

 31 35  0  0  1  0  0  0  0  0999 V2000
  160.9240  201.6690  149.7430 C   0  0  0  0  0  0  0  0  0  0  0  0
  162.3310  205.1090  150.2530 C   0  0  2  0  0  3  0  0  0  0  0  0
  161.7500  205.9240  149.1110 C   0  0  0  0  0  0  0  0  0  0  0  0
  160.8960  206.0470  146.8350 C   0  0  0  0  0  0  0  0  0  0  0  0
  161.5690  203.8280  150.5160 C   0  0  0  0  0  0  0  0  0  0  0  0
  160.1400  201.4670  150.8800 C   0  0  0  0  0  3  0  0  0  0  0  0
  161.3620  205.2960  147.9170 C   0  0  0  0  0  3  0  0  0  0  0  0
  161.2340  206.0390  152.3540 C   0  0  2  0  0  3  0  0  0  0  0  0
  160.9950  200.7090  148.7910 F   0  0  0  0  0  0  0  0  0  0  0  0
  162.1190  208.0500  150.4320 C   0  0  0  0  0  2  0  0  0  0  0  0
  160.5020  205.4090  145.6670 O   0  0  0  0  0  1  0  0  0  0  0  0
  160.8040  204.6470  152.8050 C   0  0  0  0  0  2  0  0  0  0  0  0
  162.5290  205.9450  151.5340 C   0  0  2  0  0  3  0  0  0  0  0  0
  161.6150  202.8300  149.5900 N   0  0  0  0  0  0  0  0  0  0  0  0
  160.8310  207.4380  146.9270 C   0  0  0  0  0  3  0  0  0  0  0  0
  160.7880  203.6560  151.6800 C   0  0  0  0  0  0  0  0  0  0  0  0
  160.0840  202.4630  151.8530 C   0  0  0  0  0  3  0  0  0  0  0  0
  163.0810  207.2670  151.2130 N   0  0  0  0  0  2  0  0  0  0  0  0
  161.7190  207.3340  149.1800 C   0  0  0  0  0  0  0  0  0  0  0  0
  161.2410  208.0790  148.0990 C   0  0  0  0  0  3  0  0  0  0  0  0
  160.0810  208.6240  152.7640 O   0  0  0  0  0  0  0  0  0  0  0  0
  160.8270  208.1660  153.6710 C   0  0  0  0  0  0  0  0  0  0  0  0
  161.4420  206.8840  153.5220 N   0  0  0  0  0  2  0  0  0  0  0  0
  159.3630  211.3700  155.0150 C   0  0  1  0  0  3  0  0  0  0  0  0
  159.8080  209.0270  155.7530 C   0  0  0  0  0  3  0  0  0  0  0  0
  162.7090  210.3280  153.7570 C   0  0  0  0  0  1  0  0  0  0  0  0
  158.1430  211.9010  154.2930 C   0  0  0  0  0  1  0  0  0  0  0  0
  159.0110  210.1070  155.7610 C   0  0  0  0  0  3  0  0  0  0  0  0
  161.5560  210.3550  154.6470 N   0  0  0  0  0  0  0  0  0  0  0  0
  161.0620  208.9870  154.9140 C   0  0  2  0  0  3  0  0  0  0  0  0
  160.5040  211.1540  154.0200 C   0  0  0  0  0  2  0  0  0  0  0  0
  1  6  1  0  0  0  0
  2  3  1  6  0  0  0
  2  5  1  0  0  0  0
  2 13  1  0  0  0  0
  3 19  1  0  0  0  0
  4 15  2  0  0  0  0
  4  7  1  0  0  0  0
  5 16  2  0  0  0  0
  6 17  2  0  0  0  0
  7  3  2  0  0  0  0
  8 12  1  0  0  0  0
  8 23  1  1  0  0  0
  9  1  1  0  0  0  0
 10 18  1  0  0  0  0
 11  4  1  0  0  0  0
 13 18  1  6  0  0  0
 13  8  1  0  0  0  0
 14  1  2  0  0  0  0
 14  5  1  0  0  0  0
 15 20  1  0  0  0  0
 16 17  1  0  0  0  0
 16 12  1  0  0  0  0
 19 10  1  0  0  0  0
 20 19  2  0  0  0  0
 21 22  2  0  0  0  0
 23 22  1  0  0  0  0
 24 27  1  6  0  0  0
 24 28  1  0  0  0  0
 25 28  2  0  0  0  0
 26 29  1  0  0  0  0
 29 30  1  0  0  0  0
 30 22  1  6  0  0  0
 30 25  1  0  0  0  0
 31 29  1  0  0  0  0
 31 24  1  0  0  0  0
M  END
>  <MODEL>
7

>  <REMARK>
 VINA RESULT:      -5.3      3.299      5.294
  Name = 
  2 active torsions:
  status: ('A' for Active; 'I' for Inactive)
    1  A    between atoms: C_5  and  C_30
    2  A    between atoms: C_10  and  N_16
                            x       y       z     vdW  Elec       q    Type
                         _______ _______ _______ _____ _____    ______ ____

>  <TORSDO>
F 2

$$$$
=
 OpenBabel11122413233D

 31 35  0  0  1  0  0  0  0  0999 V2000
  161.9930  211.4990  148.3360 C   0  0  0  0  0  0  0  0  0  0  0  0
  159.6880  212.2460  145.4720 C   0  0  2  0  0  3  0  0  0  0  0  0
  158.5230  212.9810  146.1110 C   0  0  0  0  0  0  0  0  0  0  0  0
  157.0990  213.3910  148.0410 C   0  0  0  0  0  0  0  0  0  0  0  0
  160.9310  212.2380  146.3370 C   0  0  0  0  0  0  0  0  0  0  0  0
  163.1440  212.2240  148.0250 C   0  0  0  0  0  3  0  0  0  0  0  0
  158.2130  212.7770  147.4650 C   0  0  0  0  0  3  0  0  0  0  0  0
  160.8590  213.9890  144.0330 C   0  0  2  0  0  3  0  0  0  0  0  0
  161.9380  210.7760  149.4800 F   0  0  0  0  0  0  0  0  0  0  0  0
  157.9440  214.0190  143.8770 C   0  0  0  0  0  2  0  0  0  0  0  0
  156.8140  213.1920  149.3850 O   0  0  0  0  0  1  0  0  0  0  0  0
  162.2100  213.6770  144.6670 C   0  0  0  0  0  2  0  0  0  0  0  0
  159.9770  212.7320  144.0370 C   0  0  2  0  0  3  0  0  0  0  0  0
  160.9260  211.5200  147.4940 N   0  0  0  0  0  0  0  0  0  0  0  0
  156.2680  214.2020  147.2650 C   0  0  0  0  0  3  0  0  0  0  0  0
  162.0800  212.9820  145.9890 C   0  0  0  0  0  0  0  0  0  0  0  0
  163.1860  212.9580  146.8410 C   0  0  0  0  0  3  0  0  0  0  0  0
  158.7270  212.9270  143.2920 N   0  0  0  0  0  2  0  0  0  0  0  0
  157.6550  213.7680  145.3250 C   0  0  0  0  0  0  0  0  0  0  0  0
  156.5480  214.3900  145.9090 C   0  0  0  0  0  3  0  0  0  0  0  0
  161.5150  212.3340  141.7950 O   0  0  0  0  0  0  0  0  0  0  0  0
  161.3780  213.5700  141.5870 C   0  0  0  0  0  0  0  0  0  0  0  0
  161.0610  214.4530  142.6670 N   0  0  0  0  0  2  0  0  0  0  0  0
  162.1390  211.9900  138.2500 C   0  0  1  0  0  3  0  0  0  0  0  0
  160.4840  213.5470  139.2820 C   0  0  0  0  0  3  0  0  0  0  0  0
  163.9390  214.3160  140.5330 C   0  0  0  0  0  1  0  0  0  0  0  0
  162.0860  210.4780  138.1990 C   0  0  0  0  0  1  0  0  0  0  0  0
  160.7480  212.5490  138.4260 C   0  0  0  0  0  3  0  0  0  0  0  0
  162.8980  213.8690  139.6180 N   0  0  0  0  0  0  0  0  0  0  0  0
  161.5540  214.1050  140.1880 C   0  0  2  0  0  3  0  0  0  0  0  0
  163.0880  212.4420  139.3610 C   0  0  0  0  0  2  0  0  0  0  0  0
  1  9  1  0  0  0  0
  2  3  1  1  0  0  0
  2  5  1  0  0  0  0
  3  7  1  0  0  0  0
  4 11  1  0  0  0  0
  5 14  1  0  0  0  0
  6  1  1  0  0  0  0
  7  4  2  0  0  0  0
  8 23  1  6  0  0  0
  8 13  1  0  0  0  0
  8 12  1  0  0  0  0
 10 19  1  0  0  0  0
 12 16  1  0  0  0  0
 13 18  1  1  0  0  0
 13  2  1  0  0  0  0
 14  1  2  0  0  0  0
 15  4  1  0  0  0  0
 16  5  2  0  0  0  0
 16 17  1  0  0  0  0
 17  6  2  0  0  0  0
 18 10  1  0  0  0  0
 19 20  1  0  0  0  0
 19  3  2  0  0  0  0
 20 15  2  0  0  0  0
 22 21  2  0  0  0  0
 22 23  1  0  0  0  0
 24 27  1  1  0  0  0
 24 28  1  0  0  0  0
 24 31  1  0  0  0  0
 25 30  1  0  0  0  0
 28 25  2  0  0  0  0
 29 30  1  0  0  0  0
 29 26  1  0  0  0  0
 30 22  1  1  0  0  0
 31 29  1  0  0  0  0
M  END
>  <MODEL>
8

>  <REMARK>
 VINA RESULT:      -5.2      6.198      9.498
  Name = 
  2 active torsions:
  status: ('A' for Active; 'I' for Inactive)
    1  A    between atoms: C_5  and  C_30
    2  A    between atoms: C_10  and  N_16
                            x       y       z     vdW  Elec       q    Type
                         _______ _______ _______ _____ _____    ______ ____

>  <TORSDO>
F 2

$$$$
=
 OpenBabel11122413233D

 31 35  0  0  1  0  0  0  0  0999 V2000
  161.5990  203.5370  151.7440 C   0  0  0  0  0  0  0  0  0  0  0  0
  162.5160  207.1590  151.3940 C   0  0  2  0  0  3  0  0  0  0  0  0
  162.0670  207.5240  149.9910 C   0  0  0  0  0  0  0  0  0  0  0  0
  161.6310  206.8760  147.6860 C   0  0  0  0  0  0  0  0  0  0  0  0
  161.8600  205.8990  151.9180 C   0  0  0  0  0  0  0  0  0  0  0  0
  160.6490  203.5400  152.7660 C   0  0  0  0  0  3  0  0  0  0  0  0
  161.9710  206.5370  148.9970 C   0  0  0  0  0  3  0  0  0  0  0  0
  160.9650  208.4540  152.9420 C   0  0  2  0  0  3  0  0  0  0  0  0
  161.9430  202.3730  151.1430 F   0  0  0  0  0  0  0  0  0  0  0  0
  161.9630  209.9640  150.6530 C   0  0  0  0  0  2  0  0  0  0  0  0
  161.5250  205.8860  146.7180 O   0  0  0  0  0  1  0  0  0  0  0  0
  160.6110  207.1930  153.7230 C   0  0  0  0  0  2  0  0  0  0  0  0
  162.3890  208.3380  152.3810 C   0  0  2  0  0  3  0  0  0  0  0  0
  162.1780  204.7020  151.3500 N   0  0  0  0  0  0  0  0  0  0  0  0
  161.4030  208.2110  147.3460 C   0  0  0  0  0  3  0  0  0  0  0  0
  160.9040  205.9380  152.9560 C   0  0  0  0  0  0  0  0  0  0  0  0
  160.3110  204.7460  153.3780 C   0  0  0  0  0  3  0  0  0  0  0  0
  162.8460  209.5870  151.7600 N   0  0  0  0  0  2  0  0  0  0  0  0
  161.8750  208.8750  149.6290 C   0  0  0  0  0  0  0  0  0  0  0  0
  161.5240  209.2080  148.3180 C   0  0  0  0  0  3  0  0  0  0  0  0
  159.1910  210.6680  152.5850 O   0  0  0  0  0  0  0  0  0  0  0  0
  159.9490  210.6840  153.5910 C   0  0  0  0  0  0  0  0  0  0  0  0
  160.8680  209.6110  153.8210 N   0  0  0  0  0  2  0  0  0  0  0  0
  157.2260  212.1330  155.7580 C   0  0  1  0  0  3  0  0  0  0  0  0
  159.5890  211.3510  155.9450 C   0  0  0  0  0  3  0  0  0  0  0  0
  159.1200  213.3050  152.7740 C   0  0  0  0  0  1  0  0  0  0  0  0
  155.9610  211.3100  155.8820 C   0  0  0  0  0  1  0  0  0  0  0  0
  158.3610  211.4460  156.4770 C   0  0  0  0  0  3  0  0  0  0  0  0
  158.9080  212.8920  154.1550 N   0  0  0  0  0  0  0  0  0  0  0  0
  159.8770  211.8470  154.5490 C   0  0  2  0  0  3  0  0  0  0  0  0
  157.5430  212.3830  154.2820 C   0  0  0  0  0  2  0  0  0  0  0  0
  1  6  1  0  0  0  0
  2  3  1  6  0  0  0
  2  5  1  0  0  0  0
  2 13  1  0  0  0  0
  4  7  1  0  0  0  0
  5 16  2  0  0  0  0
  6 17  2  0  0  0  0
  7  3  2  0  0  0  0
  8 12  1  0  0  0  0
  8 23  1  1  0  0  0
  9  1  1  0  0  0  0
 10 18  1  0  0  0  0
 11  4  1  0  0  0  0
 13 18  1  6  0  0  0
 13  8  1  0  0  0  0
 14  1  2  0  0  0  0
 14  5  1  0  0  0  0
 15  4  2  0  0  0  0
 15 20  1  0  0  0  0
 16 17  1  0  0  0  0
 16 12  1  0  0  0  0
 19  3  1  0  0  0  0
 19 10  1  0  0  0  0
 20 19  2  0  0  0  0
 21 22  2  0  0  0  0
 22 23  1  0  0  0  0
 24 27  1  6  0  0  0
 24 28  1  0  0  0  0
 25 28  2  0  0  0  0
 26 29  1  0  0  0  0
 29 31  1  0  0  0  0
 29 30  1  0  0  0  0
 30 22  1  6  0  0  0
 30 25  1  0  0  0  0
 31 24  1  0  0  0  0
M  END
>  <MODEL>
9

>  <REMARK>
 VINA RESULT:      -5.0      3.819      5.934
  Name = 
  2 active torsions:
  status: ('A' for Active; 'I' for Inactive)
    1  A    between atoms: C_5  and  C_30
    2  A    between atoms: C_10  and  N_16
                            x       y       z     vdW  Elec       q    Type
                         _______ _______ _______ _____ _____    ______ ____

>  <TORSDO>
F 2

$$$$
