=
 OpenBabel11122414133D

 28 32  0  0  1  0  0  0  0  0999 V2000
  159.0910  213.4040  141.6820 C   0  0  0  0  0  0  0  0  0  0  0  0
  161.7630  214.4050  139.6030 O   0  0  0  0  0  1  0  0  0  0  0  0
  159.7270  208.4710  138.1110 O   0  0  0  0  0  0  0  0  0  0  0  0
  159.7000  212.3450  144.2080 C   0  0  0  0  0  3  0  0  0  0  0  0
  161.5100  210.0090  138.0170 N   0  0  0  0  0  0  0  0  0  0  0  0
  158.5870  214.1270  140.1210 S   0  0  0  0  0  0  0  0  0  0  0  0
  162.4100  214.4530  141.8860 C   0  0  0  0  0  1  0  0  0  0  0  0
  162.6300  213.8170  140.5270 C   0  0  1  0  0  0  0  0  0  0  0  0
  164.6010  213.3060  139.0920 C   0  0  0  0  0  0  0  0  0  0  0  0
  162.4000  212.2840  140.6090 C   0  0  2  0  0  3  0  0  0  0  0  0
  157.4120  212.1820  137.5770 O   0  0  0  0  0  0  0  0  0  0  0  0
  160.4120  211.7360  139.2590 C   0  0  1  0  0  3  0  0  0  0  0  0
  163.9920  212.1250  138.6730 O   0  0  0  0  0  0  0  0  0  0  0  0
  163.9990  214.0860  140.1190 N   0  0  0  0  0  2  0  0  0  0  0  0
  157.4850  211.8660  138.7930 C   0  0  0  0  0  0  0  0  0  0  0  0
  160.0790  212.3920  141.8030 C   0  0  0  0  0  0  0  0  0  0  0  0
  160.2280  209.5830  138.4250 C   0  0  0  0  0  0  0  0  0  0  0  0
  166.0080  213.7840  138.4200 S   0  0  0  0  0  0  0  0  0  0  0  0
  158.1410  210.6580  139.1740 N   0  0  0  0  0  2  0  0  0  0  0  0
  160.3630  211.8740  143.0740 C   0  0  0  0  0  3  0  0  0  0  0  0
  158.4480  213.8800  142.8320 C   0  0  0  0  0  3  0  0  0  0  0  0
  158.7470  213.3530  144.0880 C   0  0  0  0  0  3  0  0  0  0  0  0
  156.8030  212.9550  140.0310 S   0  0  0  0  0  0  0  0  0  0  0  0
  161.6700  211.4020  138.4160 C   0  0  1  0  0  3  0  0  0  0  0  0
  159.5400  210.5710  139.1570 N   0  0  0  0  0  0  0  0  0  0  0  0
  162.8720  211.5440  139.3470 C   0  0  2  0  0  3  0  0  0  0  0  0
  162.3220  209.3470  137.0110 C   0  0  0  0  0  1  0  0  0  0  0  0
  160.9360  211.8650  140.6780 C   0  0  2  0  0  3  0  0  0  0  0  0
  1 16  2  0  0  0  0
  1 21  1  0  0  0  0
  2  8  1  0  0  0  0
  3 17  2  0  0  0  0
  5 24  1  0  0  0  0
  5 17  1  0  0  0  0
  6  1  1  0  0  0  0
  8 10  1  0  0  0  0
  8  7  1  1  0  0  0
  9 14  1  0  0  0  0
 10 28  1  0  0  0  0
 11 15  2  0  0  0  0
 12 28  1  0  0  0  0
 13  9  1  0  0  0  0
 13 26  1  0  0  0  0
 14  8  1  0  0  0  0
 15 19  1  0  0  0  0
 15 23  1  0  0  0  0
 16 20  1  0  0  0  0
 17 25  1  0  0  0  0
 18  9  2  0  0  0  0
 20  4  2  0  0  0  0
 21 22  2  0  0  0  0
 22  4  1  0  0  0  0
 23  6  1  0  0  0  0
 24 12  1  0  0  0  0
 24 26  1  0  0  0  0
 25 19  1  0  0  0  0
 25 12  1  0  0  0  0
 26 10  1  0  0  0  0
 27  5  1  0  0  0  0
 28 16  1  0  0  0  0
M  END
>  <MODEL>
1

>  <REMARK>
 VINA RESULT:      -5.3      0.000      0.000
  Name = 
  0 active torsions:
  status: ('A' for Active; 'I' for Inactive)
                            x       y       z     vdW  Elec       q    Type
                         _______ _______ _______ _____ _____    ______ ____

>  <TORSDO>
F 0

$$$$
=
 OpenBabel11122414133D

 28 32  0  0  1  0  0  0  0  0999 V2000
  161.6000  210.6940  137.9780 C   0  0  0  0  0  0  0  0  0  0  0  0
  158.9090  212.9320  137.5190 O   0  0  0  0  0  1  0  0  0  0  0  0
  161.1310  213.1470  143.5690 O   0  0  0  0  0  0  0  0  0  0  0  0
  161.0120  208.0010  138.5000 C   0  0  0  0  0  3  0  0  0  0  0  0
  159.3020  213.5590  142.1400 N   0  0  0  0  0  0  0  0  0  0  0  0
  162.0890  212.3740  137.5840 S   0  0  0  0  0  0  0  0  0  0  0  0
  158.2500  210.7090  137.0110 C   0  0  0  0  0  1  0  0  0  0  0  0
  158.0550  211.9030  137.9260 C   0  0  1  0  0  0  0  0  0  0  0  0
  156.1070  213.1950  138.7870 C   0  0  0  0  0  0  0  0  0  0  0  0
  158.3310  211.5020  139.3990 C   0  0  2  0  0  3  0  0  0  0  0  0
  163.3340  214.4530  139.9840 O   0  0  0  0  0  0  0  0  0  0  0  0
  160.3420  212.7090  140.1580 C   0  0  1  0  0  3  0  0  0  0  0  0
  156.7540  213.3580  140.0110 O   0  0  0  0  0  0  0  0  0  0  0  0
  156.6810  212.3560  137.7900 N   0  0  0  0  0  2  0  0  0  0  0  0
  163.2660  213.1980  140.0390 C   0  0  0  0  0  0  0  0  0  0  0  0
  160.6430  210.3610  138.9710 C   0  0  0  0  0  0  0  0  0  0  0  0
  160.5940  213.0720  142.4320 C   0  0  0  0  0  0  0  0  0  0  0  0
  154.6900  213.9500  138.5040 S   0  0  0  0  0  0  0  0  0  0  0  0
  162.6440  212.5700  141.1590 N   0  0  0  0  0  2  0  0  0  0  0  0
  160.3690  209.0090  139.2190 C   0  0  0  0  0  3  0  0  0  0  0  0
  162.2230  209.6720  137.2510 C   0  0  0  0  0  3  0  0  0  0  0  0
  161.9340  208.3320  137.5110 C   0  0  0  0  0  3  0  0  0  0  0  0
  163.9080  212.2180  138.6930 S   0  0  0  0  0  0  0  0  0  0  0  0
  159.0980  213.4610  140.7000 C   0  0  1  0  0  3  0  0  0  0  0  0
  161.2490  212.5660  141.2910 N   0  0  0  0  0  0  0  0  0  0  0  0
  157.8880  212.5780  140.4030 C   0  0  2  0  0  3  0  0  0  0  0  0
  158.5150  214.4020  143.0240 C   0  0  0  0  0  1  0  0  0  0  0  0
  159.8070  211.3480  139.7500 C   0  0  2  0  0  3  0  0  0  0  0  0
  1 16  1  0  0  0  0
  2  8  1  0  0  0  0
  4 20  1  0  0  0  0
  5 17  1  0  0  0  0
  5 27  1  0  0  0  0
  6  1  1  0  0  0  0
  6 23  1  0  0  0  0
  8  7  1  6  0  0  0
  8 10  1  0  0  0  0
  9 13  1  0  0  0  0
 10 28  1  0  0  0  0
 10 26  1  0  0  0  0
 11 15  2  0  0  0  0
 12 24  1  0  0  0  0
 12 25  1  0  0  0  0
 13 26  1  0  0  0  0
 14  8  1  0  0  0  0
 14  9  1  0  0  0  0
 15 19  1  0  0  0  0
 16 20  2  0  0  0  0
 16 28  1  0  0  0  0
 17  3  2  0  0  0  0
 18  9  2  0  0  0  0
 19 25  1  0  0  0  0
 21 22  1  0  0  0  0
 21  1  2  0  0  0  0
 22  4  2  0  0  0  0
 23 15  1  0  0  0  0
 24  5  1  0  0  0  0
 25 17  1  0  0  0  0
 26 24  1  0  0  0  0
 28 12  1  0  0  0  0
M  END
>  <MODEL>
2

>  <REMARK>
 VINA RESULT:      -4.4      2.220      6.359
  Name = 
  0 active torsions:
  status: ('A' for Active; 'I' for Inactive)
                            x       y       z     vdW  Elec       q    Type
                         _______ _______ _______ _____ _____    ______ ____

>  <TORSDO>
F 0

$$$$
=
 OpenBabel11122414133D

 28 32  0  0  1  0  0  0  0  0999 V2000
  161.1630  209.0250  155.3840 C   0  0  0  0  0  0  0  0  0  0  0  0
  158.0910  210.6120  154.6710 O   0  0  0  0  0  1  0  0  0  0  0  0
  162.2800  211.3280  149.8200 O   0  0  0  0  0  0  0  0  0  0  0  0
  163.0390  210.4080  156.9460 C   0  0  0  0  0  3  0  0  0  0  0  0
  160.3550  212.1750  150.8840 N   0  0  0  0  0  0  0  0  0  0  0  0
  160.0140  208.0270  154.4360 S   0  0  0  0  0  0  0  0  0  0  0  0
  159.0470  211.4860  156.6600 C   0  0  0  0  0  1  0  0  0  0  0  0
  158.6240  211.7750  155.2320 C   0  0  1  0  0  0  0  0  0  0  0  0
  157.2770  213.5320  154.0890 C   0  0  0  0  0  0  0  0  0  0  0  0
  159.8340  212.2870  154.4060 C   0  0  2  0  0  3  0  0  0  0  0  0
  160.4620  207.5210  151.0930 O   0  0  0  0  0  0  0  0  0  0  0  0
  160.3570  210.5990  152.6870 C   0  0  1  0  0  3  0  0  0  0  0  0
  158.1350  213.4770  152.9920 O   0  0  0  0  0  0  0  0  0  0  0  0
  157.5880  212.7940  155.2660 N   0  0  0  0  0  2  0  0  0  0  0  0
  161.3320  207.9050  151.9180 C   0  0  0  0  0  0  0  0  0  0  0  0
  161.4830  210.3730  155.0730 C   0  0  0  0  0  0  0  0  0  0  0  0
  161.4610  211.3040  150.7770 C   0  0  0  0  0  0  0  0  0  0  0  0
  155.9310  214.4500  154.0310 S   0  0  0  0  0  0  0  0  0  0  0  0
  162.0830  209.0890  151.6580 N   0  0  0  0  0  2  0  0  0  0  0  0
  162.4270  211.0420  155.8640 C   0  0  0  0  0  3  0  0  0  0  0  0
  161.7710  208.4090  156.4850 C   0  0  0  0  0  3  0  0  0  0  0  0
  162.7060  209.0930  157.2610 C   0  0  0  0  0  3  0  0  0  0  0  0
  161.5830  206.9860  153.4270 S   0  0  0  0  0  0  0  0  0  0  0  0
  159.5430  211.7340  152.0130 C   0  0  1  0  0  3  0  0  0  0  0  0
  161.5000  210.3530  151.8160 N   0  0  0  0  0  0  0  0  0  0  0  0
  159.4240  212.8580  153.0400 C   0  0  2  0  0  3  0  0  0  0  0  0
  159.8790  213.0460  149.8240 C   0  0  0  0  0  1  0  0  0  0  0  0
  160.8270  211.2040  153.9980 C   0  0  2  0  0  3  0  0  0  0  0  0
  1 21  1  0  0  0  0
  2  8  1  0  0  0  0
  3 17  2  0  0  0  0
  4 22  1  0  0  0  0
  5 24  1  0  0  0  0
  6  1  1  0  0  0  0
  8 14  1  0  0  0  0
  8  7  1  1  0  0  0
  9 14  1  0  0  0  0
 10  8  1  0  0  0  0
 11 15  2  0  0  0  0
 12 28  1  0  0  0  0
 13 26  1  0  0  0  0
 13  9  1  0  0  0  0
 15 23  1  0  0  0  0
 16  1  2  0  0  0  0
 16 20  1  0  0  0  0
 17  5  1  0  0  0  0
 17 25  1  0  0  0  0
 18  9  2  0  0  0  0
 19 25  1  0  0  0  0
 19 15  1  0  0  0  0
 20  4  2  0  0  0  0
 21 22  2  0  0  0  0
 23  6  1  0  0  0  0
 24 12  1  0  0  0  0
 24 26  1  0  0  0  0
 25 12  1  0  0  0  0
 26 10  1  0  0  0  0
 27  5  1  0  0  0  0
 28 10  1  0  0  0  0
 28 16  1  0  0  0  0
M  END
>  <MODEL>
3

>  <REMARK>
 VINA RESULT:      -4.1     11.999     14.502
  Name = 
  0 active torsions:
  status: ('A' for Active; 'I' for Inactive)
                            x       y       z     vdW  Elec       q    Type
                         _______ _______ _______ _____ _____    ______ ____

>  <TORSDO>
F 0

$$$$
=
 OpenBabel11122414133D

 28 32  0  0  1  0  0  0  0  0999 V2000
  159.0190  213.0630  140.8140 C   0  0  0  0  0  0  0  0  0  0  0  0
  160.3490  209.8750  140.0850 O   0  0  0  0  0  1  0  0  0  0  0  0
  164.8720  214.4530  139.6680 O   0  0  0  0  0  0  0  0  0  0  0  0
  157.7050  214.4530  138.7620 C   0  0  0  0  0  3  0  0  0  0  0  0
  164.2110  212.2900  139.0070 N   0  0  0  0  0  0  0  0  0  0  0  0
  159.7790  212.2370  142.2130 S   0  0  0  0  0  0  0  0  0  0  0  0
  158.5700  210.4030  138.6050 C   0  0  0  0  0  1  0  0  0  0  0  0
  160.0540  210.1200  138.7410 C   0  0  1  0  0  0  0  0  0  0  0  0
  161.7030  208.6410  137.6010 C   0  0  0  0  0  0  0  0  0  0  0  0
  160.8810  211.3150  138.1990 C   0  0  2  0  0  3  0  0  0  0  0  0
  162.8430  213.1870  143.3690 O   0  0  0  0  0  0  0  0  0  0  0  0
  162.0780  212.3400  140.0950 C   0  0  1  0  0  3  0  0  0  0  0  0
  162.6790  209.6260  137.7310 O   0  0  0  0  0  0  0  0  0  0  0  0
  160.3580  208.9240  137.9720 N   0  0  0  0  0  2  0  0  0  0  0  0
  162.0720  213.8640  142.6400 C   0  0  0  0  0  0  0  0  0  0  0  0
  159.6290  213.1780  139.5380 C   0  0  0  0  0  0  0  0  0  0  0  0
  164.0090  213.5360  139.6370 C   0  0  0  0  0  0  0  0  0  0  0  0
  162.0960  207.1720  137.0110 S   0  0  0  0  0  0  0  0  0  0  0  0
  162.5570  214.4220  141.4210 N   0  0  0  0  0  2  0  0  0  0  0  0
  158.9560  213.8820  138.5290 C   0  0  0  0  0  3  0  0  0  0  0  0
  157.7550  213.6260  141.0270 C   0  0  0  0  0  3  0  0  0  0  0  0
  157.1000  214.3200  140.0090 C   0  0  0  0  0  3  0  0  0  0  0  0
  160.3670  214.0800  143.1200 S   0  0  0  0  0  0  0  0  0  0  0  0
  163.0770  211.4320  139.3310 C   0  0  1  0  0  3  0  0  0  0  0  0
  162.7670  213.6100  140.2980 N   0  0  0  0  0  0  0  0  0  0  0  0
  162.3750  210.9870  138.0500 C   0  0  2  0  0  3  0  0  0  0  0  0
  165.4900  211.8070  138.5150 C   0  0  0  0  0  1  0  0  0  0  0  0
  160.9260  212.5270  139.1240 C   0  0  2  0  0  3  0  0  0  0  0  0
  1 21  1  0  0  0  0
  1  6  1  0  0  0  0
  4 22  1  0  0  0  0
  5 24  1  0  0  0  0
  5 17  1  0  0  0  0
  6 23  1  0  0  0  0
  8  7  1  6  0  0  0
  8  2  1  0  0  0  0
  9 13  1  0  0  0  0
  9 14  1  0  0  0  0
 10  8  1  0  0  0  0
 10 28  1  0  0  0  0
 12 25  1  0  0  0  0
 13 26  1  0  0  0  0
 14  8  1  0  0  0  0
 15 23  1  0  0  0  0
 15 11  2  0  0  0  0
 16  1  2  0  0  0  0
 17  3  2  0  0  0  0
 17 25  1  0  0  0  0
 18  9  2  0  0  0  0
 19 15  1  0  0  0  0
 20  4  2  0  0  0  0
 20 16  1  0  0  0  0
 22 21  2  0  0  0  0
 24 12  1  0  0  0  0
 25 19  1  0  0  0  0
 26 10  1  0  0  0  0
 26 24  1  0  0  0  0
 27  5  1  0  0  0  0
 28 16  1  0  0  0  0
 28 12  1  0  0  0  0
M  END
>  <MODEL>
4

>  <REMARK>
 VINA RESULT:      -3.7      2.589      4.913
  Name = 
  0 active torsions:
  status: ('A' for Active; 'I' for Inactive)
                            x       y       z     vdW  Elec       q    Type
                         _______ _______ _______ _____ _____    ______ ____

>  <TORSDO>
F 0

$$$$
