=
 OpenBabel11122412453D

 30 35  0  0  1  0  0  0  0  0999 V2000
  161.3500  207.7150  150.9210 C   0  0  0  0  0  0  0  0  0  0  0  0
  160.8200  209.0790  152.9420 C   0  0  2  0  0  3  0  0  0  0  0  0
  161.0150  203.9250  152.7980 C   0  0  0  0  0  2  0  0  0  0  0  0
  161.5090  206.4220  150.2000 C   0  0  0  0  0  0  0  0  0  0  0  0
  161.4840  208.9270  150.1700 N   0  0  0  0  0  0  0  0  0  0  0  0
  163.9190  207.5950  148.3840 C   0  0  0  0  0  1  0  0  0  0  0  0
  161.3590  204.1300  147.9520 C   0  0  1  0  0  3  0  0  0  0  0  0
  162.4100  207.7090  148.2550 C   0  0  2  0  0  3  0  0  0  0  0  0
  160.6950  203.5830  149.1850 C   0  0  1  0  0  3  0  0  0  0  0  0
  161.2400  202.9980  151.6010 C   0  0  2  0  0  3  0  0  0  0  0  0
  161.9250  208.9580  148.9450 C   0  0  0  0  0  0  0  0  0  0  0  0
  161.7710  206.5000  148.7820 N   0  0  0  0  0  0  0  0  0  0  0  0
  160.6890  208.9410  154.4370 C   0  0  0  0  0  3  0  0  0  0  0  0
  160.5510  202.1000  148.8880 C   0  0  0  0  0  2  0  0  0  0  0  0
  160.7880  203.3310  146.7960 C   0  0  0  0  0  2  0  0  0  0  0  0
  159.6770  209.6790  152.4460 F   0  0  0  0  0  0  0  0  0  0  0  0
  161.0620  205.2670  152.2590 N   0  0  0  0  0  0  0  0  0  0  0  0
  160.6250  207.7580  155.0540 C   0  0  0  0  0  3  0  0  0  0  0  0
  161.0500  207.7600  152.2370 C   0  0  0  0  0  0  0  0  0  0  0  0
  161.3730  205.2610  150.8800 C   0  0  0  0  0  0  0  0  0  0  0  0
  162.3820  202.0490  151.8990 C   0  0  0  0  0  1  0  0  0  0  0  0
  161.5920  203.8730  150.3830 C   0  0  2  0  0  3  0  0  0  0  0  0
  160.3790  201.9920  147.3830 C   0  0  0  0  0  2  0  0  0  0  0  0
  160.5210  206.0870  146.8550 O   0  0  0  0  0  0  0  0  0  0  0  0
  160.7170  206.4940  154.3070 C   0  0  0  0  0  3  0  0  0  0  0  0
  160.9180  206.4890  152.9860 C   0  0  0  0  0  0  0  0  0  0  0  0
  161.1650  205.6100  147.8310 C   0  0  0  0  0  0  0  0  0  0  0  0
  162.0060  210.1710  148.2530 O   0  0  0  0  0  0  0  0  0  0  0  0
  162.8780  212.4080  148.0200 C   0  0  0  0  0  1  0  0  0  0  0  0
  162.1360  211.4280  148.9090 C   0  0  0  0  0  2  0  0  0  0  0  0
  1 19  2  0  0  0  0
  2 16  1  6  0  0  0
  2 13  1  0  0  0  0
  4 20  2  0  0  0  0
  4  1  1  0  0  0  0
  5  1  1  0  0  0  0
  7 15  1  6  0  0  0
  7  9  1  0  0  0  0
  8  6  1  1  0  0  0
  8 12  1  0  0  0  0
  8 11  1  0  0  0  0
  9 14  1  6  0  0  0
  9 22  1  0  0  0  0
 10 21  1  1  0  0  0
 10  3  1  0  0  0  0
 11  5  2  0  0  0  0
 12  4  1  0  0  0  0
 13 18  2  0  0  0  0
 15 23  1  0  0  0  0
 17  3  1  0  0  0  0
 17 26  1  0  0  0  0
 19  2  1  0  0  0  0
 19 26  1  0  0  0  0
 20 17  1  0  0  0  0
 22 20  1  1  0  0  0
 22 10  1  0  0  0  0
 23 14  1  0  0  0  0
 24 27  2  0  0  0  0
 25 18  1  0  0  0  0
 26 25  2  0  0  0  0
 27  7  1  0  0  0  0
 27 12  1  0  0  0  0
 28 30  1  0  0  0  0
 28 11  1  0  0  0  0
 29 30  1  0  0  0  0
M  END
>  <MODEL>
1

>  <REMARK>
 VINA RESULT:      -7.7      0.000      0.000
  Name = 
  2 active torsions:
  status: ('A' for Active; 'I' for Inactive)
    1  A    between atoms: C_11  and  O_28
    2  A    between atoms: O_28  and  C_30
                            x       y       z     vdW  Elec       q    Type
                         _______ _______ _______ _____ _____    ______ ____

>  <TORSDO>
F 2

$$$$
=
 OpenBabel11122412453D

 30 35  0  0  1  0  0  0  0  0999 V2000
  160.0960  211.2640  152.6290 C   0  0  0  0  0  0  0  0  0  0  0  0
  158.7070  213.1750  153.4290 C   0  0  2  0  0  3  0  0  0  0  0  0
  159.6940  208.8820  156.1170 C   0  0  0  0  0  2  0  0  0  0  0  0
  160.6840  209.9020  152.7680 C   0  0  0  0  0  0  0  0  0  0  0  0
  160.3020  211.9630  151.3960 N   0  0  0  0  0  0  0  0  0  0  0  0
  163.3720  210.7690  151.1870 C   0  0  0  0  0  1  0  0  0  0  0  0
  161.6580  206.9060  152.1320 C   0  0  1  0  0  3  0  0  0  0  0  0
  162.0020  210.3430  150.6900 C   0  0  2  0  0  3  0  0  0  0  0  0
  160.6960  206.8220  153.2850 C   0  0  1  0  0  3  0  0  0  0  0  0
  160.4520  207.6240  155.6870 C   0  0  2  0  0  3  0  0  0  0  0  0
  161.1310  211.5550  150.4770 C   0  0  0  0  0  0  0  0  0  0  0  0
  161.4050  209.3880  151.6280 N   0  0  0  0  0  0  0  0  0  0  0  0
  158.0890  213.7150  154.6930 C   0  0  0  0  0  3  0  0  0  0  0  0
  160.8830  205.4080  153.8050 C   0  0  0  0  0  2  0  0  0  0  0  0
  161.6460  205.5310  151.4920 C   0  0  0  0  0  2  0  0  0  0  0  0
  157.7310  213.0940  152.4520 F   0  0  0  0  0  0  0  0  0  0  0  0
  159.7270  209.7620  154.9680 N   0  0  0  0  0  0  0  0  0  0  0  0
  157.9900  212.9980  155.8160 C   0  0  0  0  0  3  0  0  0  0  0  0
  159.3580  211.8210  153.6120 C   0  0  0  0  0  0  0  0  0  0  0  0
  160.4930  209.2120  153.9150 C   0  0  0  0  0  0  0  0  0  0  0  0
  161.5470  207.3230  156.6890 C   0  0  0  0  0  1  0  0  0  0  0  0
  161.0710  207.8940  154.3020 C   0  0  2  0  0  3  0  0  0  0  0  0
  161.2610  204.5660  152.5990 C   0  0  0  0  0  2  0  0  0  0  0  0
  160.9740  207.7680  150.0050 O   0  0  0  0  0  0  0  0  0  0  0  0
  158.5200  211.6290  155.9040 C   0  0  0  0  0  3  0  0  0  0  0  0
  159.1630  211.0720  154.8740 C   0  0  0  0  0  0  0  0  0  0  0  0
  161.3030  208.0210  151.1970 C   0  0  0  0  0  0  0  0  0  0  0  0
  161.2670  212.2650  149.2800 O   0  0  0  0  0  0  0  0  0  0  0  0
  163.1230  212.4980  147.7580 C   0  0  0  0  0  1  0  0  0  0  0  0
  161.8770  211.7130  148.1190 C   0  0  0  0  0  2  0  0  0  0  0  0
  1  4  1  0  0  0  0
  1 19  2  0  0  0  0
  2 16  1  6  0  0  0
  2 19  1  0  0  0  0
  2 13  1  0  0  0  0
  4 20  2  0  0  0  0
  5  1  1  0  0  0  0
  7 15  1  6  0  0  0
  7  9  1  0  0  0  0
  8  6  1  1  0  0  0
  8 12  1  0  0  0  0
  9 14  1  1  0  0  0
  9 22  1  0  0  0  0
 10  3  1  0  0  0  0
 10 21  1  1  0  0  0
 11  8  1  0  0  0  0
 11  5  2  0  0  0  0
 12  4  1  0  0  0  0
 13 18  2  0  0  0  0
 15 23  1  0  0  0  0
 17  3  1  0  0  0  0
 18 25  1  0  0  0  0
 19 26  1  0  0  0  0
 20 17  1  0  0  0  0
 22 20  1  6  0  0  0
 22 10  1  0  0  0  0
 23 14  1  0  0  0  0
 24 27  2  0  0  0  0
 26 17  1  0  0  0  0
 26 25  2  0  0  0  0
 27 12  1  0  0  0  0
 27  7  1  0  0  0  0
 28 11  1  0  0  0  0
 29 30  1  0  0  0  0
 30 28  1  0  0  0  0
M  END
>  <MODEL>
2

>  <REMARK>
 VINA RESULT:      -5.2      2.837      4.801
  Name = 
  2 active torsions:
  status: ('A' for Active; 'I' for Inactive)
    1  A    between atoms: C_11  and  O_28
    2  A    between atoms: O_28  and  C_30
                            x       y       z     vdW  Elec       q    Type
                         _______ _______ _______ _____ _____    ______ ____

>  <TORSDO>
F 2

$$$$
=
 OpenBabel11122412453D

 30 35  0  0  1  0  0  0  0  0999 V2000
  159.7300  212.1770  152.0690 C   0  0  0  0  0  0  0  0  0  0  0  0
  160.4390  213.3570  149.9890 C   0  0  2  0  0  3  0  0  0  0  0  0
  162.0390  208.6720  151.4460 C   0  0  0  0  0  2  0  0  0  0  0  0
  159.7860  211.0450  153.0360 C   0  0  0  0  0  0  0  0  0  0  0  0
  158.9130  213.3060  152.4000 N   0  0  0  0  0  0  0  0  0  0  0  0
  156.6350  211.3180  153.7230 C   0  0  0  0  0  1  0  0  0  0  0  0
  159.9070  209.3500  155.7640 C   0  0  1  0  0  3  0  0  0  0  0  0
  157.8480  212.0750  154.2330 C   0  0  2  0  0  3  0  0  0  0  0  0
  161.1220  208.9780  154.9590 C   0  0  1  0  0  3  0  0  0  0  0  0
  161.7360  207.9040  152.7350 C   0  0  2  0  0  3  0  0  0  0  0  0
  158.0760  213.3090  153.3980 C   0  0  0  0  0  0  0  0  0  0  0  0
  159.0180  211.1920  154.2500 N   0  0  0  0  0  0  0  0  0  0  0  0
  161.1450  213.0900  148.6840 C   0  0  0  0  0  3  0  0  0  0  0  0
  161.6610  207.7490  155.6690 C   0  0  0  0  0  2  0  0  0  0  0  0
  160.2610  209.0280  157.2040 C   0  0  0  0  0  2  0  0  0  0  0  0
  161.0330  214.4430  150.6050 F   0  0  0  0  0  0  0  0  0  0  0  0
  161.3280  209.9270  151.5720 N   0  0  0  0  0  0  0  0  0  0  0  0
  161.8420  211.9760  148.4490 C   0  0  0  0  0  3  0  0  0  0  0  0
  160.4510  212.1690  150.9270 C   0  0  0  0  0  0  0  0  0  0  0  0
  160.5600  209.9720  152.7570 C   0  0  0  0  0  0  0  0  0  0  0  0
  161.1950  206.5310  152.3950 C   0  0  0  0  0  1  0  0  0  0  0  0
  160.6810  208.7010  153.5260 C   0  0  2  0  0  3  0  0  0  0  0  0
  161.3000  207.9230  157.1350 C   0  0  0  0  0  2  0  0  0  0  0  0
  159.5400  211.6040  156.4860 O   0  0  0  0  0  0  0  0  0  0  0  0
  161.9370  210.9030  149.4510 C   0  0  0  0  0  3  0  0  0  0  0  0
  161.2850  210.9880  150.6130 C   0  0  0  0  0  0  0  0  0  0  0  0
  159.5080  210.7750  155.5340 C   0  0  0  0  0  0  0  0  0  0  0  0
  157.3270  214.4530  153.6900 O   0  0  0  0  0  0  0  0  0  0  0  0
  155.1000  214.2930  152.7740 C   0  0  0  0  0  1  0  0  0  0  0  0
  155.9450  214.4060  154.0300 C   0  0  0  0  0  2  0  0  0  0  0  0
  1  5  1  0  0  0  0
  1  4  1  0  0  0  0
  2 16  1  1  0  0  0
  2 19  1  0  0  0  0
  3 17  1  0  0  0  0
  3 10  1  0  0  0  0
  4 12  1  0  0  0  0
  5 11  2  0  0  0  0
  7 15  1  1  0  0  0
  8  6  1  6  0  0  0
  8 12  1  0  0  0  0
  9 14  1  1  0  0  0
  9  7  1  0  0  0  0
 10 21  1  6  0  0  0
 10 22  1  0  0  0  0
 11 28  1  0  0  0  0
 11  8  1  0  0  0  0
 12 27  1  0  0  0  0
 13  2  1  0  0  0  0
 14 23  1  0  0  0  0
 17 20  1  0  0  0  0
 18 13  2  0  0  0  0
 18 25  1  0  0  0  0
 19  1  2  0  0  0  0
 20  4  2  0  0  0  0
 22 20  1  6  0  0  0
 22  9  1  0  0  0  0
 23 15  1  0  0  0  0
 25 26  2  0  0  0  0
 26 19  1  0  0  0  0
 26 17  1  0  0  0  0
 27  7  1  0  0  0  0
 27 24  2  0  0  0  0
 28 30  1  0  0  0  0
 29 30  1  0  0  0  0
M  END
>  <MODEL>
3

>  <REMARK>
 VINA RESULT:      -4.8      4.306      7.603
  Name = 
  2 active torsions:
  status: ('A' for Active; 'I' for Inactive)
    1  A    between atoms: C_11  and  O_28
    2  A    between atoms: O_28  and  C_30
                            x       y       z     vdW  Elec       q    Type
                         _______ _______ _______ _____ _____    ______ ____

>  <TORSDO>
F 2

$$$$
=
 OpenBabel11122412453D

 30 35  0  0  1  0  0  0  0  0999 V2000
  161.1870  208.4850  152.9380 C   0  0  0  0  0  0  0  0  0  0  0  0
  161.3650  206.0080  152.7010 C   0  0  0  0  0  0  0  0  0  0  0  0
  161.9260  209.4120  148.8640 C   0  0  0  0  0  2  0  0  0  0  0  0
  161.1650  209.8710  152.3920 C   0  0  0  0  0  0  0  0  0  0  0  0
  160.9170  208.3070  154.3330 N   0  0  0  0  0  0  0  0  0  0  0  0
  162.5780  211.0690  155.0470 C   0  0  0  0  0  1  0  0  0  0  0  0
  160.3540  212.9300  151.8320 C   0  0  1  0  0  3  0  0  0  0  0  0
  161.1330  210.7140  154.7460 C   0  0  2  0  0  3  0  0  0  0  0  0
  160.2670  212.2020  150.5180 C   0  0  1  0  0  3  0  0  0  0  0  0
  161.7500  210.9330  148.8860 C   0  0  2  0  0  3  0  0  0  0  0  0
  160.8480  209.2980  155.1760 C   0  0  0  0  0  0  0  0  0  0  0  0
  160.8510  210.9290  153.3230 N   0  0  0  0  0  0  0  0  0  0  0  0
  161.8340  204.9640  151.7210 C   0  0  0  0  0  3  0  0  0  0  0  0
  160.1460  213.3190  149.4960 C   0  0  0  0  0  2  0  0  0  0  0  0
  159.4510  214.1400  151.6860 C   0  0  0  0  0  2  0  0  0  0  0  0
  160.0720  205.7080  153.0910 F   0  0  0  0  0  0  0  0  0  0  0  0
  161.6470  208.9740  150.2150 N   0  0  0  0  0  0  0  0  0  0  0  0
  162.1130  205.2410  150.4440 C   0  0  0  0  0  3  0  0  0  0  0  0
  161.4160  207.4150  152.1470 C   0  0  0  0  0  0  0  0  0  0  0  0
  161.4020  210.0690  151.0750 C   0  0  0  0  0  0  0  0  0  0  0  0
  162.9950  211.5980  148.3370 C   0  0  0  0  0  1  0  0  0  0  0  0
  161.5290  211.3640  150.3490 C   0  0  2  0  0  3  0  0  0  0  0  0
  159.4160  214.4510  150.2000 C   0  0  0  0  0  2  0  0  0  0  0  0
  158.9950  212.2920  153.6970 O   0  0  0  0  0  0  0  0  0  0  0  0
  162.0170  206.6090  149.9150 C   0  0  0  0  0  3  0  0  0  0  0  0
  161.6920  207.6330  150.7090 C   0  0  2  0  0  3  0  0  0  0  0  0
  160.0040  212.0370  152.9820 C   0  0  0  0  0  0  0  0  0  0  0  0
  160.5510  209.0620  156.5220 O   0  0  0  0  0  0  0  0  0  0  0  0
  160.1470  206.7920  157.2320 C   0  0  0  0  0  1  0  0  0  0  0  0
  161.1000  207.9720  157.2550 C   0  0  0  0  0  2  0  0  0  0  0  0
  1  5  1  0  0  0  0
  2 16  1  0  0  0  0
  3 10  1  0  0  0  0
  3 17  1  0  0  0  0
  4  1  1  0  0  0  0
  4 12  1  0  0  0  0
  5 11  2  0  0  0  0
  7 15  1  6  0  0  0
  7 27  1  0  0  0  0
  8  6  1  6  0  0  0
  8 11  1  0  0  0  0
  9 14  1  6  0  0  0
  9  7  1  0  0  0  0
 10 21  1  1  0  0  0
 10 22  1  0  0  0  0
 11 28  1  0  0  0  0
 12  8  1  0  0  0  0
 13  2  2  0  0  0  0
 14 23  1  0  0  0  0
 17 26  1  0  0  0  0
 17 20  1  0  0  0  0
 18 13  1  0  0  0  0
 19  2  1  0  0  0  0
 19  1  2  0  0  0  0
 20  4  2  0  0  0  0
 22  9  1  0  0  0  0
 22 20  1  1  0  0  0
 23 15  1  0  0  0  0
 25 18  2  0  0  0  0
 26 25  1  1  0  0  0
 26 19  1  0  0  0  0
 27 12  1  0  0  0  0
 27 24  2  0  0  0  0
 28 30  1  0  0  0  0
 29 30  1  0  0  0  0
M  END
>  <MODEL>
4

>  <REMARK>
 VINA RESULT:      -4.7      3.080      7.522
  Name = 
  2 active torsions:
  status: ('A' for Active; 'I' for Inactive)
    1  A    between atoms: C_11  and  O_28
    2  A    between atoms: O_28  and  C_30
                            x       y       z     vdW  Elec       q    Type
                         _______ _______ _______ _____ _____    ______ ____

>  <TORSDO>
F 2

$$$$
