=
 OpenBabel11122413573D

 37 43  0  0  1  0  0  0  0  0999 V2000
  160.6450  210.5230  155.5600 C   0  0  2  0  0  3  0  0  0  0  0  0
  158.7310  213.3040  152.3710 C   0  0  1  0  0  0  0  0  0  0  0  0
  161.5080  210.6690  150.8250 C   0  0  0  0  0  0  0  0  0  0  0  0
  161.3430  207.1410  152.5390 C   0  0  0  0  0  2  0  0  0  0  0  0
  160.4670  212.8200  150.6080 C   0  0  0  0  0  0  0  0  0  0  0  0
  161.6570  209.5780  151.8590 C   0  0  2  0  0  3  0  0  0  0  0  0
  160.5000  208.1260  156.1540 N   0  0  0  0  0  0  0  0  0  0  0  0
  160.8250  211.7140  151.3530 C   0  0  0  0  0  0  0  0  0  0  0  0
  161.1430  208.1720  151.4080 C   0  0  1  0  0  3  0  0  0  0  0  0
  160.8910  212.9020  149.3150 N   0  0  0  0  0  0  0  0  0  0  0  0
  159.7170  209.3280  155.8600 C   0  0  0  0  0  2  0  0  0  0  0  0
  160.3990  211.4900  152.6630 N   0  0  0  0  0  0  0  0  0  0  0  0
  157.7180  212.5410  151.7900 O   0  0  0  0  0  1  0  0  0  0  0  0
  162.6340  209.5970  148.8580 C   0  0  0  0  0  2  0  0  0  0  0  0
  161.6190  211.8890  148.7500 C   0  0  0  0  0  3  0  0  0  0  0  0
  159.5210  212.4260  153.3670 C   0  0  0  0  0  2  0  0  0  0  0  0
  161.3070  207.7350  154.9850 C   0  0  1  0  0  3  0  0  0  0  0  0
  160.4540  207.3650  153.7510 C   0  0  0  0  0  2  0  0  0  0  0  0
  161.9460  210.7400  149.5000 C   0  0  0  0  0  0  0  0  0  0  0  0
  160.8100  210.1450  153.0590 C   0  0  2  0  0  3  0  0  0  0  0  0
  159.6360  213.8880  151.2610 C   0  0  0  0  0  2  0  0  0  0  0  0
  161.8820  207.6050  150.1590 C   0  0  2  0  0  3  0  0  0  0  0  0
  158.0990  214.4500  153.1340 C   0  0  0  0  0  1  0  0  0  0  0  0
  162.3110  208.8530  154.6710 C   0  0  0  0  0  2  0  0  0  0  0  0
  159.5760  207.0550  156.5040 C   0  0  0  0  0  1  0  0  0  0  0  0
  161.5900  210.1780  154.3870 C   0  0  2  0  0  3  0  0  0  0  0  0
  161.7000  208.4090  148.8770 C   0  0  0  0  0  2  0  0  0  0  0  0
  161.1740  205.3420  150.8610 C   0  0  0  0  0  3  0  0  0  0  0  0
  161.5180  206.1740  149.8650 C   0  0  0  0  0  0  0  0  0  0  0  0
  161.5700  205.7180  148.4270 C   0  0  0  0  0  2  0  0  0  0  0  0
  161.2150  203.7750  147.0810 O   0  0  0  0  0  0  0  0  0  0  0  0
  160.8360  203.4290  149.3830 C   0  0  0  0  0  3  0  0  0  0  0  0
  161.2050  204.2710  148.2370 C   0  0  0  0  0  0  0  0  0  0  0  0
  160.8210  203.9350  150.6140 C   0  0  0  0  0  3  0  0  0  0  0  0
  161.3980  210.9240  156.7540 N   0  0  0  0  0  0  0  0  0  0  0  0
  162.6650  211.2150  156.3680 O   0  0  0  0  0  1  0  0  0  0  0  0
  160.8370  212.1750  157.2420 C   0  0  0  0  0  1  0  0  0  0  0  0
  1 11  1  0  0  0  0
  1 35  1  1  0  0  0
  2 23  1  1  0  0  0
  2 16  1  0  0  0  0
  3  8  1  0  0  0  0
  4 18  1  0  0  0  0
  5 21  1  0  0  0  0
  5  8  2  0  0  0  0
  6  3  1  6  0  0  0
  6 20  1  0  0  0  0
  7 25  1  0  0  0  0
  8 12  1  0  0  0  0
  9  6  1  0  0  0  0
  9  4  1  1  0  0  0
 10  5  1  0  0  0  0
 11  7  1  0  0  0  0
 12 16  1  0  0  0  0
 13  2  1  0  0  0  0
 14 27  1  0  0  0  0
 14 19  1  0  0  0  0
 15 10  2  0  0  0  0
 15 19  1  0  0  0  0
 17 18  1  6  0  0  0
 17  7  1  0  0  0  0
 19  3  2  0  0  0  0
 20 12  1  6  0  0  0
 20 26  1  0  0  0  0
 21  2  1  0  0  0  0
 22 29  1  6  0  0  0
 22  9  1  0  0  0  0
 24 17  1  0  0  0  0
 26 24  1  1  0  0  0
 26  1  1  0  0  0  0
 27 22  1  0  0  0  0
 29 28  2  0  0  0  0
 30 29  1  0  0  0  0
 31 33  2  0  0  0  0
 32 34  2  0  0  0  0
 33 30  1  0  0  0  0
 33 32  1  0  0  0  0
 34 28  1  0  0  0  0
 35 37  1  0  0  0  0
 36 35  1  0  0  0  0
M  END
>  <MODEL>
1

>  <REMARK>
 VINA RESULT:      -8.1      0.000      0.000
  Name = 
  2 active torsions:
  status: ('A' for Active; 'I' for Inactive)
    1  A    between atoms: C_1  and  N_4
    2  A    between atoms: C_23  and  C_30
                            x       y       z     vdW  Elec       q    Type
                         _______ _______ _______ _____ _____    ______ ____

>  <TORSDO>
F 2

$$$$
=
 OpenBabel11122413573D

 37 43  0  0  1  0  0  0  0  0999 V2000
  161.6610  212.4570  147.7980 C   0  0  2  0  0  3  0  0  0  0  0  0
  161.8630  208.1410  149.5000 C   0  0  1  0  0  0  0  0  0  0  0  0
  160.9190  210.9990  152.3260 C   0  0  0  0  0  0  0  0  0  0  0  0
  158.5580  213.7940  150.9030 C   0  0  0  0  0  2  0  0  0  0  0  0
  161.9560  208.8750  151.9100 C   0  0  0  0  0  0  0  0  0  0  0  0
  160.4430  212.2030  151.5490 C   0  0  2  0  0  3  0  0  0  0  0  0
  159.8770  214.1000  147.3090 N   0  0  0  0  0  0  0  0  0  0  0  0
  161.5030  210.1100  151.4870 C   0  0  0  0  0  0  0  0  0  0  0  0
  158.9320  212.5540  151.7420 C   0  0  1  0  0  3  0  0  0  0  0  0
  161.8920  208.5770  153.2390 N   0  0  0  0  0  0  0  0  0  0  0  0
  160.2960  212.7090  147.1260 C   0  0  0  0  0  2  0  0  0  0  0  0
  161.4600  210.5030  150.1490 N   0  0  0  0  0  0  0  0  0  0  0  0
  160.5380  207.7050  149.5330 O   0  0  0  0  0  1  0  0  0  0  0  0
  160.1560  211.6110  154.6350 C   0  0  0  0  0  2  0  0  0  0  0  0
  161.3480  209.4610  154.1310 C   0  0  0  0  0  3  0  0  0  0  0  0
  161.9000  209.6230  149.0640 C   0  0  0  0  0  2  0  0  0  0  0  0
  159.6920  214.4010  148.7390 C   0  0  1  0  0  3  0  0  0  0  0  0
  158.5790  213.5590  149.4010 C   0  0  0  0  0  2  0  0  0  0  0  0
  160.8450  210.7030  153.6900 C   0  0  0  0  0  0  0  0  0  0  0  0
  160.7520  211.7770  150.0650 C   0  0  2  0  0  3  0  0  0  0  0  0
  162.5100  207.9240  150.8880 C   0  0  0  0  0  2  0  0  0  0  0  0
  158.5490  212.8870  153.2150 C   0  0  2  0  0  3  0  0  0  0  0  0
  162.6200  207.3190  148.4780 C   0  0  0  0  0  1  0  0  0  0  0  0
  161.0360  214.2430  149.4630 C   0  0  0  0  0  2  0  0  0  0  0  0
  158.6250  214.2970  146.5900 C   0  0  0  0  0  1  0  0  0  0  0  0
  161.5880  212.8200  149.2980 C   0  0  2  0  0  3  0  0  0  0  0  0
  158.7130  211.7380  154.2040 C   0  0  0  0  0  2  0  0  0  0  0  0
  156.4220  213.7030  152.2550 C   0  0  0  0  0  3  0  0  0  0  0  0
  157.1460  213.4170  153.3480 C   0  0  0  0  0  0  0  0  0  0  0  0
  156.6020  213.6240  154.7410 C   0  0  0  0  0  2  0  0  0  0  0  0
  154.6430  214.3860  155.8760 O   0  0  0  0  0  0  0  0  0  0  0  0
  154.4760  214.4530  153.5240 C   0  0  0  0  0  3  0  0  0  0  0  0
  155.2010  214.1690  154.7690 C   0  0  0  0  0  0  0  0  0  0  0  0
  155.0510  214.2320  152.3440 C   0  0  0  0  0  3  0  0  0  0  0  0
  162.7310  213.1970  147.1190 N   0  0  0  0  0  0  0  0  0  0  0  0
  163.9050  212.5780  147.3980 O   0  0  0  0  0  1  0  0  0  0  0  0
  162.5400  213.0530  145.6840 C   0  0  0  0  0  1  0  0  0  0  0  0
  1 35  1  6  0  0  0
  1 26  1  0  0  0  0
  2 23  1  6  0  0  0
  2 13  1  0  0  0  0
  2 21  1  0  0  0  0
  3 19  1  0  0  0  0
  5 10  2  0  0  0  0
  6  9  1  0  0  0  0
  6  3  1  1  0  0  0
  7 17  1  0  0  0  0
  8  5  1  0  0  0  0
  8  3  2  0  0  0  0
  9  4  1  6  0  0  0
  9 22  1  0  0  0  0
 10 15  1  0  0  0  0
 11  7  1  0  0  0  0
 11  1  1  0  0  0  0
 12  8  1  0  0  0  0
 16  2  1  0  0  0  0
 16 12  1  0  0  0  0
 17 18  1  1  0  0  0
 17 24  1  0  0  0  0
 18  4  1  0  0  0  0
 19 15  2  0  0  0  0
 19 14  1  0  0  0  0
 20 12  1  1  0  0  0
 20  6  1  0  0  0  0
 21  5  1  0  0  0  0
 22 29  1  6  0  0  0
 22 27  1  0  0  0  0
 25  7  1  0  0  0  0
 26 24  1  6  0  0  0
 26 20  1  0  0  0  0
 27 14  1  0  0  0  0
 28 34  1  0  0  0  0
 28 29  2  0  0  0  0
 29 30  1  0  0  0  0
 30 33  1  0  0  0  0
 32 33  1  0  0  0  0
 33 31  2  0  0  0  0
 34 32  2  0  0  0  0
 35 36  1  0  0  0  0
 37 35  1  0  0  0  0
M  END
>  <MODEL>
2

>  <REMARK>
 VINA RESULT:      -5.7      2.772      8.424
  Name = 
  2 active torsions:
  status: ('A' for Active; 'I' for Inactive)
    1  A    between atoms: C_1  and  N_4
    2  A    between atoms: C_23  and  C_30
                            x       y       z     vdW  Elec       q    Type
                         _______ _______ _______ _____ _____    ______ ____

>  <TORSDO>
F 2

$$$$
=
 OpenBabel11122413573D

 37 43  0  0  1  0  0  0  0  0999 V2000
  161.6880  211.8810  148.2570 C   0  0  2  0  0  3  0  0  0  0  0  0
  161.5660  207.2670  148.7660 C   0  0  1  0  0  0  0  0  0  0  0  0
  161.4670  209.3360  152.3380 C   0  0  0  0  0  0  0  0  0  0  0  0
  159.3130  212.6100  152.1150 C   0  0  0  0  0  2  0  0  0  0  0  0
  162.1300  207.3170  151.2230 C   0  0  0  0  0  0  0  0  0  0  0  0
  161.0430  210.7420  151.9860 C   0  0  2  0  0  3  0  0  0  0  0  0
  160.0880  213.7480  148.5300 N   0  0  0  0  0  0  0  0  0  0  0  0
  161.7880  208.6550  151.2110 C   0  0  0  0  0  0  0  0  0  0  0  0
  159.6410  211.1620  152.5360 C   0  0  1  0  0  3  0  0  0  0  0  0
  162.2320  206.6800  152.4250 N   0  0  0  0  0  0  0  0  0  0  0  0
  160.2820  212.4250  147.9330 C   0  0  0  0  0  2  0  0  0  0  0  0
  161.5910  209.3950  150.0440 N   0  0  0  0  0  0  0  0  0  0  0  0
  160.2150  206.9590  148.9350 O   0  0  0  0  0  1  0  0  0  0  0  0
  161.1600  209.3720  154.8270 C   0  0  0  0  0  2  0  0  0  0  0  0
  161.9580  207.3380  153.5930 C   0  0  0  0  0  3  0  0  0  0  0  0
  161.7350  208.8010  148.7130 C   0  0  0  0  0  2  0  0  0  0  0  0
  160.1690  213.6710  149.9990 C   0  0  1  0  0  3  0  0  0  0  0  0
  159.0690  212.7860  150.6250 C   0  0  0  0  0  2  0  0  0  0  0  0
  161.5650  208.6930  153.5750 C   0  0  0  0  0  0  0  0  0  0  0  0
  161.0580  210.7030  150.4120 C   0  0  2  0  0  3  0  0  0  0  0  0
  162.3850  206.6280  149.9130 C   0  0  0  0  0  2  0  0  0  0  0  0
  159.5400  211.1220  154.0900 C   0  0  2  0  0  3  0  0  0  0  0  0
  162.0370  206.6840  147.4510 C   0  0  0  0  0  1  0  0  0  0  0  0
  161.5760  213.2040  150.4000 C   0  0  0  0  0  2  0  0  0  0  0  0
  158.7780  214.2420  148.1270 C   0  0  0  0  0  1  0  0  0  0  0  0
  161.8980  211.8340  149.7870 C   0  0  2  0  0  3  0  0  0  0  0  0
  159.6980  209.7400  154.7150 C   0  0  0  0  0  2  0  0  0  0  0  0
  157.0740  211.2030  154.2490 C   0  0  0  0  0  3  0  0  0  0  0  0
  158.2590  211.7210  154.6080 C   0  0  0  0  0  0  0  0  0  0  0  0
  158.3630  212.9190  155.5210 C   0  0  0  0  0  2  0  0  0  0  0  0
  156.9900  214.4530  156.7340 O   0  0  0  0  0  0  0  0  0  0  0  0
  155.7780  212.8240  155.5340 C   0  0  0  0  0  3  0  0  0  0  0  0
  157.0310  213.4530  155.9710 C   0  0  0  0  0  0  0  0  0  0  0  0
  155.8010  211.7670  154.7260 C   0  0  0  0  0  3  0  0  0  0  0  0
  162.7300  212.6760  147.5980 N   0  0  0  0  0  0  0  0  0  0  0  0
  163.8330  211.8970  147.4780 O   0  0  0  0  0  1  0  0  0  0  0  0
  162.2930  212.9540  146.2380 C   0  0  0  0  0  1  0  0  0  0  0  0
  1 35  1  6  0  0  0
  1 26  1  0  0  0  0
  2 23  1  6  0  0  0
  2 13  1  0  0  0  0
  2 21  1  0  0  0  0
  3 19  1  0  0  0  0
  5 10  2  0  0  0  0
  6  3  1  1  0  0  0
  6  9  1  0  0  0  0
  7 17  1  0  0  0  0
  8  5  1  0  0  0  0
  8  3  2  0  0  0  0
  9  4  1  1  0  0  0
  9 22  1  0  0  0  0
 10 15  1  0  0  0  0
 11  1  1  0  0  0  0
 11  7  1  0  0  0  0
 12  8  1  0  0  0  0
 16  2  1  0  0  0  0
 16 12  1  0  0  0  0
 17 24  1  6  0  0  0
 17 18  1  0  0  0  0
 18  4  1  0  0  0  0
 19 15  2  0  0  0  0
 19 14  1  0  0  0  0
 20 12  1  1  0  0  0
 20  6  1  0  0  0  0
 21  5  1  0  0  0  0
 22 29  1  6  0  0  0
 22 27  1  0  0  0  0
 25  7  1  0  0  0  0
 26 24  1  1  0  0  0
 26 20  1  0  0  0  0
 27 14  1  0  0  0  0
 28 29  2  0  0  0  0
 28 34  1  0  0  0  0
 29 30  1  0  0  0  0
 30 33  1  0  0  0  0
 32 33  1  0  0  0  0
 33 31  2  0  0  0  0
 34 32  2  0  0  0  0
 36 35  1  0  0  0  0
 37 35  1  0  0  0  0
M  END
>  <MODEL>
3

>  <REMARK>
 VINA RESULT:      -5.3      2.586      7.945
  Name = 
  2 active torsions:
  status: ('A' for Active; 'I' for Inactive)
    1  A    between atoms: C_1  and  N_4
    2  A    between atoms: C_23  and  C_30
                            x       y       z     vdW  Elec       q    Type
                         _______ _______ _______ _____ _____    ______ ____

>  <TORSDO>
F 2

$$$$
