=
 OpenBabel11122412343D

 30 35  0  0  1  0  0  0  0  0999 V2000
  161.4640  206.4220  150.1020 C   0  0  1  0  0  3  0  0  0  0  0  0
  161.2230  203.8970  149.8640 C   0  0  0  0  0  0  0  0  0  0  0  0
  160.7530  206.0230  154.3640 C   0  0  0  0  0  2  0  0  0  0  0  0
  161.7420  207.5780  151.0890 C   0  0  1  0  0  3  0  0  0  0  0  0
  162.3860  206.4820  149.0390 O   0  0  0  0  0  0  0  0  0  0  0  0
  161.8920  210.1740  148.3440 C   0  0  0  0  0  1  0  0  0  0  0  0
  160.3920  210.3920  152.0530 C   0  0  1  0  0  3  0  0  0  0  0  0
  162.2270  208.9300  149.1670 C   0  0  2  0  0  3  0  0  0  0  0  0
  160.0910  209.5210  153.2870 C   0  0  2  0  0  3  0  0  0  0  0  0
  160.7170  207.4780  154.6690 C   0  0  0  0  0  0  0  0  0  0  0  0
  162.1120  207.6550  148.2940 C   0  0  2  0  0  3  0  0  0  0  0  0
  161.4000  208.8330  150.3880 N   0  0  2  0  0  0  0  0  0  0  0  0
  161.0260  202.6290  150.4180 C   0  0  0  0  0  3  0  0  0  0  0  0
  160.1280  210.4740  154.4700 C   0  0  0  0  0  2  0  0  0  0  0  0
  160.4540  211.8330  152.5220 C   0  0  0  0  0  2  0  0  0  0  0  0
  161.2860  204.0210  148.4810 O   0  0  0  0  0  1  0  0  0  0  0  0
  161.3920  206.0450  152.9910 C   0  0  2  0  0  3  0  0  0  0  0  0
  160.9310  202.4690  151.8010 C   0  0  0  0  0  3  0  0  0  0  0  0
  161.3470  205.0260  150.7000 C   0  0  0  0  0  0  0  0  0  0  0  0
  160.9110  207.3330  152.3510 C   0  0  1  0  0  3  0  0  0  0  0  0
  160.5090  207.9100  155.7920 O   0  0  0  0  0  0  0  0  0  0  0  0
  161.0480  208.3400  153.4850 C   0  0  1  0  0  3  0  0  0  0  0  0
  159.8410  211.8440  153.9020 C   0  0  0  0  0  2  0  0  0  0  0  0
  162.9710  210.0730  151.9480 C   0  0  0  0  0  1  0  0  0  0  0  0
  161.0200  203.5810  152.6380 C   0  0  0  0  0  3  0  0  0  0  0  0
  161.1920  204.8610  152.0970 C   0  0  0  0  0  0  0  0  0  0  0  0
  161.6270  210.0340  151.2110 C   0  0  2  0  0  3  0  0  0  0  0  0
  160.7860  207.5490  147.5310 C   0  0  0  0  0  2  0  0  0  0  0  0
  160.5090  206.3730  145.6890 C   0  0  0  0  0  1  0  0  0  0  0  0
  160.6050  206.2450  147.0730 O   0  0  0  0  0  0  0  0  0  0  0  0
  1  5  1  6  0  0  0
  1 19  1  0  0  0  0
  1  4  1  0  0  0  0
  2 13  2  0  0  0  0
  2 19  1  0  0  0  0
  3 10  1  0  0  0  0
  4 20  1  0  0  0  0
  6  8  1  0  0  0  0
  7 15  1  0  0  0  0
  7  9  1  0  0  0  0
  8 12  1  0  0  0  0
  9 22  1  0  0  0  0
  9 14  1  0  0  0  0
 10 21  2  0  0  0  0
 11  5  1  0  0  0  0
 11  8  1  0  0  0  0
 12  4  1  0  0  0  0
 12 27  1  0  0  0  0
 13 18  1  0  0  0  0
 15 23  1  0  0  0  0
 16  2  1  0  0  0  0
 17  3  1  0  0  0  0
 18 25  2  0  0  0  0
 19 26  2  0  0  0  0
 20 17  1  0  0  0  0
 20 22  1  0  0  0  0
 22 10  1  0  0  0  0
 23 14  1  0  0  0  0
 26 25  1  0  0  0  0
 26 17  1  0  0  0  0
 27 24  1  0  0  0  0
 27  7  1  0  0  0  0
 28 11  1  0  0  0  0
 29 30  1  0  0  0  0
 30 28  1  0  0  0  0
M  END
>  <MODEL>
1

>  <REMARK>
 VINA RESULT:      -8.6      0.000      0.000
  Name = 
  2 active torsions:
  status: ('A' for Active; 'I' for Inactive)
    1  A    between atoms: C_11  and  C_28
    2  A    between atoms: C_28  and  O_30
                            x       y       z     vdW  Elec       q    Type
                         _______ _______ _______ _____ _____    ______ ____

>  <TORSDO>
F 2

$$$$
=
 OpenBabel11122412343D

 30 35  0  0  1  0  0  0  0  0999 V2000
  161.0310  209.6730  151.9970 C   0  0  1  0  0  3  0  0  0  0  0  0
  160.8710  212.0460  151.0820 C   0  0  0  0  0  0  0  0  0  0  0  0
  162.0290  208.2730  148.0130 C   0  0  0  0  0  2  0  0  0  0  0  0
  161.5950  208.2570  151.7460 C   0  0  1  0  0  3  0  0  0  0  0  0
  161.4710  210.1370  153.2520 O   0  0  0  0  0  0  0  0  0  0  0  0
  160.5270  206.9930  155.1460 C   0  0  0  0  0  1  0  0  0  0  0  0
  160.5490  205.1670  151.5790 C   0  0  1  0  0  3  0  0  0  0  0  0
  161.2260  207.8360  154.0790 C   0  0  2  0  0  3  0  0  0  0  0  0
  160.7950  205.4400  150.0840 C   0  0  2  0  0  3  0  0  0  0  0  0
  162.0240  206.8210  148.3350 C   0  0  0  0  0  0  0  0  0  0  0  0
  160.8630  209.3330  154.2480 C   0  0  2  0  0  3  0  0  0  0  0  0
  160.9360  207.3530  152.7120 N   0  0  2  0  0  0  0  0  0  0  0  0
  160.9770  212.9620  150.0320 C   0  0  0  0  0  3  0  0  0  0  0  0
  161.2240  204.1060  149.4970 C   0  0  0  0  0  2  0  0  0  0  0  0
  160.6980  203.6730  151.7960 C   0  0  0  0  0  2  0  0  0  0  0  0
  160.3920  212.4870  152.3100 O   0  0  0  0  0  1  0  0  0  0  0  0
  162.0920  208.8640  149.4060 C   0  0  2  0  0  3  0  0  0  0  0  0
  161.4280  212.5490  148.7780 C   0  0  0  0  0  3  0  0  0  0  0  0
  161.2370  210.6970  150.8880 C   0  0  0  0  0  0  0  0  0  0  0  0
  161.3260  207.8920  150.2830 C   0  0  1  0  0  3  0  0  0  0  0  0
  162.2350  205.9610  147.4950 O   0  0  0  0  0  0  0  0  0  0  0  0
  161.8250  206.5390  149.7960 C   0  0  1  0  0  3  0  0  0  0  0  0
  160.6600  203.0520  150.4190 C   0  0  0  0  0  2  0  0  0  0  0  0
  162.9060  205.7690  152.4980 C   0  0  0  0  0  1  0  0  0  0  0  0
  161.7630  211.2130  148.5630 C   0  0  0  0  0  3  0  0  0  0  0  0
  161.6370  210.2780  149.5980 C   0  0  0  0  0  0  0  0  0  0  0  0
  161.3880  205.9560  152.5970 C   0  0  2  0  0  3  0  0  0  0  0  0
  159.3550  209.5930  154.3470 C   0  0  0  0  0  2  0  0  0  0  0  0
  159.6110  210.5610  156.3110 C   0  0  0  0  0  1  0  0  0  0  0  0
  159.1240  210.7890  155.0250 O   0  0  0  0  0  0  0  0  0  0  0  0
  1 19  1  6  0  0  0
  1  5  1  0  0  0  0
  2 16  1  0  0  0  0
  3 10  1  0  0  0  0
  3 17  1  0  0  0  0
  4  1  1  0  0  0  0
  4 12  1  0  0  0  0
  5 11  1  0  0  0  0
  7 15  1  0  0  0  0
  7 27  1  0  0  0  0
  8 11  1  0  0  0  0
  8  6  1  0  0  0  0
  9  7  1  0  0  0  0
 10 22  1  0  0  0  0
 11 28  1  0  0  0  0
 12  8  1  0  0  0  0
 13  2  2  0  0  0  0
 14  9  1  0  0  0  0
 14 23  1  0  0  0  0
 17 26  1  0  0  0  0
 17 20  1  0  0  0  0
 18 13  1  0  0  0  0
 19  2  1  0  0  0  0
 20  4  1  0  0  0  0
 21 10  2  0  0  0  0
 22  9  1  0  0  0  0
 22 20  1  0  0  0  0
 23 15  1  0  0  0  0
 24 27  1  0  0  0  0
 25 18  2  0  0  0  0
 25 26  1  0  0  0  0
 26 19  2  0  0  0  0
 27 12  1  0  0  0  0
 28 30  1  0  0  0  0
 30 29  1  0  0  0  0
M  END
>  <MODEL>
2

>  <REMARK>
 VINA RESULT:      -7.7      1.862      7.048
  Name = 
  2 active torsions:
  status: ('A' for Active; 'I' for Inactive)
    1  A    between atoms: C_11  and  C_28
    2  A    between atoms: C_28  and  O_30
                            x       y       z     vdW  Elec       q    Type
                         _______ _______ _______ _____ _____    ______ ____

>  <TORSDO>
F 2

$$$$
=
 OpenBabel11122412343D

 30 35  0  0  1  0  0  0  0  0999 V2000
  161.3020  205.0820  148.8340 C   0  0  1  0  0  3  0  0  0  0  0  0
  160.9340  202.6160  148.3090 C   0  0  0  0  0  0  0  0  0  0  0  0
  161.1090  204.1430  153.0670 C   0  0  0  0  0  2  0  0  0  0  0  0
  161.7450  206.0920  149.9170 C   0  0  1  0  0  3  0  0  0  0  0  0
  162.0860  205.2600  147.6780 O   0  0  0  0  0  0  0  0  0  0  0  0
  161.6550  209.0210  147.5290 C   0  0  0  0  0  1  0  0  0  0  0  0
  160.6360  208.7840  151.3970 C   0  0  1  0  0  3  0  0  0  0  0  0
  162.0410  207.6730  148.1370 C   0  0  2  0  0  3  0  0  0  0  0  0
  160.4560  207.7660  152.5380 C   0  0  2  0  0  3  0  0  0  0  0  0
  161.1680  205.5460  153.5570 C   0  0  0  0  0  0  0  0  0  0  0  0
  161.7680  206.5270  147.1310 C   0  0  2  0  0  3  0  0  0  0  0  0
  161.3680  207.4360  149.4320 N   0  0  2  0  0  0  0  0  0  0  0  0
  160.7580  201.2910  148.7180 C   0  0  0  0  0  3  0  0  0  0  0  0
  160.6770  208.5540  153.8180 C   0  0  0  0  0  2  0  0  0  0  0  0
  160.8120  210.1500  152.0330 C   0  0  0  0  0  2  0  0  0  0  0  0
  160.8300  202.9200  146.9570 O   0  0  0  0  0  1  0  0  0  0  0  0
  161.5740  204.3300  151.6370 C   0  0  2  0  0  3  0  0  0  0  0  0
  160.8290  200.9540  150.0700 C   0  0  0  0  0  3  0  0  0  0  0  0
  161.2050  203.6220  149.2600 C   0  0  0  0  0  0  0  0  0  0  0  0
  161.0680  205.7020  151.2340 C   0  0  1  0  0  3  0  0  0  0  0  0
  161.1180  205.8300  154.7430 O   0  0  0  0  0  0  0  0  0  0  0  0
  161.3840  206.5470  152.4600 C   0  0  1  0  0  3  0  0  0  0  0  0
  160.3760  209.9930  153.4710 C   0  0  0  0  0  2  0  0  0  0  0  0
  163.1680  208.4240  150.9230 C   0  0  0  0  0  1  0  0  0  0  0  0
  161.0640  201.9430  151.0230 C   0  0  0  0  0  3  0  0  0  0  0  0
  161.2180  203.2790  150.6320 C   0  0  0  0  0  0  0  0  0  0  0  0
  161.7430  208.5130  150.3650 C   0  0  2  0  0  3  0  0  0  0  0  0
  160.3550  206.5520  146.5370 C   0  0  0  0  0  2  0  0  0  0  0  0
  160.4620  205.2340  144.7740 C   0  0  0  0  0  1  0  0  0  0  0  0
  160.4250  206.5770  145.1450 O   0  0  0  0  0  0  0  0  0  0  0  0
  1  5  1  6  0  0  0
  1 19  1  0  0  0  0
  1  4  1  0  0  0  0
  2 13  2  0  0  0  0
  2 19  1  0  0  0  0
  3 10  1  0  0  0  0
  4 20  1  0  0  0  0
  6  8  1  0  0  0  0
  7 15  1  0  0  0  0
  7  9  1  0  0  0  0
  8 12  1  0  0  0  0
  9 14  1  0  0  0  0
 10 21  2  0  0  0  0
 11  5  1  0  0  0  0
 11  8  1  0  0  0  0
 12  4  1  0  0  0  0
 12 27  1  0  0  0  0
 13 18  1  0  0  0  0
 15 23  1  0  0  0  0
 16  2  1  0  0  0  0
 17  3  1  0  0  0  0
 18 25  2  0  0  0  0
 19 26  2  0  0  0  0
 20 17  1  0  0  0  0
 20 22  1  0  0  0  0
 22  9  1  0  0  0  0
 22 10  1  0  0  0  0
 23 14  1  0  0  0  0
 26 25  1  0  0  0  0
 26 17  1  0  0  0  0
 27 24  1  0  0  0  0
 27  7  1  0  0  0  0
 28 11  1  0  0  0  0
 29 30  1  0  0  0  0
 30 28  1  0  0  0  0
M  END
>  <MODEL>
3

>  <REMARK>
 VINA RESULT:      -6.9      1.339      1.962
  Name = 
  2 active torsions:
  status: ('A' for Active; 'I' for Inactive)
    1  A    between atoms: C_11  and  C_28
    2  A    between atoms: C_28  and  O_30
                            x       y       z     vdW  Elec       q    Type
                         _______ _______ _______ _____ _____    ______ ____

>  <TORSDO>
F 2

$$$$
=
 OpenBabel11122412343D

 30 35  0  0  1  0  0  0  0  0999 V2000
  159.6840  212.1620  152.2620 C   0  0  1  0  0  3  0  0  0  0  0  0
  159.4450  213.6870  150.2350 C   0  0  0  0  0  0  0  0  0  0  0  0
  162.2000  209.5280  149.9040 C   0  0  0  0  0  2  0  0  0  0  0  0
  160.5310  211.0440  152.9100 C   0  0  1  0  0  3  0  0  0  0  0  0
  159.5850  213.2500  153.1510 O   0  0  0  0  0  0  0  0  0  0  0  0
  158.5990  211.1660  156.1590 C   0  0  0  0  0  1  0  0  0  0  0  0
  160.1430  208.0530  154.1630 C   0  0  1  0  0  3  0  0  0  0  0  0
  159.4660  211.6170  154.9830 C   0  0  2  0  0  3  0  0  0  0  0  0
  160.8330  207.6920  152.8350 C   0  0  2  0  0  3  0  0  0  0  0  0
  162.3320  208.4570  150.9260 C   0  0  0  0  0  0  0  0  0  0  0  0
  158.8190  212.8290  154.2660 C   0  0  2  0  0  3  0  0  0  0  0  0
  159.7450  210.5110  154.0420 N   0  0  2  0  0  0  0  0  0  0  0  0
  159.7460  214.0190  148.9110 C   0  0  0  0  0  3  0  0  0  0  0  0
  161.6550  206.4500  153.1340 C   0  0  0  0  0  2  0  0  0  0  0  0
  160.4600  206.9470  155.1530 C   0  0  0  0  0  2  0  0  0  0  0  0
  158.5090  214.4530  150.9210 O   0  0  0  0  0  1  0  0  0  0  0  0
  161.6840  210.6650  150.7620 C   0  0  2  0  0  3  0  0  0  0  0  0
  160.6600  213.2570  148.1830 C   0  0  0  0  0  3  0  0  0  0  0  0
  160.0780  212.5890  150.8540 C   0  0  0  0  0  0  0  0  0  0  0  0
  160.8410  210.0010  151.8340 C   0  0  1  0  0  3  0  0  0  0  0  0
  162.9590  207.4290  150.7230 O   0  0  0  0  0  0  0  0  0  0  0  0
  161.6980  208.8100  152.2400 C   0  0  1  0  0  3  0  0  0  0  0  0
  160.9990  205.8010  154.3290 C   0  0  0  0  0  2  0  0  0  0  0  0
  161.9080  209.7150  155.1030 C   0  0  0  0  0  1  0  0  0  0  0  0
  161.2680  212.1490  148.7710 C   0  0  0  0  0  3  0  0  0  0  0  0
  160.9580  211.7890  150.0890 C   0  0  0  0  0  0  0  0  0  0  0  0
  160.4380  209.4340  154.7700 C   0  0  2  0  0  3  0  0  0  0  0  0
  157.3470  212.6130  153.8980 C   0  0  0  0  0  2  0  0  0  0  0  0
  155.3750  213.5960  153.8610 C   0  0  0  0  0  1  0  0  0  0  0  0
  156.7320  213.8410  153.6590 O   0  0  0  0  0  0  0  0  0  0  0  0
  1 19  1  6  0  0  0
  1  4  1  0  0  0  0
  1  5  1  0  0  0  0
  2 19  1  0  0  0  0
  2 16  1  0  0  0  0
  3 17  1  0  0  0  0
  3 10  1  0  0  0  0
  4 12  1  0  0  0  0
  5 11  1  0  0  0  0
  7 27  1  0  0  0  0
  7 15  1  0  0  0  0
  8  6  1  0  0  0  0
  9 14  1  0  0  0  0
  9  7  1  0  0  0  0
 10 22  1  0  0  0  0
 11  8  1  0  0  0  0
 12 27  1  0  0  0  0
 12  8  1  0  0  0  0
 13  2  2  0  0  0  0
 14 23  1  0  0  0  0
 17 20  1  0  0  0  0
 18 25  2  0  0  0  0
 18 13  1  0  0  0  0
 20 22  1  0  0  0  0
 20  4  1  0  0  0  0
 21 10  2  0  0  0  0
 22  9  1  0  0  0  0
 23 15  1  0  0  0  0
 25 26  1  0  0  0  0
 26 17  1  0  0  0  0
 26 19  2  0  0  0  0
 27 24  1  0  0  0  0
 28 11  1  0  0  0  0
 30 29  1  0  0  0  0
 30 28  1  0  0  0  0
M  END
>  <MODEL>
4

>  <REMARK>
 VINA RESULT:      -6.1      3.104      7.335
  Name = 
  2 active torsions:
  status: ('A' for Active; 'I' for Inactive)
    1  A    between atoms: C_11  and  C_28
    2  A    between atoms: C_28  and  O_30
                            x       y       z     vdW  Elec       q    Type
                         _______ _______ _______ _____ _____    ______ ____

>  <TORSDO>
F 2

$$$$
=
 OpenBabel11122412343D

 30 35  0  0  1  0  0  0  0  0999 V2000
  161.4200  204.4340  147.5110 C   0  0  1  0  0  3  0  0  0  0  0  0
  160.9980  202.3610  146.0910 C   0  0  0  0  0  0  0  0  0  0  0  0
  161.0980  201.9780  151.0750 C   0  0  0  0  0  2  0  0  0  0  0  0
  161.8640  204.9460  148.9000 C   0  0  1  0  0  3  0  0  0  0  0  0
  162.2370  205.0070  146.5170 O   0  0  0  0  0  0  0  0  0  0  0  0
  161.9120  208.5610  147.7910 C   0  0  0  0  0  1  0  0  0  0  0  0
  160.7930  206.9200  151.2720 C   0  0  1  0  0  3  0  0  0  0  0  0
  162.2460  207.0700  147.8510 C   0  0  2  0  0  3  0  0  0  0  0  0
  160.5570  205.5540  151.9420 C   0  0  2  0  0  3  0  0  0  0  0  0
  161.1840  203.0910  152.0580 C   0  0  0  0  0  0  0  0  0  0  0  0
  161.9660  206.3970  146.4840 C   0  0  2  0  0  3  0  0  0  0  0  0
  161.5350  206.3860  148.9530 N   0  0  2  0  0  0  0  0  0  0  0  0
  160.7760  200.9870  145.9670 C   0  0  0  0  0  3  0  0  0  0  0  0
  160.7680  205.7950  153.4280 C   0  0  0  0  0  2  0  0  0  0  0  0
  160.9900  207.9390  152.3780 C   0  0  0  0  0  2  0  0  0  0  0  0
  160.9350  203.1550  144.9510 O   0  0  0  0  0  1  0  0  0  0  0  0
  161.6020  202.6740  149.8270 C   0  0  2  0  0  3  0  0  0  0  0  0
  160.8050  200.1630  147.0930 C   0  0  0  0  0  3  0  0  0  0  0  0
  161.2730  202.9260  147.3540 C   0  0  0  0  0  0  0  0  0  0  0  0
  161.1440  204.1130  149.9640 C   0  0  1  0  0  3  0  0  0  0  0  0
  161.1120  202.9100  153.2630 O   0  0  0  0  0  0  0  0  0  0  0  0
  161.4530  204.4240  151.4220 C   0  0  1  0  0  3  0  0  0  0  0  0
  160.5150  207.2680  153.6450 C   0  0  0  0  0  2  0  0  0  0  0  0
  163.3240  206.6780  150.7280 C   0  0  0  0  0  1  0  0  0  0  0  0
  161.0430  200.7120  148.3520 C   0  0  0  0  0  3  0  0  0  0  0  0
  161.2430  202.0910  148.4960 C   0  0  0  0  0  0  0  0  0  0  0  0
  161.9160  207.0190  150.2280 C   0  0  2  0  0  3  0  0  0  0  0  0
  160.5690  206.6930  145.9260 C   0  0  0  0  0  2  0  0  0  0  0  0
  161.2960  206.0980  143.9320 C   0  0  0  0  0  1  0  0  0  0  0  0
  160.2920  205.8350  144.8620 O   0  0  0  0  0  0  0  0  0  0  0  0
  1  5  1  6  0  0  0
  1  4  1  0  0  0  0
  2 19  1  0  0  0  0
  3 10  1  0  0  0  0
  4 12  1  0  0  0  0
  4 20  1  0  0  0  0
  6  8  1  0  0  0  0
  7  9  1  0  0  0  0
  7 15  1  0  0  0  0
  8 12  1  0  0  0  0
  9 14  1  0  0  0  0
 10 21  2  0  0  0  0
 11  5  1  0  0  0  0
 11  8  1  0  0  0  0
 12 27  1  0  0  0  0
 13  2  2  0  0  0  0
 13 18  1  0  0  0  0
 14 23  1  0  0  0  0
 15 23  1  0  0  0  0
 16  2  1  0  0  0  0
 17 20  1  0  0  0  0
 17  3  1  0  0  0  0
 18 25  2  0  0  0  0
 19  1  1  0  0  0  0
 19 26  2  0  0  0  0
 20 22  1  0  0  0  0
 22  9  1  0  0  0  0
 22 10  1  0  0  0  0
 25 26  1  0  0  0  0
 26 17  1  0  0  0  0
 27 24  1  0  0  0  0
 27  7  1  0  0  0  0
 28 11  1  0  0  0  0
 29 30  1  0  0  0  0
 30 28  1  0  0  0  0
M  END
>  <MODEL>
5

>  <REMARK>
 VINA RESULT:      -6.0      2.299      3.933
  Name = 
  2 active torsions:
  status: ('A' for Active; 'I' for Inactive)
    1  A    between atoms: C_11  and  C_28
    2  A    between atoms: C_28  and  O_30
                            x       y       z     vdW  Elec       q    Type
                         _______ _______ _______ _____ _____    ______ ____

>  <TORSDO>
F 2

$$$$
=
 OpenBabel11122412343D

 30 35  0  0  1  0  0  0  0  0999 V2000
  161.5810  208.1510  149.4940 C   0  0  1  0  0  3  0  0  0  0  0  0
  161.4170  206.1200  147.9640 C   0  0  0  0  0  0  0  0  0  0  0  0
  160.8750  205.5600  152.9030 C   0  0  0  0  0  2  0  0  0  0  0  0
  161.8230  208.6240  150.9450 C   0  0  1  0  0  3  0  0  0  0  0  0
  162.5030  208.7820  148.6360 O   0  0  0  0  0  0  0  0  0  0  0  0
  161.8990  212.2760  149.9690 C   0  0  0  0  0  1  0  0  0  0  0  0
  160.3870  210.4810  153.2170 C   0  0  1  0  0  3  0  0  0  0  0  0
  162.2700  210.7950  150.0250 C   0  0  2  0  0  3  0  0  0  0  0  0
  160.1100  209.0850  153.8060 C   0  0  2  0  0  3  0  0  0  0  0  0
  160.7950  206.6370  153.9240 C   0  0  0  0  0  0  0  0  0  0  0  0
  162.1940  210.1640  148.6120 C   0  0  2  0  0  3  0  0  0  0  0  0
  161.4430  210.0520  151.0000 N   0  0  2  0  0  0  0  0  0  0  0  0
  161.2570  204.7450  147.7680 C   0  0  0  0  0  3  0  0  0  0  0  0
  160.1160  209.2780  155.3130 C   0  0  0  0  0  2  0  0  0  0  0  0
  160.4040  211.4640  154.3720 C   0  0  0  0  0  2  0  0  0  0  0  0
  161.4780  206.9520  146.8530 O   0  0  0  0  0  1  0  0  0  0  0  0
  161.5150  206.3140  151.7560 C   0  0  2  0  0  3  0  0  0  0  0  0
  161.1650  203.8820  148.8610 C   0  0  0  0  0  3  0  0  0  0  0  0
  161.5050  206.6460  149.2700 C   0  0  0  0  0  0  0  0  0  0  0  0
  160.9970  207.7340  151.8780 C   0  0  1  0  0  3  0  0  0  0  0  0
  160.5720  206.4110  155.1030 O   0  0  0  0  0  0  0  0  0  0  0  0
  161.1020  207.9990  153.3730 C   0  0  1  0  0  3  0  0  0  0  0  0
  159.7890  210.7340  155.5430 C   0  0  0  0  0  2  0  0  0  0  0  0
  162.9740  210.3280  153.0050 C   0  0  0  0  0  1  0  0  0  0  0  0
  161.2180  204.3920  150.1580 C   0  0  0  0  0  3  0  0  0  0  0  0
  161.3530  205.7700  150.3700 C   0  0  0  0  0  0  0  0  0  0  0  0
  161.6330  210.6480  152.3340 C   0  0  2  0  0  3  0  0  0  0  0  0
  160.8730  210.4410  147.8840 C   0  0  0  0  0  2  0  0  0  0  0  0
  159.8500  212.2030  147.0450 C   0  0  0  0  0  1  0  0  0  0  0  0
  161.0420  211.4850  146.9760 O   0  0  0  0  0  0  0  0  0  0  0  0
  1  5  1  6  0  0  0
  1  4  1  0  0  0  0
  2 19  1  0  0  0  0
  3 10  1  0  0  0  0
  4 12  1  0  0  0  0
  4 20  1  0  0  0  0
  6  8  1  0  0  0  0
  7  9  1  0  0  0  0
  7 15  1  0  0  0  0
  8 12  1  0  0  0  0
  9 14  1  0  0  0  0
 10 21  2  0  0  0  0
 11  5  1  0  0  0  0
 11  8  1  0  0  0  0
 12 27  1  0  0  0  0
 13  2  2  0  0  0  0
 13 18  1  0  0  0  0
 14 23  1  0  0  0  0
 15 23  1  0  0  0  0
 16  2  1  0  0  0  0
 17 20  1  0  0  0  0
 17  3  1  0  0  0  0
 18 25  2  0  0  0  0
 19  1  1  0  0  0  0
 19 26  2  0  0  0  0
 20 22  1  0  0  0  0
 22  9  1  0  0  0  0
 22 10  1  0  0  0  0
 25 26  1  0  0  0  0
 26 17  1  0  0  0  0
 27 24  1  0  0  0  0
 27  7  1  0  0  0  0
 28 11  1  0  0  0  0
 30 29  1  0  0  0  0
 30 28  1  0  0  0  0
M  END
>  <MODEL>
6

>  <REMARK>
 VINA RESULT:      -5.8      1.671      2.464
  Name = 
  2 active torsions:
  status: ('A' for Active; 'I' for Inactive)
    1  A    between atoms: C_11  and  C_28
    2  A    between atoms: C_28  and  O_30
                            x       y       z     vdW  Elec       q    Type
                         _______ _______ _______ _____ _____    ______ ____

>  <TORSDO>
F 2

$$$$
