=
 OpenBabel11122414083D

 28 32  0  0  1  0  0  0  0  0999 V2000
  158.2440  213.6920  152.6550 C   0  0  0  0  0  0  0  0  0  0  0  0
  160.2150  213.5720  155.6160 O   0  0  0  0  0  0  0  0  0  0  0  0
  162.2380  208.9590  151.1360 O   0  0  0  0  0  0  0  0  0  0  0  0
  155.6640  212.7550  153.2200 C   0  0  0  0  0  3  0  0  0  0  0  0
  160.9520  208.6110  153.0700 N   0  0  0  0  0  0  0  0  0  0  0  0
  159.6030  214.2110  152.3050 C   0  0  0  0  0  2  0  0  0  0  0  0
  158.6840  212.5810  157.2610 O   0  0  0  0  0  0  0  0  0  0  0  0
  159.7880  212.2930  156.2830 S   0  0  0  0  0  0  0  0  0  0  0  0
  162.0330  210.8820  156.1290 C   0  0  0  0  0  0  0  0  0  0  0  0
  159.2290  211.0940  155.0770 C   0  0  2  0  0  3  0  0  0  0  0  0
  160.7890  212.4270  149.3270 O   0  0  0  0  0  0  0  0  0  0  0  0
  159.3630  210.3720  152.7670 C   0  0  2  0  0  3  0  0  0  0  0  0
  161.5190  210.1330  155.1990 N   0  0  0  0  0  0  0  0  0  0  0  0
  161.1710  211.5740  157.1330 C   0  0  0  0  0  2  0  0  0  0  0  0
  160.6300  212.6850  150.5490 C   0  0  0  0  0  0  0  0  0  0  0  0
  158.0740  212.4490  153.2960 C   0  0  0  0  0  0  0  0  0  0  0  0
  161.2920  209.3080  151.8900 C   0  0  0  0  0  0  0  0  0  0  0  0
  163.4400  211.0760  156.1750 N   0  0  0  0  0  1  0  0  0  0  0  0
  161.2010  211.7550  151.5710 C   0  0  0  0  0  2  0  0  0  0  0  0
  156.7770  211.9870  153.5690 C   0  0  0  0  0  3  0  0  0  0  0  0
  157.1230  214.4530  152.3050 C   0  0  0  0  0  3  0  0  0  0  0  0
  155.8370  213.9880  152.5900 C   0  0  0  0  0  3  0  0  0  0  0  0
  159.9280  213.8720  150.9270 N   0  0  0  0  0  2  0  0  0  0  0  0
  159.7840  209.2110  153.6900 C   0  0  2  0  0  3  0  0  0  0  0  0
  160.3980  210.4560  151.6150 C   0  0  2  0  0  3  0  0  0  0  0  0
  160.0850  209.8290  155.0630 C   0  0  2  0  0  3  0  0  0  0  0  0
  161.5420  207.3490  153.4870 C   0  0  0  0  0  1  0  0  0  0  0  0
  159.2680  211.6120  153.6520 C   0  0  1  0  0  3  0  0  0  0  0  0
  1 16  1  0  0  0  0
  2  8  2  0  0  0  0
  3 17  2  0  0  0  0
  4 20  1  0  0  0  0
  5 27  1  0  0  0  0
  5 24  1  0  0  0  0
  6  1  1  0  0  0  0
  8 14  1  0  0  0  0
  8  7  2  0  0  0  0
  9 18  1  0  0  0  0
  9 14  1  0  0  0  0
 10  8  1  1  0  0  0
 11 15  2  0  0  0  0
 12 28  1  0  0  0  0
 12 24  1  0  0  0  0
 13  9  2  0  0  0  0
 15 23  1  0  0  0  0
 15 19  1  0  0  0  0
 16 20  2  0  0  0  0
 16 28  1  0  0  0  0
 17  5  1  0  0  0  0
 19 25  1  0  0  0  0
 21 22  1  0  0  0  0
 21  1  2  0  0  0  0
 22  4  2  0  0  0  0
 23  6  1  0  0  0  0
 24 26  1  0  0  0  0
 25 17  1  0  0  0  0
 25 12  1  0  0  0  0
 26 10  1  0  0  0  0
 26 13  1  0  0  0  0
 28 10  1  0  0  0  0
M  END
>  <MODEL>
1

>  <REMARK>
 VINA RESULT:      -1.3      0.000      0.000
  Name = 
  0 active torsions:
  status: ('A' for Active; 'I' for Inactive)
                            x       y       z     vdW  Elec       q    Type
                         _______ _______ _______ _____ _____    ______ ____

>  <TORSDO>
F 0

$$$$
=
 OpenBabel11122414083D

 28 32  0  0  1  0  0  0  0  0999 V2000
  160.9930  208.8900  155.3870 C   0  0  0  0  0  0  0  0  0  0  0  0
  158.4260  211.1740  154.4620 O   0  0  0  0  0  0  0  0  0  0  0  0
  161.6510  208.7860  149.0450 O   0  0  0  0  0  0  0  0  0  0  0  0
  163.0720  210.2900  156.6410 C   0  0  0  0  0  3  0  0  0  0  0  0
  161.9040  210.8940  150.0510 N   0  0  0  0  0  0  0  0  0  0  0  0
  159.9060  208.0950  154.7350 C   0  0  0  0  0  2  0  0  0  0  0  0
  159.3460  213.3470  155.1400 O   0  0  0  0  0  0  0  0  0  0  0  0
  159.1750  212.3910  153.9950 S   0  0  0  0  0  0  0  0  0  0  0  0
  158.5160  212.4190  151.4220 C   0  0  0  0  0  0  0  0  0  0  0  0
  160.7790  211.9450  153.3360 C   0  0  2  0  0  3  0  0  0  0  0  0
  161.4140  205.9930  152.1340 O   0  0  0  0  0  0  0  0  0  0  0  0
  162.1060  210.1850  152.3260 C   0  0  2  0  0  3  0  0  0  0  0  0
  159.7070  212.0160  151.0930 N   0  0  0  0  0  0  0  0  0  0  0  0
  158.2740  213.1790  152.6840 C   0  0  0  0  0  2  0  0  0  0  0  0
  160.8450  206.9940  152.6440 C   0  0  0  0  0  0  0  0  0  0  0  0
  161.5560  210.0190  154.7610 C   0  0  0  0  0  0  0  0  0  0  0  0
  161.7740  209.4880  150.0840 C   0  0  0  0  0  0  0  0  0  0  0  0
  157.4140  212.1030  150.5810 N   0  0  0  0  0  1  0  0  0  0  0  0
  160.5510  208.1810  151.7850 C   0  0  0  0  0  2  0  0  0  0  0  0
  162.6020  210.7090  155.3950 C   0  0  0  0  0  3  0  0  0  0  0  0
  161.4740  208.4750  156.6340 C   0  0  0  0  0  3  0  0  0  0  0  0
  162.5070  209.1740  157.2610 C   0  0  0  0  0  3  0  0  0  0  0  0
  160.4750  206.9580  154.0250 N   0  0  0  0  0  2  0  0  0  0  0  0
  162.0910  211.4130  151.3940 C   0  0  2  0  0  3  0  0  0  0  0  0
  161.8410  208.9300  151.4530 C   0  0  2  0  0  3  0  0  0  0  0  0
  160.9310  212.3050  151.8590 C   0  0  2  0  0  3  0  0  0  0  0  0
  162.0510  211.6850  148.8400 C   0  0  0  0  0  1  0  0  0  0  0  0
  161.0670  210.4580  153.4110 C   0  0  1  0  0  3  0  0  0  0  0  0
  1 21  1  0  0  0  0
  3 17  2  0  0  0  0
  4 22  1  0  0  0  0
  5 17  1  0  0  0  0
  5 24  1  0  0  0  0
  6  1  1  0  0  0  0
  8  2  2  0  0  0  0
  8  7  2  0  0  0  0
  9 14  1  0  0  0  0
 10 28  1  0  0  0  0
 10  8  1  6  0  0  0
 11 15  2  0  0  0  0
 12 28  1  0  0  0  0
 13  9  2  0  0  0  0
 13 26  1  0  0  0  0
 14  8  1  0  0  0  0
 15 23  1  0  0  0  0
 16  1  2  0  0  0  0
 16 20  1  0  0  0  0
 17 25  1  0  0  0  0
 18  9  1  0  0  0  0
 19 15  1  0  0  0  0
 20  4  2  0  0  0  0
 21 22  2  0  0  0  0
 23  6  1  0  0  0  0
 24 26  1  0  0  0  0
 24 12  1  0  0  0  0
 25 19  1  0  0  0  0
 25 12  1  0  0  0  0
 26 10  1  0  0  0  0
 27  5  1  0  0  0  0
 28 16  1  0  0  0  0
M  END
>  <MODEL>
2

>  <REMARK>
 VINA RESULT:      -0.4      2.214      5.460
  Name = 
  0 active torsions:
  status: ('A' for Active; 'I' for Inactive)
                            x       y       z     vdW  Elec       q    Type
                         _______ _______ _______ _____ _____    ______ ____

>  <TORSDO>
F 0

$$$$
=
 OpenBabel11122414083D

 28 32  0  0  1  0  0  0  0  0999 V2000
  160.9120  209.1240  155.4880 C   0  0  0  0  0  0  0  0  0  0  0  0
  157.5920  210.3850  155.7170 O   0  0  0  0  0  0  0  0  0  0  0  0
  160.3450  211.8060  149.7300 O   0  0  0  0  0  0  0  0  0  0  0  0
  162.5850  210.6050  157.1810 C   0  0  0  0  0  3  0  0  0  0  0  0
  160.0480  213.2580  151.5520 N   0  0  0  0  0  0  0  0  0  0  0  0
  160.0600  208.2970  154.5780 C   0  0  0  0  0  2  0  0  0  0  0  0
  157.8240  212.2820  157.2590 O   0  0  0  0  0  0  0  0  0  0  0  0
  157.7760  211.8740  155.8140 S   0  0  0  0  0  0  0  0  0  0  0  0
  156.6700  212.6570  153.5300 C   0  0  0  0  0  0  0  0  0  0  0  0
  159.2790  212.3910  154.9900 C   0  0  2  0  0  3  0  0  0  0  0  0
  161.6710  208.1700  151.2850 O   0  0  0  0  0  0  0  0  0  0  0  0
  160.9090  211.8480  153.2800 C   0  0  2  0  0  3  0  0  0  0  0  0
  157.8410  212.9190  153.0310 N   0  0  0  0  0  0  0  0  0  0  0  0
  156.4270  212.6950  155.0030 C   0  0  0  0  0  2  0  0  0  0  0  0
  160.9030  208.5770  152.1950 C   0  0  0  0  0  0  0  0  0  0  0  0
  160.9250  210.5310  155.4070 C   0  0  0  0  0  0  0  0  0  0  0  0
  160.4150  212.0260  150.9680 C   0  0  0  0  0  0  0  0  0  0  0  0
  155.6040  212.2970  152.6620 N   0  0  0  0  0  1  0  0  0  0  0  0
  160.0620  209.7890  151.9510 C   0  0  0  0  0  2  0  0  0  0  0  0
  161.7710  211.2620  156.2560 C   0  0  0  0  0  3  0  0  0  0  0  0
  161.7350  208.4740  156.4150 C   0  0  0  0  0  3  0  0  0  0  0  0
  162.5650  209.2120  157.2610 C   0  0  0  0  0  3  0  0  0  0  0  0
  160.8380  207.8560  153.4280 N   0  0  0  0  0  2  0  0  0  0  0  0
  160.2980  213.2310  152.9820 C   0  0  2  0  0  3  0  0  0  0  0  0
  160.9290  211.0470  151.9520 C   0  0  2  0  0  3  0  0  0  0  0  0
  159.0140  213.3340  153.8180 C   0  0  2  0  0  3  0  0  0  0  0  0
  159.6810  214.4520  150.8080 C   0  0  0  0  0  1  0  0  0  0  0  0
  160.0670  211.2390  154.3980 C   0  0  1  0  0  3  0  0  0  0  0  0
  1 21  1  0  0  0  0
  2  8  2  0  0  0  0
  3 17  2  0  0  0  0
  4 22  1  0  0  0  0
  5 24  1  0  0  0  0
  6  1  1  0  0  0  0
  8  7  2  0  0  0  0
  9 14  1  0  0  0  0
 10  8  1  6  0  0  0
 11 15  2  0  0  0  0
 12 28  1  0  0  0  0
 13  9  2  0  0  0  0
 13 26  1  0  0  0  0
 14  8  1  0  0  0  0
 15 23  1  0  0  0  0
 16  1  2  0  0  0  0
 16 20  1  0  0  0  0
 17  5  1  0  0  0  0
 17 25  1  0  0  0  0
 18  9  1  0  0  0  0
 19 25  1  0  0  0  0
 19 15  1  0  0  0  0
 20  4  2  0  0  0  0
 21 22  2  0  0  0  0
 23  6  1  0  0  0  0
 24 12  1  0  0  0  0
 24 26  1  0  0  0  0
 25 12  1  0  0  0  0
 26 10  1  0  0  0  0
 27  5  1  0  0  0  0
 28 10  1  0  0  0  0
 28 16  1  0  0  0  0
M  END
>  <MODEL>
3

>  <REMARK>
 VINA RESULT:       1.6      1.743      5.304
  Name = 
  0 active torsions:
  status: ('A' for Active; 'I' for Inactive)
                            x       y       z     vdW  Elec       q    Type
                         _______ _______ _______ _____ _____    ______ ____

>  <TORSDO>
F 0

$$$$
