=
 OpenBabel11122414133D

 28 32  0  0  1  0  0  0  0  0999 V2000
  160.7760  210.1230  155.0820 C   0  0  0  0  0  0  0  0  0  0  0  0
  155.7020  210.0740  155.0250 O   0  0  0  0  0  0  0  0  0  0  0  0
  160.1950  214.0490  151.9920 C   0  0  0  0  0  1  0  0  0  0  0  0
  161.4440  212.2910  156.7270 C   0  0  0  0  0  3  0  0  0  0  0  0
  157.8800  213.2140  151.9710 C   0  0  0  0  0  0  0  0  0  0  0  0
  160.4840  208.9940  154.1380 C   0  0  0  0  0  2  0  0  0  0  0  0
  156.6750  210.3810  157.2590 O   0  0  0  0  0  0  0  0  0  0  0  0
  156.2050  211.0840  156.0180 S   0  0  0  0  0  0  0  0  0  0  0  0
  155.1950  213.5860  155.8730 C   0  0  2  0  0  3  0  0  0  0  0  0
  157.5120  212.0150  155.3360 N   0  0  2  0  0  0  0  0  0  0  0  0
  162.3860  210.3420  151.0530 C   0  0  0  0  0  1  0  0  0  0  0  0
  158.3350  211.2290  153.1750 C   0  0  1  0  0  3  0  0  0  0  0  0
  155.6190  213.4720  154.4160 C   0  0  0  0  0  2  0  0  0  0  0  0
  154.8860  212.2060  156.4320 C   0  0  0  0  0  2  0  0  0  0  0  0
  161.3820  210.3700  152.1870 C   0  0  1  0  0  3  0  0  0  0  0  0
  159.8320  211.1500  155.3040 C   0  0  0  0  0  0  0  0  0  0  0  0
  159.2830  212.8980  151.6140 C   0  0  2  0  0  3  0  0  0  0  0  0
  153.9580  214.4530  155.9740 C   0  0  0  0  0  1  0  0  0  0  0  0
  160.1110  210.6510  151.6760 O   0  0  0  0  0  0  0  0  0  0  0  0
  160.1870  212.2340  156.1220 C   0  0  0  0  0  3  0  0  0  0  0  0
  162.0320  210.1840  155.7010 C   0  0  0  0  0  3  0  0  0  0  0  0
  162.3640  211.2620  156.5220 C   0  0  0  0  0  3  0  0  0  0  0  0
  161.3930  209.0230  152.9060 C   0  0  0  0  0  2  0  0  0  0  0  0
  157.2650  212.2690  152.9330 C   0  0  1  0  0  3  0  0  0  0  0  0
  159.6210  211.6910  152.4740 C   0  0  2  0  0  3  0  0  0  0  0  0
  157.0540  212.9330  154.2760 C   0  0  2  0  0  3  0  0  0  0  0  0
  157.2630  214.1450  151.4750 O   0  0  0  0  0  0  0  0  0  0  0  0
  158.4400  211.0780  154.7000 C   0  0  1  0  0  3  0  0  0  0  0  0
  1 16  2  0  0  0  0
  1 21  1  0  0  0  0
  2  8  2  0  0  0  0
  5 24  1  0  0  0  0
  6  1  1  0  0  0  0
  8 14  1  0  0  0  0
  8  7  2  0  0  0  0
  9 18  1  6  0  0  0
  9 14  1  0  0  0  0
 10  8  1  6  0  0  0
 11 15  1  0  0  0  0
 12 28  1  0  0  0  0
 13  9  1  0  0  0  0
 15 23  1  0  0  0  0
 16 20  1  0  0  0  0
 17  5  1  0  0  0  0
 17  3  1  0  0  0  0
 17 25  1  0  0  0  0
 19 15  1  0  0  0  0
 19 25  1  0  0  0  0
 20  4  2  0  0  0  0
 21 22  2  0  0  0  0
 22  4  1  0  0  0  0
 23  6  1  0  0  0  0
 24 12  1  0  0  0  0
 24 26  1  0  0  0  0
 25 12  1  0  0  0  0
 26 13  1  0  0  0  0
 26 10  1  0  0  0  0
 27  5  2  0  0  0  0
 28 16  1  0  0  0  0
 28 10  1  0  0  0  0
M  END
>  <MODEL>
1

>  <REMARK>
 VINA RESULT:      -0.7      0.000      0.000
  Name = 
  0 active torsions:
  status: ('A' for Active; 'I' for Inactive)
                            x       y       z     vdW  Elec       q    Type
                         _______ _______ _______ _____ _____    ______ ____

>  <TORSDO>
F 0

$$$$
=
 OpenBabel11122414133D

 28 32  0  0  1  0  0  0  0  0999 V2000
  161.8610  210.0280  153.0510 C   0  0  0  0  0  0  0  0  0  0  0  0
  160.8310  214.4530  150.7930 O   0  0  0  0  0  0  0  0  0  0  0  0
  157.1610  210.4820  154.7860 C   0  0  0  0  0  1  0  0  0  0  0  0
  160.4710  208.1210  151.5390 C   0  0  0  0  0  3  0  0  0  0  0  0
  157.4500  212.7580  153.8950 C   0  0  0  0  0  0  0  0  0  0  0  0
  162.5700  211.0060  153.9400 C   0  0  0  0  0  2  0  0  0  0  0  0
  161.4140  212.6470  149.2350 O   0  0  0  0  0  0  0  0  0  0  0  0
  160.2910  213.3120  149.9780 S   0  0  0  0  0  0  0  0  0  0  0  0
  157.7060  213.4460  149.2010 C   0  0  2  0  0  3  0  0  0  0  0  0
  159.4930  212.1500  151.0050 N   0  0  2  0  0  0  0  0  0  0  0  0
  160.7910  210.1300  157.2610 C   0  0  0  0  0  1  0  0  0  0  0  0
  159.7530  212.5280  153.4040 C   0  0  1  0  0  3  0  0  0  0  0  0
  157.4670  213.6820  150.6850 C   0  0  0  0  0  2  0  0  0  0  0  0
  159.0940  213.9350  148.8160 C   0  0  0  0  0  2  0  0  0  0  0  0
  160.8940  210.5490  155.8090 C   0  0  1  0  0  3  0  0  0  0  0  0
  160.7740  210.4310  152.2450 C   0  0  0  0  0  0  0  0  0  0  0  0
  157.9310  211.7840  154.9030 C   0  0  2  0  0  3  0  0  0  0  0  0
  156.6710  214.2000  148.3950 C   0  0  0  0  0  1  0  0  0  0  0  0
  160.2150  211.7570  155.6240 O   0  0  0  0  0  0  0  0  0  0  0  0
  160.0810  209.4610  151.5030 C   0  0  0  0  0  3  0  0  0  0  0  0
  162.2500  208.6810  153.0740 C   0  0  0  0  0  3  0  0  0  0  0  0
  161.5600  207.7320  152.3190 C   0  0  0  0  0  3  0  0  0  0  0  0
  162.3660  210.6890  155.4250 C   0  0  0  0  0  2  0  0  0  0  0  0
  158.4890  213.2160  152.9430 C   0  0  1  0  0  3  0  0  0  0  0  0
  159.3820  211.5410  154.5210 C   0  0  2  0  0  3  0  0  0  0  0  0
  158.2260  212.6660  151.5580 C   0  0  2  0  0  3  0  0  0  0  0  0
  156.3070  213.1880  153.8810 O   0  0  0  0  0  0  0  0  0  0  0  0
  160.3700  211.8920  152.1490 C   0  0  1  0  0  3  0  0  0  0  0  0
  1 21  1  0  0  0  0
  1  6  1  0  0  0  0
  3 17  1  0  0  0  0
  4 22  1  0  0  0  0
  5 17  1  0  0  0  0
  6 23  1  0  0  0  0
  7  8  2  0  0  0  0
  8  2  2  0  0  0  0
  9 18  1  6  0  0  0
  9 13  1  0  0  0  0
 10  8  1  6  0  0  0
 10 26  1  0  0  0  0
 10 28  1  0  0  0  0
 12 25  1  0  0  0  0
 13 26  1  0  0  0  0
 14  9  1  0  0  0  0
 14  8  1  0  0  0  0
 15 11  1  0  0  0  0
 16  1  2  0  0  0  0
 19 15  1  0  0  0  0
 20  4  2  0  0  0  0
 20 16  1  0  0  0  0
 22 21  2  0  0  0  0
 23 15  1  0  0  0  0
 24 12  1  0  0  0  0
 24  5  1  0  0  0  0
 25 17  1  0  0  0  0
 25 19  1  0  0  0  0
 26 24  1  0  0  0  0
 27  5  2  0  0  0  0
 28 16  1  0  0  0  0
 28 12  1  0  0  0  0
M  END
>  <MODEL>
2

>  <REMARK>
 VINA RESULT:      -0.6      2.710      5.188
  Name = 
  0 active torsions:
  status: ('A' for Active; 'I' for Inactive)
                            x       y       z     vdW  Elec       q    Type
                         _______ _______ _______ _____ _____    ______ ____

>  <TORSDO>
F 0

$$$$
=
 OpenBabel11122414133D

 28 32  0  0  1  0  0  0  0  0999 V2000
  158.1410  212.2430  155.7530 C   0  0  0  0  0  0  0  0  0  0  0  0
  157.4370  212.2170  150.7280 O   0  0  0  0  0  0  0  0  0  0  0  0
  162.6880  210.4660  154.5410 C   0  0  0  0  0  1  0  0  0  0  0  0
  159.7990  214.4530  156.2230 C   0  0  0  0  0  3  0  0  0  0  0  0
  161.5950  210.2170  152.3500 C   0  0  0  0  0  0  0  0  0  0  0  0
  157.3100  211.0090  155.5590 C   0  0  0  0  0  2  0  0  0  0  0  0
  157.2010  214.4330  151.7600 O   0  0  0  0  0  0  0  0  0  0  0  0
  158.1690  213.4610  151.1470 S   0  0  0  0  0  0  0  0  0  0  0  0
  160.4450  214.0760  149.8280 C   0  0  2  0  0  3  0  0  0  0  0  0
  159.4240  213.0760  152.2940 N   0  0  2  0  0  0  0  0  0  0  0  0
  159.7460  208.4480  157.1300 C   0  0  0  0  0  1  0  0  0  0  0  0
  159.4230  210.7720  153.1050 C   0  0  1  0  0  3  0  0  0  0  0  0
  160.8210  212.6460  150.1930 C   0  0  0  0  0  2  0  0  0  0  0  0
  158.9330  214.2010  149.7200 C   0  0  0  0  0  2  0  0  0  0  0  0
  159.3060  209.5480  156.1850 C   0  0  1  0  0  3  0  0  0  0  0  0
  158.9220  212.7680  154.7000 C   0  0  0  0  0  0  0  0  0  0  0  0
  161.5880  209.7700  153.7630 C   0  0  2  0  0  3  0  0  0  0  0  0
  161.0720  214.4400  148.5000 C   0  0  0  0  0  1  0  0  0  0  0  0
  159.5530  209.1540  154.8660 O   0  0  0  0  0  0  0  0  0  0  0  0
  159.7560  213.8690  154.9560 C   0  0  0  0  0  3  0  0  0  0  0  0
  158.1840  212.8420  157.0190 C   0  0  0  0  0  3  0  0  0  0  0  0
  159.0080  213.9440  157.2530 C   0  0  0  0  0  3  0  0  0  0  0  0
  157.8210  209.8340  156.3980 C   0  0  0  0  0  2  0  0  0  0  0  0
  160.3370  210.8590  151.9040 C   0  0  1  0  0  3  0  0  0  0  0  0
  160.2370  210.2290  154.2890 C   0  0  2  0  0  3  0  0  0  0  0  0
  160.5430  212.3410  151.6760 C   0  0  2  0  0  3  0  0  0  0  0  0
  162.5400  210.0250  151.5990 O   0  0  0  0  0  0  0  0  0  0  0  0
  158.8470  212.1830  153.3010 C   0  0  1  0  0  3  0  0  0  0  0  0
  1 21  1  0  0  0  0
  2  8  2  0  0  0  0
  4 22  1  0  0  0  0
  5 17  1  0  0  0  0
  6  1  1  0  0  0  0
  6 23  1  0  0  0  0
  8  7  2  0  0  0  0
  9 18  1  6  0  0  0
  9 13  1  0  0  0  0
 10  8  1  6  0  0  0
 10 28  1  0  0  0  0
 12 28  1  0  0  0  0
 12 25  1  0  0  0  0
 13 26  1  0  0  0  0
 14  9  1  0  0  0  0
 14  8  1  0  0  0  0
 15 23  1  0  0  0  0
 15 11  1  0  0  0  0
 16 20  1  0  0  0  0
 16  1  2  0  0  0  0
 17 25  1  0  0  0  0
 17  3  1  0  0  0  0
 19 15  1  0  0  0  0
 20  4  2  0  0  0  0
 21 22  2  0  0  0  0
 24  5  1  0  0  0  0
 24 12  1  0  0  0  0
 25 19  1  0  0  0  0
 26 24  1  0  0  0  0
 26 10  1  0  0  0  0
 27  5  2  0  0  0  0
 28 16  1  0  0  0  0
M  END
>  <MODEL>
3

>  <REMARK>
 VINA RESULT:      -0.3      2.541      5.177
  Name = 
  0 active torsions:
  status: ('A' for Active; 'I' for Inactive)
                            x       y       z     vdW  Elec       q    Type
                         _______ _______ _______ _____ _____    ______ ____

>  <TORSDO>
F 0

$$$$
=
 OpenBabel11122414133D

 28 32  0  0  1  0  0  0  0  0999 V2000
  162.3360  209.6170  151.2870 C   0  0  0  0  0  0  0  0  0  0  0  0
  163.6950  213.6630  148.5440 O   0  0  0  0  0  0  0  0  0  0  0  0
  157.7880  211.7610  151.1250 C   0  0  0  0  0  1  0  0  0  0  0  0
  160.9550  207.9720  149.4860 C   0  0  0  0  0  3  0  0  0  0  0  0
  159.1180  213.6460  150.2690 C   0  0  0  0  0  0  0  0  0  0  0  0
  163.0030  210.4820  152.3140 C   0  0  0  0  0  2  0  0  0  0  0  0
  164.0990  211.5140  147.4250 O   0  0  0  0  0  0  0  0  0  0  0  0
  163.0960  212.6070  147.6570 S   0  0  0  0  0  0  0  0  0  0  0  0
  161.1250  213.3640  145.9710 C   0  0  2  0  0  3  0  0  0  0  0  0
  161.6570  211.9430  148.3840 N   0  0  2  0  0  0  0  0  0  0  0  0
  160.0450  210.7940  154.7860 C   0  0  0  0  0  1  0  0  0  0  0  0
  161.2260  212.6530  150.6810 C   0  0  1  0  0  3  0  0  0  0  0  0
  160.5070  213.9260  147.2440 C   0  0  0  0  0  2  0  0  0  0  0  0
  162.6400  213.3390  146.0990 C   0  0  0  0  0  2  0  0  0  0  0  0
  160.7570  210.8930  153.4520 C   0  0  1  0  0  3  0  0  0  0  0  0
  161.7830  210.1740  150.1130 C   0  0  0  0  0  0  0  0  0  0  0  0
  158.8740  212.7720  151.4400 C   0  0  2  0  0  3  0  0  0  0  0  0
  160.7390  214.2350  144.7950 C   0  0  0  0  0  1  0  0  0  0  0  0
  160.6360  212.1950  152.9560 O   0  0  0  0  0  0  0  0  0  0  0  0
  161.0850  209.3380  149.2260 C   0  0  0  0  0  3  0  0  0  0  0  0
  162.2070  208.2430  151.5340 C   0  0  0  0  0  3  0  0  0  0  0  0
  161.5220  207.4240  150.6360 C   0  0  0  0  0  3  0  0  0  0  0  0
  162.2260  210.5150  153.6340 C   0  0  0  0  0  2  0  0  0  0  0  0
  160.5030  213.5930  149.7430 C   0  0  1  0  0  3  0  0  0  0  0  0
  160.1930  212.0410  151.6390 C   0  0  2  0  0  3  0  0  0  0  0  0
  160.5380  212.9050  148.3950 C   0  0  2  0  0  3  0  0  0  0  0  0
  158.2650  214.3880  149.8060 O   0  0  0  0  0  0  0  0  0  0  0  0
  161.9630  211.6460  149.7840 C   0  0  1  0  0  3  0  0  0  0  0  0
  1 21  1  0  0  0  0
  1  6  1  0  0  0  0
  3 17  1  0  0  0  0
  4 22  1  0  0  0  0
  5 17  1  0  0  0  0
  6 23  1  0  0  0  0
  7  8  2  0  0  0  0
  8  2  2  0  0  0  0
  9 18  1  6  0  0  0
  9 14  1  0  0  0  0
  9 13  1  0  0  0  0
 10  8  1  1  0  0  0
 10 26  1  0  0  0  0
 10 28  1  0  0  0  0
 12 25  1  0  0  0  0
 13 26  1  0  0  0  0
 14  8  1  0  0  0  0
 15 23  1  0  0  0  0
 15 11  1  0  0  0  0
 16  1  2  0  0  0  0
 17 25  1  0  0  0  0
 19 15  1  0  0  0  0
 20  4  2  0  0  0  0
 20 16  1  0  0  0  0
 22 21  2  0  0  0  0
 24  5  1  0  0  0  0
 24 12  1  0  0  0  0
 25 19  1  0  0  0  0
 26 24  1  0  0  0  0
 27  5  2  0  0  0  0
 28 16  1  0  0  0  0
 28 12  1  0  0  0  0
M  END
>  <MODEL>
4

>  <REMARK>
 VINA RESULT:       2.1      4.094      7.169
  Name = 
  0 active torsions:
  status: ('A' for Active; 'I' for Inactive)
                            x       y       z     vdW  Elec       q    Type
                         _______ _______ _______ _____ _____    ______ ____

>  <TORSDO>
F 0

$$$$
