=
 OpenBabel11122413213D

 31 35  0  0  1  0  0  0  0  0999 V2000
  161.4590  205.7010  146.0060 C   0  0  0  0  0  0  0  0  0  0  0  0
  161.2310  204.7150  149.7030 C   0  0  0  0  0  0  0  0  0  0  0  0
  161.1080  203.3010  149.7910 C   0  0  0  0  0  0  0  0  0  0  0  0
  161.3420  209.8350  151.2140 O   0  0  0  0  0  0  0  0  0  0  0  0
  161.0010  209.1120  152.1890 C   0  0  0  0  0  0  0  0  0  0  0  0
  161.0790  201.0770  148.7910 C   0  0  0  0  0  0  0  0  0  0  0  0
  161.4320  205.4740  148.4320 C   0  0  0  0  0  0  0  0  0  0  0  0
  161.7710  207.0560  146.1060 O   0  0  0  0  0  0  0  0  0  0  0  0
  161.1990  202.4640  148.6660 C   0  0  0  0  0  3  0  0  0  0  0  0
  161.2720  206.9380  150.8640 C   0  0  0  0  0  0  0  0  0  0  0  0
  161.4070  205.1430  144.8800 O   0  0  0  0  0  0  0  0  0  0  0  0
  160.8330  203.4980  152.1930 C   0  0  0  0  0  3  0  0  0  0  0  0
  161.1650  200.2890  147.6920 F   0  0  0  0  0  0  0  0  0  0  0  0
  161.6020  207.5530  149.7650 N   0  0  0  0  0  0  0  0  0  0  0  0
  161.1660  205.4650  150.8970 C   0  0  0  0  0  0  0  0  0  0  0  0
  160.9600  207.6830  152.0490 N   0  0  0  0  0  2  0  0  0  0  0  0
  161.2210  204.9250  147.2280 C   0  0  0  0  0  3  0  0  0  0  0  0
  160.8690  200.5030  150.0450 C   0  0  0  0  0  3  0  0  0  0  0  0
  161.9920  206.8850  148.5250 C   0  0  2  0  0  3  0  0  0  0  0  0
  161.5720  207.7520  147.3350 C   0  0  0  0  0  2  0  0  0  0  0  0
  160.9620  204.8430  152.0910 N   0  0  0  0  0  0  0  0  0  0  0  0
  160.9050  202.7020  151.0570 C   0  0  0  0  0  0  0  0  0  0  0  0
  160.7840  201.3150  151.1780 C   0  0  0  0  0  3  0  0  0  0  0  0
  159.7310  210.6440  155.9740 N   0  0  0  0  0  0  0  0  0  0  0  0
  161.3220  209.3940  154.5820 C   0  0  0  0  0  3  0  0  0  0  0  0
  158.8670  211.1390  152.4790 F   0  0  0  0  0  0  0  0  0  0  0  0
  159.1910  211.0410  157.2600 C   0  0  0  0  0  1  0  0  0  0  0  0
  161.0500  210.0150  155.9250 C   0  0  0  0  0  2  0  0  0  0  0  0
  159.5100  210.6920  153.5860 C   0  0  0  0  0  0  0  0  0  0  0  0
  160.6390  209.7340  153.4800 C   0  0  0  0  0  0  0  0  0  0  0  0
  159.0800  211.0950  154.7810 C   0  0  0  0  0  3  0  0  0  0  0  0
  1  8  1  0  0  0  0
  1 17  1  0  0  0  0
  2  3  2  0  0  0  0
  2 15  1  0  0  0  0
  3 22  1  0  0  0  0
  4  5  2  0  0  0  0
  5 30  1  0  0  0  0
  6 18  1  0  0  0  0
  7 19  1  0  0  0  0
  7  2  1  0  0  0  0
  8 20  1  0  0  0  0
  9  6  2  0  0  0  0
  9  3  1  0  0  0  0
 10 15  1  0  0  0  0
 10 16  1  0  0  0  0
 11  1  2  0  0  0  0
 13  6  1  0  0  0  0
 14 10  2  0  0  0  0
 15 21  2  0  0  0  0
 16  5  1  0  0  0  0
 17  7  2  0  0  0  0
 18 23  2  0  0  0  0
 19 20  1  6  0  0  0
 19 14  1  0  0  0  0
 21 12  1  0  0  0  0
 22 23  1  0  0  0  0
 22 12  2  0  0  0  0
 24 27  1  0  0  0  0
 25 28  1  0  0  0  0
 26 29  1  0  0  0  0
 28 24  1  0  0  0  0
 29 31  2  0  0  0  0
 30 29  1  0  0  0  0
 30 25  2  0  0  0  0
 31 24  1  0  0  0  0
M  END
>  <MODEL>
1

>  <REMARK>
 VINA RESULT:      -9.4      0.000      0.000
  Name = 
  1 active torsions:
  status: ('A' for Active; 'I' for Inactive)
    1  A    between atoms: C_5  and  C_30
                            x       y       z     vdW  Elec       q    Type
                         _______ _______ _______ _____ _____    ______ ____

>  <TORSDO>
F 1

$$$$
=
 OpenBabel11122413213D

 31 35  0  0  1  0  0  0  0  0999 V2000
  161.4570  205.6740  145.9100 C   0  0  0  0  0  0  0  0  0  0  0  0
  161.2310  204.5600  149.5700 C   0  0  0  0  0  0  0  0  0  0  0  0
  161.1220  203.1420  149.6100 C   0  0  0  0  0  0  0  0  0  0  0  0
  161.2830  209.6260  151.2570 O   0  0  0  0  0  0  0  0  0  0  0  0
  160.9470  208.8660  152.2050 C   0  0  0  0  0  0  0  0  0  0  0  0
  161.1190  200.9530  148.5340 C   0  0  0  0  0  0  0  0  0  0  0  0
  161.4260  205.3640  148.3270 C   0  0  0  0  0  0  0  0  0  0  0  0
  161.7540  207.0280  146.0580 O   0  0  0  0  0  0  0  0  0  0  0  0
  161.2250  202.3450  148.4580 C   0  0  0  0  0  3  0  0  0  0  0  0
  161.2450  206.7420  150.8080 C   0  0  0  0  0  0  0  0  0  0  0  0
  161.4140  205.1550  144.7650 O   0  0  0  0  0  0  0  0  0  0  0  0
  160.8390  203.2530  152.0170 C   0  0  0  0  0  3  0  0  0  0  0  0
  161.2170  200.2050  147.4090 F   0  0  0  0  0  0  0  0  0  0  0  0
  161.5710  207.3980  149.7310 N   0  0  0  0  0  0  0  0  0  0  0  0
  161.1540  205.2680  150.7900 C   0  0  0  0  0  0  0  0  0  0  0  0
  160.9210  207.4420  152.0160 N   0  0  0  0  0  2  0  0  0  0  0  0
  161.2240  204.8540  147.1050 C   0  0  0  0  0  3  0  0  0  0  0  0
  160.9130  200.3340  149.7670 C   0  0  0  0  0  3  0  0  0  0  0  0
  161.9710  206.7760  148.4700 C   0  0  2  0  0  3  0  0  0  0  0  0
  161.5450  207.6790  147.3090 C   0  0  0  0  0  2  0  0  0  0  0  0
  160.9530  204.6030  151.9610 N   0  0  0  0  0  0  0  0  0  0  0  0
  160.9230  202.4980  150.8540 C   0  0  0  0  0  0  0  0  0  0  0  0
  160.8160  201.1060  150.9270 C   0  0  0  0  0  3  0  0  0  0  0  0
  160.1740  210.7030  155.9890 N   0  0  0  0  0  0  0  0  0  0  0  0
  159.8780  210.5840  153.5540 C   0  0  0  0  0  3  0  0  0  0  0  0
  161.6060  207.5850  154.7880 F   0  0  0  0  0  0  0  0  0  0  0  0
  160.0630  211.3910  157.2610 C   0  0  0  0  0  1  0  0  0  0  0  0
  159.4190  211.2080  154.8440 C   0  0  0  0  0  2  0  0  0  0  0  0
  160.9940  208.7950  154.7870 C   0  0  0  0  0  0  0  0  0  0  0  0
  160.5750  209.4390  153.5160 C   0  0  0  0  0  0  0  0  0  0  0  0
  160.8150  209.4220  155.9490 C   0  0  0  0  0  3  0  0  0  0  0  0
  1  8  1  0  0  0  0
  1 17  1  0  0  0  0
  2  3  2  0  0  0  0
  2 15  1  0  0  0  0
  3 22  1  0  0  0  0
  4  5  2  0  0  0  0
  5 30  1  0  0  0  0
  6 18  1  0  0  0  0
  7 19  1  0  0  0  0
  7  2  1  0  0  0  0
  8 20  1  0  0  0  0
  9  6  2  0  0  0  0
  9  3  1  0  0  0  0
 10 16  1  0  0  0  0
 11  1  2  0  0  0  0
 13  6  1  0  0  0  0
 14 10  2  0  0  0  0
 15 10  1  0  0  0  0
 15 21  2  0  0  0  0
 16  5  1  0  0  0  0
 17  7  2  0  0  0  0
 18 23  2  0  0  0  0
 19 20  1  6  0  0  0
 19 14  1  0  0  0  0
 21 12  1  0  0  0  0
 22 23  1  0  0  0  0
 22 12  2  0  0  0  0
 24 27  1  0  0  0  0
 25 28  1  0  0  0  0
 28 24  1  0  0  0  0
 29 26  1  0  0  0  0
 29 31  2  0  0  0  0
 30 25  2  0  0  0  0
 30 29  1  0  0  0  0
 31 24  1  0  0  0  0
M  END
>  <MODEL>
2

>  <REMARK>
 VINA RESULT:      -9.4      0.968      1.296
  Name = 
  1 active torsions:
  status: ('A' for Active; 'I' for Inactive)
    1  A    between atoms: C_5  and  C_30
                            x       y       z     vdW  Elec       q    Type
                         _______ _______ _______ _____ _____    ______ ____

>  <TORSDO>
F 1

$$$$
=
 OpenBabel11122413213D

 31 35  0  0  1  0  0  0  0  0999 V2000
  161.2440  201.1780  149.5400 C   0  0  0  0  0  0  0  0  0  0  0  0
  161.0780  204.9690  148.9990 C   0  0  0  0  0  0  0  0  0  0  0  0
  161.1830  205.2360  147.6070 C   0  0  0  0  0  0  0  0  0  0  0  0
  160.8370  205.8440  154.2610 O   0  0  0  0  0  0  0  0  0  0  0  0
  161.0700  206.9280  153.6610 C   0  0  0  0  0  0  0  0  0  0  0  0
  161.3050  204.5140  145.2800 C   0  0  0  0  0  0  0  0  0  0  0  0
  161.0160  203.6030  149.6020 C   0  0  0  0  0  0  0  0  0  0  0  0
  160.9310  201.0840  150.8950 O   0  0  0  0  0  0  0  0  0  0  0  0
  161.2060  204.2150  146.6420 C   0  0  0  0  0  3  0  0  0  0  0  0
  160.9270  205.8490  151.3440 C   0  0  0  0  0  0  0  0  0  0  0  0
  161.4110  200.1370  148.8540 O   0  0  0  0  0  0  0  0  0  0  0  0
  161.2060  207.6140  148.0880 C   0  0  0  0  0  3  0  0  0  0  0  0
  161.3300  203.5130  144.3670 F   0  0  0  0  0  0  0  0  0  0  0  0
  160.7180  204.6560  151.8220 N   0  0  0  0  0  0  0  0  0  0  0  0
  161.0220  206.0660  149.8860 C   0  0  0  0  0  0  0  0  0  0  0  0
  161.1180  206.9630  152.2250 N   0  0  0  0  0  2  0  0  0  0  0  0
  161.3490  202.5020  148.9160 C   0  0  0  0  0  3  0  0  0  0  0  0
  161.3790  205.8430  144.8600 C   0  0  0  0  0  3  0  0  0  0  0  0
  160.4560  203.4700  151.0090 C   0  0  2  0  0  3  0  0  0  0  0  0
  161.0030  202.2360  151.7330 C   0  0  0  0  0  2  0  0  0  0  0  0
  161.0960  207.3400  149.4110 N   0  0  0  0  0  0  0  0  0  0  0  0
  161.2490  206.5780  147.1630 C   0  0  0  0  0  0  0  0  0  0  0  0
  161.3490  206.8740  145.8000 C   0  0  0  0  0  3  0  0  0  0  0  0
  161.3850  210.5170  155.9650 N   0  0  0  0  0  0  0  0  0  0  0  0
  161.5810  208.0790  155.7410 C   0  0  0  0  0  3  0  0  0  0  0  0
  160.9980  209.6310  152.4610 F   0  0  0  0  0  0  0  0  0  0  0  0
  161.3280  211.7300  156.7580 C   0  0  0  0  0  1  0  0  0  0  0  0
  161.8740  209.2880  156.5880 C   0  0  0  0  0  2  0  0  0  0  0  0
  161.1780  209.5050  153.8000 C   0  0  0  0  0  0  0  0  0  0  0  0
  161.2980  208.1680  154.4330 C   0  0  0  0  0  0  0  0  0  0  0  0
  161.1990  210.6080  154.5480 C   0  0  0  0  0  3  0  0  0  0  0  0
  1  8  1  0  0  0  0
  2  7  1  0  0  0  0
  2 15  1  0  0  0  0
  3  2  2  0  0  0  0
  5  4  2  0  0  0  0
  5 30  1  0  0  0  0
  6  9  2  0  0  0  0
  7 19  1  0  0  0  0
  8 20  1  0  0  0  0
  9  3  1  0  0  0  0
 10 14  2  0  0  0  0
 10 16  1  0  0  0  0
 11  1  2  0  0  0  0
 12 21  1  0  0  0  0
 13  6  1  0  0  0  0
 15 10  1  0  0  0  0
 16  5  1  0  0  0  0
 17  1  1  0  0  0  0
 17  7  2  0  0  0  0
 18  6  1  0  0  0  0
 18 23  2  0  0  0  0
 19 20  1  1  0  0  0
 19 14  1  0  0  0  0
 21 15  2  0  0  0  0
 22  3  1  0  0  0  0
 22 12  2  0  0  0  0
 23 22  1  0  0  0  0
 24 28  1  0  0  0  0
 24 27  1  0  0  0  0
 25 28  1  0  0  0  0
 26 29  1  0  0  0  0
 29 30  1  0  0  0  0
 29 31  2  0  0  0  0
 30 25  2  0  0  0  0
 31 24  1  0  0  0  0
M  END
>  <MODEL>
3

>  <REMARK>
 VINA RESULT:      -8.6      2.446      4.229
  Name = 
  1 active torsions:
  status: ('A' for Active; 'I' for Inactive)
    1  A    between atoms: C_5  and  C_30
                            x       y       z     vdW  Elec       q    Type
                         _______ _______ _______ _____ _____    ______ ____

>  <TORSDO>
F 1

$$$$
=
 OpenBabel11122413213D

 31 35  0  0  1  0  0  0  0  0999 V2000
  161.2120  207.4440  154.6860 C   0  0  0  0  0  0  0  0  0  0  0  0
  161.1160  206.8760  150.8970 C   0  0  0  0  0  0  0  0  0  0  0  0
  161.0850  205.4770  150.6460 C   0  0  0  0  0  0  0  0  0  0  0  0
  161.4540  212.1230  149.9650 O   0  0  0  0  0  0  0  0  0  0  0  0
  161.6590  211.4880  148.8960 C   0  0  0  0  0  0  0  0  0  0  0  0
  160.9400  203.1590  151.3920 C   0  0  0  0  0  0  0  0  0  0  0  0
  161.0720  207.4990  152.2540 C   0  0  0  0  0  0  0  0  0  0  0  0
  161.0390  208.8260  154.7560 O   0  0  0  0  0  0  0  0  0  0  0  0
  160.9730  204.5280  151.6760 C   0  0  0  0  0  3  0  0  0  0  0  0
  161.2400  209.2120  149.9910 C   0  0  0  0  0  0  0  0  0  0  0  0
  161.2720  206.7580  155.7380 O   0  0  0  0  0  0  0  0  0  0  0  0
  161.2360  205.9230  148.2660 C   0  0  0  0  0  3  0  0  0  0  0  0
  160.8370  202.2620  152.4020 F   0  0  0  0  0  0  0  0  0  0  0  0
  161.0420  209.7250  151.1710 N   0  0  0  0  0  0  0  0  0  0  0  0
  161.1890  207.7500  149.7900 C   0  0  0  0  0  0  0  0  0  0  0  0
  161.5580  210.0550  148.8750 N   0  0  0  0  0  2  0  0  0  0  0  0
  161.2950  206.7960  153.3720 C   0  0  0  0  0  3  0  0  0  0  0  0
  161.0130  202.7170  150.0710 C   0  0  0  0  0  3  0  0  0  0  0  0
  160.6580  208.9580  152.3550 C   0  0  2  0  0  3  0  0  0  0  0  0
  161.2360  209.6370  153.6000 C   0  0  0  0  0  2  0  0  0  0  0  0
  161.2560  207.2530  148.5240 N   0  0  0  0  0  0  0  0  0  0  0  0
  161.1480  205.0110  149.3110 C   0  0  0  0  0  0  0  0  0  0  0  0
  161.1160  203.6420  149.0310 C   0  0  0  0  0  3  0  0  0  0  0  0
  162.7030  213.2850  145.1580 N   0  0  0  0  0  0  0  0  0  0  0  0
  161.0310  212.5480  146.7990 C   0  0  0  0  0  3  0  0  0  0  0  0
  164.4130  212.3270  148.2190 F   0  0  0  0  0  0  0  0  0  0  0  0
  163.0850  213.7410  143.8360 C   0  0  0  0  0  1  0  0  0  0  0  0
  161.2930  213.3320  145.5420 C   0  0  0  0  0  2  0  0  0  0  0  0
  163.4150  212.5510  147.3280 C   0  0  0  0  0  0  0  0  0  0  0  0
  162.0060  212.2170  147.6570 C   0  0  0  0  0  0  0  0  0  0  0  0
  163.7280  213.0360  146.1270 C   0  0  0  0  0  3  0  0  0  0  0  0
  1  8  1  0  0  0  0
  1 11  2  0  0  0  0
  2  7  1  0  0  0  0
  3  2  1  0  0  0  0
  3  9  1  0  0  0  0
  5  4  2  0  0  0  0
  6  9  2  0  0  0  0
  6 13  1  0  0  0  0
  7 19  1  0  0  0  0
  7 17  2  0  0  0  0
 10 14  2  0  0  0  0
 12 21  2  0  0  0  0
 12 22  1  0  0  0  0
 14 19  1  0  0  0  0
 15 10  1  0  0  0  0
 15  2  2  0  0  0  0
 16  5  1  0  0  0  0
 16 10  1  0  0  0  0
 17  1  1  0  0  0  0
 18  6  1  0  0  0  0
 19 20  1  1  0  0  0
 20  8  1  0  0  0  0
 21 15  1  0  0  0  0
 22  3  2  0  0  0  0
 23 22  1  0  0  0  0
 23 18  2  0  0  0  0
 24 28  1  0  0  0  0
 24 31  1  0  0  0  0
 25 30  2  0  0  0  0
 27 24  1  0  0  0  0
 28 25  1  0  0  0  0
 29 30  1  0  0  0  0
 29 26  1  0  0  0  0
 30  5  1  0  0  0  0
 31 29  2  0  0  0  0
M  END
>  <MODEL>
4

>  <REMARK>
 VINA RESULT:      -8.4      3.701      6.627
  Name = 
  1 active torsions:
  status: ('A' for Active; 'I' for Inactive)
    1  A    between atoms: C_5  and  C_30
                            x       y       z     vdW  Elec       q    Type
                         _______ _______ _______ _____ _____    ______ ____

>  <TORSDO>
F 1

$$$$
=
 OpenBabel11122413213D

 31 35  0  0  1  0  0  0  0  0999 V2000
  161.4920  203.8730  152.0760 C   0  0  0  0  0  0  0  0  0  0  0  0
  161.1290  205.0890  148.4590 C   0  0  0  0  0  0  0  0  0  0  0  0
  161.0630  203.9560  147.6020 C   0  0  0  0  0  0  0  0  0  0  0  0
  161.4700  210.1910  149.9980 O   0  0  0  0  0  0  0  0  0  0  0  0
  161.5930  210.1160  148.7460 C   0  0  0  0  0  0  0  0  0  0  0  0
  160.9400  201.5510  147.2190 C   0  0  0  0  0  0  0  0  0  0  0  0
  161.1860  205.0250  149.9510 C   0  0  0  0  0  0  0  0  0  0  0  0
  161.3420  205.0680  152.7790 O   0  0  0  0  0  0  0  0  0  0  0  0
  161.0100  202.6410  148.0920 C   0  0  0  0  0  3  0  0  0  0  0  0
  161.2210  207.5830  148.7100 C   0  0  0  0  0  0  0  0  0  0  0  0
  161.6150  202.7840  152.6930 O   0  0  0  0  0  0  0  0  0  0  0  0
  161.0570  205.4390  145.6810 C   0  0  0  0  0  3  0  0  0  0  0  0
  160.8940  200.2900  147.7140 F   0  0  0  0  0  0  0  0  0  0  0  0
  161.1110  207.4990  150.0040 N   0  0  0  0  0  0  0  0  0  0  0  0
  161.1370  206.3720  147.8690 C   0  0  0  0  0  0  0  0  0  0  0  0
  161.4730  208.8470  148.0820 N   0  0  0  0  0  2  0  0  0  0  0  0
  161.4770  203.8950  150.6090 C   0  0  0  0  0  3  0  0  0  0  0  0
  160.9170  201.7590  145.8400 C   0  0  0  0  0  3  0  0  0  0  0  0
  160.7990  206.2710  150.7320 C   0  0  2  0  0  3  0  0  0  0  0  0
  161.4700  206.3190  152.1080 C   0  0  0  0  0  2  0  0  0  0  0  0
  161.1110  206.5070  146.5150 N   0  0  0  0  0  0  0  0  0  0  0  0
  161.0290  204.1510  146.2000 C   0  0  0  0  0  0  0  0  0  0  0  0
  160.9600  203.0590  145.3310 C   0  0  0  0  0  3  0  0  0  0  0  0
  162.5260  213.4350  146.2150 N   0  0  0  0  0  0  0  0  0  0  0  0
  160.9500  211.7560  147.0690 C   0  0  0  0  0  3  0  0  0  0  0  0
  164.0460  211.7410  149.0490 F   0  0  0  0  0  0  0  0  0  0  0  0
  162.9190  214.4530  145.2610 C   0  0  0  0  0  1  0  0  0  0  0  0
  161.1270  213.0130  146.2610 C   0  0  0  0  0  2  0  0  0  0  0  0
  163.1450  212.0750  148.0920 C   0  0  0  0  0  0  0  0  0  0  0  0
  161.8650  211.3350  147.9550 C   0  0  0  0  0  0  0  0  0  0  0  0
  163.4490  213.0550  147.2420 C   0  0  0  0  0  3  0  0  0  0  0  0
  1 11  2  0  0  0  0
  1  8  1  0  0  0  0
  2  7  1  0  0  0  0
  3  9  1  0  0  0  0
  3  2  2  0  0  0  0
  5  4  2  0  0  0  0
  6 13  1  0  0  0  0
  6  9  2  0  0  0  0
  7 17  2  0  0  0  0
  7 19  1  0  0  0  0
 10 14  2  0  0  0  0
 12 22  2  0  0  0  0
 12 21  1  0  0  0  0
 14 19  1  0  0  0  0
 15  2  1  0  0  0  0
 15 10  1  0  0  0  0
 16 10  1  0  0  0  0
 16  5  1  0  0  0  0
 17  1  1  0  0  0  0
 18  6  1  0  0  0  0
 19 20  1  1  0  0  0
 20  8  1  0  0  0  0
 21 15  2  0  0  0  0
 22  3  1  0  0  0  0
 23 18  2  0  0  0  0
 23 22  1  0  0  0  0
 24 28  1  0  0  0  0
 24 31  1  0  0  0  0
 25 30  2  0  0  0  0
 27 24  1  0  0  0  0
 28 25  1  0  0  0  0
 29 26  1  0  0  0  0
 30 29  1  0  0  0  0
 30  5  1  0  0  0  0
 31 29  2  0  0  0  0
M  END
>  <MODEL>
5

>  <REMARK>
 VINA RESULT:      -8.0      3.552      5.863
  Name = 
  1 active torsions:
  status: ('A' for Active; 'I' for Inactive)
    1  A    between atoms: C_5  and  C_30
                            x       y       z     vdW  Elec       q    Type
                         _______ _______ _______ _____ _____    ______ ____

>  <TORSDO>
F 1

$$$$
=
 OpenBabel11122413213D

 31 35  0  0  1  0  0  0  0  0999 V2000
  162.2750  210.2890  149.7150 C   0  0  0  0  0  0  0  0  0  0  0  0
  161.2190  206.9400  151.2490 C   0  0  0  0  0  0  0  0  0  0  0  0
  161.1780  207.0780  152.6630 C   0  0  0  0  0  0  0  0  0  0  0  0
  161.1000  204.6210  146.4400 O   0  0  0  0  0  0  0  0  0  0  0  0
  161.0450  203.7390  147.3380 C   0  0  0  0  0  0  0  0  0  0  0  0
  161.3220  208.4130  154.7000 C   0  0  0  0  0  0  0  0  0  0  0  0
  161.5050  208.0510  150.2920 C   0  0  0  0  0  0  0  0  0  0  0  0
  162.0720  210.0410  148.3580 O   0  0  0  0  0  0  0  0  0  0  0  0
  161.3750  208.3120  153.3070 C   0  0  0  0  0  3  0  0  0  0  0  0
  161.0130  205.4580  149.2350 C   0  0  0  0  0  0  0  0  0  0  0  0
  162.6330  211.4310  150.1050 O   0  0  0  0  0  0  0  0  0  0  0  0
  160.6890  204.7100  152.8590 C   0  0  0  0  0  3  0  0  0  0  0  0
  161.5200  209.6110  155.2990 F   0  0  0  0  0  0  0  0  0  0  0  0
  161.1090  206.4730  148.4260 N   0  0  0  0  0  0  0  0  0  0  0  0
  160.9680  205.6640  150.6970 C   0  0  0  0  0  0  0  0  0  0  0  0
  160.9980  204.1190  148.7230 N   0  0  0  0  0  2  0  0  0  0  0  0
  162.0390  209.2150  150.6850 C   0  0  0  0  0  3  0  0  0  0  0  0
  161.0670  207.2800  155.4740 C   0  0  0  0  0  3  0  0  0  0  0  0
  161.0750  207.8730  148.8450 C   0  0  2  0  0  3  0  0  0  0  0  0
  161.9310  208.7040  147.8840 C   0  0  0  0  0  2  0  0  0  0  0  0
  160.7230  204.5990  151.5080 N   0  0  0  0  0  0  0  0  0  0  0  0
  160.9110  205.9420  153.4630 C   0  0  0  0  0  0  0  0  0  0  0  0
  160.8600  206.0450  154.8560 C   0  0  0  0  0  3  0  0  0  0  0  0
  161.3230  199.6450  146.1310 N   0  0  0  0  0  0  0  0  0  0  0  0
  161.5170  201.4050  147.8330 C   0  0  0  0  0  3  0  0  0  0  0  0
  159.9330  202.7250  144.7910 F   0  0  0  0  0  0  0  0  0  0  0  0
  161.5590  198.2980  145.6490 C   0  0  0  0  0  1  0  0  0  0  0  0
  161.4950  199.9270  147.5560 C   0  0  0  0  0  2  0  0  0  0  0  0
  160.5280  201.8570  145.6460 C   0  0  0  0  0  0  0  0  0  0  0  0
  161.0310  202.3070  146.9690 C   0  0  0  0  0  0  0  0  0  0  0  0
  160.6970  200.5930  145.2580 C   0  0  0  0  0  3  0  0  0  0  0  0
  1 11  2  0  0  0  0
  1 17  1  0  0  0  0
  2  3  1  0  0  0  0
  3  9  2  0  0  0  0
  3 22  1  0  0  0  0
  4  5  2  0  0  0  0
  5 16  1  0  0  0  0
  6 13  1  0  0  0  0
  6 18  2  0  0  0  0
  7 17  2  0  0  0  0
  7  2  1  0  0  0  0
  8  1  1  0  0  0  0
  9  6  1  0  0  0  0
 10 15  1  0  0  0  0
 12 22  1  0  0  0  0
 14 19  1  0  0  0  0
 14 10  2  0  0  0  0
 15  2  2  0  0  0  0
 15 21  1  0  0  0  0
 16 10  1  0  0  0  0
 19 20  1  6  0  0  0
 19  7  1  0  0  0  0
 20  8  1  0  0  0  0
 21 12  2  0  0  0  0
 22 23  2  0  0  0  0
 23 18  1  0  0  0  0
 24 28  1  0  0  0  0
 26 29  1  0  0  0  0
 27 24  1  0  0  0  0
 28 25  1  0  0  0  0
 29 30  1  0  0  0  0
 30  5  1  0  0  0  0
 30 25  2  0  0  0  0
 31 29  2  0  0  0  0
 31 24  1  0  0  0  0
M  END
>  <MODEL>
6

>  <REMARK>
 VINA RESULT:      -7.3      2.712      8.280
  Name = 
  1 active torsions:
  status: ('A' for Active; 'I' for Inactive)
    1  A    between atoms: C_5  and  C_30
                            x       y       z     vdW  Elec       q    Type
                         _______ _______ _______ _____ _____    ______ ____

>  <TORSDO>
F 1

$$$$
=
 OpenBabel11122413213D

 31 35  0  0  1  0  0  0  0  0999 V2000
  160.1960  210.5780  154.5670 C   0  0  0  0  0  0  0  0  0  0  0  0
  161.2240  209.6140  151.0040 C   0  0  0  0  0  0  0  0  0  0  0  0
  161.3360  210.7980  150.2250 C   0  0  0  0  0  0  0  0  0  0  0  0
  161.0490  204.4160  152.2150 O   0  0  0  0  0  0  0  0  0  0  0  0
  161.1210  204.5580  150.9650 C   0  0  0  0  0  0  0  0  0  0  0  0
  161.3270  213.2250  149.9850 C   0  0  0  0  0  0  0  0  0  0  0  0
  160.9260  209.5820  152.4670 C   0  0  0  0  0  0  0  0  0  0  0  0
  160.3270  209.3560  155.2270 O   0  0  0  0  0  0  0  0  0  0  0  0
  161.2060  212.0820  150.7800 C   0  0  0  0  0  3  0  0  0  0  0  0
  161.2920  207.1090  151.1140 C   0  0  0  0  0  0  0  0  0  0  0  0
  159.8900  211.6160  155.2090 O   0  0  0  0  0  0  0  0  0  0  0  0
  161.7650  209.4390  148.2610 C   0  0  0  0  0  3  0  0  0  0  0  0
  161.1930  214.4530  150.5420 F   0  0  0  0  0  0  0  0  0  0  0  0
  161.1880  207.1210  152.4120 N   0  0  0  0  0  0  0  0  0  0  0  0
  161.4120  208.3720  150.3580 C   0  0  0  0  0  0  0  0  0  0  0  0
  161.2450  205.8700  150.3920 N   0  0  0  0  0  2  0  0  0  0  0  0
  160.4460  210.6470  153.1230 C   0  0  0  0  0  3  0  0  0  0  0  0
  161.5850  213.1030  148.6200 C   0  0  0  0  0  3  0  0  0  0  0  0
  161.2820  208.3220  153.2400 C   0  0  2  0  0  3  0  0  0  0  0  0
  160.4070  208.1420  154.4830 C   0  0  0  0  0  2  0  0  0  0  0  0
  161.6640  208.3220  149.0210 N   0  0  0  0  0  0  0  0  0  0  0  0
  161.6080  210.6930  148.8400 C   0  0  0  0  0  0  0  0  0  0  0  0
  161.7270  211.8380  148.0470 C   0  0  0  0  0  3  0  0  0  0  0  0
  161.3430  201.1390  148.4050 N   0  0  0  0  0  0  0  0  0  0  0  0
  161.0940  202.1500  150.6300 C   0  0  0  0  0  3  0  0  0  0  0  0
  160.9310  204.7300  148.0180 F   0  0  0  0  0  0  0  0  0  0  0  0
  161.5800  200.0050  147.5330 C   0  0  0  0  0  1  0  0  0  0  0  0
  161.0020  200.8940  149.8060 C   0  0  0  0  0  2  0  0  0  0  0  0
  161.0560  203.5130  148.6040 C   0  0  0  0  0  0  0  0  0  0  0  0
  161.0770  203.3730  150.0820 C   0  0  0  0  0  0  0  0  0  0  0  0
  161.2060  202.4420  147.8250 C   0  0  0  0  0  3  0  0  0  0  0  0
  1 11  2  0  0  0  0
  1  8  1  0  0  0  0
  2  7  1  0  0  0  0
  3  9  1  0  0  0  0
  3  2  2  0  0  0  0
  5  4  2  0  0  0  0
  6 13  1  0  0  0  0
  6  9  2  0  0  0  0
  7 17  2  0  0  0  0
  7 19  1  0  0  0  0
 10 14  2  0  0  0  0
 12 22  2  0  0  0  0
 12 21  1  0  0  0  0
 14 19  1  0  0  0  0
 15  2  1  0  0  0  0
 15 10  1  0  0  0  0
 16  5  1  0  0  0  0
 16 10  1  0  0  0  0
 17  1  1  0  0  0  0
 18  6  1  0  0  0  0
 19 20  1  1  0  0  0
 20  8  1  0  0  0  0
 21 15  2  0  0  0  0
 22  3  1  0  0  0  0
 23 18  2  0  0  0  0
 23 22  1  0  0  0  0
 24 28  1  0  0  0  0
 26 29  1  0  0  0  0
 27 24  1  0  0  0  0
 28 25  1  0  0  0  0
 29 30  1  0  0  0  0
 30 25  2  0  0  0  0
 30  5  1  0  0  0  0
 31 24  1  0  0  0  0
 31 29  2  0  0  0  0
M  END
>  <MODEL>
7

>  <REMARK>
 VINA RESULT:      -6.9      2.893      8.875
  Name = 
  1 active torsions:
  status: ('A' for Active; 'I' for Inactive)
    1  A    between atoms: C_5  and  C_30
                            x       y       z     vdW  Elec       q    Type
                         _______ _______ _______ _____ _____    ______ ____

>  <TORSDO>
F 1

$$$$
