=
 OpenBabel11122414103D

 28 32  0  0  1  0  0  0  0  0999 V2000
  160.5270  209.7560  156.2230 C   0  0  0  0  0  0  0  0  0  0  0  0
  155.6910  210.5640  155.0750 F   0  0  0  0  0  0  0  0  0  0  0  0
  161.1770  211.7730  151.8880 O   0  0  0  0  0  0  0  0  0  0  0  0
  161.5710  212.2350  157.0060 C   0  0  0  0  0  3  0  0  0  0  0  0
  159.0980  212.7120  152.6070 C   0  0  0  0  0  0  0  0  0  0  0  0
  160.0210  208.4320  155.7400 C   0  0  0  0  0  2  0  0  0  0  0  0
  155.8900  211.0820  157.2550 F   0  0  0  0  0  0  0  0  0  0  0  0
  156.0390  211.5670  155.9690 C   0  0  0  0  0  0  0  0  0  0  0  0
  155.4050  213.3980  154.4400 C   0  0  1  0  0  3  0  0  0  0  0  0
  157.5010  212.0200  155.7710 C   0  0  2  0  0  3  0  0  0  0  0  0
  162.4090  209.5660  153.6400 C   0  0  0  0  0  1  0  0  0  0  0  0
  158.3750  210.7990  153.8330 C   0  0  1  0  0  3  0  0  0  0  0  0
  156.6760  214.0010  154.4950 O   0  0  0  0  0  0  0  0  0  0  0  0
  155.0880  212.7370  155.7730 C   0  0  0  0  0  2  0  0  0  0  0  0
  161.2520  208.5960  153.4590 C   0  0  2  0  0  3  0  0  0  0  0  0
  159.7750  210.9280  156.0070 C   0  0  0  0  0  0  0  0  0  0  0  0
  160.1010  211.6880  152.5380 C   0  0  0  0  0  0  0  0  0  0  0  0
  154.3620  214.4530  154.1420 C   0  0  0  0  0  1  0  0  0  0  0  0
  160.0250  209.1900  152.7560 C   0  0  0  0  0  2  0  0  0  0  0  0
  160.3220  212.1670  156.3860 C   0  0  0  0  0  3  0  0  0  0  0  0
  161.7690  209.8300  156.8660 C   0  0  0  0  0  3  0  0  0  0  0  0
  162.2900  211.0650  157.2570 C   0  0  0  0  0  3  0  0  0  0  0  0
  160.9560  207.7740  154.7200 C   0  0  0  0  0  2  0  0  0  0  0  0
  157.9160  212.1960  153.3470 C   0  0  1  0  0  3  0  0  0  0  0  0
  159.6870  210.5260  153.2370 N   0  0  0  0  0  0  0  0  0  0  0  0
  157.6780  213.0060  154.6110 C   0  0  2  0  0  3  0  0  0  0  0  0
  159.1850  213.8510  152.0770 O   0  0  0  0  0  0  0  0  0  0  0  0
  158.3950  210.8440  155.3780 C   0  0  1  0  0  3  0  0  0  0  0  0
  1 21  1  0  0  0  0
  2  8  1  0  0  0  0
  3 17  2  0  0  0  0
  4 22  1  0  0  0  0
  6  1  1  0  0  0  0
  8  7  1  0  0  0  0
  9 18  1  1  0  0  0
  9 13  1  0  0  0  0
  9 14  1  0  0  0  0
 10  8  1  6  0  0  0
 12 25  1  6  0  0  0
 12 28  1  0  0  0  0
 14  8  1  0  0  0  0
 15 11  1  1  0  0  0
 15 23  1  0  0  0  0
 16  1  2  0  0  0  0
 16 20  1  0  0  0  0
 17  5  1  0  0  0  0
 17 25  1  0  0  0  0
 19 25  1  0  0  0  0
 19 15  1  0  0  0  0
 20  4  2  0  0  0  0
 21 22  2  0  0  0  0
 23  6  1  0  0  0  0
 24  5  1  6  0  0  0
 24 12  1  0  0  0  0
 24 26  1  0  0  0  0
 26 13  1  6  0  0  0
 26 10  1  0  0  0  0
 27  5  2  0  0  0  0
 28 10  1  0  0  0  0
 28 16  1  6  0  0  0
M  END
>  <MODEL>
1

>  <REMARK>
 VINA RESULT:      -3.4      0.000      0.000
  Name = 
  0 active torsions:
  status: ('A' for Active; 'I' for Inactive)
                            x       y       z     vdW  Elec       q    Type
                         _______ _______ _______ _____ _____    ______ ____

>  <TORSDO>
F 0

$$$$
=
 OpenBabel11122414103D

 28 32  0  0  1  0  0  0  0  0999 V2000
  160.8510  209.1420  156.2470 C   0  0  0  0  0  0  0  0  0  0  0  0
  157.3010  211.4750  153.5420 F   0  0  0  0  0  0  0  0  0  0  0  0
  162.5570  208.1240  151.8490 O   0  0  0  0  0  0  0  0  0  0  0  0
  163.0940  210.8200  156.2100 C   0  0  0  0  0  3  0  0  0  0  0  0
  161.3500  210.1580  151.4960 C   0  0  0  0  0  0  0  0  0  0  0  0
  159.6960  208.1880  156.2260 C   0  0  0  0  0  2  0  0  0  0  0  0
  157.7350  212.8400  155.2770 F   0  0  0  0  0  0  0  0  0  0  0  0
  158.1410  212.4770  154.0060 C   0  0  0  0  0  0  0  0  0  0  0  0
  158.6520  213.3400  151.7510 C   0  0  1  0  0  3  0  0  0  0  0  0
  159.6090  212.0030  154.0660 C   0  0  2  0  0  3  0  0  0  0  0  0
  162.3300  206.8130  154.6230 C   0  0  0  0  0  1  0  0  0  0  0  0
  159.6700  209.7360  153.1350 C   0  0  1  0  0  3  0  0  0  0  0  0
  160.0430  213.1920  151.9140 O   0  0  0  0  0  0  0  0  0  0  0  0
  158.0070  213.6800  153.0860 C   0  0  0  0  0  2  0  0  0  0  0  0
  160.8310  206.5790  154.5340 C   0  0  2  0  0  3  0  0  0  0  0  0
  160.8830  210.2410  155.3660 C   0  0  0  0  0  0  0  0  0  0  0  0
  161.6110  208.9020  152.1420 C   0  0  0  0  0  0  0  0  0  0  0  0
  158.3790  214.4530  150.7630 C   0  0  0  0  0  1  0  0  0  0  0  0
  160.1510  207.2450  153.3320 C   0  0  0  0  0  2  0  0  0  0  0  0
  162.0260  211.0610  155.3440 C   0  0  0  0  0  3  0  0  0  0  0  0
  161.9170  208.9190  157.1290 C   0  0  0  0  0  3  0  0  0  0  0  0
  163.0340  209.7560  157.1110 C   0  0  0  0  0  3  0  0  0  0  0  0
  160.1140  206.7560  155.8780 C   0  0  0  0  0  2  0  0  0  0  0  0
  160.0750  210.7220  152.0120 C   0  0  1  0  0  3  0  0  0  0  0  0
  160.6120  208.6110  153.1050 N   0  0  0  0  0  0  0  0  0  0  0  0
  160.3180  212.0510  152.7080 C   0  0  2  0  0  3  0  0  0  0  0  0
  162.0620  210.6730  150.5950 O   0  0  0  0  0  0  0  0  0  0  0  0
  159.6970  210.5300  154.4620 C   0  0  1  0  0  3  0  0  0  0  0  0
  1 21  1  0  0  0  0
  2  8  1  0  0  0  0
  3 17  2  0  0  0  0
  4 22  1  0  0  0  0
  5 17  1  0  0  0  0
  6  1  1  0  0  0  0
  8  7  1  0  0  0  0
  9 18  1  6  0  0  0
  9 13  1  0  0  0  0
  9 14  1  0  0  0  0
 10  8  1  6  0  0  0
 10 28  1  0  0  0  0
 12 25  1  1  0  0  0
 12 28  1  0  0  0  0
 14  8  1  0  0  0  0
 15 11  1  1  0  0  0
 15 23  1  0  0  0  0
 16  1  2  0  0  0  0
 17 25  1  0  0  0  0
 19 15  1  0  0  0  0
 20 16  1  0  0  0  0
 20  4  2  0  0  0  0
 22 21  2  0  0  0  0
 23  6  1  0  0  0  0
 24  5  1  1  0  0  0
 24 26  1  0  0  0  0
 24 12  1  0  0  0  0
 25 19  1  0  0  0  0
 26 13  1  6  0  0  0
 26 10  1  0  0  0  0
 27  5  2  0  0  0  0
 28 16  1  6  0  0  0
M  END
>  <MODEL>
2

>  <REMARK>
 VINA RESULT:      -2.8      2.096      2.929
  Name = 
  0 active torsions:
  status: ('A' for Active; 'I' for Inactive)
                            x       y       z     vdW  Elec       q    Type
                         _______ _______ _______ _____ _____    ______ ____

>  <TORSDO>
F 0

$$$$
=
 OpenBabel11122414103D

 28 32  0  0  1  0  0  0  0  0999 V2000
  157.4960  211.5010  156.3140 C   0  0  0  0  0  0  0  0  0  0  0  0
  161.9760  209.6690  154.9240 F   0  0  0  0  0  0  0  0  0  0  0  0
  158.1590  214.2170  152.3820 O   0  0  0  0  0  0  0  0  0  0  0  0
  155.6070  210.3310  154.6080 C   0  0  0  0  0  3  0  0  0  0  0  0
  159.4350  212.2540  151.8950 C   0  0  0  0  0  0  0  0  0  0  0  0
  158.4850  212.1990  157.1950 C   0  0  0  0  0  2  0  0  0  0  0  0
  160.7760  207.8890  155.5970 F   0  0  0  0  0  0  0  0  0  0  0  0
  161.0420  208.7230  154.5270 C   0  0  0  0  0  0  0  0  0  0  0  0
  161.7340  208.7730  152.1580 C   0  0  1  0  0  3  0  0  0  0  0  0
  159.7240  209.3850  154.0700 C   0  0  2  0  0  3  0  0  0  0  0  0
  156.9540  214.4530  155.2020 C   0  0  0  0  0  1  0  0  0  0  0  0
  160.0740  211.8100  154.1490 C   0  0  1  0  0  3  0  0  0  0  0  0
  160.4400  209.0850  151.6960 O   0  0  0  0  0  0  0  0  0  0  0  0
  161.6430  207.8990  153.3990 C   0  0  0  0  0  2  0  0  0  0  0  0
  158.2950  214.4520  155.9170 C   0  0  2  0  0  3  0  0  0  0  0  0
  157.9300  210.7870  155.1800 C   0  0  0  0  0  0  0  0  0  0  0  0
  158.8570  213.2410  152.7630 C   0  0  0  0  0  0  0  0  0  0  0  0
  162.4870  208.0320  151.0750 C   0  0  0  0  0  1  0  0  0  0  0  0
  159.4960  214.1300  155.0200 C   0  0  0  0  0  2  0  0  0  0  0  0
  156.9690  210.2240  154.3210 C   0  0  0  0  0  3  0  0  0  0  0  0
  156.1280  211.5850  156.6080 C   0  0  0  0  0  3  0  0  0  0  0  0
  155.1870  211.0020  155.7570 C   0  0  0  0  0  3  0  0  0  0  0  0
  158.2580  213.7130  157.2610 C   0  0  0  0  0  2  0  0  0  0  0  0
  160.3020  211.3450  152.6900 C   0  0  1  0  0  3  0  0  0  0  0  0
  159.2420  213.0180  154.1100 N   0  0  0  0  0  0  0  0  0  0  0  0
  159.7810  209.9180  152.6340 C   0  0  2  0  0  3  0  0  0  0  0  0
  159.2730  212.1990  150.6480 O   0  0  0  0  0  0  0  0  0  0  0  0
  159.4150  210.6300  154.9000 C   0  0  1  0  0  3  0  0  0  0  0  0
  1 21  1  0  0  0  0
  1  6  1  0  0  0  0
  3 17  2  0  0  0  0
  4 22  1  0  0  0  0
  5 17  1  0  0  0  0
  6 23  1  0  0  0  0
  8  2  1  0  0  0  0
  8  7  1  0  0  0  0
  9 18  1  6  0  0  0
  9 14  1  0  0  0  0
 10  8  1  1  0  0  0
 10 28  1  0  0  0  0
 12 25  1  6  0  0  0
 12 28  1  0  0  0  0
 13  9  1  0  0  0  0
 14  8  1  0  0  0  0
 15 11  1  6  0  0  0
 15 23  1  0  0  0  0
 16  1  2  0  0  0  0
 17 25  1  0  0  0  0
 19 15  1  0  0  0  0
 20  4  2  0  0  0  0
 20 16  1  0  0  0  0
 22 21  2  0  0  0  0
 24  5  1  6  0  0  0
 24 12  1  0  0  0  0
 25 19  1  0  0  0  0
 26 13  1  6  0  0  0
 26 24  1  0  0  0  0
 26 10  1  0  0  0  0
 27  5  2  0  0  0  0
 28 16  1  6  0  0  0
M  END
>  <MODEL>
3

>  <REMARK>
 VINA RESULT:      -2.4      2.411      5.547
  Name = 
  0 active torsions:
  status: ('A' for Active; 'I' for Inactive)
                            x       y       z     vdW  Elec       q    Type
                         _______ _______ _______ _____ _____    ______ ____

>  <TORSDO>
F 0

$$$$
=
 OpenBabel11122414103D

 28 32  0  0  1  0  0  0  0  0999 V2000
  161.7010  210.0030  154.3840 C   0  0  0  0  0  0  0  0  0  0  0  0
  160.5770  214.1720  151.7930 F   0  0  0  0  0  0  0  0  0  0  0  0
  157.5370  211.0730  156.5760 O   0  0  0  0  0  0  0  0  0  0  0  0
  160.0810  207.9700  153.3400 C   0  0  0  0  0  3  0  0  0  0  0  0
  157.2660  212.0490  154.4090 C   0  0  0  0  0  0  0  0  0  0  0  0
  162.5280  211.0800  155.0150 C   0  0  0  0  0  2  0  0  0  0  0  0
  161.3970  212.7210  150.2810 F   0  0  0  0  0  0  0  0  0  0  0  0
  160.2560  213.1110  150.9580 C   0  0  0  0  0  0  0  0  0  0  0  0
  157.9060  213.8120  150.6740 C   0  0  1  0  0  3  0  0  0  0  0  0
  159.7130  211.9060  151.7570 C   0  0  2  0  0  3  0  0  0  0  0  0
  160.2980  209.9040  157.2610 C   0  0  0  0  0  1  0  0  0  0  0  0
  159.5640  212.6070  154.1000 C   0  0  1  0  0  3  0  0  0  0  0  0
  157.3930  212.5800  151.1240 O   0  0  0  0  0  0  0  0  0  0  0  0
  159.2250  213.5890  149.9480 C   0  0  0  0  0  2  0  0  0  0  0  0
  161.0350  211.2270  157.1340 C   0  0  2  0  0  3  0  0  0  0  0  0
  160.6490  210.3330  153.5070 C   0  0  0  0  0  0  0  0  0  0  0  0
  158.0240  211.6190  155.5500 C   0  0  0  0  0  0  0  0  0  0  0  0
  156.9140  214.4530  149.7280 C   0  0  0  0  0  1  0  0  0  0  0  0
  160.1960  212.3720  156.5540 C   0  0  0  0  0  2  0  0  0  0  0  0
  159.8310  209.3030  153.0080 C   0  0  0  0  0  3  0  0  0  0  0  0
  161.9590  208.6610  154.6950 C   0  0  0  0  0  3  0  0  0  0  0  0
  161.1520  207.6480  154.1740 C   0  0  0  0  0  3  0  0  0  0  0  0
  162.4430  211.0770  156.5440 C   0  0  0  0  0  2  0  0  0  0  0  0
  158.1610  212.7710  153.4660 C   0  0  1  0  0  3  0  0  0  0  0  0
  159.3920  211.9610  155.4070 N   0  0  0  0  0  0  0  0  0  0  0  0
  158.2330  212.0460  152.1320 C   0  0  2  0  0  3  0  0  0  0  0  0
  156.0270  211.8860  154.2570 O   0  0  0  0  0  0  0  0  0  0  0  0
  160.4130  211.7790  153.1090 C   0  0  1  0  0  3  0  0  0  0  0  0
  1 21  1  0  0  0  0
  1  6  1  0  0  0  0
  4 22  1  0  0  0  0
  5 17  1  0  0  0  0
  6 23  1  0  0  0  0
  7  8  1  0  0  0  0
  8  2  1  0  0  0  0
  9 18  1  6  0  0  0
  9 13  1  0  0  0  0
 10  8  1  1  0  0  0
 10 26  1  0  0  0  0
 10 28  1  0  0  0  0
 12 25  1  1  0  0  0
 14  9  1  0  0  0  0
 14  8  1  0  0  0  0
 15 11  1  6  0  0  0
 16  1  2  0  0  0  0
 17  3  2  0  0  0  0
 19 15  1  0  0  0  0
 20  4  2  0  0  0  0
 20 16  1  0  0  0  0
 22 21  2  0  0  0  0
 23 15  1  0  0  0  0
 24 12  1  0  0  0  0
 24  5  1  1  0  0  0
 25 17  1  0  0  0  0
 25 19  1  0  0  0  0
 26 13  1  6  0  0  0
 26 24  1  0  0  0  0
 27  5  2  0  0  0  0
 28 16  1  1  0  0  0
 28 12  1  0  0  0  0
M  END
>  <MODEL>
4

>  <REMARK>
 VINA RESULT:      -1.2      2.645      4.628
  Name = 
  0 active torsions:
  status: ('A' for Active; 'I' for Inactive)
                            x       y       z     vdW  Elec       q    Type
                         _______ _______ _______ _____ _____    ______ ____

>  <TORSDO>
F 0

$$$$
=
 OpenBabel11122414103D

 28 32  0  0  1  0  0  0  0  0999 V2000
  160.9960  210.2950  156.1600 C   0  0  0  0  0  0  0  0  0  0  0  0
  158.7480  211.6170  151.8530 F   0  0  0  0  0  0  0  0  0  0  0  0
  162.2320  206.4430  153.5290 O   0  0  0  0  0  0  0  0  0  0  0  0
  163.7270  210.8170  155.8110 C   0  0  0  0  0  3  0  0  0  0  0  0
  161.9580  208.1520  151.8780 C   0  0  0  0  0  0  0  0  0  0  0  0
  159.5550  209.9360  156.3540 C   0  0  0  0  0  2  0  0  0  0  0  0
  159.6620  213.5060  152.6630 F   0  0  0  0  0  0  0  0  0  0  0  0
  159.9120  212.3690  151.9160 C   0  0  0  0  0  0  0  0  0  0  0  0
  160.7730  211.5500  149.7530 C   0  0  1  0  0  3  0  0  0  0  0  0
  161.0610  211.5790  152.5780 C   0  0  2  0  0  3  0  0  0  0  0  0
  161.4390  207.1350  156.4190 C   0  0  0  0  0  1  0  0  0  0  0  0
  160.2190  209.3200  153.0180 C   0  0  1  0  0  3  0  0  0  0  0  0
  161.9820  211.0890  150.3100 O   0  0  0  0  0  0  0  0  0  0  0  0
  160.2950  212.7830  150.5040 C   0  0  0  0  0  2  0  0  0  0  0  0
  159.9760  207.3860  156.0960 C   0  0  2  0  0  3  0  0  0  0  0  0
  161.4880  210.6010  154.8750 C   0  0  0  0  0  0  0  0  0  0  0  0
  161.6760  207.4990  153.1250 C   0  0  0  0  0  0  0  0  0  0  0  0
  160.9940  211.9020  148.2980 C   0  0  0  0  0  1  0  0  0  0  0  0
  159.6470  207.4090  154.5980 C   0  0  0  0  0  2  0  0  0  0  0  0
  162.8650  210.8380  154.7130 C   0  0  0  0  0  3  0  0  0  0  0  0
  161.8630  210.2970  157.2610 C   0  0  0  0  0  3  0  0  0  0  0  0
  163.2240  210.5570  157.0870 C   0  0  0  0  0  3  0  0  0  0  0  0
  159.3650  208.5260  156.9220 C   0  0  0  0  0  2  0  0  0  0  0  0
  161.0100  209.2810  151.6870 C   0  0  1  0  0  3  0  0  0  0  0  0
  160.6260  208.1570  153.8150 N   0  0  0  0  0  0  0  0  0  0  0  0
  161.7560  210.6040  151.6210 C   0  0  2  0  0  3  0  0  0  0  0  0
  162.8360  207.7910  151.0510 O   0  0  0  0  0  0  0  0  0  0  0  0
  160.5380  210.6740  153.6920 C   0  0  1  0  0  3  0  0  0  0  0  0
  1  6  1  0  0  0  0
  1 21  1  0  0  0  0
  2  8  1  0  0  0  0
  4 22  1  0  0  0  0
  5 17  1  0  0  0  0
  6 23  1  0  0  0  0
  8  7  1  0  0  0  0
  9 18  1  6  0  0  0
  9 13  1  0  0  0  0
  9 14  1  0  0  0  0
 10  8  1  6  0  0  0
 10 28  1  0  0  0  0
 12 28  1  0  0  0  0
 12 25  1  1  0  0  0
 14  8  1  0  0  0  0
 15 11  1  6  0  0  0
 15 23  1  0  0  0  0
 16  1  2  0  0  0  0
 17  3  2  0  0  0  0
 17 25  1  0  0  0  0
 19 15  1  0  0  0  0
 20 16  1  0  0  0  0
 20  4  2  0  0  0  0
 22 21  2  0  0  0  0
 24  5  1  1  0  0  0
 24 12  1  0  0  0  0
 25 19  1  0  0  0  0
 26 13  1  6  0  0  0
 26 24  1  0  0  0  0
 26 10  1  0  0  0  0
 27  5  2  0  0  0  0
 28 16  1  1  0  0  0
M  END
>  <MODEL>
5

>  <REMARK>
 VINA RESULT:      -1.1      3.321      4.776
  Name = 
  0 active torsions:
  status: ('A' for Active; 'I' for Inactive)
                            x       y       z     vdW  Elec       q    Type
                         _______ _______ _______ _____ _____    ______ ____

>  <TORSDO>
F 0

$$$$
