=
 OpenBabel11122412443D

 30 35  0  0  1  0  0  0  0  0999 V2000
  160.7180  205.5680  149.7210 C   0  0  0  0  0  0  0  0  0  0  0  0
  160.7800  203.1140  149.6120 C   0  0  0  0  0  0  0  0  0  0  0  0
  161.3290  205.4730  153.8960 N   0  0  0  0  0  0  0  0  0  0  0  0
  160.6870  206.8920  150.4750 C   0  0  2  0  0  3  0  0  0  0  0  0
  160.7020  205.7420  148.2400 C   0  0  0  0  0  2  0  0  0  0  0  0
  163.2650  208.3720  148.3040 O   0  0  0  0  0  0  0  0  0  0  0  0
  160.6010  209.6090  151.5430 C   0  0  1  0  0  3  0  0  0  0  0  0
  162.3020  207.6330  148.6500 C   0  0  0  0  0  0  0  0  0  0  0  0
  161.0010  208.9630  152.7800 N   0  0  0  0  0  0  0  0  0  0  0  0
  161.3350  206.7480  154.1370 C   0  0  0  0  0  0  0  0  0  0  0  0
  162.0060  206.4070  147.8190 C   0  0  2  0  0  3  0  0  0  0  0  0
  161.5560  207.9210  149.8620 N   0  0  0  0  0  0  0  0  0  0  0  0
  160.9000  201.8900  150.2750 C   0  0  0  0  0  3  0  0  0  0  0  0
  161.1020  209.8820  153.8930 C   0  0  0  0  0  2  0  0  0  0  0  0
  160.5720  211.1000  151.8480 C   0  0  0  0  0  2  0  0  0  0  0  0
  160.5940  203.0730  148.2350 O   0  0  0  0  0  1  0  0  0  0  0  0
  161.1230  205.3710  152.4890 C   0  0  0  0  0  0  0  0  0  0  0  0
  161.0760  201.8370  151.6530 C   0  0  0  0  0  3  0  0  0  0  0  0
  160.8310  204.3410  150.3380 C   0  0  0  0  0  0  0  0  0  0  0  0
  161.0250  206.6750  151.9130 C   0  0  0  0  0  0  0  0  0  0  0  0
  161.5190  207.2970  155.5080 C   0  0  0  0  0  1  0  0  0  0  0  0
  161.1280  207.5380  152.9080 C   0  0  0  0  0  0  0  0  0  0  0  0
  160.6370  211.2260  153.3640 C   0  0  0  0  0  2  0  0  0  0  0  0
  162.3550  210.1330  149.9940 O   0  0  0  0  0  0  0  0  0  0  0  0
  161.1380  203.0140  152.3900 C   0  0  0  0  0  3  0  0  0  0  0  0
  161.0230  204.2580  151.7580 C   0  0  0  0  0  0  0  0  0  0  0  0
  161.5510  209.2580  150.4220 C   0  0  0  0  0  0  0  0  0  0  0  0
  161.9470  206.7610  146.3390 C   0  0  0  0  0  2  0  0  0  0  0  0
  163.3360  204.8390  146.0430 O   0  0  0  0  0  1  0  0  0  0  0  0
  162.2840  205.5570  145.4730 C   0  0  0  0  0  2  0  0  0  0  0  0
  1 19  2  0  0  0  0
  2 13  2  0  0  0  0
  2 19  1  0  0  0  0
  3 10  2  0  0  0  0
  4  1  1  6  0  0  0
  4 20  1  0  0  0  0
  5  1  1  0  0  0  0
  6  8  2  0  0  0  0
  7 15  1  1  0  0  0
  7  9  1  0  0  0  0
  8 12  1  0  0  0  0
  9 22  1  0  0  0  0
  9 14  1  0  0  0  0
 10 21  1  0  0  0  0
 11 28  1  6  0  0  0
 11  5  1  0  0  0  0
 11  8  1  0  0  0  0
 12 27  1  0  0  0  0
 12  4  1  0  0  0  0
 13 18  1  0  0  0  0
 15 23  1  0  0  0  0
 16  2  1  0  0  0  0
 17  3  1  0  0  0  0
 18 25  2  0  0  0  0
 19 26  1  0  0  0  0
 20 17  1  0  0  0  0
 20 22  2  0  0  0  0
 22 10  1  0  0  0  0
 23 14  1  0  0  0  0
 24 27  2  0  0  0  0
 26 25  1  0  0  0  0
 26 17  2  0  0  0  0
 27  7  1  0  0  0  0
 30 29  1  0  0  0  0
 30 28  1  0  0  0  0
M  END
>  <MODEL>
1

>  <REMARK>
 VINA RESULT:      -8.8      0.000      0.000
  Name = 
  2 active torsions:
  status: ('A' for Active; 'I' for Inactive)
    1  A    between atoms: C_11  and  C_28
    2  A    between atoms: C_28  and  C_30
                            x       y       z     vdW  Elec       q    Type
                         _______ _______ _______ _____ _____    ______ ____

>  <TORSDO>
F 2

$$$$
=
 OpenBabel11122412443D

 30 35  0  0  1  0  0  0  0  0999 V2000
  160.9090  207.9950  151.0620 C   0  0  0  0  0  0  0  0  0  0  0  0
  161.4020  210.3890  150.8120 C   0  0  0  0  0  0  0  0  0  0  0  0
  162.4170  207.2060  147.1990 N   0  0  0  0  0  0  0  0  0  0  0  0
  160.7950  206.5700  150.5300 C   0  0  2  0  0  3  0  0  0  0  0  0
  160.5400  208.1090  152.5020 C   0  0  0  0  0  2  0  0  0  0  0  0
  162.5190  205.1690  153.4650 O   0  0  0  0  0  0  0  0  0  0  0  0
  160.4370  203.7420  149.8950 C   0  0  1  0  0  3  0  0  0  0  0  0
  161.8090  205.9610  152.7870 C   0  0  0  0  0  0  0  0  0  0  0  0
  161.2090  204.0770  148.7120 N   0  0  0  0  0  0  0  0  0  0  0  0
  162.2360  205.9200  147.1620 C   0  0  0  0  0  0  0  0  0  0  0  0
  161.5740  207.3520  153.3250 C   0  0  2  0  0  3  0  0  0  0  0  0
  161.3030  205.5600  151.4860 N   0  0  0  0  0  0  0  0  0  0  0  0
  161.8890  211.4330  150.0230 C   0  0  0  0  0  3  0  0  0  0  0  0
  161.3760  202.9580  147.8090 C   0  0  0  0  0  2  0  0  0  0  0  0
  160.1980  202.2410  149.8200 C   0  0  0  0  0  2  0  0  0  0  0  0
  160.9320  210.7170  152.0800 O   0  0  0  0  0  1  0  0  0  0  0  0
  161.9330  207.6010  148.4810 C   0  0  0  0  0  0  0  0  0  0  0  0
  162.3650  211.1980  148.7390 C   0  0  0  0  0  3  0  0  0  0  0  0
  161.3790  209.0520  150.3150 C   0  0  0  0  0  0  0  0  0  0  0  0
  161.4710  206.4590  149.2040 C   0  0  0  0  0  0  0  0  0  0  0  0
  162.6070  205.1010  145.9760 C   0  0  0  0  0  1  0  0  0  0  0  0
  161.6250  205.4170  148.4060 C   0  0  0  0  0  0  0  0  0  0  0  0
  160.5640  201.8210  148.4030 C   0  0  0  0  0  2  0  0  0  0  0  0
  161.6850  203.2710  151.8880 O   0  0  0  0  0  0  0  0  0  0  0  0
  162.3660  209.9060  148.2260 C   0  0  0  0  0  3  0  0  0  0  0  0
  161.8860  208.8350  148.9890 C   0  0  0  0  0  0  0  0  0  0  0  0
  161.1700  204.1570  151.1490 C   0  0  0  0  0  0  0  0  0  0  0  0
  161.1310  207.2980  154.7820 C   0  0  0  0  0  2  0  0  0  0  0  0
  162.0700  208.4820  156.6320 O   0  0  0  0  0  1  0  0  0  0  0  0
  161.3250  208.6440  155.4650 C   0  0  0  0  0  2  0  0  0  0  0  0
  1  5  1  0  0  0  0
  2 16  1  0  0  0  0
  3 17  1  0  0  0  0
  4 20  1  6  0  0  0
  4  1  1  0  0  0  0
  4 12  1  0  0  0  0
  5 11  1  0  0  0  0
  7 15  1  1  0  0  0
  7 27  1  0  0  0  0
  8 11  1  0  0  0  0
  8  6  2  0  0  0  0
  9  7  1  0  0  0  0
 10  3  2  0  0  0  0
 10 22  1  0  0  0  0
 11 28  1  1  0  0  0
 12  8  1  0  0  0  0
 13  2  2  0  0  0  0
 14 23  1  0  0  0  0
 14  9  1  0  0  0  0
 17 26  2  0  0  0  0
 17 20  1  0  0  0  0
 18 13  1  0  0  0  0
 19  2  1  0  0  0  0
 19  1  2  0  0  0  0
 21 10  1  0  0  0  0
 22  9  1  0  0  0  0
 22 20  2  0  0  0  0
 23 15  1  0  0  0  0
 25 18  2  0  0  0  0
 25 26  1  0  0  0  0
 26 19  1  0  0  0  0
 27 12  1  0  0  0  0
 27 24  2  0  0  0  0
 28 30  1  0  0  0  0
 30 29  1  0  0  0  0
M  END
>  <MODEL>
2

>  <REMARK>
 VINA RESULT:      -7.6      2.408      7.214
  Name = 
  2 active torsions:
  status: ('A' for Active; 'I' for Inactive)
    1  A    between atoms: C_11  and  C_28
    2  A    between atoms: C_28  and  C_30
                            x       y       z     vdW  Elec       q    Type
                         _______ _______ _______ _____ _____    ______ ____

>  <TORSDO>
F 2

$$$$
=
 OpenBabel11122412443D

 30 35  0  0  1  0  0  0  0  0999 V2000
  161.7130  210.3380  150.9260 C   0  0  0  0  0  0  0  0  0  0  0  0
  161.4950  212.0050  149.1340 C   0  0  0  0  0  0  0  0  0  0  0  0
  159.1170  212.5570  153.4070 N   0  0  0  0  0  0  0  0  0  0  0  0
  161.4850  209.8370  152.3480 C   0  0  2  0  0  3  0  0  0  0  0  0
  162.4720  209.3710  150.0830 C   0  0  0  0  0  2  0  0  0  0  0  0
  160.4560  206.5030  151.1770 O   0  0  0  0  0  0  0  0  0  0  0  0
  161.2750  208.5420  154.9570 C   0  0  1  0  0  3  0  0  0  0  0  0
  161.0530  207.6140  151.1810 C   0  0  0  0  0  0  0  0  0  0  0  0
  160.2610  209.5540  155.1970 N   0  0  0  0  0  0  0  0  0  0  0  0
  159.1060  211.7810  154.4480 C   0  0  0  0  0  0  0  0  0  0  0  0
  161.6100  208.1320  149.8770 C   0  0  2  0  0  3  0  0  0  0  0  0
  161.1270  208.4020  152.3990 N   0  0  0  0  0  0  0  0  0  0  0  0
  160.9560  213.2120  148.6820 C   0  0  0  0  0  3  0  0  0  0  0  0
  159.7070  209.4950  156.5330 C   0  0  0  0  0  2  0  0  0  0  0  0
  161.2820  207.6630  156.1990 C   0  0  0  0  0  2  0  0  0  0  0  0
  162.3320  211.3180  148.2610 O   0  0  0  0  0  1  0  0  0  0  0  0
  159.9800  211.9040  152.4780 C   0  0  0  0  0  0  0  0  0  0  0  0
  160.1200  213.9700  149.4940 C   0  0  0  0  0  3  0  0  0  0  0  0
  161.2020  211.5240  150.4440 C   0  0  0  0  0  0  0  0  0  0  0  0
  160.4650  210.6820  153.0360 C   0  0  0  0  0  0  0  0  0  0  0  0
  158.3200  212.1030  155.6700 C   0  0  0  0  0  1  0  0  0  0  0  0
  159.9610  210.5940  154.2540 C   0  0  0  0  0  0  0  0  0  0  0  0
  160.4900  208.4170  157.2600 C   0  0  0  0  0  2  0  0  0  0  0  0
  160.5670  206.5780  153.7790 O   0  0  0  0  0  0  0  0  0  0  0  0
  159.8070  213.5260  150.7740 C   0  0  0  0  0  3  0  0  0  0  0  0
  160.3280  212.3220  151.2580 C   0  0  0  0  0  0  0  0  0  0  0  0
  160.9740  207.7700  153.6940 C   0  0  0  0  0  0  0  0  0  0  0  0
  162.4220  207.0530  149.1710 C   0  0  0  0  0  2  0  0  0  0  0  0
  160.6000  206.2090  147.8780 O   0  0  0  0  0  1  0  0  0  0  0  0
  161.8720  206.7730  147.7810 C   0  0  0  0  0  2  0  0  0  0  0  0
  2 19  1  0  0  0  0
  3 10  2  0  0  0  0
  4  1  1  6  0  0  0
  4 12  1  0  0  0  0
  4 20  1  0  0  0  0
  5  1  1  0  0  0  0
  6  8  2  0  0  0  0
  7  9  1  0  0  0  0
  7 15  1  1  0  0  0
  8 12  1  0  0  0  0
  9 14  1  0  0  0  0
 10 21  1  0  0  0  0
 11 28  1  1  0  0  0
 11  5  1  0  0  0  0
 11  8  1  0  0  0  0
 12 27  1  0  0  0  0
 13  2  2  0  0  0  0
 13 18  1  0  0  0  0
 14 23  1  0  0  0  0
 15 23  1  0  0  0  0
 16  2  1  0  0  0  0
 17 20  1  0  0  0  0
 17  3  1  0  0  0  0
 18 25  2  0  0  0  0
 19  1  2  0  0  0  0
 19 26  1  0  0  0  0
 20 22  2  0  0  0  0
 22 10  1  0  0  0  0
 22  9  1  0  0  0  0
 25 26  1  0  0  0  0
 26 17  2  0  0  0  0
 27 24  2  0  0  0  0
 27  7  1  0  0  0  0
 30 29  1  0  0  0  0
 30 28  1  0  0  0  0
M  END
>  <MODEL>
3

>  <REMARK>
 VINA RESULT:      -6.4      2.696      6.095
  Name = 
  2 active torsions:
  status: ('A' for Active; 'I' for Inactive)
    1  A    between atoms: C_11  and  C_28
    2  A    between atoms: C_28  and  C_30
                            x       y       z     vdW  Elec       q    Type
                         _______ _______ _______ _____ _____    ______ ____

>  <TORSDO>
F 2

$$$$
=
 OpenBabel11122412443D

 30 35  0  0  1  0  0  0  0  0999 V2000
  160.2430  211.0380  153.8040 C   0  0  0  0  0  0  0  0  0  0  0  0
  160.0280  209.3060  155.5330 C   0  0  0  0  0  0  0  0  0  0  0  0
  161.6940  208.2010  151.0360 N   0  0  0  0  0  0  0  0  0  0  0  0
  160.6890  211.5410  152.4360 C   0  0  0  0  0  0  0  0  0  0  0  0
  159.5580  212.0860  154.6140 C   0  0  0  0  0  2  0  0  0  0  0  0
  157.4560  213.1870  151.8110 O   0  0  0  0  0  0  0  0  0  0  0  0
  161.3940  212.8780  149.9370 C   0  0  1  0  0  3  0  0  0  0  0  0
  158.4340  212.7260  152.4620 C   0  0  0  0  0  0  0  0  0  0  0  0
  161.6040  211.5240  149.4600 N   0  0  0  0  0  0  0  0  0  0  0  0
  161.8600  208.9760  150.0080 C   0  0  0  0  0  0  0  0  0  0  0  0
  158.2430  212.4390  153.9320 C   0  0  2  0  0  3  0  0  0  0  0  0
  159.6790  212.4080  151.7870 N   0  0  0  0  0  0  0  0  0  0  0  0
  160.1840  207.9710  155.9150 C   0  0  0  0  0  3  0  0  0  0  0  0
  162.0880  211.4710  148.0960 C   0  0  0  0  0  2  0  0  0  0  0  0
  161.6310  213.7800  148.7340 C   0  0  0  0  0  2  0  0  0  0  0  0
  159.5320  210.1850  156.4900 O   0  0  0  0  0  1  0  0  0  0  0  0
  161.1980  209.0600  152.0610 C   0  0  2  0  0  3  0  0  0  0  0  0
  160.6850  207.0270  155.0260 C   0  0  0  0  0  3  0  0  0  0  0  0
  160.3830  209.7320  154.2190 C   0  0  0  0  0  0  0  0  0  0  0  0
  161.0680  210.3920  151.5620 C   0  0  0  0  0  0  0  0  0  0  0  0
  162.3770  208.4690  148.7080 C   0  0  0  0  0  1  0  0  0  0  0  0
  161.4900  210.3720  150.3100 C   0  0  0  0  0  0  0  0  0  0  0  0
  162.3040  212.9140  147.6770 C   0  0  0  0  0  2  0  0  0  0  0  0
  159.1400  213.6920  149.8880 O   0  0  0  0  0  0  0  0  0  0  0  0
  161.0340  207.4060  153.7350 C   0  0  0  0  0  3  0  0  0  0  0  0
  160.8890  208.7350  153.3180 C   0  0  0  0  0  0  0  0  0  0  0  0
  160.0110  213.0330  150.5220 C   0  0  0  0  0  0  0  0  0  0  0  0
  157.6040  213.6300  154.6350 C   0  0  0  0  0  2  0  0  0  0  0  0
  155.8340  212.0280  154.7290 O   0  0  0  0  0  1  0  0  0  0  0  0
  156.2590  213.2550  155.2380 C   0  0  0  0  0  2  0  0  0  0  0  0
  1 19  1  0  0  0  0
  1  5  1  0  0  0  0
  2 13  1  0  0  0  0
  2 16  1  0  0  0  0
  4  1  2  0  0  0  0
  6  8  2  0  0  0  0
  7 15  1  6  0  0  0
  7 27  1  0  0  0  0
  8 11  1  0  0  0  0
  9  7  1  0  0  0  0
  9 22  1  0  0  0  0
 10 22  1  0  0  0  0
 10  3  2  0  0  0  0
 11  5  1  0  0  0  0
 11 28  1  1  0  0  0
 12  4  1  0  0  0  0
 12  8  1  0  0  0  0
 14  9  1  0  0  0  0
 17  3  1  1  0  0  0
 17 26  1  0  0  0  0
 18 13  2  0  0  0  0
 19  2  2  0  0  0  0
 20 17  1  0  0  0  0
 20  4  1  0  0  0  0
 21 10  1  0  0  0  0
 22 20  2  0  0  0  0
 23 14  1  0  0  0  0
 23 15  1  0  0  0  0
 24 27  2  0  0  0  0
 25 18  1  0  0  0  0
 26 25  2  0  0  0  0
 26 19  1  0  0  0  0
 27 12  1  0  0  0  0
 28 30  1  0  0  0  0
 29 30  1  0  0  0  0
M  END
>  <MODEL>
4

>  <REMARK>
 VINA RESULT:      -6.4      4.333      7.273
  Name = 
  2 active torsions:
  status: ('A' for Active; 'I' for Inactive)
    1  A    between atoms: C_11  and  C_28
    2  A    between atoms: C_28  and  C_30
                            x       y       z     vdW  Elec       q    Type
                         _______ _______ _______ _____ _____    ______ ____

>  <TORSDO>
F 2

$$$$
