=
 OpenBabel11122413433D

 37 44  0  0  1  0  0  0  0  0999 V2000
  161.1080  209.1680  154.5380 C   0  0  0  0  0  2  0  0  0  0  0  0
  161.4390  205.9750  151.8840 C   0  0  0  0  0  0  0  0  0  0  0  0
  161.3020  209.6550  150.1180 C   0  0  0  0  0  0  0  0  0  0  0  0
  160.6020  208.9130  155.8890 N   0  0  0  0  0  0  0  0  0  0  0  0
  160.4760  212.5720  152.4760 O   0  0  0  0  0  0  0  0  0  0  0  0
  161.5240  207.1870  149.5740 C   0  0  1  0  0  3  0  0  0  0  0  0
  160.8590  210.4060  151.2140 C   0  0  0  0  0  0  0  0  0  0  0  0
  160.6070  211.4560  156.1140 C   0  0  2  0  0  3  0  0  0  0  0  0
  161.0070  208.3380  150.3820 C   0  0  0  0  0  0  0  0  0  0  0  0
  161.1530  211.9210  151.4150 C   0  0  1  0  0  3  0  0  0  0  0  0
  162.8800  207.5540  148.9790 C   0  0  0  0  0  2  0  0  0  0  0  0
  160.0210  210.0990  156.5440 C   0  0  0  0  0  2  0  0  0  0  0  0
  160.4630  208.2050  151.5950 N   0  0  0  0  0  0  0  0  0  0  0  0
  162.7450  206.4700  152.4830 C   0  0  0  0  0  1  0  0  0  0  0  0
  161.8080  211.1570  148.1970 C   0  0  0  0  0  2  0  0  0  0  0  0
  162.7420  208.8610  148.1890 C   0  0  0  0  0  2  0  0  0  0  0  0
  160.2920  206.9190  152.2630 C   0  0  0  0  0  2  0  0  0  0  0  0
  159.9540  212.0770  154.8640 C   0  0  1  0  0  3  0  0  0  0  0  0
  160.7790  211.8520  153.6160 C   0  0  1  0  0  3  0  0  0  0  0  0
  162.3270  210.0470  149.0810 C   0  0  2  0  0  3  0  0  0  0  0  0
  160.3730  209.4360  152.1400 C   0  0  0  0  0  0  0  0  0  0  0  0
  161.5700  205.8580  150.3550 C   0  0  0  0  0  2  0  0  0  0  0  0
  160.9160  212.7670  150.1570 C   0  0  1  0  0  3  0  0  0  0  0  0
  161.1430  204.6040  152.4510 C   0  0  0  0  0  1  0  0  0  0  0  0
  159.5080  211.0520  153.8170 C   0  0  1  0  0  3  0  0  0  0  0  0
  161.9930  211.4630  156.0800 F   0  0  0  0  0  0  0  0  0  0  0  0
  159.9900  209.6260  153.5980 C   0  0  2  0  0  3  0  0  0  0  0  0
  162.2480  212.7630  148.9110 S   0  0  0  0  0  0  0  0  0  0  0  0
  158.4480  212.9320  150.5200 C   0  0  0  0  0  3  0  0  0  0  0  0
  159.5130  212.8190  149.6200 C   0  0  0  0  0  0  0  0  0  0  0  0
  159.2510  212.7640  148.2440 C   0  0  0  0  0  3  0  0  0  0  0  0
  157.6220  212.7400  146.0550 Cl  0  0  0  0  0  0  0  0  0  0  0  0
  156.8760  212.9260  148.6770 C   0  0  0  0  0  3  0  0  0  0  0  0
  157.9370  212.8150  147.7750 C   0  0  0  0  0  0  0  0  0  0  0  0
  157.1310  212.9840  150.0510 C   0  0  0  0  0  3  0  0  0  0  0  0
  161.4450  207.0880  157.2600 C   0  0  0  0  0  1  0  0  0  0  0  0
  161.7260  208.4700  156.7000 C   0  0  0  0  0  2  0  0  0  0  0  0
  1  4  1  0  0  0  0
  2 17  1  0  0  0  0
  2 24  1  0  0  0  0
  2 14  1  0  0  0  0
  3  9  2  0  0  0  0
  3  7  1  0  0  0  0
  4 12  1  0  0  0  0
  4 37  1  0  0  0  0
  5 19  1  0  0  0  0
  6 11  1  1  0  0  0
  6 22  1  0  0  0  0
  6  9  1  0  0  0  0
  7 21  2  0  0  0  0
  8 26  1  6  0  0  0
  8 12  1  0  0  0  0
  9 13  1  0  0  0  0
 10  7  1  6  0  0  0
 10  5  1  0  0  0  0
 13 21  1  0  0  0  0
 13 17  1  0  0  0  0
 15 28  1  0  0  0  0
 15 20  1  0  0  0  0
 16 11  1  0  0  0  0
 16 20  1  0  0  0  0
 18  8  1  0  0  0  0
 19 25  1  0  0  0  0
 19 18  1  0  0  0  0
 20  3  1  0  0  0  0
 21 27  1  0  0  0  0
 22  2  1  0  0  0  0
 23 10  1  0  0  0  0
 25 18  1  0  0  0  0
 27 25  1  0  0  0  0
 27  1  1  0  0  0  0
 28 23  1  0  0  0  0
 30 23  1  0  0  0  0
 30 29  2  0  0  0  0
 31 30  1  0  0  0  0
 32 34  1  0  0  0  0
 33 35  2  0  0  0  0
 34 31  2  0  0  0  0
 34 33  1  0  0  0  0
 35 29  1  0  0  0  0
 37 36  1  0  0  0  0
M  END
>  <MODEL>
1

>  <REMARK>
 VINA RESULT:      -0.5      0.000      0.000
  Name = 
  2 active torsions:
  status: ('A' for Active; 'I' for Inactive)
    1  A    between atoms: N_4  and  C_37
    2  A    between atoms: C_23  and  C_30
                            x       y       z     vdW  Elec       q    Type
                         _______ _______ _______ _____ _____    ______ ____

>  <TORSDO>
F 2

$$$$
=
 OpenBabel11122413433D

 37 44  0  0  1  0  0  0  0  0999 V2000
  159.9580  211.5680  154.9460 C   0  0  0  0  0  2  0  0  0  0  0  0
  161.2120  208.1380  152.9430 C   0  0  0  0  0  0  0  0  0  0  0  0
  160.7490  211.4280  150.5680 C   0  0  0  0  0  0  0  0  0  0  0  0
  159.2980  211.4240  156.2460 N   0  0  0  0  0  0  0  0  0  0  0  0
  159.1030  214.4530  152.2660 O   0  0  0  0  0  0  0  0  0  0  0  0
  161.4540  208.9910  150.4890 C   0  0  1  0  0  3  0  0  0  0  0  0
  160.0260  212.2360  151.4540 C   0  0  0  0  0  0  0  0  0  0  0  0
  158.8510  213.9290  156.0290 C   0  0  2  0  0  3  0  0  0  0  0  0
  160.6360  210.1320  151.0150 C   0  0  0  0  0  0  0  0  0  0  0  0
  160.0340  213.7920  151.4260 C   0  0  1  0  0  3  0  0  0  0  0  0
  162.8060  209.5130  150.0140 C   0  0  0  0  0  2  0  0  0  0  0  0
  158.4360  212.5650  156.6090 C   0  0  0  0  0  2  0  0  0  0  0  0
  159.9410  210.0800  152.1550 N   0  0  0  0  0  0  0  0  0  0  0  0
  162.3110  208.9500  153.6080 C   0  0  0  0  0  1  0  0  0  0  0  0
  161.2930  212.6980  148.4960 C   0  0  0  0  0  2  0  0  0  0  0  0
  162.5800  210.6420  149.0010 C   0  0  0  0  0  2  0  0  0  0  0  0
  159.8810  208.8970  153.0070 C   0  0  0  0  0  2  0  0  0  0  0  0
  158.3070  214.2260  154.6180 C   0  0  1  0  0  3  0  0  0  0  0  0
  159.3400  213.9780  153.5420 C   0  0  1  0  0  3  0  0  0  0  0  0
  161.8440  211.8470  149.6160 C   0  0  2  0  0  3  0  0  0  0  0  0
  159.5680  211.3380  152.4640 C   0  0  0  0  0  0  0  0  0  0  0  0
  161.5960  207.8240  151.4860 C   0  0  0  0  0  2  0  0  0  0  0  0
  159.8580  214.3850  150.0220 C   0  0  1  0  0  3  0  0  0  0  0  0
  161.0610  206.8340  153.6950 C   0  0  0  0  0  1  0  0  0  0  0  0
  158.2010  212.9940  153.7160 C   0  0  1  0  0  3  0  0  0  0  0  0
  160.2060  214.1890  156.1690 F   0  0  0  0  0  0  0  0  0  0  0  0
  158.9380  211.6660  153.8070 C   0  0  2  0  0  3  0  0  0  0  0  0
  161.3480  214.4450  148.9730 S   0  0  0  0  0  0  0  0  0  0  0  0
  158.6070  213.6630  147.9820 C   0  0  0  0  0  3  0  0  0  0  0  0
  158.5650  214.0950  149.3120 C   0  0  0  0  0  0  0  0  0  0  0  0
  157.3270  214.2420  149.9520 C   0  0  0  0  0  3  0  0  0  0  0  0
  154.6020  214.1570  150.0740 Cl  0  0  0  0  0  0  0  0  0  0  0  0
  156.1880  213.5350  147.9370 C   0  0  0  0  0  3  0  0  0  0  0  0
  156.1420  213.9650  149.2660 C   0  0  0  0  0  0  0  0  0  0  0  0
  157.4210  213.3840  147.2950 C   0  0  0  0  0  3  0  0  0  0  0  0
  161.6220  210.8110  156.6260 C   0  0  0  0  0  1  0  0  0  0  0  0
  160.3400  211.3230  157.2560 C   0  0  0  0  0  2  0  0  0  0  0  0
  1  4  1  0  0  0  0
  2 17  1  0  0  0  0
  2 14  1  0  0  0  0
  2 24  1  0  0  0  0
  3  9  2  0  0  0  0
  3  7  1  0  0  0  0
  4 12  1  0  0  0  0
  4 37  1  0  0  0  0
  5 19  1  0  0  0  0
  6 11  1  1  0  0  0
  6  9  1  0  0  0  0
  6 22  1  0  0  0  0
  7 21  2  0  0  0  0
  8 26  1  6  0  0  0
  8 12  1  0  0  0  0
  9 13  1  0  0  0  0
 10  7  1  6  0  0  0
 10  5  1  0  0  0  0
 13 21  1  0  0  0  0
 13 17  1  0  0  0  0
 15 28  1  0  0  0  0
 15 20  1  0  0  0  0
 16 20  1  0  0  0  0
 16 11  1  0  0  0  0
 18  8  1  0  0  0  0
 19 25  1  0  0  0  0
 19 18  1  0  0  0  0
 20  3  1  0  0  0  0
 21 27  1  0  0  0  0
 22  2  1  0  0  0  0
 23 10  1  0  0  0  0
 25 27  1  0  0  0  0
 25 18  1  0  0  0  0
 27  1  1  0  0  0  0
 28 23  1  0  0  0  0
 29 30  1  0  0  0  0
 30 31  2  0  0  0  0
 30 23  1  0  0  0  0
 33 34  2  0  0  0  0
 34 31  1  0  0  0  0
 34 32  1  0  0  0  0
 35 33  1  0  0  0  0
 35 29  2  0  0  0  0
 36 37  1  0  0  0  0
M  END
>  <MODEL>
2

>  <REMARK>
 VINA RESULT:       0.8      1.952      2.556
  Name = 
  2 active torsions:
  status: ('A' for Active; 'I' for Inactive)
    1  A    between atoms: N_4  and  C_37
    2  A    between atoms: C_23  and  C_30
                            x       y       z     vdW  Elec       q    Type
                         _______ _______ _______ _____ _____    ______ ____

>  <TORSDO>
F 2

$$$$
=
 OpenBabel11122413433D

 37 44  0  0  1  0  0  0  0  0999 V2000
  160.6710  211.0380  149.0410 C   0  0  0  0  0  2  0  0  0  0  0  0
  162.2610  207.2020  148.7120 C   0  0  0  0  0  0  0  0  0  0  0  0
  161.2830  208.3240  152.5150 C   0  0  0  0  0  0  0  0  0  0  0  0
  160.9230  212.0010  147.9660 N   0  0  0  0  0  0  0  0  0  0  0  0
  160.3120  212.0160  152.9340 O   0  0  0  0  0  0  0  0  0  0  0  0
  162.2070  206.3710  151.1850 C   0  0  1  0  0  3  0  0  0  0  0  0
  161.1290  209.7000  152.3040 C   0  0  0  0  0  0  0  0  0  0  0  0
  159.8390  213.6890  149.5460 C   0  0  2  0  0  3  0  0  0  0  0  0
  162.0210  207.8320  151.4630 C   0  0  0  0  0  0  0  0  0  0  0  0
  160.2100  210.6200  153.1580 C   0  0  1  0  0  3  0  0  0  0  0  0
  160.9890  205.6000  151.6830 C   0  0  0  0  0  2  0  0  0  0  0  0
  160.8130  213.4100  148.3860 C   0  0  0  0  0  2  0  0  0  0  0  0
  162.2870  208.7940  150.5760 N   0  0  0  0  0  0  0  0  0  0  0  0
  160.7690  207.3200  148.4480 C   0  0  0  0  0  1  0  0  0  0  0  0
  160.6540  207.7400  154.8530 C   0  0  0  0  0  2  0  0  0  0  0  0
  160.7560  205.9310  153.1620 C   0  0  0  0  0  2  0  0  0  0  0  0
  162.8120  208.5320  149.2400 C   0  0  0  0  0  2  0  0  0  0  0  0
  160.4450  213.5260  150.9540 C   0  0  1  0  0  3  0  0  0  0  0  0
  160.0810  212.2000  151.5830 C   0  0  1  0  0  3  0  0  0  0  0  0
  160.4460  207.4220  153.3900 C   0  0  2  0  0  3  0  0  0  0  0  0
  161.7480  209.9390  151.0410 C   0  0  0  0  0  0  0  0  0  0  0  0
  162.5310  206.0610  149.7100 C   0  0  0  0  0  2  0  0  0  0  0  0
  160.3570  210.4060  154.6700 C   0  0  1  0  0  3  0  0  0  0  0  0
  162.9520  206.8770  147.4070 C   0  0  0  0  0  1  0  0  0  0  0  0
  161.4880  212.4110  151.0610 C   0  0  1  0  0  3  0  0  0  0  0  0
  158.6150  213.0570  149.3900 F   0  0  0  0  0  0  0  0  0  0  0  0
  161.6860  211.1880  150.1780 C   0  0  2  0  0  3  0  0  0  0  0  0
  159.4540  208.9910  155.3820 S   0  0  0  0  0  0  0  0  0  0  0  0
  161.7960  210.8470  156.6660 C   0  0  0  0  0  3  0  0  0  0  0  0
  161.7000  210.7030  155.2780 C   0  0  0  0  0  0  0  0  0  0  0  0
  162.8510  210.8310  154.4880 C   0  0  0  0  0  3  0  0  0  0  0  0
  165.5140  211.2700  154.0840 Cl  0  0  0  0  0  0  0  0  0  0  0  0
  164.1770  211.2520  156.4680 C   0  0  0  0  0  3  0  0  0  0  0  0
  164.0840  211.1070  155.0810 C   0  0  0  0  0  0  0  0  0  0  0  0
  163.0320  211.1230  157.2610 C   0  0  0  0  0  3  0  0  0  0  0  0
  160.3020  212.5340  145.6750 C   0  0  0  0  0  1  0  0  0  0  0  0
  159.9260  211.7720  146.9320 C   0  0  0  0  0  2  0  0  0  0  0  0
  1 27  1  0  0  0  0
  2 17  1  0  0  0  0
  2 22  1  0  0  0  0
  3 20  1  0  0  0  0
  4 12  1  0  0  0  0
  4  1  1  0  0  0  0
  5 10  1  0  0  0  0
  6 22  1  6  0  0  0
  6  9  1  0  0  0  0
  6 11  1  0  0  0  0
  7  3  1  0  0  0  0
  8 26  1  1  0  0  0
  8 18  1  0  0  0  0
  9  3  2  0  0  0  0
 10  7  1  6  0  0  0
 10 23  1  0  0  0  0
 11 16  1  0  0  0  0
 12  8  1  0  0  0  0
 13 21  1  0  0  0  0
 13  9  1  0  0  0  0
 14  2  1  0  0  0  0
 15 28  1  0  0  0  0
 16 20  1  0  0  0  0
 17 13  1  0  0  0  0
 18 25  1  0  0  0  0
 18 19  1  0  0  0  0
 19  5  1  0  0  0  0
 20 15  1  0  0  0  0
 21  7  2  0  0  0  0
 23 30  1  0  0  0  0
 23 28  1  0  0  0  0
 24  2  1  0  0  0  0
 25 19  1  0  0  0  0
 27 21  1  0  0  0  0
 27 25  1  0  0  0  0
 29 35  1  0  0  0  0
 30 29  2  0  0  0  0
 31 34  2  0  0  0  0
 31 30  1  0  0  0  0
 32 34  1  0  0  0  0
 33 35  2  0  0  0  0
 34 33  1  0  0  0  0
 36 37  1  0  0  0  0
 37  4  1  0  0  0  0
M  END
>  <MODEL>
3

>  <REMARK>
 VINA RESULT:       1.0      3.183      6.461
  Name = 
  2 active torsions:
  status: ('A' for Active; 'I' for Inactive)
    1  A    between atoms: N_4  and  C_37
    2  A    between atoms: C_23  and  C_30
                            x       y       z     vdW  Elec       q    Type
                         _______ _______ _______ _____ _____    ______ ____

>  <TORSDO>
F 2

$$$$
=
 OpenBabel11122413433D

 37 44  0  0  1  0  0  0  0  0999 V2000
  160.8580  208.9160  151.7720 C   0  0  0  0  0  2  0  0  0  0  0  0
  159.5230  212.1670  154.0070 C   0  0  0  0  0  0  0  0  0  0  0  0
  159.6600  212.8080  149.9760 C   0  0  0  0  0  0  0  0  0  0  0  0
  161.6420  207.8740  152.4400 N   0  0  0  0  0  0  0  0  0  0  0  0
  161.3680  210.0390  147.9360 O   0  0  0  0  0  0  0  0  0  0  0  0
  159.0250  213.9390  152.1570 C   0  0  1  0  0  3  0  0  0  0  0  0
  160.4400  211.7050  149.6060 C   0  0  0  0  0  0  0  0  0  0  0  0
  161.9910  206.9570  150.0830 C   0  0  2  0  0  3  0  0  0  0  0  0
  159.8540  213.0100  151.3230 C   0  0  0  0  0  0  0  0  0  0  0  0
  160.3830  211.0200  148.2100 C   0  0  1  0  0  3  0  0  0  0  0  0
  157.6190  214.0260  151.5730 C   0  0  0  0  0  2  0  0  0  0  0  0
  162.5000  207.0940  151.5300 C   0  0  0  0  0  2  0  0  0  0  0  0
  160.6550  212.0720  151.8340 N   0  0  0  0  0  0  0  0  0  0  0  0
  158.4680  211.1300  153.6610 C   0  0  0  0  0  1  0  0  0  0  0  0
  158.8850  214.0290  147.9480 C   0  0  0  0  0  2  0  0  0  0  0  0
  157.7140  214.4270  150.0960 C   0  0  0  0  0  2  0  0  0  0  0  0
  160.8310  211.8590  153.2680 C   0  0  0  0  0  2  0  0  0  0  0  0
  162.3900  208.1120  149.1440 C   0  0  1  0  0  3  0  0  0  0  0  0
  161.2680  209.1060  148.9510 C   0  0  1  0  0  3  0  0  0  0  0  0
  158.4680  213.3840  149.2490 C   0  0  2  0  0  3  0  0  0  0  0  0
  161.0180  211.2500  150.8290 C   0  0  0  0  0  0  0  0  0  0  0  0
  159.0130  213.5760  153.6550 C   0  0  0  0  0  2  0  0  0  0  0  0
  160.4070  212.0080  147.0370 C   0  0  1  0  0  3  0  0  0  0  0  0
  159.7850  212.1050  155.4960 C   0  0  0  0  0  1  0  0  0  0  0  0
  162.4470  209.4810  149.8260 C   0  0  1  0  0  3  0  0  0  0  0  0
  160.6480  206.6190  150.0100 F   0  0  0  0  0  0  0  0  0  0  0  0
  161.7620  209.9530  151.0990 C   0  0  2  0  0  3  0  0  0  0  0  0
  158.8230  212.8050  146.6130 S   0  0  0  0  0  0  0  0  0  0  0  0
  162.2970  213.3050  148.0330 C   0  0  0  0  0  3  0  0  0  0  0  0
  161.6350  212.8620  146.8840 C   0  0  0  0  0  0  0  0  0  0  0  0
  162.1300  213.2160  145.6210 C   0  0  0  0  0  3  0  0  0  0  0  0
  163.8800  214.4500  143.9290 Cl  0  0  0  0  0  0  0  0  0  0  0  0
  163.9320  214.4520  146.6610 C   0  0  0  0  0  3  0  0  0  0  0  0
  163.2730  214.0100  145.5110 C   0  0  0  0  0  0  0  0  0  0  0  0
  163.4430  214.1000  147.9230 C   0  0  0  0  0  3  0  0  0  0  0  0
  160.7500  207.1030  154.5680 C   0  0  0  0  0  1  0  0  0  0  0  0
  160.7040  206.9510  153.0590 C   0  0  0  0  0  2  0  0  0  0  0  0
  1  4  1  0  0  0  0
  2 24  1  0  0  0  0
  3  9  2  0  0  0  0
  4 37  1  0  0  0  0
  5 19  1  0  0  0  0
  6 11  1  6  0  0  0
  6 22  1  0  0  0  0
  7  3  1  0  0  0  0
  7 21  2  0  0  0  0
  8 26  1  1  0  0  0
  8 12  1  0  0  0  0
  9 13  1  0  0  0  0
  9  6  1  0  0  0  0
 10  5  1  6  0  0  0
 10  7  1  0  0  0  0
 12  4  1  0  0  0  0
 13 17  1  0  0  0  0
 14  2  1  0  0  0  0
 15 20  1  0  0  0  0
 16 11  1  0  0  0  0
 17  2  1  0  0  0  0
 18 25  1  0  0  0  0
 18  8  1  0  0  0  0
 19 18  1  0  0  0  0
 19 25  1  0  0  0  0
 20  3  1  0  0  0  0
 20 16  1  0  0  0  0
 21 27  1  0  0  0  0
 21 13  1  0  0  0  0
 22  2  1  0  0  0  0
 23 10  1  0  0  0  0
 25 27  1  0  0  0  0
 27  1  1  0  0  0  0
 28 23  1  0  0  0  0
 28 15  1  0  0  0  0
 30 23  1  0  0  0  0
 30 29  2  0  0  0  0
 31 30  1  0  0  0  0
 32 34  1  0  0  0  0
 33 35  2  0  0  0  0
 34 31  2  0  0  0  0
 34 33  1  0  0  0  0
 35 29  1  0  0  0  0
 37 36  1  0  0  0  0
M  END
>  <MODEL>
4

>  <REMARK>
 VINA RESULT:       1.4      2.753      5.656
  Name = 
  2 active torsions:
  status: ('A' for Active; 'I' for Inactive)
    1  A    between atoms: N_4  and  C_37
    2  A    between atoms: C_23  and  C_30
                            x       y       z     vdW  Elec       q    Type
                         _______ _______ _______ _____ _____    ______ ____

>  <TORSDO>
F 2

$$$$
=
 OpenBabel11122413433D

 37 44  0  0  1  0  0  0  0  0999 V2000
  159.9250  211.8070  149.4820 C   0  0  0  0  0  2  0  0  0  0  0  0
  162.3150  208.4090  149.7970 C   0  0  0  0  0  0  0  0  0  0  0  0
  160.4740  209.5290  153.2670 C   0  0  0  0  0  0  0  0  0  0  0  0
  160.1550  212.7300  148.3680 N   0  0  0  0  0  0  0  0  0  0  0  0
  158.6940  212.9290  153.1510 O   0  0  0  0  0  0  0  0  0  0  0  0
  162.0040  207.7490  152.3030 C   0  0  1  0  0  3  0  0  0  0  0  0
  160.0750  210.8180  152.8950 C   0  0  0  0  0  0  0  0  0  0  0  0
  158.4830  214.2320  149.5790 C   0  0  2  0  0  3  0  0  0  0  0  0
  161.4700  209.1460  152.3990 C   0  0  0  0  0  0  0  0  0  0  0  0
  158.8480  211.5640  153.4970 C   0  0  1  0  0  3  0  0  0  0  0  0
  160.9060  206.7590  152.6790 C   0  0  0  0  0  2  0  0  0  0  0  0
  159.6810  214.1030  148.6210 C   0  0  0  0  0  2  0  0  0  0  0  0
  161.6810  210.0840  151.4710 N   0  0  0  0  0  0  0  0  0  0  0  0
  160.9010  208.1740  149.2920 C   0  0  0  0  0  1  0  0  0  0  0  0
  159.5810  208.9710  155.5240 C   0  0  0  0  0  2  0  0  0  0  0  0
  160.3540  207.1250  154.0620 C   0  0  0  0  0  2  0  0  0  0  0  0
  162.4740  209.8600  150.2670 C   0  0  0  0  0  2  0  0  0  0  0  0
  158.8520  214.3000  151.0740 C   0  0  1  0  0  3  0  0  0  0  0  0
  158.6700  212.9700  151.7690 C   0  0  1  0  0  3  0  0  0  0  0  0
  159.7040  208.5210  154.0860 C   0  0  2  0  0  3  0  0  0  0  0  0
  160.8410  211.1070  151.7270 C   0  0  0  0  0  0  0  0  0  0  0  0
  162.6390  207.4250  150.9350 C   0  0  0  0  0  2  0  0  0  0  0  0
  158.7700  211.4870  155.0280 C   0  0  1  0  0  3  0  0  0  0  0  0
  163.2770  208.1630  148.6560 C   0  0  0  0  0  1  0  0  0  0  0  0
  160.0700  213.4550  151.4560 C   0  0  1  0  0  3  0  0  0  0  0  0
  157.4640  213.3340  149.2980 F   0  0  0  0  0  0  0  0  0  0  0  0
  160.6720  212.2530  150.7430 C   0  0  2  0  0  3  0  0  0  0  0  0
  158.0730  209.9540  155.7290 S   0  0  0  0  0  0  0  0  0  0  0  0
  159.7650  213.4420  156.2260 C   0  0  0  0  0  3  0  0  0  0  0  0
  159.8930  212.1140  155.8040 C   0  0  0  0  0  0  0  0  0  0  0  0
  161.0580  211.4000  156.1190 C   0  0  0  0  0  3  0  0  0  0  0  0
  163.5350  211.1090  157.2260 Cl  0  0  0  0  0  0  0  0  0  0  0  0
  161.9520  213.3370  157.2610 C   0  0  0  0  0  3  0  0  0  0  0  0
  162.0840  212.0100  156.8430 C   0  0  0  0  0  0  0  0  0  0  0  0
  160.7920  214.0540  156.9520 C   0  0  0  0  0  3  0  0  0  0  0  0
  160.0960  212.6720  145.9360 C   0  0  0  0  0  1  0  0  0  0  0  0
  159.4250  212.2180  147.2190 C   0  0  0  0  0  2  0  0  0  0  0  0
  1 27  1  0  0  0  0
  2 17  1  0  0  0  0
  2 22  1  0  0  0  0
  3 20  1  0  0  0  0
  4 12  1  0  0  0  0
  4  1  1  0  0  0  0
  5 10  1  0  0  0  0
  6 22  1  6  0  0  0
  6  9  1  0  0  0  0
  6 11  1  0  0  0  0
  7  3  1  0  0  0  0
  8 26  1  1  0  0  0
  8 18  1  0  0  0  0
  9  3  2  0  0  0  0
 10  7  1  1  0  0  0
 10 23  1  0  0  0  0
 11 16  1  0  0  0  0
 12  8  1  0  0  0  0
 13 21  1  0  0  0  0
 13  9  1  0  0  0  0
 14  2  1  0  0  0  0
 15 28  1  0  0  0  0
 16 20  1  0  0  0  0
 17 13  1  0  0  0  0
 18 25  1  0  0  0  0
 18 19  1  0  0  0  0
 19  5  1  0  0  0  0
 20 15  1  0  0  0  0
 21  7  2  0  0  0  0
 23 28  1  0  0  0  0
 23 30  1  0  0  0  0
 24  2  1  0  0  0  0
 25 19  1  0  0  0  0
 27 25  1  0  0  0  0
 27 21  1  0  0  0  0
 29 35  1  0  0  0  0
 30 31  1  0  0  0  0
 30 29  2  0  0  0  0
 31 34  2  0  0  0  0
 34 32  1  0  0  0  0
 34 33  1  0  0  0  0
 35 33  2  0  0  0  0
 36 37  1  0  0  0  0
 37  4  1  0  0  0  0
M  END
>  <MODEL>
5

>  <REMARK>
 VINA RESULT:       1.8      3.334      6.558
  Name = 
  2 active torsions:
  status: ('A' for Active; 'I' for Inactive)
    1  A    between atoms: N_4  and  C_37
    2  A    between atoms: C_23  and  C_30
                            x       y       z     vdW  Elec       q    Type
                         _______ _______ _______ _____ _____    ______ ____

>  <TORSDO>
F 2

$$$$
