=
 OpenBabel11122414063D

 28 32  0  0  1  0  0  0  0  0999 V2000
  161.2250  209.0020  155.7830 C   0  0  0  0  0  0  0  0  0  0  0  0
  156.7190  210.7020  155.2110 O   0  0  0  0  0  0  0  0  0  0  0  0
  162.6740  210.7040  151.3370 C   0  0  0  0  0  1  0  0  0  0  0  0
  162.5760  211.0710  157.1070 C   0  0  0  0  0  3  0  0  0  0  0  0
  160.6240  212.1080  151.6500 C   0  0  2  0  0  3  0  0  0  0  0  0
  160.6230  207.8780  155.0050 C   0  0  0  0  0  2  0  0  0  0  0  0
  157.4290  211.9080  157.2280 O   0  0  0  0  0  0  0  0  0  0  0  0
  157.4110  211.9350  155.7260 S   0  0  0  0  0  0  0  0  0  0  0  0
  156.7500  213.4700  153.7040 C   0  0  0  0  0  0  0  0  0  0  0  0
  159.0460  212.0210  155.1260 N   0  0  2  0  0  0  0  0  0  0  0  0
  161.5640  206.9070  151.6640 O   0  0  0  0  0  1  0  0  0  0  0  0
  159.7990  210.7110  153.3080 C   0  0  1  0  0  3  0  0  0  0  0  0
  157.9850  213.0430  153.1320 N   0  0  0  0  0  2  0  0  0  0  0  0
  156.5360  213.3720  155.1690 C   0  0  0  0  0  2  0  0  0  0  0  0
  160.7340  207.3940  152.6730 C   0  0  2  0  0  3  0  0  0  0  0  0
  160.7800  210.3350  155.6320 C   0  0  0  0  0  0  0  0  0  0  0  0
  161.1640  210.6710  151.4820 C   0  0  2  0  0  3  0  0  0  0  0  0
  155.5070  213.8840  152.7310 S   0  0  0  0  0  0  0  0  0  0  0  0
  160.0820  208.6990  152.2040 C   0  0  0  0  0  2  0  0  0  0  0  0
  161.4750  211.3600  156.3000 C   0  0  0  0  0  3  0  0  0  0  0  0
  162.3320  208.7240  156.5960 C   0  0  0  0  0  3  0  0  0  0  0  0
  163.0010  209.7520  157.2610 C   0  0  0  0  0  3  0  0  0  0  0  0
  161.5140  207.5540  153.8970 N   0  0  0  0  0  2  0  0  0  0  0  0
  160.2360  212.0860  153.1050 C   0  0  2  0  0  3  0  0  0  0  0  0
  160.8000  209.8780  152.6750 N   0  0  2  0  0  0  0  0  0  0  0  0
  159.2200  212.8660  153.9060 C   0  0  2  0  0  3  0  0  0  0  0  0
  159.4390  212.3100  150.7170 C   0  0  0  0  0  1  0  0  0  0  0  0
  159.5510  210.6660  154.8060 C   0  0  1  0  0  3  0  0  0  0  0  0
  1 21  1  0  0  0  0
  2  8  2  0  0  0  0
  3 17  1  0  0  0  0
  4 22  1  0  0  0  0
  5 27  1  6  0  0  0
  5 24  1  0  0  0  0
  6  1  1  0  0  0  0
  8  7  2  0  0  0  0
  9 14  1  0  0  0  0
 10  8  1  6  0  0  0
 11 15  1  0  0  0  0
 12 28  1  0  0  0  0
 13  9  1  0  0  0  0
 13 26  1  0  0  0  0
 14  8  1  0  0  0  0
 15 23  1  0  0  0  0
 16  1  2  0  0  0  0
 16 20  1  0  0  0  0
 17  5  1  0  0  0  0
 17 25  1  0  0  0  0
 18  9  2  0  0  0  0
 19 15  1  0  0  0  0
 19 25  1  0  0  0  0
 20  4  2  0  0  0  0
 21 22  2  0  0  0  0
 23  6  1  0  0  0  0
 24 12  1  0  0  0  0
 24 26  1  0  0  0  0
 25 12  1  0  0  0  0
 26 10  1  0  0  0  0
 28 10  1  0  0  0  0
 28 16  1  0  0  0  0
M  END
>  <MODEL>
1

>  <REMARK>
 VINA RESULT:      -2.8      0.000      0.000
  Name = 
  0 active torsions:
  status: ('A' for Active; 'I' for Inactive)
                            x       y       z     vdW  Elec       q    Type
                         _______ _______ _______ _____ _____    ______ ____

>  <TORSDO>
F 0

$$$$
=
 OpenBabel11122414063D

 28 32  0  0  1  0  0  0  0  0999 V2000
  158.8530  212.8230  140.8120 C   0  0  0  0  0  0  0  0  0  0  0  0
  159.9790  208.2620  139.6040 O   0  0  0  0  0  0  0  0  0  0  0  0
  163.4570  214.4520  139.8560 C   0  0  0  0  0  1  0  0  0  0  0  0
  157.8750  213.9400  138.4350 C   0  0  0  0  0  3  0  0  0  0  0  0
  163.5260  212.2970  138.5820 C   0  0  2  0  0  3  0  0  0  0  0  0
  159.4350  212.3500  142.1040 C   0  0  0  0  0  2  0  0  0  0  0  0
  158.1920  208.7520  137.9930 O   0  0  0  0  0  0  0  0  0  0  0  0
  159.6710  208.8340  138.2470 S   0  0  0  0  0  0  0  0  0  0  0  0
  161.9800  208.2110  137.1700 C   0  0  0  0  0  0  0  0  0  0  0  0
  160.1870  210.4960  138.1460 N   0  0  2  0  0  0  0  0  0  0  0  0
  162.4760  213.5770  143.6010 O   0  0  0  0  0  1  0  0  0  0  0  0
  161.6800  211.4560  139.7070 C   0  0  1  0  0  3  0  0  0  0  0  0
  162.3920  209.5070  137.5970 N   0  0  0  0  0  2  0  0  0  0  0  0
  160.5360  207.9050  137.0110 C   0  0  0  0  0  2  0  0  0  0  0  0
  161.6230  212.6510  143.0010 C   0  0  2  0  0  3  0  0  0  0  0  0
  159.2770  212.3010  139.5690 C   0  0  0  0  0  0  0  0  0  0  0  0
  163.3900  212.9410  139.9790 C   0  0  2  0  0  3  0  0  0  0  0  0
  163.0780  207.0110  137.0410 S   0  0  0  0  0  0  0  0  0  0  0  0
  162.3660  211.9460  141.8610 C   0  0  0  0  0  2  0  0  0  0  0  0
  158.7800  212.8790  138.3870 C   0  0  0  0  0  3  0  0  0  0  0  0
  157.9440  213.8880  140.8480 C   0  0  0  0  0  3  0  0  0  0  0  0
  157.4510  214.4410  139.6650 C   0  0  0  0  0  3  0  0  0  0  0  0
  160.4110  213.3330  142.5570 N   0  0  0  0  0  2  0  0  0  0  0  0
  162.1170  211.8140  138.3650 C   0  0  2  0  0  3  0  0  0  0  0  0
  162.0890  212.5510  140.5630 N   0  0  2  0  0  0  0  0  0  0  0  0
  161.5340  210.6960  137.5310 C   0  0  2  0  0  3  0  0  0  0  0  0
  164.5430  211.1660  138.6490 C   0  0  0  0  0  1  0  0  0  0  0  0
  160.2170  211.1110  139.4930 C   0  0  1  0  0  3  0  0  0  0  0  0
  1 21  1  0  0  0  0
  1  6  1  0  0  0  0
  3 17  1  0  0  0  0
  4 22  1  0  0  0  0
  5 27  1  1  0  0  0
  5 17  1  0  0  0  0
  6 23  1  0  0  0  0
  7  8  2  0  0  0  0
  8  2  2  0  0  0  0
  9 13  1  0  0  0  0
 10  8  1  1  0  0  0
 10 28  1  0  0  0  0
 12 25  1  0  0  0  0
 14  9  1  0  0  0  0
 14  8  1  0  0  0  0
 15 11  1  0  0  0  0
 16  1  2  0  0  0  0
 17 25  1  0  0  0  0
 18  9  2  0  0  0  0
 19 15  1  0  0  0  0
 20  4  2  0  0  0  0
 20 16  1  0  0  0  0
 22 21  2  0  0  0  0
 23 15  1  0  0  0  0
 24  5  1  0  0  0  0
 24 12  1  0  0  0  0
 25 19  1  0  0  0  0
 26 13  1  0  0  0  0
 26 10  1  0  0  0  0
 26 24  1  0  0  0  0
 28 16  1  0  0  0  0
 28 12  1  0  0  0  0
M  END
>  <MODEL>
2

>  <REMARK>
 VINA RESULT:      -2.1     12.503     15.676
  Name = 
  0 active torsions:
  status: ('A' for Active; 'I' for Inactive)
                            x       y       z     vdW  Elec       q    Type
                         _______ _______ _______ _____ _____    ______ ____

>  <TORSDO>
F 0

$$$$
=
 OpenBabel11122414063D

 28 32  0  0  1  0  0  0  0  0999 V2000
  161.0420  208.9520  155.6220 C   0  0  0  0  0  0  0  0  0  0  0  0
  157.0600  211.0500  153.8160 O   0  0  0  0  0  0  0  0  0  0  0  0
  163.5080  209.4110  151.3240 C   0  0  0  0  0  1  0  0  0  0  0  0
  162.4750  211.0720  156.7660 C   0  0  0  0  0  3  0  0  0  0  0  0
  161.7050  211.1030  150.9290 C   0  0  2  0  0  3  0  0  0  0  0  0
  160.4020  207.7700  154.9710 C   0  0  0  0  0  2  0  0  0  0  0  0
  157.6050  212.5750  155.6600 O   0  0  0  0  0  0  0  0  0  0  0  0
  157.8520  212.2660  154.2110 S   0  0  0  0  0  0  0  0  0  0  0  0
  157.8230  213.3810  151.8370 C   0  0  0  0  0  0  0  0  0  0  0  0
  159.5560  212.0030  153.9550 N   0  0  2  0  0  0  0  0  0  0  0  0
  161.7280  205.9610  152.1490 O   0  0  0  0  0  1  0  0  0  0  0  0
  160.3790  210.2330  152.6220 C   0  0  1  0  0  3  0  0  0  0  0  0
  159.0470  212.6800  151.6260 N   0  0  0  0  0  2  0  0  0  0  0  0
  157.3450  213.6430  153.2170 C   0  0  0  0  0  2  0  0  0  0  0  0
  160.8310  206.7650  152.8520 C   0  0  2  0  0  3  0  0  0  0  0  0
  160.8630  210.2630  155.1260 C   0  0  0  0  0  0  0  0  0  0  0  0
  162.0130  209.6080  151.1590 C   0  0  2  0  0  3  0  0  0  0  0  0
  156.8560  213.7250  150.5680 S   0  0  0  0  0  0  0  0  0  0  0  0
  160.5020  208.0050  152.0140 C   0  0  0  0  0  2  0  0  0  0  0  0
  161.5960  211.3130  155.7090 C   0  0  0  0  0  3  0  0  0  0  0  0
  161.9270  208.7220  156.6830 C   0  0  0  0  0  3  0  0  0  0  0  0
  162.6370  209.7770  157.2580 C   0  0  0  0  0  3  0  0  0  0  0  0
  161.4020  207.0930  154.1550 N   0  0  0  0  0  2  0  0  0  0  0  0
  161.0720  211.4580  152.2490 C   0  0  2  0  0  3  0  0  0  0  0  0
  161.3180  209.1560  152.3830 N   0  0  2  0  0  0  0  0  0  0  0  0
  160.0810  212.5230  152.6560 C   0  0  2  0  0  3  0  0  0  0  0  0
  160.7510  211.2430  149.7520 C   0  0  0  0  0  1  0  0  0  0  0  0
  159.8710  210.5570  154.0160 C   0  0  1  0  0  3  0  0  0  0  0  0
  1 21  1  0  0  0  0
  2  8  2  0  0  0  0
  4 22  1  0  0  0  0
  5 27  1  6  0  0  0
  5 17  1  0  0  0  0
  5 24  1  0  0  0  0
  6  1  1  0  0  0  0
  8  7  2  0  0  0  0
  9 14  1  0  0  0  0
 10 28  1  0  0  0  0
 10  8  1  6  0  0  0
 11 15  1  0  0  0  0
 12 28  1  0  0  0  0
 13  9  1  0  0  0  0
 13 26  1  0  0  0  0
 14  8  1  0  0  0  0
 15 23  1  0  0  0  0
 16  1  2  0  0  0  0
 16 20  1  0  0  0  0
 17  3  1  0  0  0  0
 17 25  1  0  0  0  0
 18  9  2  0  0  0  0
 19 25  1  0  0  0  0
 19 15  1  0  0  0  0
 20  4  2  0  0  0  0
 21 22  2  0  0  0  0
 23  6  1  0  0  0  0
 24 12  1  0  0  0  0
 24 26  1  0  0  0  0
 25 12  1  0  0  0  0
 26 10  1  0  0  0  0
 28 16  1  0  0  0  0
M  END
>  <MODEL>
3

>  <REMARK>
 VINA RESULT:       0.0      1.204      1.337
  Name = 
  0 active torsions:
  status: ('A' for Active; 'I' for Inactive)
                            x       y       z     vdW  Elec       q    Type
                         _______ _______ _______ _____ _____    ______ ____

>  <TORSDO>
F 0

$$$$
