=
 OpenBabel11122414083D

 28 32  0  0  1  0  0  0  0  0999 V2000
  162.0230  209.4020  137.7540 C   0  0  0  0  0  0  0  0  0  0  0  0
  158.5740  209.9560  137.4920 O   0  0  0  0  0  0  0  0  0  0  0  0
  162.8530  214.0070  142.0240 O   0  0  0  0  0  1  0  0  0  0  0  0
  161.8450  206.9580  139.1180 C   0  0  0  0  0  3  0  0  0  0  0  0
  160.9770  212.6300  142.5120 C   0  0  2  0  0  3  0  0  0  0  0  0
  162.1690  210.6930  137.0110 C   0  0  0  0  0  2  0  0  0  0  0  0
  156.8530  209.6140  139.2170 O   0  0  0  0  0  0  0  0  0  0  0  0
  158.0380  210.4420  138.8090 S   0  0  0  0  0  0  0  0  0  0  0  0
  158.1660  213.0820  139.5210 C   0  0  0  0  0  0  0  0  0  0  0  0
  159.2860  210.3470  140.0700 C   0  0  2  0  0  3  0  0  0  0  0  0
  164.6360  212.7740  138.7570 O   0  0  0  0  0  0  0  0  0  0  0  0
  161.4920  211.0500  140.7830 C   0  0  2  0  0  3  0  0  0  0  0  0
  158.8840  212.7620  140.5570 N   0  0  0  0  0  0  0  0  0  0  0  0
  157.5730  212.0930  138.6810 N   0  0  0  0  0  2  0  0  0  0  0  0
  163.5100  212.3050  138.4520 C   0  0  0  0  0  0  0  0  0  0  0  0
  161.3180  209.3280  138.9720 C   0  0  0  0  0  0  0  0  0  0  0  0
  161.8010  213.3020  141.4380 C   0  0  2  0  0  3  0  0  0  0  0  0
  158.0140  214.4530  139.1820 N   0  0  0  0  0  1  0  0  0  0  0  0
  162.3000  212.7660  139.1990 C   0  0  0  0  0  2  0  0  0  0  0  0
  161.2420  208.1000  139.6510 C   0  0  0  0  0  3  0  0  0  0  0  0
  162.6290  208.2530  137.2310 C   0  0  0  0  0  3  0  0  0  0  0  0
  162.5370  207.0360  137.9080 C   0  0  0  0  0  3  0  0  0  0  0  0
  163.4120  211.3530  137.3880 N   0  0  0  0  0  2  0  0  0  0  0  0
  160.4620  211.3620  141.8580 C   0  0  2  0  0  3  0  0  0  0  0  0
  162.3310  212.2540  140.5690 N   0  0  2  0  0  0  0  0  0  0  0  0
  159.1050  211.4210  141.1320 C   0  0  2  0  0  3  0  0  0  0  0  0
  159.9540  213.4620  142.9730 O   0  0  0  0  0  1  0  0  0  0  0  0
  160.7000  210.5610  139.5620 C   0  0  1  0  0  3  0  0  0  0  0  0
  1 16  1  0  0  0  0
  2  8  2  0  0  0  0
  4 20  1  0  0  0  0
  5 27  1  6  0  0  0
  6 23  1  0  0  0  0
  6  1  1  0  0  0  0
  8  7  2  0  0  0  0
  9 13  2  0  0  0  0
 10  8  1  6  0  0  0
 10 26  1  0  0  0  0
 12 24  1  0  0  0  0
 13 26  1  0  0  0  0
 14  8  1  0  0  0  0
 14  9  1  0  0  0  0
 15 11  2  0  0  0  0
 15 19  1  0  0  0  0
 16 28  1  0  0  0  0
 16 20  2  0  0  0  0
 17  3  1  0  0  0  0
 17  5  1  0  0  0  0
 18  9  1  0  0  0  0
 19 25  1  0  0  0  0
 21  1  2  0  0  0  0
 21 22  1  0  0  0  0
 22  4  2  0  0  0  0
 23 15  1  0  0  0  0
 24  5  1  0  0  0  0
 25 12  1  0  0  0  0
 25 17  1  0  0  0  0
 26 24  1  0  0  0  0
 28 10  1  0  0  0  0
 28 12  1  0  0  0  0
M  END
>  <MODEL>
1

>  <REMARK>
 VINA RESULT:      -3.3      0.000      0.000
  Name = 
  0 active torsions:
  status: ('A' for Active; 'I' for Inactive)
                            x       y       z     vdW  Elec       q    Type
                         _______ _______ _______ _____ _____    ______ ____

>  <TORSDO>
F 0

$$$$
=
 OpenBabel11122414083D

 28 32  0  0  1  0  0  0  0  0999 V2000
  158.8640  213.4610  142.3100 C   0  0  0  0  0  0  0  0  0  0  0  0
  162.1390  214.4530  141.5580 O   0  0  0  0  0  0  0  0  0  0  0  0
  158.6830  209.1230  137.6980 O   0  0  0  0  0  1  0  0  0  0  0  0
  159.4760  212.1620  144.7180 C   0  0  0  0  0  3  0  0  0  0  0  0
  160.6990  209.0420  138.9550 C   0  0  2  0  0  3  0  0  0  0  0  0
  158.4850  214.1590  141.0420 C   0  0  0  0  0  2  0  0  0  0  0  0
  164.2050  213.1340  141.7720 O   0  0  0  0  0  0  0  0  0  0  0  0
  162.9120  213.2820  141.0220 S   0  0  0  0  0  0  0  0  0  0  0  0
  162.7780  212.5650  138.3840 C   0  0  0  0  0  0  0  0  0  0  0  0
  161.9690  211.7840  141.1710 C   0  0  2  0  0  3  0  0  0  0  0  0
  156.3240  211.9330  139.0830 O   0  0  0  0  0  0  0  0  0  0  0  0
  159.9260  210.6190  140.5890 C   0  0  2  0  0  3  0  0  0  0  0  0
  162.3170  211.3980  138.7300 N   0  0  0  0  0  0  0  0  0  0  0  0
  163.2380  213.5090  139.3490 N   0  0  0  0  0  2  0  0  0  0  0  0
  157.3870  212.4690  139.4900 C   0  0  0  0  0  0  0  0  0  0  0  0
  159.8150  212.4220  142.3250 C   0  0  0  0  0  0  0  0  0  0  0  0
  159.6270  209.9170  138.3490 C   0  0  2  0  0  3  0  0  0  0  0  0
  162.7710  212.9310  137.0110 N   0  0  0  0  0  1  0  0  0  0  0  0
  158.6980  211.9980  138.9470 C   0  0  0  0  0  2  0  0  0  0  0  0
  160.1080  211.7720  143.5350 C   0  0  0  0  0  3  0  0  0  0  0  0
  158.2320  213.8410  143.5000 C   0  0  0  0  0  3  0  0  0  0  0  0
  158.5400  213.1970  144.7000 C   0  0  0  0  0  3  0  0  0  0  0  0
  157.3140  213.5280  140.4500 N   0  0  0  0  0  2  0  0  0  0  0  0
  161.1400  209.7890  140.2010 C   0  0  2  0  0  3  0  0  0  0  0  0
  158.9890  210.6520  139.4390 N   0  0  2  0  0  0  0  0  0  0  0  0
  162.3050  210.7870  140.0730 C   0  0  2  0  0  3  0  0  0  0  0  0
  161.7450  208.8110  138.0570 O   0  0  0  0  0  1  0  0  0  0  0  0
  160.4690  211.9800  141.0480 C   0  0  1  0  0  3  0  0  0  0  0  0
  1 16  2  0  0  0  0
  1 21  1  0  0  0  0
  3 17  1  0  0  0  0
  5 27  1  6  0  0  0
  5 24  1  0  0  0  0
  6  1  1  0  0  0  0
  8  2  2  0  0  0  0
  8  7  2  0  0  0  0
  9 13  2  0  0  0  0
  9 14  1  0  0  0  0
 10  8  1  6  0  0  0
 11 15  2  0  0  0  0
 12 28  1  0  0  0  0
 13 26  1  0  0  0  0
 14  8  1  0  0  0  0
 15 23  1  0  0  0  0
 16 20  1  0  0  0  0
 17  5  1  0  0  0  0
 17 25  1  0  0  0  0
 18  9  1  0  0  0  0
 19 25  1  0  0  0  0
 19 15  1  0  0  0  0
 20  4  2  0  0  0  0
 21 22  2  0  0  0  0
 22  4  1  0  0  0  0
 23  6  1  0  0  0  0
 24 12  1  0  0  0  0
 25 12  1  0  0  0  0
 26 24  1  0  0  0  0
 26 10  1  0  0  0  0
 28 10  1  0  0  0  0
 28 16  1  0  0  0  0
M  END
>  <MODEL>
2

>  <REMARK>
 VINA RESULT:      -2.1      2.147      6.102
  Name = 
  0 active torsions:
  status: ('A' for Active; 'I' for Inactive)
                            x       y       z     vdW  Elec       q    Type
                         _______ _______ _______ _____ _____    ______ ____

>  <TORSDO>
F 0

$$$$
=
 OpenBabel11122414083D

 28 32  0  0  1  0  0  0  0  0999 V2000
  157.8390  212.6820  154.7680 C   0  0  0  0  0  0  0  0  0  0  0  0
  160.0880  211.2440  157.0360 O   0  0  0  0  0  0  0  0  0  0  0  0
  161.3980  211.2830  149.7190 O   0  0  0  0  0  1  0  0  0  0  0  0
  155.8500  210.7210  155.0150 C   0  0  0  0  0  3  0  0  0  0  0  0
  161.1890  209.4590  151.2290 C   0  0  2  0  0  3  0  0  0  0  0  0
  158.8620  213.7640  154.6180 C   0  0  0  0  0  2  0  0  0  0  0  0
  160.6990  208.8710  157.2600 O   0  0  0  0  0  0  0  0  0  0  0  0
  160.7940  210.0880  156.3850 S   0  0  0  0  0  0  0  0  0  0  0  0
  162.9960  210.4620  154.8040 C   0  0  0  0  0  0  0  0  0  0  0  0
  160.0820  209.7290  154.7970 C   0  0  2  0  0  3  0  0  0  0  0  0
  159.3910  214.3820  151.0400 O   0  0  0  0  0  0  0  0  0  0  0  0
  159.5530  210.5680  152.5870 C   0  0  2  0  0  3  0  0  0  0  0  0
  162.3620  209.9250  153.8030 N   0  0  0  0  0  0  0  0  0  0  0  0
  162.4470  210.4820  156.1200 N   0  0  0  0  0  2  0  0  0  0  0  0
  159.5660  213.8710  152.1760 C   0  0  0  0  0  0  0  0  0  0  0  0
  158.1500  211.3320  154.5160 C   0  0  0  0  0  0  0  0  0  0  0  0
  161.3310  210.9550  151.0730 C   0  0  2  0  0  3  0  0  0  0  0  0
  164.2470  211.0940  154.5710 N   0  0  0  0  0  1  0  0  0  0  0  0
  160.5920  212.7970  152.3430 C   0  0  0  0  0  2  0  0  0  0  0  0
  157.1440  210.3580  154.6350 C   0  0  0  0  0  3  0  0  0  0  0  0
  156.5370  213.0370  155.1440 C   0  0  0  0  0  3  0  0  0  0  0  0
  155.5480  212.0600  155.2700 C   0  0  0  0  0  3  0  0  0  0  0  0
  158.7910  214.3420  153.2830 N   0  0  0  0  0  2  0  0  0  0  0  0
  160.3620  209.2840  152.4890 C   0  0  2  0  0  3  0  0  0  0  0  0
  160.1510  211.5730  151.6740 N   0  0  2  0  0  0  0  0  0  0  0  0
  161.1050  209.1540  153.8310 C   0  0  2  0  0  3  0  0  0  0  0  0
  162.4340  208.8280  151.3000 O   0  0  0  0  0  1  0  0  0  0  0  0
  159.5320  210.9460  154.0750 C   0  0  1  0  0  3  0  0  0  0  0  0
  1 21  1  0  0  0  0
  3 17  1  0  0  0  0
  4 22  1  0  0  0  0
  5 27  1  1  0  0  0
  5 24  1  0  0  0  0
  6  1  1  0  0  0  0
  8  2  2  0  0  0  0
  8  7  2  0  0  0  0
  9 14  1  0  0  0  0
 10  8  1  1  0  0  0
 11 15  2  0  0  0  0
 12 28  1  0  0  0  0
 13 26  1  0  0  0  0
 13  9  2  0  0  0  0
 14  8  1  0  0  0  0
 15 19  1  0  0  0  0
 15 23  1  0  0  0  0
 16 20  1  0  0  0  0
 16  1  2  0  0  0  0
 17  5  1  0  0  0  0
 17 25  1  0  0  0  0
 18  9  1  0  0  0  0
 20  4  2  0  0  0  0
 21 22  2  0  0  0  0
 23  6  1  0  0  0  0
 24 12  1  0  0  0  0
 24 26  1  0  0  0  0
 25 19  1  0  0  0  0
 25 12  1  0  0  0  0
 26 10  1  0  0  0  0
 28 16  1  0  0  0  0
 28 10  1  0  0  0  0
M  END
>  <MODEL>
3

>  <REMARK>
 VINA RESULT:      -0.9     12.311     15.255
  Name = 
  0 active torsions:
  status: ('A' for Active; 'I' for Inactive)
                            x       y       z     vdW  Elec       q    Type
                         _______ _______ _______ _____ _____    ______ ____

>  <TORSDO>
F 0

$$$$
