=
 OpenBabel11122414303D

 34 42  0  0  1  0  0  0  0  0999 V2000
  160.5370  207.3350  154.4740 C   0  0  2  0  0  3  0  0  0  0  0  0
  161.5450  205.1610  153.4000 C   0  0  0  0  0  2  0  0  0  0  0  0
  158.2480  213.4220  154.3230 C   0  0  2  0  0  0  0  0  0  0  0  0
  160.1380  209.6000  155.3860 C   0  0  1  0  0  3  0  0  0  0  0  0
  159.4200  211.4270  153.7810 C   0  0  1  0  0  3  0  0  0  0  0  0
  158.3520  213.5540  152.7760 C   0  0  1  0  0  3  0  0  0  0  0  0
  157.4480  214.4530  153.5640 C   0  0  0  0  0  2  0  0  0  0  0  0
  159.7870  213.3450  156.3620 C   0  0  0  0  0  2  0  0  0  0  0  0
  161.5700  207.2080  152.1740 C   0  0  2  0  0  3  0  0  0  0  0  0
  161.1780  207.2880  149.0080 C   0  0  0  0  0  2  0  0  0  0  0  0
  160.1420  210.7320  152.6340 C   0  0  0  0  0  2  0  0  0  0  0  0
  159.4510  211.8410  156.3200 C   0  0  0  0  0  2  0  0  0  0  0  0
  160.7330  208.3940  151.6570 C   0  0  1  0  0  3  0  0  0  0  0  0
  162.0170  204.8290  151.9880 C   0  0  0  0  0  2  0  0  0  0  0  0
  160.1180  211.1140  155.1290 C   0  0  1  0  0  3  0  0  0  0  0  0
  158.9570  214.2310  155.4000 C   0  0  0  0  0  2  0  0  0  0  0  0
  161.1360  206.0400  149.9190 C   0  0  2  0  0  3  0  0  0  0  0  0
  160.7210  208.8340  154.1950 C   0  0  2  0  0  3  0  0  0  0  0  0
  159.4560  212.9240  153.5570 C   0  0  1  0  0  3  0  0  0  0  0  0
  160.1090  209.2170  152.8320 C   0  0  1  0  0  3  0  0  0  0  0  0
  161.3920  207.8190  156.7460 C   0  0  0  0  0  3  0  0  0  0  0  0
  162.1090  208.4040  149.4880 C   0  0  0  0  0  2  0  0  0  0  0  0
  160.9770  209.2740  156.6370 C   0  0  0  0  0  2  0  0  0  0  0  0
  161.4960  209.2330  150.6200 C   0  0  0  0  0  2  0  0  0  0  0  0
  162.0260  206.1360  151.1800 C   0  0  1  0  0  3  0  0  0  0  0  0
  161.2410  206.9370  155.7430 C   0  0  0  0  0  3  0  0  0  0  0  0
  160.8020  206.4620  153.2330 C   0  0  2  0  0  3  0  0  0  0  0  0
  161.5070  204.8200  149.0850 C   0  0  0  0  0  2  0  0  0  0  0  0
  161.4650  205.1590  147.6040 C   0  0  0  0  0  2  0  0  0  0  0  0
  160.8110  202.4220  145.6320 N   0  0  0  0  0  2  0  0  0  0  0  0
  161.9110  204.3030  145.3170 C   0  0  0  0  0  2  0  0  0  0  0  0
  162.0760  204.0320  146.7890 C   0  0  2  0  0  3  0  0  0  0  0  0
  160.8140  203.5530  144.8720 O   0  0  0  0  0  0  0  0  0  0  0  0
  161.2520  202.7990  146.9650 C   0  0  0  0  0  2  0  0  0  0  0  0
  1 26  1  1  0  0  0
  3  7  1  1  0  0  0
  3 16  1  0  0  0  0
  4 23  1  1  0  0  0
  5 11  1  6  0  0  0
  5 15  1  0  0  0  0
  6 19  1  0  0  0  0
  6  7  1  1  0  0  0
  6  3  1  0  0  0  0
  9 27  1  0  0  0  0
 10 22  1  0  0  0  0
 10 17  1  0  0  0  0
 11 20  1  0  0  0  0
 12  8  1  0  0  0  0
 13  9  1  0  0  0  0
 13 20  1  0  0  0  0
 14  2  1  0  0  0  0
 15  4  1  0  0  0  0
 15 12  1  0  0  0  0
 16  8  1  0  0  0  0
 17 25  1  0  0  0  0
 18  1  1  0  0  0  0
 18  4  1  0  0  0  0
 19  5  1  0  0  0  0
 19  3  1  0  0  0  0
 20 18  1  0  0  0  0
 22 24  1  0  0  0  0
 23 21  1  0  0  0  0
 24 13  1  0  0  0  0
 25 14  1  0  0  0  0
 25  9  1  0  0  0  0
 26 21  2  0  0  0  0
 27  2  1  0  0  0  0
 27  1  1  0  0  0  0
 28 17  1  0  0  0  0
 29 28  1  0  0  0  0
 30 34  1  0  0  0  0
 31 32  1  0  0  0  0
 32 34  1  0  0  0  0
 32 29  1  0  0  0  0
 33 31  1  0  0  0  0
 33 30  1  0  0  0  0
M  END
>  <MODEL>
1

>  <REMARK>
 VINA RESULT:      -9.8      0.000      0.000
  Name = 
  3 active torsions:
  status: ('A' for Active; 'I' for Inactive)
    1  A    between atoms: C_17  and  C_28
    2  A    between atoms: C_28  and  C_29
    3  A    between atoms: C_29  and  C_32
                            x       y       z     vdW  Elec       q    Type
                         _______ _______ _______ _____ _____    ______ ____

>  <TORSDO>
F 3

$$$$
=
 OpenBabel11122414303D

 34 42  0  0  1  0  0  0  0  0999 V2000
  160.9580  208.9440  150.6520 C   0  0  2  0  0  3  0  0  0  0  0  0
  161.1170  210.9400  152.3520 C   0  0  0  0  0  2  0  0  0  0  0  0
  160.3570  202.6770  149.0180 C   0  0  2  0  0  0  0  0  0  0  0  0
  161.3630  206.9480  149.2480 C   0  0  1  0  0  3  0  0  0  0  0  0
  160.8290  204.6700  150.2240 C   0  0  1  0  0  3  0  0  0  0  0  0
  160.1670  202.1860  150.4820 C   0  0  1  0  0  3  0  0  0  0  0  0
  159.7140  201.3460  149.3260 C   0  0  0  0  0  2  0  0  0  0  0  0
  162.2140  203.5780  147.5100 C   0  0  0  0  0  2  0  0  0  0  0  0
  161.4180  208.7020  153.1230 C   0  0  2  0  0  3  0  0  0  0  0  0
  160.4080  207.7510  155.9970 C   0  0  0  0  0  2  0  0  0  0  0  0
  161.0880  205.1890  151.6320 C   0  0  0  0  0  2  0  0  0  0  0  0
  161.4960  204.9210  147.7520 C   0  0  0  0  0  2  0  0  0  0  0  0
  160.8310  207.2770  153.1620 C   0  0  1  0  0  3  0  0  0  0  0  0
  161.1790  210.9970  153.8750 C   0  0  0  0  0  2  0  0  0  0  0  0
  161.6860  205.4480  149.1940 C   0  0  1  0  0  3  0  0  0  0  0  0
  161.4620  202.3280  148.0300 C   0  0  0  0  0  2  0  0  0  0  0  0
  160.2340  209.1510  155.3660 C   0  0  2  0  0  3  0  0  0  0  0  0
  161.4640  207.4950  150.6750 C   0  0  2  0  0  3  0  0  0  0  0  0
  161.2060  203.2050  150.1560 C   0  0  1  0  0  3  0  0  0  0  0  0
  160.7030  206.6640  151.7280 C   0  0  1  0  0  3  0  0  0  0  0  0
  162.3650  209.2330  148.6360 C   0  0  0  0  0  3  0  0  0  0  0  0
  161.6770  207.0080  155.5720 C   0  0  0  0  0  2  0  0  0  0  0  0
  162.3310  207.7440  148.3490 C   0  0  0  0  0  2  0  0  0  0  0  0
  161.5520  206.3810  154.1810 C   0  0  0  0  0  2  0  0  0  0  0  0
  161.3610  209.5610  154.3890 C   0  0  1  0  0  3  0  0  0  0  0  0
  161.7820  209.7840  149.7140 C   0  0  0  0  0  3  0  0  0  0  0  0
  160.7200  209.5140  152.0640 C   0  0  2  0  0  3  0  0  0  0  0  0
  160.0910  210.1730  156.4870 C   0  0  0  0  0  2  0  0  0  0  0  0
  158.6350  210.5790  156.6500 C   0  0  0  0  0  2  0  0  0  0  0  0
  156.1190  212.4360  155.2260 N   0  0  0  0  0  2  0  0  0  0  0  0
  158.2990  212.6940  155.3960 C   0  0  0  0  0  2  0  0  0  0  0  0
  158.1150  211.2000  155.3650 C   0  0  2  0  0  3  0  0  0  0  0  0
  157.0680  213.2620  155.7500 O   0  0  0  0  0  0  0  0  0  0  0  0
  156.6270  211.0780  155.3310 C   0  0  0  0  0  2  0  0  0  0  0  0
  1 26  1  1  0  0  0
  1 18  1  0  0  0  0
  1 27  1  0  0  0  0
  2 14  1  0  0  0  0
  3 16  1  1  0  0  0
  3  7  1  0  0  0  0
  3 19  1  0  0  0  0
  3  6  1  0  0  0  0
  4 23  1  6  0  0  0
  4 18  1  0  0  0  0
  5 11  1  1  0  0  0
  6  7  1  6  0  0  0
  8 12  1  0  0  0  0
  8 16  1  0  0  0  0
  9 13  1  0  0  0  0
  9 25  1  0  0  0  0
 11 20  1  0  0  0  0
 12 15  1  0  0  0  0
 13 24  1  0  0  0  0
 14 25  1  0  0  0  0
 15  4  1  0  0  0  0
 15  5  1  0  0  0  0
 17 10  1  0  0  0  0
 17 28  1  0  0  0  0
 18 20  1  0  0  0  0
 19  5  1  0  0  0  0
 19  6  1  0  0  0  0
 20 13  1  0  0  0  0
 21 26  2  0  0  0  0
 22 10  1  0  0  0  0
 23 21  1  0  0  0  0
 24 22  1  0  0  0  0
 25 17  1  0  0  0  0
 27  2  1  0  0  0  0
 27  9  1  0  0  0  0
 28 29  1  0  0  0  0
 30 34  1  0  0  0  0
 30 33  1  0  0  0  0
 31 33  1  0  0  0  0
 32 31  1  0  0  0  0
 32 29  1  0  0  0  0
 34 32  1  0  0  0  0
M  END
>  <MODEL>
2

>  <REMARK>
 VINA RESULT:      -9.0      3.888      9.284
  Name = 
  3 active torsions:
  status: ('A' for Active; 'I' for Inactive)
    1  A    between atoms: C_17  and  C_28
    2  A    between atoms: C_28  and  C_29
    3  A    between atoms: C_29  and  C_32
                            x       y       z     vdW  Elec       q    Type
                         _______ _______ _______ _____ _____    ______ ____

>  <TORSDO>
F 3

$$$$
=
 OpenBabel11122414303D

 34 42  0  0  1  0  0  0  0  0999 V2000
  161.0690  208.5390  150.3060 C   0  0  2  0  0  3  0  0  0  0  0  0
  161.3000  210.5840  151.9370 C   0  0  0  0  0  2  0  0  0  0  0  0
  160.1650  202.2570  148.8820 C   0  0  2  0  0  0  0  0  0  0  0  0
  161.3960  206.4740  148.9830 C   0  0  1  0  0  3  0  0  0  0  0  0
  160.7180  204.2650  150.0270 C   0  0  1  0  0  3  0  0  0  0  0  0
  159.9170  201.8310  150.3580 C   0  0  1  0  0  3  0  0  0  0  0  0
  159.4440  200.9750  149.2220 C   0  0  0  0  0  2  0  0  0  0  0  0
  162.0990  203.0020  147.3870 C   0  0  0  0  0  2  0  0  0  0  0  0
  161.4630  208.3630  152.7940 C   0  0  2  0  0  3  0  0  0  0  0  0
  160.3420  207.5740  155.6760 C   0  0  0  0  0  2  0  0  0  0  0  0
  160.9740  204.8200  151.4220 C   0  0  0  0  0  2  0  0  0  0  0  0
  161.4500  204.3890  147.5640 C   0  0  0  0  0  2  0  0  0  0  0  0
  160.7980  206.9740  152.8700 C   0  0  1  0  0  3  0  0  0  0  0  0
  161.3330  210.6940  153.4590 C   0  0  0  0  0  2  0  0  0  0  0  0
  161.6380  204.9580  148.9900 C   0  0  1  0  0  3  0  0  0  0  0  0
  161.2690  201.8130  147.9330 C   0  0  0  0  0  2  0  0  0  0  0  0
  160.2570  208.9580  154.9910 C   0  0  2  0  0  3  0  0  0  0  0  0
  161.4960  207.0670  150.3920 C   0  0  2  0  0  3  0  0  0  0  0  0
  161.0160  202.7800  150.0200 C   0  0  1  0  0  3  0  0  0  0  0  0
  160.6680  206.3170  151.4560 C   0  0  1  0  0  3  0  0  0  0  0  0
  162.5320  208.6780  148.3140 C   0  0  0  0  0  3  0  0  0  0  0  0
  161.5770  206.7490  155.3070 C   0  0  0  0  0  2  0  0  0  0  0  0
  162.4240  207.1830  148.0790 C   0  0  0  0  0  2  0  0  0  0  0  0
  161.4480  206.0790  153.9370 C   0  0  0  0  0  2  0  0  0  0  0  0
  161.4250  209.2700  154.0270 C   0  0  1  0  0  3  0  0  0  0  0  0
  161.9580  209.2980  149.3580 C   0  0  0  0  0  3  0  0  0  0  0  0
  160.8330  209.1720  151.6910 C   0  0  2  0  0  3  0  0  0  0  0  0
  160.1450  210.0260  156.0720 C   0  0  0  0  0  2  0  0  0  0  0  0
  158.7760  210.6830  156.0260 C   0  0  0  0  0  2  0  0  0  0  0  0
  159.2500  214.0620  155.6110 N   0  0  0  0  0  2  0  0  0  0  0  0
  157.5900  212.8350  156.3780 C   0  0  0  0  0  2  0  0  0  0  0  0
  158.8170  212.0340  156.7210 C   0  0  2  0  0  3  0  0  0  0  0  0
  157.9470  213.7410  155.3710 O   0  0  0  0  0  0  0  0  0  0  0  0
  159.9010  212.8630  156.1140 C   0  0  0  0  0  2  0  0  0  0  0  0
  1 26  1  1  0  0  0
  1 18  1  0  0  0  0
  1 27  1  0  0  0  0
  2 14  1  0  0  0  0
  3 16  1  1  0  0  0
  3  7  1  0  0  0  0
  3 19  1  0  0  0  0
  3  6  1  0  0  0  0
  4 23  1  6  0  0  0
  4 15  1  0  0  0  0
  4 18  1  0  0  0  0
  5 11  1  1  0  0  0
  6  7  1  6  0  0  0
  8 12  1  0  0  0  0
  8 16  1  0  0  0  0
  9 13  1  0  0  0  0
  9 25  1  0  0  0  0
 11 20  1  0  0  0  0
 12 15  1  0  0  0  0
 13 24  1  0  0  0  0
 14 25  1  0  0  0  0
 15  5  1  0  0  0  0
 17 10  1  0  0  0  0
 17 28  1  0  0  0  0
 18 20  1  0  0  0  0
 19  5  1  0  0  0  0
 19  6  1  0  0  0  0
 20 13  1  0  0  0  0
 21 26  2  0  0  0  0
 22 10  1  0  0  0  0
 23 21  1  0  0  0  0
 24 22  1  0  0  0  0
 25 17  1  0  0  0  0
 27  2  1  0  0  0  0
 27  9  1  0  0  0  0
 29 28  1  0  0  0  0
 29 32  1  0  0  0  0
 30 34  1  0  0  0  0
 31 32  1  0  0  0  0
 33 30  1  0  0  0  0
 33 31  1  0  0  0  0
 34 32  1  0  0  0  0
M  END
>  <MODEL>
3

>  <REMARK>
 VINA RESULT:      -8.7      3.968      9.568
  Name = 
  3 active torsions:
  status: ('A' for Active; 'I' for Inactive)
    1  A    between atoms: C_17  and  C_28
    2  A    between atoms: C_28  and  C_29
    3  A    between atoms: C_29  and  C_32
                            x       y       z     vdW  Elec       q    Type
                         _______ _______ _______ _____ _____    ______ ____

>  <TORSDO>
F 3

$$$$
=
 OpenBabel11122414303D

 34 42  0  0  1  0  0  0  0  0999 V2000
  161.5810  204.9720  152.5080 C   0  0  2  0  0  3  0  0  0  0  0  0
  161.2710  206.2690  154.7700 C   0  0  0  0  0  2  0  0  0  0  0  0
  162.4270  204.5420  146.0730 C   0  0  2  0  0  0  0  0  0  0  0  0
  161.3100  203.9330  150.2780 C   0  0  1  0  0  3  0  0  0  0  0  0
  161.8360  205.3360  148.2330 C   0  0  1  0  0  3  0  0  0  0  0  0
  162.5380  206.0790  145.8610 C   0  0  1  0  0  3  0  0  0  0  0  0
  163.0810  205.1230  144.8420 C   0  0  0  0  0  2  0  0  0  0  0  0
  160.6470  202.7920  146.6240 C   0  0  0  0  0  2  0  0  0  0  0  0
  160.9750  207.4160  152.6990 C   0  0  2  0  0  3  0  0  0  0  0  0
  161.8260  210.4670  152.3170 C   0  0  0  0  0  2  0  0  0  0  0  0
  161.4780  206.6100  148.9880 C   0  0  0  0  0  2  0  0  0  0  0  0
  161.3170  202.8260  148.0120 C   0  0  0  0  0  2  0  0  0  0  0  0
  161.5910  207.7460  151.3260 C   0  0  1  0  0  3  0  0  0  0  0  0
  161.1130  207.7500  155.0990 C   0  0  0  0  0  2  0  0  0  0  0  0
  161.0260  204.1350  148.7830 C   0  0  1  0  0  3  0  0  0  0  0  0
  161.3940  203.5730  145.5140 C   0  0  0  0  0  2  0  0  0  0  0  0
  162.0070  209.6030  153.5850 C   0  0  2  0  0  3  0  0  0  0  0  0
  161.1080  205.2290  151.0700 C   0  0  2  0  0  3  0  0  0  0  0  0
  161.4970  205.5150  146.7680 C   0  0  1  0  0  3  0  0  0  0  0  0
  161.8220  206.4570  150.4690 C   0  0  1  0  0  3  0  0  0  0  0  0
  160.2960  202.8600  152.3800 C   0  0  0  0  0  3  0  0  0  0  0  0
  160.6040  210.1130  151.4660 C   0  0  0  0  0  2  0  0  0  0  0  0
  160.3820  202.8510  150.8660 C   0  0  0  0  0  2  0  0  0  0  0  0
  160.8290  208.8690  150.6040 C   0  0  0  0  0  2  0  0  0  0  0  0
  160.9330  208.5050  153.7740 C   0  0  1  0  0  3  0  0  0  0  0  0
  160.7970  203.8520  153.1360 C   0  0  0  0  0  3  0  0  0  0  0  0
  161.7180  206.2680  153.3300 C   0  0  2  0  0  3  0  0  0  0  0  0
  162.0570  210.5260  154.7960 C   0  0  0  0  0  2  0  0  0  0  0  0
  160.8470  211.4460  154.8110 C   0  0  0  0  0  2  0  0  0  0  0  0
  158.2630  212.6250  156.7440 N   0  0  0  0  0  2  0  0  0  0  0  0
  158.6740  210.7030  155.7510 C   0  0  0  0  0  2  0  0  0  0  0  0
  160.0420  211.2370  156.0820 C   0  0  2  0  0  3  0  0  0  0  0  0
  157.7810  211.7820  155.7870 O   0  0  0  0  0  0  0  0  0  0  0  0
  159.7130  212.5670  156.6770 C   0  0  0  0  0  2  0  0  0  0  0  0
  1 26  1  1  0  0  0
  1 27  1  0  0  0  0
  2 14  1  0  0  0  0
  3  7  1  1  0  0  0
  3 19  1  0  0  0  0
  4 23  1  1  0  0  0
  4 18  1  0  0  0  0
  5 15  1  0  0  0  0
  5 11  1  1  0  0  0
  6  7  1  6  0  0  0
  6  3  1  0  0  0  0
  6 19  1  0  0  0  0
  8 12  1  0  0  0  0
  9 27  1  0  0  0  0
  9 25  1  0  0  0  0
 10 17  1  0  0  0  0
 11 20  1  0  0  0  0
 12 15  1  0  0  0  0
 13  9  1  0  0  0  0
 15  4  1  0  0  0  0
 16  3  1  0  0  0  0
 16  8  1  0  0  0  0
 17 25  1  0  0  0  0
 17 28  1  0  0  0  0
 18  1  1  0  0  0  0
 19  5  1  0  0  0  0
 20 18  1  0  0  0  0
 20 13  1  0  0  0  0
 21 26  2  0  0  0  0
 22 10  1  0  0  0  0
 23 21  1  0  0  0  0
 24 13  1  0  0  0  0
 24 22  1  0  0  0  0
 25 14  1  0  0  0  0
 27  2  1  0  0  0  0
 28 29  1  0  0  0  0
 29 32  1  0  0  0  0
 31 33  1  0  0  0  0
 31 32  1  0  0  0  0
 32 34  1  0  0  0  0
 33 30  1  0  0  0  0
 34 30  1  0  0  0  0
M  END
>  <MODEL>
4

>  <REMARK>
 VINA RESULT:      -8.2      3.904      9.048
  Name = 
  3 active torsions:
  status: ('A' for Active; 'I' for Inactive)
    1  A    between atoms: C_17  and  C_28
    2  A    between atoms: C_28  and  C_29
    3  A    between atoms: C_29  and  C_32
                            x       y       z     vdW  Elec       q    Type
                         _______ _______ _______ _____ _____    ______ ____

>  <TORSDO>
F 3

$$$$
=
 OpenBabel11122414303D

 34 42  0  0  1  0  0  0  0  0999 V2000
  162.3330  208.0430  149.5020 C   0  0  2  0  0  3  0  0  0  0  0  0
  162.3340  206.5770  147.3240 C   0  0  0  0  0  2  0  0  0  0  0  0
  161.4400  209.0820  155.8610 C   0  0  2  0  0  0  0  0  0  0  0  0
  161.7350  209.3930  151.4880 C   0  0  1  0  0  3  0  0  0  0  0  0
  161.2850  208.1800  153.6680 C   0  0  1  0  0  3  0  0  0  0  0  0
  161.0800  207.6020  156.1780 C   0  0  1  0  0  3  0  0  0  0  0  0
  161.5500  208.5270  157.2610 C   0  0  0  0  0  2  0  0  0  0  0  0
  160.4060  211.1150  154.7080 C   0  0  0  0  0  2  0  0  0  0  0  0
  161.1850  205.8060  149.2670 C   0  0  2  0  0  3  0  0  0  0  0  0
  161.0660  202.7150  150.0500 C   0  0  0  0  0  2  0  0  0  0  0  0
  160.8310  206.9400  152.9100 C   0  0  0  0  0  2  0  0  0  0  0  0
  161.4020  210.7480  153.5890 C   0  0  0  0  0  2  0  0  0  0  0  0
  161.2870  205.5190  150.7780 C   0  0  1  0  0  3  0  0  0  0  0  0
  161.8920  205.1440  147.0410 C   0  0  0  0  0  2  0  0  0  0  0  0
  161.0040  209.4570  152.8370 C   0  0  1  0  0  3  0  0  0  0  0  0
  160.5840  210.3300  156.0310 C   0  0  0  0  0  2  0  0  0  0  0  0
  161.8120  203.3430  148.8500 C   0  0  2  0  0  3  0  0  0  0  0  0
  161.4290  208.0900  150.7420 C   0  0  2  0  0  3  0  0  0  0  0  0
  160.5190  208.2740  154.9710 C   0  0  1  0  0  3  0  0  0  0  0  0
  161.5990  206.8160  151.5950 C   0  0  1  0  0  3  0  0  0  0  0  0
  161.6620  210.3960  149.1250 C   0  0  0  0  0  3  0  0  0  0  0  0
  159.7930  203.4520  150.4720 C   0  0  0  0  0  2  0  0  0  0  0  0
  161.3240  210.5780  150.5920 C   0  0  0  0  0  2  0  0  0  0  0  0
  160.0880  204.7080  151.2950 C   0  0  0  0  0  2  0  0  0  0  0  0
  161.1600  204.6280  148.2900 C   0  0  1  0  0  3  0  0  0  0  0  0
  162.0760  209.2260  148.6090 C   0  0  0  0  0  3  0  0  0  0  0  0
  162.3480  206.6570  148.8290 C   0  0  2  0  0  3  0  0  0  0  0  0
  161.9530  202.2870  147.7610 C   0  0  0  0  0  2  0  0  0  0  0  0
  160.5960  201.9660  147.1570 C   0  0  0  0  0  2  0  0  0  0  0  0
  159.2190  202.8270  144.1290 N   0  0  0  0  0  2  0  0  0  0  0  0
  161.2010  203.1160  145.0430 C   0  0  0  0  0  2  0  0  0  0  0  0
  160.7110  201.8280  145.6490 C   0  0  2  0  0  3  0  0  0  0  0  0
  160.0850  203.7970  144.5390 O   0  0  0  0  0  0  0  0  0  0  0  0
  159.3410  201.7200  145.0620 C   0  0  0  0  0  2  0  0  0  0  0  0
  1 26  1  6  0  0  0
  1 18  1  0  0  0  0
  2 27  1  0  0  0  0
  3 16  1  1  0  0  0
  3  6  1  0  0  0  0
  3  7  1  0  0  0  0
  4 23  1  6  0  0  0
  4 15  1  0  0  0  0
  5 11  1  6  0  0  0
  5 19  1  0  0  0  0
  6  7  1  1  0  0  0
  8 16  1  0  0  0  0
  9 13  1  0  0  0  0
 10 22  1  0  0  0  0
 12  8  1  0  0  0  0
 13 24  1  0  0  0  0
 13 20  1  0  0  0  0
 14  2  1  0  0  0  0
 14 25  1  0  0  0  0
 15 12  1  0  0  0  0
 15  5  1  0  0  0  0
 17 10  1  0  0  0  0
 18  4  1  0  0  0  0
 18 20  1  0  0  0  0
 19  3  1  0  0  0  0
 19  6  1  0  0  0  0
 20 11  1  0  0  0  0
 21 23  1  0  0  0  0
 22 24  1  0  0  0  0
 25 17  1  0  0  0  0
 25  9  1  0  0  0  0
 26 21  2  0  0  0  0
 27  9  1  0  0  0  0
 27  1  1  0  0  0  0
 28 17  1  0  0  0  0
 29 28  1  0  0  0  0
 30 33  1  0  0  0  0
 30 34  1  0  0  0  0
 31 32  1  0  0  0  0
 32 29  1  0  0  0  0
 33 31  1  0  0  0  0
 34 32  1  0  0  0  0
M  END
>  <MODEL>
5

>  <REMARK>
 VINA RESULT:      -7.9      1.795      4.624
  Name = 
  3 active torsions:
  status: ('A' for Active; 'I' for Inactive)
    1  A    between atoms: C_17  and  C_28
    2  A    between atoms: C_28  and  C_29
    3  A    between atoms: C_29  and  C_32
                            x       y       z     vdW  Elec       q    Type
                         _______ _______ _______ _____ _____    ______ ____

>  <TORSDO>
F 3

$$$$
=
 OpenBabel11122414303D

 34 42  0  0  1  0  0  0  0  0999 V2000
  162.3070  208.2750  149.4880 C   0  0  2  0  0  3  0  0  0  0  0  0
  162.3410  206.9620  147.2150 C   0  0  0  0  0  2  0  0  0  0  0  0
  161.3930  208.8590  155.9020 C   0  0  2  0  0  0  0  0  0  0  0  0
  161.6790  209.4730  151.5610 C   0  0  1  0  0  3  0  0  0  0  0  0
  161.2580  208.1050  153.6530 C   0  0  1  0  0  3  0  0  0  0  0  0
  161.0670  207.3530  156.1170 C   0  0  1  0  0  3  0  0  0  0  0  0
  161.5160  208.2120  157.2610 C   0  0  0  0  0  2  0  0  0  0  0  0
  160.3140  210.9420  154.8880 C   0  0  0  0  0  2  0  0  0  0  0  0
  161.2100  206.0350  149.1000 C   0  0  2  0  0  3  0  0  0  0  0  0
  161.1610  202.8950  149.6700 C   0  0  0  0  0  2  0  0  0  0  0  0
  160.8310  206.9090  152.8110 C   0  0  0  0  0  2  0  0  0  0  0  0
  161.3170  210.6750  153.7490 C   0  0  0  0  0  2  0  0  0  0  0  0
  161.3180  205.6470  150.5880 C   0  0  1  0  0  3  0  0  0  0  0  0
  161.9310  205.5420  146.8350 C   0  0  0  0  0  2  0  0  0  0  0  0
  160.9480  209.4290  152.9100 C   0  0  1  0  0  3  0  0  0  0  0  0
  160.5090  210.0730  156.1550 C   0  0  0  0  0  2  0  0  0  0  0  0
  161.8920  203.6200  148.5170 C   0  0  2  0  0  3  0  0  0  0  0  0
  161.4020  208.2180  150.7280 C   0  0  2  0  0  3  0  0  0  0  0  0
  160.4900  208.0930  154.9580 C   0  0  1  0  0  3  0  0  0  0  0  0
  161.6020  206.8930  151.4920 C   0  0  1  0  0  3  0  0  0  0  0  0
  161.5840  210.6330  149.2710 C   0  0  0  0  0  3  0  0  0  0  0  0
  159.8710  203.5730  150.1410 C   0  0  0  0  0  2  0  0  0  0  0  0
  161.2410  210.7080  150.7470 C   0  0  0  0  0  2  0  0  0  0  0  0
  160.1380  204.7770  151.0480 C   0  0  0  0  0  2  0  0  0  0  0  0
  161.2110  204.9260  148.0450 C   0  0  1  0  0  3  0  0  0  0  0  0
  162.0230  209.5110  148.6770 C   0  0  0  0  0  3  0  0  0  0  0  0
  162.3530  206.9390  148.7230 C   0  0  2  0  0  3  0  0  0  0  0  0
  162.0560  202.6440  147.3590 C   0  0  0  0  0  2  0  0  0  0  0  0
  160.8310  202.6780  146.4610 C   0  0  0  0  0  2  0  0  0  0  0  0
  160.7440  199.4590  145.2600 N   0  0  0  0  0  2  0  0  0  0  0  0
  160.9200  200.3340  147.2730 C   0  0  0  0  0  2  0  0  0  0  0  0
  160.1040  201.3440  146.5120 C   0  0  2  0  0  3  0  0  0  0  0  0
  161.5820  199.5330  146.3330 O   0  0  0  0  0  0  0  0  0  0  0  0
  160.0810  200.7480  145.1430 C   0  0  0  0  0  2  0  0  0  0  0  0
  1 26  1  6  0  0  0
  1 18  1  0  0  0  0
  2 27  1  0  0  0  0
  3  6  1  0  0  0  0
  3 16  1  1  0  0  0
  3  7  1  0  0  0  0
  4 23  1  6  0  0  0
  4 15  1  0  0  0  0
  5 11  1  6  0  0  0
  5 19  1  0  0  0  0
  6  7  1  1  0  0  0
  8 16  1  0  0  0  0
  9 13  1  0  0  0  0
 10 22  1  0  0  0  0
 12  8  1  0  0  0  0
 13 24  1  0  0  0  0
 13 20  1  0  0  0  0
 14  2  1  0  0  0  0
 14 25  1  0  0  0  0
 15  5  1  0  0  0  0
 15 12  1  0  0  0  0
 17 10  1  0  0  0  0
 18 20  1  0  0  0  0
 18  4  1  0  0  0  0
 19  3  1  0  0  0  0
 19  6  1  0  0  0  0
 20 11  1  0  0  0  0
 21 23  1  0  0  0  0
 22 24  1  0  0  0  0
 25 17  1  0  0  0  0
 25  9  1  0  0  0  0
 26 21  2  0  0  0  0
 27  9  1  0  0  0  0
 27  1  1  0  0  0  0
 28 17  1  0  0  0  0
 29 32  1  0  0  0  0
 29 28  1  0  0  0  0
 30 33  1  0  0  0  0
 32 31  1  0  0  0  0
 33 31  1  0  0  0  0
 34 30  1  0  0  0  0
 34 32  1  0  0  0  0
M  END
>  <MODEL>
6

>  <REMARK>
 VINA RESULT:      -7.5      2.020      4.780
  Name = 
  3 active torsions:
  status: ('A' for Active; 'I' for Inactive)
    1  A    between atoms: C_17  and  C_28
    2  A    between atoms: C_28  and  C_29
    3  A    between atoms: C_29  and  C_32
                            x       y       z     vdW  Elec       q    Type
                         _______ _______ _______ _____ _____    ______ ____

>  <TORSDO>
F 3

$$$$
