=
 OpenBabel11122413093D

 31 35  0  0  1  0  0  0  0  0999 V2000
  160.9070  206.5890  146.7190 C   0  0  0  0  0  0  0  0  0  0  0  0
  160.3170  205.0160  150.1310 C   0  0  2  0  0  3  0  0  0  0  0  0
  160.7380  203.5550  150.0070 C   0  0  0  0  0  0  0  0  0  0  0  0
  161.1370  201.6000  148.6110 C   0  0  0  0  0  0  0  0  0  0  0  0
  160.8940  205.8970  149.0480 C   0  0  0  0  0  0  0  0  0  0  0  0
  161.9910  207.4320  146.9710 C   0  0  0  0  0  3  0  0  0  0  0  0
  160.8310  202.9560  148.7410 C   0  0  0  0  0  3  0  0  0  0  0  0
  162.0640  205.9480  151.7100 C   0  0  2  0  0  3  0  0  0  0  0  0
  160.3760  206.5060  145.4400 O   0  0  0  0  0  1  0  0  0  0  0  0
  160.8310  203.3090  152.5420 C   0  0  0  0  0  2  0  0  0  0  0  0
  161.2660  200.8830  147.0200 Cl  0  0  0  0  0  0  0  0  0  0  0  0
  162.4940  207.0040  150.6920 C   0  0  0  0  0  2  0  0  0  0  0  0
  160.5750  205.6020  151.5320 C   0  0  2  0  0  3  0  0  0  0  0  0
  160.3600  205.8270  147.7540 C   0  0  0  0  0  3  0  0  0  0  0  0
  161.3330  200.8170  149.7480 C   0  0  0  0  0  3  0  0  0  0  0  0
  161.9840  206.7570  149.3020 C   0  0  0  0  0  0  0  0  0  0  0  0
  162.5200  207.5230  148.2610 C   0  0  0  0  0  3  0  0  0  0  0  0
  160.0670  204.6280  152.5930 C   0  0  0  0  0  2  0  0  0  0  0  0
  160.9000  202.7440  151.1560 C   0  0  0  0  0  0  0  0  0  0  0  0
  161.2160  201.3890  151.0160 C   0  0  0  0  0  3  0  0  0  0  0  0
  162.3210  206.4500  152.9960 O   0  0  0  0  0  0  0  0  0  0  0  0
  160.4570  206.9530  154.4190 C   0  0  0  0  0  1  0  0  0  0  0  0
  161.3360  207.4160  153.2580 C   0  0  1  0  0  3  0  0  0  0  0  0
  159.6800  210.7030  154.3720 C   0  0  1  0  0  3  0  0  0  0  0  0
  161.5830  209.1860  155.0510 C   0  0  0  0  0  2  0  0  0  0  0  0
  161.5820  209.5870  151.0970 O   0  0  0  0  0  0  0  0  0  0  0  0
  158.2320  211.0360  154.6630 C   0  0  0  0  0  1  0  0  0  0  0  0
  160.0820  209.4670  155.1730 C   0  0  0  0  0  2  0  0  0  0  0  0
  161.5800  210.1480  152.5120 S   0  0  2  0  0  0  0  0  0  0  0  0
  161.9760  208.7680  153.6300 C   0  0  2  0  0  3  0  0  0  0  0  0
  159.8470  210.4670  152.8770 C   0  0  0  0  0  2  0  0  0  0  0  0
  1  6  2  0  0  0  0
  1 14  1  0  0  0  0
  2  5  1  6  0  0  0
  2 13  1  0  0  0  0
  3  2  1  0  0  0  0
  3 19  1  0  0  0  0
  4  7  1  0  0  0  0
  4 15  2  0  0  0  0
  5 16  1  0  0  0  0
  6 17  1  0  0  0  0
  7  3  2  0  0  0  0
  8 21  1  1  0  0  0
  9  1  1  0  0  0  0
 10 18  1  0  0  0  0
 11  4  1  0  0  0  0
 12  8  1  0  0  0  0
 13  8  1  0  0  0  0
 13 18  1  1  0  0  0
 14  5  2  0  0  0  0
 15 20  1  0  0  0  0
 16 12  1  0  0  0  0
 17 16  2  0  0  0  0
 19 10  1  0  0  0  0
 20 19  2  0  0  0  0
 21 23  1  0  0  0  0
 23 22  1  1  0  0  0
 24 27  1  6  0  0  0
 24 28  1  0  0  0  0
 25 28  1  0  0  0  0
 29 26  2  6  0  0  0
 29 31  1  0  0  0  0
 29 30  1  0  0  0  0
 30 23  1  6  0  0  0
 30 25  1  0  0  0  0
 31 24  1  0  0  0  0
M  END
>  <MODEL>
1

>  <REMARK>
 VINA RESULT:      -8.1      0.000      0.000
  Name = 
  3 active torsions:
  status: ('A' for Active; 'I' for Inactive)
    1  A    between atoms: C_5  and  O_16
    2  A    between atoms: C_5  and  C_30
    3  A    between atoms: C_10  and  O_16
                            x       y       z     vdW  Elec       q    Type
                         _______ _______ _______ _____ _____    ______ ____

>  <TORSDO>
F 3

$$$$
=
 OpenBabel11122413093D

 31 35  0  0  1  0  0  0  0  0999 V2000
  160.5800  207.6330  156.2790 C   0  0  0  0  0  0  0  0  0  0  0  0
  161.8830  208.9500  152.9580 C   0  0  2  0  0  3  0  0  0  0  0  0
  161.4700  207.9310  151.9010 C   0  0  0  0  0  0  0  0  0  0  0  0
  160.8260  205.6540  151.3250 C   0  0  0  0  0  0  0  0  0  0  0  0
  161.0820  208.8450  154.2340 C   0  0  0  0  0  0  0  0  0  0  0  0
  159.5570  208.5370  156.5690 C   0  0  0  0  0  3  0  0  0  0  0  0
  161.1290  206.6230  152.2820 C   0  0  0  0  0  3  0  0  0  0  0  0
  160.4810  210.9670  152.3380 C   0  0  2  0  0  3  0  0  0  0  0  0
  160.8400  206.5780  157.1420 O   0  0  0  0  0  1  0  0  0  0  0  0
  161.9030  209.6090  150.0320 C   0  0  0  0  0  2  0  0  0  0  0  0
  160.3860  204.0370  151.8280 Cl  0  0  0  0  0  0  0  0  0  0  0  0
  159.8340  211.0060  153.7230 C   0  0  0  0  0  2  0  0  0  0  0  0
  161.9080  210.3960  152.4250 C   0  0  2  0  0  3  0  0  0  0  0  0
  161.3400  207.7880  155.1180 C   0  0  0  0  0  3  0  0  0  0  0  0
  160.8800  205.9730  149.9680 C   0  0  0  0  0  3  0  0  0  0  0  0
  160.0530  209.7630  154.5350 C   0  0  0  0  0  0  0  0  0  0  0  0
  159.3020  209.6040  155.7050 C   0  0  0  0  0  3  0  0  0  0  0  0
  162.6390  210.4330  151.0850 C   0  0  0  0  0  2  0  0  0  0  0  0
  161.5610  208.2350  150.5220 C   0  0  0  0  0  0  0  0  0  0  0  0
  161.2450  207.2600  149.5690 C   0  0  0  0  0  3  0  0  0  0  0  0
  160.4840  212.2720  151.8200 O   0  0  0  0  0  0  0  0  0  0  0  0
  158.0960  212.3560  152.0240 C   0  0  0  0  0  1  0  0  0  0  0  0
  159.2980  212.4170  151.0820 C   0  0  1  0  0  3  0  0  0  0  0  0
  157.9390  213.2840  147.5910 C   0  0  1  0  0  3  0  0  0  0  0  0
  157.8420  214.1580  149.9610 C   0  0  0  0  0  2  0  0  0  0  0  0
  161.5720  213.0710  149.1210 O   0  0  0  0  0  0  0  0  0  0  0  0
  157.1930  212.4410  146.5790 C   0  0  0  0  0  1  0  0  0  0  0  0
  157.2330  213.1900  148.9420 C   0  0  0  0  0  2  0  0  0  0  0  0
  160.2910  213.8400  148.8310 S   0  0  2  0  0  0  0  0  0  0  0  0
  159.2740  213.7670  150.3380 C   0  0  2  0  0  3  0  0  0  0  0  0
  159.3760  212.7930  147.6870 C   0  0  0  0  0  2  0  0  0  0  0  0
  1  6  1  0  0  0  0
  1  9  1  0  0  0  0
  2  3  1  6  0  0  0
  2  5  1  0  0  0  0
  3  7  1  0  0  0  0
  4 11  1  0  0  0  0
  4  7  2  0  0  0  0
  5 16  2  0  0  0  0
  5 14  1  0  0  0  0
  8 21  1  1  0  0  0
  8 13  1  0  0  0  0
  8 12  1  0  0  0  0
 10 19  1  0  0  0  0
 10 18  1  0  0  0  0
 12 16  1  0  0  0  0
 13 18  1  6  0  0  0
 13  2  1  0  0  0  0
 14  1  2  0  0  0  0
 15  4  1  0  0  0  0
 16 17  1  0  0  0  0
 17  6  2  0  0  0  0
 19  3  2  0  0  0  0
 20 15  2  0  0  0  0
 20 19  1  0  0  0  0
 23 21  1  0  0  0  0
 23 22  1  1  0  0  0
 24 27  1  6  0  0  0
 24 31  1  0  0  0  0
 24 28  1  0  0  0  0
 25 30  1  0  0  0  0
 28 25  1  0  0  0  0
 29 26  2  1  0  0  0
 29 30  1  0  0  0  0
 30 23  1  6  0  0  0
 31 29  1  0  0  0  0
M  END
>  <MODEL>
2

>  <REMARK>
 VINA RESULT:      -8.1      3.399      6.768
  Name = 
  3 active torsions:
  status: ('A' for Active; 'I' for Inactive)
    1  A    between atoms: C_5  and  O_16
    2  A    between atoms: C_5  and  C_30
    3  A    between atoms: C_10  and  O_16
                            x       y       z     vdW  Elec       q    Type
                         _______ _______ _______ _____ _____    ______ ____

>  <TORSDO>
F 3

$$$$
=
 OpenBabel11122413093D

 31 35  0  0  1  0  0  0  0  0999 V2000
  161.6770  207.7490  151.8140 C   0  0  0  0  0  0  0  0  0  0  0  0
  159.6060  210.6340  153.1750 C   0  0  2  0  0  3  0  0  0  0  0  0
  160.2320  211.0170  154.5120 C   0  0  0  0  0  0  0  0  0  0  0  0
  161.5820  210.4060  156.4450 C   0  0  0  0  0  0  0  0  0  0  0  0
  160.5350  209.8420  152.2860 C   0  0  0  0  0  0  0  0  0  0  0  0
  162.3310  208.3450  150.7340 C   0  0  0  0  0  3  0  0  0  0  0  0
  161.0640  210.1070  155.1840 C   0  0  0  0  0  3  0  0  0  0  0  0
  160.1030  212.6660  151.7470 C   0  0  2  0  0  3  0  0  0  0  0  0
  161.9190  206.4180  152.1230 O   0  0  0  0  0  1  0  0  0  0  0  0
  159.0070  213.2520  154.5100 C   0  0  0  0  0  2  0  0  0  0  0  0
  162.6320  209.2630  157.2520 Cl  0  0  0  0  0  0  0  0  0  0  0  0
  160.8500  211.8210  150.7150 C   0  0  0  0  0  2  0  0  0  0  0  0
  158.9990  211.8360  152.4260 C   0  0  2  0  0  3  0  0  0  0  0  0
  160.7810  208.4940  152.5840 C   0  0  0  0  0  3  0  0  0  0  0  0
  161.2570  211.6130  157.0630 C   0  0  0  0  0  3  0  0  0  0  0  0
  161.1910  210.4390  151.1880 C   0  0  0  0  0  0  0  0  0  0  0  0
  162.0800  209.6820  150.4170 C   0  0  0  0  0  3  0  0  0  0  0  0
  158.1520  212.6630  153.3920 C   0  0  0  0  0  2  0  0  0  0  0  0
  159.8770  212.2220  155.1640 C   0  0  0  0  0  0  0  0  0  0  0  0
  160.4090  212.5180  156.4230 C   0  0  0  0  0  3  0  0  0  0  0  0
  159.5680  213.7860  151.0900 O   0  0  0  0  0  0  0  0  0  0  0  0
  157.6630  212.9830  149.8740 C   0  0  0  0  0  1  0  0  0  0  0  0
  159.1460  213.3500  149.8240 C   0  0  1  0  0  3  0  0  0  0  0  0
  159.6470  213.0590  146.0220 C   0  0  1  0  0  3  0  0  0  0  0  0
  158.2670  214.3730  147.6820 C   0  0  0  0  0  2  0  0  0  0  0  0
  162.0060  214.1190  149.0050 O   0  0  0  0  0  0  0  0  0  0  0  0
  159.6170  211.8530  145.1070 C   0  0  0  0  0  1  0  0  0  0  0  0
  158.3720  213.0840  146.8620 C   0  0  0  0  0  2  0  0  0  0  0  0
  160.9680  214.4530  147.9430 S   0  0  2  0  0  0  0  0  0  0  0  0
  159.3460  214.4530  148.7660 C   0  0  2  0  0  3  0  0  0  0  0  0
  160.8850  212.9840  146.9060 C   0  0  0  0  0  2  0  0  0  0  0  0
  1  9  1  0  0  0  0
  1 14  1  0  0  0  0
  2  5  1  6  0  0  0
  2  3  1  0  0  0  0
  3 19  2  0  0  0  0
  3  7  1  0  0  0  0
  4 15  1  0  0  0  0
  4 11  1  0  0  0  0
  5 14  2  0  0  0  0
  6  1  2  0  0  0  0
  7  4  2  0  0  0  0
  8 21  1  6  0  0  0
  8 13  1  0  0  0  0
 10 19  1  0  0  0  0
 12 16  1  0  0  0  0
 12  8  1  0  0  0  0
 13  2  1  0  0  0  0
 13 18  1  1  0  0  0
 16  5  1  0  0  0  0
 17  6  1  0  0  0  0
 17 16  2  0  0  0  0
 18 10  1  0  0  0  0
 19 20  1  0  0  0  0
 20 15  2  0  0  0  0
 23 22  1  1  0  0  0
 23 21  1  0  0  0  0
 24 27  1  6  0  0  0
 24 28  1  0  0  0  0
 24 31  1  0  0  0  0
 25 30  1  0  0  0  0
 28 25  1  0  0  0  0
 29 30  1  0  0  0  0
 29 26  2  1  0  0  0
 30 23  1  1  0  0  0
 31 29  1  0  0  0  0
M  END
>  <MODEL>
3

>  <REMARK>
 VINA RESULT:      -7.2      4.584      8.273
  Name = 
  3 active torsions:
  status: ('A' for Active; 'I' for Inactive)
    1  A    between atoms: C_5  and  O_16
    2  A    between atoms: C_5  and  C_30
    3  A    between atoms: C_10  and  O_16
                            x       y       z     vdW  Elec       q    Type
                         _______ _______ _______ _____ _____    ______ ____

>  <TORSDO>
F 3

$$$$
=
 OpenBabel11122413093D

 31 35  0  0  1  0  0  0  0  0999 V2000
  160.8400  206.5630  146.8060 C   0  0  0  0  0  0  0  0  0  0  0  0
  160.3770  205.6400  150.4660 C   0  0  2  0  0  3  0  0  0  0  0  0
  160.8220  204.1880  150.6010 C   0  0  0  0  0  0  0  0  0  0  0  0
  161.2190  202.0140  149.5760 C   0  0  0  0  0  0  0  0  0  0  0  0
  160.9060  206.3130  149.2220 C   0  0  0  0  0  0  0  0  0  0  0  0
  161.9140  207.4530  146.8640 C   0  0  0  0  0  3  0  0  0  0  0  0
  160.8910  203.3650  149.4650 C   0  0  0  0  0  3  0  0  0  0  0  0
  162.1500  206.8720  151.7900 C   0  0  2  0  0  3  0  0  0  0  0  0
  160.2740  206.2380  145.5820 O   0  0  0  0  0  1  0  0  0  0  0  0
  160.9910  204.4150  153.1340 C   0  0  0  0  0  2  0  0  0  0  0  0
  161.3170  201.0160  148.1420 Cl  0  0  0  0  0  0  0  0  0  0  0  0
  162.5300  207.7270  150.5820 C   0  0  0  0  0  2  0  0  0  0  0  0
  160.6630  206.4780  151.7260 C   0  0  2  0  0  3  0  0  0  0  0  0
  160.3370  205.9980  147.9800 C   0  0  0  0  0  3  0  0  0  0  0  0
  161.4620  201.4570  150.8320 C   0  0  0  0  0  3  0  0  0  0  0  0
  161.9860  207.2210  149.2790 C   0  0  0  0  0  0  0  0  0  0  0  0
  162.4770  207.7880  148.0980 C   0  0  0  0  0  3  0  0  0  0  0  0
  160.2040  205.7110  152.9650 C   0  0  0  0  0  2  0  0  0  0  0  0
  161.0320  203.6050  151.8740 C   0  0  0  0  0  0  0  0  0  0  0  0
  161.3700  202.2520  151.9760 C   0  0  0  0  0  3  0  0  0  0  0  0
  162.4340  207.6060  152.9530 O   0  0  0  0  0  0  0  0  0  0  0  0
  160.7690  208.2780  154.5440 C   0  0  0  0  0  1  0  0  0  0  0  0
  161.3570  208.4870  153.1490 C   0  0  1  0  0  3  0  0  0  0  0  0
  161.2280  211.3450  155.7180 C   0  0  1  0  0  3  0  0  0  0  0  0
  162.8540  210.2990  154.0900 C   0  0  0  0  0  2  0  0  0  0  0  0
  159.2920  210.6190  152.3550 O   0  0  0  0  0  0  0  0  0  0  0  0
  160.8060  211.3540  157.1720 C   0  0  0  0  0  1  0  0  0  0  0  0
  162.2630  210.2430  155.5020 C   0  0  0  0  0  2  0  0  0  0  0  0
  160.4840  211.1910  153.1100 S   0  0  2  0  0  0  0  0  0  0  0  0
  161.8140  209.9530  153.0190 C   0  0  2  0  0  3  0  0  0  0  0  0
  160.0020  211.1250  154.8440 C   0  0  0  0  0  2  0  0  0  0  0  0
  1  6  2  0  0  0  0
  1 14  1  0  0  0  0
  2  5  1  6  0  0  0
  2  3  1  0  0  0  0
  2 13  1  0  0  0  0
  3 19  1  0  0  0  0
  4 15  2  0  0  0  0
  5 16  1  0  0  0  0
  6 17  1  0  0  0  0
  7  4  1  0  0  0  0
  7  3  2  0  0  0  0
  8 21  1  1  0  0  0
  9  1  1  0  0  0  0
 11  4  1  0  0  0  0
 12  8  1  0  0  0  0
 13  8  1  0  0  0  0
 13 18  1  1  0  0  0
 14  5  2  0  0  0  0
 15 20  1  0  0  0  0
 16 12  1  0  0  0  0
 17 16  2  0  0  0  0
 18 10  1  0  0  0  0
 19 20  2  0  0  0  0
 19 10  1  0  0  0  0
 21 23  1  0  0  0  0
 23 22  1  1  0  0  0
 24 27  1  1  0  0  0
 25 28  1  0  0  0  0
 28 24  1  0  0  0  0
 29 26  2  6  0  0  0
 29 31  1  0  0  0  0
 30 29  1  0  0  0  0
 30 23  1  1  0  0  0
 30 25  1  0  0  0  0
 31 24  1  0  0  0  0
M  END
>  <MODEL>
4

>  <REMARK>
 VINA RESULT:      -6.6      1.215      1.422
  Name = 
  3 active torsions:
  status: ('A' for Active; 'I' for Inactive)
    1  A    between atoms: C_5  and  O_16
    2  A    between atoms: C_5  and  C_30
    3  A    between atoms: C_10  and  O_16
                            x       y       z     vdW  Elec       q    Type
                         _______ _______ _______ _____ _____    ______ ____

>  <TORSDO>
F 3

$$$$
=
 OpenBabel11122413093D

 31 35  0  0  1  0  0  0  0  0999 V2000
  162.0140  213.3680  147.3910 C   0  0  0  0  0  0  0  0  0  0  0  0
  159.7600  214.1910  150.3410 C   0  0  2  0  0  3  0  0  0  0  0  0
  158.3280  214.0950  149.8260 C   0  0  0  0  0  0  0  0  0  0  0  0
  156.7630  214.1590  147.9610 C   0  0  0  0  0  0  0  0  0  0  0  0
  160.7580  213.4670  149.4680 C   0  0  0  0  0  0  0  0  0  0  0  0
  162.5280  212.1230  147.7560 C   0  0  0  0  0  3  0  0  0  0  0  0
  158.0710  214.1650  148.4470 C   0  0  0  0  0  3  0  0  0  0  0  0
  159.8830  212.2440  151.9570 C   0  0  2  0  0  3  0  0  0  0  0  0
  162.3730  213.9380  146.1780 O   0  0  0  0  0  1  0  0  0  0  0  0
  157.4190  213.9900  152.2050 C   0  0  0  0  0  2  0  0  0  0  0  0
  156.4720  214.2270  146.2370 Cl  0  0  0  0  0  0  0  0  0  0  0  0
  161.0590  211.6250  151.2010 C   0  0  0  0  0  2  0  0  0  0  0  0
  159.8990  213.7770  151.8190 C   0  0  2  0  0  3  0  0  0  0  0  0
  161.1350  214.0370  148.2440 C   0  0  0  0  0  3  0  0  0  0  0  0
  155.6890  214.1050  148.8490 C   0  0  0  0  0  3  0  0  0  0  0  0
  161.2880  212.2130  149.8400 C   0  0  0  0  0  0  0  0  0  0  0  0
  162.1750  211.5530  148.9810 C   0  0  0  0  0  3  0  0  0  0  0  0
  158.8050  214.4530  152.6430 C   0  0  0  0  0  2  0  0  0  0  0  0
  157.2310  214.0800  150.7210 C   0  0  0  0  0  0  0  0  0  0  0  0
  155.9240  214.0640  150.2240 C   0  0  0  0  0  3  0  0  0  0  0  0
  159.9720  211.8520  153.3020 O   0  0  0  0  0  0  0  0  0  0  0  0
  160.2100  209.5250  152.7720 C   0  0  0  0  0  1  0  0  0  0  0  0
  159.3330  210.6060  153.4050 C   0  0  1  0  0  3  0  0  0  0  0  0
  158.6960  212.8760  156.4420 C   0  0  1  0  0  3  0  0  0  0  0  0
  157.7400  210.8010  155.3620 C   0  0  0  0  0  2  0  0  0  0  0  0
  161.7080  210.5690  155.3540 O   0  0  0  0  0  0  0  0  0  0  0  0
  158.5270  214.3770  156.5410 C   0  0  0  0  0  1  0  0  0  0  0  0
  157.7380  212.3320  155.3840 C   0  0  0  0  0  2  0  0  0  0  0  0
  160.3680  210.7730  156.0460 S   0  0  2  0  0  0  0  0  0  0  0  0
  159.0800  210.2360  154.8790 C   0  0  2  0  0  3  0  0  0  0  0  0
  160.1420  212.5590  156.0890 C   0  0  0  0  0  2  0  0  0  0  0  0
  1  6  2  0  0  0  0
  1 14  1  0  0  0  0
  2  5  1  6  0  0  0
  2 13  1  0  0  0  0
  3  2  1  0  0  0  0
  3 19  1  0  0  0  0
  4  7  1  0  0  0  0
  4 15  2  0  0  0  0
  5 16  1  0  0  0  0
  6 17  1  0  0  0  0
  7  3  2  0  0  0  0
  8 21  1  1  0  0  0
  9  1  1  0  0  0  0
 10 18  1  0  0  0  0
 11  4  1  0  0  0  0
 12  8  1  0  0  0  0
 13  8  1  0  0  0  0
 13 18  1  1  0  0  0
 14  5  2  0  0  0  0
 15 20  1  0  0  0  0
 16 12  1  0  0  0  0
 17 16  2  0  0  0  0
 19 10  1  0  0  0  0
 20 19  2  0  0  0  0
 21 23  1  0  0  0  0
 23 22  1  1  0  0  0
 24 27  1  6  0  0  0
 25 28  1  0  0  0  0
 28 24  1  0  0  0  0
 29 26  2  6  0  0  0
 29 31  1  0  0  0  0
 30 23  1  6  0  0  0
 30 25  1  0  0  0  0
 30 29  1  0  0  0  0
 31 24  1  0  0  0  0
M  END
>  <MODEL>
5

>  <REMARK>
 VINA RESULT:      -5.7      5.764      8.215
  Name = 
  3 active torsions:
  status: ('A' for Active; 'I' for Inactive)
    1  A    between atoms: C_5  and  O_16
    2  A    between atoms: C_5  and  C_30
    3  A    between atoms: C_10  and  O_16
                            x       y       z     vdW  Elec       q    Type
                         _______ _______ _______ _____ _____    ______ ____

>  <TORSDO>
F 3

$$$$
=
 OpenBabel11122413093D

 31 35  0  0  1  0  0  0  0  0999 V2000
  161.9630  212.9140  148.6510 C   0  0  0  0  0  0  0  0  0  0  0  0
  159.1540  214.0460  150.9510 C   0  0  2  0  0  3  0  0  0  0  0  0
  157.8990  214.1200  150.0890 C   0  0  0  0  0  0  0  0  0  0  0  0
  156.8770  214.3520  147.8900 C   0  0  0  0  0  0  0  0  0  0  0  0
  160.2440  213.1940  150.3450 C   0  0  0  0  0  0  0  0  0  0  0  0
  162.2120  211.6200  149.1110 C   0  0  0  0  0  3  0  0  0  0  0  0
  158.0100  214.2030  148.6910 C   0  0  0  0  0  3  0  0  0  0  0  0
  158.6250  212.1190  152.5080 C   0  0  2  0  0  3  0  0  0  0  0  0
  162.6850  213.4200  147.5790 O   0  0  0  0  0  1  0  0  0  0  0  0
  156.4110  214.1590  152.1580 C   0  0  0  0  0  2  0  0  0  0  0  0
  157.0430  214.4340  146.1500 Cl  0  0  0  0  0  0  0  0  0  0  0  0
  159.8690  211.3510  152.0630 C   0  0  0  0  0  2  0  0  0  0  0  0
  158.8630  213.6370  152.4070 C   0  0  2  0  0  3  0  0  0  0  0  0
  160.9850  213.6970  149.2670 C   0  0  0  0  0  3  0  0  0  0  0  0
  155.6150  214.4420  148.4760 C   0  0  0  0  0  3  0  0  0  0  0  0
  160.5050  211.8880  150.8140 C   0  0  0  0  0  0  0  0  0  0  0  0
  161.4930  211.1140  150.1960 C   0  0  0  0  0  3  0  0  0  0  0  0
  157.6870  214.4530  152.9400 C   0  0  0  0  0  2  0  0  0  0  0  0
  156.6180  214.2520  150.6760 C   0  0  0  0  0  0  0  0  0  0  0  0
  155.4870  214.3900  149.8650 C   0  0  0  0  0  3  0  0  0  0  0  0
  158.3220  211.7370  153.8250 O   0  0  0  0  0  0  0  0  0  0  0  0
  159.7270  212.9950  155.3070 C   0  0  0  0  0  1  0  0  0  0  0  0
  159.5390  211.6950  154.5240 C   0  0  1  0  0  3  0  0  0  0  0  0
  162.3440  210.5100  156.8720 C   0  0  1  0  0  3  0  0  0  0  0  0
  159.8660  211.0000  156.9360 C   0  0  0  0  0  2  0  0  0  0  0  0
  160.7180  209.0120  153.6020 O   0  0  0  0  0  0  0  0  0  0  0  0
  163.7040  211.1030  157.1710 C   0  0  0  0  0  1  0  0  0  0  0  0
  161.2760  211.5860  157.0570 C   0  0  0  0  0  2  0  0  0  0  0  0
  160.7480  209.1920  155.1130 S   0  0  2  0  0  0  0  0  0  0  0  0
  159.5650  210.5150  155.5140 C   0  0  2  0  0  3  0  0  0  0  0  0
  162.3380  209.9690  155.4500 C   0  0  0  0  0  2  0  0  0  0  0  0
  1  6  2  0  0  0  0
  1 14  1  0  0  0  0
  2  3  1  6  0  0  0
  2 13  1  0  0  0  0
  3 19  1  0  0  0  0
  4 15  2  0  0  0  0
  4  7  1  0  0  0  0
  5 16  1  0  0  0  0
  5  2  1  0  0  0  0
  6 17  1  0  0  0  0
  7  3  2  0  0  0  0
  8 21  1  1  0  0  0
  9  1  1  0  0  0  0
 10 18  1  0  0  0  0
 11  4  1  0  0  0  0
 12  8  1  0  0  0  0
 13  8  1  0  0  0  0
 13 18  1  6  0  0  0
 14  5  2  0  0  0  0
 15 20  1  0  0  0  0
 16 12  1  0  0  0  0
 17 16  2  0  0  0  0
 19 10  1  0  0  0  0
 20 19  2  0  0  0  0
 21 23  1  0  0  0  0
 23 22  1  1  0  0  0
 24 28  1  0  0  0  0
 24 27  1  6  0  0  0
 25 28  1  0  0  0  0
 29 26  2  6  0  0  0
 29 31  1  0  0  0  0
 29 30  1  0  0  0  0
 30 23  1  6  0  0  0
 30 25  1  0  0  0  0
 31 24  1  0  0  0  0
M  END
>  <MODEL>
6

>  <REMARK>
 VINA RESULT:      -5.5      6.191      8.406
  Name = 
  3 active torsions:
  status: ('A' for Active; 'I' for Inactive)
    1  A    between atoms: C_5  and  O_16
    2  A    between atoms: C_5  and  C_30
    3  A    between atoms: C_10  and  O_16
                            x       y       z     vdW  Elec       q    Type
                         _______ _______ _______ _____ _____    ______ ____

>  <TORSDO>
F 3

$$$$
=
 OpenBabel11122413093D

 31 35  0  0  1  0  0  0  0  0999 V2000
  162.2910  210.5200  149.4480 C   0  0  0  0  0  0  0  0  0  0  0  0
  161.9570  208.4530  152.6220 C   0  0  2  0  0  3  0  0  0  0  0  0
  160.8540  209.1080  153.4460 C   0  0  0  0  0  0  0  0  0  0  0  0
  159.5350  211.0830  153.9880 C   0  0  0  0  0  0  0  0  0  0  0  0
  161.9210  208.8390  151.1620 C   0  0  0  0  0  0  0  0  0  0  0  0
  161.7820  209.6520  148.4810 C   0  0  0  0  0  3  0  0  0  0  0  0
  160.4850  210.4390  153.1940 C   0  0  0  0  0  3  0  0  0  0  0  0
  160.9040  206.2400  151.9800 C   0  0  2  0  0  3  0  0  0  0  0  0
  162.7240  211.7880  149.0850 O   0  0  0  0  0  1  0  0  0  0  0  0
  160.6160  207.0230  154.8920 C   0  0  0  0  0  2  0  0  0  0  0  0
  159.0810  212.7370  153.6380 Cl  0  0  0  0  0  0  0  0  0  0  0  0
  161.0840  206.5290  150.4890 C   0  0  0  0  0  2  0  0  0  0  0  0
  162.0140  206.9230  152.7990 C   0  0  2  0  0  3  0  0  0  0  0  0
  162.3620  210.1140  150.7820 C   0  0  0  0  0  3  0  0  0  0  0  0
  158.9550  210.4110  155.0630 C   0  0  0  0  0  3  0  0  0  0  0  0
  161.4160  207.9600  150.1800 C   0  0  0  0  0  0  0  0  0  0  0  0
  161.3570  208.3730  148.8450 C   0  0  0  0  0  3  0  0  0  0  0  0
  161.9430  206.5790  154.2860 C   0  0  0  0  0  2  0  0  0  0  0  0
  160.2880  208.4480  154.5630 C   0  0  0  0  0  0  0  0  0  0  0  0
  159.3290  209.0970  155.3470 C   0  0  0  0  0  3  0  0  0  0  0  0
  160.9210  204.8470  152.1600 O   0  0  0  0  0  0  0  0  0  0  0  0
  162.0240  202.9170  151.2580 C   0  0  0  0  0  1  0  0  0  0  0  0
  161.4180  204.2910  150.9700 C   0  0  1  0  0  3  0  0  0  0  0  0
  160.8410  201.5010  148.3870 C   0  0  1  0  0  3  0  0  0  0  0  0
  159.5520  202.8020  150.1280 C   0  0  0  0  0  2  0  0  0  0  0  0
  161.8960  205.2950  148.1060 O   0  0  0  0  0  0  0  0  0  0  0  0
  161.5810  200.2030  148.1460 C   0  0  0  0  0  1  0  0  0  0  0  0
  160.4520  201.5920  149.8610 C   0  0  0  0  0  2  0  0  0  0  0  0
  160.8310  204.2110  148.1910 S   0  0  2  0  0  0  0  0  0  0  0  0
  160.2950  204.1270  149.9270 C   0  0  2  0  0  3  0  0  0  0  0  0
  161.7330  202.6660  147.9810 C   0  0  0  0  0  2  0  0  0  0  0  0
  1 14  1  0  0  0  0
  2  5  1  6  0  0  0
  2 13  1  0  0  0  0
  2  3  1  0  0  0  0
  3 19  1  0  0  0  0
  4 15  2  0  0  0  0
  6 17  1  0  0  0  0
  6  1  2  0  0  0  0
  7  3  2  0  0  0  0
  7  4  1  0  0  0  0
  8 21  1  6  0  0  0
  8 13  1  0  0  0  0
  9  1  1  0  0  0  0
 11  4  1  0  0  0  0
 12  8  1  0  0  0  0
 13 18  1  1  0  0  0
 14  5  2  0  0  0  0
 15 20  1  0  0  0  0
 16 12  1  0  0  0  0
 16  5  1  0  0  0  0
 17 16  2  0  0  0  0
 18 10  1  0  0  0  0
 19 10  1  0  0  0  0
 19 20  2  0  0  0  0
 23 22  1  1  0  0  0
 23 21  1  0  0  0  0
 24 27  1  1  0  0  0
 24 28  1  0  0  0  0
 28 25  1  0  0  0  0
 29 26  2  1  0  0  0
 29 30  1  0  0  0  0
 30 25  1  0  0  0  0
 30 23  1  1  0  0  0
 31 29  1  0  0  0  0
 31 24  1  0  0  0  0
M  END
>  <MODEL>
7

>  <REMARK>
 VINA RESULT:      -5.5      3.252      7.139
  Name = 
  3 active torsions:
  status: ('A' for Active; 'I' for Inactive)
    1  A    between atoms: C_5  and  O_16
    2  A    between atoms: C_5  and  C_30
    3  A    between atoms: C_10  and  O_16
                            x       y       z     vdW  Elec       q    Type
                         _______ _______ _______ _____ _____    ______ ____

>  <TORSDO>
F 3

$$$$
