=
 OpenBabel11122412533D

 32 39  0  0  1  0  0  0  0  0999 V2000
  161.4950  202.5900  149.4370 C   0  0  1  0  0  3  0  0  0  0  0  0
  161.4460  206.5130  151.0820 C   0  0  0  0  0  0  0  0  0  0  0  0
  161.9090  210.5230  148.3730 C   0  0  0  0  0  3  0  0  0  0  0  0
  161.9760  211.3490  149.5910 C   0  0  0  0  0  3  0  0  0  0  0  0
  161.3140  206.6510  153.5750 C   0  0  0  0  0  0  0  0  0  0  0  0
  161.2790  207.5330  154.6960 N   0  0  0  0  0  0  0  0  0  0  0  0
  160.0670  205.0650  150.0780 C   0  0  1  0  0  3  0  0  0  0  0  0
  161.5830  206.3180  148.5510 C   0  0  0  0  0  2  0  0  0  0  0  0
  161.2400  209.3670  155.8880 C   0  0  0  0  0  0  0  0  0  0  0  0
  161.6640  203.7830  148.4770 C   0  0  2  0  0  3  0  0  0  0  0  0
  161.9960  209.1900  148.4380 C   0  0  0  0  0  3  0  0  0  0  0  0
  161.6550  207.1440  149.7890 N   0  0  0  0  0  0  0  0  0  0  0  0
  162.2690  208.4750  149.7420 C   0  0  2  0  0  3  0  0  0  0  0  0
  161.5830  208.7380  152.1230 C   0  0  0  0  0  0  0  0  0  0  0  0
  161.2060  208.3470  156.7720 N   0  0  0  0  0  0  0  0  0  0  0  0
  160.3840  202.6740  150.5000 C   0  0  0  0  0  2  0  0  0  0  0  0
  160.7600  205.0060  148.7200 C   0  0  1  0  0  3  0  0  0  0  0  0
  161.2300  207.2280  156.0080 C   0  0  0  0  0  3  0  0  0  0  0  0
  160.1140  204.0410  151.1400 C   0  0  1  0  0  3  0  0  0  0  0  0
  160.8400  202.5810  148.0670 C   0  0  1  0  0  3  0  0  0  0  0  0
  161.9530  210.7890  150.8010 C   0  0  0  0  0  3  0  0  0  0  0  0
  161.8870  209.3160  150.9440 C   0  0  0  0  0  0  0  0  0  0  0  0
  161.2600  209.6160  153.3180 C   0  0  0  0  0  2  0  0  0  0  0  0
  161.2770  205.0280  151.0380 C   0  0  2  0  0  3  0  0  0  0  0  0
  161.2550  205.4050  153.7580 O   0  0  0  0  0  0  0  0  0  0  0  0
  161.2040  210.8040  156.2730 C   0  0  0  0  0  1  0  0  0  0  0  0
  161.4480  207.2470  152.2170 C   0  0  0  0  0  0  0  0  0  0  0  0
  161.2940  208.8640  154.6110 C   0  0  0  0  0  0  0  0  0  0  0  0
  161.6020  201.7690  147.1870 O   0  0  0  0  0  0  0  0  0  0  0  0
  161.0080  200.9440  146.2280 C   0  0  0  0  0  0  0  0  0  0  0  0
  160.0770  201.4900  145.1980 C   0  0  0  0  0  1  0  0  0  0  0  0
  161.2620  199.7130  146.2320 O   0  0  0  0  0  0  0  0  0  0  0  0
  1 16  1  1  0  0  0
  2 27  2  0  0  0  0
  3 11  2  0  0  0  0
  3  4  1  0  0  0  0
  4 21  2  0  0  0  0
  5 25  2  0  0  0  0
  5  6  1  0  0  0  0
  6 18  1  0  0  0  0
  7 24  1  0  0  0  0
  7 19  1  0  0  0  0
  8 17  1  0  0  0  0
  8 12  1  0  0  0  0
  9 26  1  0  0  0  0
  9 15  1  0  0  0  0
 10 17  1  0  0  0  0
 10  1  1  0  0  0  0
 11 13  1  0  0  0  0
 12  2  1  0  0  0  0
 13 12  1  0  0  0  0
 13 22  1  0  0  0  0
 14 27  1  0  0  0  0
 14 23  1  0  0  0  0
 16 19  1  0  0  0  0
 17  7  1  0  0  0  0
 18 15  2  0  0  0  0
 20 10  1  0  0  0  0
 20  1  1  0  0  0  0
 21 22  1  0  0  0  0
 22 14  2  0  0  0  0
 23 28  1  0  0  0  0
 24  2  1  0  0  0  0
 24 19  1  0  0  0  0
 27  5  1  0  0  0  0
 28  6  1  0  0  0  0
 28  9  2  0  0  0  0
 29 20  1  0  0  0  0
 30 32  2  0  0  0  0
 30 29  1  0  0  0  0
 31 30  1  0  0  0  0
M  END
>  <MODEL>
1

>  <REMARK>
 VINA RESULT:      -9.5      0.000      0.000
  Name = 
  2 active torsions:
  status: ('A' for Active; 'I' for Inactive)
    1  A    between atoms: C_20  and  O_29
    2  A    between atoms: O_29  and  C_30
                            x       y       z     vdW  Elec       q    Type
                         _______ _______ _______ _____ _____    ______ ____

>  <TORSDO>
F 2

$$$$
=
 OpenBabel11122412533D

 32 39  0  0  1  0  0  0  0  0999 V2000
  161.7130  203.8960  148.6990 C   0  0  1  0  0  3  0  0  0  0  0  0
  161.3870  207.6310  150.7100 C   0  0  0  0  0  0  0  0  0  0  0  0
  161.3400  211.8950  148.3760 C   0  0  0  0  0  3  0  0  0  0  0  0
  161.3930  212.6100  149.6640 C   0  0  0  0  0  3  0  0  0  0  0  0
  161.3710  207.5290  153.2080 C   0  0  0  0  0  0  0  0  0  0  0  0
  161.3120  208.2980  154.4080 N   0  0  0  0  0  0  0  0  0  0  0  0
  160.0980  206.1530  149.6320 C   0  0  1  0  0  3  0  0  0  0  0  0
  161.4110  207.6800  148.1680 C   0  0  0  0  0  2  0  0  0  0  0  0
  161.1660  210.0040  155.7690 C   0  0  0  0  0  0  0  0  0  0  0  0
  161.7220  205.1810  147.8500 C   0  0  2  0  0  3  0  0  0  0  0  0
  161.5520  210.5770  148.3110 C   0  0  0  0  0  3  0  0  0  0  0  0
  161.4710  208.3940  149.4750 N   0  0  0  0  0  0  0  0  0  0  0  0
  161.9570  209.7760  149.5280 C   0  0  2  0  0  3  0  0  0  0  0  0
  161.3720  209.7550  151.9500 C   0  0  0  0  0  0  0  0  0  0  0  0
  161.2700  208.9100  156.5530 N   0  0  0  0  0  0  0  0  0  0  0  0
  160.6540  203.7760  149.8110 C   0  0  0  0  0  2  0  0  0  0  0  0
  160.7230  206.2850  148.2470 C   0  0  1  0  0  3  0  0  0  0  0  0
  161.3590  207.8720  155.6860 C   0  0  0  0  0  3  0  0  0  0  0  0
  160.2930  205.0470  150.5890 C   0  0  1  0  0  3  0  0  0  0  0  0
  160.9920  203.9480  147.3630 C   0  0  1  0  0  3  0  0  0  0  0  0
  161.4830  211.9430  150.8150 C   0  0  0  0  0  3  0  0  0  0  0  0
  161.5610  210.4640  150.8200 C   0  0  0  0  0  0  0  0  0  0  0  0
  161.0310  210.4860  153.2360 C   0  0  0  0  0  2  0  0  0  0  0  0
  161.3540  206.1470  150.5320 C   0  0  2  0  0  3  0  0  0  0  0  0
  161.4360  206.2720  153.2740 O   0  0  0  0  0  0  0  0  0  0  0  0
  161.0180  211.3910  156.2900 C   0  0  0  0  0  1  0  0  0  0  0  0
  161.3790  208.2560  151.9080 C   0  0  0  0  0  0  0  0  0  0  0  0
  161.2000  209.6270  154.4500 C   0  0  0  0  0  0  0  0  0  0  0  0
  161.7800  203.2960  146.3780 O   0  0  0  0  0  0  0  0  0  0  0  0
  162.3410  203.9800  145.2970 C   0  0  0  0  0  0  0  0  0  0  0  0
  161.4940  204.7210  144.3170 C   0  0  0  0  0  1  0  0  0  0  0  0
  163.5890  203.9700  145.1430 O   0  0  0  0  0  0  0  0  0  0  0  0
  1 16  1  1  0  0  0
  2 27  2  0  0  0  0
  3  4  1  0  0  0  0
  4 21  2  0  0  0  0
  5 25  2  0  0  0  0
  5  6  1  0  0  0  0
  6 28  1  0  0  0  0
  6 18  1  0  0  0  0
  7 24  1  0  0  0  0
  7 19  1  0  0  0  0
  8 17  1  0  0  0  0
  8 12  1  0  0  0  0
  9 26  1  0  0  0  0
  9 15  1  0  0  0  0
 10 17  1  0  0  0  0
 10  1  1  0  0  0  0
 11  3  2  0  0  0  0
 11 13  1  0  0  0  0
 12 13  1  0  0  0  0
 12  2  1  0  0  0  0
 13 22  1  0  0  0  0
 14 23  1  0  0  0  0
 16 19  1  0  0  0  0
 17  7  1  0  0  0  0
 18 15  2  0  0  0  0
 20 10  1  0  0  0  0
 20  1  1  0  0  0  0
 21 22  1  0  0  0  0
 22 14  2  0  0  0  0
 23 28  1  0  0  0  0
 24 19  1  0  0  0  0
 24  2  1  0  0  0  0
 27 14  1  0  0  0  0
 27  5  1  0  0  0  0
 28  9  2  0  0  0  0
 29 20  1  0  0  0  0
 30 29  1  0  0  0  0
 31 30  1  0  0  0  0
 32 30  2  0  0  0  0
M  END
>  <MODEL>
2

>  <REMARK>
 VINA RESULT:      -7.8      1.457      1.695
  Name = 
  2 active torsions:
  status: ('A' for Active; 'I' for Inactive)
    1  A    between atoms: C_20  and  O_29
    2  A    between atoms: O_29  and  C_30
                            x       y       z     vdW  Elec       q    Type
                         _______ _______ _______ _____ _____    ______ ____

>  <TORSDO>
F 2

$$$$
