=
 OpenBabel11122413453D

 37 43  0  0  1  0  0  0  0  0999 V2000
  161.6770  205.7700  146.5500 C   0  0  0  0  0  0  0  0  0  0  0  0
  161.2750  206.7930  150.5850 C   0  0  0  0  0  0  0  0  0  0  0  0
  161.3670  210.5520  151.5220 O   0  0  0  0  0  0  0  0  0  0  0  0
  161.3490  204.9870  148.9540 C   0  0  0  0  0  0  0  0  0  0  0  0
  161.5850  208.1690  150.5270 C   0  0  0  0  0  0  0  0  0  0  0  0
  161.5100  206.3050  149.3300 C   0  0  0  0  0  0  0  0  0  0  0  0
  161.6420  209.1600  151.7420 C   0  0  2  0  0  3  0  0  0  0  0  0
  160.9340  204.0810  149.9370 C   0  0  0  0  0  3  0  0  0  0  0  0
  161.9340  207.3030  148.5300 C   0  0  0  0  0  0  0  0  0  0  0  0
  160.2330  206.0600  146.1780 C   0  0  0  0  0  1  0  0  0  0  0  0
  160.5100  206.2990  152.9910 C   0  0  0  0  0  2  0  0  0  0  0  0
  160.6790  204.5400  151.2480 C   0  0  0  0  0  3  0  0  0  0  0  0
  162.3340  207.0620  147.1020 C   0  0  0  0  0  2  0  0  0  0  0  0
  161.6480  212.0110  149.6940 C   0  0  1  0  0  3  0  0  0  0  0  0
  161.1360  210.7370  150.2050 N   0  0  1  0  0  0  0  0  0  0  0  0
  160.8560  205.8980  151.5970 C   0  0  0  0  0  0  0  0  0  0  0  0
  162.0210  208.4480  149.2360 N   0  0  0  0  0  0  0  0  0  0  0  0
  161.7220  204.5820  147.5500 C   0  0  0  0  0  2  0  0  0  0  0  0
  160.9150  208.7040  153.0150 C   0  0  1  0  0  3  0  0  0  0  0  0
  162.4120  205.3610  145.2910 C   0  0  0  0  0  1  0  0  0  0  0  0
  162.4960  210.8060  149.6510 C   0  0  1  0  0  3  0  0  0  0  0  0
  162.4450  209.7170  148.6170 C   0  0  0  0  0  2  0  0  0  0  0  0
  161.4300  207.3720  153.5130 C   0  0  0  0  0  2  0  0  0  0  0  0
  159.9130  210.5450  154.3830 C   0  0  0  0  0  3  0  0  0  0  0  0
  161.0100  209.7150  154.1210 C   0  0  0  0  0  0  0  0  0  0  0  0
  162.1770  209.8440  154.8920 C   0  0  0  0  0  3  0  0  0  0  0  0
  163.4250  210.9240  156.6900 N   0  0  0  0  0  1  0  0  0  0  0  0
  161.1430  211.6220  156.1700 C   0  0  0  0  0  3  0  0  0  0  0  0
  162.2420  210.7960  155.9130 C   0  0  0  0  0  0  0  0  0  0  0  0
  159.9790  211.4950  155.4050 C   0  0  0  0  0  3  0  0  0  0  0  0
  161.0370  212.3200  148.3640 C   0  0  0  0  0  0  0  0  0  0  0  0
  161.8600  212.8050  147.3000 N   0  0  0  0  0  2  0  0  0  0  0  0
  159.7940  212.1820  148.1970 O   0  0  0  0  0  0  0  0  0  0  0  0
  162.3660  213.0660  145.0160 O   0  0  0  0  0  1  0  0  0  0  0  0
  161.3370  213.0850  145.9660 C   0  0  2  0  0  3  0  0  0  0  0  0
  159.4710  214.1280  145.1550 C   0  0  0  0  0  1  0  0  0  0  0  0
  160.6240  214.3020  145.9360 O   0  0  0  0  0  0  0  0  0  0  0  0
  1 13  1  0  0  0  0
  1 18  1  0  0  0  0
  2 16  1  0  0  0  0
  3  7  1  0  0  0  0
  4  6  1  0  0  0  0
  4  8  2  0  0  0  0
  5  2  2  0  0  0  0
  6  2  1  0  0  0  0
  7  5  1  6  0  0  0
  7 19  1  0  0  0  0
  8 12  1  0  0  0  0
  9 17  1  0  0  0  0
  9  6  2  0  0  0  0
 10  1  1  0  0  0  0
 11 23  1  0  0  0  0
 12 16  2  0  0  0  0
 13  9  1  0  0  0  0
 14 31  1  6  0  0  0
 14 15  1  0  0  0  0
 15  3  1  1  0  0  0
 16 11  1  0  0  0  0
 17  5  1  0  0  0  0
 18  4  1  0  0  0  0
 19 23  1  0  0  0  0
 19 25  1  1  0  0  0
 20  1  1  0  0  0  0
 21 22  1  6  0  0  0
 21 14  1  0  0  0  0
 21 15  1  0  0  0  0
 22 17  1  0  0  0  0
 24 30  1  0  0  0  0
 25 24  2  0  0  0  0
 25 26  1  0  0  0  0
 26 29  2  0  0  0  0
 29 28  1  0  0  0  0
 29 27  1  0  0  0  0
 30 28  2  0  0  0  0
 32 31  1  0  0  0  0
 33 31  2  0  0  0  0
 35 34  1  6  0  0  0
 35 32  1  0  0  0  0
 36 37  1  0  0  0  0
 37 35  1  0  0  0  0
M  END
>  <MODEL>
1

>  <REMARK>
 VINA RESULT:      -8.3      0.000      0.000
  Name = 
  4 active torsions:
  status: ('A' for Active; 'I' for Inactive)
    1  A    between atoms: C_4  and  N_12
    2  A    between atoms: C_4  and  O_37
    3  A    between atoms: C_8  and  C_18
    4  A    between atoms: C_23  and  C_30
                            x       y       z     vdW  Elec       q    Type
                         _______ _______ _______ _____ _____    ______ ____

>  <TORSDO>
F 4

$$$$
=
 OpenBabel11122413453D

 37 43  0  0  1  0  0  0  0  0999 V2000
  161.5850  205.8730  146.3750 C   0  0  0  0  0  0  0  0  0  0  0  0
  161.2090  205.7540  150.5380 C   0  0  0  0  0  0  0  0  0  0  0  0
  161.3330  209.1120  152.4680 O   0  0  0  0  0  0  0  0  0  0  0  0
  161.2620  204.4640  148.4750 C   0  0  0  0  0  0  0  0  0  0  0  0
  161.5280  207.0920  150.8570 C   0  0  0  0  0  0  0  0  0  0  0  0
  161.4350  205.6270  149.1960 C   0  0  0  0  0  0  0  0  0  0  0  0
  161.5990  207.7110  152.2970 C   0  0  2  0  0  3  0  0  0  0  0  0
  160.8450  203.3250  149.1740 C   0  0  0  0  0  3  0  0  0  0  0  0
  161.8630  206.8040  148.6970 C   0  0  0  0  0  0  0  0  0  0  0  0
  160.1420  206.2630  146.1050 C   0  0  0  0  0  1  0  0  0  0  0  0
  160.4500  204.6240  152.7210 C   0  0  0  0  0  2  0  0  0  0  0  0
  160.5990  203.4090  150.5630 C   0  0  0  0  0  3  0  0  0  0  0  0
  162.2550  206.9610  147.2550 C   0  0  0  0  0  2  0  0  0  0  0  0
  161.6170  211.0140  151.1080 C   0  0  1  0  0  3  0  0  0  0  0  0
  161.0980  209.6520  151.2540 N   0  0  1  0  0  0  0  0  0  0  0  0
  160.7870  204.6190  151.2690 C   0  0  0  0  0  0  0  0  0  0  0  0
  161.9610  207.7100  149.6890 N   0  0  0  0  0  0  0  0  0  0  0  0
  161.6260  204.4570  147.0110 C   0  0  0  0  0  2  0  0  0  0  0  0
  160.8740  206.9290  153.4010 C   0  0  1  0  0  3  0  0  0  0  0  0
  162.3120  205.8200  145.0470 C   0  0  0  0  0  1  0  0  0  0  0  0
  162.4560  209.8620  150.7310 C   0  0  1  0  0  3  0  0  0  0  0  0
  162.3930  209.0980  149.4390 C   0  0  0  0  0  2  0  0  0  0  0  0
  161.3800  205.5080  153.5120 C   0  0  0  0  0  2  0  0  0  0  0  0
  160.3940  206.9880  155.8560 C   0  0  0  0  0  3  0  0  0  0  0  0
  160.9810  207.5970  154.7410 C   0  0  0  0  0  0  0  0  0  0  0  0
  161.6540  208.8210  154.8930 C   0  0  0  0  0  3  0  0  0  0  0  0
  162.4180  210.6630  156.3010 N   0  0  0  0  0  1  0  0  0  0  0  0
  161.1480  208.8110  157.2610 C   0  0  0  0  0  3  0  0  0  0  0  0
  161.7360  209.4240  156.1510 C   0  0  0  0  0  0  0  0  0  0  0  0
  160.4770  207.5920  157.1130 C   0  0  0  0  0  3  0  0  0  0  0  0
  161.0020  211.6800  149.9170 C   0  0  0  0  0  0  0  0  0  0  0  0
  161.7610  211.8220  148.7140 N   0  0  0  0  0  2  0  0  0  0  0  0
  159.8300  212.1390  149.9910 O   0  0  0  0  0  0  0  0  0  0  0  0
  160.5220  211.4650  146.7440 O   0  0  0  0  0  1  0  0  0  0  0  0
  161.2080  212.4210  147.5020 C   0  0  2  0  0  3  0  0  0  0  0  0
  162.8390  214.0230  147.5530 C   0  0  0  0  0  1  0  0  0  0  0  0
  162.2080  213.0660  146.7440 O   0  0  0  0  0  0  0  0  0  0  0  0
  1 18  1  0  0  0  0
  1 13  1  0  0  0  0
  2  5  2  0  0  0  0
  2 16  1  0  0  0  0
  4  8  2  0  0  0  0
  4  6  1  0  0  0  0
  6  2  1  0  0  0  0
  7  5  1  6  0  0  0
  7  3  1  0  0  0  0
  7 19  1  0  0  0  0
  8 12  1  0  0  0  0
  9  6  2  0  0  0  0
  9 17  1  0  0  0  0
 10  1  1  0  0  0  0
 11 23  1  0  0  0  0
 12 16  2  0  0  0  0
 13  9  1  0  0  0  0
 14 31  1  6  0  0  0
 14 15  1  0  0  0  0
 15  3  1  1  0  0  0
 16 11  1  0  0  0  0
 17  5  1  0  0  0  0
 18  4  1  0  0  0  0
 19 23  1  0  0  0  0
 19 25  1  1  0  0  0
 20  1  1  0  0  0  0
 21 22  1  6  0  0  0
 21 14  1  0  0  0  0
 21 15  1  0  0  0  0
 22 17  1  0  0  0  0
 24 30  1  0  0  0  0
 25 26  1  0  0  0  0
 25 24  2  0  0  0  0
 26 29  2  0  0  0  0
 29 27  1  0  0  0  0
 29 28  1  0  0  0  0
 30 28  2  0  0  0  0
 31 33  2  0  0  0  0
 32 31  1  0  0  0  0
 35 34  1  6  0  0  0
 35 32  1  0  0  0  0
 37 35  1  0  0  0  0
 37 36  1  0  0  0  0
M  END
>  <MODEL>
2

>  <REMARK>
 VINA RESULT:      -7.9      1.431      1.860
  Name = 
  4 active torsions:
  status: ('A' for Active; 'I' for Inactive)
    1  A    between atoms: C_4  and  N_12
    2  A    between atoms: C_4  and  O_37
    3  A    between atoms: C_8  and  C_18
    4  A    between atoms: C_23  and  C_30
                            x       y       z     vdW  Elec       q    Type
                         _______ _______ _______ _____ _____    ______ ____

>  <TORSDO>
F 4

$$$$
=
 OpenBabel11122413453D

 37 43  0  0  1  0  0  0  0  0999 V2000
  160.2630  207.8260  155.8820 C   0  0  0  0  0  0  0  0  0  0  0  0
  160.5440  210.7040  152.8610 C   0  0  0  0  0  0  0  0  0  0  0  0
  161.5100  209.5120  149.3030 O   0  0  0  0  0  0  0  0  0  0  0  0
  160.0590  210.2770  155.2080 C   0  0  0  0  0  0  0  0  0  0  0  0
  161.1200  209.9310  151.8300 C   0  0  0  0  0  0  0  0  0  0  0  0
  160.5290  209.9000  153.9670 C   0  0  0  0  0  0  0  0  0  0  0  0
  161.5180  210.4380  150.4000 C   0  0  2  0  0  3  0  0  0  0  0  0
  159.5830  211.5850  155.3500 C   0  0  0  0  0  3  0  0  0  0  0  0
  161.0540  208.6980  153.6570 C   0  0  0  0  0  0  0  0  0  0  0  0
  158.8760  207.3400  155.4970 C   0  0  0  0  0  1  0  0  0  0  0  0
  159.9730  212.9980  151.8460 C   0  0  0  0  0  2  0  0  0  0  0  0
  159.5790  212.4520  154.2340 C   0  0  0  0  0  3  0  0  0  0  0  0
  161.2300  207.6190  154.6870 C   0  0  0  0  0  2  0  0  0  0  0  0
  161.8740  207.1930  149.1120 C   0  0  1  0  0  3  0  0  0  0  0  0
  161.1730  208.2940  149.7770 N   0  0  1  0  0  0  0  0  0  0  0  0
  160.0690  212.0310  152.9770 C   0  0  0  0  0  0  0  0  0  0  0  0
  161.4530  208.6930  152.3700 N   0  0  0  0  0  0  0  0  0  0  0  0
  160.1780  209.3040  156.3540 C   0  0  0  0  0  2  0  0  0  0  0  0
  160.8630  211.7510  149.9480 C   0  0  1  0  0  3  0  0  0  0  0  0
  160.7500  206.9830  157.0420 C   0  0  0  0  0  1  0  0  0  0  0  0
  162.4460  207.8040  150.3250 C   0  0  1  0  0  3  0  0  0  0  0  0
  162.0550  207.5010  151.7440 C   0  0  0  0  0  2  0  0  0  0  0  0
  161.1470  212.8840  150.9080 C   0  0  0  0  0  2  0  0  0  0  0  0
  162.6310  212.4810  148.3340 C   0  0  0  0  0  3  0  0  0  0  0  0
  161.2890  212.1560  148.5660 C   0  0  0  0  0  0  0  0  0  0  0  0
  160.3670  212.2180  147.5080 C   0  0  0  0  0  3  0  0  0  0  0  0
  159.8520  212.6640  145.1640 N   0  0  0  0  0  1  0  0  0  0  0  0
  162.1300  212.9260  146.0060 C   0  0  0  0  0  3  0  0  0  0  0  0
  160.7890  212.6030  146.2320 C   0  0  0  0  0  0  0  0  0  0  0  0
  163.0500  212.8650  147.0570 C   0  0  0  0  0  3  0  0  0  0  0  0
  161.1900  205.8930  149.4010 C   0  0  0  0  0  0  0  0  0  0  0  0
  161.6120  204.7050  148.7270 N   0  0  0  0  0  2  0  0  0  0  0  0
  160.2270  205.8580  150.2140 O   0  0  0  0  0  0  0  0  0  0  0  0
  161.3430  202.9590  150.2830 O   0  0  0  0  0  1  0  0  0  0  0  0
  161.0190  203.3980  148.9930 C   0  0  2  0  0  3  0  0  0  0  0  0
  161.1450  201.1650  148.5150 C   0  0  0  0  0  1  0  0  0  0  0  0
  161.3930  202.4530  148.0140 O   0  0  0  0  0  0  0  0  0  0  0  0
  1 18  1  0  0  0  0
  1 20  1  0  0  0  0
  2 16  1  0  0  0  0
  2  6  1  0  0  0  0
  4  8  2  0  0  0  0
  4 18  1  0  0  0  0
  5 17  1  0  0  0  0
  5  2  2  0  0  0  0
  6  4  1  0  0  0  0
  7  3  1  6  0  0  0
  7  5  1  0  0  0  0
  9  6  2  0  0  0  0
  9 13  1  0  0  0  0
 10  1  1  0  0  0  0
 11 16  1  0  0  0  0
 12  8  1  0  0  0  0
 13  1  1  0  0  0  0
 14 31  1  1  0  0  0
 14 15  1  0  0  0  0
 14 21  1  0  0  0  0
 15  3  1  6  0  0  0
 15 21  1  0  0  0  0
 16 12  2  0  0  0  0
 17  9  1  0  0  0  0
 19 25  1  6  0  0  0
 19  7  1  0  0  0  0
 19 23  1  0  0  0  0
 21 22  1  1  0  0  0
 22 17  1  0  0  0  0
 23 11  1  0  0  0  0
 24 25  1  0  0  0  0
 26 25  2  0  0  0  0
 27 29  1  0  0  0  0
 28 29  2  0  0  0  0
 28 30  1  0  0  0  0
 29 26  1  0  0  0  0
 30 24  2  0  0  0  0
 31 33  2  0  0  0  0
 32 35  1  0  0  0  0
 32 31  1  0  0  0  0
 35 34  1  1  0  0  0
 37 36  1  0  0  0  0
 37 35  1  0  0  0  0
M  END
>  <MODEL>
3

>  <REMARK>
 VINA RESULT:      -6.1      2.793      7.923
  Name = 
  4 active torsions:
  status: ('A' for Active; 'I' for Inactive)
    1  A    between atoms: C_4  and  N_12
    2  A    between atoms: C_4  and  O_37
    3  A    between atoms: C_8  and  C_18
    4  A    between atoms: C_23  and  C_30
                            x       y       z     vdW  Elec       q    Type
                         _______ _______ _______ _____ _____    ______ ____

>  <TORSDO>
F 4

$$$$
