=
 OpenBabel11122413553D

 37 44  0  0  1  0  0  0  0  0999 V2000
  160.5930  207.5970  154.6800 C   0  0  2  0  0  3  0  0  0  0  0  0
  161.4170  204.1870  151.7330 C   0  0  0  0  0  0  0  0  0  0  0  0
  161.0870  207.9120  149.8500 C   0  0  0  0  0  0  0  0  0  0  0  0
  159.9290  208.1130  155.9370 C   0  0  2  0  0  3  0  0  0  0  0  0
  162.6970  210.6300  152.2300 C   0  0  0  0  0  2  0  0  0  0  0  0
  160.8940  205.4960  149.6370 C   0  0  0  0  0  0  0  0  0  0  0  0
  161.1510  208.8820  151.0140 C   0  0  2  0  0  3  0  0  0  0  0  0
  161.6660  209.8380  155.5930 C   0  0  2  0  0  3  0  0  0  0  0  0
  160.8540  206.6020  150.3720 C   0  0  0  0  0  0  0  0  0  0  0  0
  162.4080  209.7890  150.9680 C   0  0  1  0  0  3  0  0  0  0  0  0
  160.9570  205.6150  148.1380 C   0  0  0  0  0  2  0  0  0  0  0  0
  161.4260  208.3280  155.7500 C   0  0  2  0  0  3  0  0  0  0  0  0
  160.8280  206.5960  151.7780 N   0  0  0  0  0  0  0  0  0  0  0  0
  162.9300  204.3000  151.6460 C   0  0  0  0  0  1  0  0  0  0  0  0
  161.5790  209.4040  147.8990 C   0  0  0  0  0  2  0  0  0  0  0  0
  161.3120  206.9410  147.7000 O   0  0  0  0  0  0  0  0  0  0  0  0
  160.8540  205.3570  152.5570 C   0  0  0  0  0  2  0  0  0  0  0  0
  161.5930  210.3500  154.1600 C   0  0  1  0  0  3  0  0  0  0  0  0
  162.6770  209.8660  153.4020 O   0  0  0  0  0  0  0  0  0  0  0  0
  161.3130  208.0770  148.5350 C   0  0  0  0  0  0  0  0  0  0  0  0
  161.1650  207.9340  152.2610 C   0  0  2  0  0  3  0  0  0  0  0  0
  160.8040  204.1580  150.3170 C   0  0  0  0  0  2  0  0  0  0  0  0
  162.3340  210.6750  149.8030 N   0  0  0  0  0  0  0  0  0  0  0  0
  161.0750  202.8910  152.4360 C   0  0  0  0  0  1  0  0  0  0  0  0
  160.2530  209.9040  153.5820 C   0  0  0  0  0  2  0  0  0  0  0  0
  162.8870  210.1870  156.1690 O   0  0  0  0  0  1  0  0  0  0  0  0
  160.2300  208.3840  153.4000 C   0  0  2  0  0  3  0  0  0  0  0  0
  162.7660  210.1060  148.5370 C   0  0  0  0  0  2  0  0  0  0  0  0
  161.7160  212.8220  148.7480 C   0  0  0  0  0  3  0  0  0  0  0  0
  161.5510  211.8910  149.7860 C   0  0  0  0  0  0  0  0  0  0  0  0
  160.5970  212.1540  150.7850 C   0  0  0  0  0  3  0  0  0  0  0  0
  158.9230  213.5660  151.7230 F   0  0  0  0  0  0  0  0  0  0  0  0
  160.0140  214.2450  149.7150 C   0  0  0  0  0  3  0  0  0  0  0  0
  159.8350  213.3240  150.7510 C   0  0  0  0  0  0  0  0  0  0  0  0
  160.9540  213.9930  148.7130 C   0  0  0  0  0  3  0  0  0  0  0  0
  160.9230  206.4210  157.2610 F   0  0  0  0  0  0  0  0  0  0  0  0
  159.7050  206.9600  156.8930 C   0  0  0  0  0  2  0  0  0  0  0  0
  1 12  1  0  0  0  0
  1  4  1  0  0  0  0
  2 24  1  0  0  0  0
  2 17  1  0  0  0  0
  3  9  1  0  0  0  0
  3  7  1  0  0  0  0
  4 37  1  0  0  0  0
  5 19  1  0  0  0  0
  6 22  1  0  0  0  0
  6  9  2  0  0  0  0
  7 21  1  0  0  0  0
  8 12  1  0  0  0  0
  8 26  1  0  0  0  0
  9 13  1  0  0  0  0
 10  7  1  0  0  0  0
 10  5  1  0  0  0  0
 11  6  1  0  0  0  0
 12  4  1  0  0  0  0
 13 21  1  0  0  0  0
 13 17  1  0  0  0  0
 14  2  1  0  0  0  0
 15 20  1  0  0  0  0
 15 28  1  0  0  0  0
 16 11  1  0  0  0  0
 16 20  1  0  0  0  0
 18  8  1  0  0  0  0
 19 18  1  0  0  0  0
 20  3  2  0  0  0  0
 21 27  1  0  0  0  0
 22  2  1  0  0  0  0
 23 10  1  0  0  0  0
 25 18  1  0  0  0  0
 27 25  1  0  0  0  0
 27  1  1  0  0  0  0
 28 23  1  0  0  0  0
 29 30  1  0  0  0  0
 30 23  1  0  0  0  0
 30 31  2  0  0  0  0
 33 34  2  0  0  0  0
 34 31  1  0  0  0  0
 34 32  1  0  0  0  0
 35 29  2  0  0  0  0
 35 33  1  0  0  0  0
 37 36  1  0  0  0  0
M  END
>  <MODEL>
1

>  <REMARK>
 VINA RESULT:      -4.9      0.000      0.000
  Name = 
  2 active torsions:
  status: ('A' for Active; 'I' for Inactive)
    1  A    between atoms: C_4  and  C_37
    2  A    between atoms: N_23  and  C_30
                            x       y       z     vdW  Elec       q    Type
                         _______ _______ _______ _____ _____    ______ ____

>  <TORSDO>
F 2

$$$$
=
 OpenBabel11122413553D

 37 44  0  0  1  0  0  0  0  0999 V2000
  161.9560  210.9270  148.9400 C   0  0  2  0  0  3  0  0  0  0  0  0
  161.4850  206.4210  148.2530 C   0  0  0  0  0  0  0  0  0  0  0  0
  161.5220  207.4470  152.3120 C   0  0  0  0  0  0  0  0  0  0  0  0
  162.5510  212.2600  148.5430 C   0  0  2  0  0  3  0  0  0  0  0  0
  159.6400  210.9020  152.7170 C   0  0  0  0  0  2  0  0  0  0  0  0
  161.9280  205.7260  150.6410 C   0  0  0  0  0  0  0  0  0  0  0  0
  161.3540  208.9530  152.2790 C   0  0  2  0  0  3  0  0  0  0  0  0
  160.6770  213.0000  149.9740 C   0  0  2  0  0  3  0  0  0  0  0  0
  161.8600  207.0040  150.9960 C   0  0  0  0  0  0  0  0  0  0  0  0
  160.0230  209.4210  152.9250 C   0  0  1  0  0  3  0  0  0  0  0  0
  161.8810  204.6660  151.7080 C   0  0  0  0  0  2  0  0  0  0  0  0
  161.0450  212.1530  148.7460 C   0  0  2  0  0  3  0  0  0  0  0  0
  161.8610  208.0650  150.0730 N   0  0  0  0  0  0  0  0  0  0  0  0
  159.9690  206.3230  148.3130 C   0  0  0  0  0  1  0  0  0  0  0  0
  160.9360  206.9090  154.6880 C   0  0  0  0  0  2  0  0  0  0  0  0
  161.4210  205.1740  152.9760 O   0  0  0  0  0  0  0  0  0  0  0  0
  161.9300  207.8460  148.6270 C   0  0  0  0  0  2  0  0  0  0  0  0
  160.7300  212.2550  151.3020 C   0  0  1  0  0  3  0  0  0  0  0  0
  159.7060  211.2920  151.3750 O   0  0  0  0  0  0  0  0  0  0  0  0
  161.3060  206.5440  153.2860 C   0  0  0  0  0  0  0  0  0  0  0  0
  161.4010  209.2780  150.7470 C   0  0  2  0  0  3  0  0  0  0  0  0
  162.1220  205.3760  149.1920 C   0  0  0  0  0  2  0  0  0  0  0  0
  160.0400  209.1220  154.3590 N   0  0  0  0  0  0  0  0  0  0  0  0
  161.9260  206.1330  146.8350 C   0  0  0  0  0  1  0  0  0  0  0  0
  162.1140  211.6230  151.4180 C   0  0  0  0  0  2  0  0  0  0  0  0
  159.4210  213.5780  149.7940 O   0  0  0  0  0  1  0  0  0  0  0  0
  162.2730  210.4970  150.3910 C   0  0  2  0  0  3  0  0  0  0  0  0
  159.6820  207.7650  154.7350 C   0  0  0  0  0  2  0  0  0  0  0  0
  159.9740  210.6400  156.3080 C   0  0  0  0  0  3  0  0  0  0  0  0
  160.7140  209.9560  155.3300 C   0  0  0  0  0  0  0  0  0  0  0  0
  162.1150  210.0790  155.3330 C   0  0  0  0  0  3  0  0  0  0  0  0
  164.1070  210.9880  156.2720 F   0  0  0  0  0  0  0  0  0  0  0  0
  162.0080  211.5550  157.2480 C   0  0  0  0  0  3  0  0  0  0  0  0
  162.7570  210.8750  156.2840 C   0  0  0  0  0  0  0  0  0  0  0  0
  160.6160  211.4360  157.2610 C   0  0  0  0  0  3  0  0  0  0  0  0
  161.7260  212.5980  146.3510 F   0  0  0  0  0  0  0  0  0  0  0  0
  162.8580  212.2470  147.0600 C   0  0  0  0  0  2  0  0  0  0  0  0
  1 27  1  0  0  0  0
  2 14  1  0  0  0  0
  2 17  1  0  0  0  0
  2 22  1  0  0  0  0
  3 20  2  0  0  0  0
  4 12  1  0  0  0  0
  4  1  1  0  0  0  0
  5 10  1  0  0  0  0
  6  9  2  0  0  0  0
  6 11  1  0  0  0  0
  7  3  1  0  0  0  0
  7 10  1  0  0  0  0
  8 18  1  0  0  0  0
  9  3  1  0  0  0  0
 10 23  1  0  0  0  0
 11 16  1  0  0  0  0
 12  1  1  0  0  0  0
 12  8  1  0  0  0  0
 13 21  1  0  0  0  0
 13  9  1  0  0  0  0
 15 28  1  0  0  0  0
 16 20  1  0  0  0  0
 17 13  1  0  0  0  0
 18 19  1  0  0  0  0
 18 25  1  0  0  0  0
 19  5  1  0  0  0  0
 20 15  1  0  0  0  0
 21  7  1  0  0  0  0
 22  6  1  0  0  0  0
 23 28  1  0  0  0  0
 23 30  1  0  0  0  0
 24  2  1  0  0  0  0
 26  8  1  0  0  0  0
 27 21  1  0  0  0  0
 27 25  1  0  0  0  0
 29 35  1  0  0  0  0
 30 31  1  0  0  0  0
 30 29  2  0  0  0  0
 31 34  2  0  0  0  0
 32 34  1  0  0  0  0
 33 35  2  0  0  0  0
 34 33  1  0  0  0  0
 36 37  1  0  0  0  0
 37  4  1  0  0  0  0
M  END
>  <MODEL>
2

>  <REMARK>
 VINA RESULT:      -4.5      2.427      6.098
  Name = 
  2 active torsions:
  status: ('A' for Active; 'I' for Inactive)
    1  A    between atoms: C_4  and  C_37
    2  A    between atoms: N_23  and  C_30
                            x       y       z     vdW  Elec       q    Type
                         _______ _______ _______ _____ _____    ______ ____

>  <TORSDO>
F 2

$$$$
=
 OpenBabel11122413553D

 37 44  0  0  1  0  0  0  0  0999 V2000
  161.1700  212.0680  149.4230 C   0  0  2  0  0  3  0  0  0  0  0  0
  161.9630  207.5830  149.9230 C   0  0  0  0  0  0  0  0  0  0  0  0
  160.7440  209.4200  153.4830 C   0  0  0  0  0  0  0  0  0  0  0  0
  161.5120  213.3990  148.7920 C   0  0  2  0  0  3  0  0  0  0  0  0
  158.0590  212.1780  152.5760 C   0  0  0  0  0  2  0  0  0  0  0  0
  161.9490  207.5760  152.4490 C   0  0  0  0  0  0  0  0  0  0  0  0
  160.2380  210.7680  153.0080 C   0  0  2  0  0  3  0  0  0  0  0  0
  159.2200  213.8490  149.6000 C   0  0  2  0  0  3  0  0  0  0  0  0
  161.4940  208.8240  152.4220 C   0  0  0  0  0  0  0  0  0  0  0  0
  158.7170  210.9550  153.2480 C   0  0  1  0  0  3  0  0  0  0  0  0
  161.8890  206.8030  153.7390 C   0  0  0  0  0  2  0  0  0  0  0  0
  160.0720  212.9040  148.7390 C   0  0  2  0  0  3  0  0  0  0  0  0
  161.4740  209.6150  151.2590 N   0  0  0  0  0  0  0  0  0  0  0  0
  160.5480  207.0630  149.7310 C   0  0  0  0  0  1  0  0  0  0  0  0
  159.7290  209.2570  155.7670 C   0  0  0  0  0  2  0  0  0  0  0  0
  161.0210  207.4140  154.7130 O   0  0  0  0  0  0  0  0  0  0  0  0
  161.9510  209.1210  149.9660 C   0  0  0  0  0  2  0  0  0  0  0  0
  159.1150  213.4550  151.0670 C   0  0  1  0  0  3  0  0  0  0  0  0
  158.3620  212.2740  151.2140 O   0  0  0  0  0  0  0  0  0  0  0  0
  160.5120  208.7240  154.6100 C   0  0  0  0  0  0  0  0  0  0  0  0
  160.5870  210.7560  151.4810 C   0  0  2  0  0  3  0  0  0  0  0  0
  162.5750  206.9960  151.2120 C   0  0  0  0  0  2  0  0  0  0  0  0
  158.4460  210.9880  154.6870 N   0  0  0  0  0  0  0  0  0  0  0  0
  162.7990  207.1390  148.7420 C   0  0  0  0  0  1  0  0  0  0  0  0
  160.5350  213.2940  151.6020 C   0  0  0  0  0  2  0  0  0  0  0  0
  157.9480  213.9830  149.0430 O   0  0  0  0  0  1  0  0  0  0  0  0
  161.2060  212.0710  150.9690 C   0  0  2  0  0  3  0  0  0  0  0  0
  158.3370  209.6990  155.3490 C   0  0  0  0  0  2  0  0  0  0  0  0
  157.5470  212.9890  155.8230 C   0  0  0  0  0  3  0  0  0  0  0  0
  158.6400  212.1700  155.4980 C   0  0  0  0  0  0  0  0  0  0  0  0
  159.9100  212.5080  155.9960 C   0  0  0  0  0  3  0  0  0  0  0  0
  161.3150  213.9590  157.2610 F   0  0  0  0  0  0  0  0  0  0  0  0
  158.9890  214.4530  157.1030 C   0  0  0  0  0  3  0  0  0  0  0  0
  160.0840  213.6430  156.7910 C   0  0  0  0  0  0  0  0  0  0  0  0
  157.7200  214.1260  156.6200 C   0  0  0  0  0  3  0  0  0  0  0  0
  163.4570  212.6890  147.6440 F   0  0  0  0  0  0  0  0  0  0  0  0
  162.1720  213.1590  147.4500 C   0  0  0  0  0  2  0  0  0  0  0  0
  1 27  1  0  0  0  0
  2 17  1  0  0  0  0
  2 22  1  0  0  0  0
  3 20  2  0  0  0  0
  4  1  1  0  0  0  0
  5 10  1  0  0  0  0
  6 11  1  0  0  0  0
  7 10  1  0  0  0  0
  7  3  1  0  0  0  0
  8 18  1  0  0  0  0
  9  6  2  0  0  0  0
  9  3  1  0  0  0  0
 10 23  1  0  0  0  0
 11 16  1  0  0  0  0
 12  4  1  0  0  0  0
 12  1  1  0  0  0  0
 12  8  1  0  0  0  0
 13 21  1  0  0  0  0
 13  9  1  0  0  0  0
 14  2  1  0  0  0  0
 17 13  1  0  0  0  0
 18 19  1  0  0  0  0
 18 25  1  0  0  0  0
 19  5  1  0  0  0  0
 20 16  1  0  0  0  0
 20 15  1  0  0  0  0
 21  7  1  0  0  0  0
 22  6  1  0  0  0  0
 23 28  1  0  0  0  0
 23 30  1  0  0  0  0
 24  2  1  0  0  0  0
 26  8  1  0  0  0  0
 27 21  1  0  0  0  0
 27 25  1  0  0  0  0
 28 15  1  0  0  0  0
 29 35  1  0  0  0  0
 30 29  2  0  0  0  0
 30 31  1  0  0  0  0
 31 34  2  0  0  0  0
 34 33  1  0  0  0  0
 34 32  1  0  0  0  0
 35 33  2  0  0  0  0
 37 36  1  0  0  0  0
 37  4  1  0  0  0  0
M  END
>  <MODEL>
3

>  <REMARK>
 VINA RESULT:      -4.1      3.215      6.476
  Name = 
  2 active torsions:
  status: ('A' for Active; 'I' for Inactive)
    1  A    between atoms: C_4  and  C_37
    2  A    between atoms: N_23  and  C_30
                            x       y       z     vdW  Elec       q    Type
                         _______ _______ _______ _____ _____    ______ ____

>  <TORSDO>
F 2

$$$$
