=
 OpenBabel11122412583D

 32 37  0  0  1  0  0  0  0  0999 V2000
  160.4420  203.8860  149.4240 C   0  0  0  0  0  2  0  0  0  0  0  0
  161.1320  208.4850  151.9640 C   0  0  0  0  0  0  0  0  0  0  0  0
  159.5230  207.4080  156.0590 C   0  0  0  0  0  2  0  0  0  0  0  0
  159.2950  208.8070  156.5800 C   0  0  0  0  0  2  0  0  0  0  0  0
  161.0770  210.8930  150.9780 C   0  0  0  0  0  0  0  0  0  0  0  0
  160.5570  212.2480  151.1280 C   0  0  0  0  0  0  0  0  0  0  0  0
  161.7160  206.5150  150.4780 C   0  0  1  0  0  3  0  0  0  0  0  0
  161.5360  206.2110  152.9460 C   0  0  0  0  0  2  0  0  0  0  0  0
  159.6750  214.0590  152.2790 C   0  0  1  0  0  3  0  0  0  0  0  0
  161.6050  204.1500  151.5280 C   0  0  0  0  0  2  0  0  0  0  0  0
  160.9550  207.3400  155.5740 C   0  0  0  0  0  2  0  0  0  0  0  0
  161.2080  207.6840  153.0580 C   0  0  0  0  0  0  0  0  0  0  0  0
  161.2230  208.3230  154.4260 C   0  0  1  0  0  3  0  0  0  0  0  0
  160.5110  210.4410  153.3350 C   0  0  0  0  0  0  0  0  0  0  0  0
  160.0100  214.4530  150.8340 C   0  0  0  0  0  2  0  0  0  0  0  0
  160.3640  205.3570  148.9890 C   0  0  0  0  0  2  0  0  0  0  0  0
  161.1560  205.6180  151.6000 C   0  0  2  0  0  3  0  0  0  0  0  0
  160.6070  213.2170  150.2370 C   0  0  0  0  0  3  0  0  0  0  0  0
  161.6080  205.9980  149.1590 O   0  0  0  0  0  0  0  0  0  0  0  0
  161.6800  203.6190  150.1630 N   0  0  0  0  0  0  0  0  0  0  0  0
  159.3200  209.8000  155.4270 C   0  0  0  0  0  2  0  0  0  0  0  0
  160.3790  209.5340  154.4400 N   0  0  0  0  0  0  0  0  0  0  0  0
  160.2720  211.9230  153.5820 C   0  0  0  0  0  2  0  0  0  0  0  0
  161.0780  207.8950  150.5710 C   0  0  0  0  0  2  0  0  0  0  0  0
  161.6580  210.5460  149.9140 O   0  0  0  0  0  0  0  0  0  0  0  0
  158.1970  214.2830  152.5390 C   0  0  0  0  0  1  0  0  0  0  0  0
  160.9150  209.9600  152.1270 C   0  0  0  0  0  0  0  0  0  0  0  0
  159.9800  212.6430  152.3470 N   0  0  0  0  0  0  0  0  0  0  0  0
  161.8030  202.1740  150.2850 C   0  0  0  0  0  2  0  0  0  0  0  0
  160.8160  201.4790  149.3620 C   0  0  0  0  0  3  0  0  0  0  0  0
  161.5550  200.5960  148.3760 C   0  0  0  0  0  1  0  0  0  0  0  0
  159.8760  200.6270  150.1860 C   0  0  0  0  0  1  0  0  0  0  0  0
  1 20  1  0  0  0  0
  2 27  1  0  0  0  0
  2 12  2  0  0  0  0
  3  4  1  0  0  0  0
  5  6  1  0  0  0  0
  5 27  1  0  0  0  0
  6 28  1  0  0  0  0
  7 24  1  6  0  0  0
  7 17  1  0  0  0  0
  8 12  1  0  0  0  0
  9 28  1  0  0  0  0
  9 26  1  6  0  0  0
 11  3  1  0  0  0  0
 12 13  1  0  0  0  0
 13 22  1  0  0  0  0
 13 11  1  1  0  0  0
 14 23  1  0  0  0  0
 14 22  1  0  0  0  0
 15  9  1  0  0  0  0
 16 19  1  0  0  0  0
 16  1  1  0  0  0  0
 17 10  1  6  0  0  0
 17  8  1  0  0  0  0
 18 15  1  0  0  0  0
 18  6  2  0  0  0  0
 19  7  1  0  0  0  0
 20 29  1  0  0  0  0
 20 10  1  0  0  0  0
 21  4  1  0  0  0  0
 22 21  1  0  0  0  0
 24  2  1  0  0  0  0
 25  5  2  0  0  0  0
 27 14  2  0  0  0  0
 28 23  1  0  0  0  0
 30 32  1  0  0  0  0
 30 29  1  0  0  0  0
 31 30  1  0  0  0  0
M  END
>  <MODEL>
1

>  <REMARK>
 VINA RESULT:      -6.4      0.000      0.000
  Name = 
  2 active torsions:
  status: ('A' for Active; 'I' for Inactive)
    1  A    between atoms: N_20  and  C_29
    2  A    between atoms: C_29  and  C_30
                            x       y       z     vdW  Elec       q    Type
                         _______ _______ _______ _____ _____    ______ ____

>  <TORSDO>
F 2

$$$$
=
 OpenBabel11122412583D

 32 37  0  0  1  0  0  0  0  0999 V2000
  158.5070  211.0460  155.9690 C   0  0  0  0  0  2  0  0  0  0  0  0
  161.2700  207.9240  152.6980 C   0  0  0  0  0  0  0  0  0  0  0  0
  161.5400  210.5960  149.0510 C   0  0  0  0  0  2  0  0  0  0  0  0
  161.8880  209.5400  148.0290 C   0  0  0  0  0  2  0  0  0  0  0  0
  161.2890  205.3240  152.5890 C   0  0  0  0  0  0  0  0  0  0  0  0
  161.2050  204.1500  151.7240 C   0  0  0  0  0  0  0  0  0  0  0  0
  160.6590  209.1010  154.8600 C   0  0  1  0  0  3  0  0  0  0  0  0
  161.5770  210.4030  152.9420 C   0  0  0  0  0  2  0  0  0  0  0  0
  161.3700  202.9770  149.7300 C   0  0  1  0  0  3  0  0  0  0  0  0
  160.5350  211.6880  154.8190 C   0  0  0  0  0  2  0  0  0  0  0  0
  162.5340  210.4660  150.1850 C   0  0  0  0  0  2  0  0  0  0  0  0
  161.6660  209.1080  152.1630 C   0  0  0  0  0  0  0  0  0  0  0  0
  162.4480  209.0960  150.8720 C   0  0  1  0  0  3  0  0  0  0  0  0
  161.7920  206.7120  150.6130 C   0  0  0  0  0  0  0  0  0  0  0  0
  161.0770  202.0200  150.8940 C   0  0  0  0  0  2  0  0  0  0  0  0
  158.5570  209.5270  155.7490 C   0  0  0  0  0  2  0  0  0  0  0  0
  160.5000  210.3800  154.0130 C   0  0  2  0  0  3  0  0  0  0  0  0
  161.0480  202.8990  152.1050 C   0  0  0  0  0  3  0  0  0  0  0  0
  159.8460  209.0230  156.0210 O   0  0  0  0  0  0  0  0  0  0  0  0
  159.8540  211.6040  156.1150 N   0  0  0  0  0  0  0  0  0  0  0  0
  161.5930  208.1570  148.5930 C   0  0  0  0  0  2  0  0  0  0  0  0
  161.9910  207.9950  150.0010 N   0  0  0  0  0  0  0  0  0  0  0  0
  162.0220  205.4650  149.7720 C   0  0  0  0  0  2  0  0  0  0  0  0
  160.4520  207.8810  153.9710 C   0  0  0  0  0  2  0  0  0  0  0  0
  161.2230  205.2010  153.8410 O   0  0  0  0  0  0  0  0  0  0  0  0
  160.2670  202.8730  148.6940 C   0  0  0  0  0  1  0  0  0  0  0  0
  161.4780  206.6490  151.9360 C   0  0  0  0  0  0  0  0  0  0  0  0
  161.3570  204.2950  150.3350 N   0  0  0  0  0  0  0  0  0  0  0  0
  159.7030  212.9690  156.5960 C   0  0  0  0  0  2  0  0  0  0  0  0
  158.4230  213.5820  156.0550 C   0  0  0  0  0  3  0  0  0  0  0  0
  157.7560  214.4280  157.1230 C   0  0  0  0  0  1  0  0  0  0  0  0
  158.7500  214.4530  154.8620 C   0  0  0  0  0  1  0  0  0  0  0  0
  1 20  1  0  0  0  0
  2 24  1  0  0  0  0
  3 11  1  0  0  0  0
  4 21  1  0  0  0  0
  4  3  1  0  0  0  0
  5 25  2  0  0  0  0
  6 18  2  0  0  0  0
  6  5  1  0  0  0  0
  7 24  1  6  0  0  0
  7 19  1  0  0  0  0
  9 26  1  6  0  0  0
  9 28  1  0  0  0  0
  9 15  1  0  0  0  0
 10 20  1  0  0  0  0
 12  2  2  0  0  0  0
 12  8  1  0  0  0  0
 13 11  1  6  0  0  0
 13 12  1  0  0  0  0
 14 27  2  0  0  0  0
 15 18  1  0  0  0  0
 16  1  1  0  0  0  0
 16 19  1  0  0  0  0
 17  8  1  6  0  0  0
 17 10  1  0  0  0  0
 17  7  1  0  0  0  0
 20 29  1  0  0  0  0
 21 22  1  0  0  0  0
 22 14  1  0  0  0  0
 22 13  1  0  0  0  0
 23 28  1  0  0  0  0
 23 14  1  0  0  0  0
 27  5  1  0  0  0  0
 27  2  1  0  0  0  0
 28  6  1  0  0  0  0
 30 29  1  0  0  0  0
 30 31  1  0  0  0  0
 32 30  1  0  0  0  0
M  END
>  <MODEL>
2

>  <REMARK>
 VINA RESULT:      -6.1      2.415      8.800
  Name = 
  2 active torsions:
  status: ('A' for Active; 'I' for Inactive)
    1  A    between atoms: N_20  and  C_29
    2  A    between atoms: C_29  and  C_30
                            x       y       z     vdW  Elec       q    Type
                         _______ _______ _______ _____ _____    ______ ____

>  <TORSDO>
F 2

$$$$
=
 OpenBabel11122412583D

 32 37  0  0  1  0  0  0  0  0999 V2000
  159.2550  208.7640  156.3020 C   0  0  0  0  0  2  0  0  0  0  0  0
  161.4570  206.3080  152.1560 C   0  0  0  0  0  0  0  0  0  0  0  0
  161.5450  209.6940  149.1490 C   0  0  0  0  0  2  0  0  0  0  0  0
  161.7150  208.8710  147.8950 C   0  0  0  0  0  2  0  0  0  0  0  0
  161.2870  203.7960  151.4970 C   0  0  0  0  0  0  0  0  0  0  0  0
  161.0370  202.8430  150.4190 C   0  0  0  0  0  0  0  0  0  0  0  0
  161.1470  207.0130  154.5720 C   0  0  1  0  0  3  0  0  0  0  0  0
  161.9560  208.6580  152.8820 C   0  0  0  0  0  2  0  0  0  0  0  0
  160.9210  202.1260  148.2160 C   0  0  1  0  0  3  0  0  0  0  0  0
  161.1970  209.5490  155.0930 C   0  0  0  0  0  2  0  0  0  0  0  0
  162.6350  209.2750  150.1110 C   0  0  0  0  0  2  0  0  0  0  0  0
  161.8780  207.5600  151.8420 C   0  0  0  0  0  0  0  0  0  0  0  0
  162.5250  207.7940  150.4990 C   0  0  1  0  0  3  0  0  0  0  0  0
  161.6840  205.5560  149.8160 C   0  0  0  0  0  0  0  0  0  0  0  0
  160.6810  200.9530  149.1760 C   0  0  0  0  0  2  0  0  0  0  0  0
  159.1790  207.3290  155.7610 C   0  0  0  0  0  2  0  0  0  0  0  0
  160.9930  208.4510  154.0380 C   0  0  2  0  0  3  0  0  0  0  0  0
  160.8330  201.5480  150.5410 C   0  0  0  0  0  3  0  0  0  0  0  0
  160.4500  206.7200  155.7740 O   0  0  0  0  0  0  0  0  0  0  0  0
  160.6450  209.2160  156.4110 N   0  0  0  0  0  0  0  0  0  0  0  0
  161.3840  207.4140  148.1830 C   0  0  0  0  0  2  0  0  0  0  0  0
  161.9090  206.9310  149.4710 N   0  0  0  0  0  0  0  0  0  0  0  0
  161.7430  204.5130  148.7100 C   0  0  0  0  0  2  0  0  0  0  0  0
  160.7700  206.0260  153.4740 C   0  0  0  0  0  2  0  0  0  0  0  0
  161.3380  203.4060  152.6940 O   0  0  0  0  0  0  0  0  0  0  0  0
  159.7160  202.3000  147.3110 C   0  0  0  0  0  1  0  0  0  0  0  0
  161.5000  205.2210  151.1230 C   0  0  0  0  0  0  0  0  0  0  0  0
  161.0590  203.2800  149.0830 N   0  0  0  0  0  0  0  0  0  0  0  0
  160.6370  210.4480  157.1830 C   0  0  0  0  0  2  0  0  0  0  0  0
  159.7530  211.4860  156.5130 C   0  0  0  0  0  3  0  0  0  0  0  0
  158.4340  211.6060  157.2540 C   0  0  0  0  0  1  0  0  0  0  0  0
  160.4550  212.8270  156.5280 C   0  0  0  0  0  1  0  0  0  0  0  0
  1 20  1  0  0  0  0
  2 24  1  0  0  0  0
  3 11  1  0  0  0  0
  4 21  1  0  0  0  0
  4  3  1  0  0  0  0
  5 25  2  0  0  0  0
  6 18  2  0  0  0  0
  6  5  1  0  0  0  0
  7 24  1  6  0  0  0
  7 19  1  0  0  0  0
  9 26  1  6  0  0  0
  9 28  1  0  0  0  0
  9 15  1  0  0  0  0
 10 20  1  0  0  0  0
 12  2  2  0  0  0  0
 12  8  1  0  0  0  0
 13 11  1  6  0  0  0
 13 12  1  0  0  0  0
 14 27  2  0  0  0  0
 15 18  1  0  0  0  0
 16 19  1  0  0  0  0
 16  1  1  0  0  0  0
 17  8  1  6  0  0  0
 17  7  1  0  0  0  0
 17 10  1  0  0  0  0
 20 29  1  0  0  0  0
 21 22  1  0  0  0  0
 22 14  1  0  0  0  0
 22 13  1  0  0  0  0
 23 28  1  0  0  0  0
 23 14  1  0  0  0  0
 27  5  1  0  0  0  0
 27  2  1  0  0  0  0
 28  6  1  0  0  0  0
 30 32  1  0  0  0  0
 30 29  1  0  0  0  0
 30 31  1  0  0  0  0
M  END
>  <MODEL>
3

>  <REMARK>
 VINA RESULT:      -5.5      2.759      8.646
  Name = 
  2 active torsions:
  status: ('A' for Active; 'I' for Inactive)
    1  A    between atoms: N_20  and  C_29
    2  A    between atoms: C_29  and  C_30
                            x       y       z     vdW  Elec       q    Type
                         _______ _______ _______ _____ _____    ______ ____

>  <TORSDO>
F 2

$$$$
=
 OpenBabel11122412583D

 32 37  0  0  1  0  0  0  0  0999 V2000
  161.7030  201.5730  150.6530 C   0  0  0  0  0  2  0  0  0  0  0  0
  160.9520  206.5850  152.1980 C   0  0  0  0  0  0  0  0  0  0  0  0
  162.4920  208.8030  148.5610 C   0  0  0  0  0  2  0  0  0  0  0  0
  162.7060  210.1530  149.2010 C   0  0  0  0  0  2  0  0  0  0  0  0
  161.0170  207.5520  154.6130 C   0  0  0  0  0  0  0  0  0  0  0  0
  161.5300  208.6110  155.4780 C   0  0  0  0  0  0  0  0  0  0  0  0
  160.4020  204.1390  151.8210 C   0  0  1  0  0  3  0  0  0  0  0  0
  160.5380  205.7030  149.8850 C   0  0  0  0  0  2  0  0  0  0  0  0
  162.3840  210.7100  155.9690 C   0  0  1  0  0  3  0  0  0  0  0  0
  160.5020  203.2500  149.3900 C   0  0  0  0  0  2  0  0  0  0  0  0
  161.0690  208.3850  148.8630 C   0  0  0  0  0  2  0  0  0  0  0  0
  160.8590  206.8140  150.8620 C   0  0  0  0  0  0  0  0  0  0  0  0
  160.8180  208.2400  150.3710 C   0  0  1  0  0  3  0  0  0  0  0  0
  161.5420  208.9400  152.6440 C   0  0  0  0  0  0  0  0  0  0  0  0
  162.0740  209.9410  157.2610 C   0  0  0  0  0  2  0  0  0  0  0  0
  161.7840  202.2840  152.0120 C   0  0  0  0  0  2  0  0  0  0  0  0
  160.9450  204.3300  150.3910 C   0  0  2  0  0  3  0  0  0  0  0  0
  161.4920  208.6440  156.7940 C   0  0  0  0  0  3  0  0  0  0  0  0
  160.5350  202.8340  152.3660 O   0  0  0  0  0  0  0  0  0  0  0  0
  160.4540  201.8990  149.9590 N   0  0  0  0  0  0  0  0  0  0  0  0
  162.6980  210.0150  150.7160 C   0  0  0  0  0  2  0  0  0  0  0  0
  161.6580  209.1050  151.2220 N   0  0  0  0  0  0  0  0  0  0  0  0
  161.7710  210.1520  153.5340 C   0  0  0  0  0  2  0  0  0  0  0  0
  161.0340  205.1750  152.7420 C   0  0  0  0  0  2  0  0  0  0  0  0
  160.4560  206.5380  155.1090 O   0  0  0  0  0  0  0  0  0  0  0  0
  163.8570  211.0750  155.9340 C   0  0  0  0  0  1  0  0  0  0  0  0
  161.1610  207.7310  153.1420 C   0  0  0  0  0  0  0  0  0  0  0  0
  162.0830  209.7700  154.9080 N   0  0  0  0  0  0  0  0  0  0  0  0
  160.3330  200.9800  148.8380 C   0  0  0  0  0  2  0  0  0  0  0  0
  161.4160  201.2550  147.8090 C   0  0  0  0  0  3  0  0  0  0  0  0
  161.9560  199.9500  147.2570 C   0  0  0  0  0  1  0  0  0  0  0  0
  160.8330  202.0710  146.6750 C   0  0  0  0  0  1  0  0  0  0  0  0
  1 16  1  0  0  0  0
  2 24  1  0  0  0  0
  2 27  1  0  0  0  0
  3 11  1  0  0  0  0
  3  4  1  0  0  0  0
  4 21  1  0  0  0  0
  5 25  2  0  0  0  0
  5  6  1  0  0  0  0
  6 18  2  0  0  0  0
  7 19  1  0  0  0  0
  7 24  1  1  0  0  0
  8 17  1  0  0  0  0
  8 12  1  0  0  0  0
  9 26  1  1  0  0  0
  9 15  1  0  0  0  0
 10 20  1  0  0  0  0
 12  2  2  0  0  0  0
 13 11  1  6  0  0  0
 13 12  1  0  0  0  0
 13 22  1  0  0  0  0
 14 27  2  0  0  0  0
 14 23  1  0  0  0  0
 16 19  1  0  0  0  0
 17 10  1  6  0  0  0
 17  7  1  0  0  0  0
 18 15  1  0  0  0  0
 20  1  1  0  0  0  0
 21 22  1  0  0  0  0
 22 14  1  0  0  0  0
 23 28  1  0  0  0  0
 27  5  1  0  0  0  0
 28  6  1  0  0  0  0
 28  9  1  0  0  0  0
 29 20  1  0  0  0  0
 30 29  1  0  0  0  0
 31 30  1  0  0  0  0
 32 30  1  0  0  0  0
M  END
>  <MODEL>
4

>  <REMARK>
 VINA RESULT:      -5.3      2.709      4.771
  Name = 
  2 active torsions:
  status: ('A' for Active; 'I' for Inactive)
    1  A    between atoms: N_20  and  C_29
    2  A    between atoms: C_29  and  C_30
                            x       y       z     vdW  Elec       q    Type
                         _______ _______ _______ _____ _____    ______ ____

>  <TORSDO>
F 2

$$$$
=
 OpenBabel11122412583D

 32 37  0  0  1  0  0  0  0  0999 V2000
  160.5000  204.4420  145.8190 C   0  0  0  0  0  2  0  0  0  0  0  0
  161.7190  208.0770  149.4760 C   0  0  0  0  0  0  0  0  0  0  0  0
  160.8280  205.7590  153.2640 C   0  0  0  0  0  2  0  0  0  0  0  0
  160.7240  206.9260  154.2170 C   0  0  0  0  0  2  0  0  0  0  0  0
  161.5430  210.6670  149.2920 C   0  0  0  0  0  0  0  0  0  0  0  0
  161.0850  211.8960  149.9350 C   0  0  0  0  0  0  0  0  0  0  0  0
  161.9930  206.6700  147.3850 C   0  0  1  0  0  3  0  0  0  0  0  0
  162.2420  205.6280  149.6360 C   0  0  0  0  0  2  0  0  0  0  0  0
  160.4560  213.2430  151.7150 C   0  0  1  0  0  3  0  0  0  0  0  0
  162.0180  204.0950  147.6700 C   0  0  0  0  0  2  0  0  0  0  0  0
  162.1520  205.8890  152.5420 C   0  0  0  0  0  2  0  0  0  0  0  0
  161.9690  206.9860  150.2450 C   0  0  0  0  0  0  0  0  0  0  0  0
  162.2350  207.1820  151.7180 C   0  0  1  0  0  3  0  0  0  0  0  0
  161.3880  209.5050  151.4620 C   0  0  0  0  0  0  0  0  0  0  0  0
  160.5410  214.0660  150.4230 C   0  0  0  0  0  2  0  0  0  0  0  0
  160.3780  205.9720  145.8710 C   0  0  0  0  0  2  0  0  0  0  0  0
  161.6190  205.4570  148.2610 C   0  0  2  0  0  3  0  0  0  0  0  0
  160.9990  213.0900  149.3850 C   0  0  0  0  0  3  0  0  0  0  0  0
  161.6460  206.5720  146.0110 O   0  0  0  0  0  0  0  0  0  0  0  0
  161.8420  204.0050  146.2170 N   0  0  0  0  0  0  0  0  0  0  0  0
  160.5680  208.2220  153.4340 C   0  0  0  0  0  2  0  0  0  0  0  0
  161.4320  208.3030  152.2450 N   0  0  0  0  0  0  0  0  0  0  0  0
  161.2270  210.8340  152.1840 C   0  0  0  0  0  2  0  0  0  0  0  0
  161.4100  207.9340  148.0020 C   0  0  0  0  0  2  0  0  0  0  0  0
  161.9210  210.6780  148.0900 O   0  0  0  0  0  0  0  0  0  0  0  0
  159.0510  213.3270  152.2820 C   0  0  0  0  0  1  0  0  0  0  0  0
  161.5650  209.4260  150.1140 C   0  0  0  0  0  0  0  0  0  0  0  0
  160.7380  211.8840  151.2970 N   0  0  0  0  0  0  0  0  0  0  0  0
  161.9550  202.5960  145.8710 C   0  0  0  0  0  2  0  0  0  0  0  0
  160.7520  201.8260  146.3880 C   0  0  0  0  0  3  0  0  0  0  0  0
  160.0800  201.0820  145.2500 C   0  0  0  0  0  1  0  0  0  0  0  0
  161.2060  200.8320  147.4340 C   0  0  0  0  0  1  0  0  0  0  0  0
  1 16  1  0  0  0  0
  1 20  1  0  0  0  0
  2 27  1  0  0  0  0
  2 12  2  0  0  0  0
  3  4  1  0  0  0  0
  5  6  1  0  0  0  0
  5 27  1  0  0  0  0
  6 28  1  0  0  0  0
  7 24  1  1  0  0  0
  7 17  1  0  0  0  0
  8 12  1  0  0  0  0
  9 26  1  6  0  0  0
 11  3  1  0  0  0  0
 12 13  1  0  0  0  0
 13 22  1  0  0  0  0
 13 11  1  1  0  0  0
 14 23  1  0  0  0  0
 14 22  1  0  0  0  0
 15  9  1  0  0  0  0
 16 19  1  0  0  0  0
 17 10  1  6  0  0  0
 17  8  1  0  0  0  0
 18  6  2  0  0  0  0
 18 15  1  0  0  0  0
 19  7  1  0  0  0  0
 20 10  1  0  0  0  0
 21  4  1  0  0  0  0
 22 21  1  0  0  0  0
 24  2  1  0  0  0  0
 25  5  2  0  0  0  0
 27 14  2  0  0  0  0
 28  9  1  0  0  0  0
 28 23  1  0  0  0  0
 29 20  1  0  0  0  0
 29 30  1  0  0  0  0
 30 32  1  0  0  0  0
 31 30  1  0  0  0  0
M  END
>  <MODEL>
5

>  <REMARK>
 VINA RESULT:      -5.2      2.053      2.853
  Name = 
  2 active torsions:
  status: ('A' for Active; 'I' for Inactive)
    1  A    between atoms: N_20  and  C_29
    2  A    between atoms: C_29  and  C_30
                            x       y       z     vdW  Elec       q    Type
                         _______ _______ _______ _____ _____    ______ ____

>  <TORSDO>
F 2

$$$$
=
 OpenBabel11122412583D

 32 37  0  0  1  0  0  0  0  0999 V2000
  160.3030  203.3960  149.5460 C   0  0  0  0  0  2  0  0  0  0  0  0
  161.5790  208.3940  150.7580 C   0  0  0  0  0  0  0  0  0  0  0  0
  159.7030  208.7460  154.8650 C   0  0  0  0  0  2  0  0  0  0  0  0
  159.6660  210.2530  154.9620 C   0  0  0  0  0  2  0  0  0  0  0  0
  161.9080  210.4080  149.1430 C   0  0  0  0  0  0  0  0  0  0  0  0
  161.5880  211.8070  148.8750 C   0  0  0  0  0  0  0  0  0  0  0  0
  161.9140  206.0240  149.9200 C   0  0  1  0  0  3  0  0  0  0  0  0
  161.6150  206.4600  152.3570 C   0  0  0  0  0  2  0  0  0  0  0  0
  160.9450  213.9700  149.4140 C   0  0  1  0  0  3  0  0  0  0  0  0
  161.4250  204.0910  151.5730 C   0  0  0  0  0  2  0  0  0  0  0  0
  161.1230  208.3550  154.5220 C   0  0  0  0  0  2  0  0  0  0  0  0
  161.5030  207.9340  152.0330 C   0  0  0  0  0  0  0  0  0  0  0  0
  161.5680  208.9270  153.1680 C   0  0  1  0  0  3  0  0  0  0  0  0
  161.2090  210.7230  151.4870 C   0  0  0  0  0  0  0  0  0  0  0  0
  161.3790  213.8890  147.9440 C   0  0  0  0  0  2  0  0  0  0  0  0
  160.4540  204.6800  148.7170 C   0  0  0  0  0  2  0  0  0  0  0  0
  161.1940  205.5650  151.2040 C   0  0  2  0  0  3  0  0  0  0  0  0
  161.8080  212.4670  147.7570 C   0  0  0  0  0  3  0  0  0  0  0  0
  161.7730  205.1730  148.7920 O   0  0  0  0  0  0  0  0  0  0  0  0
  161.4640  203.1890  150.4170 N   0  0  0  0  0  0  0  0  0  0  0  0
  159.8720  210.8650  153.5840 C   0  0  0  0  0  2  0  0  0  0  0  0
  160.9110  210.1930  152.7870 N   0  0  0  0  0  0  0  0  0  0  0  0
  161.1820  212.2320  151.2960 C   0  0  0  0  0  2  0  0  0  0  0  0
  161.4820  207.4460  149.5830 C   0  0  0  0  0  2  0  0  0  0  0  0
  162.4650  209.7000  148.2610 O   0  0  0  0  0  0  0  0  0  0  0  0
  159.5090  214.4500  149.4970 C   0  0  0  0  0  1  0  0  0  0  0  0
  161.5760  209.8700  150.4910 C   0  0  0  0  0  0  0  0  0  0  0  0
  161.0370  212.6040  149.8930 N   0  0  0  0  0  0  0  0  0  0  0  0
  161.3710  201.8350  150.9410 C   0  0  0  0  0  2  0  0  0  0  0  0
  161.0430  200.8570  149.8260 C   0  0  0  0  0  3  0  0  0  0  0  0
  159.5400  200.7130  149.6820 C   0  0  0  0  0  1  0  0  0  0  0  0
  161.6210  201.3700  148.5240 C   0  0  0  0  0  1  0  0  0  0  0  0
  1 20  1  0  0  0  0
  2 12  2  0  0  0  0
  3  4  1  0  0  0  0
  5 27  1  0  0  0  0
  6  5  1  0  0  0  0
  6 28  1  0  0  0  0
  7 24  1  6  0  0  0
  7 17  1  0  0  0  0
  9 26  1  6  0  0  0
  9 28  1  0  0  0  0
 11  3  1  0  0  0  0
 12  8  1  0  0  0  0
 12 13  1  0  0  0  0
 13 11  1  1  0  0  0
 14 22  1  0  0  0  0
 15  9  1  0  0  0  0
 16 19  1  0  0  0  0
 16  1  1  0  0  0  0
 17 10  1  1  0  0  0
 17  8  1  0  0  0  0
 18 15  1  0  0  0  0
 18  6  2  0  0  0  0
 19  7  1  0  0  0  0
 20 29  1  0  0  0  0
 20 10  1  0  0  0  0
 21  4  1  0  0  0  0
 22 13  1  0  0  0  0
 22 21  1  0  0  0  0
 23 14  1  0  0  0  0
 24  2  1  0  0  0  0
 25  5  2  0  0  0  0
 27  2  1  0  0  0  0
 27 14  2  0  0  0  0
 28 23  1  0  0  0  0
 30 29  1  0  0  0  0
 31 30  1  0  0  0  0
 32 30  1  0  0  0  0
M  END
>  <MODEL>
6

>  <REMARK>
 VINA RESULT:      -3.7      1.326      1.905
  Name = 
  2 active torsions:
  status: ('A' for Active; 'I' for Inactive)
    1  A    between atoms: N_20  and  C_29
    2  A    between atoms: C_29  and  C_30
                            x       y       z     vdW  Elec       q    Type
                         _______ _______ _______ _____ _____    ______ ____

>  <TORSDO>
F 2

$$$$
=
 OpenBabel11122412583D

 32 37  0  0  1  0  0  0  0  0999 V2000
  156.5350  212.2390  154.5190 C   0  0  0  0  0  2  0  0  0  0  0  0
  160.4500  209.2120  152.6250 C   0  0  0  0  0  0  0  0  0  0  0  0
  161.5310  211.5200  148.8810 C   0  0  0  0  0  2  0  0  0  0  0  0
  162.2730  210.4240  148.1540 C   0  0  0  0  0  2  0  0  0  0  0  0
  160.7630  206.6410  152.8780 C   0  0  0  0  0  0  0  0  0  0  0  0
  161.0600  205.3860  152.1930 C   0  0  0  0  0  0  0  0  0  0  0  0
  159.1050  210.5040  154.3430 C   0  0  1  0  0  3  0  0  0  0  0  0
  160.4200  211.7210  152.6090 C   0  0  0  0  0  2  0  0  0  0  0  0
  161.9320  204.0540  150.5060 C   0  0  1  0  0  3  0  0  0  0  0  0
  158.7390  213.0330  153.9200 C   0  0  0  0  0  2  0  0  0  0  0  0
  162.1470  211.6390  150.2580 C   0  0  0  0  0  2  0  0  0  0  0  0
  160.8680  210.3790  152.0710 C   0  0  0  0  0  0  0  0  0  0  0  0
  161.9970  210.3450  151.0710 C   0  0  1  0  0  3  0  0  0  0  0  0
  161.6920  207.8800  150.9590 C   0  0  0  0  0  0  0  0  0  0  0  0
  161.4010  203.1860  151.6550 C   0  0  0  0  0  2  0  0  0  0  0  0
  156.8020  210.7270  154.5290 C   0  0  0  0  0  2  0  0  0  0  0  0
  159.0790  211.6590  153.3220 C   0  0  2  0  0  3  0  0  0  0  0  0
  160.9220  204.1700  152.6780 C   0  0  0  0  0  3  0  0  0  0  0  0
  157.9930  210.4320  155.2240 O   0  0  0  0  0  0  0  0  0  0  0  0
  157.7130  212.9870  154.9670 N   0  0  0  0  0  0  0  0  0  0  0  0
  161.9640  209.0770  148.7910 C   0  0  0  0  0  2  0  0  0  0  0  0
  161.9360  209.1120  150.2630 N   0  0  0  0  0  0  0  0  0  0  0  0
  162.2870  206.5990  150.3950 C   0  0  0  0  0  2  0  0  0  0  0  0
  159.2970  209.1850  153.6060 C   0  0  0  0  0  2  0  0  0  0  0  0
  160.3370  206.6350  154.0640 O   0  0  0  0  0  0  0  0  0  0  0  0
  161.2070  203.6980  149.2220 C   0  0  0  0  0  1  0  0  0  0  0  0
  161.0040  207.9080  152.1340 C   0  0  0  0  0  0  0  0  0  0  0  0
  161.6060  205.4110  150.8980 N   0  0  0  0  0  0  0  0  0  0  0  0
  157.2890  214.3590  155.1960 C   0  0  0  0  0  2  0  0  0  0  0  0
  156.3140  214.4250  156.3590 C   0  0  0  0  0  3  0  0  0  0  0  0
  154.8870  214.4530  155.8430 C   0  0  0  0  0  1  0  0  0  0  0  0
  156.5010  213.2080  157.2380 C   0  0  0  0  0  1  0  0  0  0  0  0
  1 16  1  0  0  0  0
  1 20  1  0  0  0  0
  2 24  1  0  0  0  0
  3 11  1  0  0  0  0
  4 21  1  0  0  0  0
  4  3  1  0  0  0  0
  5 25  2  0  0  0  0
  6 18  2  0  0  0  0
  6  5  1  0  0  0  0
  7 24  1  6  0  0  0
  7 19  1  0  0  0  0
  9 26  1  6  0  0  0
  9 28  1  0  0  0  0
  9 15  1  0  0  0  0
 10 20  1  0  0  0  0
 12  8  1  0  0  0  0
 12  2  2  0  0  0  0
 13 11  1  6  0  0  0
 13 12  1  0  0  0  0
 14 27  2  0  0  0  0
 15 18  1  0  0  0  0
 16 19  1  0  0  0  0
 17  8  1  1  0  0  0
 17 10  1  0  0  0  0
 17  7  1  0  0  0  0
 20 29  1  0  0  0  0
 21 22  1  0  0  0  0
 22 14  1  0  0  0  0
 22 13  1  0  0  0  0
 23 28  1  0  0  0  0
 23 14  1  0  0  0  0
 27  2  1  0  0  0  0
 27  5  1  0  0  0  0
 28  6  1  0  0  0  0
 29 30  1  0  0  0  0
 30 32  1  0  0  0  0
 31 30  1  0  0  0  0
M  END
>  <MODEL>
7

>  <REMARK>
 VINA RESULT:      -3.6      2.716      8.876
  Name = 
  2 active torsions:
  status: ('A' for Active; 'I' for Inactive)
    1  A    between atoms: N_20  and  C_29
    2  A    between atoms: C_29  and  C_30
                            x       y       z     vdW  Elec       q    Type
                         _______ _______ _______ _____ _____    ______ ____

>  <TORSDO>
F 2

$$$$
=
 OpenBabel11122412583D

 32 37  0  0  1  0  0  0  0  0999 V2000
  162.5880  209.9930  153.7080 C   0  0  0  0  0  2  0  0  0  0  0  0
  160.9070  206.3940  150.2020 C   0  0  0  0  0  0  0  0  0  0  0  0
  161.9610  202.5680  152.3860 C   0  0  0  0  0  2  0  0  0  0  0  0
  161.9190  201.6240  151.2080 C   0  0  0  0  0  2  0  0  0  0  0  0
  160.8080  206.5960  147.6090 C   0  0  0  0  0  0  0  0  0  0  0  0
  161.1170  205.9550  146.3340 C   0  0  0  0  0  0  0  0  0  0  0  0
  160.8310  208.4780  151.6440 C   0  0  1  0  0  3  0  0  0  0  0  0
  160.6480  206.2230  152.6920 C   0  0  0  0  0  2  0  0  0  0  0  0
  161.5590  204.1740  144.9160 C   0  0  1  0  0  3  0  0  0  0  0  0
  161.0770  208.1710  154.2040 C   0  0  0  0  0  2  0  0  0  0  0  0
  160.6470  203.3180  152.4040 C   0  0  0  0  0  2  0  0  0  0  0  0
  160.7600  205.6200  151.3080 C   0  0  0  0  0  0  0  0  0  0  0  0
  160.4420  204.1550  151.1330 C   0  0  1  0  0  3  0  0  0  0  0  0
  161.0400  204.4140  148.7340 C   0  0  0  0  0  0  0  0  0  0  0  0
  161.4140  205.4750  144.1150 C   0  0  0  0  0  2  0  0  0  0  0  0
  162.5440  209.9520  152.1740 C   0  0  0  0  0  2  0  0  0  0  0  0
  161.3150  207.5840  152.8030 C   0  0  2  0  0  3  0  0  0  0  0  0
  161.0860  206.5130  145.1420 C   0  0  0  0  0  3  0  0  0  0  0  0
  161.2170  209.8430  151.7120 O   0  0  0  0  0  0  0  0  0  0  0  0
  161.2930  209.6190  154.2840 N   0  0  0  0  0  0  0  0  0  0  0  0
  161.9510  202.4150  149.9080 C   0  0  0  0  0  2  0  0  0  0  0  0
  161.1090  203.6220  149.9290 N   0  0  0  0  0  0  0  0  0  0  0  0
  161.0420  203.7000  147.3910 C   0  0  0  0  0  2  0  0  0  0  0  0
  161.2620  207.8600  150.3200 C   0  0  0  0  0  2  0  0  0  0  0  0
  160.4570  207.8060  147.6470 O   0  0  0  0  0  0  0  0  0  0  0  0
  162.9340  203.5790  144.6770 C   0  0  0  0  0  1  0  0  0  0  0  0
  160.9020  205.7640  148.8400 C   0  0  0  0  0  0  0  0  0  0  0  0
  161.4340  204.5860  146.3000 N   0  0  0  0  0  0  0  0  0  0  0  0
  161.3390  209.9550  155.6990 C   0  0  0  0  0  2  0  0  0  0  0  0
  160.4040  211.1150  155.9980 C   0  0  0  0  0  3  0  0  0  0  0  0
  159.4400  211.3190  154.8450 C   0  0  0  0  0  1  0  0  0  0  0  0
  159.6180  210.8120  157.2550 C   0  0  0  0  0  1  0  0  0  0  0  0
  1 20  1  0  0  0  0
  2 24  1  0  0  0  0
  2 12  2  0  0  0  0
  3 11  1  0  0  0  0
  4  3  1  0  0  0  0
  5 25  2  0  0  0  0
  5 27  1  0  0  0  0
  6  5  1  0  0  0  0
  7 24  1  6  0  0  0
  7 19  1  0  0  0  0
  7 17  1  0  0  0  0
  9 26  1  1  0  0  0
  9 28  1  0  0  0  0
 10 20  1  0  0  0  0
 12  8  1  0  0  0  0
 13 12  1  0  0  0  0
 13 11  1  1  0  0  0
 14 27  2  0  0  0  0
 14 22  1  0  0  0  0
 15  9  1  0  0  0  0
 15 18  1  0  0  0  0
 16  1  1  0  0  0  0
 17  8  1  1  0  0  0
 17 10  1  0  0  0  0
 18  6  2  0  0  0  0
 19 16  1  0  0  0  0
 20 29  1  0  0  0  0
 21 22  1  0  0  0  0
 21  4  1  0  0  0  0
 22 13  1  0  0  0  0
 23 14  1  0  0  0  0
 27  2  1  0  0  0  0
 28  6  1  0  0  0  0
 28 23  1  0  0  0  0
 29 30  1  0  0  0  0
 30 32  1  0  0  0  0
 31 30  1  0  0  0  0
M  END
>  <MODEL>
8

>  <REMARK>
 VINA RESULT:      -3.5      2.263      8.011
  Name = 
  2 active torsions:
  status: ('A' for Active; 'I' for Inactive)
    1  A    between atoms: N_20  and  C_29
    2  A    between atoms: C_29  and  C_30
                            x       y       z     vdW  Elec       q    Type
                         _______ _______ _______ _____ _____    ______ ____

>  <TORSDO>
F 2

$$$$
