=
 OpenBabel11122413003D

 32 37  0  0  1  0  0  0  0  0999 V2000
  159.5640  212.3420  151.4490 C   0  0  1  0  0  3  0  0  0  0  0  0
  156.2580  213.6150  154.0870 C   0  0  0  0  0  2  0  0  0  0  0  0
  156.9950  213.0410  155.2090 N   0  0  0  0  0  2  0  0  0  0  0  0
  160.3690  210.3110  152.6330 C   0  0  0  0  0  0  0  0  0  0  0  0
  160.7480  209.6180  153.8660 C   0  0  0  0  0  0  0  0  0  0  0  0
  160.5630  213.3430  149.3790 N   0  0  0  0  0  0  0  0  0  0  0  0
  158.7040  214.4520  150.5420 O   0  0  0  0  0  0  0  0  0  0  0  0
  161.0360  209.3930  156.1700 C   0  0  1  0  0  3  0  0  0  0  0  0
  157.0360  213.4080  152.7920 C   0  0  0  0  0  2  0  0  0  0  0  0
  159.2740  213.8270  151.6770 C   0  0  1  0  0  3  0  0  0  0  0  0
  158.4110  214.0750  152.9080 C   0  0  2  0  0  3  0  0  0  0  0  0
  159.7420  212.2410  154.0640 C   0  0  0  0  0  0  0  0  0  0  0  0
  161.3740  208.0790  155.4470 C   0  0  0  0  0  2  0  0  0  0  0  0
  159.2270  213.9740  149.3050 C   0  0  2  0  0  3  0  0  0  0  0  0
  161.1220  208.3620  153.9910 C   0  0  0  0  0  3  0  0  0  0  0  0
  158.2300  213.8030  155.3910 C   0  0  0  0  0  2  0  0  0  0  0  0
  159.1580  213.6350  154.1760 C   0  0  2  0  0  3  0  0  0  0  0  0
  160.1360  211.6070  155.1840 C   0  0  0  0  0  3  0  0  0  0  0  0
  160.6700  212.2830  150.3940 C   0  0  0  0  0  2  0  0  0  0  0  0
  160.4470  209.6600  151.4430 F   0  0  0  0  0  0  0  0  0  0  0  0
  162.2640  209.9000  156.9030 C   0  0  0  0  0  1  0  0  0  0  0  0
  159.9470  211.5950  152.7120 C   0  0  0  0  0  0  0  0  0  0  0  0
  160.6950  210.2960  155.0920 N   0  0  0  0  0  0  0  0  0  0  0  0
  156.8150  213.5350  148.8960 C   0  0  0  0  0  2  0  0  0  0  0  0
  158.2260  213.0560  148.6180 C   0  0  1  0  0  3  0  0  0  0  0  0
  157.4700  213.8440  147.5660 C   0  0  1  0  0  3  0  0  0  0  0  0
  156.9570  212.8860  146.5100 C   0  0  0  0  0  2  0  0  0  0  0  0
  157.7070  213.0850  145.2390 C   0  0  0  0  0  0  0  0  0  0  0  0
  158.7180  212.2020  144.8850 O   0  0  0  0  0  1  0  0  0  0  0  0
  157.4480  214.0710  144.5030 O   0  0  0  0  0  0  0  0  0  0  0  0
  162.7690  214.4530  148.3240 S   0  0  0  0  0  1  0  0  0  0  0  0
  161.5580  214.3640  149.6750 C   0  0  0  0  0  2  0  0  0  0  0  0
  1 19  1  6  0  0  0
  1 10  1  0  0  0  0
  1 22  1  0  0  0  0
  2  3  1  0  0  0  0
  3 16  1  0  0  0  0
  4 22  2  0  0  0  0
  4  5  1  0  0  0  0
  5 15  2  0  0  0  0
  5 23  1  0  0  0  0
  6 32  1  0  0  0  0
  6 19  1  0  0  0  0
  8 21  1  6  0  0  0
  9  2  1  0  0  0  0
 10  7  1  6  0  0  0
 10 11  1  0  0  0  0
 11  9  1  6  0  0  0
 11 17  1  0  0  0  0
 12 17  1  0  0  0  0
 12 18  2  0  0  0  0
 13  8  1  0  0  0  0
 14  6  1  0  0  0  0
 14  7  1  1  0  0  0
 15 13  1  0  0  0  0
 17 16  1  1  0  0  0
 20  4  1  0  0  0  0
 22 12  1  0  0  0  0
 23 18  1  0  0  0  0
 23  8  1  0  0  0  0
 25 24  1  1  0  0  0
 25 14  1  0  0  0  0
 26 27  1  6  0  0  0
 26 25  1  0  0  0  0
 26 24  1  0  0  0  0
 28 27  1  0  0  0  0
 29 28  1  0  0  0  0
 30 28  2  0  0  0  0
 31 32  1  0  0  0  0
M  END
>  <MODEL>
1

>  <REMARK>
 VINA RESULT:      -4.0      0.000      0.000
  Name = 
  4 active torsions:
  status: ('A' for Active; 'I' for Inactive)
    1  A    between atoms: N_7  and  C_19
    2  A    between atoms: C_10  and  C_17
    3  A    between atoms: C_20  and  C_29
    4  A    between atoms: C_29  and  C_30
                            x       y       z     vdW  Elec       q    Type
                         _______ _______ _______ _____ _____    ______ ____

>  <TORSDO>
F 4

$$$$
=
 OpenBabel11122413003D

 32 37  0  0  1  0  0  0  0  0999 V2000
  159.4380  210.6830  154.1220 C   0  0  1  0  0  3  0  0  0  0  0  0
  158.1950  212.8870  150.5010 C   0  0  0  0  0  2  0  0  0  0  0  0
  157.2840  213.6600  151.3410 N   0  0  0  0  0  2  0  0  0  0  0  0
  157.3500  210.7560  155.4700 C   0  0  0  0  0  0  0  0  0  0  0  0
  156.1990  211.4880  156.0020 C   0  0  0  0  0  0  0  0  0  0  0  0
  161.6270  209.6910  154.8360 N   0  0  0  0  0  0  0  0  0  0  0  0
  161.4190  210.8710  152.6900 O   0  0  0  0  0  0  0  0  0  0  0  0
  154.7990  213.3360  156.2700 C   0  0  1  0  0  3  0  0  0  0  0  0
  158.9380  211.8580  151.3470 C   0  0  0  0  0  2  0  0  0  0  0  0
  160.4220  211.5950  153.3860 C   0  0  1  0  0  3  0  0  0  0  0  0
  159.7260  212.5750  152.4500 C   0  0  2  0  0  3  0  0  0  0  0  0
  157.9360  212.8320  154.2380 C   0  0  0  0  0  0  0  0  0  0  0  0
  154.2390  212.1130  157.0150 C   0  0  0  0  0  2  0  0  0  0  0  0
  161.8540  209.6980  153.3740 C   0  0  2  0  0  3  0  0  0  0  0  0
  155.2190  211.0070  156.7370 C   0  0  0  0  0  3  0  0  0  0  0  0
  158.0790  214.4530  152.2790 C   0  0  0  0  0  2  0  0  0  0  0  0
  158.8440  213.5410  153.2520 C   0  0  2  0  0  3  0  0  0  0  0  0
  156.8980  213.5040  154.7700 C   0  0  0  0  0  3  0  0  0  0  0  0
  160.2410  209.9970  155.2280 C   0  0  0  0  0  2  0  0  0  0  0  0
  157.5170  209.4450  155.7820 F   0  0  0  0  0  0  0  0  0  0  0  0
  155.0820  214.4500  157.2600 C   0  0  0  0  0  1  0  0  0  0  0  0
  158.2270  211.4130  154.6740 C   0  0  0  0  0  0  0  0  0  0  0  0
  156.0400  212.8500  155.7040 N   0  0  0  0  0  0  0  0  0  0  0  0
  160.9520  208.7320  151.2700 C   0  0  0  0  0  2  0  0  0  0  0  0
  161.2740  208.4500  152.7240 C   0  0  1  0  0  3  0  0  0  0  0  0
  162.2130  207.9760  151.6330 C   0  0  1  0  0  3  0  0  0  0  0  0
  162.0000  206.4920  151.4130 C   0  0  0  0  0  2  0  0  0  0  0  0
  161.5130  206.2500  150.0270 C   0  0  0  0  0  0  0  0  0  0  0  0
  160.3980  205.4510  149.8120 O   0  0  0  0  0  1  0  0  0  0  0  0
  162.1310  206.7410  149.0480 O   0  0  0  0  0  0  0  0  0  0  0  0
  162.0340  210.8970  157.2000 S   0  0  0  0  0  1  0  0  0  0  0  0
  162.5070  210.6670  155.4620 C   0  0  0  0  0  2  0  0  0  0  0  0
  1 22  1  0  0  0  0
  1 19  1  1  0  0  0
  2  3  1  0  0  0  0
  2  9  1  0  0  0  0
  3 16  1  0  0  0  0
  4 20  1  0  0  0  0
  4  5  1  0  0  0  0
  5 15  2  0  0  0  0
  6 19  1  0  0  0  0
  6 32  1  0  0  0  0
  8 13  1  0  0  0  0
  8 21  1  1  0  0  0
 10  7  1  6  0  0  0
 10  1  1  0  0  0  0
 11  9  1  6  0  0  0
 11 17  1  0  0  0  0
 11 10  1  0  0  0  0
 12 22  1  0  0  0  0
 12 18  2  0  0  0  0
 14  7  1  6  0  0  0
 14  6  1  0  0  0  0
 15 13  1  0  0  0  0
 17 16  1  6  0  0  0
 17 12  1  0  0  0  0
 18 23  1  0  0  0  0
 22  4  2  0  0  0  0
 23  5  1  0  0  0  0
 23  8  1  0  0  0  0
 24 26  1  0  0  0  0
 25 24  1  6  0  0  0
 25 14  1  0  0  0  0
 26 27  1  6  0  0  0
 26 25  1  0  0  0  0
 28 27  1  0  0  0  0
 29 28  1  0  0  0  0
 30 28  2  0  0  0  0
 32 31  1  0  0  0  0
M  END
>  <MODEL>
2

>  <REMARK>
 VINA RESULT:      -3.8      3.660      6.219
  Name = 
  4 active torsions:
  status: ('A' for Active; 'I' for Inactive)
    1  A    between atoms: N_7  and  C_19
    2  A    between atoms: C_10  and  C_17
    3  A    between atoms: C_20  and  C_29
    4  A    between atoms: C_29  and  C_30
                            x       y       z     vdW  Elec       q    Type
                         _______ _______ _______ _____ _____    ______ ____

>  <TORSDO>
F 4

$$$$
=
 OpenBabel11122413003D

 32 37  0  0  1  0  0  0  0  0999 V2000
  160.9880  210.2460  152.8950 C   0  0  1  0  0  3  0  0  0  0  0  0
  160.5830  206.5210  150.5550 C   0  0  0  0  0  2  0  0  0  0  0  0
  161.0580  207.2590  149.3870 N   0  0  0  0  0  2  0  0  0  0  0  0
  160.5420  211.9600  151.1520 C   0  0  0  0  0  0  0  0  0  0  0  0
  160.7400  212.4880  149.8000 C   0  0  0  0  0  0  0  0  0  0  0  0
  161.6150  210.6900  155.2810 N   0  0  0  0  0  0  0  0  0  0  0  0
  161.5450  208.3950  154.4040 O   0  0  0  0  0  0  0  0  0  0  0  0
  161.5580  212.4720  147.6150 C   0  0  1  0  0  3  0  0  0  0  0  0
  160.5120  207.4490  151.7630 C   0  0  0  0  0  2  0  0  0  0  0  0
  161.8800  209.0380  153.1890 C   0  0  1  0  0  3  0  0  0  0  0  0
  161.9020  208.0320  152.0440 C   0  0  2  0  0  3  0  0  0  0  0  0
  161.9240  210.0180  150.4550 C   0  0  0  0  0  0  0  0  0  0  0  0
  160.6450  213.6870  147.8470 C   0  0  0  0  0  2  0  0  0  0  0  0
  161.1430  209.2960  155.4330 C   0  0  2  0  0  3  0  0  0  0  0  0
  160.1780  213.5540  149.2710 C   0  0  0  0  0  3  0  0  0  0  0  0
  162.4420  207.6660  149.6270 C   0  0  0  0  0  2  0  0  0  0  0  0
  162.5220  208.6660  150.7920 C   0  0  2  0  0  3  0  0  0  0  0  0
  162.1330  210.5370  149.2310 C   0  0  0  0  0  3  0  0  0  0  0  0
  161.3130  211.2840  153.9700 C   0  0  0  0  0  2  0  0  0  0  0  0
  159.7490  212.6310  152.0270 F   0  0  0  0  0  0  0  0  0  0  0  0
  162.9530  212.9470  147.2520 C   0  0  0  0  0  1  0  0  0  0  0  0
  161.1620  210.8060  151.4960 C   0  0  0  0  0  0  0  0  0  0  0  0
  161.5800  211.8120  148.9030 N   0  0  0  0  0  0  0  0  0  0  0  0
  159.3030  209.4450  157.0970 C   0  0  0  0  0  2  0  0  0  0  0  0
  159.6350  209.2470  155.6310 C   0  0  1  0  0  3  0  0  0  0  0  0
  159.1550  210.5980  156.1250 C   0  0  1  0  0  3  0  0  0  0  0  0
  157.6960  210.7660  155.7520 C   0  0  0  0  0  2  0  0  0  0  0  0
  157.4880  212.0910  155.1060 C   0  0  0  0  0  0  0  0  0  0  0  0
  156.2530  212.4100  154.5570 O   0  0  0  0  0  0  0  0  0  0  0  0
  158.4390  212.9100  155.0280 O   0  0  0  0  0  1  0  0  0  0  0  0
  163.4280  210.7760  157.2600 S   0  0  0  0  0  1  0  0  0  0  0  0
  163.0570  210.7310  155.4830 C   0  0  0  0  0  2  0  0  0  0  0  0
  1 10  1  0  0  0  0
  1 19  1  1  0  0  0
  2  9  1  0  0  0  0
  3 16  1  0  0  0  0
  3  2  1  0  0  0  0
  4 22  2  0  0  0  0
  4 20  1  0  0  0  0
  5  4  1  0  0  0  0
  6 14  1  0  0  0  0
  6 32  1  0  0  0  0
  8 21  1  1  0  0  0
  8 13  1  0  0  0  0
  8 23  1  0  0  0  0
 10  7  1  1  0  0  0
 11  9  1  6  0  0  0
 11 10  1  0  0  0  0
 12 17  1  0  0  0  0
 12 22  1  0  0  0  0
 13 15  1  0  0  0  0
 14  7  1  6  0  0  0
 14 25  1  0  0  0  0
 15  5  2  0  0  0  0
 17 16  1  6  0  0  0
 17 11  1  0  0  0  0
 18 12  2  0  0  0  0
 19  6  1  0  0  0  0
 22  1  1  0  0  0  0
 23 18  1  0  0  0  0
 23  5  1  0  0  0  0
 25 26  1  0  0  0  0
 25 24  1  1  0  0  0
 26 27  1  6  0  0  0
 26 24  1  0  0  0  0
 28 27  1  0  0  0  0
 29 28  2  0  0  0  0
 30 28  1  0  0  0  0
 32 31  1  0  0  0  0
M  END
>  <MODEL>
3

>  <REMARK>
 VINA RESULT:      -3.7      3.876      7.666
  Name = 
  4 active torsions:
  status: ('A' for Active; 'I' for Inactive)
    1  A    between atoms: N_7  and  C_19
    2  A    between atoms: C_10  and  C_17
    3  A    between atoms: C_20  and  C_29
    4  A    between atoms: C_29  and  C_30
                            x       y       z     vdW  Elec       q    Type
                         _______ _______ _______ _____ _____    ______ ____

>  <TORSDO>
F 4

$$$$
=
 OpenBabel11122413003D

 32 37  0  0  1  0  0  0  0  0999 V2000
  160.7810  211.4350  150.0660 C   0  0  1  0  0  3  0  0  0  0  0  0
  157.2900  213.3990  151.9280 C   0  0  0  0  0  2  0  0  0  0  0  0
  157.6950  212.8070  153.2000 N   0  0  0  0  0  2  0  0  0  0  0  0
  160.9990  209.4020  151.4790 C   0  0  0  0  0  0  0  0  0  0  0  0
  161.0180  208.7560  152.7940 C   0  0  0  0  0  0  0  0  0  0  0  0
  162.3070  212.1070  148.1940 N   0  0  0  0  0  0  0  0  0  0  0  0
  160.4690  213.5740  148.9100 O   0  0  0  0  0  0  0  0  0  0  0  0
  160.8210  208.6690  155.1170 C   0  0  1  0  0  3  0  0  0  0  0  0
  158.2550  212.9750  150.8260 C   0  0  0  0  0  2  0  0  0  0  0  0
  160.7020  212.9590  150.1630 C   0  0  1  0  0  3  0  0  0  0  0  0
  159.6740  213.4300  151.1850 C   0  0  2  0  0  3  0  0  0  0  0  0
  160.4400  211.5100  152.6660 C   0  0  0  0  0  0  0  0  0  0  0  0
  161.0680  207.2670  154.5370 C   0  0  0  0  0  2  0  0  0  0  0  0
  161.1320  212.9270  147.8260 C   0  0  2  0  0  3  0  0  0  0  0  0
  161.1480  207.4710  153.0490 C   0  0  0  0  0  3  0  0  0  0  0  0
  158.9820  213.3830  153.5900 C   0  0  0  0  0  2  0  0  0  0  0  0
  160.0830  212.9820  152.5940 C   0  0  2  0  0  3  0  0  0  0  0  0
  160.5030  210.9120  153.8700 C   0  0  0  0  0  3  0  0  0  0  0  0
  162.0420  211.1250  149.2580 C   0  0  0  0  0  2  0  0  0  0  0  0
  161.1940  208.6560  150.3600 F   0  0  0  0  0  0  0  0  0  0  0  0
  161.9540  209.0380  156.0560 C   0  0  0  0  0  1  0  0  0  0  0  0
  160.7880  210.7380  151.4140 C   0  0  0  0  0  0  0  0  0  0  0  0
  160.8450  209.5280  153.9520 N   0  0  0  0  0  0  0  0  0  0  0  0
  158.8710  212.9240  146.7930 C   0  0  0  0  0  2  0  0  0  0  0  0
  160.1420  212.1230  146.9950 C   0  0  1  0  0  3  0  0  0  0  0  0
  159.8970  212.8410  145.6820 C   0  0  1  0  0  3  0  0  0  0  0  0
  159.4470  211.8290  144.6470 C   0  0  0  0  0  2  0  0  0  0  0  0
  159.7770  212.3210  143.2810 C   0  0  0  0  0  0  0  0  0  0  0  0
  160.9810  211.9670  142.6870 O   0  0  0  0  0  1  0  0  0  0  0  0
  158.9810  213.0870  142.6790 O   0  0  0  0  0  0  0  0  0  0  0  0
  163.4550  214.4530  147.5700 S   0  0  0  0  0  1  0  0  0  0  0  0
  163.3820  212.9840  148.6360 C   0  0  0  0  0  2  0  0  0  0  0  0
  1 19  1  1  0  0  0
  1 10  1  0  0  0  0
  1 22  1  0  0  0  0
  2  3  1  0  0  0  0
  3 16  1  0  0  0  0
  4  5  1  0  0  0  0
  5 15  2  0  0  0  0
  5 23  1  0  0  0  0
  6 32  1  0  0  0  0
  6 19  1  0  0  0  0
  8 21  1  1  0  0  0
  9  2  1  0  0  0  0
 10  7  1  6  0  0  0
 10 11  1  0  0  0  0
 11  9  1  6  0  0  0
 11 17  1  0  0  0  0
 12 18  2  0  0  0  0
 13  8  1  0  0  0  0
 14  6  1  0  0  0  0
 14  7  1  1  0  0  0
 15 13  1  0  0  0  0
 17 12  1  0  0  0  0
 17 16  1  1  0  0  0
 18 23  1  0  0  0  0
 20  4  1  0  0  0  0
 22  4  2  0  0  0  0
 22 12  1  0  0  0  0
 23  8  1  0  0  0  0
 25 24  1  1  0  0  0
 25 14  1  0  0  0  0
 26 27  1  6  0  0  0
 26 24  1  0  0  0  0
 26 25  1  0  0  0  0
 28 27  1  0  0  0  0
 29 28  1  0  0  0  0
 30 28  2  0  0  0  0
 31 32  1  0  0  0  0
M  END
>  <MODEL>
4

>  <REMARK>
 VINA RESULT:      -3.5      1.810      2.209
  Name = 
  4 active torsions:
  status: ('A' for Active; 'I' for Inactive)
    1  A    between atoms: N_7  and  C_19
    2  A    between atoms: C_10  and  C_17
    3  A    between atoms: C_20  and  C_29
    4  A    between atoms: C_29  and  C_30
                            x       y       z     vdW  Elec       q    Type
                         _______ _______ _______ _____ _____    ______ ____

>  <TORSDO>
F 4

$$$$
=
 OpenBabel11122413003D

 32 37  0  0  1  0  0  0  0  0999 V2000
  160.8440  212.4250  148.0820 C   0  0  1  0  0  3  0  0  0  0  0  0
  156.7250  213.5730  149.1910 C   0  0  0  0  0  2  0  0  0  0  0  0
  157.0600  213.2580  150.5760 N   0  0  0  0  0  2  0  0  0  0  0  0
  161.3390  210.6950  149.7970 C   0  0  0  0  0  0  0  0  0  0  0  0
  161.3110  210.2280  151.1850 C   0  0  0  0  0  0  0  0  0  0  0  0
  162.4280  213.2700  146.3320 N   0  0  0  0  0  0  0  0  0  0  0  0
  160.1930  214.2600  146.5920 O   0  0  0  0  0  0  0  0  0  0  0  0
  160.7800  210.3500  153.4530 C   0  0  1  0  0  3  0  0  0  0  0  0
  157.9260  213.3050  148.2900 C   0  0  0  0  0  2  0  0  0  0  0  0
  160.3720  213.8730  147.9420 C   0  0  1  0  0  3  0  0  0  0  0  0
  159.1120  214.1620  148.7480 C   0  0  2  0  0  3  0  0  0  0  0  0
  160.0900  212.6940  150.5810 C   0  0  0  0  0  0  0  0  0  0  0  0
  161.4570  209.0100  153.1230 C   0  0  0  0  0  2  0  0  0  0  0  0
  161.1580  213.6980  145.7060 C   0  0  2  0  0  3  0  0  0  0  0  0
  161.7170  209.0620  151.6420 C   0  0  0  0  0  3  0  0  0  0  0  0
  158.0850  214.1970  151.0310 C   0  0  0  0  0  2  0  0  0  0  0  0
  159.3930  213.9980  150.2480 C   0  0  2  0  0  3  0  0  0  0  0  0
  160.1120  212.2720  151.8590 C   0  0  0  0  0  3  0  0  0  0  0  0
  162.2530  212.3780  147.4890 C   0  0  0  0  0  2  0  0  0  0  0  0
  161.8870  209.9090  148.8330 F   0  0  0  0  0  0  0  0  0  0  0  0
  161.6230  211.1110  154.4590 C   0  0  0  0  0  1  0  0  0  0  0  0
  160.8130  211.9090  149.5090 C   0  0  0  0  0  0  0  0  0  0  0  0
  160.7710  211.0490  152.1860 N   0  0  0  0  0  0  0  0  0  0  0  0
  159.2380  213.0340  144.2750 C   0  0  0  0  0  2  0  0  0  0  0  0
  160.5440  212.5710  144.8880 C   0  0  1  0  0  3  0  0  0  0  0  0
  160.4940  212.9840  143.4300 C   0  0  1  0  0  3  0  0  0  0  0  0
  160.4800  211.7390  142.5670 C   0  0  0  0  0  2  0  0  0  0  0  0
  161.5450  211.8280  141.5310 C   0  0  0  0  0  0  0  0  0  0  0  0
  162.5660  212.7590  141.6630 O   0  0  0  0  0  1  0  0  0  0  0  0
  161.5010  211.0840  140.5180 O   0  0  0  0  0  0  0  0  0  0  0  0
  163.9170  214.1360  148.3920 S   0  0  0  0  0  1  0  0  0  0  0  0
  163.1670  214.4470  146.7680 C   0  0  0  0  0  2  0  0  0  0  0  0
  1 19  1  1  0  0  0
  1 22  1  0  0  0  0
  2  3  1  0  0  0  0
  3 16  1  0  0  0  0
  4  5  1  0  0  0  0
  5 15  2  0  0  0  0
  5 23  1  0  0  0  0
  6 32  1  0  0  0  0
  6 19  1  0  0  0  0
  8 21  1  1  0  0  0
  9  2  1  0  0  0  0
 10  7  1  6  0  0  0
 10  1  1  0  0  0  0
 10 11  1  0  0  0  0
 11  9  1  6  0  0  0
 11 17  1  0  0  0  0
 12 18  2  0  0  0  0
 13  8  1  0  0  0  0
 14  6  1  0  0  0  0
 14  7  1  1  0  0  0
 15 13  1  0  0  0  0
 17 12  1  0  0  0  0
 17 16  1  1  0  0  0
 18 23  1  0  0  0  0
 20  4  1  0  0  0  0
 22  4  2  0  0  0  0
 22 12  1  0  0  0  0
 23  8  1  0  0  0  0
 25 24  1  1  0  0  0
 25 14  1  0  0  0  0
 26 27  1  6  0  0  0
 26 24  1  0  0  0  0
 26 25  1  0  0  0  0
 28 29  1  0  0  0  0
 28 27  1  0  0  0  0
 30 28  2  0  0  0  0
 32 31  1  0  0  0  0
M  END
>  <MODEL>
5

>  <REMARK>
 VINA RESULT:      -2.7      2.743      4.021
  Name = 
  4 active torsions:
  status: ('A' for Active; 'I' for Inactive)
    1  A    between atoms: N_7  and  C_19
    2  A    between atoms: C_10  and  C_17
    3  A    between atoms: C_20  and  C_29
    4  A    between atoms: C_29  and  C_30
                            x       y       z     vdW  Elec       q    Type
                         _______ _______ _______ _____ _____    ______ ____

>  <TORSDO>
F 4

$$$$
=
 OpenBabel11122413003D

 32 37  0  0  1  0  0  0  0  0999 V2000
  161.0710  210.6690  149.4710 C   0  0  1  0  0  3  0  0  0  0  0  0
  158.7790  211.5730  153.1360 C   0  0  0  0  0  2  0  0  0  0  0  0
  159.3660  210.3810  153.7410 N   0  0  0  0  0  2  0  0  0  0  0  0
  161.1860  208.1880  149.5750 C   0  0  0  0  0  0  0  0  0  0  0  0
  161.4110  206.9510  150.3250 C   0  0  0  0  0  0  0  0  0  0  0  0
  162.1430  212.1290  147.7370 N   0  0  0  0  0  0  0  0  0  0  0  0
  160.9660  213.1120  149.6570 O   0  0  0  0  0  0  0  0  0  0  0  0
  161.8400  205.6730  152.2290 C   0  0  1  0  0  3  0  0  0  0  0  0
  159.2800  211.7320  151.7050 C   0  0  0  0  0  2  0  0  0  0  0  0
  161.3800  211.9190  150.2970 C   0  0  1  0  0  3  0  0  0  0  0  0
  160.8090  211.8470  151.7070 C   0  0  2  0  0  3  0  0  0  0  0  0
  161.4790  209.3930  151.7270 C   0  0  0  0  0  0  0  0  0  0  0  0
  161.5850  204.7700  151.0120 C   0  0  0  0  0  2  0  0  0  0  0  0
  161.1370  213.0890  148.2420 C   0  0  2  0  0  3  0  0  0  0  0  0
  161.3020  205.7170  149.8780 C   0  0  0  0  0  3  0  0  0  0  0  0
  160.8070  210.5890  153.8720 C   0  0  0  0  0  2  0  0  0  0  0  0
  161.4700  210.7030  152.4890 C   0  0  2  0  0  3  0  0  0  0  0  0
  161.7270  208.2510  152.3940 C   0  0  0  0  0  3  0  0  0  0  0  0
  161.9560  210.7540  148.2260 C   0  0  0  0  0  2  0  0  0  0  0  0
  160.8890  208.1280  148.2500 F   0  0  0  0  0  0  0  0  0  0  0  0
  163.2390  205.4270  152.7610 C   0  0  0  0  0  1  0  0  0  0  0  0
  161.2830  209.3710  150.2270 C   0  0  0  0  0  0  0  0  0  0  0  0
  161.7450  207.0110  151.6860 N   0  0  0  0  0  0  0  0  0  0  0  0
  159.1580  214.2490  147.2860 C   0  0  0  0  0  2  0  0  0  0  0  0
  159.7990  212.9000  147.5420 C   0  0  1  0  0  3  0  0  0  0  0  0
  159.8680  213.5240  146.1620 C   0  0  1  0  0  3  0  0  0  0  0  0
  158.8490  212.8480  145.2670 C   0  0  0  0  0  2  0  0  0  0  0  0
  159.3860  212.7350  143.8830 C   0  0  0  0  0  0  0  0  0  0  0  0
  158.9480  213.6060  142.8940 O   0  0  0  0  0  0  0  0  0  0  0  0
  160.2110  211.8280  143.6000 O   0  0  0  0  0  1  0  0  0  0  0  0
  163.6090  214.3740  147.8860 S   0  0  0  0  0  1  0  0  0  0  0  0
  163.4720  212.5790  148.1270 C   0  0  0  0  0  2  0  0  0  0  0  0
  1 19  1  6  0  0  0
  1 22  1  0  0  0  0
  1 10  1  0  0  0  0
  2  3  1  0  0  0  0
  3 16  1  0  0  0  0
  4 22  2  0  0  0  0
  4  5  1  0  0  0  0
  5 23  1  0  0  0  0
  6 32  1  0  0  0  0
  6 19  1  0  0  0  0
  6 14  1  0  0  0  0
  8 21  1  6  0  0  0
  9  2  1  0  0  0  0
 10  7  1  6  0  0  0
 10 11  1  0  0  0  0
 11  9  1  6  0  0  0
 11 17  1  0  0  0  0
 12 18  2  0  0  0  0
 12 17  1  0  0  0  0
 13  8  1  0  0  0  0
 14  7  1  1  0  0  0
 15  5  2  0  0  0  0
 15 13  1  0  0  0  0
 17 16  1  1  0  0  0
 20  4  1  0  0  0  0
 22 12  1  0  0  0  0
 23  8  1  0  0  0  0
 23 18  1  0  0  0  0
 25 24  1  1  0  0  0
 25 14  1  0  0  0  0
 26 27  1  6  0  0  0
 26 24  1  0  0  0  0
 26 25  1  0  0  0  0
 28 27  1  0  0  0  0
 29 28  2  0  0  0  0
 30 28  1  0  0  0  0
 31 32  1  0  0  0  0
M  END
>  <MODEL>
6

>  <REMARK>
 VINA RESULT:      -1.7      2.680      3.689
  Name = 
  4 active torsions:
  status: ('A' for Active; 'I' for Inactive)
    1  A    between atoms: N_7  and  C_19
    2  A    between atoms: C_10  and  C_17
    3  A    between atoms: C_20  and  C_29
    4  A    between atoms: C_29  and  C_30
                            x       y       z     vdW  Elec       q    Type
                         _______ _______ _______ _____ _____    ______ ____

>  <TORSDO>
F 4

$$$$
