=
 OpenBabel11122413533D

 37 43  0  0  1  0  0  0  0  0999 V2000
  162.5800  205.5460  147.2020 C   0  0  0  0  0  0  0  0  0  0  0  0
  160.6500  205.9440  150.5840 C   0  0  1  0  0  3  0  0  0  0  0  0
  160.4280  208.9340  152.0240 O   0  0  0  0  0  0  0  0  0  0  0  0
  160.6330  204.6380  148.3220 C   0  0  2  0  0  3  0  0  0  0  0  0
  161.5040  207.1960  150.7840 C   0  0  2  0  0  3  0  0  0  0  0  0
  160.3860  205.9550  149.0750 C   0  0  2  0  0  3  0  0  0  0  0  0
  161.3490  207.8820  152.1430 C   0  0  2  0  0  3  0  0  0  0  0  0
  160.1220  203.4820  149.1650 C   0  0  0  0  0  2  0  0  0  0  0  0
  161.1140  207.1800  148.5270 C   0  0  2  0  0  3  0  0  0  0  0  0
  161.8340  205.7160  145.8830 C   0  0  0  0  0  1  0  0  0  0  0  0
  161.3020  204.5720  152.6140 C   0  0  0  0  0  2  0  0  0  0  0  0
  160.8500  203.3720  150.5110 C   0  0  0  0  0  2  0  0  0  0  0  0
  162.5340  206.8220  148.0300 C   0  0  0  0  0  2  0  0  0  0  0  0
  162.4950  210.1310  151.7570 O   0  0  0  0  0  0  0  0  0  0  0  0
  161.0880  210.1870  151.8850 C   0  0  1  0  0  3  0  0  0  0  0  0
  161.3890  204.6900  151.0930 C   0  0  1  0  0  3  0  0  0  0  0  0
  161.1570  208.0960  149.6800 N   0  0  2  0  0  0  0  0  0  0  0  0
  162.0440  204.4290  147.9820 N   0  0  0  0  0  2  0  0  0  0  0  0
  161.0010  206.9530  153.3120 C   0  0  1  0  0  3  0  0  0  0  0  0
  164.0300  205.2520  146.8810 C   0  0  0  0  0  1  0  0  0  0  0  0
  161.7880  210.3780  150.5630 C   0  0  2  0  0  3  0  0  0  0  0  0
  162.1120  209.2210  149.5860 C   0  0  2  0  0  3  0  0  0  0  0  0
  161.9310  205.7450  153.3540 C   0  0  0  0  0  2  0  0  0  0  0  0
  160.2640  207.2420  155.6820 C   0  0  0  0  0  3  0  0  0  0  0  0
  161.0500  207.6910  154.6150 C   0  0  0  0  0  0  0  0  0  0  0  0
  161.8590  208.8260  154.7800 C   0  0  0  0  0  3  0  0  0  0  0  0
  162.6820  210.6230  156.1630 O   0  0  0  0  0  1  0  0  0  0  0  0
  161.0940  209.0480  157.0660 C   0  0  0  0  0  3  0  0  0  0  0  0
  161.8810  209.5020  156.0040 C   0  0  0  0  0  0  0  0  0  0  0  0
  160.2860  207.9180  156.9060 C   0  0  0  0  0  3  0  0  0  0  0  0
  162.1330  209.8300  148.1810 C   0  0  0  0  0  2  0  0  0  0  0  0
  161.9240  211.2710  148.2410 N   0  0  0  0  0  0  0  0  0  0  0  0
  164.2000  211.7580  147.9740 O   0  0  0  0  0  0  0  0  0  0  0  0
  163.0180  212.1790  148.0860 C   0  0  0  0  0  3  0  0  0  0  0  0
  160.5650  211.7900  148.3250 C   0  0  0  0  0  2  0  0  0  0  0  0
  160.3030  212.7970  147.2160 C   0  0  0  0  0  2  0  0  0  0  0  0
  160.0110  212.1320  146.0240 O   0  0  0  0  0  1  0  0  0  0  0  0
  1 18  1  0  0  0  0
  1 13  1  0  0  0  0
  2  5  1  0  0  0  0
  2 16  1  0  0  0  0
  3  7  1  0  0  0  0
  4  6  1  0  0  0  0
  4  8  1  0  0  0  0
  5  7  1  0  0  0  0
  6  2  1  0  0  0  0
  7 19  1  0  0  0  0
  8 12  1  0  0  0  0
  9  6  1  0  0  0  0
  9 17  1  0  0  0  0
 10  1  1  0  0  0  0
 11 23  1  0  0  0  0
 12 16  1  0  0  0  0
 13  9  1  0  0  0  0
 14 15  1  0  0  0  0
 15  3  1  0  0  0  0
 16 11  1  0  0  0  0
 17  5  1  0  0  0  0
 18  4  1  0  0  0  0
 19 23  1  0  0  0  0
 19 25  1  0  0  0  0
 20  1  1  0  0  0  0
 21 14  1  0  0  0  0
 21 15  1  0  0  0  0
 22 17  1  0  0  0  0
 22 21  1  0  0  0  0
 24 30  1  0  0  0  0
 25 26  1  0  0  0  0
 25 24  2  0  0  0  0
 26 29  2  0  0  0  0
 29 27  1  0  0  0  0
 29 28  1  0  0  0  0
 30 28  2  0  0  0  0
 31 32  1  0  0  0  0
 31 22  1  0  0  0  0
 32 35  1  0  0  0  0
 33 34  2  0  0  0  0
 34 32  1  0  0  0  0
 36 35  1  0  0  0  0
 37 36  1  0  0  0  0
M  END
>  <MODEL>
1

>  <REMARK>
 VINA RESULT:      -7.1      0.000      0.000
  Name = 
  5 active torsions:
  status: ('A' for Active; 'I' for Inactive)
    1  A    between atoms: C_1  and  N_4
    2  A    between atoms: C_1  and  C_27
    3  A    between atoms: N_4  and  C_12
    4  A    between atoms: C_8  and  C_12
    5  A    between atoms: C_23  and  C_30
                            x       y       z     vdW  Elec       q    Type
                         _______ _______ _______ _____ _____    ______ ____

>  <TORSDO>
F 5

$$$$
=
 OpenBabel11122413533D

 37 43  0  0  1  0  0  0  0  0999 V2000
  160.1320  210.5860  154.0370 C   0  0  0  0  0  0  0  0  0  0  0  0
  161.6850  207.3270  152.5220 C   0  0  1  0  0  3  0  0  0  0  0  0
  162.7660  207.3140  149.3760 O   0  0  0  0  0  0  0  0  0  0  0  0
  161.5040  208.7120  154.7290 C   0  0  2  0  0  3  0  0  0  0  0  0
  161.3030  207.9210  151.1660 C   0  0  2  0  0  3  0  0  0  0  0  0
  162.1050  208.5640  153.3230 C   0  0  2  0  0  3  0  0  0  0  0  0
  161.5310  207.0020  149.9640 C   0  0  2  0  0  3  0  0  0  0  0  0
  161.4840  207.3510  155.4050 C   0  0  0  0  0  2  0  0  0  0  0  0
  161.9150  209.7570  152.3900 C   0  0  2  0  0  3  0  0  0  0  0  0
  161.0350  211.5990  154.7330 C   0  0  0  0  0  1  0  0  0  0  0  0
  160.3730  205.1580  152.5010 C   0  0  0  0  0  2  0  0  0  0  0  0
  160.6150  206.3360  154.6520 C   0  0  0  0  0  2  0  0  0  0  0  0
  160.5240  210.4080  152.5770 C   0  0  0  0  0  2  0  0  0  0  0  0
  161.2870  208.6070  147.9930 O   0  0  0  0  0  0  0  0  0  0  0  0
  162.6030  208.1490  148.2350 C   0  0  1  0  0  3  0  0  0  0  0  0
  160.5050  206.5440  153.1310 C   0  0  1  0  0  3  0  0  0  0  0  0
  162.0620  209.1690  151.0470 N   0  0  2  0  0  0  0  0  0  0  0  0
  160.1560  209.2890  154.7170 N   0  0  0  0  0  2  0  0  0  0  0  0
  161.4000  205.5010  150.2480 C   0  0  1  0  0  3  0  0  0  0  0  0
  158.7170  211.1200  154.0770 C   0  0  0  0  0  1  0  0  0  0  0  0
  162.1670  209.5570  148.5530 C   0  0  2  0  0  3  0  0  0  0  0  0
  161.5740  209.9870  149.9170 C   0  0  2  0  0  3  0  0  0  0  0  0
  160.1110  205.1910  151.0020 C   0  0  0  0  0  2  0  0  0  0  0  0
  161.1460  203.3460  149.0110 C   0  0  0  0  0  3  0  0  0  0  0  0
  161.4640  204.7080  148.9790 C   0  0  0  0  0  0  0  0  0  0  0  0
  161.8440  205.3030  147.7660 C   0  0  0  0  0  3  0  0  0  0  0  0
  162.2800  205.1310  145.4000 O   0  0  0  0  0  1  0  0  0  0  0  0
  161.5850  203.1790  146.6340 C   0  0  0  0  0  3  0  0  0  0  0  0
  161.9030  204.5390  146.5970 C   0  0  0  0  0  0  0  0  0  0  0  0
  161.2050  202.5820  147.8400 C   0  0  0  0  0  3  0  0  0  0  0  0
  161.9240  211.4670  150.0970 C   0  0  0  0  0  2  0  0  0  0  0  0
  161.0910  212.3020  149.2400 N   0  0  0  0  0  0  0  0  0  0  0  0
  159.8870  213.1980  151.0390 O   0  0  0  0  0  0  0  0  0  0  0  0
  160.1110  213.1810  149.7990 C   0  0  0  0  0  3  0  0  0  0  0  0
  161.3550  212.3370  147.8080 C   0  0  0  0  0  2  0  0  0  0  0  0
  162.7330  212.9140  147.5270 C   0  0  0  0  0  2  0  0  0  0  0  0
  162.7640  214.2670  147.8660 O   0  0  0  0  0  1  0  0  0  0  0  0
  1 20  1  0  0  0  0
  1 18  1  0  0  0  0
  1 10  1  0  0  0  0
  2 16  1  0  0  0  0
  2  6  1  0  0  0  0
  3  7  1  0  0  0  0
  4  8  1  0  0  0  0
  5  2  1  0  0  0  0
  6  4  1  0  0  0  0
  7 19  1  0  0  0  0
  7  5  1  0  0  0  0
  9 13  1  0  0  0  0
  9  6  1  0  0  0  0
 11 16  1  0  0  0  0
 12  8  1  0  0  0  0
 13  1  1  0  0  0  0
 14 15  1  0  0  0  0
 14 21  1  0  0  0  0
 15 21  1  0  0  0  0
 15  3  1  0  0  0  0
 16 12  1  0  0  0  0
 17  5  1  0  0  0  0
 17  9  1  0  0  0  0
 18  4  1  0  0  0  0
 19 23  1  0  0  0  0
 21 22  1  0  0  0  0
 22 31  1  0  0  0  0
 22 17  1  0  0  0  0
 23 11  1  0  0  0  0
 25 24  1  0  0  0  0
 25 19  1  0  0  0  0
 26 25  2  0  0  0  0
 27 29  1  0  0  0  0
 28 30  1  0  0  0  0
 29 28  2  0  0  0  0
 29 26  1  0  0  0  0
 30 24  2  0  0  0  0
 32 34  1  0  0  0  0
 32 31  1  0  0  0  0
 34 33  2  0  0  0  0
 35 32  1  0  0  0  0
 36 35  1  0  0  0  0
 36 37  1  0  0  0  0
M  END
>  <MODEL>
2

>  <REMARK>
 VINA RESULT:      -6.6      2.361      6.290
  Name = 
  5 active torsions:
  status: ('A' for Active; 'I' for Inactive)
    1  A    between atoms: C_1  and  N_4
    2  A    between atoms: C_1  and  C_27
    3  A    between atoms: N_4  and  C_12
    4  A    between atoms: C_8  and  C_12
    5  A    between atoms: C_23  and  C_30
                            x       y       z     vdW  Elec       q    Type
                         _______ _______ _______ _____ _____    ______ ____

>  <TORSDO>
F 5

$$$$
=
 OpenBabel11122413533D

 37 43  0  0  1  0  0  0  0  0999 V2000
  160.0780  210.7370  153.8640 C   0  0  0  0  0  0  0  0  0  0  0  0
  161.6670  207.4210  152.5190 C   0  0  1  0  0  3  0  0  0  0  0  0
  162.7500  207.2580  149.3780 O   0  0  0  0  0  0  0  0  0  0  0  0
  161.4700  208.9170  154.6520 C   0  0  2  0  0  3  0  0  0  0  0  0
  161.2790  207.9400  151.1340 C   0  0  2  0  0  3  0  0  0  0  0  0
  162.0730  208.7020  153.2550 C   0  0  2  0  0  3  0  0  0  0  0  0
  161.5180  206.9630  149.9810 C   0  0  2  0  0  3  0  0  0  0  0  0
  161.4630  207.5920  155.3970 C   0  0  0  0  0  2  0  0  0  0  0  0
  161.8710  209.8440  152.2610 C   0  0  2  0  0  3  0  0  0  0  0  0
  160.9700  211.7940  154.5060 C   0  0  0  0  0  1  0  0  0  0  0  0
  160.3780  205.2400  152.6100 C   0  0  0  0  0  2  0  0  0  0  0  0
  160.6060  206.5300  154.6960 C   0  0  0  0  0  2  0  0  0  0  0  0
  160.4730  210.4880  152.4150 C   0  0  0  0  0  2  0  0  0  0  0  0
  161.2580  208.4620  147.9300 O   0  0  0  0  0  0  0  0  0  0  0  0
  162.5790  208.0310  148.1960 C   0  0  1  0  0  3  0  0  0  0  0  0
  160.4950  206.6580  153.1670 C   0  0  1  0  0  3  0  0  0  0  0  0
  162.0260  209.1890  150.9510 N   0  0  2  0  0  0  0  0  0  0  0  0
  160.1150  209.4770  154.6100 N   0  0  0  0  0  2  0  0  0  0  0  0
  161.4030  205.4780  150.3420 C   0  0  1  0  0  3  0  0  0  0  0  0
  158.6570  211.2570  153.8760 C   0  0  0  0  0  1  0  0  0  0  0  0
  162.1270  209.4490  148.4400 C   0  0  2  0  0  3  0  0  0  0  0  0
  161.5290  209.9420  149.7800 C   0  0  2  0  0  3  0  0  0  0  0  0
  160.1160  205.1930  151.1100 C   0  0  0  0  0  2  0  0  0  0  0  0
  161.1080  203.2740  149.2030 C   0  0  0  0  0  3  0  0  0  0  0  0
  161.4760  204.6210  149.1160 C   0  0  0  0  0  0  0  0  0  0  0  0
  161.9150  205.1420  147.8880 C   0  0  0  0  0  3  0  0  0  0  0  0
  162.4160  204.8370  145.5490 O   0  0  0  0  0  1  0  0  0  0  0  0
  161.6120  202.9750  146.8530 C   0  0  0  0  0  3  0  0  0  0  0  0
  161.9820  204.3190  146.7600 C   0  0  0  0  0  0  0  0  0  0  0  0
  161.1740  202.4520  148.0730 C   0  0  0  0  0  3  0  0  0  0  0  0
  161.8630  211.4330  149.8840 C   0  0  0  0  0  2  0  0  0  0  0  0
  161.5920  212.1110  148.6220 N   0  0  0  0  0  0  0  0  0  0  0  0
  163.8630  212.4050  148.1260 O   0  0  0  0  0  0  0  0  0  0  0  0
  162.6610  212.5340  147.7710 C   0  0  0  0  0  3  0  0  0  0  0  0
  160.2150  212.2370  148.1640 C   0  0  0  0  0  2  0  0  0  0  0  0
  160.1500  213.0150  146.8590 C   0  0  0  0  0  2  0  0  0  0  0  0
  159.7470  212.1750  145.8200 O   0  0  0  0  0  1  0  0  0  0  0  0
  1 20  1  0  0  0  0
  1 10  1  0  0  0  0
  1 18  1  0  0  0  0
  2 16  1  0  0  0  0
  2  6  1  0  0  0  0
  3  7  1  0  0  0  0
  4  8  1  0  0  0  0
  5  2  1  0  0  0  0
  6  4  1  0  0  0  0
  7 19  1  0  0  0  0
  7  5  1  0  0  0  0
  9 13  1  0  0  0  0
  9  6  1  0  0  0  0
 11 16  1  0  0  0  0
 12  8  1  0  0  0  0
 13  1  1  0  0  0  0
 14 15  1  0  0  0  0
 14 21  1  0  0  0  0
 15 21  1  0  0  0  0
 15  3  1  0  0  0  0
 16 12  1  0  0  0  0
 17  5  1  0  0  0  0
 17  9  1  0  0  0  0
 18  4  1  0  0  0  0
 19 23  1  0  0  0  0
 21 22  1  0  0  0  0
 22 31  1  0  0  0  0
 22 17  1  0  0  0  0
 23 11  1  0  0  0  0
 25 24  1  0  0  0  0
 25 19  1  0  0  0  0
 26 25  2  0  0  0  0
 27 29  1  0  0  0  0
 28 30  1  0  0  0  0
 29 28  2  0  0  0  0
 29 26  1  0  0  0  0
 30 24  2  0  0  0  0
 32 31  1  0  0  0  0
 34 33  2  0  0  0  0
 34 32  1  0  0  0  0
 35 32  1  0  0  0  0
 36 35  1  0  0  0  0
 37 36  1  0  0  0  0
M  END
>  <MODEL>
3

>  <REMARK>
 VINA RESULT:      -6.4      2.190      6.132
  Name = 
  5 active torsions:
  status: ('A' for Active; 'I' for Inactive)
    1  A    between atoms: C_1  and  N_4
    2  A    between atoms: C_1  and  C_27
    3  A    between atoms: N_4  and  C_12
    4  A    between atoms: C_8  and  C_12
    5  A    between atoms: C_23  and  C_30
                            x       y       z     vdW  Elec       q    Type
                         _______ _______ _______ _____ _____    ______ ____

>  <TORSDO>
F 5

$$$$
=
 OpenBabel11122413533D

 37 43  0  0  1  0  0  0  0  0999 V2000
  159.8510  210.7340  154.1880 C   0  0  0  0  0  0  0  0  0  0  0  0
  161.7960  208.1250  152.0120 C   0  0  1  0  0  3  0  0  0  0  0  0
  162.7080  208.9050  148.9100 O   0  0  0  0  0  0  0  0  0  0  0  0
  161.5210  209.0000  154.4580 C   0  0  2  0  0  3  0  0  0  0  0  0
  161.2610  208.9080  150.8130 C   0  0  2  0  0  3  0  0  0  0  0  0
  162.0660  209.2290  153.0400 C   0  0  2  0  0  3  0  0  0  0  0  0
  161.5640  208.2930  149.4450 C   0  0  2  0  0  3  0  0  0  0  0  0
  161.7380  207.5460  154.8430 C   0  0  0  0  0  2  0  0  0  0  0  0
  161.6520  210.5380  152.3730 C   0  0  2  0  0  3  0  0  0  0  0  0
  160.6250  211.7190  155.0580 C   0  0  0  0  0  1  0  0  0  0  0  0
  160.8240  205.8250  151.5760 C   0  0  0  0  0  2  0  0  0  0  0  0
  160.9950  206.5770  153.9150 C   0  0  0  0  0  2  0  0  0  0  0  0
  160.1910  210.9130  152.7150 C   0  0  0  0  0  2  0  0  0  0  0  0
  160.9840  210.1980  147.8470 O   0  0  0  0  0  0  0  0  0  0  0  0
  162.3640  209.9130  147.9660 C   0  0  1  0  0  3  0  0  0  0  0  0
  160.7790  207.0620  152.4710 C   0  0  1  0  0  3  0  0  0  0  0  0
  161.8190  210.2580  150.9360 N   0  0  2  0  0  0  0  0  0  0  0  0
  160.1030  209.3490  154.5890 N   0  0  0  0  0  2  0  0  0  0  0  0
  161.6740  206.7640  149.4200 C   0  0  1  0  0  3  0  0  0  0  0  0
  158.3750  211.0210  154.3620 C   0  0  0  0  0  1  0  0  0  0  0  0
  161.7380  211.1440  148.5710 C   0  0  2  0  0  3  0  0  0  0  0  0
  161.1570  211.1970  150.0060 C   0  0  2  0  0  3  0  0  0  0  0  0
  160.4850  206.1130  150.1190 C   0  0  0  0  0  2  0  0  0  0  0  0
  160.7650  206.5290  147.1050 C   0  0  0  0  0  3  0  0  0  0  0  0
  161.7920  206.2580  148.0160 C   0  0  0  0  0  0  0  0  0  0  0  0
  162.9060  205.5120  147.6010 C   0  0  0  0  0  3  0  0  0  0  0  0
  164.0910  204.3070  145.8810 O   0  0  0  0  0  1  0  0  0  0  0  0
  161.9600  205.3180  145.3810 C   0  0  0  0  0  3  0  0  0  0  0  0
  162.9890  205.0440  146.2860 C   0  0  0  0  0  0  0  0  0  0  0  0
  160.8480  206.0610  145.7900 C   0  0  0  0  0  3  0  0  0  0  0  0
  161.2900  212.6480  150.4760 C   0  0  0  0  0  2  0  0  0  0  0  0
  160.1830  213.4560  149.9770 N   0  0  0  0  0  0  0  0  0  0  0  0
  161.4790  214.4530  148.2990 O   0  0  0  0  0  0  0  0  0  0  0  0
  160.3520  214.3130  148.8440 C   0  0  0  0  0  3  0  0  0  0  0  0
  158.8580  213.2840  150.5570 C   0  0  0  0  0  2  0  0  0  0  0  0
  157.8340  214.1350  149.8240 C   0  0  0  0  0  2  0  0  0  0  0  0
  156.8340  213.3240  149.2850 O   0  0  0  0  0  1  0  0  0  0  0  0
  1 20  1  0  0  0  0
  1 18  1  0  0  0  0
  1 10  1  0  0  0  0
  2 16  1  0  0  0  0
  2  6  1  0  0  0  0
  3  7  1  0  0  0  0
  4 18  1  0  0  0  0
  4  8  1  0  0  0  0
  5 17  1  0  0  0  0
  5  2  1  0  0  0  0
  6  4  1  0  0  0  0
  7  5  1  0  0  0  0
  9 13  1  0  0  0  0
  9  6  1  0  0  0  0
 11 16  1  0  0  0  0
 12  8  1  0  0  0  0
 13  1  1  0  0  0  0
 14 15  1  0  0  0  0
 14 21  1  0  0  0  0
 15 21  1  0  0  0  0
 15  3  1  0  0  0  0
 16 12  1  0  0  0  0
 17  9  1  0  0  0  0
 19  7  1  0  0  0  0
 19 23  1  0  0  0  0
 21 22  1  0  0  0  0
 22 31  1  0  0  0  0
 22 17  1  0  0  0  0
 23 11  1  0  0  0  0
 24 25  1  0  0  0  0
 25 19  1  0  0  0  0
 26 25  2  0  0  0  0
 27 29  1  0  0  0  0
 28 30  1  0  0  0  0
 28 29  2  0  0  0  0
 29 26  1  0  0  0  0
 30 24  2  0  0  0  0
 32 31  1  0  0  0  0
 32 35  1  0  0  0  0
 33 34  2  0  0  0  0
 34 32  1  0  0  0  0
 36 35  1  0  0  0  0
 37 36  1  0  0  0  0
M  END
>  <MODEL>
4

>  <REMARK>
 VINA RESULT:      -5.3      2.572      6.527
  Name = 
  5 active torsions:
  status: ('A' for Active; 'I' for Inactive)
    1  A    between atoms: C_1  and  N_4
    2  A    between atoms: C_1  and  C_27
    3  A    between atoms: N_4  and  C_12
    4  A    between atoms: C_8  and  C_12
    5  A    between atoms: C_23  and  C_30
                            x       y       z     vdW  Elec       q    Type
                         _______ _______ _______ _____ _____    ______ ____

>  <TORSDO>
F 5

$$$$
