=
 OpenBabel11122414243D

 34 41  0  0  1  0  0  0  0  0999 V2000
  161.2280  208.3770  152.2150 C   0  0  0  0  0  0  0  0  0  0  0  0
  161.0240  205.8610  152.5850 C   0  0  0  0  0  2  0  0  0  0  0  0
  161.9020  213.7660  148.6380 C   0  0  0  0  0  0  0  0  0  0  0  0
  161.1610  210.7140  151.5900 C   0  0  0  0  0  0  0  0  0  0  0  0
  162.0380  211.3700  149.2810 C   0  0  2  0  0  3  0  0  0  0  0  0
  163.0060  212.6280  147.3920 C   0  0  0  0  0  2  0  0  0  0  0  0
  163.0360  213.9950  147.7730 O   0  0  0  0  0  0  0  0  0  0  0  0
  160.1760  213.9140  150.3660 C   0  0  0  0  0  2  0  0  0  0  0  0
  162.2030  206.6920  150.6400 C   0  0  2  0  0  3  0  0  0  0  0  0
  161.5960  205.0240  147.9510 C   0  0  0  0  0  3  0  0  0  0  0  0
  161.5320  210.0050  148.8240 C   0  0  0  0  0  2  0  0  0  0  0  0
  160.0410  212.4510  150.2870 N   0  0  0  0  0  2  0  0  0  0  0  0
  161.7130  207.5820  149.4830 C   0  0  1  0  0  3  0  0  0  0  0  0
  161.5280  204.6620  151.7980 C   0  0  0  0  0  2  0  0  0  0  0  0
  161.3250  211.8170  150.5840 C   0  0  1  0  0  3  0  0  0  0  0  0
  161.2640  214.4530  149.5340 N   0  0  0  0  0  0  0  0  0  0  0  0
  161.0010  204.8550  149.3250 C   0  0  2  0  0  3  0  0  0  0  0  0
  161.3660  209.3690  151.2320 C   0  0  0  0  0  0  0  0  0  0  0  0
  161.8140  212.3690  148.1380 C   0  0  2  0  0  3  0  0  0  0  0  0
  161.7030  209.0020  149.8760 N   0  0  0  0  0  0  0  0  0  0  0  0
  160.6390  210.0730  153.8220 C   0  0  0  0  0  3  0  0  0  0  0  0
  162.2560  206.1050  147.4970 C   0  0  0  0  0  3  0  0  0  0  0  0
  160.8020  211.0270  152.8660 N   0  0  0  0  0  0  0  0  0  0  0  0
  162.6200  207.3390  148.2830 C   0  0  0  0  0  2  0  0  0  0  0  0
  162.0130  205.1820  150.4390 C   0  0  1  0  0  3  0  0  0  0  0  0
  160.8510  208.7280  153.5140 C   0  0  0  0  0  3  0  0  0  0  0  0
  161.4990  207.0200  151.8600 N   0  0  0  0  0  0  0  0  0  0  0  0
  160.5300  203.5440  149.4500 O   0  0  0  0  0  0  0  0  0  0  0  0
  161.3870  202.7770  148.6570 C   0  0  0  0  0  2  0  0  0  0  0  0
  160.8810  200.5510  145.9180 O   0  0  0  0  0  0  0  0  0  0  0  0
  161.2660  200.3330  148.2410 C   0  0  0  0  0  2  0  0  0  0  0  0
  160.6100  201.6590  147.9860 C   0  0  2  0  0  3  0  0  0  0  0  0
  161.6330  199.8370  146.8630 C   0  0  0  0  0  2  0  0  0  0  0  0
  160.6870  201.8180  146.4860 C   0  0  0  0  0  2  0  0  0  0  0  0
  1 26  1  0  0  0  0
  3 16  2  0  0  0  0
  4 23  2  0  0  0  0
  5 11  1  6  0  0  0
  5 15  1  0  0  0  0
  6  7  1  0  0  0  0
  7  3  1  0  0  0  0
  9 27  1  1  0  0  0
 10 17  1  0  0  0  0
 11 20  1  0  0  0  0
 12  8  1  0  0  0  0
 13 24  1  6  0  0  0
 13 20  1  0  0  0  0
 13  9  1  0  0  0  0
 14  2  1  0  0  0  0
 15 12  1  6  0  0  0
 15  4  1  0  0  0  0
 16  8  1  0  0  0  0
 17 28  1  1  0  0  0
 17 25  1  0  0  0  0
 18  4  1  0  0  0  0
 18  1  2  0  0  0  0
 19  6  1  6  0  0  0
 19  3  1  0  0  0  0
 19  5  1  0  0  0  0
 20 18  1  0  0  0  0
 22 10  2  0  0  0  0
 22 24  1  0  0  0  0
 23 21  1  0  0  0  0
 25  9  1  0  0  0  0
 25 14  1  1  0  0  0
 26 21  2  0  0  0  0
 27  1  1  0  0  0  0
 27  2  1  0  0  0  0
 29 28  1  0  0  0  0
 30 34  1  0  0  0  0
 30 33  1  0  0  0  0
 32 31  1  0  0  0  0
 32 29  1  1  0  0  0
 33 31  1  0  0  0  0
 34 32  1  0  0  0  0
M  END
>  <MODEL>
1

>  <REMARK>
 VINA RESULT:      -8.3      0.000      0.000
  Name = 
  3 active torsions:
  status: ('A' for Active; 'I' for Inactive)
    1  A    between atoms: C_17  and  O_28
    2  A    between atoms: O_28  and  C_29
    3  A    between atoms: C_29  and  C_32
                            x       y       z     vdW  Elec       q    Type
                         _______ _______ _______ _____ _____    ______ ____

>  <TORSDO>
F 3

$$$$
=
 OpenBabel11122414243D

 34 41  0  0  1  0  0  0  0  0999 V2000
  161.7600  209.5810  151.2730 C   0  0  0  0  0  0  0  0  0  0  0  0
  161.4620  211.2440  153.1840 C   0  0  0  0  0  2  0  0  0  0  0  0
  161.2500  203.7750  148.3880 C   0  0  0  0  0  0  0  0  0  0  0  0
  161.6770  207.9110  149.5230 C   0  0  0  0  0  0  0  0  0  0  0  0
  161.3950  205.4640  150.2040 C   0  0  2  0  0  3  0  0  0  0  0  0
  161.4660  202.9990  150.2370 C   0  0  0  0  0  2  0  0  0  0  0  0
  161.8410  202.5750  148.9350 O   0  0  0  0  0  0  0  0  0  0  0  0
  160.6110  205.6630  146.9690 C   0  0  0  0  0  2  0  0  0  0  0  0
  161.6380  208.8800  153.6730 C   0  0  2  0  0  3  0  0  0  0  0  0
  159.6090  207.8800  155.9670 C   0  0  0  0  0  3  0  0  0  0  0  0
  160.5710  206.0010  151.3720 C   0  0  0  0  0  2  0  0  0  0  0  0
  160.2820  206.4080  148.1950 N   0  0  0  0  0  2  0  0  0  0  0  0
  160.7590  207.7010  153.2200 C   0  0  1  0  0  3  0  0  0  0  0  0
  161.3740  211.0730  154.6920 C   0  0  0  0  0  2  0  0  0  0  0  0
  161.4630  206.5020  149.0520 C   0  0  1  0  0  3  0  0  0  0  0  0
  161.2150  204.3450  147.2240 N   0  0  0  0  0  0  0  0  0  0  0  0
  159.7400  209.2480  155.3490 C   0  0  2  0  0  3  0  0  0  0  0  0
  161.5200  208.2570  150.8780 C   0  0  0  0  0  0  0  0  0  0  0  0
  160.7650  204.1430  149.7440 C   0  0  2  0  0  3  0  0  0  0  0  0
  161.1100  207.2730  151.8540 N   0  0  0  0  0  0  0  0  0  0  0  0
  162.2310  210.1620  148.9820 C   0  0  0  0  0  3  0  0  0  0  0  0
  160.0890  206.7300  155.4630 C   0  0  0  0  0  3  0  0  0  0  0  0
  162.0220  208.8680  148.6180 N   0  0  0  0  0  0  0  0  0  0  0  0
  160.9330  206.5670  154.2240 C   0  0  0  0  0  2  0  0  0  0  0  0
  161.1960  209.5750  154.9680 C   0  0  1  0  0  3  0  0  0  0  0  0
  162.1060  210.5430  150.3190 C   0  0  0  0  0  3  0  0  0  0  0  0
  161.6600  209.9110  152.6590 N   0  0  0  0  0  0  0  0  0  0  0  0
  159.2350  210.1950  156.2470 O   0  0  0  0  0  0  0  0  0  0  0  0
  157.9720  210.5240  155.7490 C   0  0  0  0  0  2  0  0  0  0  0  0
  156.9420  213.0920  153.5010 O   0  0  0  0  0  0  0  0  0  0  0  0
  156.6900  212.6480  155.8090 C   0  0  0  0  0  2  0  0  0  0  0  0
  157.9460  211.9820  155.3280 C   0  0  2  0  0  3  0  0  0  0  0  0
  156.0000  213.0880  154.5400 C   0  0  0  0  0  2  0  0  0  0  0  0
  157.8480  212.0720  153.8230 C   0  0  0  0  0  2  0  0  0  0  0  0
  1 27  1  0  0  0  0
  2 14  1  0  0  0  0
  3  7  1  0  0  0  0
  3 19  1  0  0  0  0
  4 18  2  0  0  0  0
  5 11  1  1  0  0  0
  7  6  1  0  0  0  0
  8 16  1  0  0  0  0
  8 12  1  0  0  0  0
  9 27  1  6  0  0  0
  9 25  1  0  0  0  0
 11 20  1  0  0  0  0
 13  9  1  0  0  0  0
 13 24  1  1  0  0  0
 15 12  1  1  0  0  0
 15  4  1  0  0  0  0
 15  5  1  0  0  0  0
 16  3  2  0  0  0  0
 17 10  1  0  0  0  0
 17 28  1  1  0  0  0
 18  1  1  0  0  0  0
 18 20  1  0  0  0  0
 19  5  1  0  0  0  0
 19  6  1  1  0  0  0
 20 13  1  0  0  0  0
 21 26  1  0  0  0  0
 22 10  2  0  0  0  0
 23 21  2  0  0  0  0
 23  4  1  0  0  0  0
 24 22  1  0  0  0  0
 25 14  1  6  0  0  0
 25 17  1  0  0  0  0
 26  1  2  0  0  0  0
 27  2  1  0  0  0  0
 29 28  1  0  0  0  0
 30 34  1  0  0  0  0
 30 33  1  0  0  0  0
 32 29  1  6  0  0  0
 32 31  1  0  0  0  0
 33 31  1  0  0  0  0
 34 32  1  0  0  0  0
M  END
>  <MODEL>
2

>  <REMARK>
 VINA RESULT:      -7.9      3.207      8.556
  Name = 
  3 active torsions:
  status: ('A' for Active; 'I' for Inactive)
    1  A    between atoms: C_17  and  O_28
    2  A    between atoms: O_28  and  C_29
    3  A    between atoms: C_29  and  C_32
                            x       y       z     vdW  Elec       q    Type
                         _______ _______ _______ _____ _____    ______ ____

>  <TORSDO>
F 3

$$$$
=
 OpenBabel11122414243D

 34 41  0  0  1  0  0  0  0  0999 V2000
  160.9090  207.3460  154.2470 C   0  0  0  0  0  0  0  0  0  0  0  0
  161.9030  205.4700  152.8340 C   0  0  0  0  0  2  0  0  0  0  0  0
  158.3190  213.2290  155.2410 C   0  0  0  0  0  0  0  0  0  0  0  0
  159.6940  209.1440  155.3200 C   0  0  0  0  0  0  0  0  0  0  0  0
  159.6230  211.4160  154.1510 C   0  0  2  0  0  3  0  0  0  0  0  0
  159.4720  213.8370  153.7030 C   0  0  0  0  0  2  0  0  0  0  0  0
  159.0010  214.4530  154.8910 O   0  0  0  0  0  0  0  0  0  0  0  0
  157.1660  211.4110  156.4050 C   0  0  0  0  0  2  0  0  0  0  0  0
  162.1060  207.7640  152.0880 C   0  0  2  0  0  3  0  0  0  0  0  0
  161.6530  208.1380  148.9190 C   0  0  0  0  0  3  0  0  0  0  0  0
  159.6610  210.6220  152.8480 C   0  0  0  0  0  2  0  0  0  0  0  0
  157.6600  210.4970  155.3630 N   0  0  0  0  0  2  0  0  0  0  0  0
  161.0200  208.8040  151.7580 C   0  0  1  0  0  3  0  0  0  0  0  0
  162.6700  205.4660  151.5210 C   0  0  0  0  0  2  0  0  0  0  0  0
  159.1220  210.5320  155.3240 C   0  0  1  0  0  3  0  0  0  0  0  0
  157.6830  212.7840  156.2790 N   0  0  0  0  0  0  0  0  0  0  0  0
  161.5370  206.8860  149.7520 C   0  0  2  0  0  3  0  0  0  0  0  0
  160.3660  208.6390  154.1910 C   0  0  0  0  0  0  0  0  0  0  0  0
  158.7250  212.6410  153.9370 C   0  0  2  0  0  3  0  0  0  0  0  0
  160.4940  209.4260  152.9860 N   0  0  0  0  0  0  0  0  0  0  0  0
  160.0490  207.0990  156.4840 C   0  0  0  0  0  3  0  0  0  0  0  0
  161.6540  209.4020  149.3790 C   0  0  0  0  0  3  0  0  0  0  0  0
  159.5520  208.3640  156.4260 N   0  0  0  0  0  0  0  0  0  0  0  0
  161.6270  209.8410  150.8210 C   0  0  0  0  0  2  0  0  0  0  0  0
  162.5430  206.8710  150.9180 C   0  0  1  0  0  3  0  0  0  0  0  0
  160.7400  206.5670  155.3940 C   0  0  0  0  0  3  0  0  0  0  0  0
  161.6440  206.8630  153.1210 N   0  0  0  0  0  0  0  0  0  0  0  0
  161.7210  205.7770  148.9200 O   0  0  0  0  0  0  0  0  0  0  0  0
  161.9780  206.3150  147.6570 C   0  0  0  0  0  2  0  0  0  0  0  0
  161.3620  203.3780  145.7330 O   0  0  0  0  0  0  0  0  0  0  0  0
  162.1320  205.5700  145.2940 C   0  0  0  0  0  2  0  0  0  0  0  0
  162.4580  205.2230  146.7180 C   0  0  2  0  0  3  0  0  0  0  0  0
  161.2150  204.4570  144.8480 C   0  0  0  0  0  2  0  0  0  0  0  0
  161.6730  203.9580  146.9700 C   0  0  0  0  0  2  0  0  0  0  0  0
  1 26  1  0  0  0  0
  2 27  1  0  0  0  0
  3 16  2  0  0  0  0
  4 23  2  0  0  0  0
  5 11  1  6  0  0  0
  5 15  1  0  0  0  0
  6  7  1  0  0  0  0
  7  3  1  0  0  0  0
  9 27  1  1  0  0  0
 10 22  2  0  0  0  0
 10 17  1  0  0  0  0
 11 20  1  0  0  0  0
 12  8  1  0  0  0  0
 13 24  1  6  0  0  0
 13  9  1  0  0  0  0
 13 20  1  0  0  0  0
 14  2  1  0  0  0  0
 15  4  1  6  0  0  0
 15 12  1  0  0  0  0
 16  8  1  0  0  0  0
 17 28  1  6  0  0  0
 17 25  1  0  0  0  0
 18  1  2  0  0  0  0
 18  4  1  0  0  0  0
 19  6  1  6  0  0  0
 19  5  1  0  0  0  0
 19  3  1  0  0  0  0
 20 18  1  0  0  0  0
 22 24  1  0  0  0  0
 23 21  1  0  0  0  0
 25 14  1  1  0  0  0
 25  9  1  0  0  0  0
 26 21  2  0  0  0  0
 27  1  1  0  0  0  0
 29 28  1  0  0  0  0
 30 34  1  0  0  0  0
 31 32  1  0  0  0  0
 32 34  1  0  0  0  0
 32 29  1  1  0  0  0
 33 31  1  0  0  0  0
 33 30  1  0  0  0  0
M  END
>  <MODEL>
3

>  <REMARK>
 VINA RESULT:      -7.6      2.908      4.588
  Name = 
  3 active torsions:
  status: ('A' for Active; 'I' for Inactive)
    1  A    between atoms: C_17  and  O_28
    2  A    between atoms: O_28  and  C_29
    3  A    between atoms: C_29  and  C_32
                            x       y       z     vdW  Elec       q    Type
                         _______ _______ _______ _____ _____    ______ ____

>  <TORSDO>
F 3

$$$$
=
 OpenBabel11122414243D

 34 41  0  0  1  0  0  0  0  0999 V2000
  161.5640  208.4960  149.7440 C   0  0  0  0  0  0  0  0  0  0  0  0
  161.7830  207.1340  147.5990 C   0  0  0  0  0  2  0  0  0  0  0  0
  160.8220  209.3050  156.1540 C   0  0  0  0  0  0  0  0  0  0  0  0
  161.6130  209.5470  151.9240 C   0  0  0  0  0  0  0  0  0  0  0  0
  160.7030  208.2310  153.9170 C   0  0  2  0  0  3  0  0  0  0  0  0
  159.7060  207.6270  156.0910 C   0  0  0  0  0  2  0  0  0  0  0  0
  159.6750  208.8070  156.8780 O   0  0  0  0  0  0  0  0  0  0  0  0
  162.5700  210.6990  155.1600 C   0  0  0  0  0  2  0  0  0  0  0  0
  160.5760  206.2110  149.4830 C   0  0  2  0  0  3  0  0  0  0  0  0
  161.1530  203.0800  149.9800 C   0  0  0  0  0  3  0  0  0  0  0  0
  161.2090  206.9900  153.1860 C   0  0  0  0  0  2  0  0  0  0  0  0
  162.7100  209.6830  154.1040 N   0  0  0  0  0  2  0  0  0  0  0  0
  161.0460  205.9110  150.9170 C   0  0  1  0  0  3  0  0  0  0  0  0
  161.2730  205.7590  147.1970 C   0  0  0  0  0  2  0  0  0  0  0  0
  161.4320  209.5050  153.4140 C   0  0  1  0  0  3  0  0  0  0  0  0
  161.4680  210.4280  156.0980 N   0  0  0  0  0  0  0  0  0  0  0  0
  161.7670  204.0070  148.9620 C   0  0  2  0  0  3  0  0  0  0  0  0
  161.4100  208.3990  151.1350 C   0  0  0  0  0  0  0  0  0  0  0  0
  160.9090  208.0150  155.4220 C   0  0  2  0  0  3  0  0  0  0  0  0
  161.0560  207.1350  151.7380 N   0  0  0  0  0  0  0  0  0  0  0  0
  162.1670  210.8160  149.9890 C   0  0  0  0  0  3  0  0  0  0  0  0
  160.4830  203.4460  151.0870 C   0  0  0  0  0  3  0  0  0  0  0  0
  161.9880  210.7150  151.3330 N   0  0  0  0  0  0  0  0  0  0  0  0
  160.1250  204.8490  151.5060 C   0  0  0  0  0  2  0  0  0  0  0  0
  160.7690  205.0720  148.4720 C   0  0  1  0  0  3  0  0  0  0  0  0
  161.9560  209.7070  149.1670 C   0  0  0  0  0  3  0  0  0  0  0  0
  161.2940  207.3440  148.9440 N   0  0  0  0  0  0  0  0  0  0  0  0
  162.2460  203.2430  147.8930 O   0  0  0  0  0  0  0  0  0  0  0  0
  161.2070  202.3580  147.5900 C   0  0  0  0  0  2  0  0  0  0  0  0
  159.7060  201.0390  144.6380 O   0  0  0  0  0  0  0  0  0  0  0  0
  160.8320  203.0320  145.2310 C   0  0  0  0  0  2  0  0  0  0  0  0
  161.2990  201.9300  146.1370 C   0  0  2  0  0  3  0  0  0  0  0  0
  159.6460  202.4340  144.5110 C   0  0  0  0  0  2  0  0  0  0  0  0
  160.3200  200.8090  145.8770 C   0  0  0  0  0  2  0  0  0  0  0  0
  1 18  1  0  0  0  0
  2 27  1  0  0  0  0
  3  7  1  0  0  0  0
  5 11  1  6  0  0  0
  5 19  1  0  0  0  0
  6  7  1  0  0  0  0
  8 16  1  0  0  0  0
  9 27  1  6  0  0  0
  9 13  1  0  0  0  0
 10 22  2  0  0  0  0
 12  8  1  0  0  0  0
 13 24  1  1  0  0  0
 13 20  1  0  0  0  0
 14  2  1  0  0  0  0
 15  4  1  6  0  0  0
 15  5  1  0  0  0  0
 15 12  1  0  0  0  0
 16  3  2  0  0  0  0
 17 28  1  6  0  0  0
 17 10  1  0  0  0  0
 18 20  1  0  0  0  0
 18  4  2  0  0  0  0
 19  6  1  1  0  0  0
 19  3  1  0  0  0  0
 20 11  1  0  0  0  0
 21 23  2  0  0  0  0
 22 24  1  0  0  0  0
 23  4  1  0  0  0  0
 25 14  1  6  0  0  0
 25 17  1  0  0  0  0
 25  9  1  0  0  0  0
 26  1  2  0  0  0  0
 26 21  1  0  0  0  0
 27  1  1  0  0  0  0
 29 28  1  0  0  0  0
 30 34  1  0  0  0  0
 31 32  1  0  0  0  0
 32 29  1  1  0  0  0
 33 30  1  0  0  0  0
 33 31  1  0  0  0  0
 34 32  1  0  0  0  0
M  END
>  <MODEL>
4

>  <REMARK>
 VINA RESULT:      -7.5      2.608      4.914
  Name = 
  3 active torsions:
  status: ('A' for Active; 'I' for Inactive)
    1  A    between atoms: C_17  and  O_28
    2  A    between atoms: O_28  and  C_29
    3  A    between atoms: C_29  and  C_32
                            x       y       z     vdW  Elec       q    Type
                         _______ _______ _______ _____ _____    ______ ____

>  <TORSDO>
F 3

$$$$
=
 OpenBabel11122414243D

 34 41  0  0  1  0  0  0  0  0999 V2000
  160.8410  207.5070  154.2190 C   0  0  0  0  0  0  0  0  0  0  0  0
  161.4040  205.0760  153.6900 C   0  0  0  0  0  2  0  0  0  0  0  0
  159.1700  213.6170  152.7480 C   0  0  0  0  0  0  0  0  0  0  0  0
  160.0080  209.7640  154.4880 C   0  0  0  0  0  0  0  0  0  0  0  0
  160.0870  211.3250  152.4660 C   0  0  2  0  0  3  0  0  0  0  0  0
  160.1950  213.3310  151.0350 C   0  0  0  0  0  2  0  0  0  0  0  0
  159.9560  214.4530  151.8710 O   0  0  0  0  0  0  0  0  0  0  0  0
  157.9440  212.6670  154.6400 C   0  0  0  0  0  2  0  0  0  0  0  0
  161.8080  206.7860  152.0250 C   0  0  2  0  0  3  0  0  0  0  0  0
  161.0230  205.8870  149.0320 C   0  0  0  0  0  3  0  0  0  0  0  0
  159.8630  210.0690  151.6270 C   0  0  0  0  0  2  0  0  0  0  0  0
  158.1850  211.3340  154.0630 N   0  0  0  0  0  2  0  0  0  0  0  0
  160.8330  207.7630  151.3450 C   0  0  1  0  0  3  0  0  0  0  0  0
  161.9980  204.4010  152.4640 C   0  0  0  0  0  2  0  0  0  0  0  0
  159.6240  211.1030  153.9300 C   0  0  1  0  0  3  0  0  0  0  0  0
  158.6140  213.7560  153.9100 N   0  0  0  0  0  0  0  0  0  0  0  0
  160.8490  205.1310  150.3250 C   0  0  2  0  0  3  0  0  0  0  0  0
  160.4660  208.7320  153.6470 C   0  0  0  0  0  0  0  0  0  0  0  0
  159.3340  212.4840  151.7990 C   0  0  2  0  0  3  0  0  0  0  0  0
  160.5450  208.9170  152.2160 N   0  0  0  0  0  0  0  0  0  0  0  0
  160.2370  208.3550  156.3920 C   0  0  0  0  0  3  0  0  0  0  0  0
  161.2420  207.2080  148.9060 C   0  0  0  0  0  3  0  0  0  0  0  0
  159.9030  209.5470  155.8270 N   0  0  0  0  0  0  0  0  0  0  0  0
  161.4490  208.2020  150.0210 C   0  0  0  0  0  2  0  0  0  0  0  0
  161.9800  205.4300  151.3270 C   0  0  1  0  0  3  0  0  0  0  0  0
  160.7150  207.3120  155.5980 C   0  0  0  0  0  3  0  0  0  0  0  0
  161.3640  206.4850  153.3690 N   0  0  0  0  0  0  0  0  0  0  0  0
  160.7860  203.7640  150.0380 O   0  0  0  0  0  0  0  0  0  0  0  0
  160.9430  203.6800  148.6520 C   0  0  0  0  0  2  0  0  0  0  0  0
  161.2090  200.7020  146.7100 O   0  0  0  0  0  0  0  0  0  0  0  0
  160.8250  201.2240  148.9840 C   0  0  0  0  0  2  0  0  0  0  0  0
  160.3580  202.3750  148.1430 C   0  0  2  0  0  3  0  0  0  0  0  0
  161.5820  200.3470  148.0150 C   0  0  0  0  0  2  0  0  0  0  0  0
  160.9150  202.0720  146.7730 C   0  0  0  0  0  2  0  0  0  0  0  0
  1 26  1  0  0  0  0
  3 16  2  0  0  0  0
  4 23  2  0  0  0  0
  5 11  1  6  0  0  0
  5 15  1  0  0  0  0
  6  7  1  0  0  0  0
  7  3  1  0  0  0  0
  9 27  1  1  0  0  0
 10 17  1  0  0  0  0
 11 20  1  0  0  0  0
 12  8  1  0  0  0  0
 13 24  1  6  0  0  0
 13  9  1  0  0  0  0
 13 20  1  0  0  0  0
 14  2  1  0  0  0  0
 15 12  1  6  0  0  0
 15  4  1  0  0  0  0
 16  8  1  0  0  0  0
 17 28  1  6  0  0  0
 17 25  1  0  0  0  0
 18  1  2  0  0  0  0
 18  4  1  0  0  0  0
 19  6  1  6  0  0  0
 19  5  1  0  0  0  0
 19  3  1  0  0  0  0
 20 18  1  0  0  0  0
 22 10  2  0  0  0  0
 22 24  1  0  0  0  0
 23 21  1  0  0  0  0
 25  9  1  0  0  0  0
 25 14  1  1  0  0  0
 26 21  2  0  0  0  0
 27  2  1  0  0  0  0
 27  1  1  0  0  0  0
 29 28  1  0  0  0  0
 30 34  1  0  0  0  0
 30 33  1  0  0  0  0
 32 29  1  1  0  0  0
 32 31  1  0  0  0  0
 33 31  1  0  0  0  0
 34 32  1  0  0  0  0
M  END
>  <MODEL>
5

>  <REMARK>
 VINA RESULT:      -6.8      2.261      2.922
  Name = 
  3 active torsions:
  status: ('A' for Active; 'I' for Inactive)
    1  A    between atoms: C_17  and  O_28
    2  A    between atoms: O_28  and  C_29
    3  A    between atoms: C_29  and  C_32
                            x       y       z     vdW  Elec       q    Type
                         _______ _______ _______ _____ _____    ______ ____

>  <TORSDO>
F 3

$$$$
=
 OpenBabel11122414243D

 34 41  0  0  1  0  0  0  0  0999 V2000
  160.8550  203.5260  151.0350 C   0  0  0  0  0  0  0  0  0  0  0  0
  161.2340  205.4550  152.6600 C   0  0  0  0  0  2  0  0  0  0  0  0
  160.4780  200.7670  145.1580 C   0  0  0  0  0  0  0  0  0  0  0  0
  160.8170  201.8130  149.3260 C   0  0  0  0  0  0  0  0  0  0  0  0
  160.4500  202.5360  146.9020 C   0  0  2  0  0  3  0  0  0  0  0  0
  159.8310  202.5650  144.5150 C   0  0  0  0  0  2  0  0  0  0  0  0
  159.5640  201.2240  144.1370 O   0  0  0  0  0  0  0  0  0  0  0  0
  161.7170  199.4530  146.8090 C   0  0  0  0  0  2  0  0  0  0  0  0
  160.4700  205.9200  150.4100 C   0  0  2  0  0  3  0  0  0  0  0  0
  161.8740  208.4940  149.0740 C   0  0  0  0  0  3  0  0  0  0  0  0
  161.1940  203.8120  147.2870 C   0  0  0  0  0  2  0  0  0  0  0  0
  162.0230  200.7120  147.5080 N   0  0  0  0  0  2  0  0  0  0  0  0
  161.1220  205.6060  149.0520 C   0  0  1  0  0  3  0  0  0  0  0  0
  161.0630  206.9600  152.5280 C   0  0  0  0  0  2  0  0  0  0  0  0
  160.7800  201.3840  147.8870 C   0  0  1  0  0  3  0  0  0  0  0  0
  160.8060  199.6200  145.6640 N   0  0  0  0  0  0  0  0  0  0  0  0
  162.1400  207.8590  150.4160 C   0  0  2  0  0  3  0  0  0  0  0  0
  160.8500  203.1750  149.6770 C   0  0  0  0  0  0  0  0  0  0  0  0
  160.8310  202.1790  145.4590 C   0  0  2  0  0  3  0  0  0  0  0  0
  160.8860  204.2050  148.6630 N   0  0  0  0  0  0  0  0  0  0  0  0
  160.8590  201.1890  151.6220 C   0  0  0  0  0  3  0  0  0  0  0  0
  161.2290  207.9260  148.0400 C   0  0  0  0  0  3  0  0  0  0  0  0
  160.8270  200.8640  150.3020 N   0  0  0  0  0  0  0  0  0  0  0  0
  160.5590  206.5770  148.0210 C   0  0  0  0  0  2  0  0  0  0  0  0
  160.8630  207.2640  151.0380 C   0  0  1  0  0  3  0  0  0  0  0  0
  160.8720  202.5280  152.0140 C   0  0  0  0  0  3  0  0  0  0  0  0
  160.8240  204.9110  151.3840 N   0  0  0  0  0  0  0  0  0  0  0  0
  162.7060  208.8180  151.2600 O   0  0  0  0  0  0  0  0  0  0  0  0
  162.0940  210.0210  150.8980 C   0  0  0  0  0  2  0  0  0  0  0  0
  160.0060  210.3530  153.7690 O   0  0  0  0  0  0  0  0  0  0  0  0
  162.3310  210.2120  153.3610 C   0  0  0  0  0  2  0  0  0  0  0  0
  161.6640  210.7780  152.1420 C   0  0  2  0  0  3  0  0  0  0  0  0
  161.1810  209.7320  154.2160 C   0  0  0  0  0  2  0  0  0  0  0  0
  160.1930  210.5460  152.3930 C   0  0  0  0  0  2  0  0  0  0  0  0
  1 27  1  0  0  0  0
  1 26  1  0  0  0  0
  3 19  1  0  0  0  0
  3 16  2  0  0  0  0
  4 18  1  0  0  0  0
  4 23  2  0  0  0  0
  5 11  1  1  0  0  0
  5 15  1  0  0  0  0
  7  6  1  0  0  0  0
  7  3  1  0  0  0  0
  8 12  1  0  0  0  0
  9 25  1  0  0  0  0
  9 27  1  1  0  0  0
 10 17  1  0  0  0  0
 11 20  1  0  0  0  0
 13 24  1  6  0  0  0
 13  9  1  0  0  0  0
 14  2  1  0  0  0  0
 15 12  1  6  0  0  0
 15  4  1  0  0  0  0
 16  8  1  0  0  0  0
 17 25  1  0  0  0  0
 17 28  1  1  0  0  0
 18  1  2  0  0  0  0
 19  6  1  6  0  0  0
 19  5  1  0  0  0  0
 20 13  1  0  0  0  0
 20 18  1  0  0  0  0
 21 26  2  0  0  0  0
 22 10  2  0  0  0  0
 23 21  1  0  0  0  0
 24 22  1  0  0  0  0
 25 14  1  1  0  0  0
 27  2  1  0  0  0  0
 29 28  1  0  0  0  0
 30 33  1  0  0  0  0
 31 33  1  0  0  0  0
 32 29  1  6  0  0  0
 32 34  1  0  0  0  0
 32 31  1  0  0  0  0
 34 30  1  0  0  0  0
M  END
>  <MODEL>
6

>  <REMARK>
 VINA RESULT:      -6.3      3.430      8.858
  Name = 
  3 active torsions:
  status: ('A' for Active; 'I' for Inactive)
    1  A    between atoms: C_17  and  O_28
    2  A    between atoms: O_28  and  C_29
    3  A    between atoms: C_29  and  C_32
                            x       y       z     vdW  Elec       q    Type
                         _______ _______ _______ _____ _____    ______ ____

>  <TORSDO>
F 3

$$$$
=
 OpenBabel11122414243D

 34 41  0  0  1  0  0  0  0  0999 V2000
  162.0080  207.9180  149.9110 C   0  0  0  0  0  0  0  0  0  0  0  0
  161.9150  210.0910  151.2440 C   0  0  0  0  0  2  0  0  0  0  0  0
  161.0220  201.5650  148.9320 C   0  0  0  0  0  0  0  0  0  0  0  0
  161.7320  205.8130  148.7500 C   0  0  0  0  0  0  0  0  0  0  0  0
  161.3650  203.7050  150.1480 C   0  0  2  0  0  3  0  0  0  0  0  0
  161.3110  201.3620  150.9180 C   0  0  0  0  0  2  0  0  0  0  0  0
  161.5820  200.5460  149.7890 O   0  0  0  0  0  0  0  0  0  0  0  0
  160.3960  202.9840  147.0400 C   0  0  0  0  0  2  0  0  0  0  0  0
  161.9980  207.9730  152.4140 C   0  0  2  0  0  3  0  0  0  0  0  0
  160.0650  207.8420  154.9880 C   0  0  0  0  0  3  0  0  0  0  0  0
  160.6440  204.6190  151.1350 C   0  0  0  0  0  2  0  0  0  0  0  0
  160.1810  204.0810  147.9970 N   0  0  0  0  0  2  0  0  0  0  0  0
  161.0330  206.7750  152.3750 C   0  0  1  0  0  3  0  0  0  0  0  0
  161.9110  210.3830  152.7360 C   0  0  0  0  0  2  0  0  0  0  0  0
  161.4160  204.3450  148.7350 C   0  0  1  0  0  3  0  0  0  0  0  0
  160.9450  201.7630  147.6540 N   0  0  0  0  0  0  0  0  0  0  0  0
  160.2290  208.9520  153.9820 C   0  0  2  0  0  3  0  0  0  0  0  0
  161.6770  206.5560  149.9440 C   0  0  0  0  0  0  0  0  0  0  0  0
  160.6410  202.3520  150.1340 C   0  0  2  0  0  3  0  0  0  0  0  0
  161.2770  205.9370  151.1880 N   0  0  0  0  0  0  0  0  0  0  0  0
  162.3670  207.7570  147.5340 C   0  0  0  0  0  3  0  0  0  0  0  0
  160.4530  206.5640  154.8330 C   0  0  0  0  0  3  0  0  0  0  0  0
  162.0690  206.4310  147.5850 N   0  0  0  0  0  0  0  0  0  0  0  0
  161.2090  205.9830  153.6650 C   0  0  0  0  0  2  0  0  0  0  0  0
  161.6730  209.0510  153.4580 C   0  0  1  0  0  3  0  0  0  0  0  0
  162.3440  208.5270  148.6980 C   0  0  0  0  0  3  0  0  0  0  0  0
  162.0110  208.6520  151.1370 N   0  0  0  0  0  0  0  0  0  0  0  0
  159.8300  210.1550  154.5740 O   0  0  0  0  0  0  0  0  0  0  0  0
  159.3030  209.7860  155.8150 C   0  0  0  0  0  2  0  0  0  0  0  0
  160.4200  213.0720  156.6350 O   0  0  0  0  0  0  0  0  0  0  0  0
  158.4260  211.8320  156.9130 C   0  0  0  0  0  2  0  0  0  0  0  0
  159.5790  210.8740  156.8370 C   0  0  2  0  0  3  0  0  0  0  0  0
  159.0260  213.1580  156.5090 C   0  0  0  0  0  2  0  0  0  0  0  0
  160.7300  211.7310  156.3670 C   0  0  0  0  0  2  0  0  0  0  0  0
  1 18  1  0  0  0  0
  1 27  1  0  0  0  0
  2 14  1  0  0  0  0
  3  7  1  0  0  0  0
  3 19  1  0  0  0  0
  4 18  2  0  0  0  0
  5 11  1  1  0  0  0
  7  6  1  0  0  0  0
  8 16  1  0  0  0  0
  8 12  1  0  0  0  0
  9 27  1  6  0  0  0
  9 25  1  0  0  0  0
 11 20  1  0  0  0  0
 13  9  1  0  0  0  0
 13 24  1  1  0  0  0
 15 12  1  1  0  0  0
 15  4  1  0  0  0  0
 15  5  1  0  0  0  0
 16  3  2  0  0  0  0
 17 28  1  1  0  0  0
 17 10  1  0  0  0  0
 18 20  1  0  0  0  0
 19  5  1  0  0  0  0
 19  6  1  1  0  0  0
 20 13  1  0  0  0  0
 21 23  2  0  0  0  0
 21 26  1  0  0  0  0
 22 10  2  0  0  0  0
 23  4  1  0  0  0  0
 24 22  1  0  0  0  0
 25 14  1  6  0  0  0
 25 17  1  0  0  0  0
 26  1  2  0  0  0  0
 27  2  1  0  0  0  0
 28 29  1  0  0  0  0
 32 29  1  6  0  0  0
 32 31  1  0  0  0  0
 33 30  1  0  0  0  0
 33 31  1  0  0  0  0
 34 30  1  0  0  0  0
 34 32  1  0  0  0  0
M  END
>  <MODEL>
7

>  <REMARK>
 VINA RESULT:      -6.2      3.229      9.201
  Name = 
  3 active torsions:
  status: ('A' for Active; 'I' for Inactive)
    1  A    between atoms: C_17  and  O_28
    2  A    between atoms: O_28  and  C_29
    3  A    between atoms: C_29  and  C_32
                            x       y       z     vdW  Elec       q    Type
                         _______ _______ _______ _____ _____    ______ ____

>  <TORSDO>
F 3

$$$$
=
 OpenBabel11122414243D

 34 41  0  0  1  0  0  0  0  0999 V2000
  161.8600  207.5310  148.7170 C   0  0  0  0  0  0  0  0  0  0  0  0
  161.7800  210.0270  149.2380 C   0  0  0  0  0  2  0  0  0  0  0  0
  161.1580  201.2090  150.0710 C   0  0  0  0  0  0  0  0  0  0  0  0
  161.5870  205.1500  148.3780 C   0  0  0  0  0  0  0  0  0  0  0  0
  161.5000  203.6420  150.4400 C   0  0  2  0  0  3  0  0  0  0  0  0
  161.6700  201.7040  151.9570 C   0  0  0  0  0  2  0  0  0  0  0  0
  161.8670  200.5560  151.1470 O   0  0  0  0  0  0  0  0  0  0  0  0
  160.2470  201.8800  147.9020 C   0  0  0  0  0  2  0  0  0  0  0  0
  162.1160  208.4400  151.0350 C   0  0  2  0  0  3  0  0  0  0  0  0
  160.4830  209.1610  153.7170 C   0  0  0  0  0  3  0  0  0  0  0  0
  160.8360  204.8250  151.1400 C   0  0  0  0  0  2  0  0  0  0  0  0
  160.0710  203.2350  148.4500 N   0  0  0  0  0  2  0  0  0  0  0  0
  161.2260  207.2830  151.5210 C   0  0  1  0  0  3  0  0  0  0  0  0
  161.9190  210.8120  150.5320 C   0  0  0  0  0  2  0  0  0  0  0  0
  161.3600  203.7600  148.9000 C   0  0  1  0  0  3  0  0  0  0  0  0
  160.9310  200.9550  148.8200 N   0  0  0  0  0  0  0  0  0  0  0  0
  160.4700  209.8620  152.3830 C   0  0  2  0  0  3  0  0  0  0  0  0
  161.6160  206.2560  149.2480 C   0  0  0  0  0  0  0  0  0  0  0  0
  160.8620  202.3520  150.9730 C   0  0  2  0  0  3  0  0  0  0  0  0
  161.3910  206.0930  150.6670 N   0  0  0  0  0  0  0  0  0  0  0  0
  161.9690  206.5720  146.5090 C   0  0  0  0  0  3  0  0  0  0  0  0
  160.9280  207.9150  153.9570 C   0  0  0  0  0  3  0  0  0  0  0  0
  161.7590  205.3380  147.0410 N   0  0  0  0  0  0  0  0  0  0  0  0
  161.5880  206.9840  152.9720 C   0  0  0  0  0  2  0  0  0  0  0  0
  161.8410  209.8040  151.6850 C   0  0  1  0  0  3  0  0  0  0  0  0
  162.0260  207.6930  147.3380 C   0  0  0  0  0  3  0  0  0  0  0  0
  161.9500  208.6400  149.6120 N   0  0  0  0  0  0  0  0  0  0  0  0
  160.0660  211.1870  152.5780 O   0  0  0  0  0  0  0  0  0  0  0  0
  160.4430  211.4880  153.8890 C   0  0  0  0  0  2  0  0  0  0  0  0
  157.4940  213.4790  153.6600 O   0  0  0  0  0  0  0  0  0  0  0  0
  158.2770  211.7510  155.0720 C   0  0  0  0  0  2  0  0  0  0  0  0
  159.4610  212.4730  154.4960 C   0  0  2  0  0  3  0  0  0  0  0  0
  157.1050  212.2830  154.2810 C   0  0  0  0  0  2  0  0  0  0  0  0
  158.8650  213.3310  153.4060 C   0  0  0  0  0  2  0  0  0  0  0  0
  1 18  1  0  0  0  0
  1 27  1  0  0  0  0
  2 27  1  0  0  0  0
  2 14  1  0  0  0  0
  3 19  1  0  0  0  0
  3  7  1  0  0  0  0
  4 18  2  0  0  0  0
  5 19  1  0  0  0  0
  5 11  1  1  0  0  0
  7  6  1  0  0  0  0
  8 12  1  0  0  0  0
  8 16  1  0  0  0  0
  9 27  1  6  0  0  0
  9 13  1  0  0  0  0
  9 25  1  0  0  0  0
 10 22  2  0  0  0  0
 12 15  1  0  0  0  0
 13 24  1  1  0  0  0
 15  4  1  1  0  0  0
 15  5  1  0  0  0  0
 16  3  2  0  0  0  0
 17 28  1  1  0  0  0
 17 10  1  0  0  0  0
 18 20  1  0  0  0  0
 19  6  1  1  0  0  0
 20 11  1  0  0  0  0
 20 13  1  0  0  0  0
 21 23  2  0  0  0  0
 21 26  1  0  0  0  0
 23  4  1  0  0  0  0
 24 22  1  0  0  0  0
 25 14  1  6  0  0  0
 25 17  1  0  0  0  0
 26  1  2  0  0  0  0
 28 29  1  0  0  0  0
 30 33  1  0  0  0  0
 32 29  1  6  0  0  0
 32 31  1  0  0  0  0
 33 31  1  0  0  0  0
 34 30  1  0  0  0  0
 34 32  1  0  0  0  0
M  END
>  <MODEL>
8

>  <REMARK>
 VINA RESULT:      -6.1      2.994      9.199
  Name = 
  3 active torsions:
  status: ('A' for Active; 'I' for Inactive)
    1  A    between atoms: C_17  and  O_28
    2  A    between atoms: O_28  and  C_29
    3  A    between atoms: C_29  and  C_32
                            x       y       z     vdW  Elec       q    Type
                         _______ _______ _______ _____ _____    ______ ____

>  <TORSDO>
F 3

$$$$
=
 OpenBabel11122414243D

 34 41  0  0  1  0  0  0  0  0999 V2000
  157.7050  213.7520  148.2990 C   0  0  0  0  0  0  0  0  0  0  0  0
  158.3610  214.1460  145.8660 C   0  0  0  0  0  2  0  0  0  0  0  0
  158.8340  212.3290  154.5440 C   0  0  0  0  0  0  0  0  0  0  0  0
  157.3780  213.6060  150.6930 C   0  0  0  0  0  0  0  0  0  0  0  0
  159.1610  212.4130  152.0820 C   0  0  2  0  0  3  0  0  0  0  0  0
  160.3170  211.1480  153.8560 C   0  0  0  0  0  2  0  0  0  0  0  0
  159.4350  211.0850  154.9660 O   0  0  0  0  0  0  0  0  0  0  0  0
  157.3500  214.2440  154.2000 C   0  0  0  0  0  2  0  0  0  0  0  0
  159.7140  212.6900  147.2480 C   0  0  2  0  0  3  0  0  0  0  0  0
  162.8830  213.0560  146.7930 C   0  0  0  0  0  3  0  0  0  0  0  0
  160.1560  212.9380  151.0500 C   0  0  0  0  0  2  0  0  0  0  0  0
  158.0030  214.4530  152.8980 N   0  0  0  0  0  2  0  0  0  0  0  0
  160.4750  212.9800  148.5530 C   0  0  1  0  0  3  0  0  0  0  0  0
  159.5010  213.6190  145.0090 C   0  0  0  0  0  2  0  0  0  0  0  0
  157.8580  213.2550  152.0710 C   0  0  1  0  0  3  0  0  0  0  0  0
  157.8050  213.0320  154.9000 N   0  0  0  0  0  0  0  0  0  0  0  0
  161.7420  213.8250  146.1770 C   0  0  2  0  0  3  0  0  0  0  0  0
  158.2090  213.4370  149.5700 C   0  0  0  0  0  0  0  0  0  0  0  0
  159.8420  212.4360  153.4570 C   0  0  2  0  0  3  0  0  0  0  0  0
  159.5650  212.9560  149.7120 N   0  0  0  0  0  0  0  0  0  0  0  0
  155.6280  214.4360  149.3100 C   0  0  0  0  0  3  0  0  0  0  0  0
  162.8190  212.2830  147.8920 C   0  0  0  0  0  3  0  0  0  0  0  0
  156.1200  214.1010  150.5330 N   0  0  0  0  0  0  0  0  0  0  0  0
  161.5870  211.9480  148.6930 C   0  0  0  0  0  2  0  0  0  0  0  0
  160.5010  212.9410  145.9540 C   0  0  1  0  0  3  0  0  0  0  0  0
  156.4120  214.2660  148.1680 C   0  0  0  0  0  3  0  0  0  0  0  0
  158.5320  213.5190  147.1580 N   0  0  0  0  0  0  0  0  0  0  0  0
  162.1800  214.3840  144.9720 O   0  0  0  0  0  0  0  0  0  0  0  0
  162.8770  213.3560  144.3320 C   0  0  0  0  0  2  0  0  0  0  0  0
  161.3450  212.4630  141.2390 O   0  0  0  0  0  0  0  0  0  0  0  0
  161.6410  214.4530  142.4810 C   0  0  0  0  0  2  0  0  0  0  0  0
  162.7500  213.5040  142.8260 C   0  0  2  0  0  3  0  0  0  0  0  0
  160.6720  213.6090  141.6860 C   0  0  0  0  0  2  0  0  0  0  0  0
  162.3040  212.1920  142.2250 C   0  0  0  0  0  2  0  0  0  0  0  0
  1 18  1  0  0  0  0
  2 27  1  0  0  0  0
  3 16  2  0  0  0  0
  3  7  1  0  0  0  0
  5 11  1  6  0  0  0
  5 19  1  0  0  0  0
  6  7  1  0  0  0  0
  8 16  1  0  0  0  0
  9 27  1  6  0  0  0
  9 13  1  0  0  0  0
 10 22  2  0  0  0  0
 12  8  1  0  0  0  0
 13 24  1  1  0  0  0
 13 20  1  0  0  0  0
 14  2  1  0  0  0  0
 15  4  1  6  0  0  0
 15  5  1  0  0  0  0
 15 12  1  0  0  0  0
 17 28  1  6  0  0  0
 17 10  1  0  0  0  0
 18 20  1  0  0  0  0
 18  4  2  0  0  0  0
 19  6  1  6  0  0  0
 19  3  1  0  0  0  0
 20 11  1  0  0  0  0
 21 23  2  0  0  0  0
 22 24  1  0  0  0  0
 23  4  1  0  0  0  0
 25 14  1  6  0  0  0
 25 17  1  0  0  0  0
 25  9  1  0  0  0  0
 26  1  2  0  0  0  0
 26 21  1  0  0  0  0
 27  1  1  0  0  0  0
 29 28  1  0  0  0  0
 30 33  1  0  0  0  0
 30 34  1  0  0  0  0
 31 32  1  0  0  0  0
 32 29  1  1  0  0  0
 33 31  1  0  0  0  0
 34 32  1  0  0  0  0
M  END
>  <MODEL>
9

>  <REMARK>
 VINA RESULT:      -6.0      6.221      8.645
  Name = 
  3 active torsions:
  status: ('A' for Active; 'I' for Inactive)
    1  A    between atoms: C_17  and  O_28
    2  A    between atoms: O_28  and  C_29
    3  A    between atoms: C_29  and  C_32
                            x       y       z     vdW  Elec       q    Type
                         _______ _______ _______ _____ _____    ______ ____

>  <TORSDO>
F 3

$$$$
