=
 OpenBabel11122413403D

 37 41  0  0  1  0  0  0  0  0999 V2000
  159.1710  213.2670  156.3060 C   0  0  1  0  0  0  0  0  0  0  0  0
  161.4770  210.2150  154.4570 C   0  0  1  0  0  3  0  0  0  0  0  0
  160.8910  211.3750  156.7160 C   0  0  2  0  0  3  0  0  0  0  0  0
  160.8520  210.3510  153.0530 C   0  0  2  0  0  3  0  0  0  0  0  0
  160.9160  211.4340  155.1830 C   0  0  2  0  0  3  0  0  0  0  0  0
  160.8440  209.9460  157.2610 C   0  0  0  0  0  2  0  0  0  0  0  0
  159.5190  211.6080  154.6450 C   0  0  1  0  0  3  0  0  0  0  0  0
  160.1340  214.4390  156.3820 C   0  0  0  0  0  1  0  0  0  0  0  0
  161.6420  209.0110  156.3630 C   0  0  0  0  0  2  0  0  0  0  0  0
  159.0180  212.9010  154.9300 O   0  0  0  0  0  0  0  0  0  0  0  0
  161.0650  209.0200  155.0840 O   0  0  0  0  0  0  0  0  0  0  0  0
  159.6380  211.2900  153.1560 C   0  0  1  0  0  3  0  0  0  0  0  0
  159.6800  212.1510  157.2610 C   0  0  0  0  0  2  0  0  0  0  0  0
  157.9350  213.7010  156.7820 O   0  0  0  0  0  1  0  0  0  0  0  0
  159.7030  212.2830  150.9280 O   0  0  0  0  0  0  0  0  0  0  0  0
  160.1200  213.4360  150.2460 C   0  0  2  0  0  3  0  0  0  0  0  0
  157.6080  213.9340  150.5670 C   0  0  2  0  0  3  0  0  0  0  0  0
  158.9180  214.3120  149.8600 C   0  0  0  0  0  2  0  0  0  0  0  0
  157.6500  214.0220  152.1060 C   0  0  1  0  0  3  0  0  0  0  0  0
  156.6090  213.3020  152.6920 O   0  0  0  0  0  1  0  0  0  0  0  0
  158.9870  213.7450  152.8130 C   0  0  0  0  0  2  0  0  0  0  0  0
  157.1570  212.6830  150.1350 O   0  0  0  0  0  1  0  0  0  0  0  0
  159.8280  212.5530  152.3050 C   0  0  1  0  0  3  0  0  0  0  0  0
  160.0700  213.5810  148.0420 C   0  0  0  0  0  1  0  0  0  0  0  0
  160.8270  213.0750  149.0990 O   0  0  0  0  0  0  0  0  0  0  0  0
  160.0820  207.9300  153.2200 C   0  0  0  0  0  1  0  0  0  0  0  0
  160.5530  209.0440  152.2890 C   0  0  2  0  0  3  0  0  0  0  0  0
  161.7290  208.5900  151.4070 C   0  0  1  0  0  3  0  0  0  0  0  0
  161.0250  206.9840  149.6170 C   0  0  0  0  0  3  0  0  0  0  0  0
  161.5360  207.1860  150.9050 C   0  0  0  0  0  0  0  0  0  0  0  0
  161.8600  206.0790  151.7040 C   0  0  0  0  0  3  0  0  0  0  0  0
  161.9880  203.7160  151.9900 F   0  0  0  0  0  0  0  0  0  0  0  0
  161.1630  204.5860  149.9290 C   0  0  0  0  0  3  0  0  0  0  0  0
  161.6740  204.7830  151.2160 C   0  0  0  0  0  0  0  0  0  0  0  0
  160.8380  205.6860  149.1300 C   0  0  0  0  0  3  0  0  0  0  0  0
  162.7490  210.7570  150.6870 C   0  0  0  0  0  1  0  0  0  0  0  0
  161.9560  209.5440  150.2370 C   0  0  0  0  0  2  0  0  0  0  0  0
  1  8  1  1  0  0  0
  1 14  1  0  0  0  0
  1 13  1  0  0  0  0
  2 11  1  1  0  0  0
  2  5  1  0  0  0  0
  3 13  1  6  0  0  0
  3  6  1  0  0  0  0
  4 27  1  1  0  0  0
  4 12  1  0  0  0  0
  4  2  1  0  0  0  0
  5  3  1  0  0  0  0
  7 10  1  0  0  0  0
  7  5  1  0  0  0  0
  9  6  1  0  0  0  0
 10  1  1  0  0  0  0
 11  9  1  0  0  0  0
 12  7  1  0  0  0  0
 15 23  1  0  0  0  0
 16 15  1  0  0  0  0
 17 19  1  0  0  0  0
 18 16  1  0  0  0  0
 18 17  1  0  0  0  0
 19 20  1  0  0  0  0
 19 21  1  0  0  0  0
 22 17  1  0  0  0  0
 23 21  1  0  0  0  0
 23 12  1  0  0  0  0
 24 25  1  0  0  0  0
 25 16  1  0  0  0  0
 27 26  1  0  0  0  0
 28 27  1  0  0  0  0
 29 30  1  0  0  0  0
 30 28  1  0  0  0  0
 30 31  2  0  0  0  0
 33 34  2  0  0  0  0
 34 31  1  0  0  0  0
 34 32  1  0  0  0  0
 35 29  2  0  0  0  0
 35 33  1  0  0  0  0
 37 36  1  0  0  0  0
 37 28  1  0  0  0  0
M  END
>  <MODEL>
1

>  <REMARK>
 VINA RESULT:      -5.9      0.000      0.000
  Name = 
  6 active torsions:
  status: ('A' for Active; 'I' for Inactive)
    1  A    between atoms: C_4  and  O_37
    2  A    between atoms: C_7  and  C_10
    3  A    between atoms: C_10  and  C_23
    4  A    between atoms: C_21  and  C_27
    5  A    between atoms: C_23  and  C_28
    6  A    between atoms: C_23  and  C_30
                            x       y       z     vdW  Elec       q    Type
                         _______ _______ _______ _____ _____    ______ ____

>  <TORSDO>
F 6

$$$$
=
 OpenBabel11122413403D

 37 41  0  0  1  0  0  0  0  0999 V2000
  160.6540  210.0080  154.5420 C   0  0  1  0  0  0  0  0  0  0  0  0
  161.9560  207.0800  151.7520 C   0  0  1  0  0  3  0  0  0  0  0  0
  161.4950  207.5740  154.2690 C   0  0  2  0  0  3  0  0  0  0  0  0
  161.6400  207.8970  150.4820 C   0  0  2  0  0  3  0  0  0  0  0  0
  161.7690  208.1130  152.8590 C   0  0  2  0  0  3  0  0  0  0  0  0
  160.8560  206.1840  154.2660 C   0  0  0  0  0  2  0  0  0  0  0  0
  160.6260  208.9830  152.4020 C   0  0  1  0  0  3  0  0  0  0  0  0
  161.9510  210.6180  155.0440 C   0  0  0  0  0  1  0  0  0  0  0  0
  161.3890  205.3600  153.1030 C   0  0  0  0  0  2  0  0  0  0  0  0
  160.5870  210.1990  153.1250 O   0  0  0  0  0  0  0  0  0  0  0  0
  161.0530  206.0070  151.9050 O   0  0  0  0  0  0  0  0  0  0  0  0
  160.8440  209.1470  150.8990 C   0  0  1  0  0  3  0  0  0  0  0  0
  160.5780  208.5370  155.0410 C   0  0  0  0  0  2  0  0  0  0  0  0
  159.6000  210.7080  155.1270 O   0  0  0  0  0  1  0  0  0  0  0  0
  161.5330  210.7400  149.1850 O   0  0  0  0  0  0  0  0  0  0  0  0
  162.4360  211.7880  148.9520 C   0  0  2  0  0  3  0  0  0  0  0  0
  160.2950  213.1040  149.5390 C   0  0  2  0  0  3  0  0  0  0  0  0
  161.7180  213.1460  148.9620 C   0  0  0  0  0  2  0  0  0  0  0  0
  160.2000  212.6240  151.0010 C   0  0  1  0  0  3  0  0  0  0  0  0
  158.9030  212.2260  151.3300 O   0  0  0  0  0  1  0  0  0  0  0  0
  161.2380  211.6060  151.5010 C   0  0  0  0  0  2  0  0  0  0  0  0
  159.4450  212.3760  148.7010 O   0  0  0  0  0  1  0  0  0  0  0  0
  161.6010  210.4380  150.5590 C   0  0  1  0  0  3  0  0  0  0  0  0
  162.8410  212.7840  147.0220 C   0  0  0  0  0  1  0  0  0  0  0  0
  163.0680  211.6000  147.7230 O   0  0  0  0  0  0  0  0  0  0  0  0
  159.7560  206.3680  149.7120 C   0  0  0  0  0  1  0  0  0  0  0  0
  161.0080  207.1370  149.2970 C   0  0  2  0  0  3  0  0  0  0  0  0
  162.0160  206.2320  148.5670 C   0  0  1  0  0  3  0  0  0  0  0  0
  161.5850  204.0400  147.4350 C   0  0  0  0  0  3  0  0  0  0  0  0
  161.6040  204.7870  148.6180 C   0  0  0  0  0  0  0  0  0  0  0  0
  161.2410  204.1790  149.8290 C   0  0  0  0  0  3  0  0  0  0  0  0
  160.5120  202.2480  151.0230 F   0  0  0  0  0  0  0  0  0  0  0  0
  160.8440  202.0910  148.6670 C   0  0  0  0  0  3  0  0  0  0  0  0
  160.8620  202.8330  149.8520 C   0  0  0  0  0  0  0  0  0  0  0  0
  161.2050  202.6940  147.4590 C   0  0  0  0  0  3  0  0  0  0  0  0
  160.9100  206.6390  146.3610 C   0  0  0  0  0  1  0  0  0  0  0  0
  162.2230  206.6740  147.1200 C   0  0  0  0  0  2  0  0  0  0  0  0
  1 13  1  0  0  0  0
  1  8  1  1  0  0  0
  1 14  1  0  0  0  0
  2 11  1  1  0  0  0
  2  5  1  0  0  0  0
  3  6  1  6  0  0  0
  3 13  1  0  0  0  0
  4 27  1  6  0  0  0
  4 12  1  0  0  0  0
  4  2  1  0  0  0  0
  5  3  1  0  0  0  0
  7  5  1  0  0  0  0
  7 10  1  0  0  0  0
  9  6  1  0  0  0  0
 10  1  1  0  0  0  0
 11  9  1  0  0  0  0
 12  7  1  0  0  0  0
 15 23  1  0  0  0  0
 16 18  1  0  0  0  0
 16 15  1  0  0  0  0
 17 19  1  0  0  0  0
 18 17  1  0  0  0  0
 19 20  1  0  0  0  0
 19 21  1  0  0  0  0
 22 17  1  0  0  0  0
 23 12  1  0  0  0  0
 23 21  1  0  0  0  0
 24 25  1  0  0  0  0
 25 16  1  0  0  0  0
 27 26  1  0  0  0  0
 28 30  1  0  0  0  0
 28 27  1  0  0  0  0
 29 35  2  0  0  0  0
 29 30  1  0  0  0  0
 30 31  2  0  0  0  0
 31 34  1  0  0  0  0
 33 34  2  0  0  0  0
 34 32  1  0  0  0  0
 35 33  1  0  0  0  0
 36 37  1  0  0  0  0
 37 28  1  0  0  0  0
M  END
>  <MODEL>
2

>  <REMARK>
 VINA RESULT:      -5.5      2.122      3.700
  Name = 
  6 active torsions:
  status: ('A' for Active; 'I' for Inactive)
    1  A    between atoms: C_4  and  O_37
    2  A    between atoms: C_7  and  C_10
    3  A    between atoms: C_10  and  C_23
    4  A    between atoms: C_21  and  C_27
    5  A    between atoms: C_23  and  C_28
    6  A    between atoms: C_23  and  C_30
                            x       y       z     vdW  Elec       q    Type
                         _______ _______ _______ _____ _____    ______ ____

>  <TORSDO>
F 6

$$$$
=
 OpenBabel11122413403D

 37 41  0  0  1  0  0  0  0  0999 V2000
  157.7980  212.7370  154.3200 C   0  0  1  0  0  0  0  0  0  0  0  0
  161.4560  210.6360  153.8140 C   0  0  1  0  0  3  0  0  0  0  0  0
  159.6140  211.3330  155.5200 C   0  0  2  0  0  3  0  0  0  0  0  0
  161.5170  210.7610  152.2770 C   0  0  2  0  0  3  0  0  0  0  0  0
  160.3050  211.5720  154.1710 C   0  0  2  0  0  3  0  0  0  0  0  0
  159.7400  209.8910  156.0120 C   0  0  0  0  0  2  0  0  0  0  0  0
  159.3140  211.4300  153.0450 C   0  0  1  0  0  3  0  0  0  0  0  0
  158.2410  214.1050  154.8070 C   0  0  0  0  0  1  0  0  0  0  0  0
  161.0870  209.3090  155.6050 C   0  0  0  0  0  2  0  0  0  0  0  0
  158.3900  212.5030  153.0370 O   0  0  0  0  0  0  0  0  0  0  0  0
  161.1700  209.3110  154.2050 O   0  0  0  0  0  0  0  0  0  0  0  0
  160.1740  211.3280  151.7860 C   0  0  1  0  0  3  0  0  0  0  0  0
  158.1220  211.6940  155.4260 C   0  0  0  0  0  2  0  0  0  0  0  0
  156.4140  212.7700  154.1620 O   0  0  0  0  0  1  0  0  0  0  0  0
  160.8110  212.5420  149.7680 O   0  0  0  0  0  0  0  0  0  0  0  0
  161.1580  213.8230  149.3150 C   0  0  2  0  0  3  0  0  0  0  0  0
  158.6630  213.7280  148.6600 C   0  0  2  0  0  3  0  0  0  0  0  0
  160.0100  214.4530  148.5130 C   0  0  0  0  0  2  0  0  0  0  0  0
  158.1150  213.6600  150.1000 C   0  0  1  0  0  3  0  0  0  0  0  0
  157.1380  212.6730  150.2330 O   0  0  0  0  0  1  0  0  0  0  0  0
  159.1230  213.6050  151.2590 C   0  0  0  0  0  2  0  0  0  0  0  0
  158.7190  212.4620  148.0690 O   0  0  0  0  0  1  0  0  0  0  0  0
  160.3530  212.6850  151.0920 C   0  0  1  0  0  3  0  0  0  0  0  0
  162.1240  212.5960  147.7510 C   0  0  0  0  0  1  0  0  0  0  0  0
  162.3010  213.7470  148.5190 O   0  0  0  0  0  0  0  0  0  0  0  0
  162.6010  209.8920  150.1440 C   0  0  0  0  0  1  0  0  0  0  0  0
  161.9830  209.5190  151.4900 C   0  0  2  0  0  3  0  0  0  0  0  0
  160.8730  208.4650  151.3340 C   0  0  1  0  0  3  0  0  0  0  0  0
  161.6420  208.1990  148.9640 C   0  0  0  0  0  3  0  0  0  0  0  0
  161.0780  207.6200  150.1070 C   0  0  0  0  0  0  0  0  0  0  0  0
  160.7130  206.2650  150.0900 C   0  0  0  0  0  3  0  0  0  0  0  0
  160.5620  204.1910  148.9260 F   0  0  0  0  0  0  0  0  0  0  0  0
  161.4790  206.0820  147.8000 C   0  0  0  0  0  3  0  0  0  0  0  0
  160.9140  205.4990  148.9390 C   0  0  0  0  0  0  0  0  0  0  0  0
  161.8410  207.4310  147.8130 C   0  0  0  0  0  3  0  0  0  0  0  0
  161.9860  206.6990  152.7120 C   0  0  0  0  0  1  0  0  0  0  0  0
  160.7590  207.5800  152.5730 C   0  0  0  0  0  2  0  0  0  0  0  0
  1  8  1  1  0  0  0
  1 13  1  0  0  0  0
  2  5  1  0  0  0  0
  2 11  1  6  0  0  0
  3 13  1  6  0  0  0
  3  6  1  0  0  0  0
  4 27  1  6  0  0  0
  4  2  1  0  0  0  0
  5  3  1  0  0  0  0
  7  5  1  0  0  0  0
  9  6  1  0  0  0  0
 10  7  1  0  0  0  0
 10  1  1  0  0  0  0
 11  9  1  0  0  0  0
 12  4  1  0  0  0  0
 12  7  1  0  0  0  0
 14  1  1  0  0  0  0
 15 23  1  0  0  0  0
 16 15  1  0  0  0  0
 17 19  1  0  0  0  0
 18 17  1  0  0  0  0
 18 16  1  0  0  0  0
 19 20  1  0  0  0  0
 19 21  1  0  0  0  0
 22 17  1  0  0  0  0
 23 21  1  0  0  0  0
 23 12  1  0  0  0  0
 24 25  1  0  0  0  0
 25 16  1  0  0  0  0
 26 27  1  0  0  0  0
 28 27  1  0  0  0  0
 28 37  1  0  0  0  0
 29 30  1  0  0  0  0
 30 28  1  0  0  0  0
 31 30  2  0  0  0  0
 32 34  1  0  0  0  0
 33 35  1  0  0  0  0
 33 34  2  0  0  0  0
 34 31  1  0  0  0  0
 35 29  2  0  0  0  0
 37 36  1  0  0  0  0
M  END
>  <MODEL>
3

>  <REMARK>
 VINA RESULT:      -4.9      1.493      2.231
  Name = 
  6 active torsions:
  status: ('A' for Active; 'I' for Inactive)
    1  A    between atoms: C_4  and  O_37
    2  A    between atoms: C_7  and  C_10
    3  A    between atoms: C_10  and  C_23
    4  A    between atoms: C_21  and  C_27
    5  A    between atoms: C_23  and  C_28
    6  A    between atoms: C_23  and  C_30
                            x       y       z     vdW  Elec       q    Type
                         _______ _______ _______ _____ _____    ______ ____

>  <TORSDO>
F 6

$$$$
=
 OpenBabel11122413403D

 37 41  0  0  1  0  0  0  0  0999 V2000
  162.0720  207.5540  149.0550 C   0  0  1  0  0  0  0  0  0  0  0  0
  160.5510  208.8240  152.8130 C   0  0  1  0  0  3  0  0  0  0  0  0
  161.2820  206.7650  151.3930 C   0  0  2  0  0  3  0  0  0  0  0  0
  160.6920  210.3380  152.5560 C   0  0  2  0  0  3  0  0  0  0  0  0
  160.8310  208.2320  151.4360 C   0  0  2  0  0  3  0  0  0  0  0  0
  161.9600  206.3080  152.6850 C   0  0  0  0  0  2  0  0  0  0  0  0
  161.8860  209.1200  150.8290 C   0  0  1  0  0  3  0  0  0  0  0  0
  160.8230  207.1760  148.2790 C   0  0  0  0  0  1  0  0  0  0  0  0
  161.3230  206.9920  153.8870 C   0  0  0  0  0  2  0  0  0  0  0  0
  161.9690  208.9330  149.4280 O   0  0  0  0  0  0  0  0  0  0  0  0
  161.4990  208.3770  153.7580 O   0  0  0  0  0  0  0  0  0  0  0  0
  161.4910  210.5330  151.2550 C   0  0  1  0  0  3  0  0  0  0  0  0
  162.2510  206.5400  150.2200 C   0  0  0  0  0  2  0  0  0  0  0  0
  163.1630  207.4130  148.2000 O   0  0  0  0  0  1  0  0  0  0  0  0
  160.3170  212.5610  150.5760 O   0  0  0  0  0  0  0  0  0  0  0  0
  159.3790  213.0340  149.6460 C   0  0  2  0  0  3  0  0  0  0  0  0
  161.5900  213.7480  148.5220 C   0  0  2  0  0  3  0  0  0  0  0  0
  160.0600  213.8780  148.5580 C   0  0  0  0  0  2  0  0  0  0  0  0
  162.1160  212.3210  148.2660 C   0  0  1  0  0  3  0  0  0  0  0  0
  163.4540  212.1900  148.6400 O   0  0  0  0  0  1  0  0  0  0  0  0
  161.2770  211.1360  148.7730 C   0  0  0  0  0  2  0  0  0  0  0  0
  162.1600  214.3090  149.6700 O   0  0  0  0  0  1  0  0  0  0  0  0
  160.6590  211.2520  150.1840 C   0  0  1  0  0  3  0  0  0  0  0  0
  157.2000  213.3800  149.7560 C   0  0  0  0  0  1  0  0  0  0  0  0
  158.4140  213.8000  150.3000 O   0  0  0  0  0  0  0  0  0  0  0  0
  162.5450  210.7030  154.2630 C   0  0  0  0  0  1  0  0  0  0  0  0
  161.2070  211.2040  153.7250 C   0  0  2  0  0  3  0  0  0  0  0  0
  160.1660  211.3660  154.8470 C   0  0  1  0  0  3  0  0  0  0  0  0
  159.2050  213.4410  153.8250 C   0  0  0  0  0  3  0  0  0  0  0  0
  158.9870  212.1820  154.3970 C   0  0  0  0  0  0  0  0  0  0  0  0
  157.6760  211.7040  154.5430 C   0  0  0  0  0  3  0  0  0  0  0  0
  155.3300  212.0160  154.2570 F   0  0  0  0  0  0  0  0  0  0  0  0
  156.8180  213.7370  153.5440 C   0  0  0  0  0  3  0  0  0  0  0  0
  156.5950  212.4810  154.1160 C   0  0  0  0  0  0  0  0  0  0  0  0
  158.1230  214.2170  153.4000 C   0  0  0  0  0  3  0  0  0  0  0  0
  160.0620  209.8700  156.8480 C   0  0  0  0  0  1  0  0  0  0  0  0
  159.7010  210.0130  155.3820 C   0  0  0  0  0  2  0  0  0  0  0  0
  1  8  1  6  0  0  0
  1 10  1  0  0  0  0
  1 13  1  0  0  0  0
  2 11  1  1  0  0  0
  3 13  1  6  0  0  0
  3  5  1  0  0  0  0
  3  6  1  0  0  0  0
  4  2  1  0  0  0  0
  4 27  1  1  0  0  0
  5  2  1  0  0  0  0
  6  9  1  0  0  0  0
  7 12  1  0  0  0  0
  7  5  1  0  0  0  0
 10  7  1  0  0  0  0
 11  9  1  0  0  0  0
 12  4  1  0  0  0  0
 14  1  1  0  0  0  0
 16 25  1  0  0  0  0
 16 15  1  0  0  0  0
 17 18  1  0  0  0  0
 17 22  1  0  0  0  0
 18 16  1  0  0  0  0
 19 17  1  0  0  0  0
 19 20  1  0  0  0  0
 19 21  1  0  0  0  0
 21 23  1  0  0  0  0
 23 15  1  0  0  0  0
 23 12  1  0  0  0  0
 24 25  1  0  0  0  0
 27 26  1  0  0  0  0
 27 28  1  0  0  0  0
 28 37  1  0  0  0  0
 29 30  1  0  0  0  0
 30 31  2  0  0  0  0
 30 28  1  0  0  0  0
 33 34  2  0  0  0  0
 34 32  1  0  0  0  0
 34 31  1  0  0  0  0
 35 33  1  0  0  0  0
 35 29  2  0  0  0  0
 37 36  1  0  0  0  0
M  END
>  <MODEL>
4

>  <REMARK>
 VINA RESULT:      -4.6      2.657      6.530
  Name = 
  6 active torsions:
  status: ('A' for Active; 'I' for Inactive)
    1  A    between atoms: C_4  and  O_37
    2  A    between atoms: C_7  and  C_10
    3  A    between atoms: C_10  and  C_23
    4  A    between atoms: C_21  and  C_27
    5  A    between atoms: C_23  and  C_28
    6  A    between atoms: C_23  and  C_30
                            x       y       z     vdW  Elec       q    Type
                         _______ _______ _______ _____ _____    ______ ____

>  <TORSDO>
F 6

$$$$
=
 OpenBabel11122413403D

 37 41  0  0  1  0  0  0  0  0999 V2000
  158.1700  210.9240  138.2700 C   0  0  1  0  0  0  0  0  0  0  0  0
  159.4390  213.5640  141.3470 C   0  0  1  0  0  3  0  0  0  0  0  0
  157.6630  213.1550  139.4840 C   0  0  2  0  0  3  0  0  0  0  0  0
  160.5440  212.6510  141.9160 C   0  0  2  0  0  3  0  0  0  0  0  0
  159.0520  212.8440  140.0590 C   0  0  2  0  0  3  0  0  0  0  0  0
  156.6670  213.6270  140.5440 C   0  0  0  0  0  2  0  0  0  0  0  0
  159.1690  211.3760  140.3750 C   0  0  1  0  0  3  0  0  0  0  0  0
  158.8020  211.5110  137.0200 C   0  0  0  0  0  1  0  0  0  0  0  0
  157.3780  214.4530  141.6070 C   0  0  0  0  0  2  0  0  0  0  0  0
  159.2170  210.6000  139.1920 O   0  0  0  0  0  0  0  0  0  0  0  0
  158.3410  213.6460  142.2300 O   0  0  0  0  0  0  0  0  0  0  0  0
  160.4150  211.2690  141.2510 C   0  0  1  0  0  3  0  0  0  0  0  0
  157.0860  211.9140  138.7820 C   0  0  0  0  0  2  0  0  0  0  0  0
  157.5270  209.7430  137.9060 O   0  0  0  0  0  1  0  0  0  0  0  0
  161.3460  210.2940  139.2180 O   0  0  0  0  0  0  0  0  0  0  0  0
  162.5450  209.8100  138.6750 C   0  0  2  0  0  3  0  0  0  0  0  0
  162.4880  212.1960  137.6940 C   0  0  2  0  0  3  0  0  0  0  0  0
  163.1270  210.8000  137.6550 C   0  0  0  0  0  2  0  0  0  0  0  0
  162.6200  212.9340  139.0410 C   0  0  1  0  0  3  0  0  0  0  0  0
  161.7030  213.9800  139.1480 O   0  0  0  0  0  1  0  0  0  0  0  0
  162.6590  212.0950  140.3290 C   0  0  0  0  0  2  0  0  0  0  0  0
  161.1590  212.1420  137.2640 O   0  0  0  0  0  1  0  0  0  0  0  0
  161.6690  210.9140  140.4400 C   0  0  1  0  0  3  0  0  0  0  0  0
  160.9660  208.3190  138.2670 C   0  0  0  0  0  1  0  0  0  0  0  0
  162.3210  208.5780  138.0600 O   0  0  0  0  0  0  0  0  0  0  0  0
  159.5360  211.7900  144.0900 C   0  0  0  0  0  1  0  0  0  0  0  0
  160.6760  212.5810  143.4520 C   0  0  2  0  0  3  0  0  0  0  0  0
  160.8370  213.9680  144.0980 C   0  0  1  0  0  3  0  0  0  0  0  0
  158.9880  214.2250  145.7680 C   0  0  0  0  0  3  0  0  0  0  0  0
  160.3440  213.9810  145.5170 C   0  0  0  0  0  0  0  0  0  0  0  0
  161.2170  213.7530  146.5910 C   0  0  0  0  0  3  0  0  0  0  0  0
  161.5820  213.5470  148.9380 F   0  0  0  0  0  0  0  0  0  0  0  0
  159.3810  214.0120  148.1480 C   0  0  0  0  0  3  0  0  0  0  0  0
  160.7360  213.7680  147.9030 C   0  0  0  0  0  0  0  0  0  0  0  0
  158.5080  214.2420  147.0810 C   0  0  0  0  0  3  0  0  0  0  0  0
  163.2270  213.2840  143.8200 C   0  0  0  0  0  1  0  0  0  0  0  0
  162.2840  214.4530  144.0350 C   0  0  0  0  0  2  0  0  0  0  0  0
  1  8  1  6  0  0  0
  1 13  1  0  0  0  0
  1 10  1  0  0  0  0
  2  4  1  0  0  0  0
  2 11  1  1  0  0  0
  3 13  1  1  0  0  0
  3  5  1  0  0  0  0
  3  6  1  0  0  0  0
  4 27  1  1  0  0  0
  5  7  1  0  0  0  0
  5  2  1  0  0  0  0
  6  9  1  0  0  0  0
  7 12  1  0  0  0  0
  9 11  1  0  0  0  0
 10  7  1  0  0  0  0
 12  4  1  0  0  0  0
 14  1  1  0  0  0  0
 15 23  1  0  0  0  0
 16 15  1  0  0  0  0
 17 19  1  0  0  0  0
 18 17  1  0  0  0  0
 18 16  1  0  0  0  0
 19 20  1  0  0  0  0
 19 21  1  0  0  0  0
 21 23  1  0  0  0  0
 22 17  1  0  0  0  0
 23 12  1  0  0  0  0
 25 24  1  0  0  0  0
 25 16  1  0  0  0  0
 27 26  1  0  0  0  0
 27 28  1  0  0  0  0
 28 30  1  0  0  0  0
 29 35  1  0  0  0  0
 30 29  2  0  0  0  0
 30 31  1  0  0  0  0
 31 34  2  0  0  0  0
 34 33  1  0  0  0  0
 34 32  1  0  0  0  0
 35 33  2  0  0  0  0
 36 37  1  0  0  0  0
 37 28  1  0  0  0  0
M  END
>  <MODEL>
5

>  <REMARK>
 VINA RESULT:      -3.8      8.258     13.265
  Name = 
  6 active torsions:
  status: ('A' for Active; 'I' for Inactive)
    1  A    between atoms: C_4  and  O_37
    2  A    between atoms: C_7  and  C_10
    3  A    between atoms: C_10  and  C_23
    4  A    between atoms: C_21  and  C_27
    5  A    between atoms: C_23  and  C_28
    6  A    between atoms: C_23  and  C_30
                            x       y       z     vdW  Elec       q    Type
                         _______ _______ _______ _____ _____    ______ ____

>  <TORSDO>
F 6

$$$$
=
 OpenBabel11122413403D

 37 41  0  0  1  0  0  0  0  0999 V2000
  159.8740  210.5450  155.2660 C   0  0  1  0  0  0  0  0  0  0  0  0
  161.8070  207.8690  152.5910 C   0  0  1  0  0  3  0  0  0  0  0  0
  161.1220  208.2830  155.0700 C   0  0  2  0  0  3  0  0  0  0  0  0
  161.4360  208.6200  151.2950 C   0  0  2  0  0  3  0  0  0  0  0  0
  161.3860  208.8590  153.6720 C   0  0  2  0  0  3  0  0  0  0  0  0
  160.7230  206.8070  155.0460 C   0  0  0  0  0  2  0  0  0  0  0  0
  160.1440  209.5250  153.1390 C   0  0  1  0  0  3  0  0  0  0  0  0
  161.0200  211.3620  155.8350 C   0  0  0  0  0  1  0  0  0  0  0  0
  161.4540  206.0810  153.9250 C   0  0  0  0  0  2  0  0  0  0  0  0
  159.8610  210.7200  153.8440 O   0  0  0  0  0  0  0  0  0  0  0  0
  161.0870  206.6620  152.7030 O   0  0  0  0  0  0  0  0  0  0  0  0
  160.4210  209.7210  151.6500 C   0  0  1  0  0  3  0  0  0  0  0  0
  160.0140  209.0830  155.7760 C   0  0  0  0  0  2  0  0  0  0  0  0
  158.6870  211.0610  155.7800 O   0  0  0  0  0  1  0  0  0  0  0  0
  160.8470  211.4420  149.9750 O   0  0  0  0  0  0  0  0  0  0  0  0
  161.5800  212.6200  149.7640 C   0  0  2  0  0  3  0  0  0  0  0  0
  159.2720  213.5840  150.3980 C   0  0  2  0  0  3  0  0  0  0  0  0
  160.6670  213.8540  149.8150 C   0  0  0  0  0  2  0  0  0  0  0  0
  159.2640  213.0580  151.8480 C   0  0  1  0  0  3  0  0  0  0  0  0
  158.0450  212.4620  152.1720 O   0  0  0  0  0  1  0  0  0  0  0  0
  160.4470  212.1960  152.3150 C   0  0  0  0  0  2  0  0  0  0  0  0
  158.5330  212.7580  149.5460 O   0  0  0  0  0  1  0  0  0  0  0  0
  160.9730  211.1190  151.3390 C   0  0  1  0  0  3  0  0  0  0  0  0
  162.0140  213.8160  147.9580 C   0  0  0  0  0  1  0  0  0  0  0  0
  162.2220  212.5600  148.5270 O   0  0  0  0  0  0  0  0  0  0  0  0
  160.0810  206.6220  150.4880 C   0  0  0  0  0  1  0  0  0  0  0  0
  161.0110  207.7630  150.0840 C   0  0  2  0  0  3  0  0  0  0  0  0
  162.2110  207.2570  149.2640 C   0  0  1  0  0  3  0  0  0  0  0  0
  161.9660  204.8950  148.4650 C   0  0  0  0  0  3  0  0  0  0  0  0
  161.7900  206.2620  148.2190 C   0  0  0  0  0  0  0  0  0  0  0  0
  161.2250  206.6810  147.0050 C   0  0  0  0  0  3  0  0  0  0  0  0
  160.2930  206.1460  144.8770 F   0  0  0  0  0  0  0  0  0  0  0  0
  161.0170  204.3740  146.2990 C   0  0  0  0  0  3  0  0  0  0  0  0
  160.8390  205.7380  146.0480 C   0  0  0  0  0  0  0  0  0  0  0  0
  161.5810  203.9530  147.5070 C   0  0  0  0  0  3  0  0  0  0  0  0
  162.0220  209.4870  148.1470 C   0  0  0  0  0  1  0  0  0  0  0  0
  162.9790  208.4090  148.6210 C   0  0  0  0  0  2  0  0  0  0  0  0
  1 13  1  0  0  0  0
  1 14  1  0  0  0  0
  1  8  1  1  0  0  0
  2 11  1  1  0  0  0
  2  5  1  0  0  0  0
  3  6  1  6  0  0  0
  3 13  1  0  0  0  0
  4 27  1  6  0  0  0
  4 12  1  0  0  0  0
  4  2  1  0  0  0  0
  5  3  1  0  0  0  0
  7  5  1  0  0  0  0
  7 10  1  0  0  0  0
  9  6  1  0  0  0  0
 10  1  1  0  0  0  0
 11  9  1  0  0  0  0
 12  7  1  0  0  0  0
 15 23  1  0  0  0  0
 16 18  1  0  0  0  0
 16 15  1  0  0  0  0
 17 19  1  0  0  0  0
 18 17  1  0  0  0  0
 19 20  1  0  0  0  0
 19 21  1  0  0  0  0
 22 17  1  0  0  0  0
 23 12  1  0  0  0  0
 23 21  1  0  0  0  0
 24 25  1  0  0  0  0
 25 16  1  0  0  0  0
 27 26  1  0  0  0  0
 28 27  1  0  0  0  0
 30 29  1  0  0  0  0
 30 28  1  0  0  0  0
 31 30  2  0  0  0  0
 32 34  1  0  0  0  0
 33 35  1  0  0  0  0
 34 33  2  0  0  0  0
 34 31  1  0  0  0  0
 35 29  2  0  0  0  0
 36 37  1  0  0  0  0
 37 28  1  0  0  0  0
M  END
>  <MODEL>
6

>  <REMARK>
 VINA RESULT:      -3.8      2.192      3.091
  Name = 
  6 active torsions:
  status: ('A' for Active; 'I' for Inactive)
    1  A    between atoms: C_4  and  O_37
    2  A    between atoms: C_7  and  C_10
    3  A    between atoms: C_10  and  C_23
    4  A    between atoms: C_21  and  C_27
    5  A    between atoms: C_23  and  C_28
    6  A    between atoms: C_23  and  C_30
                            x       y       z     vdW  Elec       q    Type
                         _______ _______ _______ _____ _____    ______ ____

>  <TORSDO>
F 6

$$$$
=
 OpenBabel11122413403D

 37 41  0  0  1  0  0  0  0  0999 V2000
  162.3930  211.7160  148.8720 C   0  0  1  0  0  0  0  0  0  0  0  0
  161.0220  207.9550  150.2980 C   0  0  1  0  0  3  0  0  0  0  0  0
  161.5810  209.3570  148.1730 C   0  0  2  0  0  3  0  0  0  0  0  0
  161.2700  208.2360  151.7940 C   0  0  2  0  0  3  0  0  0  0  0  0
  161.2390  209.3280  149.6690 C   0  0  2  0  0  3  0  0  0  0  0  0
  162.2430  208.0680  147.6840 C   0  0  0  0  0  2  0  0  0  0  0  0
  162.3470  209.9620  150.4700 C   0  0  1  0  0  3  0  0  0  0  0  0
  161.1090  212.4700  148.5760 C   0  0  0  0  0  1  0  0  0  0  0  0
  161.6740  206.8670  148.4280 C   0  0  0  0  0  2  0  0  0  0  0  0
  162.3960  211.3600  150.2590 O   0  0  0  0  0  0  0  0  0  0  0  0
  161.9480  207.0180  149.7950 O   0  0  0  0  0  0  0  0  0  0  0  0
  162.0620  209.5500  151.9130 C   0  0  1  0  0  3  0  0  0  0  0  0
  162.5140  210.5390  147.8620 C   0  0  0  0  0  2  0  0  0  0  0  0
  163.4590  212.5840  148.6410 O   0  0  0  0  0  1  0  0  0  0  0  0
  159.8950  210.3180  152.7290 O   0  0  0  0  0  0  0  0  0  0  0  0
  159.2460  211.4540  153.2360 C   0  0  2  0  0  3  0  0  0  0  0  0
  159.7960  210.1870  155.4160 C   0  0  2  0  0  3  0  0  0  0  0  0
  159.0070  211.3230  154.7470 C   0  0  0  0  0  2  0  0  0  0  0  0
  161.3280  210.2990  155.2930 C   0  0  1  0  0  3  0  0  0  0  0  0
  161.9560  209.0790  155.5470 O   0  0  0  0  0  1  0  0  0  0  0  0
  161.9090  210.9730  154.0390 C   0  0  0  0  0  2  0  0  0  0  0  0
  159.3320  208.9420  154.9790 O   0  0  0  0  0  1  0  0  0  0  0  0
  161.2690  210.6190  152.6780 C   0  0  1  0  0  3  0  0  0  0  0  0
  158.2070  212.7730  151.7990 C   0  0  0  0  0  1  0  0  0  0  0  0
  158.0270  211.6320  152.5810 O   0  0  0  0  0  0  0  0  0  0  0  0
  163.0650  206.4380  151.9530 C   0  0  0  0  0  1  0  0  0  0  0  0
  161.8620  207.0850  152.6350 C   0  0  2  0  0  3  0  0  0  0  0  0
  160.8080  206.0410  153.0400 C   0  0  1  0  0  3  0  0  0  0  0  0
  161.2060  203.5840  152.7610 C   0  0  0  0  0  3  0  0  0  0  0  0
  160.8810  204.8140  152.1760 C   0  0  0  0  0  0  0  0  0  0  0  0
  160.6290  204.8810  150.7970 C   0  0  0  0  0  3  0  0  0  0  0  0
  160.4570  203.7940  148.6830 F   0  0  0  0  0  0  0  0  0  0  0  0
  161.0270  202.5000  150.6030 C   0  0  0  0  0  3  0  0  0  0  0  0
  160.7010  203.7260  150.0140 C   0  0  0  0  0  0  0  0  0  0  0  0
  161.2800  202.4290  151.9750 C   0  0  0  0  0  3  0  0  0  0  0  0
  160.0800  206.5780  155.3720 C   0  0  0  0  0  1  0  0  0  0  0  0
  160.9310  205.6600  154.5140 C   0  0  0  0  0  2  0  0  0  0  0  0
  1  8  1  6  0  0  0
  1 10  1  0  0  0  0
  2 11  1  6  0  0  0
  2  4  1  0  0  0  0
  3  6  1  1  0  0  0
  3  5  1  0  0  0  0
  4 12  1  0  0  0  0
  4 27  1  6  0  0  0
  5  2  1  0  0  0  0
  5  7  1  0  0  0  0
  6  9  1  0  0  0  0
  7 12  1  0  0  0  0
  9 11  1  0  0  0  0
 10  7  1  0  0  0  0
 12 23  1  0  0  0  0
 13  3  1  0  0  0  0
 13  1  1  0  0  0  0
 14  1  1  0  0  0  0
 15 16  1  0  0  0  0
 16 18  1  0  0  0  0
 18 17  1  0  0  0  0
 19 17  1  0  0  0  0
 19 20  1  0  0  0  0
 21 19  1  0  0  0  0
 22 17  1  0  0  0  0
 23 15  1  0  0  0  0
 23 21  1  0  0  0  0
 24 25  1  0  0  0  0
 25 16  1  0  0  0  0
 26 27  1  0  0  0  0
 27 28  1  0  0  0  0
 28 37  1  0  0  0  0
 30 29  1  0  0  0  0
 30 28  1  0  0  0  0
 31 30  2  0  0  0  0
 32 34  1  0  0  0  0
 33 35  1  0  0  0  0
 34 33  2  0  0  0  0
 34 31  1  0  0  0  0
 35 29  2  0  0  0  0
 37 36  1  0  0  0  0
M  END
>  <MODEL>
7

>  <REMARK>
 VINA RESULT:      -3.8      2.036      5.744
  Name = 
  6 active torsions:
  status: ('A' for Active; 'I' for Inactive)
    1  A    between atoms: C_4  and  O_37
    2  A    between atoms: C_7  and  C_10
    3  A    between atoms: C_10  and  C_23
    4  A    between atoms: C_21  and  C_27
    5  A    between atoms: C_23  and  C_28
    6  A    between atoms: C_23  and  C_30
                            x       y       z     vdW  Elec       q    Type
                         _______ _______ _______ _____ _____    ______ ____

>  <TORSDO>
F 6

$$$$
=
 OpenBabel11122413403D

 37 41  0  0  1  0  0  0  0  0999 V2000
  153.7370  212.6850  139.6000 C   0  0  1  0  0  0  0  0  0  0  0  0
  156.8890  209.8630  139.2140 C   0  0  1  0  0  3  0  0  0  0  0  0
  154.3380  210.1660  139.6490 C   0  0  2  0  0  3  0  0  0  0  0  0
  157.9720  210.8710  138.7730 C   0  0  2  0  0  3  0  0  0  0  0  0
  155.7450  210.7790  139.6360 C   0  0  2  0  0  3  0  0  0  0  0  0
  154.1910  208.9830  138.6910 C   0  0  0  0  0  2  0  0  0  0  0  0
  155.7970  211.9460  138.6840 C   0  0  1  0  0  3  0  0  0  0  0  0
  153.6390  212.9010  141.1000 C   0  0  0  0  0  1  0  0  0  0  0  0
  155.4890  208.1910  138.6260 C   0  0  0  0  0  2  0  0  0  0  0  0
  155.0580  213.0460  139.1800 O   0  0  0  0  0  0  0  0  0  0  0  0
  156.5020  209.0320  138.1420 O   0  0  0  0  0  0  0  0  0  0  0  0
  157.2880  212.2210  138.4940 C   0  0  1  0  0  3  0  0  0  0  0  0
  153.2890  211.2300  139.2840 C   0  0  0  0  0  2  0  0  0  0  0  0
  152.8320  213.5490  138.9860 O   0  0  0  0  0  1  0  0  0  0  0  0
  158.3570  212.7840  140.6140 O   0  0  0  0  0  0  0  0  0  0  0  0
  158.5760  213.8600  141.4870 C   0  0  2  0  0  3  0  0  0  0  0  0
  160.8080  213.8140  140.1920 C   0  0  2  0  0  3  0  0  0  0  0  0
  160.0290  214.3500  141.4030 C   0  0  0  0  0  2  0  0  0  0  0  0
  160.2120  214.1850  138.8190 C   0  0  1  0  0  3  0  0  0  0  0  0
  160.7020  213.3620  137.8050 O   0  0  0  0  0  1  0  0  0  0  0  0
  158.6880  214.3560  138.7100 C   0  0  0  0  0  2  0  0  0  0  0  0
  161.0130  212.4360  140.3090 O   0  0  0  0  0  1  0  0  0  0  0  0
  157.8020  213.3190  139.4350 C   0  0  1  0  0  3  0  0  0  0  0  0
  158.8720  214.4510  143.5950 C   0  0  0  0  0  1  0  0  0  0  0  0
  158.2860  213.4710  142.7950 O   0  0  0  0  0  0  0  0  0  0  0  0
  158.5700  209.0450  137.1040 C   0  0  0  0  0  1  0  0  0  0  0  0
  158.9290  210.4250  137.6480 C   0  0  2  0  0  3  0  0  0  0  0  0
  160.4090  210.5070  138.0610 C   0  0  1  0  0  3  0  0  0  0  0  0
  161.4280  208.3620  137.2630 C   0  0  0  0  0  3  0  0  0  0  0  0
  160.9860  209.1460  138.3350 C   0  0  0  0  0  0  0  0  0  0  0  0
  161.0870  208.6510  139.6440 C   0  0  0  0  0  3  0  0  0  0  0  0
  161.7250  206.9090  141.1410 F   0  0  0  0  0  0  0  0  0  0  0  0
  162.0680  206.6040  138.8010 C   0  0  0  0  0  3  0  0  0  0  0  0
  161.6280  207.3830  139.8750 C   0  0  0  0  0  0  0  0  0  0  0  0
  161.9670  207.0930  137.4950 C   0  0  0  0  0  3  0  0  0  0  0  0
  162.7170  211.1890  137.3800 C   0  0  0  0  0  1  0  0  0  0  0  0
  161.2460  211.2360  137.0120 C   0  0  0  0  0  2  0  0  0  0  0  0
  1  8  1  1  0  0  0
  2 11  1  6  0  0  0
  2  5  1  0  0  0  0
  3  6  1  6  0  0  0
  4 27  1  6  0  0  0
  4  2  1  0  0  0  0
  5  3  1  0  0  0  0
  7 10  1  0  0  0  0
  7  5  1  0  0  0  0
  9  6  1  0  0  0  0
 10  1  1  0  0  0  0
 11  9  1  0  0  0  0
 12  7  1  0  0  0  0
 12  4  1  0  0  0  0
 12 23  1  0  0  0  0
 13  1  1  0  0  0  0
 13  3  1  0  0  0  0
 14  1  1  0  0  0  0
 15 16  1  0  0  0  0
 16 25  1  0  0  0  0
 17 22  1  0  0  0  0
 17 18  1  0  0  0  0
 18 16  1  0  0  0  0
 19 17  1  0  0  0  0
 20 19  1  0  0  0  0
 21 19  1  0  0  0  0
 21 23  1  0  0  0  0
 23 15  1  0  0  0  0
 25 24  1  0  0  0  0
 26 27  1  0  0  0  0
 27 28  1  0  0  0  0
 28 30  1  0  0  0  0
 29 35  2  0  0  0  0
 29 30  1  0  0  0  0
 30 31  2  0  0  0  0
 31 34  1  0  0  0  0
 33 34  2  0  0  0  0
 34 32  1  0  0  0  0
 35 33  1  0  0  0  0
 37 36  1  0  0  0  0
 37 28  1  0  0  0  0
M  END
>  <MODEL>
8

>  <REMARK>
 VINA RESULT:      -3.7     10.731     14.276
  Name = 
  6 active torsions:
  status: ('A' for Active; 'I' for Inactive)
    1  A    between atoms: C_4  and  O_37
    2  A    between atoms: C_7  and  C_10
    3  A    between atoms: C_10  and  C_23
    4  A    between atoms: C_21  and  C_27
    5  A    between atoms: C_23  and  C_28
    6  A    between atoms: C_23  and  C_30
                            x       y       z     vdW  Elec       q    Type
                         _______ _______ _______ _____ _____    ______ ____

>  <TORSDO>
F 6

$$$$
=
 OpenBabel11122413403D

 37 41  0  0  1  0  0  0  0  0999 V2000
  162.0900  207.2960  148.0960 C   0  0  1  0  0  0  0  0  0  0  0  0
  160.5650  208.5090  151.8720 C   0  0  1  0  0  3  0  0  0  0  0  0
  161.2090  206.4670  150.3860 C   0  0  2  0  0  3  0  0  0  0  0  0
  160.7970  210.0210  151.6760 C   0  0  2  0  0  3  0  0  0  0  0  0
  160.8400  207.9540  150.4780 C   0  0  2  0  0  3  0  0  0  0  0  0
  161.8340  205.9240  151.6720 C   0  0  0  0  0  2  0  0  0  0  0  0
  161.9550  208.8030  149.9250 C   0  0  1  0  0  3  0  0  0  0  0  0
  160.8380  207.0190  147.2830 C   0  0  0  0  0  1  0  0  0  0  0  0
  161.2120  206.5970  152.8880 C   0  0  0  0  0  2  0  0  0  0  0  0
  162.0570  208.6640  148.5200 O   0  0  0  0  0  0  0  0  0  0  0  0
  161.4670  207.9740  152.8150 O   0  0  0  0  0  0  0  0  0  0  0  0
  161.6320  210.2190  150.3980 C   0  0  1  0  0  3  0  0  0  0  0  0
  162.1880  206.2300  149.2240 C   0  0  0  0  0  2  0  0  0  0  0  0
  163.1880  207.1260  147.2560 O   0  0  0  0  0  1  0  0  0  0  0  0
  160.4340  212.2690  149.8390 O   0  0  0  0  0  0  0  0  0  0  0  0
  159.5590  212.8110  148.8860 C   0  0  2  0  0  3  0  0  0  0  0  0
  161.8250  213.7180  148.0460 C   0  0  2  0  0  3  0  0  0  0  0  0
  160.2930  213.7920  147.9590 C   0  0  0  0  0  2  0  0  0  0  0  0
  162.4300  212.3460  147.6860 C   0  0  1  0  0  3  0  0  0  0  0  0
  163.7360  212.2190  148.1610 O   0  0  0  0  0  1  0  0  0  0  0  0
  161.6040  211.0850  147.9860 C   0  0  0  0  0  2  0  0  0  0  0  0
  162.2700  214.1670  149.2930 O   0  0  0  0  0  1  0  0  0  0  0  0
  160.8630  211.0240  149.3410 C   0  0  1  0  0  3  0  0  0  0  0  0
  157.3550  212.9650  148.9280 C   0  0  0  0  0  1  0  0  0  0  0  0
  158.5090  213.4670  149.5290 O   0  0  0  0  0  0  0  0  0  0  0  0
  162.7150  210.3250  153.3210 C   0  0  0  0  0  1  0  0  0  0  0  0
  161.3350  210.8120  152.8870 C   0  0  2  0  0  3  0  0  0  0  0  0
  160.3450  210.8420  154.0640 C   0  0  1  0  0  3  0  0  0  0  0  0
  161.9220  210.2370  155.9140 C   0  0  0  0  0  3  0  0  0  0  0  0
  160.7750  209.9250  155.1750 C   0  0  0  0  0  0  0  0  0  0  0  0
  160.0470  208.7650  155.4810 C   0  0  0  0  0  3  0  0  0  0  0  0
  159.7600  206.8080  156.8120 F   0  0  0  0  0  0  0  0  0  0  0  0
  161.6120  208.2440  157.2550 C   0  0  0  0  0  3  0  0  0  0  0  0
  160.4650  207.9280  156.5190 C   0  0  0  0  0  0  0  0  0  0  0  0
  162.3400  209.3980  156.9520 C   0  0  0  0  0  3  0  0  0  0  0  0
  159.3370  213.0850  153.6110 C   0  0  0  0  0  1  0  0  0  0  0  0
  160.1450  212.2590  154.5950 C   0  0  0  0  0  2  0  0  0  0  0  0
  1  8  1  6  0  0  0
  1 10  1  0  0  0  0
  1 13  1  0  0  0  0
  2 11  1  1  0  0  0
  3 13  1  6  0  0  0
  3  5  1  0  0  0  0
  3  6  1  0  0  0  0
  4  2  1  0  0  0  0
  4 27  1  1  0  0  0
  5  2  1  0  0  0  0
  6  9  1  0  0  0  0
  7 12  1  0  0  0  0
  7  5  1  0  0  0  0
 10  7  1  0  0  0  0
 11  9  1  0  0  0  0
 12  4  1  0  0  0  0
 14  1  1  0  0  0  0
 16 25  1  0  0  0  0
 16 15  1  0  0  0  0
 17 22  1  0  0  0  0
 18 17  1  0  0  0  0
 18 16  1  0  0  0  0
 19 21  1  0  0  0  0
 19 17  1  0  0  0  0
 19 20  1  0  0  0  0
 21 23  1  0  0  0  0
 23 15  1  0  0  0  0
 23 12  1  0  0  0  0
 24 25  1  0  0  0  0
 27 26  1  0  0  0  0
 27 28  1  0  0  0  0
 28 37  1  0  0  0  0
 28 30  1  0  0  0  0
 29 35  1  0  0  0  0
 30 31  1  0  0  0  0
 30 29  2  0  0  0  0
 31 34  2  0  0  0  0
 34 32  1  0  0  0  0
 34 33  1  0  0  0  0
 35 33  2  0  0  0  0
 36 37  1  0  0  0  0
M  END
>  <MODEL>
9

>  <REMARK>
 VINA RESULT:      -3.7      2.397      6.309
  Name = 
  6 active torsions:
  status: ('A' for Active; 'I' for Inactive)
    1  A    between atoms: C_4  and  O_37
    2  A    between atoms: C_7  and  C_10
    3  A    between atoms: C_10  and  C_23
    4  A    between atoms: C_21  and  C_27
    5  A    between atoms: C_23  and  C_28
    6  A    between atoms: C_23  and  C_30
                            x       y       z     vdW  Elec       q    Type
                         _______ _______ _______ _____ _____    ______ ____

>  <TORSDO>
F 6

$$$$
