=
 OpenBabel11122413123D

 31 35  0  0  1  0  0  0  0  0999 V2000
  161.1390  205.3560  145.4760 C   0  0  0  0  0  0  0  0  0  0  0  0
  160.3760  204.7770  149.1550 C   0  0  2  0  0  3  0  0  0  0  0  0
  160.7700  203.3390  149.4640 C   0  0  0  0  0  0  0  0  0  0  0  0
  161.3410  201.0880  148.7390 C   0  0  0  0  0  0  0  0  0  0  0  0
  161.0300  205.3100  147.9010 C   0  0  0  0  0  0  0  0  0  0  0  0
  162.2700  206.1730  145.5380 C   0  0  0  0  0  3  0  0  0  0  0  0
  161.0080  202.4110  148.4380 C   0  0  0  0  0  3  0  0  0  0  0  0
  162.1480  205.9620  150.4930 C   0  0  2  0  0  3  0  0  0  0  0  0
  160.5970  204.9390  144.1570 C   0  0  0  0  0  1  0  0  0  0  0  0
  160.5610  203.7920  151.8490 O   0  0  0  0  0  0  0  0  0  0  0  0
  161.5880  200.1850  147.7150 O   0  0  0  0  0  1  0  0  0  0  0  0
  162.6770  206.6980  149.2610 C   0  0  0  0  0  2  0  0  0  0  0  0
  160.6370  205.7120  150.3520 C   0  0  2  0  0  3  0  0  0  0  0  0
  160.5210  204.9270  146.6520 C   0  0  0  0  0  3  0  0  0  0  0  0
  161.4260  200.6750  150.0700 C   0  0  0  0  0  3  0  0  0  0  0  0
  162.1730  206.1380  147.9620 C   0  0  0  0  0  0  0  0  0  0  0  0
  162.7790  206.5700  146.7780 C   0  0  0  0  0  3  0  0  0  0  0  0
  160.0270  205.0950  151.6140 C   0  0  0  0  0  2  0  0  0  0  0  0
  160.8240  202.9030  150.8040 C   0  0  0  0  0  0  0  0  0  0  0  0
  161.1660  201.5810  151.1000 C   0  0  0  0  0  3  0  0  0  0  0  0
  162.4780  206.7700  151.7420 C   0  0  0  0  0  2  0  0  0  0  0  0
  161.5070  208.6680  150.6930 O   0  0  0  0  0  0  0  0  0  0  0  0
  161.6680  208.0270  151.7660 C   0  0  0  0  0  0  0  0  0  0  0  0
  161.3950  209.9480  155.3970 C   0  0  1  0  0  3  0  0  0  0  0  0
  160.8370  209.8790  153.0750 O   0  0  0  0  0  0  0  0  0  0  0  0
  160.7570  206.5470  154.1500 O   0  0  0  0  0  0  0  0  0  0  0  0
  162.3630  210.5350  156.4020 C   0  0  0  0  0  1  0  0  0  0  0  0
  161.7530  210.4330  153.9870 C   0  0  0  0  0  2  0  0  0  0  0  0
  161.0570  207.7690  154.1940 C   0  0  0  0  0  0  0  0  0  0  0  0
  161.1490  208.5560  152.9960 N   0  0  0  0  0  0  0  0  0  0  0  0
  161.4130  208.4160  155.4980 C   0  0  0  0  0  2  0  0  0  0  0  0
  1  6  2  0  0  0  0
  1 14  1  0  0  0  0
  2  5  1  6  0  0  0
  2  3  1  0  0  0  0
  2 13  1  0  0  0  0
  3 19  1  0  0  0  0
  4 15  2  0  0  0  0
  5 16  1  0  0  0  0
  6 17  1  0  0  0  0
  7  4  1  0  0  0  0
  7  3  2  0  0  0  0
  8 21  1  1  0  0  0
  9  1  1  0  0  0  0
 11  4  1  0  0  0  0
 12  8  1  0  0  0  0
 13  8  1  0  0  0  0
 13 18  1  1  0  0  0
 14  5  2  0  0  0  0
 15 20  1  0  0  0  0
 16 12  1  0  0  0  0
 17 16  2  0  0  0  0
 18 10  1  0  0  0  0
 19 20  2  0  0  0  0
 19 10  1  0  0  0  0
 21 23  1  0  0  0  0
 22 23  2  0  0  0  0
 23 30  1  0  0  0  0
 24 31  1  0  0  0  0
 24 27  1  1  0  0  0
 25 28  1  0  0  0  0
 26 29  2  0  0  0  0
 28 24  1  0  0  0  0
 29 31  1  0  0  0  0
 30 25  1  0  0  0  0
 30 29  1  0  0  0  0
M  END
>  <MODEL>
1

>  <REMARK>
 VINA RESULT:      -7.3      0.000      0.000
  Name = 
  2 active torsions:
  status: ('A' for Active; 'I' for Inactive)
    1  A    between atoms: C_5  and  C_16
    2  A    between atoms: C_10  and  C_16
                            x       y       z     vdW  Elec       q    Type
                         _______ _______ _______ _____ _____    ______ ____

>  <TORSDO>
F 2

$$$$
=
 OpenBabel11122413123D

 31 35  0  0  1  0  0  0  0  0999 V2000
  160.8140  201.5660  148.7940 C   0  0  0  0  0  0  0  0  0  0  0  0
  162.3330  204.8350  150.0000 C   0  0  2  0  0  3  0  0  0  0  0  0
  161.8350  205.9240  149.0600 C   0  0  0  0  0  0  0  0  0  0  0  0
  160.8160  206.6210  146.9640 C   0  0  0  0  0  0  0  0  0  0  0  0
  161.4810  203.5880  149.9600 C   0  0  0  0  0  0  0  0  0  0  0  0
  159.8480  201.3160  149.7710 C   0  0  0  0  0  3  0  0  0  0  0  0
  161.2420  205.6090  147.8270 C   0  0  0  0  0  3  0  0  0  0  0  0
  161.0980  205.5230  152.0810 C   0  0  2  0  0  3  0  0  0  0  0  0
  160.9720  200.6310  147.6490 C   0  0  0  0  0  1  0  0  0  0  0  0
  162.6560  207.6280  150.5970 O   0  0  0  0  0  0  0  0  0  0  0  0
  160.2190  206.2950  145.7540 O   0  0  0  0  0  1  0  0  0  0  0  0
  160.3980  204.1680  152.1920 C   0  0  0  0  0  2  0  0  0  0  0  0
  162.4860  205.3510  151.4450 C   0  0  2  0  0  3  0  0  0  0  0  0
  161.6270  202.6960  148.8890 C   0  0  0  0  0  3  0  0  0  0  0  0
  160.9910  207.9600  147.3180 C   0  0  0  0  0  3  0  0  0  0  0  0
  160.5050  203.3320  150.9490 C   0  0  0  0  0  0  0  0  0  0  0  0
  159.7010  202.1920  150.8490 C   0  0  0  0  0  3  0  0  0  0  0  0
  163.2870  206.6560  151.4290 C   0  0  0  0  0  2  0  0  0  0  0  0
  162.0390  207.2800  149.3930 C   0  0  0  0  0  0  0  0  0  0  0  0
  161.6030  208.2880  148.5290 C   0  0  0  0  0  3  0  0  0  0  0  0
  161.1790  206.1610  153.4640 C   0  0  0  0  0  2  0  0  0  0  0  0
  160.3410  208.0500  152.2920 O   0  0  0  0  0  0  0  0  0  0  0  0
  160.6840  207.5700  153.4050 C   0  0  0  0  0  0  0  0  0  0  0  0
  161.9040  210.0560  156.4530 C   0  0  1  0  0  3  0  0  0  0  0  0
  160.6740  209.7600  154.4260 O   0  0  0  0  0  0  0  0  0  0  0  0
  160.2500  206.7780  156.2140 O   0  0  0  0  0  0  0  0  0  0  0  0
  163.2260  210.5280  157.0200 C   0  0  0  0  0  1  0  0  0  0  0  0
  161.9130  210.1980  154.9260 C   0  0  0  0  0  2  0  0  0  0  0  0
  160.7900  207.8730  155.9020 C   0  0  0  0  0  0  0  0  0  0  0  0
  160.6750  208.4060  154.5730 N   0  0  0  0  0  0  0  0  0  0  0  0
  161.6420  208.6070  156.8910 C   0  0  0  0  0  2  0  0  0  0  0  0
  1 14  2  0  0  0  0
  1  6  1  0  0  0  0
  2  3  1  6  0  0  0
  2 13  1  0  0  0  0
  3 19  1  0  0  0  0
  4 15  2  0  0  0  0
  4  7  1  0  0  0  0
  5  2  1  0  0  0  0
  5 16  2  0  0  0  0
  6 17  2  0  0  0  0
  7  3  2  0  0  0  0
  8 12  1  0  0  0  0
  8 21  1  1  0  0  0
  9  1  1  0  0  0  0
 10 18  1  0  0  0  0
 11  4  1  0  0  0  0
 13 18  1  6  0  0  0
 13  8  1  0  0  0  0
 14  5  1  0  0  0  0
 15 20  1  0  0  0  0
 16 12  1  0  0  0  0
 17 16  1  0  0  0  0
 19 10  1  0  0  0  0
 20 19  2  0  0  0  0
 22 23  2  0  0  0  0
 23 21  1  0  0  0  0
 23 30  1  0  0  0  0
 24 31  1  0  0  0  0
 24 27  1  6  0  0  0
 25 30  1  0  0  0  0
 25 28  1  0  0  0  0
 28 24  1  0  0  0  0
 29 26  2  0  0  0  0
 29 31  1  0  0  0  0
 30 29  1  0  0  0  0
M  END
>  <MODEL>
2

>  <REMARK>
 VINA RESULT:      -6.9      2.011      4.080
  Name = 
  2 active torsions:
  status: ('A' for Active; 'I' for Inactive)
    1  A    between atoms: C_5  and  C_16
    2  A    between atoms: C_10  and  C_16
                            x       y       z     vdW  Elec       q    Type
                         _______ _______ _______ _____ _____    ______ ____

>  <TORSDO>
F 2

$$$$
=
 OpenBabel11122413123D

 31 35  0  0  1  0  0  0  0  0999 V2000
  160.5560  207.7040  156.2300 C   0  0  0  0  0  0  0  0  0  0  0  0
  161.8950  208.9010  152.8790 C   0  0  2  0  0  3  0  0  0  0  0  0
  161.4710  207.8690  151.8430 C   0  0  0  0  0  0  0  0  0  0  0  0
  160.6470  205.6560  151.2600 C   0  0  0  0  0  0  0  0  0  0  0  0
  161.0720  208.8360  154.1450 C   0  0  0  0  0  0  0  0  0  0  0  0
  159.5050  208.5950  156.4580 C   0  0  0  0  0  3  0  0  0  0  0  0
  161.0060  206.6010  152.2240 C   0  0  0  0  0  3  0  0  0  0  0  0
  160.4530  210.8210  152.1280 C   0  0  2  0  0  3  0  0  0  0  0  0
  160.8400  206.6240  157.2100 C   0  0  0  0  0  1  0  0  0  0  0  0
  162.1100  209.3980  150.0560 O   0  0  0  0  0  0  0  0  0  0  0  0
  160.1750  204.4110  151.6510 O   0  0  0  0  0  1  0  0  0  0  0  0
  159.7690  210.9260  153.4920 C   0  0  0  0  0  2  0  0  0  0  0  0
  161.8990  210.3290  152.2980 C   0  0  2  0  0  3  0  0  0  0  0  0
  161.3370  207.8250  155.0790 C   0  0  0  0  0  3  0  0  0  0  0  0
  160.7640  205.9640  149.9030 C   0  0  0  0  0  3  0  0  0  0  0  0
  160.0100  209.7380  154.3790 C   0  0  0  0  0  0  0  0  0  0  0  0
  159.2400  209.6140  155.5390 C   0  0  0  0  0  3  0  0  0  0  0  0
  162.6750  210.3300  150.9770 C   0  0  0  0  0  2  0  0  0  0  0  0
  161.6190  208.1580  150.4700 C   0  0  0  0  0  0  0  0  0  0  0  0
  161.2510  207.2120  149.5100 C   0  0  0  0  0  3  0  0  0  0  0  0
  160.3900  212.1750  151.4290 C   0  0  0  0  0  2  0  0  0  0  0  0
  158.1970  212.3820  152.3190 O   0  0  0  0  0  0  0  0  0  0  0  0
  158.9740  212.6490  151.3640 C   0  0  0  0  0  0  0  0  0  0  0  0
  157.4700  213.3740  147.6000 C   0  0  1  0  0  3  0  0  0  0  0  0
  157.1260  213.3290  149.9640 O   0  0  0  0  0  0  0  0  0  0  0  0
  160.4150  214.4510  149.5240 O   0  0  0  0  0  0  0  0  0  0  0  0
  157.2800  212.5810  146.3240 C   0  0  0  0  0  1  0  0  0  0  0  0
  156.9430  212.5700  148.7950 C   0  0  0  0  0  2  0  0  0  0  0  0
  159.3300  213.8950  149.2050 C   0  0  0  0  0  0  0  0  0  0  0  0
  158.4670  213.3240  150.2010 N   0  0  0  0  0  0  0  0  0  0  0  0
  158.9530  213.7390  147.7640 C   0  0  0  0  0  2  0  0  0  0  0  0
  1  6  1  0  0  0  0
  1  9  1  0  0  0  0
  2  3  1  6  0  0  0
  2  5  1  0  0  0  0
  3  7  1  0  0  0  0
  4 11  1  0  0  0  0
  4  7  2  0  0  0  0
  5 16  2  0  0  0  0
  5 14  1  0  0  0  0
  8 21  1  1  0  0  0
  8 13  1  0  0  0  0
  8 12  1  0  0  0  0
 10 19  1  0  0  0  0
 10 18  1  0  0  0  0
 12 16  1  0  0  0  0
 13 18  1  6  0  0  0
 13  2  1  0  0  0  0
 14  1  2  0  0  0  0
 15  4  1  0  0  0  0
 16 17  1  0  0  0  0
 17  6  2  0  0  0  0
 19  3  2  0  0  0  0
 20 15  2  0  0  0  0
 20 19  1  0  0  0  0
 23 21  1  0  0  0  0
 23 22  2  0  0  0  0
 24 27  1  6  0  0  0
 24 31  1  0  0  0  0
 24 28  1  0  0  0  0
 25 30  1  0  0  0  0
 28 25  1  0  0  0  0
 29 26  2  0  0  0  0
 29 30  1  0  0  0  0
 30 23  1  0  0  0  0
 31 29  1  0  0  0  0
M  END
>  <MODEL>
3

>  <REMARK>
 VINA RESULT:      -6.6      3.950      7.651
  Name = 
  2 active torsions:
  status: ('A' for Active; 'I' for Inactive)
    1  A    between atoms: C_5  and  C_16
    2  A    between atoms: C_10  and  C_16
                            x       y       z     vdW  Elec       q    Type
                         _______ _______ _______ _____ _____    ______ ____

>  <TORSDO>
F 2

$$$$
=
 OpenBabel11122413123D

 31 35  0  0  1  0  0  0  0  0999 V2000
  161.2960  200.9540  148.6500 C   0  0  0  0  0  0  0  0  0  0  0  0
  162.0640  204.6540  148.2370 C   0  0  2  0  0  3  0  0  0  0  0  0
  161.3670  205.1080  146.9620 C   0  0  0  0  0  0  0  0  0  0  0  0
  160.2660  204.6140  144.8490 C   0  0  0  0  0  0  0  0  0  0  0  0
  161.4960  203.3690  148.7930 C   0  0  0  0  0  0  0  0  0  0  0  0
  160.3850  200.9620  149.7080 C   0  0  0  0  0  3  0  0  0  0  0  0
  160.8790  204.1810  146.0270 C   0  0  0  0  0  3  0  0  0  0  0  0
  160.6690  205.9100  149.9120 C   0  0  2  0  0  3  0  0  0  0  0  0
  161.6720  199.6700  148.0030 C   0  0  0  0  0  1  0  0  0  0  0  0
  161.7760  207.4340  147.5630 O   0  0  0  0  0  0  0  0  0  0  0  0
  159.7760  203.6870  143.9400 O   0  0  0  0  0  1  0  0  0  0  0  0
  160.2700  204.6250  150.6390 C   0  0  0  0  0  2  0  0  0  0  0  0
  162.0750  205.7620  149.3090 C   0  0  2  0  0  3  0  0  0  0  0  0
  161.8500  202.1520  148.1950 C   0  0  0  0  0  3  0  0  0  0  0  0
  160.1470  205.9800  144.5860 C   0  0  0  0  0  3  0  0  0  0  0  0
  160.5760  203.3750  149.8650 C   0  0  0  0  0  0  0  0  0  0  0  0
  160.0340  202.1690  150.3190 C   0  0  0  0  0  3  0  0  0  0  0  0
  162.5820  207.0630  148.6800 C   0  0  0  0  0  2  0  0  0  0  0  0
  161.2720  206.4850  146.6700 C   0  0  0  0  0  0  0  0  0  0  0  0
  160.6510  206.9130  145.4940 C   0  0  0  0  0  3  0  0  0  0  0  0
  160.5860  207.0840  150.8820 C   0  0  0  0  0  2  0  0  0  0  0  0
  161.5040  205.5070  152.4040 O   0  0  0  0  0  0  0  0  0  0  0  0
  161.2230  206.7150  152.1830 C   0  0  0  0  0  0  0  0  0  0  0  0
  160.5860  209.3070  155.3180 C   0  0  1  0  0  3  0  0  0  0  0  0
  161.5700  207.2890  154.5040 O   0  0  0  0  0  0  0  0  0  0  0  0
  161.8430  209.5830  151.8720 O   0  0  0  0  0  0  0  0  0  0  0  0
  159.3850  209.8720  156.0480 C   0  0  0  0  0  1  0  0  0  0  0  0
  160.4420  207.7870  155.1780 C   0  0  0  0  0  2  0  0  0  0  0  0
  161.3970  209.1070  152.9500 C   0  0  0  0  0  0  0  0  0  0  0  0
  161.4370  207.6950  153.2120 N   0  0  0  0  0  0  0  0  0  0  0  0
  160.7310  209.9970  153.9540 C   0  0  0  0  0  2  0  0  0  0  0  0
  1  6  1  0  0  0  0
  2  3  1  6  0  0  0
  2  5  1  0  0  0  0
  2 13  1  0  0  0  0
  4  7  1  0  0  0  0
  5 16  2  0  0  0  0
  6 17  2  0  0  0  0
  7  3  2  0  0  0  0
  8 12  1  0  0  0  0
  8 21  1  1  0  0  0
  9  1  1  0  0  0  0
 10 18  1  0  0  0  0
 11  4  1  0  0  0  0
 13 18  1  6  0  0  0
 13  8  1  0  0  0  0
 14  1  2  0  0  0  0
 14  5  1  0  0  0  0
 15  4  2  0  0  0  0
 15 20  1  0  0  0  0
 16 17  1  0  0  0  0
 16 12  1  0  0  0  0
 19  3  1  0  0  0  0
 19 10  1  0  0  0  0
 20 19  2  0  0  0  0
 21 23  1  0  0  0  0
 23 22  2  0  0  0  0
 23 30  1  0  0  0  0
 24 27  1  6  0  0  0
 25 28  1  0  0  0  0
 26 29  2  0  0  0  0
 28 24  1  0  0  0  0
 29 30  1  0  0  0  0
 29 31  1  0  0  0  0
 30 25  1  0  0  0  0
 31 24  1  0  0  0  0
M  END
>  <MODEL>
4

>  <REMARK>
 VINA RESULT:      -6.3      1.664      4.275
  Name = 
  2 active torsions:
  status: ('A' for Active; 'I' for Inactive)
    1  A    between atoms: C_5  and  C_16
    2  A    between atoms: C_10  and  C_16
                            x       y       z     vdW  Elec       q    Type
                         _______ _______ _______ _____ _____    ______ ____

>  <TORSDO>
F 2

$$$$
=
 OpenBabel11122413123D

 31 35  0  0  1  0  0  0  0  0999 V2000
  161.3630  213.0390  148.0450 C   0  0  0  0  0  0  0  0  0  0  0  0
  161.8560  211.1310  151.2950 C   0  0  2  0  0  3  0  0  0  0  0  0
  160.5580  211.2580  152.0800 C   0  0  0  0  0  0  0  0  0  0  0  0
  158.4140  212.3350  152.4840 C   0  0  0  0  0  0  0  0  0  0  0  0
  161.6830  211.4160  149.8210 C   0  0  0  0  0  0  0  0  0  0  0  0
  161.2460  212.0050  147.1150 C   0  0  0  0  0  3  0  0  0  0  0  0
  159.5880  212.2120  151.7360 C   0  0  0  0  0  3  0  0  0  0  0  0
  161.7470  208.6750  150.7580 C   0  0  2  0  0  3  0  0  0  0  0  0
  161.2500  214.4530  147.6010 C   0  0  0  0  0  1  0  0  0  0  0  0
  161.3130  209.5210  153.6140 O   0  0  0  0  0  0  0  0  0  0  0  0
  157.4560  213.2720  152.1240 O   0  0  0  0  0  1  0  0  0  0  0  0
  161.8100  208.9360  149.2520 C   0  0  0  0  0  2  0  0  0  0  0  0
  162.5270  209.7610  151.5160 C   0  0  2  0  0  3  0  0  0  0  0  0
  161.5820  212.7470  149.3920 C   0  0  0  0  0  3  0  0  0  0  0  0
  158.2050  211.5140  153.5940 C   0  0  0  0  0  3  0  0  0  0  0  0
  161.5670  210.3710  148.8790 C   0  0  0  0  0  0  0  0  0  0  0  0
  161.3570  210.6750  147.5300 C   0  0  0  0  0  3  0  0  0  0  0  0
  162.6090  209.4790  153.0190 C   0  0  0  0  0  2  0  0  0  0  0  0
  160.3530  210.4580  153.2240 C   0  0  0  0  0  0  0  0  0  0  0  0
  159.1730  210.5790  153.9640 C   0  0  0  0  0  3  0  0  0  0  0  0
  162.2830  207.2780  151.0490 C   0  0  0  0  0  2  0  0  0  0  0  0
  160.7980  206.5790  152.7660 O   0  0  0  0  0  0  0  0  0  0  0  0
  161.1870  206.4120  151.5800 C   0  0  0  0  0  0  0  0  0  0  0  0
  160.6820  202.7720  149.7210 C   0  0  1  0  0  3  0  0  0  0  0  0
  160.0060  204.3100  151.4190 O   0  0  0  0  0  0  0  0  0  0  0  0
  160.8380  206.2890  148.6520 O   0  0  0  0  0  0  0  0  0  0  0  0
  161.5360  201.5530  149.4490 C   0  0  0  0  0  1  0  0  0  0  0  0
  160.8120  203.1810  151.1930 C   0  0  0  0  0  2  0  0  0  0  0  0
  160.8240  205.2560  149.3730 C   0  0  0  0  0  0  0  0  0  0  0  0
  160.6340  205.3430  150.7940 N   0  0  0  0  0  0  0  0  0  0  0  0
  161.0920  203.9100  148.7730 C   0  0  0  0  0  2  0  0  0  0  0  0
  1 14  1  0  0  0  0
  2  5  1  6  0  0  0
  2 13  1  0  0  0  0
  2  3  1  0  0  0  0
  3 19  1  0  0  0  0
  4 15  2  0  0  0  0
  6 17  1  0  0  0  0
  6  1  2  0  0  0  0
  7  3  2  0  0  0  0
  7  4  1  0  0  0  0
  8 21  1  6  0  0  0
  8 13  1  0  0  0  0
  9  1  1  0  0  0  0
 11  4  1  0  0  0  0
 12  8  1  0  0  0  0
 13 18  1  1  0  0  0
 14  5  2  0  0  0  0
 15 20  1  0  0  0  0
 16 12  1  0  0  0  0
 16  5  1  0  0  0  0
 17 16  2  0  0  0  0
 18 10  1  0  0  0  0
 19 10  1  0  0  0  0
 19 20  2  0  0  0  0
 21 23  1  0  0  0  0
 23 22  2  0  0  0  0
 24 27  1  1  0  0  0
 24 28  1  0  0  0  0
 26 29  2  0  0  0  0
 28 25  1  0  0  0  0
 29 30  1  0  0  0  0
 30 25  1  0  0  0  0
 30 23  1  0  0  0  0
 31 29  1  0  0  0  0
 31 24  1  0  0  0  0
M  END
>  <MODEL>
5

>  <REMARK>
 VINA RESULT:      -6.0      3.320      7.615
  Name = 
  2 active torsions:
  status: ('A' for Active; 'I' for Inactive)
    1  A    between atoms: C_5  and  C_16
    2  A    between atoms: C_10  and  C_16
                            x       y       z     vdW  Elec       q    Type
                         _______ _______ _______ _____ _____    ______ ____

>  <TORSDO>
F 2

$$$$
=
 OpenBabel11122413123D

 31 35  0  0  1  0  0  0  0  0999 V2000
  161.0090  202.9470  145.5570 C   0  0  0  0  0  0  0  0  0  0  0  0
  160.3070  205.0460  148.6480 C   0  0  2  0  0  3  0  0  0  0  0  0
  160.7320  204.2130  149.8500 C   0  0  0  0  0  0  0  0  0  0  0  0
  161.3340  202.0790  150.8520 C   0  0  0  0  0  0  0  0  0  0  0  0
  160.9330  204.5760  147.3560 C   0  0  0  0  0  0  0  0  0  0  0  0
  162.1250  203.5890  145.0170 C   0  0  0  0  0  3  0  0  0  0  0  0
  160.9730  202.8350  149.7340 C   0  0  0  0  0  3  0  0  0  0  0  0
  162.0740  206.8330  148.7700 C   0  0  2  0  0  3  0  0  0  0  0  0
  160.4560  201.7370  144.8960 C   0  0  0  0  0  1  0  0  0  0  0  0
  160.5460  206.1770  151.2800 O   0  0  0  0  0  0  0  0  0  0  0  0
  161.5840  200.7210  150.7210 O   0  0  0  0  0  1  0  0  0  0  0  0
  162.5720  206.5260  147.3560 C   0  0  0  0  0  2  0  0  0  0  0  0
  160.5670  206.5480  148.8720 C   0  0  2  0  0  3  0  0  0  0  0  0
  160.4150  203.4390  146.7210 C   0  0  0  0  0  3  0  0  0  0  0  0
  161.4450  202.6920  152.1020 C   0  0  0  0  0  3  0  0  0  0  0  0
  162.0610  205.2260  146.8060 C   0  0  0  0  0  0  0  0  0  0  0  0
  162.6420  204.7300  145.6350 C   0  0  0  0  0  3  0  0  0  0  0  0
  159.9860  206.9610  150.2280 C   0  0  0  0  0  2  0  0  0  0  0  0
  160.8120  204.8150  151.1230 C   0  0  0  0  0  0  0  0  0  0  0  0
  161.1830  204.0570  152.2370 C   0  0  0  0  0  3  0  0  0  0  0  0
  162.4060  208.2800  149.1170 C   0  0  0  0  0  2  0  0  0  0  0  0
  163.1200  207.4470  151.2250 O   0  0  0  0  0  0  0  0  0  0  0  0
  162.6200  208.4130  150.5910 C   0  0  0  0  0  0  0  0  0  0  0  0
  160.2470  211.1640  152.5300 C   0  0  1  0  0  3  0  0  0  0  0  0
  161.9610  209.5040  152.6440 O   0  0  0  0  0  0  0  0  0  0  0  0
  162.5100  211.2010  149.6300 O   0  0  0  0  0  0  0  0  0  0  0  0
  158.7620  211.3990  152.7070 C   0  0  0  0  0  1  0  0  0  0  0  0
  160.5780  209.6930  152.8100 C   0  0  0  0  0  2  0  0  0  0  0  0
  161.8610  210.8130  150.6370 C   0  0  0  0  0  0  0  0  0  0  0  0
  162.1860  209.5830  151.3030 N   0  0  0  0  0  0  0  0  0  0  0  0
  160.6700  211.5870  151.1150 C   0  0  0  0  0  2  0  0  0  0  0  0
  1 14  1  0  0  0  0
  2  5  1  6  0  0  0
  2 13  1  0  0  0  0
  2  3  1  0  0  0  0
  3 19  1  0  0  0  0
  4 15  2  0  0  0  0
  6  1  2  0  0  0  0
  6 17  1  0  0  0  0
  7  3  2  0  0  0  0
  7  4  1  0  0  0  0
  8 13  1  0  0  0  0
  8 21  1  6  0  0  0
  9  1  1  0  0  0  0
 11  4  1  0  0  0  0
 12  8  1  0  0  0  0
 13 18  1  1  0  0  0
 14  5  2  0  0  0  0
 15 20  1  0  0  0  0
 16  5  1  0  0  0  0
 16 12  1  0  0  0  0
 17 16  2  0  0  0  0
 18 10  1  0  0  0  0
 19 10  1  0  0  0  0
 19 20  2  0  0  0  0
 21 23  1  0  0  0  0
 23 22  2  0  0  0  0
 23 30  1  0  0  0  0
 24 27  1  6  0  0  0
 24 28  1  0  0  0  0
 25 28  1  0  0  0  0
 26 29  2  0  0  0  0
 29 31  1  0  0  0  0
 29 30  1  0  0  0  0
 30 25  1  0  0  0  0
 31 24  1  0  0  0  0
M  END
>  <MODEL>
6

>  <REMARK>
 VINA RESULT:      -6.0      1.975      2.865
  Name = 
  2 active torsions:
  status: ('A' for Active; 'I' for Inactive)
    1  A    between atoms: C_5  and  C_16
    2  A    between atoms: C_10  and  C_16
                            x       y       z     vdW  Elec       q    Type
                         _______ _______ _______ _____ _____    ______ ____

>  <TORSDO>
F 2

$$$$
=
 OpenBabel11122413123D

 31 35  0  0  1  0  0  0  0  0999 V2000
  160.7020  207.5030  156.0710 C   0  0  0  0  0  0  0  0  0  0  0  0
  161.9580  208.5850  152.6500 C   0  0  2  0  0  3  0  0  0  0  0  0
  161.5490  207.4960  151.6680 C   0  0  0  0  0  0  0  0  0  0  0  0
  160.7810  205.2360  151.1980 C   0  0  0  0  0  0  0  0  0  0  0  0
  161.1550  208.5540  153.9300 C   0  0  0  0  0  0  0  0  0  0  0  0
  159.6300  208.3740  156.2760 C   0  0  0  0  0  3  0  0  0  0  0  0
  161.1250  206.2330  152.1130 C   0  0  0  0  0  3  0  0  0  0  0  0
  160.4510  210.4280  151.8360 C   0  0  2  0  0  3  0  0  0  0  0  0
  161.0320  206.4770  157.0940 C   0  0  0  0  0  1  0  0  0  0  0  0
  162.1180  208.9590  149.8040 O   0  0  0  0  0  0  0  0  0  0  0  0
  160.3500  203.9970  151.6510 O   0  0  0  0  0  1  0  0  0  0  0  0
  159.7840  210.5750  153.2050 C   0  0  0  0  0  2  0  0  0  0  0  0
  161.9130  209.9840  152.0050 C   0  0  2  0  0  3  0  0  0  0  0  0
  161.4630  207.5940  154.9040 C   0  0  0  0  0  3  0  0  0  0  0  0
  160.8690  205.4850  149.8270 C   0  0  0  0  0  3  0  0  0  0  0  0
  160.0710  209.4350  154.1400 C   0  0  0  0  0  0  0  0  0  0  0  0
  159.3220  209.3420  155.3170 C   0  0  0  0  0  3  0  0  0  0  0  0
  162.6690  209.9470  150.6740 C   0  0  0  0  0  2  0  0  0  0  0  0
  161.6680  207.7260  150.2810 C   0  0  0  0  0  0  0  0  0  0  0  0
  161.3140  206.7270  149.3700 C   0  0  0  0  0  3  0  0  0  0  0  0
  160.3390  211.7460  151.0790 C   0  0  0  0  0  2  0  0  0  0  0  0
  159.9510  212.7760  153.1850 O   0  0  0  0  0  0  0  0  0  0  0  0
  159.7030  212.7820  151.9490 C   0  0  0  0  0  0  0  0  0  0  0  0
  156.2140  214.4530  150.5390 C   0  0  1  0  0  3  0  0  0  0  0  0
  157.8660  214.3210  152.2590 O   0  0  0  0  0  0  0  0  0  0  0  0
  159.6270  213.9740  149.2520 O   0  0  0  0  0  0  0  0  0  0  0  0
  154.8510  213.9500  150.1150 C   0  0  0  0  0  1  0  0  0  0  0  0
  156.6020  213.8340  151.8870 C   0  0  0  0  0  2  0  0  0  0  0  0
  158.6220  213.9690  150.0100 C   0  0  0  0  0  0  0  0  0  0  0  0
  158.7550  213.7220  151.4190 N   0  0  0  0  0  0  0  0  0  0  0  0
  157.2440  214.1340  149.4450 C   0  0  0  0  0  2  0  0  0  0  0  0
  1  6  1  0  0  0  0
  1  9  1  0  0  0  0
  2  3  1  6  0  0  0
  2  5  1  0  0  0  0
  3  7  1  0  0  0  0
  4 11  1  0  0  0  0
  4  7  2  0  0  0  0
  5 16  2  0  0  0  0
  5 14  1  0  0  0  0
  8 21  1  1  0  0  0
  8 13  1  0  0  0  0
  8 12  1  0  0  0  0
 10 19  1  0  0  0  0
 10 18  1  0  0  0  0
 12 16  1  0  0  0  0
 13 18  1  6  0  0  0
 13  2  1  0  0  0  0
 14  1  2  0  0  0  0
 15  4  1  0  0  0  0
 16 17  1  0  0  0  0
 17  6  2  0  0  0  0
 19  3  2  0  0  0  0
 20 15  2  0  0  0  0
 20 19  1  0  0  0  0
 21 23  1  0  0  0  0
 23 22  2  0  0  0  0
 24 27  1  6  0  0  0
 24 28  1  0  0  0  0
 26 29  2  0  0  0  0
 28 25  1  0  0  0  0
 29 30  1  0  0  0  0
 30 23  1  0  0  0  0
 30 25  1  0  0  0  0
 31 29  1  0  0  0  0
 31 24  1  0  0  0  0
M  END
>  <MODEL>
7

>  <REMARK>
 VINA RESULT:      -5.7      3.827      7.279
  Name = 
  2 active torsions:
  status: ('A' for Active; 'I' for Inactive)
    1  A    between atoms: C_5  and  C_16
    2  A    between atoms: C_10  and  C_16
                            x       y       z     vdW  Elec       q    Type
                         _______ _______ _______ _____ _____    ______ ____

>  <TORSDO>
F 2

$$$$
=
 OpenBabel11122413123D

 31 35  0  0  1  0  0  0  0  0999 V2000
  161.9890  206.2020  147.0980 C   0  0  0  0  0  0  0  0  0  0  0  0
  162.5580  208.5740  150.0130 C   0  0  2  0  0  3  0  0  0  0  0  0
  161.9820  209.9220  149.6010 C   0  0  0  0  0  0  0  0  0  0  0  0
  161.1640  211.4540  147.8970 C   0  0  0  0  0  0  0  0  0  0  0  0
  162.0150  207.4270  149.1940 C   0  0  0  0  0  0  0  0  0  0  0  0
  160.9650  205.3850  147.5820 C   0  0  0  0  0  3  0  0  0  0  0  0
  161.6650  210.2020  148.2630 C   0  0  0  0  0  3  0  0  0  0  0  0
  160.9030  207.9770  151.8120 C   0  0  2  0  0  3  0  0  0  0  0  0
  162.5190  205.9930  145.7250 C   0  0  0  0  0  1  0  0  0  0  0  0
  162.1690  210.7070  151.9010 O   0  0  0  0  0  0  0  0  0  0  0  0
  160.8410  211.7130  146.5730 O   0  0  0  0  0  1  0  0  0  0  0  0
  160.5070  206.6780  151.1060 C   0  0  0  0  0  2  0  0  0  0  0  0
  162.3750  208.3100  151.5210 C   0  0  2  0  0  3  0  0  0  0  0  0
  162.5130  207.2170  147.9000 C   0  0  0  0  0  3  0  0  0  0  0  0
  160.9870  212.4440  148.8650 C   0  0  0  0  0  3  0  0  0  0  0  0
  160.9810  206.5980  149.6830 C   0  0  0  0  0  0  0  0  0  0  0  0
  160.4700  205.5780  148.8750 C   0  0  0  0  0  3  0  0  0  0  0  0
  162.8650  209.5290  152.3070 C   0  0  0  0  0  2  0  0  0  0  0  0
  161.8320  210.9410  150.5660 C   0  0  0  0  0  0  0  0  0  0  0  0
  161.3220  212.1880  150.1960 C   0  0  0  0  0  3  0  0  0  0  0  0
  160.6340  207.8390  153.3060 C   0  0  0  0  0  2  0  0  0  0  0  0
  159.4980  209.9190  153.1310 O   0  0  0  0  0  0  0  0  0  0  0  0
  160.1720  209.1470  153.8640 C   0  0  0  0  0  0  0  0  0  0  0  0
  162.3560  210.6560  157.0110 C   0  0  1  0  0  3  0  0  0  0  0  0
  160.5330  210.9000  155.4870 O   0  0  0  0  0  0  0  0  0  0  0  0
  160.6540  207.4840  156.2530 O   0  0  0  0  0  0  0  0  0  0  0  0
  163.7990  211.0410  157.2590 C   0  0  0  0  0  1  0  0  0  0  0  0
  161.8750  211.2670  155.6900 C   0  0  0  0  0  2  0  0  0  0  0  0
  161.0840  208.6650  156.1600 C   0  0  0  0  0  0  0  0  0  0  0  0
  160.5560  209.5730  155.1810 N   0  0  0  0  0  0  0  0  0  0  0  0
  162.2240  209.1250  157.0160 C   0  0  0  0  0  2  0  0  0  0  0  0
  1  6  2  0  0  0  0
  1 14  1  0  0  0  0
  2  5  1  6  0  0  0
  2 13  1  0  0  0  0
  3  2  1  0  0  0  0
  3 19  1  0  0  0  0
  4  7  1  0  0  0  0
  4 15  2  0  0  0  0
  5 16  1  0  0  0  0
  6 17  1  0  0  0  0
  7  3  2  0  0  0  0
  8 21  1  1  0  0  0
  9  1  1  0  0  0  0
 10 18  1  0  0  0  0
 11  4  1  0  0  0  0
 12  8  1  0  0  0  0
 13  8  1  0  0  0  0
 13 18  1  1  0  0  0
 14  5  2  0  0  0  0
 15 20  1  0  0  0  0
 16 12  1  0  0  0  0
 17 16  2  0  0  0  0
 19 10  1  0  0  0  0
 20 19  2  0  0  0  0
 21 23  1  0  0  0  0
 22 23  2  0  0  0  0
 23 30  1  0  0  0  0
 24 31  1  0  0  0  0
 24 27  1  6  0  0  0
 25 28  1  0  0  0  0
 28 24  1  0  0  0  0
 29 26  2  0  0  0  0
 29 31  1  0  0  0  0
 30 25  1  0  0  0  0
 30 29  1  0  0  0  0
M  END
>  <MODEL>
8

>  <REMARK>
 VINA RESULT:      -5.6      3.137      5.412
  Name = 
  2 active torsions:
  status: ('A' for Active; 'I' for Inactive)
    1  A    between atoms: C_5  and  C_16
    2  A    between atoms: C_10  and  C_16
                            x       y       z     vdW  Elec       q    Type
                         _______ _______ _______ _____ _____    ______ ____

>  <TORSDO>
F 2

$$$$
=
 OpenBabel11122413123D

 31 35  0  0  1  0  0  0  0  0999 V2000
  162.3240  212.0380  148.5780 C   0  0  0  0  0  0  0  0  0  0  0  0
  162.4940  208.9000  150.7180 C   0  0  2  0  0  3  0  0  0  0  0  0
  161.5930  209.1400  151.9210 C   0  0  0  0  0  0  0  0  0  0  0  0
  160.3350  210.6350  153.3710 C   0  0  0  0  0  0  0  0  0  0  0  0
  162.1870  209.8220  149.5600 C   0  0  0  0  0  0  0  0  0  0  0  0
  161.5530  211.6100  147.4950 C   0  0  0  0  0  3  0  0  0  0  0  0
  161.1380  210.4280  152.2470 C   0  0  0  0  0  3  0  0  0  0  0  0
  161.1390  207.1210  149.5650 C   0  0  2  0  0  3  0  0  0  0  0  0
  162.8030  213.4430  148.6390 C   0  0  0  0  0  1  0  0  0  0  0  0
  161.7290  206.7760  152.4970 O   0  0  0  0  0  0  0  0  0  0  0  0
  159.8800  211.9100  153.6740 O   0  0  0  0  0  1  0  0  0  0  0  0
  161.0180  207.9510  148.2860 C   0  0  0  0  0  2  0  0  0  0  0  0
  162.4710  207.4250  150.2700 C   0  0  2  0  0  3  0  0  0  0  0  0
  162.6410  211.1470  149.6050 C   0  0  0  0  0  3  0  0  0  0  0  0
  159.9880  209.5580  154.1900 C   0  0  0  0  0  3  0  0  0  0  0  0
  161.4090  209.3900  148.4630 C   0  0  0  0  0  0  0  0  0  0  0  0
  161.1050  210.2870  147.4340 C   0  0  0  0  0  3  0  0  0  0  0  0
  162.7060  206.5270  151.4870 C   0  0  0  0  0  2  0  0  0  0  0  0
  161.2660  208.0650  152.7740 C   0  0  0  0  0  0  0  0  0  0  0  0
  160.4550  208.2760  153.8920 C   0  0  0  0  0  3  0  0  0  0  0  0
  161.0010  205.6420  149.2200 C   0  0  0  0  0  2  0  0  0  0  0  0
  162.6920  206.1810  147.6400 O   0  0  0  0  0  0  0  0  0  0  0  0
  161.9290  205.2920  148.1010 C   0  0  0  0  0  0  0  0  0  0  0  0
  160.8320  202.0820  145.7670 C   0  0  1  0  0  3  0  0  0  0  0  0
  162.3870  203.8360  146.2280 O   0  0  0  0  0  0  0  0  0  0  0  0
  161.3170  202.6950  149.3620 O   0  0  0  0  0  0  0  0  0  0  0  0
  159.6380  201.7010  144.9180 C   0  0  0  0  0  1  0  0  0  0  0  0
  161.2750  203.5110  145.4310 C   0  0  0  0  0  2  0  0  0  0  0  0
  161.2710  202.8620  148.1140 C   0  0  0  0  0  0  0  0  0  0  0  0
  161.9020  203.9910  147.4910 N   0  0  0  0  0  0  0  0  0  0  0  0
  160.4770  201.9270  147.2540 C   0  0  0  0  0  2  0  0  0  0  0  0
  1  9  1  0  0  0  0
  1 14  1  0  0  0  0
  2  5  1  6  0  0  0
  2  3  1  0  0  0  0
  3  7  2  0  0  0  0
  3 19  1  0  0  0  0
  4 11  1  0  0  0  0
  4 15  2  0  0  0  0
  5 14  2  0  0  0  0
  6  1  2  0  0  0  0
  7  4  1  0  0  0  0
  8 21  1  6  0  0  0
  8 13  1  0  0  0  0
 10 19  1  0  0  0  0
 12 16  1  0  0  0  0
 12  8  1  0  0  0  0
 13  2  1  0  0  0  0
 13 18  1  1  0  0  0
 16  5  1  0  0  0  0
 17  6  1  0  0  0  0
 17 16  2  0  0  0  0
 18 10  1  0  0  0  0
 19 20  2  0  0  0  0
 20 15  1  0  0  0  0
 22 23  2  0  0  0  0
 23 21  1  0  0  0  0
 24 27  1  6  0  0  0
 24 31  1  0  0  0  0
 25 30  1  0  0  0  0
 28 24  1  0  0  0  0
 28 25  1  0  0  0  0
 29 26  2  0  0  0  0
 30 23  1  0  0  0  0
 30 29  1  0  0  0  0
 31 29  1  0  0  0  0
M  END
>  <MODEL>
9

>  <REMARK>
 VINA RESULT:      -5.4      3.091      7.683
  Name = 
  2 active torsions:
  status: ('A' for Active; 'I' for Inactive)
    1  A    between atoms: C_5  and  C_16
    2  A    between atoms: C_10  and  C_16
                            x       y       z     vdW  Elec       q    Type
                         _______ _______ _______ _____ _____    ______ ____

>  <TORSDO>
F 2

$$$$
