=
 OpenBabel11122414263D

 34 40  0  0  1  0  0  0  0  0999 V2000
  160.9890  205.3390  152.4070 C   0  0  0  0  0  0  0  0  0  0  0  0
  160.7840  206.2050  154.8140 C   0  0  0  0  0  2  0  0  0  0  0  0
  160.6760  204.3220  145.0300 N   0  0  0  0  0  2  0  0  0  0  0  0
  161.2160  204.6500  150.0990 C   0  0  0  0  0  0  0  0  0  0  0  0
  161.3910  206.3480  148.3680 C   0  0  0  0  0  0  0  0  0  0  0  0
  160.4080  206.5100  146.0730 C   0  0  0  0  0  2  0  0  0  0  0  0
  160.8620  205.7530  144.8330 C   0  0  0  0  0  2  0  0  0  0  0  0
  162.4770  203.9900  146.7090 C   0  0  0  0  0  2  0  0  0  0  0  0
  160.9150  207.6880  152.9640 C   0  0  0  0  0  0  0  0  0  0  0  0
  161.1580  210.9100  153.2450 C   0  0  0  0  0  2  0  0  0  0  0  0
  161.2940  207.3130  149.3230 N   0  0  0  0  0  0  0  0  0  0  0  0
  161.3550  203.8590  147.7300 C   0  0  0  0  0  2  0  0  0  0  0  0
  161.0470  208.0550  151.6040 C   0  0  0  0  0  0  0  0  0  0  0  0
  160.9360  207.6320  155.3430 C   0  0  0  0  0  2  0  0  0  0  0  0
  161.3590  204.9760  148.7400 C   0  0  0  0  0  0  0  0  0  0  0  0
  161.9680  203.6900  145.2970 C   0  0  0  0  0  2  0  0  0  0  0  0
  161.7080  209.7660  154.1110 C   0  0  2  0  0  3  0  0  0  0  0  0
  161.1150  205.6740  151.0520 C   0  0  2  0  0  3  0  0  0  0  0  0
  161.6110  206.7940  146.9550 C   0  0  0  0  0  2  0  0  0  0  0  0
  161.1510  207.0240  150.6440 C   0  0  0  0  0  0  0  0  0  0  0  0
  161.0520  202.9470  151.7810 C   0  0  0  0  0  3  0  0  0  0  0  0
  160.3970  210.4630  151.9960 C   0  0  0  0  0  2  0  0  0  0  0  0
  161.1710  203.2750  150.5270 N   0  0  0  0  0  0  0  0  0  0  0  0
  161.2170  209.4880  151.1650 C   0  0  0  0  0  2  0  0  0  0  0  0
  160.7310  208.5800  154.1470 C   0  0  1  0  0  3  0  0  0  0  0  0
  160.9580  203.9610  152.7910 N   0  0  0  0  0  0  0  0  0  0  0  0
  160.8980  206.3660  153.3470 C   0  0  0  0  0  0  0  0  0  0  0  0
  162.0070  210.3150  155.5000 C   0  0  0  0  0  2  0  0  0  0  0  0
  161.4130  211.6340  155.6520 N   0  0  0  0  0  2  0  0  0  0  0  0
  158.7020  213.1020  157.2240 C   0  0  0  0  0  2  0  0  0  0  0  0
  159.2760  210.8790  156.5350 C   0  0  0  0  0  2  0  0  0  0  0  0
  160.5790  211.5940  156.8410 C   0  0  0  0  0  3  0  0  0  0  0  0
  158.1990  211.6770  157.2310 C   0  0  0  0  0  2  0  0  0  0  0  0
  160.2150  213.0080  157.2600 C   0  0  0  0  0  2  0  0  0  0  0  0
  1 26  1  0  0  0  0
  1 27  2  0  0  0  0
  2 14  1  0  0  0  0
  3 16  1  0  0  0  0
  4 23  2  0  0  0  0
  5 15  2  0  0  0  0
  5 11  1  0  0  0  0
  6 19  1  0  0  0  0
  7  3  1  0  0  0  0
  7  6  1  0  0  0  0
  8 12  1  0  0  0  0
  9 27  1  0  0  0  0
  9 25  1  0  0  0  0
 10 17  1  0  0  0  0
 11 20  2  0  0  0  0
 12 15  1  0  0  0  0
 13  9  2  0  0  0  0
 15  4  1  0  0  0  0
 16  8  1  0  0  0  0
 17 25  1  0  0  0  0
 17 28  1  1  0  0  0
 18  4  1  1  0  0  0
 18  1  1  0  0  0  0
 19  5  1  0  0  0  0
 20 18  1  0  0  0  0
 20 13  1  0  0  0  0
 21 26  2  0  0  0  0
 22 10  1  0  0  0  0
 23 21  1  0  0  0  0
 24 13  1  0  0  0  0
 24 22  1  0  0  0  0
 25 14  1  1  0  0  0
 27  2  1  0  0  0  0
 28 29  1  0  0  0  0
 29 32  1  0  0  0  0
 30 33  1  0  0  0  0
 30 34  1  0  0  0  0
 31 32  1  0  0  0  0
 31 33  1  0  0  0  0
 32 34  1  0  0  0  0
M  END
>  <MODEL>
1

>  <REMARK>
 VINA RESULT:      -9.9      0.000      0.000
  Name = 
  3 active torsions:
  status: ('A' for Active; 'I' for Inactive)
    1  A    between atoms: C_17  and  C_28
    2  A    between atoms: C_28  and  N_29
    3  A    between atoms: N_29  and  C_32
                            x       y       z     vdW  Elec       q    Type
                         _______ _______ _______ _____ _____    ______ ____

>  <TORSDO>
F 3

$$$$
=
 OpenBabel11122414263D

 34 40  0  0  1  0  0  0  0  0999 V2000
  161.8040  208.1090  150.2920 C   0  0  0  0  0  0  0  0  0  0  0  0
  161.9740  210.3480  151.5350 C   0  0  0  0  0  2  0  0  0  0  0  0
  161.7860  200.9340  148.2730 N   0  0  0  0  0  2  0  0  0  0  0  0
  161.5770  205.9480  149.2280 C   0  0  0  0  0  0  0  0  0  0  0  0
  160.8510  204.0450  150.5550 C   0  0  0  0  0  0  0  0  0  0  0  0
  161.5810  201.6530  150.5940 C   0  0  0  0  0  2  0  0  0  0  0  0
  161.2350  200.5780  149.5740 C   0  0  0  0  0  2  0  0  0  0  0  0
  160.2600  202.8330  147.7850 C   0  0  0  0  0  2  0  0  0  0  0  0
  161.3340  208.3500  152.6490 C   0  0  0  0  0  0  0  0  0  0  0  0
  160.3210  208.2430  155.7270 C   0  0  0  0  0  2  0  0  0  0  0  0
  160.7790  204.8520  151.6490 N   0  0  0  0  0  0  0  0  0  0  0  0
  161.4550  203.7310  148.0770 C   0  0  0  0  0  2  0  0  0  0  0  0
  161.0100  206.9770  152.7650 C   0  0  0  0  0  0  0  0  0  0  0  0
  161.5130  210.7030  152.9500 C   0  0  0  0  0  2  0  0  0  0  0  0
  161.2520  204.5840  149.3020 C   0  0  0  0  0  0  0  0  0  0  0  0
  160.7160  201.4230  147.4030 C   0  0  0  0  0  2  0  0  0  0  0  0
  160.1420  209.3030  154.6300 C   0  0  2  0  0  3  0  0  0  0  0  0
  161.4930  206.7450  150.3790 C   0  0  0  0  0  0  0  0  0  0  0  0
  160.4180  202.6200  150.7180 C   0  0  0  0  0  2  0  0  0  0  0  0
  161.0910  206.1750  151.6050 C   0  0  0  0  0  0  0  0  0  0  0  0
  162.2890  207.8050  147.8860 C   0  0  0  0  0  3  0  0  0  0  0  0
  161.0690  206.9830  155.2890 C   0  0  0  0  0  2  0  0  0  0  0  0
  161.9950  206.5410  147.9830 N   0  0  0  0  0  0  0  0  0  0  0  0
  160.4560  206.3810  154.0330 C   0  0  0  0  0  2  0  0  0  0  0  0
  161.3820  209.3810  153.7270 C   0  0  1  0  0  3  0  0  0  0  0  0
  162.2060  208.6600  149.0340 N   0  0  0  0  0  2  0  0  0  0  0  0
  161.7100  208.8940  151.4410 C   0  0  0  0  0  0  0  0  0  0  0  0
  159.8250  210.6360  155.2980 C   0  0  0  0  0  2  0  0  0  0  0  0
  158.3920  210.7560  155.5140 N   0  0  0  0  0  2  0  0  0  0  0  0
  156.3150  213.3430  154.5290 C   0  0  0  0  0  2  0  0  0  0  0  0
  158.6000  212.7420  154.1250 C   0  0  0  0  0  2  0  0  0  0  0  0
  157.8410  211.4500  154.3620 C   0  0  0  0  0  3  0  0  0  0  0  0
  157.5520  213.7720  153.7750 C   0  0  0  0  0  2  0  0  0  0  0  0
  156.3970  211.8330  154.6360 C   0  0  0  0  0  2  0  0  0  0  0  0
  1 18  1  0  0  0  0
  1 27  2  0  0  0  0
  2 14  1  0  0  0  0
  3  7  1  0  0  0  0
  4 15  1  0  0  0  0
  4 18  2  0  0  0  0
  5 19  1  0  0  0  0
  5 11  1  0  0  0  0
  6 19  1  0  0  0  0
  7  6  1  0  0  0  0
  8 12  1  0  0  0  0
  9 13  2  0  0  0  0
  9 25  1  0  0  0  0
 12 15  1  0  0  0  0
 13 24  1  0  0  0  0
 15  5  2  0  0  0  0
 16  8  1  0  0  0  0
 16  3  1  0  0  0  0
 17 28  1  1  0  0  0
 17 10  1  0  0  0  0
 18 20  1  0  0  0  0
 20 11  2  0  0  0  0
 20 13  1  0  0  0  0
 21 23  2  0  0  0  0
 21 26  1  0  0  0  0
 22 10  1  0  0  0  0
 23  4  1  0  0  0  0
 24 22  1  0  0  0  0
 25 14  1  6  0  0  0
 25 17  1  0  0  0  0
 26  1  1  0  0  0  0
 27  2  1  0  0  0  0
 27  9  1  0  0  0  0
 28 29  1  0  0  0  0
 30 34  1  0  0  0  0
 31 32  1  0  0  0  0
 32 34  1  0  0  0  0
 32 29  1  0  0  0  0
 33 31  1  0  0  0  0
 33 30  1  0  0  0  0
M  END
>  <MODEL>
2

>  <REMARK>
 VINA RESULT:      -8.9      1.899      3.898
  Name = 
  3 active torsions:
  status: ('A' for Active; 'I' for Inactive)
    1  A    between atoms: C_17  and  C_28
    2  A    between atoms: C_28  and  N_29
    3  A    between atoms: N_29  and  C_32
                            x       y       z     vdW  Elec       q    Type
                         _______ _______ _______ _____ _____    ______ ____

>  <TORSDO>
F 3

$$$$
=
 OpenBabel11122414263D

 34 40  0  0  1  0  0  0  0  0999 V2000
  161.5630  208.1570  149.8480 C   0  0  0  0  0  0  0  0  0  0  0  0
  161.5510  206.9350  147.5920 C   0  0  0  0  0  2  0  0  0  0  0  0
  160.3620  210.4790  156.8290 N   0  0  0  0  0  2  0  0  0  0  0  0
  161.5760  209.1870  152.0380 C   0  0  0  0  0  0  0  0  0  0  0  0
  161.1500  207.8120  153.9970 C   0  0  0  0  0  0  0  0  0  0  0  0
  159.8240  208.2230  156.0780 C   0  0  0  0  0  2  0  0  0  0  0  0
  160.2290  209.0930  157.2580 C   0  0  0  0  0  2  0  0  0  0  0  0
  162.4230  210.2000  155.4700 C   0  0  0  0  0  2  0  0  0  0  0  0
  161.1080  205.7960  149.6280 C   0  0  0  0  0  0  0  0  0  0  0  0
  160.7460  202.5810  149.8570 C   0  0  0  0  0  2  0  0  0  0  0  0
  161.0070  206.7260  153.1870 N   0  0  0  0  0  0  0  0  0  0  0  0
  161.5150  210.3420  154.2560 C   0  0  0  0  0  2  0  0  0  0  0  0
  160.9600  205.6530  151.0280 C   0  0  0  0  0  0  0  0  0  0  0  0
  161.4940  205.4330  147.3080 C   0  0  0  0  0  2  0  0  0  0  0  0
  161.4480  209.0820  153.4330 C   0  0  0  0  0  0  0  0  0  0  0  0
  161.7800  210.8230  156.7100 C   0  0  0  0  0  2  0  0  0  0  0  0
  161.6350  203.4460  148.9500 C   0  0  2  0  0  3  0  0  0  0  0  0
  161.4170  208.0460  151.2380 C   0  0  0  0  0  0  0  0  0  0  0  0
  161.0640  207.5860  155.4750 C   0  0  0  0  0  2  0  0  0  0  0  0
  161.1230  206.8020  151.8340 C   0  0  0  0  0  0  0  0  0  0  0  0
  162.0060  210.5750  150.1280 C   0  0  0  0  0  3  0  0  0  0  0  0
  159.9110  203.3620  150.8740 C   0  0  0  0  0  2  0  0  0  0  0  0
  161.8700  210.4540  151.4170 N   0  0  0  0  0  0  0  0  0  0  0  0
  160.7750  204.3110  151.6900 C   0  0  0  0  0  2  0  0  0  0  0  0
  160.9290  204.7570  148.5700 C   0  0  1  0  0  3  0  0  0  0  0  0
  161.8640  209.4320  149.2730 N   0  0  0  0  0  0  0  0  0  0  0  0
  161.4110  207.0140  149.0640 C   0  0  1  0  0  3  0  0  0  0  0  0
  162.0210  202.6210  147.7290 C   0  0  0  0  0  2  0  0  0  0  0  0
  160.8630  201.8980  147.2290 N   0  0  0  0  0  2  0  0  0  0  0  0
  159.1330  203.0960  144.4810 C   0  0  0  0  0  2  0  0  0  0  0  0
  161.3390  203.3930  145.3710 C   0  0  0  0  0  2  0  0  0  0  0  0
  160.8840  202.0050  145.7800 C   0  0  0  0  0  3  0  0  0  0  0  0
  160.4490  203.7900  144.2170 C   0  0  0  0  0  2  0  0  0  0  0  0
  159.4790  201.8250  145.2320 C   0  0  0  0  0  2  0  0  0  0  0  0
  1 18  1  0  0  0  0
  3  7  1  0  0  0  0
  4 15  2  0  0  0  0
  5 19  1  0  0  0  0
  6  7  1  0  0  0  0
  8 16  1  0  0  0  0
  9 13  2  0  0  0  0
 10 22  1  0  0  0  0
 11  5  2  0  0  0  0
 12  8  1  0  0  0  0
 13 24  1  0  0  0  0
 13 20  1  0  0  0  0
 14  2  1  0  0  0  0
 15  5  1  0  0  0  0
 15 12  1  0  0  0  0
 16  3  1  0  0  0  0
 17 28  1  6  0  0  0
 17 10  1  0  0  0  0
 18 20  2  0  0  0  0
 18  4  1  0  0  0  0
 19  6  1  0  0  0  0
 20 11  1  0  0  0  0
 21 23  2  0  0  0  0
 22 24  1  0  0  0  0
 23  4  1  0  0  0  0
 25 14  1  6  0  0  0
 25 17  1  0  0  0  0
 25  9  1  0  0  0  0
 26  1  2  0  0  0  0
 26 21  1  0  0  0  0
 27  2  1  1  0  0  0
 27  9  1  0  0  0  0
 27  1  1  0  0  0  0
 29 28  1  0  0  0  0
 30 34  1  0  0  0  0
 31 32  1  0  0  0  0
 32 29  1  0  0  0  0
 33 30  1  0  0  0  0
 33 31  1  0  0  0  0
 34 32  1  0  0  0  0
M  END
>  <MODEL>
3

>  <REMARK>
 VINA RESULT:      -8.9      1.839      9.523
  Name = 
  3 active torsions:
  status: ('A' for Active; 'I' for Inactive)
    1  A    between atoms: C_17  and  C_28
    2  A    between atoms: C_28  and  N_29
    3  A    between atoms: N_29  and  C_32
                            x       y       z     vdW  Elec       q    Type
                         _______ _______ _______ _____ _____    ______ ____

>  <TORSDO>
F 3

$$$$
=
 OpenBabel11122414263D

 34 40  0  0  1  0  0  0  0  0999 V2000
  161.7270  207.0090  148.7170 C   0  0  0  0  0  0  0  0  0  0  0  0
  161.9990  209.1690  150.0760 C   0  0  0  0  0  2  0  0  0  0  0  0
  161.6010  199.9760  146.2520 N   0  0  0  0  0  2  0  0  0  0  0  0
  161.4180  204.9140  147.5470 C   0  0  0  0  0  0  0  0  0  0  0  0
  160.8780  202.9150  148.8200 C   0  0  0  0  0  0  0  0  0  0  0  0
  161.6470  200.5430  148.6230 C   0  0  0  0  0  2  0  0  0  0  0  0
  161.2060  199.5260  147.5810 C   0  0  0  0  0  2  0  0  0  0  0  0
  159.9990  201.8650  146.0610 C   0  0  0  0  0  2  0  0  0  0  0  0
  161.5220  207.0910  151.1220 C   0  0  0  0  0  0  0  0  0  0  0  0
  160.8630  206.7680  154.2810 C   0  0  0  0  0  2  0  0  0  0  0  0
  160.9160  203.6500  149.9660 N   0  0  0  0  0  0  0  0  0  0  0  0
  161.2040  202.7700  146.2760 C   0  0  0  0  0  2  0  0  0  0  0  0
  161.2360  205.7060  151.1840 C   0  0  0  0  0  0  0  0  0  0  0  0
  161.6940  209.4240  151.5530 C   0  0  0  0  0  2  0  0  0  0  0  0
  161.1260  203.5400  147.5680 C   0  0  0  0  0  0  0  0  0  0  0  0
  160.4320  200.4920  145.5400 C   0  0  0  0  0  2  0  0  0  0  0  0
  160.5440  207.8900  153.2810 C   0  0  2  0  0  3  0  0  0  0  0  0
  161.4510  205.6350  148.7490 C   0  0  0  0  0  0  0  0  0  0  0  0
  160.4890  201.4730  148.9380 C   0  0  0  0  0  2  0  0  0  0  0  0
  161.1990  204.9800  149.9730 C   0  0  0  0  0  0  0  0  0  0  0  0
  161.9440  206.8670  146.2570 C   0  0  0  0  0  3  0  0  0  0  0  0
  161.5780  205.5560  153.6810 C   0  0  0  0  0  2  0  0  0  0  0  0
  161.6830  205.5930  146.3050 N   0  0  0  0  0  0  0  0  0  0  0  0
  160.8380  205.0190  152.4650 C   0  0  0  0  0  2  0  0  0  0  0  0
  161.6740  208.0540  152.2530 C   0  0  1  0  0  3  0  0  0  0  0  0
  161.9760  207.6470  147.4600 N   0  0  0  0  0  2  0  0  0  0  0  0
  161.7500  207.7180  149.9180 C   0  0  0  0  0  0  0  0  0  0  0  0
  160.2820  209.1700  154.0650 C   0  0  0  0  0  2  0  0  0  0  0  0
  159.7600  208.8490  155.3830 N   0  0  0  0  0  2  0  0  0  0  0  0
  162.6970  209.5320  157.0800 C   0  0  0  0  0  2  0  0  0  0  0  0
  161.2700  210.7450  155.5840 C   0  0  0  0  0  2  0  0  0  0  0  0
  160.3900  209.7570  156.3270 C   0  0  0  0  0  3  0  0  0  0  0  0
  162.5240  210.8780  156.4150 C   0  0  0  0  0  2  0  0  0  0  0  0
  161.2990  208.9770  157.2610 C   0  0  0  0  0  2  0  0  0  0  0  0
  1 18  1  0  0  0  0
  1 27  2  0  0  0  0
  2 14  1  0  0  0  0
  3  7  1  0  0  0  0
  4 15  1  0  0  0  0
  4 18  2  0  0  0  0
  5 19  1  0  0  0  0
  5 11  1  0  0  0  0
  6 19  1  0  0  0  0
  7  6  1  0  0  0  0
  8 12  1  0  0  0  0
  9 13  2  0  0  0  0
  9 25  1  0  0  0  0
 11 20  2  0  0  0  0
 12 15  1  0  0  0  0
 13 24  1  0  0  0  0
 15  5  2  0  0  0  0
 16  8  1  0  0  0  0
 16  3  1  0  0  0  0
 17 28  1  1  0  0  0
 17 10  1  0  0  0  0
 18 20  1  0  0  0  0
 20 13  1  0  0  0  0
 21 23  2  0  0  0  0
 21 26  1  0  0  0  0
 22 10  1  0  0  0  0
 23  4  1  0  0  0  0
 24 22  1  0  0  0  0
 25 14  1  6  0  0  0
 25 17  1  0  0  0  0
 26  1  1  0  0  0  0
 27  2  1  0  0  0  0
 27  9  1  0  0  0  0
 28 29  1  0  0  0  0
 29 32  1  0  0  0  0
 30 34  1  0  0  0  0
 31 32  1  0  0  0  0
 31 33  1  0  0  0  0
 32 34  1  0  0  0  0
 33 30  1  0  0  0  0
M  END
>  <MODEL>
4

>  <REMARK>
 VINA RESULT:      -8.6      1.947      4.179
  Name = 
  3 active torsions:
  status: ('A' for Active; 'I' for Inactive)
    1  A    between atoms: C_17  and  C_28
    2  A    between atoms: C_28  and  N_29
    3  A    between atoms: N_29  and  C_32
                            x       y       z     vdW  Elec       q    Type
                         _______ _______ _______ _____ _____    ______ ____

>  <TORSDO>
F 3

$$$$
=
 OpenBabel11122414263D

 34 40  0  0  1  0  0  0  0  0999 V2000
  161.8800  207.7520  149.8180 C   0  0  0  0  0  0  0  0  0  0  0  0
  162.0960  209.8710  151.2490 C   0  0  0  0  0  2  0  0  0  0  0  0
  161.7430  200.7810  147.1820 N   0  0  0  0  0  2  0  0  0  0  0  0
  161.6100  205.6950  148.5730 C   0  0  0  0  0  0  0  0  0  0  0  0
  160.8800  203.6910  149.7400 C   0  0  0  0  0  0  0  0  0  0  0  0
  161.5810  201.2960  149.5590 C   0  0  0  0  0  2  0  0  0  0  0  0
  161.2070  200.3190  148.4550 C   0  0  0  0  0  2  0  0  0  0  0  0
  160.2340  202.7320  146.8850 C   0  0  0  0  0  2  0  0  0  0  0  0
  161.4480  207.7910  152.1940 C   0  0  0  0  0  0  0  0  0  0  0  0
  160.4780  207.4260  155.2670 C   0  0  0  0  0  2  0  0  0  0  0  0
  160.8340  204.4000  150.9020 N   0  0  0  0  0  0  0  0  0  0  0  0
  161.4440  203.5870  147.2360 C   0  0  0  0  0  2  0  0  0  0  0  0
  161.1080  206.4170  152.1950 C   0  0  0  0  0  0  0  0  0  0  0  0
  161.6600  210.1070  152.6960 C   0  0  0  0  0  2  0  0  0  0  0  0
  161.2690  204.3320  148.5330 C   0  0  0  0  0  0  0  0  0  0  0  0
  160.6660  201.3560  146.3740 C   0  0  0  0  0  2  0  0  0  0  0  0
  160.2960  208.5810  154.2690 C   0  0  2  0  0  3  0  0  0  0  0  0
  161.5530  206.3890  149.7900 C   0  0  0  0  0  0  0  0  0  0  0  0
  160.4320  202.2620  149.7860 C   0  0  0  0  0  2  0  0  0  0  0  0
  161.1620  205.7180  150.9680 C   0  0  0  0  0  0  0  0  0  0  0  0
  162.3260  207.6530  147.3870 C   0  0  0  0  0  3  0  0  0  0  0  0
  161.2040  206.2020  154.7080 C   0  0  0  0  0  2  0  0  0  0  0  0
  162.0170  206.3890  147.3780 N   0  0  0  0  0  0  0  0  0  0  0  0
  160.5660  205.7180  153.4150 C   0  0  0  0  0  2  0  0  0  0  0  0
  161.5240  208.7230  153.3570 C   0  0  1  0  0  3  0  0  0  0  0  0
  162.2700  208.4060  148.6070 N   0  0  0  0  0  2  0  0  0  0  0  0
  161.8120  208.4340  151.0320 C   0  0  0  0  0  0  0  0  0  0  0  0
  160.0060  209.8530  155.0550 C   0  0  0  0  0  2  0  0  0  0  0  0
  159.7160  209.5260  156.4420 N   0  0  0  0  0  2  0  0  0  0  0  0
  163.0770  210.3170  156.6900 C   0  0  0  0  0  2  0  0  0  0  0  0
  161.0290  211.5620  156.6610 C   0  0  0  0  0  2  0  0  0  0  0  0
  160.7090  210.2050  157.2590 C   0  0  0  0  0  3  0  0  0  0  0  0
  162.5250  211.7210  156.7860 C   0  0  0  0  0  2  0  0  0  0  0  0
  162.0030  209.4110  157.2590 C   0  0  0  0  0  2  0  0  0  0  0  0
  1 27  2  0  0  0  0
  2 14  1  0  0  0  0
  3  7  1  0  0  0  0
  4 18  2  0  0  0  0
  5 19  1  0  0  0  0
  5 11  1  0  0  0  0
  6 19  1  0  0  0  0
  7  6  1  0  0  0  0
  8 12  1  0  0  0  0
  9 13  2  0  0  0  0
  9 25  1  0  0  0  0
 11 20  2  0  0  0  0
 12 15  1  0  0  0  0
 13 24  1  0  0  0  0
 15  4  1  0  0  0  0
 15  5  2  0  0  0  0
 16  8  1  0  0  0  0
 16  3  1  0  0  0  0
 17 28  1  1  0  0  0
 17 10  1  0  0  0  0
 18  1  1  0  0  0  0
 18 20  1  0  0  0  0
 20 13  1  0  0  0  0
 21 26  1  0  0  0  0
 22 10  1  0  0  0  0
 23 21  2  0  0  0  0
 23  4  1  0  0  0  0
 24 22  1  0  0  0  0
 25 14  1  6  0  0  0
 25 17  1  0  0  0  0
 26  1  1  0  0  0  0
 27  2  1  0  0  0  0
 27  9  1  0  0  0  0
 28 29  1  0  0  0  0
 29 32  1  0  0  0  0
 30 33  1  0  0  0  0
 30 34  1  0  0  0  0
 31 33  1  0  0  0  0
 31 32  1  0  0  0  0
 32 34  1  0  0  0  0
M  END
>  <MODEL>
5

>  <REMARK>
 VINA RESULT:      -8.1      1.736      3.814
  Name = 
  3 active torsions:
  status: ('A' for Active; 'I' for Inactive)
    1  A    between atoms: C_17  and  C_28
    2  A    between atoms: C_28  and  N_29
    3  A    between atoms: N_29  and  C_32
                            x       y       z     vdW  Elec       q    Type
                         _______ _______ _______ _____ _____    ______ ____

>  <TORSDO>
F 3

$$$$
=
 OpenBabel11122414263D

 34 40  0  0  1  0  0  0  0  0999 V2000
  160.8900  207.4340  154.2370 C   0  0  0  0  0  0  0  0  0  0  0  0
  162.1040  205.6140  152.8960 C   0  0  0  0  0  2  0  0  0  0  0  0
  158.3200  213.8240  157.0880 N   0  0  0  0  0  2  0  0  0  0  0  0
  159.7230  209.2170  155.3830 C   0  0  0  0  0  0  0  0  0  0  0  0
  159.2340  211.2750  154.1860 C   0  0  0  0  0  0  0  0  0  0  0  0
  159.3290  213.6780  154.8730 C   0  0  0  0  0  2  0  0  0  0  0  0
  158.3300  214.4130  155.7560 C   0  0  0  0  0  2  0  0  0  0  0  0
  157.2230  211.6780  156.4840 C   0  0  0  0  0  2  0  0  0  0  0  0
  161.5730  207.7210  151.9380 C   0  0  0  0  0  0  0  0  0  0  0  0
  162.0210  208.4480  148.8100 C   0  0  0  0  0  2  0  0  0  0  0  0
  159.8390  210.7600  153.0800 N   0  0  0  0  0  0  0  0  0  0  0  0
  158.5960  211.0470  156.6640 C   0  0  0  0  0  2  0  0  0  0  0  0
  161.0240  209.0250  151.8960 C   0  0  0  0  0  0  0  0  0  0  0  0
  162.4080  205.5600  151.3980 C   0  0  0  0  0  2  0  0  0  0  0  0
  159.1560  210.5020  155.3760 C   0  0  0  0  0  0  0  0  0  0  0  0
  157.1230  212.9990  157.2520 C   0  0  0  0  0  2  0  0  0  0  0  0
  161.6300  207.1360  149.5070 C   0  0  2  0  0  3  0  0  0  0  0  0
  160.3410  208.7240  154.2250 C   0  0  0  0  0  0  0  0  0  0  0  0
  158.5990  212.6260  154.0580 C   0  0  0  0  0  2  0  0  0  0  0  0
  160.3980  209.5210  153.0620 C   0  0  0  0  0  0  0  0  0  0  0  0
  160.1830  207.1980  156.5950 C   0  0  0  0  0  3  0  0  0  0  0  0
  162.1850  209.6490  149.7430 C   0  0  0  0  0  2  0  0  0  0  0  0
  159.6770  208.3970  156.5670 N   0  0  0  0  0  0  0  0  0  0  0  0
  160.9620  209.8370  150.6280 C   0  0  0  0  0  2  0  0  0  0  0  0
  162.3280  207.0030  150.8690 C   0  0  1  0  0  3  0  0  0  0  0  0
  160.8140  206.6490  155.4310 N   0  0  0  0  0  0  0  0  0  0  0  0
  161.4950  206.9520  153.0770 C   0  0  1  0  0  3  0  0  0  0  0  0
  161.9580  205.9790  148.5710 C   0  0  0  0  0  2  0  0  0  0  0  0
  160.8540  205.0340  148.5430 N   0  0  0  0  0  2  0  0  0  0  0  0
  160.1130  201.6930  149.0630 C   0  0  0  0  0  2  0  0  0  0  0  0
  161.2040  202.9500  147.3370 C   0  0  0  0  0  2  0  0  0  0  0  0
  161.4270  203.7020  148.6360 C   0  0  0  0  0  3  0  0  0  0  0  0
  160.8280  201.5440  147.7390 C   0  0  0  0  0  2  0  0  0  0  0  0
  160.7200  202.9140  149.7260 C   0  0  0  0  0  2  0  0  0  0  0  0
  1 26  2  0  0  0  0
  3 16  1  0  0  0  0
  4 23  1  0  0  0  0
  5 15  1  0  0  0  0
  6  7  1  0  0  0  0
  7  3  1  0  0  0  0
  8 12  1  0  0  0  0
  8 16  1  0  0  0  0
  9 27  1  0  0  0  0
 10 17  1  0  0  0  0
 10 22  1  0  0  0  0
 11  5  2  0  0  0  0
 13  9  2  0  0  0  0
 13 20  1  0  0  0  0
 14  2  1  0  0  0  0
 15  4  2  0  0  0  0
 15 12  1  0  0  0  0
 17 28  1  6  0  0  0
 17 25  1  0  0  0  0
 18  1  1  0  0  0  0
 18  4  1  0  0  0  0
 19  5  1  0  0  0  0
 19  6  1  0  0  0  0
 20 11  1  0  0  0  0
 20 18  2  0  0  0  0
 22 24  1  0  0  0  0
 23 21  2  0  0  0  0
 24 13  1  0  0  0  0
 25 14  1  1  0  0  0
 25  9  1  0  0  0  0
 26 21  1  0  0  0  0
 27  2  1  6  0  0  0
 27  1  1  0  0  0  0
 29 28  1  0  0  0  0
 29 32  1  0  0  0  0
 30 34  1  0  0  0  0
 31 33  1  0  0  0  0
 31 32  1  0  0  0  0
 32 34  1  0  0  0  0
 33 30  1  0  0  0  0
M  END
>  <MODEL>
6

>  <REMARK>
 VINA RESULT:      -8.1      2.003      8.967
  Name = 
  3 active torsions:
  status: ('A' for Active; 'I' for Inactive)
    1  A    between atoms: C_17  and  C_28
    2  A    between atoms: C_28  and  N_29
    3  A    between atoms: N_29  and  C_32
                            x       y       z     vdW  Elec       q    Type
                         _______ _______ _______ _____ _____    ______ ____

>  <TORSDO>
F 3

$$$$
=
 OpenBabel11122414263D

 34 40  0  0  1  0  0  0  0  0999 V2000
  161.7600  206.8640  148.2730 C   0  0  0  0  0  0  0  0  0  0  0  0
  162.0750  209.0610  149.5620 C   0  0  0  0  0  2  0  0  0  0  0  0
  161.5600  199.7660  146.0090 N   0  0  0  0  0  2  0  0  0  0  0  0
  161.4140  204.7380  147.1730 C   0  0  0  0  0  0  0  0  0  0  0  0
  160.9190  202.7740  148.5180 C   0  0  0  0  0  0  0  0  0  0  0  0
  161.6840  200.3980  148.3610 C   0  0  0  0  0  2  0  0  0  0  0  0
  161.2100  199.3530  147.3620 C   0  0  0  0  0  2  0  0  0  0  0  0
  159.9500  201.6480  145.8190 C   0  0  0  0  0  2  0  0  0  0  0  0
  161.6350  207.0120  150.6810 C   0  0  0  0  0  0  0  0  0  0  0  0
  161.0820  206.7760  153.8670 C   0  0  0  0  0  2  0  0  0  0  0  0
  160.9940  203.5410  149.6410 N   0  0  0  0  0  0  0  0  0  0  0  0
  161.1600  202.5590  145.9690 C   0  0  0  0  0  2  0  0  0  0  0  0
  161.3530  205.6300  150.7900 C   0  0  0  0  0  0  0  0  0  0  0  0
  161.8190  209.3570  151.0410 C   0  0  0  0  0  2  0  0  0  0  0  0
  161.1240  203.3650  147.2410 C   0  0  0  0  0  0  0  0  0  0  0  0
  160.3670  200.2620  145.3220 C   0  0  0  0  0  2  0  0  0  0  0  0
  160.7290  207.8710  152.8480 C   0  0  2  0  0  3  0  0  0  0  0  0
  161.4870  205.4920  148.3520 C   0  0  0  0  0  0  0  0  0  0  0  0
  160.5360  201.3360  148.6880 C   0  0  0  0  0  2  0  0  0  0  0  0
  161.2760  204.8700  149.6020 C   0  0  0  0  0  0  0  0  0  0  0  0
  161.8950  206.6540  145.8120 C   0  0  0  0  0  3  0  0  0  0  0  0
  161.7780  205.5490  153.2780 C   0  0  0  0  0  2  0  0  0  0  0  0
  161.6380  205.3820  145.9040 N   0  0  0  0  0  0  0  0  0  0  0  0
  160.9980  204.9780  152.1030 C   0  0  0  0  0  2  0  0  0  0  0  0
  161.8230  208.0060  151.7790 C   0  0  1  0  0  3  0  0  0  0  0  0
  161.9660  207.4670  146.9920 N   0  0  0  0  0  2  0  0  0  0  0  0
  161.8220  207.6060  149.4530 C   0  0  0  0  0  0  0  0  0  0  0  0
  160.4920  209.1720  153.6040 C   0  0  0  0  0  2  0  0  0  0  0  0
  159.4010  209.9120  152.9920 N   0  0  0  0  0  2  0  0  0  0  0  0
  159.0670  213.2760  152.2500 C   0  0  0  0  0  2  0  0  0  0  0  0
  157.9980  211.7470  153.7550 C   0  0  0  0  0  2  0  0  0  0  0  0
  159.4180  211.2500  153.5590 C   0  0  0  0  0  3  0  0  0  0  0  0
  158.0100  213.1950  153.3280 C   0  0  0  0  0  2  0  0  0  0  0  0
  160.0890  212.2090  152.5910 C   0  0  0  0  0  2  0  0  0  0  0  0
  1 18  1  0  0  0  0
  1 27  2  0  0  0  0
  2 14  1  0  0  0  0
  3  7  1  0  0  0  0
  4 15  1  0  0  0  0
  4 18  2  0  0  0  0
  5 19  1  0  0  0  0
  5 11  1  0  0  0  0
  6 19  1  0  0  0  0
  7  6  1  0  0  0  0
  8 12  1  0  0  0  0
  9 13  2  0  0  0  0
  9 25  1  0  0  0  0
 12 15  1  0  0  0  0
 13 24  1  0  0  0  0
 15  5  2  0  0  0  0
 16  8  1  0  0  0  0
 16  3  1  0  0  0  0
 17 28  1  1  0  0  0
 17 10  1  0  0  0  0
 18 20  1  0  0  0  0
 20 11  2  0  0  0  0
 20 13  1  0  0  0  0
 21 23  2  0  0  0  0
 21 26  1  0  0  0  0
 22 10  1  0  0  0  0
 23  4  1  0  0  0  0
 24 22  1  0  0  0  0
 25 14  1  6  0  0  0
 25 17  1  0  0  0  0
 26  1  1  0  0  0  0
 27  2  1  0  0  0  0
 27  9  1  0  0  0  0
 29 32  1  0  0  0  0
 29 28  1  0  0  0  0
 30 34  1  0  0  0  0
 30 33  1  0  0  0  0
 32 31  1  0  0  0  0
 33 31  1  0  0  0  0
 34 32  1  0  0  0  0
M  END
>  <MODEL>
7

>  <REMARK>
 VINA RESULT:      -7.7      2.235      4.391
  Name = 
  3 active torsions:
  status: ('A' for Active; 'I' for Inactive)
    1  A    between atoms: C_17  and  C_28
    2  A    between atoms: C_28  and  N_29
    3  A    between atoms: N_29  and  C_32
                            x       y       z     vdW  Elec       q    Type
                         _______ _______ _______ _____ _____    ______ ____

>  <TORSDO>
F 3

$$$$
=
 OpenBabel11122414263D

 34 40  0  0  1  0  0  0  0  0999 V2000
  160.9120  205.3420  152.5720 C   0  0  0  0  0  0  0  0  0  0  0  0
  160.6770  206.2170  154.9730 C   0  0  0  0  0  2  0  0  0  0  0  0
  160.7390  204.3220  145.1910 N   0  0  0  0  0  2  0  0  0  0  0  0
  161.1720  204.6430  150.2710 C   0  0  0  0  0  0  0  0  0  0  0  0
  161.4380  206.3310  148.5420 C   0  0  0  0  0  0  0  0  0  0  0  0
  160.5140  206.5190  146.2250 C   0  0  0  0  0  2  0  0  0  0  0  0
  160.9730  205.7470  144.9970 C   0  0  0  0  0  2  0  0  0  0  0  0
  162.4900  203.9390  146.9110 C   0  0  0  0  0  2  0  0  0  0  0  0
  160.8960  207.6930  153.1250 C   0  0  0  0  0  0  0  0  0  0  0  0
  161.2290  210.9060  153.4090 C   0  0  0  0  0  2  0  0  0  0  0  0
  161.3480  207.3010  149.4940 N   0  0  0  0  0  0  0  0  0  0  0  0
  161.3420  203.8440  147.9060 C   0  0  0  0  0  2  0  0  0  0  0  0
  161.0700  208.0540  151.7680 C   0  0  0  0  0  0  0  0  0  0  0  0
  160.8600  207.6400  155.5040 C   0  0  0  0  0  2  0  0  0  0  0  0
  161.3560  204.9620  148.9150 C   0  0  0  0  0  0  0  0  0  0  0  0
  162.0060  203.6520  145.4880 C   0  0  0  0  0  2  0  0  0  0  0  0
  161.7240  209.7470  154.2880 C   0  0  2  0  0  3  0  0  0  0  0  0
  161.0800  205.6700  151.2200 C   0  0  2  0  0  3  0  0  0  0  0  0
  161.7030  206.7690  147.1350 C   0  0  0  0  0  2  0  0  0  0  0  0
  161.1660  207.0180  150.8120 C   0  0  0  0  0  0  0  0  0  0  0  0
  160.9170  202.9480  151.9500 C   0  0  0  0  0  3  0  0  0  0  0  0
  160.4840  210.4810  152.1430 C   0  0  0  0  0  2  0  0  0  0  0  0
  161.0760  203.2700  150.6990 N   0  0  0  0  0  0  0  0  0  0  0  0
  161.2930  209.4790  151.3320 C   0  0  0  0  0  2  0  0  0  0  0  0
  160.7110  208.5920  154.3030 C   0  0  1  0  0  3  0  0  0  0  0  0
  160.8310  203.9660  152.9570 N   0  0  0  0  0  0  0  0  0  0  0  0
  160.8300  206.3720  153.5090 C   0  0  0  0  0  0  0  0  0  0  0  0
  162.0060  210.2900  155.6830 C   0  0  0  0  0  2  0  0  0  0  0  0
  163.4190  210.1450  155.9970 N   0  0  0  0  0  2  0  0  0  0  0  0
  166.0830  212.0900  157.0430 C   0  0  0  0  0  2  0  0  0  0  0  0
  165.1630  211.4560  154.9230 C   0  0  0  0  0  2  0  0  0  0  0  0
  164.0140  211.4680  155.9130 C   0  0  0  0  0  3  0  0  0  0  0  0
  166.2560  212.2850  155.5550 C   0  0  0  0  0  2  0  0  0  0  0  0
  164.6020  211.8520  157.2600 C   0  0  0  0  0  2  0  0  0  0  0  0
  1 26  1  0  0  0  0
  1 27  2  0  0  0  0
  2 14  1  0  0  0  0
  3 16  1  0  0  0  0
  4 23  2  0  0  0  0
  5 15  2  0  0  0  0
  5 11  1  0  0  0  0
  6 19  1  0  0  0  0
  7  3  1  0  0  0  0
  7  6  1  0  0  0  0
  8 12  1  0  0  0  0
  9 27  1  0  0  0  0
  9 25  1  0  0  0  0
 10 17  1  0  0  0  0
 11 20  2  0  0  0  0
 12 15  1  0  0  0  0
 13  9  2  0  0  0  0
 15  4  1  0  0  0  0
 16  8  1  0  0  0  0
 17 25  1  0  0  0  0
 17 28  1  1  0  0  0
 18  4  1  1  0  0  0
 18  1  1  0  0  0  0
 19  5  1  0  0  0  0
 20 18  1  0  0  0  0
 20 13  1  0  0  0  0
 21 26  2  0  0  0  0
 22 10  1  0  0  0  0
 23 21  1  0  0  0  0
 24 13  1  0  0  0  0
 24 22  1  0  0  0  0
 25 14  1  1  0  0  0
 27  2  1  0  0  0  0
 28 29  1  0  0  0  0
 30 34  1  0  0  0  0
 31 33  1  0  0  0  0
 31 32  1  0  0  0  0
 32 29  1  0  0  0  0
 32 34  1  0  0  0  0
 33 30  1  0  0  0  0
M  END
>  <MODEL>
8

>  <REMARK>
 VINA RESULT:      -7.1      1.541      2.436
  Name = 
  3 active torsions:
  status: ('A' for Active; 'I' for Inactive)
    1  A    between atoms: C_17  and  C_28
    2  A    between atoms: C_28  and  N_29
    3  A    between atoms: N_29  and  C_32
                            x       y       z     vdW  Elec       q    Type
                         _______ _______ _______ _____ _____    ______ ____

>  <TORSDO>
F 3

$$$$
