=
 OpenBabel11122412563D

 32 37  0  0  1  0  0  0  0  0999 V2000
  160.9680  201.0670  149.9490 C   0  0  0  0  0  2  0  0  0  0  0  0
  161.1120  206.2930  151.8790 C   0  0  0  0  0  0  0  0  0  0  0  0
  162.3950  209.6050  148.5510 C   0  0  0  0  0  2  0  0  0  0  0  0
  162.2160  210.6880  149.5770 C   0  0  0  0  0  3  0  0  0  0  0  0
  160.6980  207.0090  154.2790 C   0  0  0  0  0  0  0  0  0  0  0  0
  160.7210  208.0820  155.2640 C   0  0  0  0  0  0  0  0  0  0  0  0
  161.2080  203.9400  151.1410 C   0  0  0  0  0  0  0  0  0  0  0  0
  160.9650  205.6880  149.3750 C   0  0  0  0  0  2  0  0  0  0  0  0
  161.0330  210.1200  156.0410 N   0  0  0  0  0  0  0  0  0  0  0  0
  161.3030  203.2500  148.7200 C   0  0  0  0  0  2  0  0  0  0  0  0
  161.3720  208.4850  148.7400 C   0  0  0  0  0  2  0  0  0  0  0  0
  161.1850  206.7070  150.4640 C   0  0  0  0  0  0  0  0  0  0  0  0
  161.3790  208.0020  150.1680 C   0  0  0  0  0  0  0  0  0  0  0  0
  161.3880  208.6850  152.5420 C   0  0  0  0  0  0  0  0  0  0  0  0
  160.5860  209.3510  157.0570 C   0  0  0  0  0  3  0  0  0  0  0  0
  161.9230  201.6700  150.7870 O   0  0  0  0  0  0  0  0  0  0  0  0
  161.1690  204.2650  149.8240 C   0  0  0  0  0  0  0  0  0  0  0  0
  160.3730  208.0510  156.6040 C   0  0  0  0  0  3  0  0  0  0  0  0
  161.2110  202.5190  151.6430 C   0  0  0  0  0  2  0  0  0  0  0  0
  160.3800  202.0500  148.9260 C   0  0  1  0  0  3  0  0  0  0  0  0
  161.8620  210.4030  150.8330 C   0  0  0  0  0  3  0  0  0  0  0  0
  161.5440  209.0150  151.2430 C   0  0  0  0  0  0  0  0  0  0  0  0
  161.6060  209.7560  153.6020 C   0  0  0  0  0  2  0  0  0  0  0  0
  161.1300  204.9890  152.1720 C   0  0  0  0  0  3  0  0  0  0  0  0
  160.3180  205.8570  154.6250 O   0  0  0  0  0  0  0  0  0  0  0  0
  161.3780  211.5280  156.1360 C   0  0  0  0  0  1  0  0  0  0  0  0
  161.0820  207.3090  152.9130 N   0  0  0  0  0  0  0  0  0  0  0  0
  161.1070  209.3460  154.9490 C   0  0  0  0  0  0  0  0  0  0  0  0
  160.1660  201.3600  147.6640 N   0  0  0  0  0  2  0  0  0  0  0  0
  160.6320  201.8770  146.4160 C   0  0  0  0  0  0  0  0  0  0  0  0
  161.2350  202.9810  146.3610 O   0  0  0  0  0  0  0  0  0  0  0  0
  160.3960  201.1050  145.1670 C   0  0  0  0  0  1  0  0  0  0  0  0
  1 16  1  0  0  0  0
  2 24  2  0  0  0  0
  2 27  1  0  0  0  0
  3 11  1  0  0  0  0
  3  4  1  0  0  0  0
  4 21  2  0  0  0  0
  5 25  2  0  0  0  0
  5  6  1  0  0  0  0
  6 18  1  0  0  0  0
  7 19  1  0  0  0  0
  7 24  1  0  0  0  0
  8 17  1  0  0  0  0
  8 12  1  0  0  0  0
  9 26  1  0  0  0  0
  9 15  1  0  0  0  0
 10 20  1  0  0  0  0
 10 17  1  0  0  0  0
 11 13  1  0  0  0  0
 12  2  1  0  0  0  0
 13 12  2  0  0  0  0
 13 22  1  0  0  0  0
 14 27  1  0  0  0  0
 14 23  1  0  0  0  0
 16 19  1  0  0  0  0
 17  7  2  0  0  0  0
 18 15  2  0  0  0  0
 20 29  1  6  0  0  0
 20  1  1  0  0  0  0
 21 22  1  0  0  0  0
 22 14  2  0  0  0  0
 23 28  1  0  0  0  0
 27  5  1  0  0  0  0
 28  6  2  0  0  0  0
 28  9  1  0  0  0  0
 30 29  1  0  0  0  0
 31 30  2  0  0  0  0
 32 30  1  0  0  0  0
M  END
>  <MODEL>
1

>  <REMARK>
 VINA RESULT:     -10.6      0.000      0.000
  Name = 
  1 active torsions:
  status: ('A' for Active; 'I' for Inactive)
    1  A    between atoms: C_20  and  N_29
                            x       y       z     vdW  Elec       q    Type
                         _______ _______ _______ _____ _____    ______ ____

>  <TORSDO>
F 1

$$$$
=
 OpenBabel11122412563D

 32 37  0  0  1  0  0  0  0  0999 V2000
  160.6040  208.2250  157.0710 C   0  0  0  0  0  2  0  0  0  0  0  0
  161.1300  206.0210  151.9800 C   0  0  1  0  0  3  0  0  0  0  0  0
  161.7010  209.3130  148.4400 C   0  0  0  0  0  2  0  0  0  0  0  0
  161.8180  208.1990  147.4380 C   0  0  0  0  0  3  0  0  0  0  0  0
  160.9750  203.5550  151.3990 C   0  0  0  0  0  0  0  0  0  0  0  0
  160.9160  202.5380  150.3570 C   0  0  0  0  0  0  0  0  0  0  0  0
  160.7050  206.9340  154.2330 C   0  0  0  0  0  0  0  0  0  0  0  0
  161.8620  208.4190  152.5920 C   0  0  0  0  0  3  0  0  0  0  0  0
  160.8760  201.7280  148.3090 N   0  0  0  0  0  0  0  0  0  0  0  0
  161.1690  209.3270  154.8690 C   0  0  0  0  0  2  0  0  0  0  0  0
  162.3290  208.9270  149.7790 C   0  0  0  0  0  2  0  0  0  0  0  0
  161.5770  207.3630  151.5550 C   0  0  0  0  0  0  0  0  0  0  0  0
  161.7890  207.6010  150.2510 C   0  0  0  0  0  0  0  0  0  0  0  0
  161.2410  205.2830  149.5970 C   0  0  0  0  0  0  0  0  0  0  0  0
  160.8100  200.6900  149.1670 C   0  0  0  0  0  3  0  0  0  0  0  0
  159.6140  207.6500  156.2550 O   0  0  0  0  0  0  0  0  0  0  0  0
  161.2070  208.1570  153.9220 C   0  0  0  0  0  0  0  0  0  0  0  0
  160.8350  201.1610  150.4780 C   0  0  0  0  0  3  0  0  0  0  0  0
  160.2210  206.5650  155.6120 C   0  0  0  0  0  2  0  0  0  0  0  0
  161.6810  208.9600  156.2600 C   0  0  1  0  0  3  0  0  0  0  0  0
  161.7100  206.9200  147.8080 C   0  0  0  0  0  3  0  0  0  0  0  0
  161.5570  206.5430  149.2330 C   0  0  0  0  0  0  0  0  0  0  0  0
  160.9790  204.2500  148.5090 C   0  0  0  0  0  2  0  0  0  0  0  0
  160.7210  205.8460  153.2410 C   0  0  0  0  0  3  0  0  0  0  0  0
  160.9540  203.2050  152.6100 O   0  0  0  0  0  0  0  0  0  0  0  0
  160.8600  201.6280  146.8590 C   0  0  0  0  0  1  0  0  0  0  0  0
  161.0920  204.9470  151.0070 N   0  0  0  0  0  0  0  0  0  0  0  0
  160.9470  202.8530  149.0350 C   0  0  0  0  0  0  0  0  0  0  0  0
  162.0890  210.1590  156.9760 N   0  0  0  0  0  2  0  0  0  0  0  0
  163.0970  211.0440  156.4840 C   0  0  0  0  0  0  0  0  0  0  0  0
  163.6960  210.8000  155.4040 O   0  0  0  0  0  0  0  0  0  0  0  0
  163.4460  212.2620  157.2610 C   0  0  0  0  0  1  0  0  0  0  0  0
  2 24  1  6  0  0  0
  3 11  1  0  0  0  0
  4 21  2  0  0  0  0
  4  3  1  0  0  0  0
  5 25  2  0  0  0  0
  6 18  1  0  0  0  0
  6  5  1  0  0  0  0
  7 19  1  0  0  0  0
  8 17  2  0  0  0  0
  9 28  1  0  0  0  0
  9 15  1  0  0  0  0
 10 20  1  0  0  0  0
 11 13  1  0  0  0  0
 12  2  1  0  0  0  0
 12  8  1  0  0  0  0
 13 12  2  0  0  0  0
 14 27  1  0  0  0  0
 15 18  2  0  0  0  0
 16  1  1  0  0  0  0
 17  7  1  0  0  0  0
 17 10  1  0  0  0  0
 19 16  1  0  0  0  0
 20 29  1  1  0  0  0
 20  1  1  0  0  0  0
 21 22  1  0  0  0  0
 22 14  2  0  0  0  0
 22 13  1  0  0  0  0
 23 28  1  0  0  0  0
 23 14  1  0  0  0  0
 24  7  2  0  0  0  0
 26  9  1  0  0  0  0
 27  5  1  0  0  0  0
 27  2  1  0  0  0  0
 28  6  2  0  0  0  0
 30 29  1  0  0  0  0
 30 32  1  0  0  0  0
 31 30  2  0  0  0  0
M  END
>  <MODEL>
2

>  <REMARK>
 VINA RESULT:      -9.6      1.730      8.059
  Name = 
  1 active torsions:
  status: ('A' for Active; 'I' for Inactive)
    1  A    between atoms: C_20  and  N_29
                            x       y       z     vdW  Elec       q    Type
                         _______ _______ _______ _____ _____    ______ ____

>  <TORSDO>
F 1

$$$$
=
 OpenBabel11122412563D

 32 37  0  0  1  0  0  0  0  0999 V2000
  161.7660  210.8790  153.3500 C   0  0  0  0  0  2  0  0  0  0  0  0
  161.1690  206.4460  150.0260 C   0  0  1  0  0  3  0  0  0  0  0  0
  161.3450  202.1770  152.3580 C   0  0  0  0  0  2  0  0  0  0  0  0
  161.1010  201.4690  151.0550 C   0  0  0  0  0  3  0  0  0  0  0  0
  160.9480  206.4970  147.4980 C   0  0  0  0  0  0  0  0  0  0  0  0
  160.8970  205.7420  146.2520 C   0  0  0  0  0  0  0  0  0  0  0  0
  161.6120  208.4420  151.4090 C   0  0  0  0  0  0  0  0  0  0  0  0
  160.8080  206.3880  152.5810 C   0  0  0  0  0  3  0  0  0  0  0  0
  160.9170  203.9640  144.9520 N   0  0  0  0  0  0  0  0  0  0  0  0
  161.5140  208.4320  153.9270 C   0  0  0  0  0  2  0  0  0  0  0  0
  160.5880  203.5040  152.4200 C   0  0  0  0  0  2  0  0  0  0  0  0
  160.9730  205.6690  151.2660 C   0  0  0  0  0  0  0  0  0  0  0  0
  160.8760  204.3320  151.1940 C   0  0  0  0  0  0  0  0  0  0  0  0
  161.0710  204.3130  148.7310 C   0  0  0  0  0  0  0  0  0  0  0  0
  160.7630  205.0510  144.1670 C   0  0  0  0  0  3  0  0  0  0  0  0
  162.6920  210.3240  152.4490 O   0  0  0  0  0  0  0  0  0  0  0  0
  161.3370  207.7980  152.5730 C   0  0  0  0  0  0  0  0  0  0  0  0
  160.7440  206.2010  144.9550 C   0  0  0  0  0  3  0  0  0  0  0  0
  161.9510  209.9080  151.3360 C   0  0  0  0  0  2  0  0  0  0  0  0
  160.8720  209.8160  154.0030 C   0  0  1  0  0  3  0  0  0  0  0  0
  160.9770  202.1460  149.9100 C   0  0  0  0  0  3  0  0  0  0  0  0
  160.9860  203.6270  149.8900 C   0  0  0  0  0  0  0  0  0  0  0  0
  161.2190  203.5380  147.4290 C   0  0  0  0  0  2  0  0  0  0  0  0
  161.4730  207.7450  150.1200 C   0  0  0  0  0  3  0  0  0  0  0  0
  160.8440  207.7530  147.4680 O   0  0  0  0  0  0  0  0  0  0  0  0
  160.9970  202.5910  144.4850 C   0  0  0  0  0  1  0  0  0  0  0  0
  161.0840  205.7710  148.7460 N   0  0  0  0  0  0  0  0  0  0  0  0
  160.9920  204.3870  146.2220 C   0  0  0  0  0  0  0  0  0  0  0  0
  160.6270  210.1790  155.3900 N   0  0  0  0  0  2  0  0  0  0  0  0
  159.4140  210.7970  155.8220 C   0  0  0  0  0  0  0  0  0  0  0  0
  158.5050  211.0760  154.9970 O   0  0  0  0  0  0  0  0  0  0  0  0
  159.2260  211.1200  157.2610 C   0  0  0  0  0  1  0  0  0  0  0  0
  1 20  1  0  0  0  0
  2 24  1  1  0  0  0
  2 12  1  0  0  0  0
  3 11  1  0  0  0  0
  4  3  1  0  0  0  0
  5 27  1  0  0  0  0
  6  5  1  0  0  0  0
  7 17  1  0  0  0  0
  9 28  1  0  0  0  0
 10 20  1  0  0  0  0
 12  8  1  0  0  0  0
 13 12  2  0  0  0  0
 13 11  1  0  0  0  0
 14 27  1  0  0  0  0
 14 22  2  0  0  0  0
 15  9  1  0  0  0  0
 15 18  2  0  0  0  0
 16  1  1  0  0  0  0
 17  8  2  0  0  0  0
 17 10  1  0  0  0  0
 18  6  1  0  0  0  0
 19  7  1  0  0  0  0
 19 16  1  0  0  0  0
 20 29  1  1  0  0  0
 21  4  2  0  0  0  0
 22 21  1  0  0  0  0
 22 13  1  0  0  0  0
 23 14  1  0  0  0  0
 24  7  2  0  0  0  0
 25  5  2  0  0  0  0
 26  9  1  0  0  0  0
 27  2  1  0  0  0  0
 28  6  2  0  0  0  0
 28 23  1  0  0  0  0
 29 30  1  0  0  0  0
 30 32  1  0  0  0  0
 31 30  2  0  0  0  0
M  END
>  <MODEL>
3

>  <REMARK>
 VINA RESULT:      -8.6      2.526      8.992
  Name = 
  1 active torsions:
  status: ('A' for Active; 'I' for Inactive)
    1  A    between atoms: C_20  and  N_29
                            x       y       z     vdW  Elec       q    Type
                         _______ _______ _______ _____ _____    ______ ____

>  <TORSDO>
F 1

$$$$
=
 OpenBabel11122412563D

 32 37  0  0  1  0  0  0  0  0999 V2000
  161.8780  212.5260  149.0110 C   0  0  0  0  0  2  0  0  0  0  0  0
  161.2910  206.9840  149.0540 C   0  0  1  0  0  3  0  0  0  0  0  0
  161.3130  205.0190  153.5070 C   0  0  0  0  0  2  0  0  0  0  0  0
  161.0950  203.6630  152.8970 C   0  0  0  0  0  3  0  0  0  0  0  0
  161.1460  205.4840  147.0110 C   0  0  0  0  0  0  0  0  0  0  0  0
  161.1160  204.1270  146.4820 C   0  0  0  0  0  0  0  0  0  0  0  0
  161.7330  209.4100  148.9510 C   0  0  0  0  0  0  0  0  0  0  0  0
  160.8540  208.4930  151.1010 C   0  0  0  0  0  3  0  0  0  0  0  0
  161.1390  201.9250  146.5340 N   0  0  0  0  0  0  0  0  0  0  0  0
  161.5600  210.9360  150.9490 C   0  0  0  0  0  2  0  0  0  0  0  0
  160.5820  206.1070  152.7220 C   0  0  0  0  0  2  0  0  0  0  0  0
  161.0430  207.1220  150.5030 C   0  0  0  0  0  0  0  0  0  0  0  0
  160.9220  206.0180  151.2560 C   0  0  0  0  0  0  0  0  0  0  0  0
  161.1880  204.5030  149.3220 C   0  0  0  0  0  0  0  0  0  0  0  0
  161.0300  202.3090  145.2450 C   0  0  0  0  0  3  0  0  0  0  0  0
  162.8180  211.5390  148.6680 O   0  0  0  0  0  0  0  0  0  0  0  0
  161.4110  209.6080  150.2560 C   0  0  0  0  0  0  0  0  0  0  0  0
  161.0100  203.7000  145.1690 C   0  0  0  0  0  3  0  0  0  0  0  0
  162.1030  210.5290  148.0120 C   0  0  0  0  0  2  0  0  0  0  0  0
  160.9440  212.0780  150.1440 C   0  0  1  0  0  3  0  0  0  0  0  0
  161.0180  203.5020  151.5730 C   0  0  0  0  0  3  0  0  0  0  0  0
  161.0570  204.6640  150.6560 C   0  0  0  0  0  0  0  0  0  0  0  0
  161.3600  203.0960  148.7680 C   0  0  0  0  0  2  0  0  0  0  0  0
  161.6180  208.0720  148.3480 C   0  0  0  0  0  3  0  0  0  0  0  0
  161.0670  206.4620  146.2190 O   0  0  0  0  0  0  0  0  0  0  0  0
  161.2050  200.5510  147.0030 C   0  0  0  0  0  1  0  0  0  0  0  0
  161.2300  205.6690  148.4480 N   0  0  0  0  0  0  0  0  0  0  0  0
  161.1840  203.0340  147.2860 C   0  0  0  0  0  0  0  0  0  0  0  0
  160.6660  213.2100  151.0150 N   0  0  0  0  0  2  0  0  0  0  0  0
  159.5090  213.2730  151.8510 C   0  0  0  0  0  0  0  0  0  0  0  0
  158.6610  212.3430  151.8470 O   0  0  0  0  0  0  0  0  0  0  0  0
  159.3030  214.4530  152.7310 C   0  0  0  0  0  1  0  0  0  0  0  0
  1 20  1  0  0  0  0
  2 24  1  1  0  0  0
  2 12  1  0  0  0  0
  4  3  1  0  0  0  0
  5 27  1  0  0  0  0
  6  5  1  0  0  0  0
  6 28  2  0  0  0  0
  7 17  1  0  0  0  0
  9 26  1  0  0  0  0
  9 28  1  0  0  0  0
 11  3  1  0  0  0  0
 12  8  1  0  0  0  0
 12 13  2  0  0  0  0
 13 11  1  0  0  0  0
 14 22  2  0  0  0  0
 15  9  1  0  0  0  0
 16  1  1  0  0  0  0
 17 10  1  0  0  0  0
 17  8  2  0  0  0  0
 18 15  2  0  0  0  0
 18  6  1  0  0  0  0
 19 16  1  0  0  0  0
 19  7  1  0  0  0  0
 20 10  1  0  0  0  0
 20 29  1  1  0  0  0
 21  4  2  0  0  0  0
 22 13  1  0  0  0  0
 22 21  1  0  0  0  0
 23 14  1  0  0  0  0
 24  7  2  0  0  0  0
 25  5  2  0  0  0  0
 27  2  1  0  0  0  0
 27 14  1  0  0  0  0
 28 23  1  0  0  0  0
 29 30  1  0  0  0  0
 30 32  1  0  0  0  0
 31 30  2  0  0  0  0
M  END
>  <MODEL>
4

>  <REMARK>
 VINA RESULT:      -8.0      3.085      9.020
  Name = 
  1 active torsions:
  status: ('A' for Active; 'I' for Inactive)
    1  A    between atoms: C_20  and  N_29
                            x       y       z     vdW  Elec       q    Type
                         _______ _______ _______ _____ _____    ______ ____

>  <TORSDO>
F 1

$$$$
