=
 OpenBabel11122413153D

 31 35  0  0  1  0  0  0  0  0999 V2000
  160.9290  206.9570  147.1460 C   0  0  0  0  0  0  0  0  0  0  0  0
  160.7800  204.9490  150.3230 N   0  0  0  0  0  0  0  0  0  0  0  0
  160.8650  203.5380  150.0040 C   0  0  0  0  0  0  0  0  0  0  0  0
  161.0550  201.7180  148.4000 C   0  0  0  0  0  0  0  0  0  0  0  0
  161.1160  205.9630  149.3520 C   0  0  0  0  0  0  0  0  0  0  0  0
  161.7980  207.9820  147.5310 C   0  0  0  0  0  3  0  0  0  0  0  0
  160.9030  203.0780  148.6780 C   0  0  0  0  0  3  0  0  0  0  0  0
  162.1890  205.9840  152.0420 C   0  0  2  0  0  3  0  0  0  0  0  0
  160.4190  206.9370  145.8920 F   0  0  0  0  0  0  0  0  0  0  0  0
  160.9510  203.0390  152.3710 O   0  0  0  0  0  0  0  0  0  0  0  0
  161.0980  201.1650  146.7400 Cl  0  0  0  0  0  0  0  0  0  0  0  0
  162.4910  207.0430  151.0760 N   0  0  0  0  0  2  0  0  0  0  0  0
  160.8110  205.3930  151.7280 C   0  0  2  0  0  3  0  0  0  0  0  0
  160.5860  205.9510  148.0540 C   0  0  0  0  0  3  0  0  0  0  0  0
  161.1890  200.8010  149.4450 C   0  0  0  0  0  3  0  0  0  0  0  0
  161.9850  207.0020  149.7360 C   0  0  0  0  0  0  0  0  0  0  0  0
  162.3230  208.0080  148.8270 C   0  0  0  0  0  3  0  0  0  0  0  0
  160.3810  204.2990  152.7090 C   0  0  0  0  0  2  0  0  0  0  0  0
  160.9850  202.6040  151.0480 C   0  0  0  0  0  0  0  0  0  0  0  0
  161.1570  201.2450  150.7680 C   0  0  0  0  0  3  0  0  0  0  0  0
  160.7330  208.2790  152.9020 O   0  0  0  0  0  0  0  0  0  0  0  0
  161.4450  207.6840  153.7580 C   0  0  0  0  0  0  0  0  0  0  0  0
  162.2080  206.5350  153.3900 N   0  0  0  0  0  2  0  0  0  0  0  0
  159.2160  209.9020  155.8710 C   0  0  1  0  0  3  0  0  0  0  0  0
  160.3360  207.6600  156.0150 C   0  0  0  0  0  2  0  0  0  0  0  0
  162.6660  210.1820  154.4740 O   0  0  0  0  0  1  0  0  0  0  0  0
  157.9760  210.5800  155.5450 N   0  0  0  0  0  1  0  0  0  0  0  0
  159.0370  208.3980  155.6860 C   0  0  0  0  0  2  0  0  0  0  0  0
  161.6420  209.7060  155.2930 C   0  0  2  0  0  3  0  0  0  0  0  0
  161.5090  208.1780  155.1750 C   0  0  2  0  0  3  0  0  0  0  0  0
  160.3300  210.4170  154.9650 C   0  0  0  0  0  2  0  0  0  0  0  0
  1  6  2  0  0  0  0
  1 14  1  0  0  0  0
  2 13  1  0  0  0  0
  3  2  1  0  0  0  0
  3 19  1  0  0  0  0
  4  7  1  0  0  0  0
  4 15  2  0  0  0  0
  5 16  1  0  0  0  0
  5  2  1  0  0  0  0
  6 17  1  0  0  0  0
  7  3  2  0  0  0  0
  8 23  1  1  0  0  0
  9  1  1  0  0  0  0
 10 18  1  0  0  0  0
 11  4  1  0  0  0  0
 12  8  1  0  0  0  0
 13  8  1  0  0  0  0
 13 18  1  1  0  0  0
 14  5  2  0  0  0  0
 15 20  1  0  0  0  0
 16 12  1  0  0  0  0
 17 16  2  0  0  0  0
 19 10  1  0  0  0  0
 20 19  2  0  0  0  0
 21 22  2  0  0  0  0
 23 22  1  0  0  0  0
 24 27  1  6  0  0  0
 28 24  1  0  0  0  0
 28 25  1  0  0  0  0
 29 26  1  6  0  0  0
 30 22  1  6  0  0  0
 30 29  1  0  0  0  0
 30 25  1  0  0  0  0
 31 29  1  0  0  0  0
 31 24  1  0  0  0  0
M  END
>  <MODEL>
1

>  <REMARK>
 VINA RESULT:      -8.2      0.000      0.000
  Name = 
  2 active torsions:
  status: ('A' for Active; 'I' for Inactive)
    1  A    between atoms: C_5  and  C_30
    2  A    between atoms: C_10  and  N_16
                            x       y       z     vdW  Elec       q    Type
                         _______ _______ _______ _____ _____    ______ ____

>  <TORSDO>
F 2

$$$$
=
 OpenBabel11122413153D

 31 35  0  0  1  0  0  0  0  0999 V2000
  161.1260  204.4200  145.8220 C   0  0  0  0  0  0  0  0  0  0  0  0
  160.9460  205.9960  149.2310 N   0  0  0  0  0  0  0  0  0  0  0  0
  160.9410  204.9580  150.2410 C   0  0  0  0  0  0  0  0  0  0  0  0
  160.9820  202.6140  150.8970 C   0  0  0  0  0  0  0  0  0  0  0  0
  161.3140  205.7170  147.8640 C   0  0  0  0  0  0  0  0  0  0  0  0
  162.0620  205.2520  145.2030 C   0  0  0  0  0  3  0  0  0  0  0  0
  160.9160  203.5950  149.9040 C   0  0  0  0  0  3  0  0  0  0  0  0
  162.4590  207.9220  149.3500 C   0  0  2  0  0  3  0  0  0  0  0  0
  160.5810  203.3860  145.1360 F   0  0  0  0  0  0  0  0  0  0  0  0
  161.0620  206.6640  151.9540 O   0  0  0  0  0  0  0  0  0  0  0  0
  160.9470  200.9210  150.4550 Cl  0  0  0  0  0  0  0  0  0  0  0  0
  162.7960  207.6730  147.9470 N   0  0  0  0  0  2  0  0  0  0  0  0
  161.0410  207.4130  149.6270 C   0  0  2  0  0  3  0  0  0  0  0  0
  160.7490  204.6520  147.1480 C   0  0  0  0  0  3  0  0  0  0  0  0
  161.0910  202.9840  152.2390 C   0  0  0  0  0  3  0  0  0  0  0  0
  162.2520  206.5560  147.2330 C   0  0  0  0  0  0  0  0  0  0  0  0
  162.6220  206.3230  145.9060 C   0  0  0  0  0  3  0  0  0  0  0  0
  160.5750  207.6630  151.0650 C   0  0  0  0  0  2  0  0  0  0  0  0
  161.0350  205.3180  151.5970 C   0  0  0  0  0  0  0  0  0  0  0  0
  161.1200  204.3360  152.5880 C   0  0  0  0  0  3  0  0  0  0  0  0
  161.3610  209.9840  147.7160 O   0  0  0  0  0  0  0  0  0  0  0  0
  161.9630  210.3320  148.7680 C   0  0  0  0  0  0  0  0  0  0  0  0
  162.5460  209.3500  149.6260 N   0  0  0  0  0  2  0  0  0  0  0  0
  160.8270  213.5580  147.1390 C   0  0  1  0  0  3  0  0  0  0  0  0
  160.7170  212.4290  149.3790 C   0  0  0  0  0  2  0  0  0  0  0  0
  164.1320  211.9800  147.8610 O   0  0  0  0  0  1  0  0  0  0  0  0
  160.1080  213.7880  145.9000 N   0  0  0  0  0  1  0  0  0  0  0  0
  159.9760  212.6950  148.0670 C   0  0  0  0  0  2  0  0  0  0  0  0
  162.9150  212.6060  148.1330 C   0  0  2  0  0  3  0  0  0  0  0  0
  162.0860  211.7830  149.1340 C   0  0  2  0  0  3  0  0  0  0  0  0
  162.1500  212.8610  146.8360 C   0  0  0  0  0  2  0  0  0  0  0  0
  1 14  1  0  0  0  0
  2 13  1  0  0  0  0
  2  3  1  0  0  0  0
  3 19  1  0  0  0  0
  4 15  2  0  0  0  0
  5  2  1  0  0  0  0
  6  1  2  0  0  0  0
  6 17  1  0  0  0  0
  7  3  2  0  0  0  0
  7  4  1  0  0  0  0
  8 23  1  6  0  0  0
  8 13  1  0  0  0  0
  9  1  1  0  0  0  0
 11  4  1  0  0  0  0
 12  8  1  0  0  0  0
 13 18  1  1  0  0  0
 14  5  2  0  0  0  0
 15 20  1  0  0  0  0
 16  5  1  0  0  0  0
 16 12  1  0  0  0  0
 17 16  2  0  0  0  0
 18 10  1  0  0  0  0
 19 10  1  0  0  0  0
 19 20  2  0  0  0  0
 21 22  2  0  0  0  0
 22 23  1  0  0  0  0
 24 27  1  6  0  0  0
 24 28  1  0  0  0  0
 28 25  1  0  0  0  0
 29 26  1  6  0  0  0
 29 30  1  0  0  0  0
 30 22  1  6  0  0  0
 30 25  1  0  0  0  0
 31 24  1  0  0  0  0
 31 29  1  0  0  0  0
M  END
>  <MODEL>
2

>  <REMARK>
 VINA RESULT:      -7.4      3.547      5.203
  Name = 
  2 active torsions:
  status: ('A' for Active; 'I' for Inactive)
    1  A    between atoms: C_5  and  C_30
    2  A    between atoms: C_10  and  N_16
                            x       y       z     vdW  Elec       q    Type
                         _______ _______ _______ _____ _____    ______ ____

>  <TORSDO>
F 2

$$$$
=
 OpenBabel11122413153D

 31 35  0  0  1  0  0  0  0  0999 V2000
  161.2460  201.9480  150.5800 C   0  0  0  0  0  0  0  0  0  0  0  0
  161.8400  205.2180  148.8200 N   0  0  0  0  0  0  0  0  0  0  0  0
  161.4850  205.0840  147.4220 C   0  0  0  0  0  0  0  0  0  0  0  0
  160.6720  203.7700  145.5410 C   0  0  0  0  0  0  0  0  0  0  0  0
  161.4360  204.2390  149.7990 C   0  0  0  0  0  0  0  0  0  0  0  0
  160.6450  202.3970  151.7590 C   0  0  0  0  0  3  0  0  0  0  0  0
  161.0760  203.8560  146.8760 C   0  0  0  0  0  3  0  0  0  0  0  0
  161.0280  207.0770  150.1980 C   0  0  2  0  0  3  0  0  0  0  0  0
  161.4450  200.6230  150.3830 F   0  0  0  0  0  0  0  0  0  0  0  0
  161.8790  207.4540  147.1240 O   0  0  0  0  0  0  0  0  0  0  0  0
  160.1690  202.2300  144.8790 Cl  0  0  0  0  0  0  0  0  0  0  0  0
  160.6640  206.0890  151.2160 N   0  0  0  0  0  2  0  0  0  0  0  0
  162.1980  206.5390  149.3690 C   0  0  2  0  0  3  0  0  0  0  0  0
  161.6450  202.8660  149.6030 C   0  0  0  0  0  3  0  0  0  0  0  0
  160.6550  204.9140  144.7410 C   0  0  0  0  0  3  0  0  0  0  0  0
  160.8350  204.6840  150.9920 C   0  0  0  0  0  0  0  0  0  0  0  0
  160.4430  203.7640  151.9680 C   0  0  0  0  0  3  0  0  0  0  0  0
  162.6830  207.5190  148.2960 C   0  0  0  0  0  2  0  0  0  0  0  0
  161.4780  206.2260  146.6020 C   0  0  0  0  0  0  0  0  0  0  0  0
  161.0550  206.1420  145.2720 C   0  0  0  0  0  3  0  0  0  0  0  0
  160.5760  207.7100  152.9410 O   0  0  0  0  0  0  0  0  0  0  0  0
  161.1530  208.5780  152.2290 C   0  0  0  0  0  0  0  0  0  0  0  0
  161.4000  208.3280  150.8450 N   0  0  0  0  0  2  0  0  0  0  0  0
  159.3850  211.2620  154.2350 C   0  0  1  0  0  3  0  0  0  0  0  0
  161.4830  209.8870  154.3510 C   0  0  0  0  0  2  0  0  0  0  0  0
  160.8930  211.0690  150.8260 O   0  0  0  0  0  1  0  0  0  0  0  0
  158.0100  211.3510  154.6870 N   0  0  0  0  0  1  0  0  0  0  0  0
  160.0320  210.0090  154.8210 C   0  0  0  0  0  2  0  0  0  0  0  0
  160.8590  211.1070  152.2200 C   0  0  2  0  0  3  0  0  0  0  0  0
  161.5830  209.8890  152.8210 C   0  0  2  0  0  3  0  0  0  0  0  0
  159.4160  211.2080  152.7110 C   0  0  0  0  0  2  0  0  0  0  0  0
  1  6  1  0  0  0  0
  2 13  1  0  0  0  0
  2  5  1  0  0  0  0
  3  2  1  0  0  0  0
  4  7  2  0  0  0  0
  5 16  2  0  0  0  0
  6 17  2  0  0  0  0
  7  3  1  0  0  0  0
  8 23  1  1  0  0  0
  8 12  1  0  0  0  0
  9  1  1  0  0  0  0
 10 18  1  0  0  0  0
 11  4  1  0  0  0  0
 13 18  1  6  0  0  0
 13  8  1  0  0  0  0
 14  5  1  0  0  0  0
 14  1  2  0  0  0  0
 15 20  2  0  0  0  0
 15  4  1  0  0  0  0
 16 12  1  0  0  0  0
 16 17  1  0  0  0  0
 19 10  1  0  0  0  0
 19  3  2  0  0  0  0
 20 19  1  0  0  0  0
 22 21  2  0  0  0  0
 23 22  1  0  0  0  0
 24 27  1  6  0  0  0
 24 28  1  0  0  0  0
 25 28  1  0  0  0  0
 29 26  1  6  0  0  0
 29 31  1  0  0  0  0
 29 30  1  0  0  0  0
 30 22  1  6  0  0  0
 30 25  1  0  0  0  0
 31 24  1  0  0  0  0
M  END
>  <MODEL>
3

>  <REMARK>
 VINA RESULT:      -7.1      2.478      4.194
  Name = 
  2 active torsions:
  status: ('A' for Active; 'I' for Inactive)
    1  A    between atoms: C_5  and  C_30
    2  A    between atoms: C_10  and  N_16
                            x       y       z     vdW  Elec       q    Type
                         _______ _______ _______ _____ _____    ______ ____

>  <TORSDO>
F 2

$$$$
=
 OpenBabel11122413153D

 31 35  0  0  1  0  0  0  0  0999 V2000
  160.7590  206.5350  146.8980 C   0  0  0  0  0  0  0  0  0  0  0  0
  160.7500  205.9090  150.6060 N   0  0  0  0  0  0  0  0  0  0  0  0
  160.8770  204.4870  150.8540 C   0  0  0  0  0  0  0  0  0  0  0  0
  161.0950  202.1930  150.0710 C   0  0  0  0  0  0  0  0  0  0  0  0
  161.0290  206.4760  149.3090 C   0  0  0  0  0  0  0  0  0  0  0  0
  161.5990  207.6490  146.8270 C   0  0  0  0  0  3  0  0  0  0  0  0
  160.9020  203.5510  149.8070 C   0  0  0  0  0  3  0  0  0  0  0  0
  162.1600  207.5620  151.7430 C   0  0  2  0  0  3  0  0  0  0  0  0
  160.2220  206.0190  145.7660 F   0  0  0  0  0  0  0  0  0  0  0  0
  161.0320  204.9450  153.2260 O   0  0  0  0  0  0  0  0  0  0  0  0
  161.1200  201.0420  148.7530 Cl  0  0  0  0  0  0  0  0  0  0  0  0
  162.4030  208.1720  150.4340 N   0  0  0  0  0  2  0  0  0  0  0  0
  160.7970  206.8630  151.7280 C   0  0  2  0  0  3  0  0  0  0  0  0
  160.4700  205.9500  148.1350 C   0  0  0  0  0  3  0  0  0  0  0  0
  161.2840  201.7560  151.3840 C   0  0  0  0  0  3  0  0  0  0  0  0
  161.8690  207.6030  149.2320 C   0  0  0  0  0  0  0  0  0  0  0  0
  162.1520  208.1860  147.9940 C   0  0  0  0  0  3  0  0  0  0  0  0
  160.4270  206.2240  153.0710 C   0  0  0  0  0  2  0  0  0  0  0  0
  161.0520  204.0330  152.1730 C   0  0  0  0  0  0  0  0  0  0  0  0
  161.2660  202.6770  152.4340 C   0  0  0  0  0  3  0  0  0  0  0  0
  160.5410  209.9090  151.7700 O   0  0  0  0  0  0  0  0  0  0  0  0
  161.3420  209.7410  152.7310 C   0  0  0  0  0  0  0  0  0  0  0  0
  162.1890  208.5910  152.7730 N   0  0  0  0  0  2  0  0  0  0  0  0
  160.5390  209.6420  156.4320 C   0  0  1  0  0  3  0  0  0  0  0  0
  162.4260  210.3260  154.9230 C   0  0  0  0  0  2  0  0  0  0  0  0
  159.1320  211.4200  153.4660 O   0  0  0  0  0  1  0  0  0  0  0  0
  160.0230  208.5680  157.2580 N   0  0  0  0  0  1  0  0  0  0  0  0
  161.8640  209.2120  155.8080 C   0  0  0  0  0  2  0  0  0  0  0  0
  160.0610  211.1030  154.4580 C   0  0  2  0  0  3  0  0  0  0  0  0
  161.4250  210.7480  153.8420 C   0  0  2  0  0  3  0  0  0  0  0  0
  159.5270  209.9760  155.3410 C   0  0  0  0  0  2  0  0  0  0  0  0
  1 14  1  0  0  0  0
  2  3  1  0  0  0  0
  2 13  1  0  0  0  0
  3 19  1  0  0  0  0
  4 15  2  0  0  0  0
  5  2  1  0  0  0  0
  6  1  2  0  0  0  0
  6 17  1  0  0  0  0
  7  4  1  0  0  0  0
  7  3  2  0  0  0  0
  8 23  1  1  0  0  0
  9  1  1  0  0  0  0
 11  4  1  0  0  0  0
 12  8  1  0  0  0  0
 13  8  1  0  0  0  0
 13 18  1  1  0  0  0
 14  5  2  0  0  0  0
 15 20  1  0  0  0  0
 16  5  1  0  0  0  0
 16 12  1  0  0  0  0
 17 16  2  0  0  0  0
 18 10  1  0  0  0  0
 19 20  2  0  0  0  0
 19 10  1  0  0  0  0
 21 22  2  0  0  0  0
 22 23  1  0  0  0  0
 24 27  1  6  0  0  0
 25 28  1  0  0  0  0
 28 24  1  0  0  0  0
 29 26  1  6  0  0  0
 29 31  1  0  0  0  0
 30 22  1  6  0  0  0
 30 29  1  0  0  0  0
 30 25  1  0  0  0  0
 31 24  1  0  0  0  0
M  END
>  <MODEL>
4

>  <REMARK>
 VINA RESULT:      -6.5      1.537      1.970
  Name = 
  2 active torsions:
  status: ('A' for Active; 'I' for Inactive)
    1  A    between atoms: C_5  and  C_30
    2  A    between atoms: C_10  and  N_16
                            x       y       z     vdW  Elec       q    Type
                         _______ _______ _______ _____ _____    ______ ____

>  <TORSDO>
F 2

$$$$
=
 OpenBabel11122413153D

 31 35  0  0  1  0  0  0  0  0999 V2000
  160.9510  206.9190  156.4090 C   0  0  0  0  0  0  0  0  0  0  0  0
  161.4710  207.9940  152.8440 N   0  0  0  0  0  0  0  0  0  0  0  0
  161.4390  206.8310  151.9810 C   0  0  0  0  0  0  0  0  0  0  0  0
  161.2200  204.4320  151.6370 C   0  0  0  0  0  0  0  0  0  0  0  0
  161.0010  207.9360  154.2060 C   0  0  0  0  0  0  0  0  0  0  0  0
  160.0610  207.9030  156.8470 C   0  0  0  0  0  3  0  0  0  0  0  0
  161.3180  205.5300  152.4950 C   0  0  0  0  0  3  0  0  0  0  0  0
  160.1520  210.0060  152.3690 C   0  0  2  0  0  3  0  0  0  0  0  0
  161.3570  205.9470  157.2610 F   0  0  0  0  0  0  0  0  0  0  0  0
  161.5750  208.2920  150.0560 O   0  0  0  0  0  0  0  0  0  0  0  0
  161.0720  202.8180  152.2980 Cl  0  0  0  0  0  0  0  0  0  0  0  0
  159.7130  209.9800  153.7660 N   0  0  0  0  0  2  0  0  0  0  0  0
  161.5300  209.3470  152.2600 C   0  0  2  0  0  3  0  0  0  0  0  0
  161.4230  206.9350  155.0940 C   0  0  0  0  0  3  0  0  0  0  0  0
  161.2230  204.6230  150.2530 C   0  0  0  0  0  3  0  0  0  0  0  0
  160.1090  208.9290  154.6560 C   0  0  0  0  0  0  0  0  0  0  0  0
  159.6430  208.9110  155.9730 C   0  0  0  0  0  3  0  0  0  0  0  0
  162.1000  209.3590  150.8380 C   0  0  0  0  0  2  0  0  0  0  0  0
  161.4570  207.0090  150.5860 C   0  0  0  0  0  0  0  0  0  0  0  0
  161.3390  205.9110  149.7290 C   0  0  0  0  0  3  0  0  0  0  0  0
  157.9580  211.8260  152.3200 O   0  0  0  0  0  0  0  0  0  0  0  0
  159.0760  212.2480  151.9150 C   0  0  0  0  0  0  0  0  0  0  0  0
  160.2130  211.3850  151.9030 N   0  0  0  0  0  2  0  0  0  0  0  0
  157.5460  214.2360  149.0750 C   0  0  1  0  0  3  0  0  0  0  0  0
  157.9210  214.4520  151.5480 C   0  0  0  0  0  2  0  0  0  0  0  0
  160.9720  212.9960  149.8920 O   0  0  0  0  0  1  0  0  0  0  0  0
  156.5870  213.8470  148.0590 N   0  0  0  0  0  1  0  0  0  0  0  0
  156.9240  214.0560  150.4570 C   0  0  0  0  0  2  0  0  0  0  0  0
  159.8180  213.7720  150.0140 C   0  0  2  0  0  3  0  0  0  0  0  0
  159.2300  213.6620  151.4310 C   0  0  2  0  0  3  0  0  0  0  0  0
  158.8000  213.3770  148.9460 C   0  0  0  0  0  2  0  0  0  0  0  0
  1  6  1  0  0  0  0
  1  9  1  0  0  0  0
  2  5  1  0  0  0  0
  3  7  1  0  0  0  0
  3  2  1  0  0  0  0
  4 11  1  0  0  0  0
  4  7  2  0  0  0  0
  5 16  2  0  0  0  0
  5 14  1  0  0  0  0
  8 23  1  1  0  0  0
  8 12  1  0  0  0  0
 10 19  1  0  0  0  0
 10 18  1  0  0  0  0
 12 16  1  0  0  0  0
 13 18  1  6  0  0  0
 13  8  1  0  0  0  0
 13  2  1  0  0  0  0
 14  1  2  0  0  0  0
 15  4  1  0  0  0  0
 16 17  1  0  0  0  0
 17  6  2  0  0  0  0
 19  3  2  0  0  0  0
 20 15  2  0  0  0  0
 20 19  1  0  0  0  0
 22 21  2  0  0  0  0
 23 22  1  0  0  0  0
 24 27  1  6  0  0  0
 24 28  1  0  0  0  0
 28 25  1  0  0  0  0
 29 26  1  1  0  0  0
 29 30  1  0  0  0  0
 30 25  1  0  0  0  0
 30 22  1  6  0  0  0
 31 24  1  0  0  0  0
 31 29  1  0  0  0  0
M  END
>  <MODEL>
5

>  <REMARK>
 VINA RESULT:      -6.5      4.413      6.455
  Name = 
  2 active torsions:
  status: ('A' for Active; 'I' for Inactive)
    1  A    between atoms: C_5  and  C_30
    2  A    between atoms: C_10  and  N_16
                            x       y       z     vdW  Elec       q    Type
                         _______ _______ _______ _____ _____    ______ ____

>  <TORSDO>
F 2

$$$$
=
 OpenBabel11122413153D

 31 35  0  0  1  0  0  0  0  0999 V2000
  161.5860  213.1270  149.0100 C   0  0  0  0  0  0  0  0  0  0  0  0
  161.8800  209.8250  150.7860 N   0  0  0  0  0  0  0  0  0  0  0  0
  161.1120  209.8700  152.0140 C   0  0  0  0  0  0  0  0  0  0  0  0
  159.6720  211.0350  153.5920 C   0  0  0  0  0  0  0  0  0  0  0  0
  161.7120  210.8200  149.7550 C   0  0  0  0  0  0  0  0  0  0  0  0
  161.4030  212.6950  147.6940 C   0  0  0  0  0  3  0  0  0  0  0  0
  160.4630  211.0390  152.4410 C   0  0  0  0  0  3  0  0  0  0  0  0
  161.6680  207.9830  149.1820 C   0  0  2  0  0  3  0  0  0  0  0  0
  161.6110  214.4520  149.2900 F   0  0  0  0  0  0  0  0  0  0  0  0
  161.5840  207.5200  152.3590 O   0  0  0  0  0  0  0  0  0  0  0  0
  158.8730  212.5040  154.1080 Cl  0  0  0  0  0  0  0  0  0  0  0  0
  161.5500  208.9900  148.1260 N   0  0  0  0  0  2  0  0  0  0  0  0
  162.4890  208.5590  150.3400 C   0  0  2  0  0  3  0  0  0  0  0  0
  161.7440  212.1930  150.0390 C   0  0  0  0  0  3  0  0  0  0  0  0
  159.5050  209.8560  154.3220 C   0  0  0  0  0  3  0  0  0  0  0  0
  161.5350  210.3920  148.4260 C   0  0  0  0  0  0  0  0  0  0  0  0
  161.3820  211.3280  147.4000 C   0  0  0  0  0  3  0  0  0  0  0  0
  162.7060  207.5650  151.4850 C   0  0  0  0  0  2  0  0  0  0  0  0
  160.9500  208.6920  152.7650 C   0  0  0  0  0  0  0  0  0  0  0  0
  160.1420  208.6850  153.9060 C   0  0  0  0  0  3  0  0  0  0  0  0
  160.4870  206.1530  147.3430 O   0  0  0  0  0  0  0  0  0  0  0  0
  161.6690  205.9200  147.7200 C   0  0  0  0  0  0  0  0  0  0  0  0
  162.3150  206.7920  148.6480 N   0  0  0  0  0  2  0  0  0  0  0  0
  160.8320  203.1630  145.2610 C   0  0  1  0  0  3  0  0  0  0  0  0
  162.6730  204.8120  145.6980 C   0  0  0  0  0  2  0  0  0  0  0  0
  161.4580  203.3290  148.9370 O   0  0  0  0  0  1  0  0  0  0  0  0
  159.6290  202.9190  144.4880 N   0  0  0  0  0  1  0  0  0  0  0  0
  161.4060  204.5270  144.8890 C   0  0  0  0  0  2  0  0  0  0  0  0
  161.7560  203.3800  147.5750 C   0  0  2  0  0  3  0  0  0  0  0  0
  162.4130  204.7210  147.2060 C   0  0  2  0  0  3  0  0  0  0  0  0
  160.4980  203.1180  146.7490 C   0  0  0  0  0  2  0  0  0  0  0  0
  1  9  1  0  0  0  0
  1 14  1  0  0  0  0
  2  3  1  0  0  0  0
  3  7  2  0  0  0  0
  3 19  1  0  0  0  0
  4 11  1  0  0  0  0
  4 15  2  0  0  0  0
  5 14  2  0  0  0  0
  5  2  1  0  0  0  0
  6  1  2  0  0  0  0
  7  4  1  0  0  0  0
  8 23  1  6  0  0  0
  8 13  1  0  0  0  0
 10 19  1  0  0  0  0
 12 16  1  0  0  0  0
 12  8  1  0  0  0  0
 13  2  1  0  0  0  0
 13 18  1  1  0  0  0
 16  5  1  0  0  0  0
 17  6  1  0  0  0  0
 17 16  2  0  0  0  0
 18 10  1  0  0  0  0
 19 20  2  0  0  0  0
 20 15  1  0  0  0  0
 21 22  2  0  0  0  0
 22 23  1  0  0  0  0
 24 27  1  6  0  0  0
 24 31  1  0  0  0  0
 25 30  1  0  0  0  0
 28 24  1  0  0  0  0
 28 25  1  0  0  0  0
 29 26  1  1  0  0  0
 30 29  1  0  0  0  0
 30 22  1  6  0  0  0
 31 29  1  0  0  0  0
M  END
>  <MODEL>
6

>  <REMARK>
 VINA RESULT:      -5.7      4.190      8.129
  Name = 
  2 active torsions:
  status: ('A' for Active; 'I' for Inactive)
    1  A    between atoms: C_5  and  C_30
    2  A    between atoms: C_10  and  N_16
                            x       y       z     vdW  Elec       q    Type
                         _______ _______ _______ _____ _____    ______ ____

>  <TORSDO>
F 2

$$$$
=
 OpenBabel11122413153D

 31 35  0  0  1  0  0  0  0  0999 V2000
  162.2840  210.7900  149.6600 C   0  0  0  0  0  0  0  0  0  0  0  0
  161.9250  207.7410  151.8310 N   0  0  0  0  0  0  0  0  0  0  0  0
  161.2600  208.1060  153.0660 C   0  0  0  0  0  0  0  0  0  0  0  0
  160.2180  209.7500  154.5260 C   0  0  0  0  0  0  0  0  0  0  0  0
  161.9270  208.6210  150.6870 C   0  0  0  0  0  0  0  0  0  0  0  0
  161.9300  210.2620  148.4150 C   0  0  0  0  0  3  0  0  0  0  0  0
  160.9200  209.4360  153.3600 C   0  0  0  0  0  3  0  0  0  0  0  0
  161.2060  205.8240  150.4810 C   0  0  2  0  0  3  0  0  0  0  0  0
  162.6250  212.0960  149.7680 F   0  0  0  0  0  0  0  0  0  0  0  0
  161.2060  205.7680  153.6920 O   0  0  0  0  0  0  0  0  0  0  0  0
  159.8050  211.4140  154.8760 Cl  0  0  0  0  0  0  0  0  0  0  0  0
  161.2580  206.7020  149.3100 N   0  0  0  0  0  2  0  0  0  0  0  0
  162.2030  206.3250  151.5310 C   0  0  2  0  0  3  0  0  0  0  0  0
  162.2860  209.9720  150.7930 C   0  0  0  0  0  3  0  0  0  0  0  0
  159.8310  208.7350  155.4040 C   0  0  0  0  0  3  0  0  0  0  0  0
  161.5790  208.0930  149.4290 C   0  0  0  0  0  0  0  0  0  0  0  0
  161.5820  208.9130  148.2980 C   0  0  0  0  0  3  0  0  0  0  0  0
  162.2560  205.4480  152.7860 C   0  0  0  0  0  2  0  0  0  0  0  0
  160.8800  207.0940  153.9650 C   0  0  0  0  0  0  0  0  0  0  0  0
  160.1600  207.4080  155.1220 C   0  0  0  0  0  3  0  0  0  0  0  0
  160.5910  204.6540  147.9550 O   0  0  0  0  0  0  0  0  0  0  0  0
  161.2030  203.9400  148.7960 C   0  0  0  0  0  0  0  0  0  0  0  0
  161.5330  204.4620  150.0830 N   0  0  0  0  0  2  0  0  0  0  0  0
  160.2640  201.5470  146.0130 C   0  0  1  0  0  3  0  0  0  0  0  0
  162.3320  202.4400  147.1210 C   0  0  0  0  0  2  0  0  0  0  0  0
  159.7030  201.6660  149.7020 O   0  0  0  0  0  1  0  0  0  0  0  0
  159.3660  201.7140  144.8860 N   0  0  0  0  0  1  0  0  0  0  0  0
  161.3750  202.5900  145.9370 C   0  0  0  0  0  2  0  0  0  0  0  0
  160.4160  201.5360  148.5090 C   0  0  2  0  0  3  0  0  0  0  0  0
  161.5910  202.5280  148.4600 C   0  0  2  0  0  3  0  0  0  0  0  0
  159.4810  201.7030  147.3130 C   0  0  0  0  0  2  0  0  0  0  0  0
  1  9  1  0  0  0  0
  1 14  1  0  0  0  0
  2  3  1  0  0  0  0
  3  7  2  0  0  0  0
  3 19  1  0  0  0  0
  4 11  1  0  0  0  0
  4 15  2  0  0  0  0
  5 14  2  0  0  0  0
  5  2  1  0  0  0  0
  6  1  2  0  0  0  0
  7  4  1  0  0  0  0
  8 23  1  6  0  0  0
  8 13  1  0  0  0  0
 10 19  1  0  0  0  0
 12 16  1  0  0  0  0
 12  8  1  0  0  0  0
 13  2  1  0  0  0  0
 13 18  1  1  0  0  0
 16  5  1  0  0  0  0
 17  6  1  0  0  0  0
 17 16  2  0  0  0  0
 18 10  1  0  0  0  0
 19 20  2  0  0  0  0
 20 15  1  0  0  0  0
 21 22  2  0  0  0  0
 22 23  1  0  0  0  0
 24 27  1  6  0  0  0
 24 31  1  0  0  0  0
 25 30  1  0  0  0  0
 28 24  1  0  0  0  0
 28 25  1  0  0  0  0
 29 26  1  1  0  0  0
 30 29  1  0  0  0  0
 30 22  1  6  0  0  0
 31 29  1  0  0  0  0
M  END
>  <MODEL>
7

>  <REMARK>
 VINA RESULT:      -5.5      3.446      7.695
  Name = 
  2 active torsions:
  status: ('A' for Active; 'I' for Inactive)
    1  A    between atoms: C_5  and  C_30
    2  A    between atoms: C_10  and  N_16
                            x       y       z     vdW  Elec       q    Type
                         _______ _______ _______ _____ _____    ______ ____

>  <TORSDO>
F 2

$$$$
