=
 OpenBabel11122413423D

 37 44  0  0  1  0  0  0  0  0999 V2000
  161.2040  209.7910  148.6450 C   0  0  0  0  0  2  0  0  0  0  0  0
  161.7060  205.9120  146.2330 C   0  0  0  0  0  0  0  0  0  0  0  0
  161.1590  205.4450  150.3410 C   0  0  0  0  0  0  0  0  0  0  0  0
  161.8430  211.0670  148.3270 N   0  0  0  0  0  0  0  0  0  0  0  0
  160.9510  208.6060  152.5200 O   0  0  0  0  0  0  0  0  0  0  0  0
  161.4060  204.3970  148.1720 C   0  0  0  0  0  0  0  0  0  0  0  0
  161.2890  206.7440  150.8300 C   0  0  0  0  0  0  0  0  0  0  0  0
  161.3110  211.7790  150.6000 C   0  0  0  0  0  0  0  0  0  0  0  0
  161.4030  205.4970  148.9980 C   0  0  0  0  0  0  0  0  0  0  0  0
  161.0530  207.2240  152.2540 C   0  0  0  0  0  0  0  0  0  0  0  0
  161.1480  203.1440  148.7400 C   0  0  0  0  0  3  0  0  0  0  0  0
  162.1220  212.0490  149.3710 C   0  0  0  0  0  2  0  0  0  0  0  0
  161.7050  206.7150  148.5800 N   0  0  0  0  0  0  0  0  0  0  0  0
  160.3040  206.2760  145.7770 C   0  0  0  0  0  1  0  0  0  0  0  0
  160.7630  204.0210  152.3810 C   0  0  0  0  0  3  0  0  0  0  0  0
  160.9050  203.0570  150.1290 C   0  0  0  0  0  3  0  0  0  0  0  0
  162.2040  206.9890  147.2300 C   0  0  0  0  0  2  0  0  0  0  0  0
  161.7390  210.7300  151.5850 C   0  0  1  0  0  3  0  0  0  0  0  0
  160.9350  209.5320  151.4670 C   0  0  1  0  0  3  0  0  0  0  0  0
  160.9140  204.2110  150.9480 C   0  0  0  0  0  0  0  0  0  0  0  0
  161.6710  207.5100  149.6720 C   0  0  0  0  0  0  0  0  0  0  0  0
  161.6860  204.5910  146.8130 O   0  0  0  0  0  0  0  0  0  0  0  0
  160.9020  206.4090  153.3320 C   0  0  0  0  0  0  0  0  0  0  0  0
  162.6160  205.9060  145.0230 C   0  0  0  0  0  1  0  0  0  0  0  0
  162.3110  209.5130  150.9440 N   0  0  1  0  0  0  0  0  0  0  0  0
  160.2900  212.4180  150.8000 O   0  0  0  0  0  0  0  0  0  0  0  0
  162.0890  208.9710  149.5960 C   0  0  2  0  0  3  0  0  0  0  0  0
  160.7720  204.9350  153.3440 C   0  0  0  0  0  3  0  0  0  0  0  0
  159.8340  206.5600  155.5980 C   0  0  0  0  0  3  0  0  0  0  0  0
  160.8050  207.0060  154.6890 C   0  0  0  0  0  0  0  0  0  0  0  0
  161.7080  207.9950  155.1100 C   0  0  0  0  0  3  0  0  0  0  0  0
  162.7330  209.7680  156.9200 Cl  0  0  0  0  0  0  0  0  0  0  0  0
  160.6260  208.0580  157.2610 C   0  0  0  0  0  3  0  0  0  0  0  0
  161.6160  208.5270  156.3970 C   0  0  0  0  0  0  0  0  0  0  0  0
  159.7640  207.0910  156.8480 N   0  0  0  0  0  0  0  0  0  0  0  0
  162.5560  212.5800  146.5810 C   0  0  0  0  0  2  0  0  0  0  0  0
  162.3320  211.3430  147.0100 C   0  0  0  0  0  3  0  0  0  0  0  0
  1 27  1  0  0  0  0
  2 22  1  0  0  0  0
  2 17  1  0  0  0  0
  3  7  1  0  0  0  0
  3 20  1  0  0  0  0
  4  1  1  0  0  0  0
  4 12  1  0  0  0  0
  6 11  2  0  0  0  0
  6  9  1  0  0  0  0
  7 10  1  0  0  0  0
  8 26  2  0  0  0  0
  9  3  2  0  0  0  0
 10  5  1  0  0  0  0
 10 23  2  0  0  0  0
 11 16  1  0  0  0  0
 12  8  1  0  0  0  0
 13  9  1  0  0  0  0
 13 21  1  0  0  0  0
 14  2  1  0  0  0  0
 15 28  2  0  0  0  0
 16 20  2  0  0  0  0
 17 13  1  0  0  0  0
 18  8  1  6  0  0  0
 19 18  1  0  0  0  0
 19  5  1  1  0  0  0
 20 15  1  0  0  0  0
 21  7  2  0  0  0  0
 22  6  1  0  0  0  0
 23 28  1  0  0  0  0
 23 30  1  0  0  0  0
 24  2  1  0  0  0  0
 25 19  1  0  0  0  0
 25 18  1  0  0  0  0
 27 21  1  0  0  0  0
 27 25  1  0  0  0  0
 29 35  1  0  0  0  0
 30 31  1  0  0  0  0
 30 29  2  0  0  0  0
 31 34  2  0  0  0  0
 34 32  1  0  0  0  0
 34 33  1  0  0  0  0
 35 33  2  0  0  0  0
 36 37  2  0  0  0  0
 37  4  1  0  0  0  0
M  END
>  <MODEL>
1

>  <REMARK>
 VINA RESULT:      -7.2      0.000      0.000
  Name = 
  2 active torsions:
  status: ('A' for Active; 'I' for Inactive)
    1  A    between atoms: N_4  and  C_37
    2  A    between atoms: C_23  and  C_30
                            x       y       z     vdW  Elec       q    Type
                         _______ _______ _______ _____ _____    ______ ____

>  <TORSDO>
F 2

$$$$
=
 OpenBabel11122413423D

 37 44  0  0  1  0  0  0  0  0999 V2000
  160.8300  204.4870  147.6580 C   0  0  0  0  0  2  0  0  0  0  0  0
  161.0210  203.2040  152.0660 C   0  0  0  0  0  0  0  0  0  0  0  0
  161.4490  207.2880  151.3370 C   0  0  0  0  0  0  0  0  0  0  0  0
  161.2970  203.6850  146.5280 N   0  0  0  0  0  0  0  0  0  0  0  0
  161.5360  208.4840  147.6840 O   0  0  0  0  0  0  0  0  0  0  0  0
  161.2660  205.5020  152.9620 C   0  0  0  0  0  0  0  0  0  0  0  0
  161.6020  207.3510  149.9520 C   0  0  0  0  0  0  0  0  0  0  0  0
  161.2480  205.7280  145.1940 C   0  0  0  0  0  0  0  0  0  0  0  0
  161.3790  205.9660  151.6720 C   0  0  0  0  0  0  0  0  0  0  0  0
  161.6640  208.5980  149.0840 C   0  0  0  0  0  0  0  0  0  0  0  0
  161.2240  206.4420  153.9990 C   0  0  0  0  0  3  0  0  0  0  0  0
  161.7410  204.3170  145.2890 C   0  0  0  0  0  2  0  0  0  0  0  0
  161.5000  205.1660  150.6250 N   0  0  0  0  0  0  0  0  0  0  0  0
  159.5320  203.0080  151.8430 C   0  0  0  0  0  1  0  0  0  0  0  0
  161.6160  209.6770  152.1160 C   0  0  0  0  0  3  0  0  0  0  0  0
  161.3080  207.8160  153.6840 C   0  0  0  0  0  3  0  0  0  0  0  0
  161.6620  203.7150  150.7510 C   0  0  0  0  0  2  0  0  0  0  0  0
  161.9540  206.8360  145.9190 C   0  0  1  0  0  3  0  0  0  0  0  0
  161.2230  207.2500  147.0970 C   0  0  1  0  0  3  0  0  0  0  0  0
  161.4270  208.2540  152.3440 C   0  0  0  0  0  0  0  0  0  0  0  0
  161.6620  205.9690  149.5510 C   0  0  0  0  0  0  0  0  0  0  0  0
  161.2190  204.1170  153.1660 O   0  0  0  0  0  0  0  0  0  0  0  0
  161.8130  209.8640  149.5560 C   0  0  0  0  0  0  0  0  0  0  0  0
  161.6330  201.8640  152.4210 C   0  0  0  0  0  1  0  0  0  0  0  0
  162.4440  206.4450  147.2700 N   0  0  1  0  0  0  0  0  0  0  0  0
  160.2600  205.9750  144.5210 O   0  0  0  0  0  0  0  0  0  0  0  0
  161.9580  205.3930  148.1740 C   0  0  2  0  0  3  0  0  0  0  0  0
  161.7840  210.3170  150.9650 C   0  0  0  0  0  3  0  0  0  0  0  0
  163.2520  211.5560  148.3870 C   0  0  0  0  0  3  0  0  0  0  0  0
  161.9880  210.9850  148.5950 C   0  0  0  0  0  0  0  0  0  0  0  0
  160.9060  211.4670  147.8430 C   0  0  0  0  0  3  0  0  0  0  0  0
  159.7440  213.1140  145.9980 Cl  0  0  0  0  0  0  0  0  0  0  0  0
  162.3690  213.0460  146.7640 C   0  0  0  0  0  3  0  0  0  0  0  0
  161.0940  212.5040  146.9290 C   0  0  0  0  0  0  0  0  0  0  0  0
  163.4130  212.5640  147.4890 N   0  0  0  0  0  0  0  0  0  0  0  0
  160.9210  201.5710  147.6390 C   0  0  0  0  0  2  0  0  0  0  0  0
  161.4560  202.2660  146.6420 C   0  0  0  0  0  3  0  0  0  0  0  0
  1 27  1  0  0  0  0
  2 24  1  0  0  0  0
  2 22  1  0  0  0  0
  3  9  2  0  0  0  0
  3 20  1  0  0  0  0
  4 37  1  0  0  0  0
  4  1  1  0  0  0  0
  5 10  1  0  0  0  0
  6 22  1  0  0  0  0
  6 11  2  0  0  0  0
  7  3  1  0  0  0  0
  8 12  1  0  0  0  0
  9  6  1  0  0  0  0
 10 23  2  0  0  0  0
 10  7  1  0  0  0  0
 12  4  1  0  0  0  0
 13 17  1  0  0  0  0
 13  9  1  0  0  0  0
 14  2  1  0  0  0  0
 15 20  1  0  0  0  0
 16 11  1  0  0  0  0
 17  2  1  0  0  0  0
 18  8  1  6  0  0  0
 18 19  1  0  0  0  0
 18 25  1  0  0  0  0
 19 25  1  0  0  0  0
 19  5  1  1  0  0  0
 20 16  2  0  0  0  0
 21  7  2  0  0  0  0
 21 13  1  0  0  0  0
 23 28  1  0  0  0  0
 25 27  1  0  0  0  0
 26  8  2  0  0  0  0
 27 21  1  0  0  0  0
 28 15  2  0  0  0  0
 29 30  1  0  0  0  0
 30 23  1  0  0  0  0
 31 30  2  0  0  0  0
 32 34  1  0  0  0  0
 33 34  2  0  0  0  0
 33 35  1  0  0  0  0
 34 31  1  0  0  0  0
 35 29  2  0  0  0  0
 37 36  2  0  0  0  0
M  END
>  <MODEL>
2

>  <REMARK>
 VINA RESULT:      -5.1      2.965      7.066
  Name = 
  2 active torsions:
  status: ('A' for Active; 'I' for Inactive)
    1  A    between atoms: N_4  and  C_37
    2  A    between atoms: C_23  and  C_30
                            x       y       z     vdW  Elec       q    Type
                         _______ _______ _______ _____ _____    ______ ____

>  <TORSDO>
F 2

$$$$
=
 OpenBabel11122413423D

 37 44  0  0  1  0  0  0  0  0999 V2000
  160.8330  206.2800  151.3680 C   0  0  0  0  0  2  0  0  0  0  0  0
  160.1680  207.7070  155.6850 C   0  0  0  0  0  0  0  0  0  0  0  0
  160.4950  210.7060  152.8050 C   0  0  0  0  0  0  0  0  0  0  0  0
  161.5750  205.0790  150.9840 N   0  0  0  0  0  0  0  0  0  0  0  0
  161.2770  209.6740  149.1850 O   0  0  0  0  0  0  0  0  0  0  0  0
  160.0810  210.1180  155.1180 C   0  0  0  0  0  0  0  0  0  0  0  0
  160.9320  210.0160  151.6740 C   0  0  0  0  0  0  0  0  0  0  0  0
  161.6850  205.9990  148.7260 C   0  0  0  0  0  0  0  0  0  0  0  0
  160.4360  209.8010  153.8270 C   0  0  0  0  0  0  0  0  0  0  0  0
  161.1010  210.5640  150.2650 C   0  0  0  0  0  0  0  0  0  0  0  0
  159.7660  211.4510  155.4060 C   0  0  0  0  0  3  0  0  0  0  0  0
  162.2310  204.9850  149.6830 C   0  0  0  0  0  2  0  0  0  0  0  0
  160.8220  208.5900  153.4600 N   0  0  0  0  0  0  0  0  0  0  0  0
  158.7740  207.1710  155.4120 C   0  0  0  0  0  1  0  0  0  0  0  0
  160.3510  213.1130  152.0800 C   0  0  0  0  0  3  0  0  0  0  0  0
  159.8310  212.4120  154.3730 C   0  0  0  0  0  3  0  0  0  0  0  0
  161.0400  207.5040  154.4190 C   0  0  0  0  0  2  0  0  0  0  0  0
  162.1560  207.4240  148.7700 C   0  0  1  0  0  3  0  0  0  0  0  0
  161.1700  208.2890  149.3800 C   0  0  1  0  0  3  0  0  0  0  0  0
  160.2040  212.0480  153.0570 C   0  0  0  0  0  0  0  0  0  0  0  0
  161.1580  208.6770  152.1550 C   0  0  0  0  0  0  0  0  0  0  0  0
  160.0750  209.0940  156.0720 O   0  0  0  0  0  0  0  0  0  0  0  0
  161.0720  211.8820  149.9370 C   0  0  0  0  0  0  0  0  0  0  0  0
  160.7700  206.9150  156.8270 C   0  0  0  0  0  1  0  0  0  0  0  0
  162.3720  207.9350  150.1520 N   0  0  1  0  0  0  0  0  0  0  0  0
  160.8480  205.6610  147.9050 O   0  0  0  0  0  0  0  0  0  0  0  0
  161.7700  207.4960  151.4180 C   0  0  2  0  0  3  0  0  0  0  0  0
  160.7200  213.0260  150.8080 C   0  0  0  0  0  3  0  0  0  0  0  0
  162.6810  212.6570  148.1750 C   0  0  0  0  0  3  0  0  0  0  0  0
  161.3770  212.2930  148.5420 C   0  0  0  0  0  0  0  0  0  0  0  0
  160.3830  212.2850  147.5520 C   0  0  0  0  0  3  0  0  0  0  0  0
  159.4540  212.6520  145.0080 Cl  0  0  0  0  0  0  0  0  0  0  0  0
  162.0050  213.0160  145.9280 C   0  0  0  0  0  3  0  0  0  0  0  0
  160.6950  212.6510  146.2420 C   0  0  0  0  0  0  0  0  0  0  0  0
  162.9630  213.0090  146.8920 N   0  0  0  0  0  0  0  0  0  0  0  0
  161.2470  202.8120  151.7550 C   0  0  0  0  0  2  0  0  0  0  0  0
  161.7910  204.0130  151.9150 C   0  0  0  0  0  3  0  0  0  0  0  0
  1 27  1  0  0  0  0
  2 22  1  0  0  0  0
  2 24  1  0  0  0  0
  3 20  2  0  0  0  0
  3  9  1  0  0  0  0
  4  1  1  0  0  0  0
  4 37  1  0  0  0  0
  5 10  1  0  0  0  0
  6 11  1  0  0  0  0
  6 22  1  0  0  0  0
  7 21  2  0  0  0  0
  7  3  1  0  0  0  0
  8 12  1  0  0  0  0
  9  6  2  0  0  0  0
 10  7  1  0  0  0  0
 12  4  1  0  0  0  0
 13  9  1  0  0  0  0
 13 17  1  0  0  0  0
 14  2  1  0  0  0  0
 15 20  1  0  0  0  0
 16 11  2  0  0  0  0
 17  2  1  0  0  0  0
 18  8  1  1  0  0  0
 18 19  1  0  0  0  0
 18 25  1  0  0  0  0
 19  5  1  6  0  0  0
 19 25  1  0  0  0  0
 20 16  1  0  0  0  0
 21 13  1  0  0  0  0
 23 10  2  0  0  0  0
 23 28  1  0  0  0  0
 25 27  1  0  0  0  0
 26  8  2  0  0  0  0
 27 21  1  0  0  0  0
 28 15  2  0  0  0  0
 29 30  1  0  0  0  0
 30 23  1  0  0  0  0
 31 30  2  0  0  0  0
 32 34  1  0  0  0  0
 33 34  2  0  0  0  0
 33 35  1  0  0  0  0
 34 31  1  0  0  0  0
 35 29  2  0  0  0  0
 36 37  2  0  0  0  0
M  END
>  <MODEL>
3

>  <REMARK>
 VINA RESULT:      -4.6      2.862      8.188
  Name = 
  2 active torsions:
  status: ('A' for Active; 'I' for Inactive)
    1  A    between atoms: N_4  and  C_37
    2  A    between atoms: C_23  and  C_30
                            x       y       z     vdW  Elec       q    Type
                         _______ _______ _______ _____ _____    ______ ____

>  <TORSDO>
F 2

$$$$
=
 OpenBabel11122413423D

 37 44  0  0  1  0  0  0  0  0999 V2000
  161.6630  207.3530  153.8780 C   0  0  0  0  0  2  0  0  0  0  0  0
  160.9670  203.3500  151.7320 C   0  0  0  0  0  0  0  0  0  0  0  0
  161.5330  206.6650  149.2650 C   0  0  0  0  0  0  0  0  0  0  0  0
  161.0780  207.7310  155.1640 N   0  0  0  0  0  0  0  0  0  0  0  0
  161.9020  210.1180  150.9150 O   0  0  0  0  0  0  0  0  0  0  0  0
  161.2180  204.2700  149.4440 C   0  0  0  0  0  0  0  0  0  0  0  0
  161.4660  207.7390  150.1530 C   0  0  0  0  0  0  0  0  0  0  0  0
  161.6640  210.0400  154.6330 C   0  0  0  0  0  0  0  0  0  0  0  0
  161.2780  205.5340  149.9860 C   0  0  0  0  0  0  0  0  0  0  0  0
  161.7360  209.2050  149.8530 C   0  0  0  0  0  0  0  0  0  0  0  0
  161.4260  204.1340  148.0670 C   0  0  0  0  0  3  0  0  0  0  0  0
  160.8530  209.1320  155.5050 C   0  0  0  0  0  2  0  0  0  0  0  0
  161.0260  205.7850  151.2610 N   0  0  0  0  0  0  0  0  0  0  0  0
  162.3780  203.0930  152.2270 C   0  0  0  0  0  1  0  0  0  0  0  0
  161.8870  207.7160  147.0040 C   0  0  0  0  0  3  0  0  0  0  0  0
  161.6790  205.2880  147.2930 C   0  0  0  0  0  3  0  0  0  0  0  0
  160.5260  204.7650  152.1860 C   0  0  0  0  0  2  0  0  0  0  0  0
  161.1990  210.3850  153.2480 C   0  0  1  0  0  3  0  0  0  0  0  0
  161.9480  209.6650  152.2410 C   0  0  1  0  0  3  0  0  0  0  0  0
  161.7290  206.5710  147.8860 C   0  0  0  0  0  0  0  0  0  0  0  0
  161.1060  207.1260  151.4060 C   0  0  0  0  0  0  0  0  0  0  0  0
  160.9330  203.1970  150.2970 O   0  0  0  0  0  0  0  0  0  0  0  0
  161.8620  209.7310  148.6060 C   0  0  0  0  0  0  0  0  0  0  0  0
  160.0450  202.3250  152.3590 C   0  0  0  0  0  1  0  0  0  0  0  0
  160.5670  209.2430  152.5300 N   0  0  1  0  0  0  0  0  0  0  0  0
  162.7130  210.4980  155.0530 O   0  0  0  0  0  0  0  0  0  0  0  0
  160.7520  207.7980  152.7240 C   0  0  2  0  0  3  0  0  0  0  0  0
  161.9270  209.0050  147.3170 C   0  0  0  0  0  3  0  0  0  0  0  0
  163.2610  211.7860  148.2630 C   0  0  0  0  0  3  0  0  0  0  0  0
  161.9990  211.2020  148.4450 C   0  0  0  0  0  0  0  0  0  0  0  0
  160.8700  212.0350  148.4260 C   0  0  0  0  0  3  0  0  0  0  0  0
  159.6110  214.4530  148.2390 Cl  0  0  0  0  0  0  0  0  0  0  0  0
  162.2940  213.9460  148.0840 C   0  0  0  0  0  3  0  0  0  0  0  0
  161.0160  213.4110  148.2510 C   0  0  0  0  0  0  0  0  0  0  0  0
  163.3800  213.1290  148.0910 N   0  0  0  0  0  0  0  0  0  0  0  0
  160.0800  207.0550  157.2600 C   0  0  0  0  0  2  0  0  0  0  0  0
  160.5890  206.7390  156.0750 C   0  0  0  0  0  3  0  0  0  0  0  0
  1  4  1  0  0  0  0
  2 17  1  0  0  0  0
  2 14  1  0  0  0  0
  2 24  1  0  0  0  0
  3  9  1  0  0  0  0
  3  7  1  0  0  0  0
  4 12  1  0  0  0  0
  4 37  1  0  0  0  0
  6  9  2  0  0  0  0
  6 22  1  0  0  0  0
  7 21  2  0  0  0  0
  8 26  2  0  0  0  0
  8 12  1  0  0  0  0
  9 13  1  0  0  0  0
 10  7  1  0  0  0  0
 10  5  1  0  0  0  0
 11  6  1  0  0  0  0
 13 21  1  0  0  0  0
 13 17  1  0  0  0  0
 15 28  2  0  0  0  0
 15 20  1  0  0  0  0
 16 20  1  0  0  0  0
 16 11  2  0  0  0  0
 18  8  1  1  0  0  0
 19  5  1  6  0  0  0
 19 25  1  0  0  0  0
 19 18  1  0  0  0  0
 20  3  2  0  0  0  0
 21 27  1  0  0  0  0
 22  2  1  0  0  0  0
 23 10  2  0  0  0  0
 25 27  1  0  0  0  0
 25 18  1  0  0  0  0
 27  1  1  0  0  0  0
 28 23  1  0  0  0  0
 29 30  1  0  0  0  0
 30 23  1  0  0  0  0
 31 30  2  0  0  0  0
 32 34  1  0  0  0  0
 33 35  1  0  0  0  0
 33 34  2  0  0  0  0
 34 31  1  0  0  0  0
 35 29  2  0  0  0  0
 37 36  2  0  0  0  0
M  END
>  <MODEL>
4

>  <REMARK>
 VINA RESULT:      -4.5      2.413      6.445
  Name = 
  2 active torsions:
  status: ('A' for Active; 'I' for Inactive)
    1  A    between atoms: N_4  and  C_37
    2  A    between atoms: C_23  and  C_30
                            x       y       z     vdW  Elec       q    Type
                         _______ _______ _______ _____ _____    ______ ____

>  <TORSDO>
F 2

$$$$
