=
 OpenBabel11122413053D

 32 37  0  0  1  0  0  0  0  0999 V2000
  160.4670  212.4510  146.1110 C   0  0  0  0  0  2  0  0  0  0  0  0
  160.3560  212.4180  150.5890 C   0  0  2  0  0  3  0  0  0  0  0  0
  162.3430  207.9180  150.7520 C   0  0  0  0  0  3  0  0  0  0  0  0
  161.5190  207.5930  151.8380 C   0  0  0  0  0  3  0  0  0  0  0  0
  158.6610  213.0170  152.3570 C   0  0  1  0  0  3  0  0  0  0  0  0
  158.5940  213.1550  153.8790 C   0  0  1  0  0  3  0  0  0  0  0  0
  161.0620  214.0020  148.7490 C   0  0  1  0  0  3  0  0  0  0  0  0
  161.7900  211.5580  148.7640 C   0  0  0  0  0  2  0  0  0  0  0  0
  158.0390  211.5010  155.5530 C   0  0  2  0  0  3  0  0  0  0  0  0
  162.7170  213.1770  147.0140 C   0  0  0  0  0  2  0  0  0  0  0  0
  162.3130  209.1800  150.2060 C   0  0  0  0  0  3  0  0  0  0  0  0
  161.4390  211.5270  150.1960 N   0  0  0  0  0  0  0  0  0  0  0  0
  161.5520  210.2450  150.8150 C   0  0  0  0  0  0  0  0  0  0  0  0
  160.1890  211.0490  152.7110 C   0  0  0  0  0  0  0  0  0  0  0  0
  157.1290  212.7420  155.7420 C   0  0  0  0  0  2  0  0  0  0  0  0
  159.5470  213.1190  147.1540 C   0  0  0  0  0  2  0  0  0  0  0  0
  162.1360  212.9950  148.4000 C   0  0  1  0  0  3  0  0  0  0  0  0
  157.1780  213.4770  154.3920 C   0  0  0  0  0  2  0  0  0  0  0  0
  160.0420  214.2790  147.7510 O   0  0  0  0  0  0  0  0  0  0  0  0
  161.7110  213.2870  145.8590 C   0  0  1  0  0  3  0  0  0  0  0  0
  160.8310  208.6330  152.5080 C   0  0  0  0  0  3  0  0  0  0  0  0
  160.9290  209.9240  152.0090 C   0  0  0  0  0  0  0  0  0  0  0  0
  159.7070  210.8510  153.8780 C   0  0  0  0  0  3  0  0  0  0  0  0
  160.5000  213.9010  150.1320 C   0  0  0  0  0  2  0  0  0  0  0  0
  158.1690  214.0720  151.6000 O   0  0  0  0  0  1  0  0  0  0  0  0
  158.7620  211.0780  156.8290 C   0  0  0  0  0  1  0  0  0  0  0  0
  160.0810  212.3800  152.0360 C   0  0  1  0  0  3  0  0  0  0  0  0
  158.9630  211.9500  154.5750 N   0  0  0  0  0  0  0  0  0  0  0  0
  162.4030  212.9530  144.5340 C   0  0  0  0  0  2  0  0  0  0  0  0
  161.4590  213.0400  143.3690 C   0  0  0  0  0  0  0  0  0  0  0  0
  160.9410  214.4170  143.0170 C   0  0  0  0  0  1  0  0  0  0  0  0
  161.2370  212.0540  142.6740 O   0  0  0  0  0  0  0  0  0  0  0  0
  1 16  1  0  0  0  0
  2 24  1  1  0  0  0
  2 27  1  0  0  0  0
  3  4  1  0  0  0  0
  4 21  2  0  0  0  0
  5 25  1  6  0  0  0
  5  6  1  0  0  0  0
  6 18  1  6  0  0  0
  6 28  1  0  0  0  0
  7 24  1  1  0  0  0
  8 12  1  0  0  0  0
  9 15  1  0  0  0  0
  9 26  1  1  0  0  0
 11  3  2  0  0  0  0
 11 13  1  0  0  0  0
 12  2  1  0  0  0  0
 12 13  1  0  0  0  0
 13 22  2  0  0  0  0
 14 23  2  0  0  0  0
 16 19  1  0  0  0  0
 17 10  1  6  0  0  0
 17  7  1  0  0  0  0
 17  8  1  0  0  0  0
 18 15  1  0  0  0  0
 19  7  1  0  0  0  0
 20 29  1  6  0  0  0
 20  1  1  0  0  0  0
 20 10  1  0  0  0  0
 22 21  1  0  0  0  0
 22 14  1  0  0  0  0
 23 28  1  0  0  0  0
 27  5  1  0  0  0  0
 27 14  1  6  0  0  0
 28  9  1  0  0  0  0
 30 29  1  0  0  0  0
 31 30  1  0  0  0  0
 32 30  2  0  0  0  0
M  END
>  <MODEL>
1

>  <REMARK>
 VINA RESULT:      -6.7      0.000      0.000
  Name = 
  2 active torsions:
  status: ('A' for Active; 'I' for Inactive)
    1  A    between atoms: C_20  and  C_29
    2  A    between atoms: C_29  and  C_30
                            x       y       z     vdW  Elec       q    Type
                         _______ _______ _______ _____ _____    ______ ____

>  <TORSDO>
F 2

$$$$
=
 OpenBabel11122413053D

 32 37  0  0  1  0  0  0  0  0999 V2000
  159.5860  213.0720  146.3950 C   0  0  0  0  0  2  0  0  0  0  0  0
  160.9840  211.4960  150.3490 C   0  0  2  0  0  3  0  0  0  0  0  0
  162.3980  207.2410  148.3190 C   0  0  0  0  0  3  0  0  0  0  0  0
  161.9560  206.5510  149.4560 C   0  0  0  0  0  3  0  0  0  0  0  0
  160.0590  211.4280  152.6930 C   0  0  1  0  0  3  0  0  0  0  0  0
  160.5220  211.0310  154.0960 C   0  0  1  0  0  3  0  0  0  0  0  0
  161.2020  213.6260  149.0030 C   0  0  1  0  0  3  0  0  0  0  0  0
  161.6160  211.3360  147.9610 C   0  0  0  0  0  2  0  0  0  0  0  0
  160.3830  208.8950  155.2190 C   0  0  2  0  0  3  0  0  0  0  0  0
  162.0750  213.4700  146.6280 C   0  0  0  0  0  2  0  0  0  0  0  0
  162.3260  208.6140  148.2630 C   0  0  0  0  0  3  0  0  0  0  0  0
  161.7660  210.8080  149.3300 N   0  0  0  0  0  0  0  0  0  0  0  0
  161.9370  209.3930  149.4140 C   0  0  0  0  0  0  0  0  0  0  0  0
  161.3880  209.4770  151.8210 C   0  0  0  0  0  0  0  0  0  0  0  0
  159.7320  209.9830  156.1120 C   0  0  0  0  0  2  0  0  0  0  0  0
  159.1500  213.3280  147.8530 C   0  0  0  0  0  2  0  0  0  0  0  0
  161.9770  212.8140  147.9890 C   0  0  1  0  0  3  0  0  0  0  0  0
  159.4070  211.1400  155.1510 C   0  0  0  0  0  2  0  0  0  0  0  0
  159.9430  214.2170  148.5790 O   0  0  0  0  0  0  0  0  0  0  0  0
  160.7580  213.9600  146.0070 C   0  0  1  0  0  3  0  0  0  0  0  0
  161.6530  207.2870  150.6260 C   0  0  0  0  0  3  0  0  0  0  0  0
  161.7200  208.6720  150.5760 C   0  0  0  0  0  0  0  0  0  0  0  0
  161.3080  208.8830  152.9490 C   0  0  0  0  0  3  0  0  0  0  0  0
  161.1290  213.0480  150.3810 C   0  0  0  0  0  2  0  0  0  0  0  0
  159.4610  212.6720  152.5490 O   0  0  0  0  0  1  0  0  0  0  0  0
  161.4400  208.0670  155.9440 C   0  0  0  0  0  1  0  0  0  0  0  0
  161.2080  210.9580  151.7010 C   0  0  1  0  0  3  0  0  0  0  0  0
  160.9680  209.6650  154.1820 N   0  0  0  0  0  0  0  0  0  0  0  0
  160.9240  214.1110  144.4930 C   0  0  0  0  0  2  0  0  0  0  0  0
  161.3160  212.8180  143.8370 C   0  0  0  0  0  0  0  0  0  0  0  0
  160.1870  211.9260  143.3690 C   0  0  0  0  0  1  0  0  0  0  0  0
  162.4930  212.5780  143.5890 O   0  0  0  0  0  0  0  0  0  0  0  0
  1 16  1  0  0  0  0
  2 24  1  1  0  0  0
  2 27  1  0  0  0  0
  3  4  1  0  0  0  0
  4 21  2  0  0  0  0
  5 25  1  1  0  0  0
  5  6  1  0  0  0  0
  6 28  1  0  0  0  0
  6 18  1  1  0  0  0
  7 24  1  1  0  0  0
  8 17  1  0  0  0  0
  8 12  1  0  0  0  0
  9 26  1  1  0  0  0
  9 15  1  0  0  0  0
 11  3  2  0  0  0  0
 11 13  1  0  0  0  0
 12 13  1  0  0  0  0
 12  2  1  0  0  0  0
 13 22  2  0  0  0  0
 14 23  2  0  0  0  0
 16 19  1  0  0  0  0
 17 10  1  6  0  0  0
 17  7  1  0  0  0  0
 18 15  1  0  0  0  0
 19  7  1  0  0  0  0
 20 29  1  6  0  0  0
 20  1  1  0  0  0  0
 20 10  1  0  0  0  0
 22 21  1  0  0  0  0
 22 14  1  0  0  0  0
 23 28  1  0  0  0  0
 27 14  1  6  0  0  0
 27  5  1  0  0  0  0
 28  9  1  0  0  0  0
 30 29  1  0  0  0  0
 31 30  1  0  0  0  0
 32 30  2  0  0  0  0
M  END
>  <MODEL>
2

>  <REMARK>
 VINA RESULT:      -6.2      1.517      2.171
  Name = 
  2 active torsions:
  status: ('A' for Active; 'I' for Inactive)
    1  A    between atoms: C_20  and  C_29
    2  A    between atoms: C_29  and  C_30
                            x       y       z     vdW  Elec       q    Type
                         _______ _______ _______ _____ _____    ______ ____

>  <TORSDO>
F 2

$$$$
=
 OpenBabel11122413053D

 32 37  0  0  1  0  0  0  0  0999 V2000
  162.8480  209.8630  153.5270 C   0  0  0  0  0  2  0  0  0  0  0  0
  161.3160  207.3250  150.1680 C   0  0  2  0  0  3  0  0  0  0  0  0
  160.8310  203.4290  153.1360 C   0  0  0  0  0  3  0  0  0  0  0  0
  161.2570  202.5870  152.1000 C   0  0  0  0  0  3  0  0  0  0  0  0
  161.9880  206.9010  147.7750 C   0  0  1  0  0  3  0  0  0  0  0  0
  161.4500  206.1630  146.5480 C   0  0  1  0  0  3  0  0  0  0  0  0
  160.8990  209.6370  151.1040 C   0  0  1  0  0  3  0  0  0  0  0  0
  160.9730  207.5770  152.6060 C   0  0  0  0  0  2  0  0  0  0  0  0
  161.8140  203.8800  145.8390 C   0  0  2  0  0  3  0  0  0  0  0  0
  160.3170  209.8580  153.5620 C   0  0  0  0  0  2  0  0  0  0  0  0
  160.6850  204.7800  152.9220 C   0  0  0  0  0  3  0  0  0  0  0  0
  160.7680  206.7630  151.3940 N   0  0  0  0  0  0  0  0  0  0  0  0
  160.8200  205.3510  151.6030 C   0  0  0  0  0  0  0  0  0  0  0  0
  161.0910  205.0090  149.1720 C   0  0  0  0  0  0  0  0  0  0  0  0
  162.1830  204.8390  144.6780 C   0  0  0  0  0  2  0  0  0  0  0  0
  163.0810  209.8690  152.0020 C   0  0  0  0  0  2  0  0  0  0  0  0
  160.3760  208.9540  152.3490 C   0  0  1  0  0  3  0  0  0  0  0  0
  162.4160  206.2030  145.3500 C   0  0  0  0  0  2  0  0  0  0  0  0
  162.0830  210.4710  151.2340 O   0  0  0  0  0  0  0  0  0  0  0  0
  161.5950  210.6410  153.8950 C   0  0  1  0  0  3  0  0  0  0  0  0
  161.3120  203.0990  150.7820 C   0  0  0  0  0  3  0  0  0  0  0  0
  161.0270  204.4420  150.5790 C   0  0  0  0  0  0  0  0  0  0  0  0
  161.1480  204.2110  148.1750 C   0  0  0  0  0  3  0  0  0  0  0  0
  160.9190  208.8020  149.8630 C   0  0  0  0  0  2  0  0  0  0  0  0
  162.3880  208.2190  147.6000 O   0  0  0  0  0  1  0  0  0  0  0  0
  160.8350  202.7830  145.4340 C   0  0  0  0  0  1  0  0  0  0  0  0
  161.0400  206.4940  148.9840 C   0  0  1  0  0  3  0  0  0  0  0  0
  161.2250  204.7610  146.7820 N   0  0  0  0  0  0  0  0  0  0  0  0
  161.5680  211.0790  155.3620 C   0  0  0  0  0  2  0  0  0  0  0  0
  162.3160  210.1250  156.2480 C   0  0  0  0  0  0  0  0  0  0  0  0
  163.4560  210.7030  157.0570 C   0  0  0  0  0  1  0  0  0  0  0  0
  161.9250  208.9710  156.3900 O   0  0  0  0  0  0  0  0  0  0  0  0
  1 20  1  0  0  0  0
  2 24  1  6  0  0  0
  2 12  1  0  0  0  0
  4  3  2  0  0  0  0
  5 25  1  6  0  0  0
  5 27  1  0  0  0  0
  6 18  1  6  0  0  0
  6 28  1  0  0  0  0
  6  5  1  0  0  0  0
  7 24  1  6  0  0  0
  7 19  1  0  0  0  0
  7 17  1  0  0  0  0
  9 26  1  6  0  0  0
  9 28  1  0  0  0  0
 10 20  1  0  0  0  0
 11  3  1  0  0  0  0
 12 13  1  0  0  0  0
 12  8  1  0  0  0  0
 13 11  2  0  0  0  0
 14 22  1  0  0  0  0
 15 18  1  0  0  0  0
 15  9  1  0  0  0  0
 16  1  1  0  0  0  0
 17  8  1  1  0  0  0
 17 10  1  0  0  0  0
 19 16  1  0  0  0  0
 20 29  1  1  0  0  0
 21  4  1  0  0  0  0
 22 21  2  0  0  0  0
 22 13  1  0  0  0  0
 23 14  2  0  0  0  0
 27 14  1  1  0  0  0
 27  2  1  0  0  0  0
 28 23  1  0  0  0  0
 29 30  1  0  0  0  0
 30 32  2  0  0  0  0
 30 31  1  0  0  0  0
M  END
>  <MODEL>
3

>  <REMARK>
 VINA RESULT:      -4.9      4.533      9.034
  Name = 
  2 active torsions:
  status: ('A' for Active; 'I' for Inactive)
    1  A    between atoms: C_20  and  C_29
    2  A    between atoms: C_29  and  C_30
                            x       y       z     vdW  Elec       q    Type
                         _______ _______ _______ _____ _____    ______ ____

>  <TORSDO>
F 2

$$$$
=
 OpenBabel11122413053D

 32 37  0  0  1  0  0  0  0  0999 V2000
  162.4230  201.9680  149.7820 C   0  0  0  0  0  2  0  0  0  0  0  0
  161.0020  205.6710  151.8640 C   0  0  2  0  0  3  0  0  0  0  0  0
  161.8930  208.4280  147.8860 C   0  0  0  0  0  3  0  0  0  0  0  0
  162.3310  209.4740  148.7080 C   0  0  0  0  0  3  0  0  0  0  0  0
  161.3670  206.7230  154.1270 C   0  0  1  0  0  3  0  0  0  0  0  0
  160.8250  207.8960  154.9450 C   0  0  1  0  0  3  0  0  0  0  0  0
  160.2210  203.2860  151.5510 C   0  0  1  0  0  3  0  0  0  0  0  0
  160.9980  204.7100  149.5840 C   0  0  0  0  0  2  0  0  0  0  0  0
  161.5850  210.1890  155.0420 C   0  0  2  0  0  3  0  0  0  0  0  0
  159.9990  202.3880  149.1900 C   0  0  0  0  0  2  0  0  0  0  0  0
  161.4100  207.2630  148.4350 C   0  0  0  0  0  3  0  0  0  0  0  0
  160.7960  205.8930  150.4390 N   0  0  0  0  0  0  0  0  0  0  0  0
  161.2020  207.1330  149.8570 C   0  0  0  0  0  0  0  0  0  0  0  0
  161.1580  208.1880  152.0900 C   0  0  0  0  0  0  0  0  0  0  0  0
  161.5370  209.6080  156.4780 C   0  0  0  0  0  2  0  0  0  0  0  0
  162.4060  202.4140  151.2590 C   0  0  0  0  0  2  0  0  0  0  0  0
  160.0710  203.6110  150.0810 C   0  0  1  0  0  3  0  0  0  0  0  0
  161.5560  208.0810  156.2870 C   0  0  0  0  0  2  0  0  0  0  0  0
  161.1880  202.2680  151.9260 O   0  0  0  0  0  0  0  0  0  0  0  0
  161.1000  201.3360  149.3820 C   0  0  1  0  0  3  0  0  0  0  0  0
  162.0600  209.4120  150.0960 C   0  0  0  0  0  3  0  0  0  0  0  0
  161.4470  208.2740  150.6020 C   0  0  0  0  0  0  0  0  0  0  0  0
  161.2370  209.2420  152.8080 C   0  0  0  0  0  3  0  0  0  0  0  0
  160.2350  204.4610  152.4790 C   0  0  0  0  0  2  0  0  0  0  0  0
  161.4230  205.4840  154.7500 O   0  0  0  0  0  1  0  0  0  0  0  0
  160.8310  211.5070  154.8950 C   0  0  0  0  0  1  0  0  0  0  0  0
  160.7400  206.8730  152.6740 C   0  0  1  0  0  3  0  0  0  0  0  0
  160.9670  209.1650  154.2810 N   0  0  0  0  0  0  0  0  0  0  0  0
  161.2050  200.4610  148.1300 C   0  0  0  0  0  2  0  0  0  0  0  0
  161.0220  201.2570  146.8700 C   0  0  0  0  0  0  0  0  0  0  0  0
  160.4560  200.5190  145.6770 C   0  0  0  0  0  1  0  0  0  0  0  0
  161.2070  202.4700  146.8690 O   0  0  0  0  0  0  0  0  0  0  0  0
  1 16  1  0  0  0  0
  2 24  1  1  0  0  0
  2 27  1  0  0  0  0
  3 11  2  0  0  0  0
  3  4  1  0  0  0  0
  4 21  2  0  0  0  0
  5 25  1  1  0  0  0
  5  6  1  0  0  0  0
  6 18  1  1  0  0  0
  7 19  1  0  0  0  0
  7 24  1  1  0  0  0
  8 17  1  0  0  0  0
  8 12  1  0  0  0  0
  9 26  1  1  0  0  0
  9 15  1  0  0  0  0
 10 20  1  0  0  0  0
 11 13  1  0  0  0  0
 12  2  1  0  0  0  0
 13 12  1  0  0  0  0
 13 22  2  0  0  0  0
 14 23  2  0  0  0  0
 16 19  1  0  0  0  0
 17 10  1  6  0  0  0
 17  7  1  0  0  0  0
 18 15  1  0  0  0  0
 20 29  1  6  0  0  0
 20  1  1  0  0  0  0
 21 22  1  0  0  0  0
 22 14  1  0  0  0  0
 23 28  1  0  0  0  0
 27 14  1  6  0  0  0
 27  5  1  0  0  0  0
 28  6  1  0  0  0  0
 28  9  1  0  0  0  0
 30 29  1  0  0  0  0
 31 30  1  0  0  0  0
 32 30  2  0  0  0  0
M  END
>  <MODEL>
4

>  <REMARK>
 VINA RESULT:      -4.4      5.273      8.257
  Name = 
  2 active torsions:
  status: ('A' for Active; 'I' for Inactive)
    1  A    between atoms: C_20  and  C_29
    2  A    between atoms: C_29  and  C_30
                            x       y       z     vdW  Elec       q    Type
                         _______ _______ _______ _____ _____    ______ ____

>  <TORSDO>
F 2

$$$$
=
 OpenBabel11122413053D

 32 37  0  0  1  0  0  0  0  0999 V2000
  160.0890  205.6900  146.0370 C   0  0  0  0  0  2  0  0  0  0  0  0
  161.6070  206.9260  150.0670 C   0  0  2  0  0  3  0  0  0  0  0  0
  160.7450  202.4530  151.9280 C   0  0  0  0  0  3  0  0  0  0  0  0
  160.3360  203.0330  153.1360 C   0  0  0  0  0  3  0  0  0  0  0  0
  161.2820  208.9120  151.5860 C   0  0  1  0  0  3  0  0  0  0  0  0
  161.8560  209.4590  152.8940 C   0  0  1  0  0  3  0  0  0  0  0  0
  162.3340  207.1290  147.6530 C   0  0  1  0  0  3  0  0  0  0  0  0
  161.5720  204.9050  148.6400 C   0  0  0  0  0  2  0  0  0  0  0  0
  161.1470  209.0650  155.1720 C   0  0  2  0  0  3  0  0  0  0  0  0
  162.5180  205.0150  146.2650 C   0  0  0  0  0  2  0  0  0  0  0  0
  161.2060  203.2370  150.8960 C   0  0  0  0  0  3  0  0  0  0  0  0
  161.8060  205.4870  149.9740 N   0  0  0  0  0  0  0  0  0  0  0  0
  161.4230  204.6540  151.0690 C   0  0  0  0  0  0  0  0  0  0  0  0
  161.5080  206.6090  152.5760 C   0  0  0  0  0  0  0  0  0  0  0  0
  161.1930  210.5930  154.9100 C   0  0  0  0  0  2  0  0  0  0  0  0
  160.1280  207.0370  146.7880 C   0  0  0  0  0  2  0  0  0  0  0  0
  162.4790  205.6230  147.6510 C   0  0  1  0  0  3  0  0  0  0  0  0
  161.1400  210.7330  153.3790 C   0  0  0  0  0  2  0  0  0  0  0  0
  161.3470  207.7160  146.7610 O   0  0  0  0  0  0  0  0  0  0  0  0
  161.3950  205.4310  145.3040 C   0  0  1  0  0  3  0  0  0  0  0  0
  160.6170  204.4010  153.3650 C   0  0  0  0  0  3  0  0  0  0  0  0
  161.2080  205.1380  152.3490 C   0  0  0  0  0  0  0  0  0  0  0  0
  161.4560  207.0850  153.7610 C   0  0  0  0  0  3  0  0  0  0  0  0
  162.3520  207.7840  148.9980 C   0  0  0  0  0  2  0  0  0  0  0  0
  161.2040  209.7870  150.5110 O   0  0  0  0  0  1  0  0  0  0  0  0
  161.9280  208.6370  156.4100 C   0  0  0  0  0  1  0  0  0  0  0  0
  161.9010  207.4590  151.4080 C   0  0  1  0  0  3  0  0  0  0  0  0
  161.7370  208.5390  153.9950 N   0  0  0  0  0  0  0  0  0  0  0  0
  161.2620  204.3950  144.1840 C   0  0  0  0  0  2  0  0  0  0  0  0
  160.3280  203.2790  144.5570 C   0  0  0  0  0  0  0  0  0  0  0  0
  160.8310  202.2920  145.5870 C   0  0  0  0  0  1  0  0  0  0  0  0
  159.1770  203.2630  144.1340 O   0  0  0  0  0  0  0  0  0  0  0  0
  1 16  1  0  0  0  0
  2 24  1  6  0  0  0
  2 27  1  0  0  0  0
  3  4  1  0  0  0  0
  4 21  2  0  0  0  0
  5 25  1  6  0  0  0
  5  6  1  0  0  0  0
  6 18  1  1  0  0  0
  6 28  1  0  0  0  0
  7 24  1  1  0  0  0
  8 12  1  0  0  0  0
  9 26  1  1  0  0  0
 11 13  1  0  0  0  0
 11  3  2  0  0  0  0
 12  2  1  0  0  0  0
 12 13  1  0  0  0  0
 13 22  2  0  0  0  0
 14 23  2  0  0  0  0
 15  9  1  0  0  0  0
 17 10  1  6  0  0  0
 17  7  1  0  0  0  0
 17  8  1  0  0  0  0
 18 15  1  0  0  0  0
 19 16  1  0  0  0  0
 19  7  1  0  0  0  0
 20 29  1  6  0  0  0
 20  1  1  0  0  0  0
 20 10  1  0  0  0  0
 22 14  1  0  0  0  0
 22 21  1  0  0  0  0
 23 28  1  0  0  0  0
 27  5  1  0  0  0  0
 27 14  1  1  0  0  0
 28  9  1  0  0  0  0
 29 30  1  0  0  0  0
 30 31  1  0  0  0  0
 32 30  2  0  0  0  0
M  END
>  <MODEL>
5

>  <REMARK>
 VINA RESULT:      -4.0      4.627      6.469
  Name = 
  2 active torsions:
  status: ('A' for Active; 'I' for Inactive)
    1  A    between atoms: C_20  and  C_29
    2  A    between atoms: C_29  and  C_30
                            x       y       z     vdW  Elec       q    Type
                         _______ _______ _______ _____ _____    ______ ____

>  <TORSDO>
F 2

$$$$
