=
 OpenBabel11122412393D

 30 35  0  0  1  0  0  0  0  0999 V2000
  161.7980  208.4710  151.5100 C   0  0  0  0  0  0  0  0  0  0  0  0
  161.3890  209.1370  153.8370 C   0  0  0  0  0  0  0  0  0  0  0  0
  160.8110  204.4620  152.4320 N   0  0  0  0  0  0  0  0  0  0  0  0
  162.0290  207.4030  150.4350 C   0  0  0  0  0  0  0  0  0  0  0  0
  162.0300  209.8660  151.0890 C   0  0  0  0  0  3  0  0  0  0  0  0
  161.5750  209.6280  147.5670 O   0  0  0  0  0  0  0  0  0  0  0  0
  162.2490  205.7150  147.9870 C   0  0  1  0  0  3  0  0  0  0  0  0
  161.7160  209.2460  148.7610 C   0  0  0  0  0  0  0  0  0  0  0  0
  161.8050  204.6810  148.9070 N   0  0  0  0  0  0  0  0  0  0  0  0
  161.0000  203.9210  151.2690 C   0  0  0  0  0  0  0  0  0  0  0  0
  162.0210  210.2390  149.8050 C   0  0  0  0  0  0  0  0  0  0  0  0
  161.5750  207.8520  149.0990 N   0  0  0  0  0  0  0  0  0  0  0  0
  161.0400  208.7830  155.1420 C   0  0  0  0  0  3  0  0  0  0  0  0
  161.6440  203.4590  148.2100 C   0  0  0  0  0  3  0  0  0  0  0  0
  162.2680  205.0280  146.6210 C   0  0  0  0  0  2  0  0  0  0  0  0
  161.6800  210.4440  153.6150 F   0  0  0  0  0  0  0  0  0  0  0  0
  161.1070  205.8440  152.2400 C   0  0  2  0  0  3  0  0  0  0  0  0
  160.7370  207.4650  155.4670 C   0  0  0  0  0  3  0  0  0  0  0  0
  161.4540  208.1530  152.8080 C   0  0  0  0  0  0  0  0  0  0  0  0
  161.4580  206.0910  150.8730 C   0  0  0  0  0  0  0  0  0  0  0  0
  160.8150  202.4640  151.0280 C   0  0  0  0  0  1  0  0  0  0  0  0
  161.4370  204.9140  150.2710 C   0  0  0  0  0  0  0  0  0  0  0  0
  161.9050  203.6080  146.9250 C   0  0  0  0  0  3  0  0  0  0  0  0
  159.8240  206.5640  147.9310 C   0  0  0  0  0  1  0  0  0  0  0  0
  160.7740  206.4840  154.4840 C   0  0  0  0  0  3  0  0  0  0  0  0
  161.1190  206.8050  153.1660 C   0  0  0  0  0  0  0  0  0  0  0  0
  161.3030  206.9240  147.9920 C   0  0  2  0  0  3  0  0  0  0  0  0
  162.2520  211.6050  149.4250 N   0  0  0  0  0  0  0  0  0  0  0  0
  161.6390  213.8230  148.7120 C   0  0  0  0  0  1  0  0  0  0  0  0
  161.3080  212.4250  149.0910 C   0  0  0  0  0  3  0  0  0  0  0  0
  1 19  1  0  0  0  0
  2 13  1  0  0  0  0
  4 20  1  0  0  0  0
  4  1  2  0  0  0  0
  5  1  1  0  0  0  0
  6  8  2  0  0  0  0
  7 15  1  6  0  0  0
  7 27  1  0  0  0  0
  7  9  1  0  0  0  0
  8 12  1  0  0  0  0
  8 11  1  0  0  0  0
  9 22  1  0  0  0  0
 10  3  2  0  0  0  0
 11  5  2  0  0  0  0
 12  4  1  0  0  0  0
 13 18  2  0  0  0  0
 14  9  1  0  0  0  0
 15 23  1  0  0  0  0
 16  2  1  0  0  0  0
 17 20  1  1  0  0  0
 17  3  1  0  0  0  0
 17 26  1  0  0  0  0
 19 26  1  0  0  0  0
 19  2  2  0  0  0  0
 21 10  1  0  0  0  0
 22 20  2  0  0  0  0
 22 10  1  0  0  0  0
 23 14  2  0  0  0  0
 25 18  1  0  0  0  0
 26 25  2  0  0  0  0
 27 24  1  1  0  0  0
 27 12  1  0  0  0  0
 28 11  1  0  0  0  0
 29 30  1  0  0  0  0
 30 28  2  0  0  0  0
M  END
>  <MODEL>
1

>  <REMARK>
 VINA RESULT:      -8.5      0.000      0.000
  Name = 
  1 active torsions:
  status: ('A' for Active; 'I' for Inactive)
    1  A    between atoms: C_11  and  N_28
                            x       y       z     vdW  Elec       q    Type
                         _______ _______ _______ _____ _____    ______ ____

>  <TORSDO>
F 1

$$$$
=
 OpenBabel11122412393D

 30 35  0  0  1  0  0  0  0  0999 V2000
  160.9010  205.4410  149.7250 C   0  0  0  0  0  0  0  0  0  0  0  0
  161.0590  202.9950  149.5970 C   0  0  0  0  0  0  0  0  0  0  0  0
  161.1630  205.2870  153.9440 N   0  0  0  0  0  0  0  0  0  0  0  0
  160.6780  206.7380  150.5110 C   0  0  2  0  0  3  0  0  0  0  0  0
  160.9330  205.5790  148.2550 C   0  0  0  0  0  3  0  0  0  0  0  0
  161.8550  208.9970  147.8860 O   0  0  0  0  0  0  0  0  0  0  0  0
  160.5770  209.4970  151.6360 C   0  0  1  0  0  3  0  0  0  0  0  0
  161.4900  207.9350  148.4610 C   0  0  0  0  0  0  0  0  0  0  0  0
  160.7310  208.7740  152.8870 N   0  0  0  0  0  0  0  0  0  0  0  0
  161.0690  206.5520  154.2110 C   0  0  0  0  0  0  0  0  0  0  0  0
  161.1810  206.7450  147.6500 C   0  0  0  0  0  0  0  0  0  0  0  0
  161.3810  207.8880  149.8970 N   0  0  0  0  0  0  0  0  0  0  0  0
  161.1610  201.7640  150.2490 C   0  0  0  0  0  3  0  0  0  0  0  0
  160.8170  209.6920  153.9610 C   0  0  0  0  0  3  0  0  0  0  0  0
  160.6590  210.9710  152.0340 C   0  0  0  0  0  2  0  0  0  0  0  0
  160.9930  202.9650  148.2410 F   0  0  0  0  0  0  0  0  0  0  0  0
  161.0980  205.2130  152.5210 C   0  0  0  0  0  0  0  0  0  0  0  0
  161.2230  201.6950  151.6360 C   0  0  0  0  0  3  0  0  0  0  0  0
  161.0050  204.2100  150.3390 C   0  0  0  0  0  0  0  0  0  0  0  0
  160.9870  206.5270  151.9600 C   0  0  0  0  0  0  0  0  0  0  0  0
  161.0780  207.0750  155.6050 C   0  0  0  0  0  1  0  0  0  0  0  0
  160.9270  207.3590  152.9860 C   0  0  0  0  0  0  0  0  0  0  0  0
  160.7690  210.9370  153.5260 C   0  0  0  0  0  3  0  0  0  0  0  0
  163.0810  209.0980  151.2140 C   0  0  0  0  0  1  0  0  0  0  0  0
  161.1900  202.8620  152.3900 C   0  0  0  0  0  3  0  0  0  0  0  0
  161.0880  204.1110  151.7680 C   0  0  0  0  0  0  0  0  0  0  0  0
  161.6750  209.1290  150.6280 C   0  0  2  0  0  3  0  0  0  0  0  0
  161.2050  206.8500  146.2180 N   0  0  0  0  0  0  0  0  0  0  0  0
  161.2060  206.0300  143.9520 C   0  0  0  0  0  1  0  0  0  0  0  0
  161.1780  205.8270  145.4240 C   0  0  0  0  0  3  0  0  0  0  0  0
  1 19  2  0  0  0  0
  2 13  2  0  0  0  0
  2 19  1  0  0  0  0
  3 10  2  0  0  0  0
  4  1  1  6  0  0  0
  4 20  1  0  0  0  0
  5  1  1  0  0  0  0
  6  8  2  0  0  0  0
  7 15  1  1  0  0  0
  7  9  1  0  0  0  0
  8 12  1  0  0  0  0
  9 22  1  0  0  0  0
  9 14  1  0  0  0  0
 10 21  1  0  0  0  0
 11  5  2  0  0  0  0
 11  8  1  0  0  0  0
 12  4  1  0  0  0  0
 12 27  1  0  0  0  0
 13 18  1  0  0  0  0
 15 23  1  0  0  0  0
 16  2  1  0  0  0  0
 17  3  1  0  0  0  0
 18 25  2  0  0  0  0
 19 26  1  0  0  0  0
 20 17  1  0  0  0  0
 20 22  2  0  0  0  0
 22 10  1  0  0  0  0
 23 14  2  0  0  0  0
 26 25  1  0  0  0  0
 26 17  2  0  0  0  0
 27 24  1  1  0  0  0
 27  7  1  0  0  0  0
 28 11  1  0  0  0  0
 29 30  1  0  0  0  0
 30 28  2  0  0  0  0
M  END
>  <MODEL>
2

>  <REMARK>
 VINA RESULT:      -7.8      2.451      5.682
  Name = 
  1 active torsions:
  status: ('A' for Active; 'I' for Inactive)
    1  A    between atoms: C_11  and  N_28
                            x       y       z     vdW  Elec       q    Type
                         _______ _______ _______ _____ _____    ______ ____

>  <TORSDO>
F 1

$$$$
=
 OpenBabel11122412393D

 30 35  0  0  1  0  0  0  0  0999 V2000
  161.0950  208.2210  151.4640 C   0  0  0  0  0  0  0  0  0  0  0  0
  161.6330  210.5380  150.8580 C   0  0  0  0  0  0  0  0  0  0  0  0
  161.9960  206.9330  147.5370 N   0  0  0  0  0  0  0  0  0  0  0  0
  160.7800  206.7690  151.0890 C   0  0  2  0  0  3  0  0  0  0  0  0
  160.8870  208.5770  152.8820 C   0  0  0  0  0  3  0  0  0  0  0  0
  161.1700  205.3990  154.4590 O   0  0  0  0  0  0  0  0  0  0  0  0
  160.3930  203.8200  150.8740 C   0  0  1  0  0  3  0  0  0  0  0  0
  161.0730  206.2410  153.5250 C   0  0  0  0  0  0  0  0  0  0  0  0
  160.8460  204.0650  149.5150 N   0  0  0  0  0  0  0  0  0  0  0  0
  161.7360  205.6690  147.6610 C   0  0  0  0  0  0  0  0  0  0  0  0
  160.8480  207.6600  153.8530 C   0  0  0  0  0  0  0  0  0  0  0  0
  161.1850  205.8200  152.1520 N   0  0  0  0  0  0  0  0  0  0  0  0
  162.0310  211.4630  149.8910 C   0  0  0  0  0  3  0  0  0  0  0  0
  160.9360  202.8380  148.8140 C   0  0  0  0  0  3  0  0  0  0  0  0
  160.2880  202.2980  150.9740 C   0  0  0  0  0  2  0  0  0  0  0  0
  161.3740  211.0250  152.0990 F   0  0  0  0  0  0  0  0  0  0  0  0
  161.7360  207.4830  148.8270 C   0  0  0  0  0  0  0  0  0  0  0  0
  162.3060  211.0600  148.5890 C   0  0  0  0  0  3  0  0  0  0  0  0
  161.4890  209.1580  150.5320 C   0  0  0  0  0  0  0  0  0  0  0  0
  161.3290  206.4510  149.7340 C   0  0  0  0  0  0  0  0  0  0  0  0
  161.8630  204.7150  146.5260 C   0  0  0  0  0  1  0  0  0  0  0  0
  161.2850  205.3360  149.0240 C   0  0  0  0  0  0  0  0  0  0  0  0
  160.6200  201.8220  149.5950 C   0  0  0  0  0  3  0  0  0  0  0  0
  162.8380  204.0650  151.6250 C   0  0  0  0  0  1  0  0  0  0  0  0
  162.1930  209.7190  148.2410 C   0  0  0  0  0  3  0  0  0  0  0  0
  161.7970  208.7670  149.1870 C   0  0  0  0  0  0  0  0  0  0  0  0
  161.3760  204.3830  151.9110 C   0  0  2  0  0  3  0  0  0  0  0  0
  160.6440  208.0360  155.2240 N   0  0  0  0  0  0  0  0  0  0  0  0
  161.0730  209.2530  157.2590 C   0  0  0  0  0  1  0  0  0  0  0  0
  161.3560  208.9260  155.8370 C   0  0  0  0  0  3  0  0  0  0  0  0
  1  5  1  0  0  0  0
  2 16  1  0  0  0  0
  3 10  2  0  0  0  0
  3 17  1  0  0  0  0
  4 20  1  6  0  0  0
  4  1  1  0  0  0  0
  4 12  1  0  0  0  0
  5 11  2  0  0  0  0
  7 15  1  1  0  0  0
  7 27  1  0  0  0  0
  8 11  1  0  0  0  0
  8  6  2  0  0  0  0
  9  7  1  0  0  0  0
 10 22  1  0  0  0  0
 11 28  1  0  0  0  0
 12  8  1  0  0  0  0
 13  2  2  0  0  0  0
 14  9  1  0  0  0  0
 14 23  2  0  0  0  0
 17 26  2  0  0  0  0
 17 20  1  0  0  0  0
 18 13  1  0  0  0  0
 19  2  1  0  0  0  0
 19  1  2  0  0  0  0
 21 10  1  0  0  0  0
 22  9  1  0  0  0  0
 22 20  2  0  0  0  0
 23 15  1  0  0  0  0
 25 18  2  0  0  0  0
 25 26  1  0  0  0  0
 26 19  1  0  0  0  0
 27 24  1  6  0  0  0
 27 12  1  0  0  0  0
 28 30  2  0  0  0  0
 30 29  1  0  0  0  0
M  END
>  <MODEL>
3

>  <REMARK>
 VINA RESULT:      -7.8      2.130      4.965
  Name = 
  1 active torsions:
  status: ('A' for Active; 'I' for Inactive)
    1  A    between atoms: C_11  and  N_28
                            x       y       z     vdW  Elec       q    Type
                         _______ _______ _______ _____ _____    ______ ____

>  <TORSDO>
F 1

$$$$
=
 OpenBabel11122412393D

 30 35  0  0  1  0  0  0  0  0999 V2000
  161.0080  209.1440  151.6660 C   0  0  0  0  0  0  0  0  0  0  0  0
  161.3700  211.3880  150.7420 C   0  0  0  0  0  0  0  0  0  0  0  0
  161.9520  207.3990  147.9310 N   0  0  0  0  0  0  0  0  0  0  0  0
  160.7940  207.6360  151.4980 C   0  0  2  0  0  3  0  0  0  0  0  0
  160.7920  209.6740  153.0270 C   0  0  0  0  0  3  0  0  0  0  0  0
  161.3230  206.7690  155.0120 O   0  0  0  0  0  0  0  0  0  0  0  0
  160.6180  204.6650  151.6920 C   0  0  1  0  0  3  0  0  0  0  0  0
  161.1530  207.4670  153.9750 C   0  0  0  0  0  0  0  0  0  0  0  0
  161.0360  204.7540  150.3030 N   0  0  0  0  0  0  0  0  0  0  0  0
  161.7860  206.1480  148.2300 C   0  0  0  0  0  0  0  0  0  0  0  0
  160.8310  208.8970  154.1140 C   0  0  0  0  0  0  0  0  0  0  0  0
  161.2800  206.8710  152.6700 N   0  0  0  0  0  0  0  0  0  0  0  0
  161.6890  212.1990  149.6500 C   0  0  0  0  0  3  0  0  0  0  0  0
  161.2060  203.4520  149.7720 C   0  0  0  0  0  3  0  0  0  0  0  0
  160.6250  203.1670  151.9980 C   0  0  0  0  0  2  0  0  0  0  0  0
  161.0910  212.0200  151.9100 F   0  0  0  0  0  0  0  0  0  0  0  0
  161.6690  208.0990  149.1400 C   0  0  0  0  0  0  0  0  0  0  0  0
  161.9770  211.6420  148.4090 C   0  0  0  0  0  3  0  0  0  0  0  0
  161.3220  209.9700  150.6080 C   0  0  0  0  0  0  0  0  0  0  0  0
  161.3480  207.1750  150.1860 C   0  0  0  0  0  0  0  0  0  0  0  0
  161.9680  205.0590  147.2310 C   0  0  0  0  0  1  0  0  0  0  0  0
  161.3760  205.9740  149.6350 C   0  0  0  0  0  0  0  0  0  0  0  0
  160.9740  202.5320  150.6890 C   0  0  0  0  0  3  0  0  0  0  0  0
  163.0490  205.1800  152.3500 C   0  0  0  0  0  1  0  0  0  0  0  0
  161.9560  210.2620  148.2470 C   0  0  0  0  0  3  0  0  0  0  0  0
  161.6410  209.4220  149.3210 C   0  0  0  0  0  0  0  0  0  0  0  0
  161.5700  205.4310  152.6210 C   0  0  2  0  0  3  0  0  0  0  0  0
  160.6170  209.4420  155.4250 N   0  0  0  0  0  0  0  0  0  0  0  0
  160.6290  211.1460  157.1300 C   0  0  0  0  0  1  0  0  0  0  0  0
  160.8840  210.6670  155.7460 C   0  0  0  0  0  3  0  0  0  0  0  0
  1  5  1  0  0  0  0
  2 16  1  0  0  0  0
  3 10  2  0  0  0  0
  3 17  1  0  0  0  0
  4 20  1  6  0  0  0
  4  1  1  0  0  0  0
  4 12  1  0  0  0  0
  5 11  2  0  0  0  0
  7 15  1  1  0  0  0
  7 27  1  0  0  0  0
  8 11  1  0  0  0  0
  8  6  2  0  0  0  0
  9  7  1  0  0  0  0
 10 22  1  0  0  0  0
 11 28  1  0  0  0  0
 12  8  1  0  0  0  0
 13  2  2  0  0  0  0
 14  9  1  0  0  0  0
 14 23  2  0  0  0  0
 17 26  2  0  0  0  0
 17 20  1  0  0  0  0
 18 13  1  0  0  0  0
 19  2  1  0  0  0  0
 19  1  2  0  0  0  0
 21 10  1  0  0  0  0
 22 20  2  0  0  0  0
 22  9  1  0  0  0  0
 23 15  1  0  0  0  0
 25 18  2  0  0  0  0
 25 26  1  0  0  0  0
 26 19  1  0  0  0  0
 27 24  1  6  0  0  0
 27 12  1  0  0  0  0
 28 30  2  0  0  0  0
 30 29  1  0  0  0  0
M  END
>  <MODEL>
4

>  <REMARK>
 VINA RESULT:      -6.8      2.265      4.967
  Name = 
  1 active torsions:
  status: ('A' for Active; 'I' for Inactive)
    1  A    between atoms: C_11  and  N_28
                            x       y       z     vdW  Elec       q    Type
                         _______ _______ _______ _____ _____    ______ ____

>  <TORSDO>
F 1

$$$$
=
 OpenBabel11122412393D

 30 35  0  0  1  0  0  0  0  0999 V2000
  161.1860  207.7130  150.9390 C   0  0  0  0  0  0  0  0  0  0  0  0
  161.5130  205.5170  149.8930 C   0  0  0  0  0  0  0  0  0  0  0  0
  160.7500  205.8960  154.7330 N   0  0  0  0  0  0  0  0  0  0  0  0
  160.7560  208.5940  152.1170 C   0  0  2  0  0  3  0  0  0  0  0  0
  161.4540  208.4220  149.6720 C   0  0  0  0  0  3  0  0  0  0  0  0
  162.2130  211.6970  150.8410 O   0  0  0  0  0  0  0  0  0  0  0  0
  160.2990  210.6820  154.1960 C   0  0  1  0  0  3  0  0  0  0  0  0
  161.8220  210.4980  150.8800 C   0  0  0  0  0  0  0  0  0  0  0  0
  160.2870  209.5210  155.0690 N   0  0  0  0  0  0  0  0  0  0  0  0
  160.5350  206.9530  155.4540 C   0  0  0  0  0  0  0  0  0  0  0  0
  161.7270  209.7300  149.6270 C   0  0  0  0  0  0  0  0  0  0  0  0
  161.4790  209.8860  152.1380 N   0  0  0  0  0  0  0  0  0  0  0  0
  161.5810  204.1280  150.0170 C   0  0  0  0  0  3  0  0  0  0  0  0
  160.1350  209.9370  156.4140 C   0  0  0  0  0  3  0  0  0  0  0  0
  160.2220  211.8760  155.1470 C   0  0  0  0  0  2  0  0  0  0  0  0
  161.6760  206.0270  148.6460 F   0  0  0  0  0  0  0  0  0  0  0  0
  160.9280  206.3940  153.4090 C   0  0  0  0  0  0  0  0  0  0  0  0
  161.4150  203.5130  151.2530 C   0  0  0  0  0  3  0  0  0  0  0  0
  161.2610  206.3390  151.0300 C   0  0  0  0  0  0  0  0  0  0  0  0
  160.8310  207.8230  153.3980 C   0  0  0  0  0  0  0  0  0  0  0  0
  160.2790  206.8800  156.9190 C   0  0  0  0  0  1  0  0  0  0  0  0
  160.5500  208.1810  154.6390 C   0  0  0  0  0  0  0  0  0  0  0  0
  160.0840  211.2520  156.5000 C   0  0  0  0  0  3  0  0  0  0  0  0
  162.8580  210.4580  154.1030 C   0  0  0  0  0  1  0  0  0  0  0  0
  161.1850  204.2860  152.3860 C   0  0  0  0  0  3  0  0  0  0  0  0
  161.1110  205.6810  152.2950 C   0  0  0  0  0  0  0  0  0  0  0  0
  161.5700  210.7330  153.3360 C   0  0  2  0  0  3  0  0  0  0  0  0
  161.9830  210.3940  148.3790 N   0  0  0  0  0  0  0  0  0  0  0  0
  161.8920  212.2030  146.7900 C   0  0  0  0  0  1  0  0  0  0  0  0
  161.5810  211.5940  148.1090 C   0  0  0  0  0  3  0  0  0  0  0  0
  1 19  2  0  0  0  0
  2 13  2  0  0  0  0
  2 19  1  0  0  0  0
  3 10  2  0  0  0  0
  4  1  1  6  0  0  0
  4 12  1  0  0  0  0
  4 20  1  0  0  0  0
  5  1  1  0  0  0  0
  6  8  2  0  0  0  0
  7  9  1  0  0  0  0
  7 15  1  1  0  0  0
  8 12  1  0  0  0  0
  9 14  1  0  0  0  0
 10 21  1  0  0  0  0
 11  5  2  0  0  0  0
 11  8  1  0  0  0  0
 12 27  1  0  0  0  0
 13 18  1  0  0  0  0
 14 23  2  0  0  0  0
 15 23  1  0  0  0  0
 16  2  1  0  0  0  0
 17  3  1  0  0  0  0
 18 25  2  0  0  0  0
 19 26  1  0  0  0  0
 20 17  1  0  0  0  0
 20 22  2  0  0  0  0
 22  9  1  0  0  0  0
 22 10  1  0  0  0  0
 26 25  1  0  0  0  0
 26 17  2  0  0  0  0
 27 24  1  1  0  0  0
 27  7  1  0  0  0  0
 28 11  1  0  0  0  0
 29 30  1  0  0  0  0
 30 28  2  0  0  0  0
M  END
>  <MODEL>
5

>  <REMARK>
 VINA RESULT:      -5.9      2.390      5.734
  Name = 
  1 active torsions:
  status: ('A' for Active; 'I' for Inactive)
    1  A    between atoms: C_11  and  N_28
                            x       y       z     vdW  Elec       q    Type
                         _______ _______ _______ _____ _____    ______ ____

>  <TORSDO>
F 1

$$$$
