=
 OpenBabel11122414143D

 28 32  0  0  1  0  0  0  0  0999 V2000
  161.9560  208.7350  155.8860 C   0  0  2  0  0  3  0  0  0  0  0  0
  162.1200  206.2990  152.9540 O   0  0  0  0  0  0  0  0  0  0  0  0
  157.8870  212.0170  153.4050 C   0  0  0  0  0  1  0  0  0  0  0  0
  159.6310  206.9680  156.1970 C   0  0  0  0  0  2  0  0  0  0  0  0
  159.5790  211.5290  151.6710 C   0  0  2  0  0  3  0  0  0  0  0  0
  162.6150  210.0500  155.9620 N   0  0  0  0  0  2  0  0  0  0  0  0
  160.1830  206.0060  151.4850 O   0  0  0  0  0  0  0  0  0  0  0  0
  161.3530  206.8910  151.8060 S   0  0  0  0  0  0  0  0  0  0  0  0
  162.0400  208.1190  149.5070 C   0  0  2  0  0  3  0  0  0  0  0  0
  160.7390  208.5400  152.2220 C   0  0  2  0  0  3  0  0  0  0  0  0
  160.0200  212.3390  157.2610 O   0  0  0  0  0  1  0  0  0  0  0  0
  161.2320  210.6670  153.2170 C   0  0  1  0  0  3  0  0  0  0  0  0
  162.0550  209.3870  150.3380 C   0  0  0  0  0  2  0  0  0  0  0  0
  162.4300  206.9570  150.3930 C   0  0  0  0  0  2  0  0  0  0  0  0
  160.5840  211.4460  156.3500 C   0  0  1  0  0  3  0  0  0  0  0  0
  160.8300  208.7190  154.8320 C   0  0  2  0  0  3  0  0  0  0  0  0
  159.3630  212.0750  153.0600 C   0  0  2  0  0  3  0  0  0  0  0  0
  163.0450  208.2430  148.3830 C   0  0  0  0  0  1  0  0  0  0  0  0
  160.6960  212.1150  154.9920 C   0  0  0  0  0  2  0  0  0  0  0  0
  160.1140  207.3620  154.8070 C   0  0  0  0  0  2  0  0  0  0  0  0
  161.5030  208.2160  157.2610 C   0  0  0  0  0  2  0  0  0  0  0  0
  160.8230  206.8610  157.1370 C   0  0  0  0  0  2  0  0  0  0  0  0
  161.9450  210.9910  156.8680 C   0  0  0  0  0  2  0  0  0  0  0  0
  160.9110  210.8260  151.7390 C   0  0  1  0  0  3  0  0  0  0  0  0
  160.1210  211.2400  153.9820 N   0  0  2  0  0  0  0  0  0  0  0  0
  160.8190  209.5110  151.1120 N   0  0  2  0  0  0  0  0  0  0  0  0
  159.6440  212.5770  150.7540 O   0  0  0  0  0  1  0  0  0  0  0  0
  161.3830  209.1640  153.4510 C   0  0  1  0  0  3  0  0  0  0  0  0
  1  6  1  0  0  0  0
  1 21  1  1  0  0  0
  4 22  1  0  0  0  0
  5 27  1  6  0  0  0
  5 24  1  0  0  0  0
  5 17  1  0  0  0  0
  6 23  1  0  0  0  0
  7  8  2  0  0  0  0
  8  2  2  0  0  0  0
  9 18  1  6  0  0  0
  9 13  1  0  0  0  0
  9 14  1  0  0  0  0
 10  8  1  6  0  0  0
 10 28  1  0  0  0  0
 12 28  1  0  0  0  0
 12 25  1  0  0  0  0
 13 26  1  0  0  0  0
 14  8  1  0  0  0  0
 15 23  1  0  0  0  0
 15 11  1  0  0  0  0
 16  1  1  0  0  0  0
 17  3  1  0  0  0  0
 17 25  1  0  0  0  0
 19 15  1  0  0  0  0
 20 16  1  0  0  0  0
 20  4  1  0  0  0  0
 22 21  1  0  0  0  0
 24 12  1  0  0  0  0
 25 19  1  0  0  0  0
 26 24  1  0  0  0  0
 26 10  1  0  0  0  0
 28 16  1  0  0  0  0
M  END
>  <MODEL>
1

>  <REMARK>
 VINA RESULT:      -4.2      0.000      0.000
  Name = 
  0 active torsions:
  status: ('A' for Active; 'I' for Inactive)
                            x       y       z     vdW  Elec       q    Type
                         _______ _______ _______ _____ _____    ______ ____

>  <TORSDO>
F 0

$$$$
=
 OpenBabel11122414143D

 28 32  0  0  1  0  0  0  0  0999 V2000
  158.8270  211.4320  152.3430 C   0  0  2  0  0  3  0  0  0  0  0  0
  160.4650  208.6160  150.3570 O   0  0  0  0  0  0  0  0  0  0  0  0
  162.6320  211.0750  156.6870 C   0  0  0  0  0  1  0  0  0  0  0  0
  161.1730  212.6380  151.0530 C   0  0  0  0  0  2  0  0  0  0  0  0
  161.9670  208.7640  156.1170 C   0  0  2  0  0  3  0  0  0  0  0  0
  157.8990  211.2720  153.4750 N   0  0  0  0  0  2  0  0  0  0  0  0
  162.8410  208.1100  150.6670 O   0  0  0  0  0  0  0  0  0  0  0  0
  161.4660  207.9340  151.2460 S   0  0  0  0  0  0  0  0  0  0  0  0
  161.5030  205.6160  152.6200 C   0  0  2  0  0  3  0  0  0  0  0  0
  161.4400  208.6410  152.9100 C   0  0  2  0  0  3  0  0  0  0  0  0
  159.1030  213.6520  156.0330 O   0  0  0  0  0  1  0  0  0  0  0  0
  160.0880  209.4150  154.7340 C   0  0  1  0  0  3  0  0  0  0  0  0
  160.8450  206.4110  153.7290 C   0  0  0  0  0  2  0  0  0  0  0  0
  161.0780  206.2000  151.2910 C   0  0  0  0  0  2  0  0  0  0  0  0
  159.1930  212.5520  155.1820 C   0  0  1  0  0  3  0  0  0  0  0  0
  160.2520  210.9640  152.7000 C   0  0  2  0  0  3  0  0  0  0  0  0
  161.4590  210.1330  156.4960 C   0  0  2  0  0  3  0  0  0  0  0  0
  161.0460  204.1750  152.6950 C   0  0  0  0  0  1  0  0  0  0  0  0
  159.4870  211.3060  155.9980 C   0  0  0  0  0  2  0  0  0  0  0  0
  161.2200  211.1930  151.5310 C   0  0  0  0  0  2  0  0  0  0  0  0
  158.7900  212.8460  151.7390 C   0  0  0  0  0  2  0  0  0  0  0  0
  159.7660  212.9700  150.5780 C   0  0  0  0  0  2  0  0  0  0  0  0
  157.8920  212.4160  154.3960 C   0  0  0  0  0  2  0  0  0  0  0  0
  160.9350  208.2250  155.1590 C   0  0  1  0  0  3  0  0  0  0  0  0
  160.6160  210.6050  155.4060 N   0  0  2  0  0  0  0  0  0  0  0  0
  161.5880  207.6450  153.9890 N   0  0  2  0  0  0  0  0  0  0  0  0
  162.0310  207.9530  157.2490 O   0  0  0  0  0  1  0  0  0  0  0  0
  160.2210  209.5000  153.2140 C   0  0  1  0  0  3  0  0  0  0  0  0
  1 21  1  1  0  0  0
  1 16  1  0  0  0  0
  1  6  1  0  0  0  0
  2  8  2  0  0  0  0
  4 20  1  0  0  0  0
  5 17  1  0  0  0  0
  5 27  1  1  0  0  0
  6 23  1  0  0  0  0
  7  8  2  0  0  0  0
  8 14  1  0  0  0  0
  9 18  1  6  0  0  0
  9 13  1  0  0  0  0
 10  8  1  6  0  0  0
 10 28  1  0  0  0  0
 10 26  1  0  0  0  0
 12 24  1  0  0  0  0
 12 25  1  0  0  0  0
 13 26  1  0  0  0  0
 14  9  1  0  0  0  0
 15 19  1  0  0  0  0
 15 11  1  0  0  0  0
 16 28  1  0  0  0  0
 17  3  1  0  0  0  0
 20 16  1  0  0  0  0
 22  4  1  0  0  0  0
 22 21  1  0  0  0  0
 23 15  1  0  0  0  0
 24  5  1  0  0  0  0
 25 19  1  0  0  0  0
 25 17  1  0  0  0  0
 26 24  1  0  0  0  0
 28 12  1  0  0  0  0
M  END
>  <MODEL>
2

>  <REMARK>
 VINA RESULT:      -3.5      2.040      4.783
  Name = 
  0 active torsions:
  status: ('A' for Active; 'I' for Inactive)
                            x       y       z     vdW  Elec       q    Type
                         _______ _______ _______ _____ _____    ______ ____

>  <TORSDO>
F 0

$$$$
=
 OpenBabel11122414143D

 28 32  0  0  1  0  0  0  0  0999 V2000
  160.6740  208.8250  155.6430 C   0  0  2  0  0  3  0  0  0  0  0  0
  159.2770  211.9860  157.2590 O   0  0  0  0  0  0  0  0  0  0  0  0
  162.0620  211.5180  150.7140 C   0  0  0  0  0  1  0  0  0  0  0  0
  163.0140  210.3490  156.5490 C   0  0  0  0  0  2  0  0  0  0  0  0
  159.7910  212.2700  151.3340 C   0  0  2  0  0  3  0  0  0  0  0  0
  159.9730  207.9590  154.6800 N   0  0  0  0  0  2  0  0  0  0  0  0
  160.0690  214.1900  156.5420 O   0  0  0  0  0  0  0  0  0  0  0  0
  159.1600  213.0460  156.1990 S   0  0  0  0  0  0  0  0  0  0  0  0
  157.1160  214.0860  154.7850 C   0  0  2  0  0  3  0  0  0  0  0  0
  159.6320  212.3930  154.5800 C   0  0  2  0  0  3  0  0  0  0  0  0
  162.4480  207.3130  152.0120 O   0  0  0  0  0  1  0  0  0  0  0  0
  159.4550  210.5720  153.0280 C   0  0  1  0  0  3  0  0  0  0  0  0
  157.3700  212.9450  153.8200 C   0  0  0  0  0  2  0  0  0  0  0  0
  157.4810  213.6290  156.1790 C   0  0  0  0  0  2  0  0  0  0  0  0
  161.6200  208.1000  152.8100 C   0  0  1  0  0  3  0  0  0  0  0  0
  160.9970  210.2070  155.0410 C   0  0  2  0  0  3  0  0  0  0  0  0
  160.6610  211.0650  151.0780 C   0  0  2  0  0  3  0  0  0  0  0  0
  155.6480  214.4530  154.7530 C   0  0  0  0  0  1  0  0  0  0  0  0
  160.6590  208.8770  151.9270 C   0  0  0  0  0  2  0  0  0  0  0  0
  161.7790  211.0760  156.0350 C   0  0  0  0  0  2  0  0  0  0  0  0
  161.8960  208.1420  156.2780 C   0  0  0  0  0  2  0  0  0  0  0  0
  162.5930  209.0720  157.2610 C   0  0  0  0  0  2  0  0  0  0  0  0
  160.8780  207.2070  153.8000 C   0  0  0  0  0  2  0  0  0  0  0  0
  158.8590  211.8410  152.4380 C   0  0  1  0  0  3  0  0  0  0  0  0
  160.6960  210.2810  152.3050 N   0  0  2  0  0  0  0  0  0  0  0  0
  158.7890  212.8740  153.4680 N   0  0  2  0  0  0  0  0  0  0  0  0
  159.0570  212.5770  150.1880 O   0  0  0  0  0  1  0  0  0  0  0  0
  159.7020  210.8740  154.5050 C   0  0  1  0  0  3  0  0  0  0  0  0
  1 21  1  6  0  0  0
  3 17  1  0  0  0  0
  4 22  1  0  0  0  0
  5 27  1  6  0  0  0
  5 24  1  0  0  0  0
  6  1  1  0  0  0  0
  8  7  2  0  0  0  0
  8  2  2  0  0  0  0
  9 18  1  1  0  0  0
  9 14  1  0  0  0  0
 10  8  1  1  0  0  0
 11 15  1  0  0  0  0
 12 28  1  0  0  0  0
 13  9  1  0  0  0  0
 14  8  1  0  0  0  0
 15 23  1  0  0  0  0
 16  1  1  0  0  0  0
 16 20  1  0  0  0  0
 17  5  1  0  0  0  0
 17 25  1  0  0  0  0
 19 25  1  0  0  0  0
 19 15  1  0  0  0  0
 20  4  1  0  0  0  0
 21 22  1  0  0  0  0
 23  6  1  0  0  0  0
 24 12  1  0  0  0  0
 24 26  1  0  0  0  0
 25 12  1  0  0  0  0
 26 13  1  0  0  0  0
 26 10  1  0  0  0  0
 28 10  1  0  0  0  0
 28 16  1  0  0  0  0
M  END
>  <MODEL>
3

>  <REMARK>
 VINA RESULT:      -2.9      2.344      5.591
  Name = 
  0 active torsions:
  status: ('A' for Active; 'I' for Inactive)
                            x       y       z     vdW  Elec       q    Type
                         _______ _______ _______ _____ _____    ______ ____

>  <TORSDO>
F 0

$$$$
=
 OpenBabel11122414143D

 28 32  0  0  1  0  0  0  0  0999 V2000
  160.6250  211.7790  155.9450 C   0  0  2  0  0  3  0  0  0  0  0  0
  162.1460  209.9640  152.9530 O   0  0  0  0  0  0  0  0  0  0  0  0
  155.6550  212.8990  153.2040 C   0  0  0  0  0  1  0  0  0  0  0  0
  159.4320  209.0970  155.9600 C   0  0  0  0  0  2  0  0  0  0  0  0
  157.4830  213.4220  151.6270 C   0  0  2  0  0  3  0  0  0  0  0  0
  160.5590  213.2380  156.1340 N   0  0  0  0  0  2  0  0  0  0  0  0
  160.6960  208.8980  151.2910 O   0  0  0  0  0  0  0  0  0  0  0  0
  161.2670  210.2060  151.7580 S   0  0  0  0  0  0  0  0  0  0  0  0
  161.4260  211.7930  149.5860 C   0  0  2  0  0  3  0  0  0  0  0  0
  159.9050  211.3200  152.1750 C   0  0  2  0  0  3  0  0  0  0  0  0
  157.1000  213.8920  157.2590 O   0  0  0  0  0  1  0  0  0  0  0  0
  159.2390  213.3360  153.2930 C   0  0  1  0  0  3  0  0  0  0  0  0
  160.7700  212.8420  150.4620 C   0  0  0  0  0  2  0  0  0  0  0  0
  162.2690  210.8930  150.4610 C   0  0  0  0  0  2  0  0  0  0  0  0
  158.0850  213.4550  156.3750 C   0  0  1  0  0  3  0  0  0  0  0  0
  159.7220  211.3100  154.7860 C   0  0  2  0  0  3  0  0  0  0  0  0
  156.9370  213.6840  153.0080 C   0  0  2  0  0  3  0  0  0  0  0  0
  162.3190  212.4740  148.5710 C   0  0  0  0  0  1  0  0  0  0  0  0
  157.9500  214.2030  155.0610 C   0  0  0  0  0  2  0  0  0  0  0  0
  159.7560  209.7830  154.6400 C   0  0  0  0  0  2  0  0  0  0  0  0
  160.3890  210.9980  157.2480 C   0  0  0  0  0  2  0  0  0  0  0  0
  160.4600  209.4980  157.0070 C   0  0  0  0  0  2  0  0  0  0  0  0
  159.4580  213.6680  157.0060 C   0  0  0  0  0  2  0  0  0  0  0  0
  158.9810  213.4400  151.7980 C   0  0  1  0  0  3  0  0  0  0  0  0
  157.9400  213.2430  153.9670 N   0  0  2  0  0  0  0  0  0  0  0  0
  159.5800  212.2960  151.1160 N   0  0  2  0  0  0  0  0  0  0  0  0
  157.0940  214.4430  150.7610 O   0  0  0  0  0  1  0  0  0  0  0  0
  160.0810  212.0760  153.4840 C   0  0  1  0  0  3  0  0  0  0  0  0
  1  6  1  0  0  0  0
  1 21  1  1  0  0  0
  4 22  1  0  0  0  0
  5 27  1  6  0  0  0
  5 24  1  0  0  0  0
  5 17  1  0  0  0  0
  6 23  1  0  0  0  0
  7  8  2  0  0  0  0
  8  2  2  0  0  0  0
  9 18  1  6  0  0  0
  9 14  1  0  0  0  0
  9 13  1  0  0  0  0
 10  8  1  6  0  0  0
 10 28  1  0  0  0  0
 12 28  1  0  0  0  0
 12 25  1  0  0  0  0
 13 26  1  0  0  0  0
 14  8  1  0  0  0  0
 15 23  1  0  0  0  0
 15 11  1  0  0  0  0
 16  1  1  0  0  0  0
 17  3  1  0  0  0  0
 17 25  1  0  0  0  0
 19 15  1  0  0  0  0
 20 16  1  0  0  0  0
 20  4  1  0  0  0  0
 22 21  1  0  0  0  0
 24 12  1  0  0  0  0
 25 19  1  0  0  0  0
 26 24  1  0  0  0  0
 26 10  1  0  0  0  0
 28 16  1  0  0  0  0
M  END
>  <MODEL>
4

>  <REMARK>
 VINA RESULT:      -2.4      2.499      3.228
  Name = 
  0 active torsions:
  status: ('A' for Active; 'I' for Inactive)
                            x       y       z     vdW  Elec       q    Type
                         _______ _______ _______ _____ _____    ______ ____

>  <TORSDO>
F 0

$$$$
=
 OpenBabel11122414143D

 28 32  0  0  1  0  0  0  0  0999 V2000
  159.3770  214.0230  149.7290 C   0  0  2  0  0  3  0  0  0  0  0  0
  156.8260  214.4530  152.5340 O   0  0  0  0  0  0  0  0  0  0  0  0
  160.7560  208.6320  151.3140 C   0  0  0  0  0  1  0  0  0  0  0  0
  156.9680  212.6060  148.8290 C   0  0  0  0  0  2  0  0  0  0  0  0
  160.6840  209.9950  153.3740 C   0  0  2  0  0  3  0  0  0  0  0  0
  160.8370  214.1660  149.8530 N   0  0  0  0  0  2  0  0  0  0  0  0
  155.7210  212.4950  153.5050 O   0  0  0  0  0  0  0  0  0  0  0  0
  156.9840  213.3070  153.4940 S   0  0  0  0  0  0  0  0  0  0  0  0
  158.1010  213.0220  155.9290 C   0  0  2  0  0  3  0  0  0  0  0  0
  158.3580  212.2390  153.0040 C   0  0  2  0  0  3  0  0  0  0  0  0
  162.2300  211.2440  148.0690 O   0  0  0  0  0  1  0  0  0  0  0  0
  160.6240  212.1250  152.2230 C   0  0  1  0  0  3  0  0  0  0  0  0
  159.3830  212.7490  155.1690 C   0  0  0  0  0  2  0  0  0  0  0  0
  157.2530  213.9760  155.1190 C   0  0  0  0  0  2  0  0  0  0  0  0
  161.4870  211.8920  149.0530 C   0  0  1  0  0  3  0  0  0  0  0  0
  158.8550  212.7900  150.4930 C   0  0  2  0  0  3  0  0  0  0  0  0
  161.2770  209.8850  151.9920 C   0  0  2  0  0  3  0  0  0  0  0  0
  158.4330  213.6640  157.2590 C   0  0  0  0  0  1  0  0  0  0  0  0
  161.9940  211.4770  150.4230 C   0  0  0  0  0  2  0  0  0  0  0  0
  157.3410  212.6210  150.3050 C   0  0  0  0  0  2  0  0  0  0  0  0
  158.8950  214.0780  148.2700 C   0  0  0  0  0  2  0  0  0  0  0  0
  157.3840  213.9220  148.1870 C   0  0  0  0  0  2  0  0  0  0  0  0
  161.5890  213.4010  148.8490 C   0  0  0  0  0  2  0  0  0  0  0  0
  160.4930  211.4740  153.5910 C   0  0  1  0  0  3  0  0  0  0  0  0
  160.8650  211.0630  151.2420 N   0  0  2  0  0  0  0  0  0  0  0  0
  159.1640  211.7370  154.1350 N   0  0  2  0  0  0  0  0  0  0  0  0
  161.5780  209.4890  154.3160 O   0  0  0  0  0  1  0  0  0  0  0  0
  159.3020  212.8510  151.9790 C   0  0  1  0  0  3  0  0  0  0  0  0
  1 21  1  6  0  0  0
  1  6  1  0  0  0  0
  1 16  1  0  0  0  0
  2  8  2  0  0  0  0
  3 17  1  0  0  0  0
  4 20  1  0  0  0  0
  5 24  1  0  0  0  0
  5 27  1  1  0  0  0
  8  7  2  0  0  0  0
  8 14  1  0  0  0  0
  9 18  1  1  0  0  0
 10  8  1  1  0  0  0
 10 26  1  0  0  0  0
 11 15  1  0  0  0  0
 12 24  1  0  0  0  0
 13  9  1  0  0  0  0
 14  9  1  0  0  0  0
 15 19  1  0  0  0  0
 16 28  1  0  0  0  0
 17  5  1  0  0  0  0
 19 25  1  0  0  0  0
 20 16  1  0  0  0  0
 22 21  1  0  0  0  0
 22  4  1  0  0  0  0
 23 15  1  0  0  0  0
 23  6  1  0  0  0  0
 24 26  1  0  0  0  0
 25 17  1  0  0  0  0
 25 12  1  0  0  0  0
 26 13  1  0  0  0  0
 28 12  1  0  0  0  0
 28 10  1  0  0  0  0
M  END
>  <MODEL>
5

>  <REMARK>
 VINA RESULT:      -2.2      3.255      7.399
  Name = 
  0 active torsions:
  status: ('A' for Active; 'I' for Inactive)
                            x       y       z     vdW  Elec       q    Type
                         _______ _______ _______ _____ _____    ______ ____

>  <TORSDO>
F 0

$$$$
=
 OpenBabel11122414143D

 28 32  0  0  1  0  0  0  0  0999 V2000
  161.8190  209.7270  154.9700 C   0  0  2  0  0  3  0  0  0  0  0  0
  162.7060  208.6040  151.4330 O   0  0  0  0  0  0  0  0  0  0  0  0
  156.8450  212.1890  153.3340 C   0  0  0  0  0  1  0  0  0  0  0  0
  160.2090  207.3220  154.4790 C   0  0  0  0  0  2  0  0  0  0  0  0
  158.5630  212.8740  151.6960 C   0  0  2  0  0  3  0  0  0  0  0  0
  162.0130  211.0770  155.5280 N   0  0  0  0  0  2  0  0  0  0  0  0
  160.9380  208.2280  149.7800 O   0  0  0  0  0  0  0  0  0  0  0  0
  161.7610  209.2740  150.4750 S   0  0  0  0  0  0  0  0  0  0  0  0
  161.9550  211.3530  148.7720 C   0  0  2  0  0  3  0  0  0  0  0  0
  160.6500  210.4030  151.3480 C   0  0  2  0  0  3  0  0  0  0  0  0
  158.8420  211.8510  157.2610 O   0  0  0  0  0  1  0  0  0  0  0  0
  160.4420  212.1110  153.0200 C   0  0  1  0  0  3  0  0  0  0  0  0
  161.5740  212.2030  149.9680 C   0  0  0  0  0  2  0  0  0  0  0  0
  162.7240  210.1480  149.2640 C   0  0  0  0  0  2  0  0  0  0  0  0
  159.6460  211.5430  156.1650 C   0  0  1  0  0  3  0  0  0  0  0  0
  160.7370  209.7120  153.8710 C   0  0  2  0  0  3  0  0  0  0  0  0
  158.2120  212.8220  153.1610 C   0  0  2  0  0  3  0  0  0  0  0  0
  162.8390  212.1590  147.8450 C   0  0  0  0  0  1  0  0  0  0  0  0
  159.5010  212.6290  155.1130 C   0  0  0  0  0  2  0  0  0  0  0  0
  160.5050  208.2900  153.3420 C   0  0  0  0  0  2  0  0  0  0  0  0
  161.5930  208.6620  156.0550 C   0  0  0  0  0  2  0  0  0  0  0  0
  161.3910  207.2860  155.4370 C   0  0  0  0  0  2  0  0  0  0  0  0
  161.0920  211.3960  156.6270 C   0  0  0  0  0  2  0  0  0  0  0  0
  160.0530  212.6480  151.6510 C   0  0  1  0  0  3  0  0  0  0  0  0
  159.2220  212.0110  153.8260 N   0  0  2  0  0  0  0  0  0  0  0  0
  160.3830  211.6630  150.6260 N   0  0  2  0  0  0  0  0  0  0  0  0
  158.2600  214.1330  151.1790 O   0  0  0  0  0  1  0  0  0  0  0  0
  161.0820  210.7470  152.7660 C   0  0  1  0  0  3  0  0  0  0  0  0
  1  6  1  0  0  0  0
  1 21  1  1  0  0  0
  4 22  1  0  0  0  0
  5 27  1  1  0  0  0
  5 17  1  0  0  0  0
  6 23  1  0  0  0  0
  7  8  2  0  0  0  0
  8  2  2  0  0  0  0
  9 18  1  6  0  0  0
  9 14  1  0  0  0  0
  9 13  1  0  0  0  0
 10  8  1  6  0  0  0
 10 28  1  0  0  0  0
 12 25  1  0  0  0  0
 13 26  1  0  0  0  0
 14  8  1  0  0  0  0
 15 23  1  0  0  0  0
 15 11  1  0  0  0  0
 16  1  1  0  0  0  0
 17  3  1  0  0  0  0
 17 25  1  0  0  0  0
 19 15  1  0  0  0  0
 20 16  1  0  0  0  0
 20  4  1  0  0  0  0
 22 21  1  0  0  0  0
 24  5  1  0  0  0  0
 24 12  1  0  0  0  0
 25 19  1  0  0  0  0
 26 10  1  0  0  0  0
 26 24  1  0  0  0  0
 28 12  1  0  0  0  0
 28 16  1  0  0  0  0
M  END
>  <MODEL>
6

>  <REMARK>
 VINA RESULT:      -2.0      1.734      2.102
  Name = 
  0 active torsions:
  status: ('A' for Active; 'I' for Inactive)
                            x       y       z     vdW  Elec       q    Type
                         _______ _______ _______ _____ _____    ______ ____

>  <TORSDO>
F 0

$$$$
=
 OpenBabel11122414143D

 28 32  0  0  1  0  0  0  0  0999 V2000
  160.2250  213.7730  150.2520 C   0  0  2  0  0  3  0  0  0  0  0  0
  159.3300  213.0640  153.8920 O   0  0  0  0  0  0  0  0  0  0  0  0
  160.8570  208.1740  148.9350 C   0  0  0  0  0  1  0  0  0  0  0  0
  157.4080  212.9450  150.2240 C   0  0  0  0  0  2  0  0  0  0  0  0
  162.0090  208.5450  151.0900 C   0  0  2  0  0  3  0  0  0  0  0  0
  161.5820  213.8030  149.6800 N   0  0  0  0  0  2  0  0  0  0  0  0
  158.3340  210.9160  154.5210 O   0  0  0  0  0  0  0  0  0  0  0  0
  159.6170  211.6160  154.1750 S   0  0  0  0  0  0  0  0  0  0  0  0
  161.5830  210.2960  155.4610 C   0  0  2  0  0  3  0  0  0  0  0  0
  160.3490  210.8100  152.7310 C   0  0  2  0  0  3  0  0  0  0  0  0
  161.3340  211.8590  146.5460 O   0  0  0  0  0  1  0  0  0  0  0  0
  161.9530  210.9620  150.9530 C   0  0  1  0  0  3  0  0  0  0  0  0
  162.3020  210.3280  154.1280 C   0  0  0  0  0  2  0  0  0  0  0  0
  160.7150  211.5300  155.5700 C   0  0  0  0  0  2  0  0  0  0  0  0
  161.2680  212.0570  147.9240 C   0  0  1  0  0  3  0  0  0  0  0  0
  159.8160  212.3500  150.6830 C   0  0  2  0  0  3  0  0  0  0  0  0
  161.8970  209.0070  149.6590 C   0  0  2  0  0  3  0  0  0  0  0  0
  162.6000  210.3080  156.5820 C   0  0  0  0  0  1  0  0  0  0  0  0
  162.2080  211.0880  148.6170 C   0  0  0  0  0  2  0  0  0  0  0  0
  158.3790  212.3250  151.2200 C   0  0  0  0  0  2  0  0  0  0  0  0
  159.1840  214.4530  149.3470 C   0  0  0  0  0  2  0  0  0  0  0  0
  157.7970  214.3940  149.9710 C   0  0  0  0  0  2  0  0  0  0  0  0
  161.6200  213.5080  148.2420 C   0  0  0  0  0  2  0  0  0  0  0  0
  162.2830  209.8000  151.8770 C   0  0  1  0  0  3  0  0  0  0  0  0
  161.4870  210.4040  149.6800 N   0  0  2  0  0  0  0  0  0  0  0  0
  161.4250  209.8530  153.0570 N   0  0  2  0  0  0  0  0  0  0  0  0
  163.0790  207.6610  151.2210 O   0  0  0  0  0  1  0  0  0  0  0  0
  160.8660  211.7660  151.6660 C   0  0  1  0  0  3  0  0  0  0  0  0
  1 21  1  6  0  0  0
  1 16  1  0  0  0  0
  2  8  2  0  0  0  0
  3 17  1  0  0  0  0
  4 20  1  0  0  0  0
  5 27  1  6  0  0  0
  5 24  1  0  0  0  0
  6  1  1  0  0  0  0
  8  7  2  0  0  0  0
  8 14  1  0  0  0  0
  9 14  1  0  0  0  0
  9 18  1  1  0  0  0
 10 26  1  0  0  0  0
 10  8  1  1  0  0  0
 11 15  1  0  0  0  0
 12 28  1  0  0  0  0
 12 24  1  0  0  0  0
 13  9  1  0  0  0  0
 15 23  1  0  0  0  0
 15 19  1  0  0  0  0
 16 20  1  0  0  0  0
 16 28  1  0  0  0  0
 17 25  1  0  0  0  0
 17  5  1  0  0  0  0
 19 25  1  0  0  0  0
 21 22  1  0  0  0  0
 22  4  1  0  0  0  0
 23  6  1  0  0  0  0
 24 26  1  0  0  0  0
 25 12  1  0  0  0  0
 26 13  1  0  0  0  0
 28 10  1  0  0  0  0
M  END
>  <MODEL>
7

>  <REMARK>
 VINA RESULT:      -1.6      2.759      6.742
  Name = 
  0 active torsions:
  status: ('A' for Active; 'I' for Inactive)
                            x       y       z     vdW  Elec       q    Type
                         _______ _______ _______ _____ _____    ______ ____

>  <TORSDO>
F 0

$$$$
=
 OpenBabel11122414143D

 28 32  0  0  1  0  0  0  0  0999 V2000
  158.2990  212.4860  151.8140 C   0  0  2  0  0  3  0  0  0  0  0  0
  160.8680  210.1640  150.2130 O   0  0  0  0  0  0  0  0  0  0  0  0
  160.9860  212.5260  156.9380 C   0  0  0  0  0  1  0  0  0  0  0  0
  160.5990  214.1880  151.1580 C   0  0  0  0  0  2  0  0  0  0  0  0
  160.9340  210.1780  156.1670 C   0  0  2  0  0  3  0  0  0  0  0  0
  157.1820  212.0790  152.6850 N   0  0  0  0  0  2  0  0  0  0  0  0
  163.1590  210.0800  151.0750 O   0  0  0  0  0  0  0  0  0  0  0  0
  161.7490  209.6150  151.3000 S   0  0  0  0  0  0  0  0  0  0  0  0
  161.9160  207.2530  152.5850 C   0  0  2  0  0  3  0  0  0  0  0  0
  161.2000  210.1870  152.9260 C   0  0  2  0  0  3  0  0  0  0  0  0
  157.2740  214.4530  155.5160 O   0  0  0  0  0  1  0  0  0  0  0  0
  159.3370  210.5700  154.3880 C   0  0  1  0  0  3  0  0  0  0  0  0
  160.8770  207.8340  153.5220 C   0  0  0  0  0  2  0  0  0  0  0  0
  161.7060  207.8410  151.2070 C   0  0  0  0  0  2  0  0  0  0  0  0
  157.7710  213.4510  154.6850 C   0  0  1  0  0  3  0  0  0  0  0  0
  159.6650  212.2620  152.4930 C   0  0  2  0  0  3  0  0  0  0  0  0
  160.0960  211.4010  156.4460 C   0  0  2  0  0  3  0  0  0  0  0  0
  161.7430  205.7510  152.5120 C   0  0  0  0  0  1  0  0  0  0  0  0
  158.1040  212.2250  155.5170 C   0  0  0  0  0  2  0  0  0  0  0  0
  160.8140  212.7460  151.5980 C   0  0  0  0  0  2  0  0  0  0  0  0
  158.1280  213.9080  151.2540 C   0  0  0  0  0  2  0  0  0  0  0  0
  159.3040  214.2900  150.3670 C   0  0  0  0  0  2  0  0  0  0  0  0
  156.7400  213.1350  153.6050 C   0  0  0  0  0  2  0  0  0  0  0  0
  160.2780  209.5290  154.9760 C   0  0  1  0  0  3  0  0  0  0  0  0
  159.4540  211.7860  155.1970 N   0  0  2  0  0  0  0  0  0  0  0  0
  161.2840  209.1610  153.9840 N   0  0  2  0  0  0  0  0  0  0  0  0
  160.8910  209.3140  157.2610 O   0  0  0  0  0  1  0  0  0  0  0  0
  159.8010  210.7840  152.9480 C   0  0  1  0  0  3  0  0  0  0  0  0
  1 21  1  1  0  0  0
  1 16  1  0  0  0  0
  1  6  1  0  0  0  0
  2  8  2  0  0  0  0
  4 20  1  0  0  0  0
  5 17  1  0  0  0  0
  5 27  1  1  0  0  0
  6 23  1  0  0  0  0
  7  8  2  0  0  0  0
  9 18  1  6  0  0  0
  9 13  1  0  0  0  0
 10  8  1  6  0  0  0
 10 28  1  0  0  0  0
 10 26  1  0  0  0  0
 12 24  1  0  0  0  0
 12 25  1  0  0  0  0
 13 26  1  0  0  0  0
 14  8  1  0  0  0  0
 14  9  1  0  0  0  0
 15 11  1  0  0  0  0
 15 19  1  0  0  0  0
 16 28  1  0  0  0  0
 17  3  1  0  0  0  0
 20 16  1  0  0  0  0
 22  4  1  0  0  0  0
 22 21  1  0  0  0  0
 23 15  1  0  0  0  0
 24  5  1  0  0  0  0
 25 19  1  0  0  0  0
 25 17  1  0  0  0  0
 26 24  1  0  0  0  0
 28 12  1  0  0  0  0
M  END
>  <MODEL>
8

>  <REMARK>
 VINA RESULT:      -1.5      2.292      5.166
  Name = 
  0 active torsions:
  status: ('A' for Active; 'I' for Inactive)
                            x       y       z     vdW  Elec       q    Type
                         _______ _______ _______ _____ _____    ______ ____

>  <TORSDO>
F 0

$$$$
