=
 OpenBabel11122412373D

 30 34  0  0  1  0  0  0  0  0999 V2000
  161.3630  205.3130  151.0630 C   0  0  2  0  0  3  0  0  0  0  0  0
  161.1730  202.8810  151.3290 C   0  0  0  0  0  0  0  0  0  0  0  0
  160.7740  204.9840  146.9090 N   0  0  0  0  0  0  0  0  0  0  0  0
  161.5510  206.5110  150.1620 C   0  0  2  0  0  3  0  0  0  0  0  0
  161.7560  205.5550  152.4850 C   0  0  0  0  0  2  0  0  0  0  0  0
  159.9140  208.8630  152.5980 C   0  0  0  0  0  2  0  0  0  0  0  0
  162.2000  209.0790  148.8190 C   0  0  0  0  0  0  0  0  0  0  0  0
  160.7330  207.9000  152.1670 C   0  0  0  0  0  0  0  0  0  0  0  0
  161.8640  208.1520  147.8070 O   0  0  0  0  0  0  0  0  0  0  0  0
  160.7170  206.3840  146.6170 C   0  0  0  0  0  0  0  0  0  0  0  0
  161.0070  206.7370  153.1030 C   0  0  2  0  0  3  0  0  0  0  0  0
  161.0060  207.8350  150.6770 C   0  0  1  0  0  3  0  0  0  0  0  0
  161.0560  201.6210  150.7350 C   0  0  0  0  0  3  0  0  0  0  0  0
  161.2800  202.9260  152.7150 O   0  0  0  0  0  1  0  0  0  0  0  0
  160.9180  204.9770  148.3230 C   0  0  0  0  0  0  0  0  0  0  0  0
  160.9270  201.4890  149.3560 C   0  0  0  0  0  3  0  0  0  0  0  0
  161.1780  204.0590  150.5290 C   0  0  0  0  0  0  0  0  0  0  0  0
  160.9400  206.2670  148.8800 N   0  0  0  0  0  0  0  0  0  0  0  0
  160.6120  206.8280  145.4440 O   0  0  0  0  0  0  0  0  0  0  0  0
  160.7570  207.2540  147.8390 C   0  0  1  0  0  3  0  0  0  0  0  0
  162.2590  209.9670  151.0140 O   0  0  0  0  0  1  0  0  0  0  0  0
  160.8950  202.6210  148.5490 C   0  0  0  0  0  3  0  0  0  0  0  0
  161.0030  203.8970  149.1110 C   0  0  0  0  0  0  0  0  0  0  0  0
  161.8340  208.9790  150.1260 C   0  0  0  0  0  0  0  0  0  0  0  0
  163.0800  210.2120  148.4040 C   0  0  0  0  0  2  0  0  0  0  0  0
  163.2270  212.3400  147.8430 C   0  0  0  0  0  1  0  0  0  0  0  0
  162.3050  211.3510  148.1840 O   0  0  0  0  0  0  0  0  0  0  0  0
  161.6820  207.1800  154.4060 C   0  0  0  0  0  2  0  0  0  0  0  0
  161.2610  208.1860  156.6600 C   0  0  0  0  0  1  0  0  0  0  0  0
  160.7160  207.2650  155.5850 C   0  0  0  0  0  2  0  0  0  0  0  0
  1  5  1  1  0  0  0
  2 14  1  0  0  0  0
  3 15  2  0  0  0  0
  4 18  1  6  0  0  0
  4 12  1  0  0  0  0
  4  1  1  0  0  0  0
  5 11  1  0  0  0  0
  7 24  2  0  0  0  0
  8  6  2  0  0  0  0
  8 11  1  0  0  0  0
  9 20  1  0  0  0  0
  9  7  1  0  0  0  0
 10  3  1  0  0  0  0
 11 28  1  1  0  0  0
 12 24  1  1  0  0  0
 12  8  1  0  0  0  0
 13  2  1  0  0  0  0
 15 18  1  0  0  0  0
 15 23  1  0  0  0  0
 16 13  2  0  0  0  0
 17  1  1  0  0  0  0
 17  2  2  0  0  0  0
 19 10  2  0  0  0  0
 20 10  1  6  0  0  0
 20 18  1  0  0  0  0
 22 23  2  0  0  0  0
 22 16  1  0  0  0  0
 23 17  1  0  0  0  0
 24 21  1  0  0  0  0
 25  7  1  0  0  0  0
 26 27  1  0  0  0  0
 27 25  1  0  0  0  0
 28 30  1  0  0  0  0
 30 29  1  0  0  0  0
M  END
>  <MODEL>
1

>  <REMARK>
 VINA RESULT:      -7.5      0.000      0.000
  Name = 
  4 active torsions:
  status: ('A' for Active; 'I' for Inactive)
    1  A    between atoms: C_7  and  C_15
    2  A    between atoms: C_11  and  C_28
    3  A    between atoms: C_15  and  O_23
    4  A    between atoms: C_28  and  C_30
                            x       y       z     vdW  Elec       q    Type
                         _______ _______ _______ _____ _____    ______ ____

>  <TORSDO>
F 4

$$$$
=
 OpenBabel11122412373D

 30 34  0  0  1  0  0  0  0  0999 V2000
  160.8380  208.5480  152.5770 C   0  0  2  0  0  3  0  0  0  0  0  0
  160.0720  209.9660  154.4270 C   0  0  0  0  0  0  0  0  0  0  0  0
  161.3490  211.9130  150.1020 N   0  0  0  0  0  0  0  0  0  0  0  0
  161.1460  208.3820  151.1070 C   0  0  2  0  0  3  0  0  0  0  0  0
  160.5370  207.2640  153.2820 C   0  0  0  0  0  2  0  0  0  0  0  0
  163.5050  205.5160  151.7090 C   0  0  0  0  0  2  0  0  0  0  0  0
  161.5640  207.5400  148.2900 C   0  0  0  0  0  0  0  0  0  0  0  0
  162.3900  206.2430  151.8090 C   0  0  0  0  0  0  0  0  0  0  0  0
  161.5400  208.9530  148.3050 O   0  0  0  0  0  0  0  0  0  0  0  0
  161.9450  211.2380  148.9900 C   0  0  0  0  0  0  0  0  0  0  0  0
  161.6680  206.2440  153.1450 C   0  0  2  0  0  3  0  0  0  0  0  0
  162.1460  207.2950  150.7450 C   0  0  1  0  0  3  0  0  0  0  0  0
  159.7090  211.2350  154.8860 C   0  0  0  0  0  3  0  0  0  0  0  0
  159.9600  208.9080  155.3220 O   0  0  0  0  0  1  0  0  0  0  0  0
  161.1810  210.8580  151.0410 C   0  0  0  0  0  0  0  0  0  0  0  0
  159.8080  212.3510  154.0610 C   0  0  0  0  0  3  0  0  0  0  0  0
  160.5380  209.7870  153.0940 C   0  0  0  0  0  0  0  0  0  0  0  0
  161.6440  209.6200  150.5640 N   0  0  0  0  0  0  0  0  0  0  0  0
  162.2390  211.8290  147.9190 O   0  0  0  0  0  0  0  0  0  0  0  0
  162.2160  209.7850  149.2450 C   0  0  1  0  0  3  0  0  0  0  0  0
  161.8020  205.3660  149.1990 O   0  0  0  0  0  1  0  0  0  0  0  0
  160.2910  212.2150  152.7640 C   0  0  0  0  0  3  0  0  0  0  0  0
  160.6700  210.9610  152.2740 C   0  0  0  0  0  0  0  0  0  0  0  0
  161.8340  206.7500  149.3650 C   0  0  0  0  0  0  0  0  0  0  0  0
  161.1970  206.8920  146.9960 C   0  0  0  0  0  2  0  0  0  0  0  0
  161.8330  205.5120  145.3980 C   0  0  0  0  0  1  0  0  0  0  0  0
  162.3310  206.3170  146.4220 O   0  0  0  0  0  0  0  0  0  0  0  0
  161.1870  204.8470  153.5530 C   0  0  0  0  0  2  0  0  0  0  0  0
  161.2070  202.8590  152.0320 C   0  0  0  0  0  1  0  0  0  0  0  0
  160.4550  204.1130  152.4320 C   0  0  0  0  0  2  0  0  0  0  0  0
  1 17  1  0  0  0  0
  1  5  1  6  0  0  0
  2 13  1  0  0  0  0
  2 14  1  0  0  0  0
  3 15  2  0  0  0  0
  4 18  1  1  0  0  0
  4  1  1  0  0  0  0
  6  8  2  0  0  0  0
  7  9  1  0  0  0  0
  7 24  2  0  0  0  0
  8 11  1  0  0  0  0
 10 20  1  0  0  0  0
 10  3  1  0  0  0  0
 11  5  1  0  0  0  0
 11 28  1  6  0  0  0
 12 24  1  6  0  0  0
 12  4  1  0  0  0  0
 12  8  1  0  0  0  0
 15 23  1  0  0  0  0
 16 13  2  0  0  0  0
 17  2  2  0  0  0  0
 18 15  1  0  0  0  0
 19 10  2  0  0  0  0
 20  9  1  6  0  0  0
 20 18  1  0  0  0  0
 21 24  1  0  0  0  0
 22 16  1  0  0  0  0
 23 22  2  0  0  0  0
 23 17  1  0  0  0  0
 25  7  1  0  0  0  0
 26 27  1  0  0  0  0
 27 25  1  0  0  0  0
 29 30  1  0  0  0  0
 30 28  1  0  0  0  0
M  END
>  <MODEL>
2

>  <REMARK>
 VINA RESULT:      -6.2      2.341      5.841
  Name = 
  4 active torsions:
  status: ('A' for Active; 'I' for Inactive)
    1  A    between atoms: C_7  and  C_15
    2  A    between atoms: C_11  and  C_28
    3  A    between atoms: C_15  and  O_23
    4  A    between atoms: C_28  and  C_30
                            x       y       z     vdW  Elec       q    Type
                         _______ _______ _______ _____ _____    ______ ____

>  <TORSDO>
F 4

$$$$
=
 OpenBabel11122412373D

 30 34  0  0  1  0  0  0  0  0999 V2000
  161.5950  209.6710  151.4630 C   0  0  2  0  0  3  0  0  0  0  0  0
  161.8230  210.4330  149.1410 C   0  0  0  0  0  0  0  0  0  0  0  0
  159.7620  213.2970  152.5590 N   0  0  0  0  0  0  0  0  0  0  0  0
  161.3270  209.9890  152.9150 C   0  0  2  0  0  3  0  0  0  0  0  0
  162.3850  208.4190  151.2510 C   0  0  0  0  0  2  0  0  0  0  0  0
  160.2570  206.4710  153.7050 C   0  0  0  0  0  2  0  0  0  0  0  0
  161.1700  210.2160  155.8720 C   0  0  0  0  0  0  0  0  0  0  0  0
  161.0140  207.4520  153.2090 C   0  0  0  0  0  0  0  0  0  0  0  0
  160.6550  211.4160  155.3330 O   0  0  0  0  0  0  0  0  0  0  0  0
  159.4320  212.9390  153.9050 C   0  0  0  0  0  0  0  0  0  0  0  0
  161.7240  207.1970  151.8910 C   0  0  2  0  0  3  0  0  0  0  0  0
  160.8050  208.8450  153.7720 C   0  0  1  0  0  3  0  0  0  0  0  0
  161.6890  211.4630  148.2050 C   0  0  0  0  0  3  0  0  0  0  0  0
  162.3580  209.2310  148.6950 O   0  0  0  0  0  1  0  0  0  0  0  0
  160.3490  212.1000  152.0650 C   0  0  0  0  0  0  0  0  0  0  0  0
  161.1460  212.6920  148.5650 C   0  0  0  0  0  3  0  0  0  0  0  0
  161.4170  210.6290  150.4920 C   0  0  0  0  0  0  0  0  0  0  0  0
  160.3780  211.0680  153.0180 N   0  0  0  0  0  0  0  0  0  0  0  0
  158.9010  213.7490  154.7090 O   0  0  0  0  0  0  0  0  0  0  0  0
  159.7440  211.5110  154.2400 C   0  0  1  0  0  3  0  0  0  0  0  0
  161.8080  207.9350  155.8680 O   0  0  0  0  0  1  0  0  0  0  0  0
  160.7100  212.9050  149.8690 C   0  0  0  0  0  3  0  0  0  0  0  0
  160.8220  211.8940  150.8290 C   0  0  0  0  0  0  0  0  0  0  0  0
  161.2570  209.0320  155.2060 C   0  0  0  0  0  0  0  0  0  0  0  0
  161.7150  210.3010  157.2600 C   0  0  0  0  0  2  0  0  0  0  0  0
  163.7350  211.1860  157.2390 C   0  0  0  0  0  1  0  0  0  0  0  0
  163.0680  209.9610  157.2530 O   0  0  0  0  0  0  0  0  0  0  0  0
  162.7140  206.0300  151.9750 C   0  0  0  0  0  2  0  0  0  0  0  0
  161.1080  204.9630  150.3770 C   0  0  0  0  0  1  0  0  0  0  0  0
  162.1340  204.7130  151.4650 C   0  0  0  0  0  2  0  0  0  0  0  0
  1  5  1  1  0  0  0
  1  4  1  0  0  0  0
  2 17  1  0  0  0  0
  3 10  1  0  0  0  0
  4 18  1  6  0  0  0
  4 12  1  0  0  0  0
  5 11  1  0  0  0  0
  7 25  1  0  0  0  0
  8  6  2  0  0  0  0
  9  7  1  0  0  0  0
 10 19  2  0  0  0  0
 11 28  1  1  0  0  0
 11  8  1  0  0  0  0
 12  8  1  6  0  0  0
 12 24  1  0  0  0  0
 13 16  1  0  0  0  0
 13  2  2  0  0  0  0
 14  2  1  0  0  0  0
 15  3  2  0  0  0  0
 15 18  1  0  0  0  0
 16 22  2  0  0  0  0
 17 23  2  0  0  0  0
 17  1  1  0  0  0  0
 18 20  1  0  0  0  0
 20 10  1  6  0  0  0
 20  9  1  0  0  0  0
 22 23  1  0  0  0  0
 23 15  1  0  0  0  0
 24 21  1  0  0  0  0
 24  7  2  0  0  0  0
 26 27  1  0  0  0  0
 27 25  1  0  0  0  0
 29 30  1  0  0  0  0
 30 28  1  0  0  0  0
M  END
>  <MODEL>
3

>  <REMARK>
 VINA RESULT:      -5.7      3.438      7.422
  Name = 
  4 active torsions:
  status: ('A' for Active; 'I' for Inactive)
    1  A    between atoms: C_7  and  C_15
    2  A    between atoms: C_11  and  C_28
    3  A    between atoms: C_15  and  O_23
    4  A    between atoms: C_28  and  C_30
                            x       y       z     vdW  Elec       q    Type
                         _______ _______ _______ _____ _____    ______ ____

>  <TORSDO>
F 4

$$$$
=
 OpenBabel11122412373D

 30 34  0  0  1  0  0  0  0  0999 V2000
  161.1520  207.2840  150.6780 C   0  0  2  0  0  3  0  0  0  0  0  0
  161.2800  204.9990  149.7910 C   0  0  0  0  0  0  0  0  0  0  0  0
  160.8130  205.8260  154.6110 N   0  0  0  0  0  0  0  0  0  0  0  0
  160.8310  208.2190  151.8200 C   0  0  2  0  0  3  0  0  0  0  0  0
  161.0880  207.9280  149.3300 C   0  0  0  0  0  2  0  0  0  0  0  0
  163.0650  210.9410  150.4970 C   0  0  0  0  0  2  0  0  0  0  0  0
  160.0290  210.4030  153.6660 C   0  0  0  0  0  0  0  0  0  0  0  0
  162.1280  209.9900  150.4770 C   0  0  0  0  0  0  0  0  0  0  0  0
  160.0940  209.2140  154.4280 O   0  0  0  0  0  0  0  0  0  0  0  0
  160.8710  207.0880  155.2830 C   0  0  0  0  0  0  0  0  0  0  0  0
  162.0080  209.1460  149.2200 C   0  0  2  0  0  3  0  0  0  0  0  0
  161.5360  209.5670  151.8080 C   0  0  1  0  0  3  0  0  0  0  0  0
  161.2060  203.6240  150.0250 C   0  0  0  0  0  3  0  0  0  0  0  0
  161.4770  205.4150  148.4790 O   0  0  0  0  0  1  0  0  0  0  0  0
  160.9780  206.2020  153.2500 C   0  0  0  0  0  0  0  0  0  0  0  0
  161.0270  203.1240  151.3120 C   0  0  0  0  0  3  0  0  0  0  0  0
  161.1580  205.9220  150.8690 C   0  0  0  0  0  0  0  0  0  0  0  0
  161.1380  207.5880  153.0770 N   0  0  0  0  0  0  0  0  0  0  0  0
  160.7410  207.1970  156.5300 O   0  0  0  0  0  0  0  0  0  0  0  0
  161.1380  208.2450  154.3660 C   0  0  1  0  0  3  0  0  0  0  0  0
  160.4880  211.8320  151.8350 O   0  0  0  0  0  1  0  0  0  0  0  0
  160.9380  203.9970  152.3900 C   0  0  0  0  0  3  0  0  0  0  0  0
  161.0150  205.3800  152.1930 C   0  0  0  0  0  0  0  0  0  0  0  0
  160.6630  210.6090  152.4800 C   0  0  0  0  0  0  0  0  0  0  0  0
  159.1340  211.4740  154.1980 C   0  0  0  0  0  2  0  0  0  0  0  0
  157.0560  211.4510  154.9340 C   0  0  0  0  0  1  0  0  0  0  0  0
  158.3280  210.9510  155.2090 O   0  0  0  0  0  0  0  0  0  0  0  0
  161.6530  209.9810  147.9850 C   0  0  0  0  0  2  0  0  0  0  0  0
  160.8320  212.2000  147.1700 C   0  0  0  0  0  1  0  0  0  0  0  0
  161.5810  211.4780  148.2720 C   0  0  0  0  0  2  0  0  0  0  0  0
  1  5  1  6  0  0  0
  1 17  1  0  0  0  0
  1  4  1  0  0  0  0
  2 13  2  0  0  0  0
  2 17  1  0  0  0  0
  3 10  1  0  0  0  0
  4 18  1  1  0  0  0
  7 25  1  0  0  0  0
  7  9  1  0  0  0  0
  8  6  2  0  0  0  0
 10 19  2  0  0  0  0
 11 28  1  6  0  0  0
 11  5  1  0  0  0  0
 11  8  1  0  0  0  0
 12  8  1  6  0  0  0
 12  4  1  0  0  0  0
 12 24  1  0  0  0  0
 13 16  1  0  0  0  0
 14  2  1  0  0  0  0
 15  3  2  0  0  0  0
 16 22  2  0  0  0  0
 17 23  2  0  0  0  0
 18 15  1  0  0  0  0
 18 20  1  0  0  0  0
 20  9  1  6  0  0  0
 20 10  1  0  0  0  0
 21 24  1  0  0  0  0
 23 22  1  0  0  0  0
 23 15  1  0  0  0  0
 24  7  2  0  0  0  0
 25 27  1  0  0  0  0
 26 27  1  0  0  0  0
 28 30  1  0  0  0  0
 29 30  1  0  0  0  0
M  END
>  <MODEL>
4

>  <REMARK>
 VINA RESULT:      -5.5      2.710      5.859
  Name = 
  4 active torsions:
  status: ('A' for Active; 'I' for Inactive)
    1  A    between atoms: C_7  and  C_15
    2  A    between atoms: C_11  and  C_28
    3  A    between atoms: C_15  and  O_23
    4  A    between atoms: C_28  and  C_30
                            x       y       z     vdW  Elec       q    Type
                         _______ _______ _______ _____ _____    ______ ____

>  <TORSDO>
F 4

$$$$
=
 OpenBabel11122412373D

 30 34  0  0  1  0  0  0  0  0999 V2000
  161.3560  210.4580  150.6050 C   0  0  2  0  0  3  0  0  0  0  0  0
  161.4220  212.2930  148.9770 C   0  0  0  0  0  0  0  0  0  0  0  0
  159.2000  212.8380  153.3230 N   0  0  0  0  0  0  0  0  0  0  0  0
  161.1070  209.9800  152.0160 C   0  0  2  0  0  3  0  0  0  0  0  0
  162.2620  209.5690  149.8140 C   0  0  0  0  0  2  0  0  0  0  0  0
  160.4330  206.4450  150.9250 C   0  0  0  0  0  2  0  0  0  0  0  0
  161.0310  208.6870  154.6880 C   0  0  0  0  0  0  0  0  0  0  0  0
  161.0680  207.6170  151.0000 C   0  0  0  0  0  0  0  0  0  0  0  0
  160.3770  209.9340  154.8090 O   0  0  0  0  0  0  0  0  0  0  0  0
  158.9550  211.8260  154.3050 C   0  0  0  0  0  0  0  0  0  0  0  0
  161.7530  208.1290  149.7460 C   0  0  2  0  0  3  0  0  0  0  0  0
  160.7360  208.5140  152.1770 C   0  0  1  0  0  3  0  0  0  0  0  0
  161.1520  213.6310  148.6760 C   0  0  0  0  0  3  0  0  0  0  0  0
  162.0630  211.5370  148.0030 O   0  0  0  0  0  1  0  0  0  0  0  0
  159.8880  212.1160  152.3110 C   0  0  0  0  0  0  0  0  0  0  0  0
  160.4980  214.4530  149.5900 C   0  0  0  0  0  3  0  0  0  0  0  0
  161.0460  211.7470  150.2370 C   0  0  0  0  0  0  0  0  0  0  0  0
  160.0560  210.7570  152.6230 N   0  0  0  0  0  0  0  0  0  0  0  0
  158.3720  212.0660  155.3940 O   0  0  0  0  0  0  0  0  0  0  0  0
  159.4230  210.4620  153.8900 C   0  0  1  0  0  3  0  0  0  0  0  0
  161.9000  206.7940  153.5620 O   0  0  0  0  0  1  0  0  0  0  0  0
  160.0880  213.9410  150.8160 C   0  0  0  0  0  3  0  0  0  0  0  0
  160.3370  212.6040  151.1470 C   0  0  0  0  0  0  0  0  0  0  0  0
  161.2160  208.0090  153.5230 C   0  0  0  0  0  0  0  0  0  0  0  0
  161.6130  208.1280  155.9460 C   0  0  0  0  0  2  0  0  0  0  0  0
  160.2090  207.0110  157.2270 C   0  0  0  0  0  1  0  0  0  0  0  0
  160.7070  208.2920  156.9930 O   0  0  0  0  0  0  0  0  0  0  0  0
  162.8600  207.1880  149.2570 C   0  0  0  0  0  2  0  0  0  0  0  0
  161.1550  206.9230  147.4440 C   0  0  0  0  0  1  0  0  0  0  0  0
  162.5120  206.4770  147.9520 C   0  0  0  0  0  2  0  0  0  0  0  0
  1  5  1  1  0  0  0
  1  4  1  0  0  0  0
  2 17  1  0  0  0  0
  3 10  1  0  0  0  0
  4 12  1  0  0  0  0
  4 18  1  6  0  0  0
  6  8  2  0  0  0  0
  7  9  1  0  0  0  0
  7 25  1  0  0  0  0
 10 19  2  0  0  0  0
 11 28  1  1  0  0  0
 11  5  1  0  0  0  0
 11  8  1  0  0  0  0
 12  8  1  6  0  0  0
 12 24  1  0  0  0  0
 13  2  2  0  0  0  0
 13 16  1  0  0  0  0
 14  2  1  0  0  0  0
 15 18  1  0  0  0  0
 15  3  2  0  0  0  0
 16 22  2  0  0  0  0
 17  1  1  0  0  0  0
 17 23  2  0  0  0  0
 18 20  1  0  0  0  0
 20 10  1  1  0  0  0
 20  9  1  0  0  0  0
 22 23  1  0  0  0  0
 23 15  1  0  0  0  0
 24 21  1  0  0  0  0
 24  7  2  0  0  0  0
 25 27  1  0  0  0  0
 27 26  1  0  0  0  0
 29 30  1  0  0  0  0
 30 28  1  0  0  0  0
M  END
>  <MODEL>
5

>  <REMARK>
 VINA RESULT:      -5.5      3.362      8.020
  Name = 
  4 active torsions:
  status: ('A' for Active; 'I' for Inactive)
    1  A    between atoms: C_7  and  C_15
    2  A    between atoms: C_11  and  C_28
    3  A    between atoms: C_15  and  O_23
    4  A    between atoms: C_28  and  C_30
                            x       y       z     vdW  Elec       q    Type
                         _______ _______ _______ _____ _____    ______ ____

>  <TORSDO>
F 4

$$$$
=
 OpenBabel11122412373D

 30 34  0  0  1  0  0  0  0  0999 V2000
  158.5820  211.7150  153.9460 C   0  0  2  0  0  3  0  0  0  0  0  0
  156.5170  212.9110  154.5170 C   0  0  0  0  0  0  0  0  0  0  0  0
  158.8810  213.8030  150.3040 N   0  0  0  0  0  0  0  0  0  0  0  0
  159.6110  211.3190  152.9140 C   0  0  2  0  0  3  0  0  0  0  0  0
  158.5030  210.7840  155.1140 C   0  0  0  0  0  2  0  0  0  0  0  0
  162.2690  210.6940  155.5010 C   0  0  0  0  0  2  0  0  0  0  0  0
  161.6590  210.0630  151.1670 C   0  0  0  0  0  0  0  0  0  0  0  0
  161.0690  210.6310  154.9200 C   0  0  0  0  0  0  0  0  0  0  0  0
  161.0790  211.1230  150.4350 O   0  0  0  0  0  0  0  0  0  0  0  0
  160.1580  213.2970  149.9040 C   0  0  0  0  0  0  0  0  0  0  0  0
  159.8490  210.6230  155.8230 C   0  0  2  0  0  3  0  0  0  0  0  0
  160.9940  210.9620  153.4420 C   0  0  1  0  0  3  0  0  0  0  0  0
  155.5110  213.8030  154.1350 C   0  0  0  0  0  3  0  0  0  0  0  0
  156.4030  212.3180  155.7680 O   0  0  0  0  0  1  0  0  0  0  0  0
  158.7010  213.1930  151.5760 C   0  0  0  0  0  0  0  0  0  0  0  0
  155.5580  214.4530  152.9050 C   0  0  0  0  0  3  0  0  0  0  0  0
  157.6080  212.6380  153.6430 C   0  0  0  0  0  0  0  0  0  0  0  0
  159.7810  212.3770  151.9530 N   0  0  0  0  0  0  0  0  0  0  0  0
  160.6840  213.5860  148.7980 O   0  0  0  0  0  0  0  0  0  0  0  0
  160.8120  212.4300  150.9390 C   0  0  1  0  0  3  0  0  0  0  0  0
  162.2470  208.8300  153.1030 O   0  0  0  0  0  1  0  0  0  0  0  0
  156.6270  214.2330  152.0440 C   0  0  0  0  0  3  0  0  0  0  0  0
  157.6550  213.3530  152.3970 C   0  0  0  0  0  0  0  0  0  0  0  0
  161.6460  209.9480  152.5230 C   0  0  0  0  0  0  0  0  0  0  0  0
  162.2680  208.9640  150.3590 C   0  0  0  0  0  2  0  0  0  0  0  0
  161.7150  207.8500  148.5380 C   0  0  0  0  0  1  0  0  0  0  0  0
  161.9470  209.1410  149.0130 O   0  0  0  0  0  0  0  0  0  0  0  0
  159.8220  209.4110  156.7610 C   0  0  0  0  0  2  0  0  0  0  0  0
  160.2030  206.9430  156.9270 C   0  0  0  0  0  1  0  0  0  0  0  0
  159.7670  208.0780  156.0210 C   0  0  0  0  0  2  0  0  0  0  0  0
  1  5  1  6  0  0  0
  2 14  1  0  0  0  0
  3 15  2  0  0  0  0
  4 18  1  6  0  0  0
  4 12  1  0  0  0  0
  4  1  1  0  0  0  0
  5 11  1  0  0  0  0
  7 24  2  0  0  0  0
  8  6  2  0  0  0  0
  8 11  1  0  0  0  0
  9 20  1  0  0  0  0
  9  7  1  0  0  0  0
 10  3  1  0  0  0  0
 11 28  1  6  0  0  0
 12 24  1  6  0  0  0
 12  8  1  0  0  0  0
 13  2  1  0  0  0  0
 15 18  1  0  0  0  0
 15 23  1  0  0  0  0
 16 13  2  0  0  0  0
 17  1  1  0  0  0  0
 17  2  2  0  0  0  0
 19 10  2  0  0  0  0
 20 10  1  6  0  0  0
 20 18  1  0  0  0  0
 22 23  2  0  0  0  0
 22 16  1  0  0  0  0
 23 17  1  0  0  0  0
 24 21  1  0  0  0  0
 25  7  1  0  0  0  0
 26 27  1  0  0  0  0
 27 25  1  0  0  0  0
 30 28  1  0  0  0  0
 30 29  1  0  0  0  0
M  END
>  <MODEL>
6

>  <REMARK>
 VINA RESULT:      -5.4      4.222      7.531
  Name = 
  4 active torsions:
  status: ('A' for Active; 'I' for Inactive)
    1  A    between atoms: C_7  and  C_15
    2  A    between atoms: C_11  and  C_28
    3  A    between atoms: C_15  and  O_23
    4  A    between atoms: C_28  and  C_30
                            x       y       z     vdW  Elec       q    Type
                         _______ _______ _______ _____ _____    ______ ____

>  <TORSDO>
F 4

$$$$
=
 OpenBabel11122412373D

 30 34  0  0  1  0  0  0  0  0999 V2000
  161.1390  205.0870  149.4020 C   0  0  2  0  0  3  0  0  0  0  0  0
  160.7200  202.6760  149.2200 C   0  0  0  0  0  0  0  0  0  0  0  0
  161.1700  204.8460  153.6040 N   0  0  0  0  0  0  0  0  0  0  0  0
  161.1710  206.3400  150.2450 C   0  0  2  0  0  3  0  0  0  0  0  0
  160.9790  205.3430  147.9380 C   0  0  0  0  0  2  0  0  0  0  0  0
  163.6150  208.0620  147.9620 C   0  0  0  0  0  2  0  0  0  0  0  0
  161.0680  209.0580  151.4370 C   0  0  0  0  0  0  0  0  0  0  0  0
  162.5340  207.3650  148.3170 C   0  0  0  0  0  0  0  0  0  0  0  0
  161.0410  208.1330  152.5050 O   0  0  0  0  0  0  0  0  0  0  0  0
  161.5550  206.1990  153.8650 C   0  0  0  0  0  0  0  0  0  0  0  0
  162.0700  206.2600  147.3840 C   0  0  2  0  0  3  0  0  0  0  0  0
  162.0930  207.4520  149.7660 C   0  0  1  0  0  3  0  0  0  0  0  0
  160.4420  201.4620  149.8550 C   0  0  0  0  0  3  0  0  0  0  0  0
  160.7790  202.6710  147.8310 O   0  0  0  0  0  1  0  0  0  0  0  0
  161.1830  204.7980  152.1830 C   0  0  0  0  0  0  0  0  0  0  0  0
  160.3820  201.3770  151.2430 C   0  0  0  0  0  3  0  0  0  0  0  0
  160.9340  203.8580  149.9850 C   0  0  0  0  0  0  0  0  0  0  0  0
  161.5550  206.0190  151.5950 N   0  0  0  0  0  0  0  0  0  0  0  0
  161.6440  206.6640  155.0310 O   0  0  0  0  0  0  0  0  0  0  0  0
  161.8750  206.9830  152.6260 C   0  0  1  0  0  3  0  0  0  0  0  0
  161.4790  209.8110  149.2290 O   0  0  0  0  0  1  0  0  0  0  0  0
  160.6180  202.5050  152.0200 C   0  0  0  0  0  3  0  0  0  0  0  0
  160.9070  203.7350  151.4170 C   0  0  0  0  0  0  0  0  0  0  0  0
  161.5350  208.7970  150.1860 C   0  0  0  0  0  0  0  0  0  0  0  0
  160.4720  210.3990  151.7170 C   0  0  0  0  0  2  0  0  0  0  0  0
  158.9160  211.4920  152.8330 C   0  0  0  0  0  1  0  0  0  0  0  0
  159.6880  210.3310  152.8690 O   0  0  0  0  0  0  0  0  0  0  0  0
  161.6790  206.7890  145.9990 C   0  0  0  0  0  2  0  0  0  0  0  0
  161.0520  204.9750  144.3930 C   0  0  0  0  0  1  0  0  0  0  0  0
  160.5270  206.0150  145.3640 C   0  0  0  0  0  2  0  0  0  0  0  0
  1  5  1  6  0  0  0
  1 17  1  0  0  0  0
  1  4  1  0  0  0  0
  2 13  2  0  0  0  0
  2 17  1  0  0  0  0
  3 10  1  0  0  0  0
  4 18  1  1  0  0  0
  6  8  2  0  0  0  0
  7 25  1  0  0  0  0
  7  9  1  0  0  0  0
 10 19  2  0  0  0  0
 11 28  1  6  0  0  0
 11  5  1  0  0  0  0
 11  8  1  0  0  0  0
 12  8  1  6  0  0  0
 12 24  1  0  0  0  0
 12  4  1  0  0  0  0
 13 16  1  0  0  0  0
 14  2  1  0  0  0  0
 15  3  2  0  0  0  0
 16 22  2  0  0  0  0
 17 23  2  0  0  0  0
 18 15  1  0  0  0  0
 18 20  1  0  0  0  0
 20  9  1  6  0  0  0
 20 10  1  0  0  0  0
 21 24  1  0  0  0  0
 23 22  1  0  0  0  0
 23 15  1  0  0  0  0
 24  7  2  0  0  0  0
 25 27  1  0  0  0  0
 26 27  1  0  0  0  0
 29 30  1  0  0  0  0
 30 28  1  0  0  0  0
M  END
>  <MODEL>
7

>  <REMARK>
 VINA RESULT:      -5.4      2.229      5.383
  Name = 
  4 active torsions:
  status: ('A' for Active; 'I' for Inactive)
    1  A    between atoms: C_7  and  C_15
    2  A    between atoms: C_11  and  C_28
    3  A    between atoms: C_15  and  O_23
    4  A    between atoms: C_28  and  C_30
                            x       y       z     vdW  Elec       q    Type
                         _______ _______ _______ _____ _____    ______ ____

>  <TORSDO>
F 4

$$$$
=
 OpenBabel11122412373D

 30 34  0  0  1  0  0  0  0  0999 V2000
  160.2220  210.9020  152.7080 C   0  0  2  0  0  3  0  0  0  0  0  0
  159.7360  213.1610  151.8810 C   0  0  0  0  0  0  0  0  0  0  0  0
  162.0480  209.8720  149.0600 N   0  0  0  0  0  0  0  0  0  0  0  0
  160.6280  209.4750  152.4270 C   0  0  2  0  0  3  0  0  0  0  0  0
  159.4530  211.0760  153.9790 C   0  0  0  0  0  2  0  0  0  0  0  0
  161.8770  208.9190  155.9310 C   0  0  0  0  0  2  0  0  0  0  0  0
  161.0790  206.5430  152.2880 C   0  0  0  0  0  0  0  0  0  0  0  0
  161.0440  209.3010  154.9600 C   0  0  0  0  0  0  0  0  0  0  0  0
  161.5000  207.0890  151.0550 O   0  0  0  0  0  0  0  0  0  0  0  0
  162.5240  208.5800  149.4480 C   0  0  0  0  0  0  0  0  0  0  0  0
  160.2120  210.5490  155.1970 C   0  0  2  0  0  3  0  0  0  0  0  0
  161.2690  208.7150  153.5790 C   0  0  1  0  0  3  0  0  0  0  0  0
  159.7420  214.0690  150.8200 C   0  0  0  0  0  3  0  0  0  0  0  0
  159.1940  213.5920  153.0870 O   0  0  0  0  0  1  0  0  0  0  0  0
  161.4500  210.3460  150.2590 C   0  0  0  0  0  0  0  0  0  0  0  0
  160.2820  213.7240  149.5840 C   0  0  0  0  0  3  0  0  0  0  0  0
  160.2710  211.8520  151.7150 C   0  0  0  0  0  0  0  0  0  0  0  0
  161.5500  209.4310  151.3210 N   0  0  0  0  0  0  0  0  0  0  0  0
  163.1100  207.8060  148.6470 O   0  0  0  0  0  0  0  0  0  0  0  0
  162.2920  208.2640  150.8960 C   0  0  1  0  0  3  0  0  0  0  0  0
  160.5120  206.5610  154.5880 O   0  0  0  0  0  1  0  0  0  0  0  0
  160.8420  212.4650  149.3980 C   0  0  0  0  0  3  0  0  0  0  0  0
  160.8600  211.5340  150.4420 C   0  0  0  0  0  0  0  0  0  0  0  0
  160.9600  207.2360  153.4530 C   0  0  0  0  0  0  0  0  0  0  0  0
  160.6760  205.1040  152.2640 C   0  0  0  0  0  2  0  0  0  0  0  0
  160.9380  203.2850  151.0460 C   0  0  0  0  0  1  0  0  0  0  0  0
  161.6430  204.3590  151.5890 O   0  0  0  0  0  0  0  0  0  0  0  0
  159.2710  210.4060  156.3990 C   0  0  0  0  0  2  0  0  0  0  0  0
  160.4380  212.4460  157.2610 C   0  0  0  0  0  1  0  0  0  0  0  0
  159.1220  211.6950  157.2020 C   0  0  0  0  0  2  0  0  0  0  0  0
  1  5  1  6  0  0  0
  2 14  1  0  0  0  0
  3 10  1  0  0  0  0
  3 15  2  0  0  0  0
  4 18  1  6  0  0  0
  4  1  1  0  0  0  0
  4 12  1  0  0  0  0
  5 11  1  0  0  0  0
  7 24  2  0  0  0  0
  8 11  1  0  0  0  0
  8  6  2  0  0  0  0
  9  7  1  0  0  0  0
 11 28  1  1  0  0  0
 12 24  1  1  0  0  0
 12  8  1  0  0  0  0
 13  2  2  0  0  0  0
 15 23  1  0  0  0  0
 15 18  1  0  0  0  0
 16 13  1  0  0  0  0
 17  2  1  0  0  0  0
 17  1  1  0  0  0  0
 19 10  2  0  0  0  0
 20 10  1  6  0  0  0
 20  9  1  0  0  0  0
 20 18  1  0  0  0  0
 22 16  2  0  0  0  0
 22 23  1  0  0  0  0
 23 17  2  0  0  0  0
 24 21  1  0  0  0  0
 25  7  1  0  0  0  0
 26 27  1  0  0  0  0
 27 25  1  0  0  0  0
 28 30  1  0  0  0  0
 30 29  1  0  0  0  0
M  END
>  <MODEL>
8

>  <REMARK>
 VINA RESULT:      -5.3      2.906      6.744
  Name = 
  4 active torsions:
  status: ('A' for Active; 'I' for Inactive)
    1  A    between atoms: C_7  and  C_15
    2  A    between atoms: C_11  and  C_28
    3  A    between atoms: C_15  and  O_23
    4  A    between atoms: C_28  and  C_30
                            x       y       z     vdW  Elec       q    Type
                         _______ _______ _______ _____ _____    ______ ____

>  <TORSDO>
F 4

$$$$
=
 OpenBabel11122412373D

 30 34  0  0  1  0  0  0  0  0999 V2000
  160.6430  209.1120  153.0370 C   0  0  2  0  0  3  0  0  0  0  0  0
  160.7730  207.1870  154.5530 C   0  0  0  0  0  0  0  0  0  0  0  0
  159.6260  211.6590  156.2300 N   0  0  0  0  0  0  0  0  0  0  0  0
  160.2060  210.5350  152.7780 C   0  0  2  0  0  3  0  0  0  0  0  0
  160.8220  208.2960  151.7980 C   0  0  0  0  0  2  0  0  0  0  0  0
  162.7670  211.0500  150.0730 C   0  0  0  0  0  2  0  0  0  0  0  0
  159.2580  213.1550  151.7490 C   0  0  0  0  0  0  0  0  0  0  0  0
  161.7910  210.4450  150.7540 C   0  0  0  0  0  0  0  0  0  0  0  0
  159.1380  213.1910  153.1560 O   0  0  0  0  0  0  0  0  0  0  0  0
  159.6530  212.8910  155.5010 C   0  0  0  0  0  0  0  0  0  0  0  0
  161.8160  208.9280  150.8220 C   0  0  2  0  0  3  0  0  0  0  0  0
  160.9810  211.2960  151.7120 C   0  0  1  0  0  3  0  0  0  0  0  0
  160.5860  206.6630  155.8350 C   0  0  0  0  0  3  0  0  0  0  0  0
  161.1910  206.3090  153.5600 O   0  0  0  0  0  1  0  0  0  0  0  0
  160.0170  210.7160  155.2410 C   0  0  0  0  0  0  0  0  0  0  0  0
  160.1850  207.4780  156.8900 C   0  0  0  0  0  3  0  0  0  0  0  0
  160.5410  208.5690  154.2970 C   0  0  0  0  0  0  0  0  0  0  0  0
  160.2800  211.3050  153.9930 N   0  0  0  0  0  0  0  0  0  0  0  0
  159.3410  213.9920  156.0240 O   0  0  0  0  0  0  0  0  0  0  0  0
  160.1220  212.7400  154.0850 C   0  0  1  0  0  3  0  0  0  0  0  0
  160.0720  212.3890  149.6610 O   0  0  0  0  0  1  0  0  0  0  0  0
  159.9820  208.8370  156.6810 C   0  0  0  0  0  3  0  0  0  0  0  0
  160.1670  209.3960  155.4110 C   0  0  0  0  0  0  0  0  0  0  0  0
  160.0770  212.3190  151.0540 C   0  0  0  0  0  0  0  0  0  0  0  0
  158.3560  214.0720  150.9910 C   0  0  0  0  0  2  0  0  0  0  0  0
  156.7570  213.5740  149.5550 C   0  0  0  0  0  1  0  0  0  0  0  0
  157.0800  213.5130  150.9100 O   0  0  0  0  0  0  0  0  0  0  0  0
  161.7010  208.2780  149.4390 C   0  0  0  0  0  2  0  0  0  0  0  0
  160.4270  206.3010  148.5820 C   0  0  0  0  0  1  0  0  0  0  0  0
  161.5440  206.7610  149.4990 C   0  0  0  0  0  2  0  0  0  0  0  0
  1  5  1  6  0  0  0
  1 17  1  0  0  0  0
  2 13  1  0  0  0  0
  4  1  1  0  0  0  0
  4 18  1  1  0  0  0
  6  8  2  0  0  0  0
  7  9  1  0  0  0  0
  8 11  1  0  0  0  0
 10 19  2  0  0  0  0
 10  3  1  0  0  0  0
 11 28  1  6  0  0  0
 11  5  1  0  0  0  0
 12  8  1  6  0  0  0
 12  4  1  0  0  0  0
 13 16  2  0  0  0  0
 14  2  1  0  0  0  0
 15 23  1  0  0  0  0
 15  3  2  0  0  0  0
 17  2  2  0  0  0  0
 17 23  1  0  0  0  0
 18 20  1  0  0  0  0
 18 15  1  0  0  0  0
 20  9  1  6  0  0  0
 20 10  1  0  0  0  0
 21 24  1  0  0  0  0
 22 16  1  0  0  0  0
 23 22  2  0  0  0  0
 24 12  1  0  0  0  0
 24  7  2  0  0  0  0
 25  7  1  0  0  0  0
 26 27  1  0  0  0  0
 27 25  1  0  0  0  0
 28 30  1  0  0  0  0
 29 30  1  0  0  0  0
M  END
>  <MODEL>
9

>  <REMARK>
 VINA RESULT:      -5.0      3.936      7.098
  Name = 
  4 active torsions:
  status: ('A' for Active; 'I' for Inactive)
    1  A    between atoms: C_7  and  C_15
    2  A    between atoms: C_11  and  C_28
    3  A    between atoms: C_15  and  O_23
    4  A    between atoms: C_28  and  C_30
                            x       y       z     vdW  Elec       q    Type
                         _______ _______ _______ _____ _____    ______ ____

>  <TORSDO>
F 4

$$$$
