=
 OpenBabel11122414053D

 28 32  0  0  1  0  0  0  0  0999 V2000
  161.6320  210.8460  150.4980 C   0  0  0  0  0  0  0  0  0  0  0  0
  157.8060  212.7500  152.5410 F   0  0  0  0  0  0  0  0  0  0  0  0
  161.5420  207.6640  156.0060 O   0  0  0  0  0  0  0  0  0  0  0  0
  160.5420  213.3340  149.8140 C   0  0  0  0  0  3  0  0  0  0  0  0
  161.7800  209.9980  155.8480 N   0  0  0  0  0  0  0  0  0  0  0  0
  162.2900  209.5380  150.7770 C   0  0  0  0  0  2  0  0  0  0  0  0
  157.4000  210.9740  154.0470 C   0  0  0  0  0  1  0  0  0  0  0  0
  158.2250  212.2150  153.7440 C   0  0  1  0  0  0  0  0  0  0  0  0
  158.9320  213.4160  155.8150 C   0  0  0  0  0  0  0  0  0  0  0  0
  159.7250  211.8820  153.6990 C   0  0  1  0  0  3  0  0  0  0  0  0
  160.4060  206.5980  151.6080 O   0  0  0  0  0  0  0  0  0  0  0  0
  161.4290  210.2310  153.5130 C   0  0  1  0  0  3  0  0  0  0  0  0
  160.1010  212.6320  155.8170 O   0  0  0  0  0  0  0  0  0  0  0  0
  158.0190  213.2420  154.8410 C   0  0  0  0  0  3  0  0  0  0  0  0
  161.1880  207.5740  151.7460 C   0  0  0  0  0  0  0  0  0  0  0  0
  160.7460  211.4880  151.4080 C   0  0  0  0  0  0  0  0  0  0  0  0
  161.5100  208.7170  155.3170 C   0  0  0  0  0  0  0  0  0  0  0  0
  158.7260  214.4530  156.8580 C   0  0  0  0  0  1  0  0  0  0  0  0
  161.8820  207.7770  153.0550 C   0  0  0  0  0  2  0  0  0  0  0  0
  160.2080  212.7310  151.0270 C   0  0  0  0  0  3  0  0  0  0  0  0
  161.9600  211.4600  149.2840 C   0  0  0  0  0  3  0  0  0  0  0  0
  161.4200  212.6970  148.9420 C   0  0  0  0  0  3  0  0  0  0  0  0
  161.3490  208.4780  150.6970 O   0  0  0  0  0  0  0  0  0  0  0  0
  161.4940  211.0070  154.8460 C   0  0  1  0  0  3  0  0  0  0  0  0
  161.1020  208.7740  153.8970 C   0  0  2  0  0  3  0  0  0  0  0  0
  160.1420  211.4950  155.0320 N   0  0  2  0  0  0  0  0  0  0  0  0
  161.9680  210.2820  157.2610 C   0  0  0  0  0  1  0  0  0  0  0  0
  160.2720  210.8450  152.7160 C   0  0  2  0  0  3  0  0  0  0  0  0
  1  6  1  0  0  0  0
  1 16  1  0  0  0  0
  2  8  1  0  0  0  0
  4 20  1  0  0  0  0
  5 27  1  0  0  0  0
  8  7  1  1  0  0  0
  8 14  1  0  0  0  0
  9 13  1  0  0  0  0
  9 18  1  0  0  0  0
 10  8  1  0  0  0  0
 10 26  1  0  0  0  0
 11 15  2  0  0  0  0
 12 25  1  0  0  0  0
 12 24  1  0  0  0  0
 14  9  2  0  0  0  0
 15 19  1  0  0  0  0
 16 28  1  0  0  0  0
 17  5  1  0  0  0  0
 17  3  2  0  0  0  0
 19 25  1  0  0  0  0
 20 16  2  0  0  0  0
 21  1  2  0  0  0  0
 22 21  1  0  0  0  0
 22  4  2  0  0  0  0
 23  6  1  0  0  0  0
 23 15  1  0  0  0  0
 24 26  1  0  0  0  0
 24  5  1  0  0  0  0
 25 17  1  0  0  0  0
 26 13  1  0  0  0  0
 28 12  1  0  0  0  0
 28 10  1  0  0  0  0
M  END
>  <MODEL>
1

>  <REMARK>
 VINA RESULT:      -5.2      0.000      0.000
  Name = 
  0 active torsions:
  status: ('A' for Active; 'I' for Inactive)
                            x       y       z     vdW  Elec       q    Type
                         _______ _______ _______ _____ _____    ______ ____

>  <TORSDO>
F 0

$$$$
=
 OpenBabel11122414053D

 28 32  0  0  1  0  0  0  0  0999 V2000
  158.6090  212.4650  154.1570 C   0  0  0  0  0  0  0  0  0  0  0  0
  161.5350  211.4440  150.5740 F   0  0  0  0  0  0  0  0  0  0  0  0
  162.0030  207.7380  156.7280 O   0  0  0  0  0  0  0  0  0  0  0  0
  158.1130  213.1000  151.4730 C   0  0  0  0  0  3  0  0  0  0  0  0
  160.6660  207.4940  154.8090 N   0  0  0  0  0  0  0  0  0  0  0  0
  158.7740  212.1800  155.6100 C   0  0  0  0  0  2  0  0  0  0  0  0
  163.1980  210.3920  151.8820 C   0  0  0  0  0  1  0  0  0  0  0  0
  161.8420  210.2560  151.2090 C   0  0  1  0  0  0  0  0  0  0  0  0
  161.3920  207.9240  150.4410 C   0  0  0  0  0  0  0  0  0  0  0  0
  160.7540  209.8870  152.2290 C   0  0  1  0  0  3  0  0  0  0  0  0
  161.9670  212.3750  157.2380 O   0  0  0  0  0  0  0  0  0  0  0  0
  160.0670  209.7690  154.5050 C   0  0  1  0  0  3  0  0  0  0  0  0
  160.8010  207.6730  151.6930 O   0  0  0  0  0  0  0  0  0  0  0  0
  161.8960  209.1440  150.1780 C   0  0  0  0  0  3  0  0  0  0  0  0
  160.9170  211.8730  156.7620 C   0  0  0  0  0  0  0  0  0  0  0  0
  159.3390  211.7890  153.1380 C   0  0  0  0  0  0  0  0  0  0  0  0
  161.3080  208.2520  155.8130 C   0  0  0  0  0  0  0  0  0  0  0  0
  161.4230  206.8610  149.4030 C   0  0  0  0  0  1  0  0  0  0  0  0
  160.6890  210.3990  156.8830 C   0  0  0  0  0  2  0  0  0  0  0  0
  159.0720  212.1420  151.8020 C   0  0  0  0  0  3  0  0  0  0  0  0
  157.6500  213.4240  153.8160 C   0  0  0  0  0  3  0  0  0  0  0  0
  157.4010  213.7420  152.4820 C   0  0  0  0  0  3  0  0  0  0  0  0
  160.0130  212.6880  156.0810 O   0  0  0  0  0  0  0  0  0  0  0  0
  160.0950  208.3870  153.8190 C   0  0  1  0  0  3  0  0  0  0  0  0
  161.1430  209.7070  155.6070 C   0  0  2  0  0  3  0  0  0  0  0  0
  161.0360  208.5560  152.7300 N   0  0  2  0  0  0  0  0  0  0  0  0
  160.8480  206.0660  154.6100 C   0  0  0  0  0  1  0  0  0  0  0  0
  160.4630  210.7890  153.4300 C   0  0  2  0  0  3  0  0  0  0  0  0
  1  6  1  0  0  0  0
  2  8  1  0  0  0  0
  4 20  2  0  0  0  0
  4 22  1  0  0  0  0
  5 17  1  0  0  0  0
  6 23  1  0  0  0  0
  8  7  1  1  0  0  0
  8 10  1  0  0  0  0
  9 13  1  0  0  0  0
 10 26  1  0  0  0  0
 10 28  1  0  0  0  0
 12 25  1  0  0  0  0
 13 26  1  0  0  0  0
 14  9  2  0  0  0  0
 14  8  1  0  0  0  0
 15 19  1  0  0  0  0
 15 11  2  0  0  0  0
 16 28  1  0  0  0  0
 16  1  2  0  0  0  0
 17  3  2  0  0  0  0
 18  9  1  0  0  0  0
 20 16  1  0  0  0  0
 21  1  1  0  0  0  0
 22 21  2  0  0  0  0
 23 15  1  0  0  0  0
 24 12  1  0  0  0  0
 24  5  1  0  0  0  0
 25 17  1  0  0  0  0
 25 19  1  0  0  0  0
 26 24  1  0  0  0  0
 27  5  1  0  0  0  0
 28 12  1  0  0  0  0
M  END
>  <MODEL>
2

>  <REMARK>
 VINA RESULT:      -4.6      1.938      5.268
  Name = 
  0 active torsions:
  status: ('A' for Active; 'I' for Inactive)
                            x       y       z     vdW  Elec       q    Type
                         _______ _______ _______ _____ _____    ______ ____

>  <TORSDO>
F 0

$$$$
=
 OpenBabel11122414053D

 28 32  0  0  1  0  0  0  0  0999 V2000
  160.7310  207.9040  153.4050 C   0  0  0  0  0  0  0  0  0  0  0  0
  160.3000  210.6210  157.2610 F   0  0  0  0  0  0  0  0  0  0  0  0
  159.8150  213.6010  150.7250 O   0  0  0  0  0  0  0  0  0  0  0  0
  160.0300  206.9530  155.9450 C   0  0  0  0  0  3  0  0  0  0  0  0
  158.2470  212.5470  152.1260 N   0  0  0  0  0  0  0  0  0  0  0  0
  161.0990  208.3000  152.0160 C   0  0  0  0  0  2  0  0  0  0  0  0
  160.8400  212.6650  156.2050 C   0  0  0  0  0  1  0  0  0  0  0  0
  159.7710  211.6140  156.4590 C   0  0  1  0  0  0  0  0  0  0  0  0
  157.4730  212.5870  156.5070 C   0  0  0  0  0  0  0  0  0  0  0  0
  159.2490  211.0280  155.1380 C   0  0  1  0  0  3  0  0  0  0  0  0
  163.5330  210.8520  151.3480 O   0  0  0  0  0  0  0  0  0  0  0  0
  159.5670  210.6960  152.8030 C   0  0  1  0  0  3  0  0  0  0  0  0
  157.3900  212.3440  155.1230 O   0  0  0  0  0  0  0  0  0  0  0  0
  158.5930  212.2500  157.1730 C   0  0  0  0  0  3  0  0  0  0  0  0
  162.4160  210.2770  151.4070 C   0  0  0  0  0  0  0  0  0  0  0  0
  160.2570  208.8230  154.3830 C   0  0  0  0  0  0  0  0  0  0  0  0
  159.5200  212.6770  151.5300 C   0  0  0  0  0  0  0  0  0  0  0  0
  156.3180  213.1750  157.2320 C   0  0  0  0  0  1  0  0  0  0  0  0
  161.2020  210.9770  150.8830 C   0  0  0  0  0  2  0  0  0  0  0  0
  159.9250  208.3120  155.6520 C   0  0  0  0  0  3  0  0  0  0  0  0
  160.8320  206.5420  153.7100 C   0  0  0  0  0  3  0  0  0  0  0  0
  160.4840  206.0670  154.9720 C   0  0  0  0  0  3  0  0  0  0  0  0
  162.3210  209.0230  152.0110 O   0  0  0  0  0  0  0  0  0  0  0  0
  158.2850  211.4940  153.1220 C   0  0  1  0  0  3  0  0  0  0  0  0
  160.4790  211.6680  152.0280 C   0  0  2  0  0  3  0  0  0  0  0  0
  158.5510  212.0770  154.4230 N   0  0  2  0  0  0  0  0  0  0  0  0
  157.1800  213.5280  152.0170 C   0  0  0  0  0  1  0  0  0  0  0  0
  160.1960  210.3370  154.1550 C   0  0  2  0  0  3  0  0  0  0  0  0
  1 21  2  0  0  0  0
  1 16  1  0  0  0  0
  3 17  2  0  0  0  0
  5 24  1  0  0  0  0
  6  1  1  0  0  0  0
  8  7  1  6  0  0  0
  8 14  1  0  0  0  0
  8  2  1  0  0  0  0
  9 14  2  0  0  0  0
  9 18  1  0  0  0  0
 10  8  1  0  0  0  0
 11 15  2  0  0  0  0
 12 24  1  0  0  0  0
 12 28  1  0  0  0  0
 13  9  1  0  0  0  0
 15 23  1  0  0  0  0
 16 20  2  0  0  0  0
 17 25  1  0  0  0  0
 17  5  1  0  0  0  0
 19 15  1  0  0  0  0
 19 25  1  0  0  0  0
 20  4  1  0  0  0  0
 21 22  1  0  0  0  0
 22  4  2  0  0  0  0
 23  6  1  0  0  0  0
 24 26  1  0  0  0  0
 25 12  1  0  0  0  0
 26 13  1  0  0  0  0
 26 10  1  0  0  0  0
 27  5  1  0  0  0  0
 28 16  1  0  0  0  0
 28 10  1  0  0  0  0
M  END
>  <MODEL>
3

>  <REMARK>
 VINA RESULT:      -3.4      2.377      4.856
  Name = 
  0 active torsions:
  status: ('A' for Active; 'I' for Inactive)
                            x       y       z     vdW  Elec       q    Type
                         _______ _______ _______ _____ _____    ______ ____

>  <TORSDO>
F 0

$$$$
=
 OpenBabel11122414053D

 28 32  0  0  1  0  0  0  0  0999 V2000
  160.8610  205.2170  151.1010 C   0  0  0  0  0  0  0  0  0  0  0  0
  163.3990  206.6140  147.3530 F   0  0  0  0  0  0  0  0  0  0  0  0
  161.2270  199.7680  147.8380 O   0  0  0  0  0  0  0  0  0  0  0  0
  161.0880  207.8740  150.2400 C   0  0  0  0  0  3  0  0  0  0  0  0
  160.2030  201.7180  147.0160 N   0  0  0  0  0  0  0  0  0  0  0  0
  160.6760  203.8430  151.6470 C   0  0  0  0  0  2  0  0  0  0  0  0
  164.1720  204.4660  146.7420 C   0  0  0  0  0  1  0  0  0  0  0  0
  163.0170  205.4550  146.7060 C   0  0  1  0  0  0  0  0  0  0  0  0
  161.6200  205.2110  144.6520 C   0  0  0  0  0  0  0  0  0  0  0  0
  161.7590  204.8570  147.3560 C   0  0  1  0  0  3  0  0  0  0  0  0
  163.3290  201.4260  151.6590 O   0  0  0  0  0  0  0  0  0  0  0  0
  160.8030  203.1980  148.7700 C   0  0  1  0  0  3  0  0  0  0  0  0
  160.8210  204.2940  145.3580 O   0  0  0  0  0  0  0  0  0  0  0  0
  162.6740  205.7820  145.2650 C   0  0  0  0  0  3  0  0  0  0  0  0
  162.2400  201.9770  151.3550 C   0  0  0  0  0  0  0  0  0  0  0  0
  161.3110  205.4810  149.7760 C   0  0  0  0  0  0  0  0  0  0  0  0
  160.9880  201.0000  147.9440 C   0  0  0  0  0  0  0  0  0  0  0  0
  161.2810  205.5750  143.2520 C   0  0  0  0  0  1  0  0  0  0  0  0
  161.3260  201.3070  150.3790 C   0  0  0  0  0  2  0  0  0  0  0  0
  161.4240  206.8270  149.3820 C   0  0  0  0  0  3  0  0  0  0  0  0
  160.5270  206.2750  151.9540 C   0  0  0  0  0  3  0  0  0  0  0  0
  160.6390  207.5970  151.5280 C   0  0  0  0  0  3  0  0  0  0  0  0
  161.9320  203.2280  151.8900 O   0  0  0  0  0  0  0  0  0  0  0  0
  160.2620  203.1340  147.3260 C   0  0  1  0  0  3  0  0  0  0  0  0
  161.5630  201.8750  148.9880 C   0  0  2  0  0  3  0  0  0  0  0  0
  161.3070  203.7530  146.5340 N   0  0  2  0  0  0  0  0  0  0  0  0
  159.7110  201.1790  145.7590 C   0  0  0  0  0  1  0  0  0  0  0  0
  161.7750  204.3850  148.8110 C   0  0  2  0  0  3  0  0  0  0  0  0
  1  6  1  0  0  0  0
  1 21  1  0  0  0  0
  3 17  2  0  0  0  0
  4 22  1  0  0  0  0
  5 24  1  0  0  0  0
  5 17  1  0  0  0  0
  6 23  1  0  0  0  0
  8  7  1  1  0  0  0
  8  2  1  0  0  0  0
  8 10  1  0  0  0  0
  9 14  2  0  0  0  0
  9 13  1  0  0  0  0
 10 28  1  0  0  0  0
 12 28  1  0  0  0  0
 12 25  1  0  0  0  0
 13 26  1  0  0  0  0
 14  8  1  0  0  0  0
 15 11  2  0  0  0  0
 15 23  1  0  0  0  0
 16  1  2  0  0  0  0
 17 25  1  0  0  0  0
 18  9  1  0  0  0  0
 19 15  1  0  0  0  0
 20 16  1  0  0  0  0
 20  4  2  0  0  0  0
 22 21  2  0  0  0  0
 24 12  1  0  0  0  0
 25 19  1  0  0  0  0
 26 24  1  0  0  0  0
 26 10  1  0  0  0  0
 27  5  1  0  0  0  0
 28 16  1  0  0  0  0
M  END
>  <MODEL>
4

>  <REMARK>
 VINA RESULT:      -3.1      6.491      9.874
  Name = 
  0 active torsions:
  status: ('A' for Active; 'I' for Inactive)
                            x       y       z     vdW  Elec       q    Type
                         _______ _______ _______ _____ _____    ______ ____

>  <TORSDO>
F 0

$$$$
=
 OpenBabel11122414053D

 28 32  0  0  1  0  0  0  0  0999 V2000
  161.1920  207.8240  150.6250 C   0  0  0  0  0  0  0  0  0  0  0  0
  162.0010  208.7580  155.1980 F   0  0  0  0  0  0  0  0  0  0  0  0
  160.0370  214.0790  150.7640 O   0  0  0  0  0  0  0  0  0  0  0  0
  161.1160  205.9120  152.6720 C   0  0  0  0  0  3  0  0  0  0  0  0
  158.8190  212.4960  152.0050 N   0  0  0  0  0  0  0  0  0  0  0  0
  161.2100  208.7550  149.4610 C   0  0  0  0  0  2  0  0  0  0  0  0
  162.3960  211.0720  154.9280 C   0  0  0  0  0  1  0  0  0  0  0  0
  161.3560  209.9680  155.0290 C   0  0  1  0  0  0  0  0  0  0  0  0
  159.2320  210.7550  156.0780 C   0  0  0  0  0  0  0  0  0  0  0  0
  160.4610  209.9390  153.7800 C   0  0  1  0  0  3  0  0  0  0  0  0
  163.5680  211.4500  149.2180 O   0  0  0  0  0  0  0  0  0  0  0  0
  160.1260  210.5790  151.5120 C   0  0  1  0  0  3  0  0  0  0  0  0
  158.7690  211.0820  154.7900 O   0  0  0  0  0  0  0  0  0  0  0  0
  160.4590  210.2220  156.2260 C   0  0  0  0  0  3  0  0  0  0  0  0
  162.4660  210.8580  149.3460 C   0  0  0  0  0  0  0  0  0  0  0  0
  161.0640  208.2580  151.9750 C   0  0  0  0  0  0  0  0  0  0  0  0
  159.8960  212.9010  151.1870 C   0  0  0  0  0  0  0  0  0  0  0  0
  158.3580  210.9610  157.2610 C   0  0  0  0  0  1  0  0  0  0  0  0
  161.2130  211.6630  149.4920 C   0  0  0  0  0  2  0  0  0  0  0  0
  161.0410  207.2710  152.9770 C   0  0  0  0  0  3  0  0  0  0  0  0
  161.2670  206.4580  150.3290 C   0  0  0  0  0  3  0  0  0  0  0  0
  161.2290  205.5060  151.3450 C   0  0  0  0  0  3  0  0  0  0  0  0
  162.4380  209.4650  149.4090 O   0  0  0  0  0  0  0  0  0  0  0  0
  159.0380  211.1350  152.4550 C   0  0  1  0  0  3  0  0  0  0  0  0
  160.8720  211.8130  150.9670 C   0  0  2  0  0  3  0  0  0  0  0  0
  159.6810  211.1600  153.7540 N   0  0  2  0  0  0  0  0  0  0  0  0
  157.8390  213.3990  152.5850 C   0  0  0  0  0  1  0  0  0  0  0  0
  161.0600  209.7340  152.3870 C   0  0  2  0  0  3  0  0  0  0  0  0
  1 16  1  0  0  0  0
  3 17  2  0  0  0  0
  4 20  1  0  0  0  0
  5 24  1  0  0  0  0
  5 27  1  0  0  0  0
  6  1  1  0  0  0  0
  8  7  1  6  0  0  0
  8  2  1  0  0  0  0
  8 14  1  0  0  0  0
  9 14  2  0  0  0  0
  9 18  1  0  0  0  0
 10  8  1  0  0  0  0
 11 15  2  0  0  0  0
 12 28  1  0  0  0  0
 12 24  1  0  0  0  0
 13  9  1  0  0  0  0
 15 23  1  0  0  0  0
 15 19  1  0  0  0  0
 16 28  1  0  0  0  0
 16 20  2  0  0  0  0
 17  5  1  0  0  0  0
 19 25  1  0  0  0  0
 21  1  2  0  0  0  0
 21 22  1  0  0  0  0
 22  4  2  0  0  0  0
 23  6  1  0  0  0  0
 24 26  1  0  0  0  0
 25 17  1  0  0  0  0
 25 12  1  0  0  0  0
 26 10  1  0  0  0  0
 26 13  1  0  0  0  0
 28 10  1  0  0  0  0
M  END
>  <MODEL>
5

>  <REMARK>
 VINA RESULT:      -2.8      2.371      4.819
  Name = 
  0 active torsions:
  status: ('A' for Active; 'I' for Inactive)
                            x       y       z     vdW  Elec       q    Type
                         _______ _______ _______ _____ _____    ______ ____

>  <TORSDO>
F 0

$$$$
