=
 OpenBabel11122413593D

 37 44  0  0  1  0  0  0  0  0999 V2000
  162.4880  206.1400  147.3570 C   0  0  0  0  0  0  0  0  0  0  0  0
  160.7970  206.2190  150.7120 C   0  0  1  0  0  3  0  0  0  0  0  0
  160.3670  208.9600  152.2940 O   0  0  0  0  0  0  0  0  0  0  0  0
  160.7070  205.0860  148.3540 C   0  0  2  0  0  3  0  0  0  0  0  0
  161.6270  207.3960  151.0140 N   0  0  2  0  0  0  0  0  0  0  0  0
  160.4450  206.3270  149.2120 C   0  0  2  0  0  3  0  0  0  0  0  0
  161.3760  207.9810  152.3470 C   0  0  2  0  0  3  0  0  0  0  0  0
  160.2390  203.8540  149.1070 C   0  0  0  0  0  2  0  0  0  0  0  0
  161.2000  207.5370  148.6870 C   0  0  2  0  0  3  0  0  0  0  0  0
  161.6870  206.4470  146.2600 F   0  0  0  0  0  0  0  0  0  0  0  0
  161.5640  204.6730  152.5830 C   0  0  0  0  0  2  0  0  0  0  0  0
  160.9940  203.6520  150.4240 C   0  0  0  0  0  2  0  0  0  0  0  0
  162.5160  207.2010  148.2870 O   0  0  0  0  0  0  0  0  0  0  0  0
  162.3240  210.3550  152.2520 O   0  0  0  0  0  0  0  0  0  0  0  0
  160.9130  210.2780  152.2930 C   0  0  1  0  0  3  0  0  0  0  0  0
  161.5590  204.9250  151.0770 C   0  0  1  0  0  3  0  0  0  0  0  0
  161.2710  208.3480  149.9610 C   0  0  2  0  0  3  0  0  0  0  0  0
  162.0640  204.9530  147.9930 O   0  0  0  0  0  0  0  0  0  0  0  0
  161.1550  206.9530  153.4810 C   0  0  1  0  0  3  0  0  0  0  0  0
  163.7740  205.9430  146.8940 F   0  0  0  0  0  0  0  0  0  0  0  0
  161.6670  210.6520  151.0390 C   0  0  2  0  0  3  0  0  0  0  0  0
  162.1440  209.6160  149.9900 C   0  0  2  0  0  3  0  0  0  0  0  0
  162.1610  205.8140  153.3870 C   0  0  0  0  0  2  0  0  0  0  0  0
  160.0360  207.0350  155.5920 C   0  0  0  0  0  2  0  0  0  0  0  0
  161.1850  207.5310  154.8340 N   0  0  2  0  0  0  0  0  0  0  0  0
  161.1740  209.0010  154.7950 C   0  0  0  0  0  2  0  0  0  0  0  0
  161.4350  210.7610  156.3940 O   0  0  0  0  0  0  0  0  0  0  0  0
  160.4680  208.8100  157.2230 N   0  0  0  0  0  2  0  0  0  0  0  0
  161.0710  209.5760  156.1760 C   0  0  0  0  0  0  0  0  0  0  0  0
  160.2190  207.3810  157.0650 C   0  0  0  0  0  2  0  0  0  0  0  0
  162.1880  210.3100  148.6310 C   0  0  1  0  0  3  0  0  0  0  0  0
  161.1450  211.3510  148.5630 N   0  0  0  0  0  0  0  0  0  0  0  0
  162.5700  211.7100  148.7980 C   0  0  2  0  0  3  0  0  0  0  0  0
  163.3400  212.1930  147.5690 C   0  0  0  0  0  2  0  0  0  0  0  0
  163.2440  213.5680  147.4770 F   0  0  0  0  0  0  0  0  0  0  0  0
  159.7640  212.4210  147.0210 O   0  0  0  0  0  1  0  0  0  0  0  0
  160.7340  211.4300  147.1640 C   0  0  0  0  0  2  0  0  0  0  0  0
  1 18  1  0  0  0  0
  1 13  1  0  0  0  0
  2  5  1  0  0  0  0
  2 16  1  0  0  0  0
  3  7  1  0  0  0  0
  4  8  1  0  0  0  0
  4  6  1  0  0  0  0
  5  7  1  0  0  0  0
  6  2  1  0  0  0  0
  7 19  1  0  0  0  0
  8 12  1  0  0  0  0
  9  6  1  0  0  0  0
  9 17  1  0  0  0  0
 10  1  1  0  0  0  0
 11 23  1  0  0  0  0
 12 16  1  0  0  0  0
 13  9  1  0  0  0  0
 14 15  1  0  0  0  0
 15  3  1  0  0  0  0
 16 11  1  0  0  0  0
 17 22  1  0  0  0  0
 17  5  1  0  0  0  0
 18  4  1  0  0  0  0
 19 25  1  0  0  0  0
 20  1  1  0  0  0  0
 21 14  1  0  0  0  0
 21 15  1  0  0  0  0
 22 21  1  0  0  0  0
 23 19  1  0  0  0  0
 24 30  1  0  0  0  0
 25 24  1  0  0  0  0
 26 25  1  0  0  0  0
 26 29  1  0  0  0  0
 29 27  2  0  0  0  0
 29 28  1  0  0  0  0
 30 28  1  0  0  0  0
 31 33  1  0  0  0  0
 31 22  1  0  0  0  0
 32 31  1  0  0  0  0
 32 33  1  0  0  0  0
 34 33  1  0  0  0  0
 35 34  1  0  0  0  0
 36 37  1  0  0  0  0
 37 32  1  0  0  0  0
M  END
>  <MODEL>
1

>  <REMARK>
 VINA RESULT:      -7.7      0.000      0.000
  Name = 
  4 active torsions:
  status: ('A' for Active; 'I' for Inactive)
    1  A    between atoms: C_1  and  C_27
    2  A    between atoms: N_4  and  C_37
    3  A    between atoms: C_8  and  C_12
    4  A    between atoms: C_23  and  N_30
                            x       y       z     vdW  Elec       q    Type
                         _______ _______ _______ _____ _____    ______ ____

>  <TORSDO>
F 4

$$$$
=
 OpenBabel11122413593D

 37 44  0  0  1  0  0  0  0  0999 V2000
  160.1450  211.1690  153.6930 C   0  0  0  0  0  0  0  0  0  0  0  0
  161.7080  207.8610  152.8410 C   0  0  1  0  0  3  0  0  0  0  0  0
  162.9540  207.3020  149.9530 O   0  0  0  0  0  0  0  0  0  0  0  0
  161.4800  209.6310  154.7550 C   0  0  2  0  0  3  0  0  0  0  0  0
  161.2890  208.1090  151.4530 N   0  0  2  0  0  0  0  0  0  0  0  0
  162.1050  209.2380  153.4130 C   0  0  2  0  0  3  0  0  0  0  0  0
  161.6850  207.0470  150.5070 C   0  0  2  0  0  3  0  0  0  0  0  0
  161.5190  208.4360  155.6900 C   0  0  0  0  0  2  0  0  0  0  0  0
  161.7830  210.2550  152.3300 C   0  0  2  0  0  3  0  0  0  0  0  0
  161.0230  212.1840  154.0660 F   0  0  0  0  0  0  0  0  0  0  0  0
  160.4540  205.6880  153.2770 C   0  0  0  0  0  2  0  0  0  0  0  0
  160.7130  207.2500  155.1540 C   0  0  0  0  0  2  0  0  0  0  0  0
  160.4360  210.6860  152.4000 O   0  0  0  0  0  0  0  0  0  0  0  0
  161.5410  208.1010  148.1810 O   0  0  0  0  0  0  0  0  0  0  0  0
  162.8540  207.8430  148.6370 C   0  0  1  0  0  3  0  0  0  0  0  0
  160.5690  207.1710  153.6250 C   0  0  1  0  0  3  0  0  0  0  0  0
  161.9480  209.3710  151.1140 C   0  0  2  0  0  3  0  0  0  0  0  0
  160.1590  210.1050  154.6200 O   0  0  0  0  0  0  0  0  0  0  0  0
  161.5470  205.6040  151.0470 C   0  0  1  0  0  3  0  0  0  0  0  0
  158.8720  211.7050  153.6730 F   0  0  0  0  0  0  0  0  0  0  0  0
  162.2820  209.2390  148.5660 C   0  0  2  0  0  3  0  0  0  0  0  0
  161.5220  209.9100  149.7370 C   0  0  2  0  0  3  0  0  0  0  0  0
  160.2340  205.4270  151.7970 C   0  0  0  0  0  2  0  0  0  0  0  0
  160.9690  204.9890  148.8110 C   0  0  0  0  0  2  0  0  0  0  0  0
  161.6750  204.5600  150.0190 N   0  0  2  0  0  0  0  0  0  0  0  0
  161.1470  203.2700  150.4870 C   0  0  0  0  0  2  0  0  0  0  0  0
  161.1300  201.0230  149.6670 O   0  0  0  0  0  0  0  0  0  0  0  0
  161.1100  202.6750  148.0230 N   0  0  0  0  0  2  0  0  0  0  0  0
  161.1610  202.2500  149.3880 C   0  0  0  0  0  0  0  0  0  0  0  0
  161.3440  204.0670  147.6560 C   0  0  0  0  0  2  0  0  0  0  0  0
  161.7260  211.4190  149.6260 C   0  0  1  0  0  3  0  0  0  0  0  0
  161.7360  211.8220  148.2080 N   0  0  0  0  0  0  0  0  0  0  0  0
  160.5340  212.0430  149.0570 C   0  0  2  0  0  3  0  0  0  0  0  0
  160.3710  213.4580  149.6120 C   0  0  0  0  0  2  0  0  0  0  0  0
  160.0850  213.3940  150.9620 F   0  0  0  0  0  0  0  0  0  0  0  0
  162.6580  213.4330  146.7980 O   0  0  0  0  0  1  0  0  0  0  0  0
  162.6220  212.9800  148.1150 C   0  0  0  0  0  2  0  0  0  0  0  0
  1 10  1  0  0  0  0
  1 18  1  0  0  0  0
  2  6  1  0  0  0  0
  2 16  1  0  0  0  0
  3  7  1  0  0  0  0
  4  8  1  0  0  0  0
  5  2  1  0  0  0  0
  6  4  1  0  0  0  0
  7 19  1  0  0  0  0
  7  5  1  0  0  0  0
  9 13  1  0  0  0  0
  9  6  1  0  0  0  0
 11 16  1  0  0  0  0
 12  8  1  0  0  0  0
 13  1  1  0  0  0  0
 14 21  1  0  0  0  0
 14 15  1  0  0  0  0
 15  3  1  0  0  0  0
 16 12  1  0  0  0  0
 17  5  1  0  0  0  0
 17  9  1  0  0  0  0
 18  4  1  0  0  0  0
 19 23  1  0  0  0  0
 20  1  1  0  0  0  0
 21 15  1  0  0  0  0
 21 22  1  0  0  0  0
 22 17  1  0  0  0  0
 23 11  1  0  0  0  0
 24 25  1  0  0  0  0
 25 26  1  0  0  0  0
 25 19  1  0  0  0  0
 28 29  1  0  0  0  0
 29 27  2  0  0  0  0
 29 26  1  0  0  0  0
 30 28  1  0  0  0  0
 30 24  1  0  0  0  0
 31 22  1  0  0  0  0
 32 33  1  0  0  0  0
 32 31  1  0  0  0  0
 33 34  1  0  0  0  0
 33 31  1  0  0  0  0
 34 35  1  0  0  0  0
 36 37  1  0  0  0  0
 37 32  1  0  0  0  0
M  END
>  <MODEL>
2

>  <REMARK>
 VINA RESULT:      -7.5      2.857      6.069
  Name = 
  4 active torsions:
  status: ('A' for Active; 'I' for Inactive)
    1  A    between atoms: C_1  and  C_27
    2  A    between atoms: N_4  and  C_37
    3  A    between atoms: C_8  and  C_12
    4  A    between atoms: C_23  and  N_30
                            x       y       z     vdW  Elec       q    Type
                         _______ _______ _______ _____ _____    ______ ____

>  <TORSDO>
F 4

$$$$
=
 OpenBabel11122413593D

 37 44  0  0  1  0  0  0  0  0999 V2000
  161.5520  208.1540  148.3280 C   0  0  0  0  0  0  0  0  0  0  0  0
  161.6370  210.4490  151.3020 C   0  0  1  0  0  3  0  0  0  0  0  0
  161.5440  209.3120  154.2850 O   0  0  0  0  0  0  0  0  0  0  0  0
  162.6490  210.0850  148.9150 C   0  0  2  0  0  3  0  0  0  0  0  0
  160.8470  209.4310  152.0110 N   0  0  2  0  0  0  0  0  0  0  0  0
  162.6060  209.6680  150.3880 C   0  0  2  0  0  3  0  0  0  0  0  0
  160.5420  209.7770  153.4140 C   0  0  2  0  0  3  0  0  0  0  0  0
  162.6570  211.6000  148.8280 C   0  0  0  0  0  2  0  0  0  0  0  0
  162.2410  208.2000  150.5420 C   0  0  2  0  0  3  0  0  0  0  0  0
  162.7670  207.5790  147.9620 F   0  0  0  0  0  0  0  0  0  0  0  0
  160.0300  212.4160  151.4630 C   0  0  0  0  0  2  0  0  0  0  0  0
  161.3960  212.2260  149.4320 C   0  0  0  0  0  2  0  0  0  0  0  0
  161.2040  207.8230  149.6550 O   0  0  0  0  0  0  0  0  0  0  0  0
  159.9030  207.5750  154.5490 O   0  0  0  0  0  0  0  0  0  0  0  0
  161.1500  208.1110  154.9460 C   0  0  1  0  0  3  0  0  0  0  0  0
  160.7000  211.4080  150.5330 C   0  0  1  0  0  3  0  0  0  0  0  0
  161.6900  208.2350  151.9490 C   0  0  2  0  0  3  0  0  0  0  0  0
  161.5740  209.5570  148.1710 O   0  0  0  0  0  0  0  0  0  0  0  0
  160.1780  211.2610  153.6570 C   0  0  1  0  0  3  0  0  0  0  0  0
  160.5800  207.6430  147.4910 F   0  0  0  0  0  0  0  0  0  0  0  0
  161.0380  206.9000  154.0510 C   0  0  2  0  0  3  0  0  0  0  0  0
  160.9840  206.9850  152.5050 C   0  0  2  0  0  3  0  0  0  0  0  0
  159.2300  211.7720  152.5820 C   0  0  0  0  0  2  0  0  0  0  0  0
  158.2260  211.0610  155.0230 C   0  0  0  0  0  2  0  0  0  0  0  0
  159.6120  211.5330  154.9870 N   0  0  2  0  0  0  0  0  0  0  0  0
  159.6710  212.9640  155.3200 C   0  0  0  0  0  2  0  0  0  0  0  0
  159.2400  214.2940  157.2610 O   0  0  0  0  0  0  0  0  0  0  0  0
  157.9340  212.3740  157.0690 N   0  0  0  0  0  2  0  0  0  0  0  0
  158.9730  213.2460  156.6170 C   0  0  0  0  0  0  0  0  0  0  0  0
  157.7330  211.0610  156.4650 C   0  0  0  0  0  2  0  0  0  0  0  0
  161.5800  205.6960  151.9420 C   0  0  1  0  0  3  0  0  0  0  0  0
  160.6810  204.5620  152.2250 N   0  0  0  0  0  0  0  0  0  0  0  0
  160.7300  205.1800  150.8720 C   0  0  2  0  0  3  0  0  0  0  0  0
  161.5810  204.4400  149.8410 C   0  0  0  0  0  2  0  0  0  0  0  0
  161.1560  204.7740  148.5690 F   0  0  0  0  0  0  0  0  0  0  0  0
  160.8280  202.2470  152.0040 O   0  0  0  0  0  1  0  0  0  0  0  0
  161.5360  203.3880  152.3760 C   0  0  0  0  0  2  0  0  0  0  0  0
  1 13  1  0  0  0  0
  2  5  1  0  0  0  0
  3 15  1  0  0  0  0
  4  6  1  0  0  0  0
  5  7  1  0  0  0  0
  6  9  1  0  0  0  0
  6  2  1  0  0  0  0
  7 19  1  0  0  0  0
  7  3  1  0  0  0  0
  8  4  1  0  0  0  0
  8 12  1  0  0  0  0
  9 17  1  0  0  0  0
 10  1  1  0  0  0  0
 11 23  1  0  0  0  0
 12 16  1  0  0  0  0
 13  9  1  0  0  0  0
 14 15  1  0  0  0  0
 16  2  1  0  0  0  0
 16 11  1  0  0  0  0
 17  5  1  0  0  0  0
 17 22  1  0  0  0  0
 18  1  1  0  0  0  0
 18  4  1  0  0  0  0
 19 25  1  0  0  0  0
 20  1  1  0  0  0  0
 21 14  1  0  0  0  0
 21 15  1  0  0  0  0
 22 21  1  0  0  0  0
 23 19  1  0  0  0  0
 24 30  1  0  0  0  0
 25 24  1  0  0  0  0
 25 26  1  0  0  0  0
 26 29  1  0  0  0  0
 29 28  1  0  0  0  0
 29 27  2  0  0  0  0
 30 28  1  0  0  0  0
 31 32  1  0  0  0  0
 31 22  1  0  0  0  0
 32 37  1  0  0  0  0
 33 31  1  0  0  0  0
 33 32  1  0  0  0  0
 34 33  1  0  0  0  0
 35 34  1  0  0  0  0
 36 37  1  0  0  0  0
M  END
>  <MODEL>
3

>  <REMARK>
 VINA RESULT:      -6.6      2.436      5.620
  Name = 
  4 active torsions:
  status: ('A' for Active; 'I' for Inactive)
    1  A    between atoms: C_1  and  C_27
    2  A    between atoms: N_4  and  C_37
    3  A    between atoms: C_8  and  C_12
    4  A    between atoms: C_23  and  N_30
                            x       y       z     vdW  Elec       q    Type
                         _______ _______ _______ _____ _____    ______ ____

>  <TORSDO>
F 4

$$$$
=
 OpenBabel11122413593D

 37 44  0  0  1  0  0  0  0  0999 V2000
  161.9650  201.1140  148.3590 C   0  0  0  0  0  0  0  0  0  0  0  0
  160.4590  203.9140  150.3600 C   0  0  1  0  0  3  0  0  0  0  0  0
  160.3110  206.8900  149.2100 O   0  0  0  0  0  0  0  0  0  0  0  0
  160.1660  201.3830  149.7610 C   0  0  2  0  0  3  0  0  0  0  0  0
  161.3860  204.8120  149.6550 N   0  0  2  0  0  0  0  0  0  0  0  0
  160.0390  202.8460  149.3270 C   0  0  2  0  0  3  0  0  0  0  0  0
  161.2470  206.2340  150.0300 C   0  0  2  0  0  3  0  0  0  0  0  0
  159.6480  201.2390  151.1800 C   0  0  0  0  0  2  0  0  0  0  0  0
  160.8530  203.1280  148.0740 C   0  0  2  0  0  3  0  0  0  0  0  0
  161.1340  200.5210  147.4110 F   0  0  0  0  0  0  0  0  0  0  0  0
  161.2050  204.3370  152.7570 C   0  0  0  0  0  2  0  0  0  0  0  0
  160.4530  202.0710  152.1820 C   0  0  0  0  0  2  0  0  0  0  0  0
  162.1180  202.4950  148.1170 O   0  0  0  0  0  0  0  0  0  0  0  0
  162.3590  207.5590  148.1470 O   0  0  0  0  0  0  0  0  0  0  0  0
  160.9500  207.6640  148.1980 C   0  0  1  0  0  3  0  0  0  0  0  0
  161.1420  203.3250  151.6150 C   0  0  1  0  0  3  0  0  0  0  0  0
  161.0470  204.6180  148.2440 C   0  0  2  0  0  3  0  0  0  0  0  0
  161.4890  200.9030  149.6700 O   0  0  0  0  0  0  0  0  0  0  0  0
  161.0100  206.4920  151.5370 C   0  0  1  0  0  3  0  0  0  0  0  0
  163.2080  200.5210  148.2530 F   0  0  0  0  0  0  0  0  0  0  0  0
  161.6640  206.8590  147.1380 C   0  0  2  0  0  3  0  0  0  0  0  0
  162.0100  205.3570  147.2980 C   0  0  2  0  0  3  0  0  0  0  0  0
  161.9250  205.6230  152.3880 C   0  0  0  0  0  2  0  0  0  0  0  0
  162.3750  208.4460  151.3460 C   0  0  0  0  0  2  0  0  0  0  0  0
  161.1520  207.9010  151.9360 N   0  0  2  0  0  0  0  0  0  0  0  0
  161.1830  208.0490  153.4000 C   0  0  0  0  0  2  0  0  0  0  0  0
  161.1450  209.8780  154.9400 O   0  0  0  0  0  0  0  0  0  0  0  0
  162.1710  210.3290  152.8970 N   0  0  0  0  0  2  0  0  0  0  0  0
  161.4600  209.4690  153.7920 C   0  0  0  0  0  0  0  0  0  0  0  0
  162.3750  209.9620  151.4990 C   0  0  0  0  0  2  0  0  0  0  0  0
  162.0350  204.7300  145.9050 C   0  0  1  0  0  3  0  0  0  0  0  0
  160.6660  204.3770  145.4880 N   0  0  0  0  0  0  0  0  0  0  0  0
  161.3370  205.5950  144.9570 C   0  0  2  0  0  3  0  0  0  0  0  0
  161.9560  205.4530  143.5670 C   0  0  0  0  0  2  0  0  0  0  0  0
  161.2310  206.2030  142.6610 F   0  0  0  0  0  0  0  0  0  0  0  0
  159.7400  202.3250  144.8860 O   0  0  0  0  0  1  0  0  0  0  0  0
  160.7880  203.2050  144.6250 C   0  0  0  0  0  2  0  0  0  0  0  0
  1 18  1  0  0  0  0
  2 16  1  0  0  0  0
  3  7  1  0  0  0  0
  4  8  1  0  0  0  0
  5  7  1  0  0  0  0
  5  2  1  0  0  0  0
  6  4  1  0  0  0  0
  6  2  1  0  0  0  0
  7 19  1  0  0  0  0
  8 12  1  0  0  0  0
  9 13  1  0  0  0  0
  9 17  1  0  0  0  0
  9  6  1  0  0  0  0
 10  1  1  0  0  0  0
 13  1  1  0  0  0  0
 14 15  1  0  0  0  0
 15  3  1  0  0  0  0
 16 12  1  0  0  0  0
 16 11  1  0  0  0  0
 17  5  1  0  0  0  0
 18  4  1  0  0  0  0
 19 25  1  0  0  0  0
 19 23  1  0  0  0  0
 20  1  1  0  0  0  0
 21 22  1  0  0  0  0
 21 14  1  0  0  0  0
 21 15  1  0  0  0  0
 22 17  1  0  0  0  0
 23 11  1  0  0  0  0
 24 30  1  0  0  0  0
 24 25  1  0  0  0  0
 25 26  1  0  0  0  0
 26 29  1  0  0  0  0
 28 29  1  0  0  0  0
 29 27  2  0  0  0  0
 30 28  1  0  0  0  0
 31 22  1  0  0  0  0
 32 31  1  0  0  0  0
 33 32  1  0  0  0  0
 33 31  1  0  0  0  0
 34 33  1  0  0  0  0
 35 34  1  0  0  0  0
 37 36  1  0  0  0  0
 37 32  1  0  0  0  0
M  END
>  <MODEL>
4

>  <REMARK>
 VINA RESULT:      -5.9      3.019      5.081
  Name = 
  4 active torsions:
  status: ('A' for Active; 'I' for Inactive)
    1  A    between atoms: C_1  and  C_27
    2  A    between atoms: N_4  and  C_37
    3  A    between atoms: C_8  and  C_12
    4  A    between atoms: C_23  and  N_30
                            x       y       z     vdW  Elec       q    Type
                         _______ _______ _______ _____ _____    ______ ____

>  <TORSDO>
F 4

$$$$
=
 OpenBabel11122413593D

 37 44  0  0  1  0  0  0  0  0999 V2000
  159.7640  211.2790  153.5190 C   0  0  0  0  0  0  0  0  0  0  0  0
  161.7030  208.4230  152.0370 C   0  0  1  0  0  3  0  0  0  0  0  0
  162.9370  208.5970  149.0960 O   0  0  0  0  0  0  0  0  0  0  0  0
  161.3050  209.7460  154.2600 C   0  0  2  0  0  3  0  0  0  0  0  0
  161.2230  208.8800  150.7240 N   0  0  2  0  0  0  0  0  0  0  0  0
  161.9410  209.7020  152.8670 C   0  0  2  0  0  3  0  0  0  0  0  0
  161.7240  208.0800  149.5880 C   0  0  2  0  0  3  0  0  0  0  0  0
  161.5150  208.4070  154.9440 C   0  0  0  0  0  2  0  0  0  0  0  0
  161.4690  210.8610  152.0030 C   0  0  2  0  0  3  0  0  0  0  0  0
  160.5180  212.3050  154.0830 F   0  0  0  0  0  0  0  0  0  0  0  0
  160.7400  206.0660  152.0400 C   0  0  0  0  0  2  0  0  0  0  0  0
  160.8500  207.2540  154.1860 C   0  0  0  0  0  2  0  0  0  0  0  0
  160.0810  211.0960  152.1560 O   0  0  0  0  0  0  0  0  0  0  0  0
  161.3930  209.5390  147.5140 O   0  0  0  0  0  0  0  0  0  0  0  0
  162.7390  209.3640  147.9110 C   0  0  1  0  0  3  0  0  0  0  0  0
  160.6780  207.4550  152.6710 C   0  0  1  0  0  3  0  0  0  0  0  0
  161.7120  210.2570  150.6380 C   0  0  2  0  0  3  0  0  0  0  0  0
  159.9320  210.0650  154.2200 O   0  0  0  0  0  0  0  0  0  0  0  0
  161.7800  206.5550  149.8370 C   0  0  1  0  0  3  0  0  0  0  0  0
  158.4350  211.6430  153.6040 F   0  0  0  0  0  0  0  0  0  0  0  0
  161.9970  210.6650  148.1130 C   0  0  2  0  0  3  0  0  0  0  0  0
  161.1880  210.9940  149.3930 C   0  0  2  0  0  3  0  0  0  0  0  0
  160.5170  206.0710  150.5370 C   0  0  0  0  0  2  0  0  0  0  0  0
  161.4280  206.4480  147.4750 C   0  0  0  0  0  2  0  0  0  0  0  0
  162.0110  205.7540  148.6240 N   0  0  2  0  0  0  0  0  0  0  0  0
  161.4400  204.4040  148.7480 C   0  0  0  0  0  2  0  0  0  0  0  0
  161.5070  202.3880  147.4640 O   0  0  0  0  0  0  0  0  0  0  0  0
  161.6490  204.3550  146.2220 N   0  0  0  0  0  2  0  0  0  0  0  0
  161.5640  203.6450  147.4620 C   0  0  0  0  0  0  0  0  0  0  0  0
  161.9170  205.7890  146.1900 C   0  0  0  0  0  2  0  0  0  0  0  0
  161.2020  212.5100  149.5790 C   0  0  1  0  0  3  0  0  0  0  0  0
  160.9710  213.1770  148.2850 N   0  0  0  0  0  0  0  0  0  0  0  0
  159.8790  213.0590  149.2890 C   0  0  2  0  0  3  0  0  0  0  0  0
  159.6320  214.3030  150.1420 C   0  0  0  0  0  2  0  0  0  0  0  0
  160.3260  214.1910  151.3320 F   0  0  0  0  0  0  0  0  0  0  0  0
  163.0260  214.2330  147.9740 O   0  0  0  0  0  1  0  0  0  0  0  0
  161.6980  214.4430  148.3400 C   0  0  0  0  0  2  0  0  0  0  0  0
  1 20  1  0  0  0  0
  1 10  1  0  0  0  0
  1 18  1  0  0  0  0
  2 16  1  0  0  0  0
  2  6  1  0  0  0  0
  3  7  1  0  0  0  0
  4  8  1  0  0  0  0
  5  2  1  0  0  0  0
  6  4  1  0  0  0  0
  7 19  1  0  0  0  0
  7  5  1  0  0  0  0
  9 13  1  0  0  0  0
  9  6  1  0  0  0  0
 11 16  1  0  0  0  0
 12  8  1  0  0  0  0
 13  1  1  0  0  0  0
 14 15  1  0  0  0  0
 14 21  1  0  0  0  0
 15 21  1  0  0  0  0
 15  3  1  0  0  0  0
 16 12  1  0  0  0  0
 17  5  1  0  0  0  0
 17  9  1  0  0  0  0
 18  4  1  0  0  0  0
 19 23  1  0  0  0  0
 21 22  1  0  0  0  0
 22 31  1  0  0  0  0
 22 17  1  0  0  0  0
 23 11  1  0  0  0  0
 24 25  1  0  0  0  0
 25 26  1  0  0  0  0
 25 19  1  0  0  0  0
 28 29  1  0  0  0  0
 29 27  2  0  0  0  0
 29 26  1  0  0  0  0
 30 28  1  0  0  0  0
 30 24  1  0  0  0  0
 32 37  1  0  0  0  0
 32 33  1  0  0  0  0
 32 31  1  0  0  0  0
 33 31  1  0  0  0  0
 33 34  1  0  0  0  0
 34 35  1  0  0  0  0
 36 37  1  0  0  0  0
M  END
>  <MODEL>
5

>  <REMARK>
 VINA RESULT:      -5.1      3.140      6.357
  Name = 
  4 active torsions:
  status: ('A' for Active; 'I' for Inactive)
    1  A    between atoms: C_1  and  C_27
    2  A    between atoms: N_4  and  C_37
    3  A    between atoms: C_8  and  C_12
    4  A    between atoms: C_23  and  N_30
                            x       y       z     vdW  Elec       q    Type
                         _______ _______ _______ _____ _____    ______ ____

>  <TORSDO>
F 4

$$$$
=
 OpenBabel11122413593D

 37 44  0  0  1  0  0  0  0  0999 V2000
  160.5830  206.3940  146.9310 C   0  0  0  0  0  0  0  0  0  0  0  0
  162.1150  207.4410  150.1980 C   0  0  1  0  0  3  0  0  0  0  0  0
  162.1870  205.4700  152.7110 O   0  0  0  0  0  0  0  0  0  0  0  0
  162.4220  207.5950  147.6040 C   0  0  2  0  0  3  0  0  0  0  0  0
  161.1540  206.5360  150.8490 N   0  0  2  0  0  0  0  0  0  0  0  0
  162.5160  206.7500  148.8780 C   0  0  2  0  0  3  0  0  0  0  0  0
  161.2860  206.4770  152.3190 C   0  0  2  0  0  3  0  0  0  0  0  0
  162.9860  208.9760  147.8820 C   0  0  0  0  0  2  0  0  0  0  0  0
  161.6590  205.4970  148.7790 C   0  0  2  0  0  3  0  0  0  0  0  0
  161.3910  205.6320  146.0920 F   0  0  0  0  0  0  0  0  0  0  0  0
  161.4390  209.6350  151.3000 C   0  0  0  0  0  2  0  0  0  0  0  0
  162.2030  209.7190  148.9670 C   0  0  0  0  0  2  0  0  0  0  0  0
  160.4040  205.7660  148.1820 O   0  0  0  0  0  0  0  0  0  0  0  0
  160.0970  204.3280  153.0340 O   0  0  0  0  0  0  0  0  0  0  0  0
  161.5060  204.2980  153.1540 C   0  0  1  0  0  3  0  0  0  0  0  0
  161.4800  208.8360  149.9990 C   0  0  1  0  0  3  0  0  0  0  0  0
  161.4510  205.2330  150.2530 C   0  0  2  0  0  3  0  0  0  0  0  0
  161.1040  207.6930  147.1140 O   0  0  0  0  0  0  0  0  0  0  0  0
  161.5670  207.8330  153.0060 C   0  0  1  0  0  3  0  0  0  0  0  0
  159.3450  206.5080  146.3300 F   0  0  0  0  0  0  0  0  0  0  0  0
  160.7690  203.5430  152.0720 C   0  0  2  0  0  3  0  0  0  0  0  0
  160.4490  204.1460  150.6810 C   0  0  2  0  0  3  0  0  0  0  0  0
  160.6920  208.9320  152.4200 C   0  0  0  0  0  2  0  0  0  0  0  0
  160.1060  207.2610  154.8100 C   0  0  0  0  0  2  0  0  0  0  0  0
  161.4200  207.8100  154.4700 N   0  0  2  0  0  0  0  0  0  0  0  0
  161.5780  209.1510  155.0520 C   0  0  0  0  0  2  0  0  0  0  0  0
  161.7430  210.0540  157.2610 O   0  0  0  0  0  0  0  0  0  0  0  0
  160.4340  208.1350  157.0730 N   0  0  0  0  0  2  0  0  0  0  0  0
  161.2950  209.1370  156.5240 C   0  0  0  0  0  0  0  0  0  0  0  0
  160.0620  206.9540  156.3020 C   0  0  0  0  0  2  0  0  0  0  0  0
  160.3880  202.9970  149.6760 C   0  0  1  0  0  3  0  0  0  0  0  0
  161.6950  202.3190  149.6080 N   0  0  0  0  0  0  0  0  0  0  0  0
  160.5610  201.7210  150.3650 C   0  0  2  0  0  3  0  0  0  0  0  0
  159.7870  200.6240  149.6360 C   0  0  0  0  0  2  0  0  0  0  0  0
  158.4960  201.0540  149.3940 F   0  0  0  0  0  0  0  0  0  0  0  0
  161.2070  202.7020  147.3610 O   0  0  0  0  0  1  0  0  0  0  0  0
  161.8280  201.8190  148.2420 C   0  0  0  0  0  2  0  0  0  0  0  0
  1 18  1  0  0  0  0
  1 13  1  0  0  0  0
  2  5  1  0  0  0  0
  3 15  1  0  0  0  0
  4  8  1  0  0  0  0
  4  6  1  0  0  0  0
  5  7  1  0  0  0  0
  6  2  1  0  0  0  0
  7  3  1  0  0  0  0
  7 19  1  0  0  0  0
  8 12  1  0  0  0  0
  9  6  1  0  0  0  0
  9 17  1  0  0  0  0
 10  1  1  0  0  0  0
 11 23  1  0  0  0  0
 12 16  1  0  0  0  0
 13  9  1  0  0  0  0
 14 15  1  0  0  0  0
 16  2  1  0  0  0  0
 16 11  1  0  0  0  0
 17 22  1  0  0  0  0
 17  5  1  0  0  0  0
 18  4  1  0  0  0  0
 19 25  1  0  0  0  0
 20  1  1  0  0  0  0
 21 14  1  0  0  0  0
 21 15  1  0  0  0  0
 22 21  1  0  0  0  0
 23 19  1  0  0  0  0
 24 30  1  0  0  0  0
 25 24  1  0  0  0  0
 25 26  1  0  0  0  0
 26 29  1  0  0  0  0
 29 28  1  0  0  0  0
 29 27  2  0  0  0  0
 30 28  1  0  0  0  0
 31 33  1  0  0  0  0
 31 22  1  0  0  0  0
 32 31  1  0  0  0  0
 32 33  1  0  0  0  0
 34 33  1  0  0  0  0
 35 34  1  0  0  0  0
 36 37  1  0  0  0  0
 37 32  1  0  0  0  0
M  END
>  <MODEL>
6

>  <REMARK>
 VINA RESULT:      -5.0      2.445      5.610
  Name = 
  4 active torsions:
  status: ('A' for Active; 'I' for Inactive)
    1  A    between atoms: C_1  and  C_27
    2  A    between atoms: N_4  and  C_37
    3  A    between atoms: C_8  and  C_12
    4  A    between atoms: C_23  and  N_30
                            x       y       z     vdW  Elec       q    Type
                         _______ _______ _______ _____ _____    ______ ____

>  <TORSDO>
F 4

$$$$
