=
 OpenBabel11122414423D

 34 40  0  0  1  0  0  0  0  0999 V2000
  161.1850  207.9950  154.2040 N   0  0  1  0  0  0  0  0  0  0  0  0
  162.3630  206.1730  152.9350 C   0  0  0  0  0  2  0  0  0  0  0  0
  157.3740  213.1690  153.8770 C   0  0  1  0  0  3  0  0  0  0  0  0
  159.8210  209.7270  155.2870 C   0  0  2  0  0  3  0  0  0  0  0  0
  159.5970  211.8160  153.9540 C   0  0  2  0  0  3  0  0  0  0  0  0
  159.3390  213.8720  152.4760 C   0  0  0  0  0  1  0  0  0  0  0  0
  156.8030  212.1230  153.1710 F   0  0  0  0  0  0  0  0  0  0  0  0
  157.2170  211.8550  156.0600 C   0  0  0  0  0  2  0  0  0  0  0  0
  162.1200  208.3240  152.0010 C   0  0  2  0  0  3  0  0  0  0  0  0
  161.6520  208.7390  148.8540 C   0  0  0  0  0  2  0  0  0  0  0  0
  159.7500  211.1120  152.7410 O   0  0  0  0  0  0  0  0  0  0  0  0
  158.5970  211.6250  156.1510 O   0  0  0  0  0  0  0  0  0  0  0  0
  161.1700  209.4740  151.6540 C   0  0  1  0  0  3  0  0  0  0  0  0
  162.8660  206.0790  151.4960 C   0  0  0  0  0  2  0  0  0  0  0  0
  158.9050  210.9110  154.9900 C   0  0  2  0  0  3  0  0  0  0  0  0
  156.9260  213.1740  155.3420 C   0  0  0  0  0  2  0  0  0  0  0  0
  161.7670  207.4060  149.6190 C   0  0  1  0  0  3  0  0  0  0  0  0
  160.2110  209.0730  153.9570 C   0  0  1  0  0  3  0  0  0  0  0  0
  158.9010  213.1790  153.7550 C   0  0  1  0  0  3  0  0  0  0  0  0
  160.7480  210.1420  152.9710 C   0  0  2  0  0  3  0  0  0  0  0  0
  160.1030  207.7670  156.3950 C   0  0  0  0  0  2  0  0  0  0  0  0
  162.4570  209.8930  149.4600 C   0  0  0  0  0  2  0  0  0  0  0  0
  159.1630  208.7760  156.0900 O   0  0  0  0  0  0  0  0  0  0  0  0
  161.8010  210.5000  150.7070 C   0  0  0  0  0  2  0  0  0  0  0  0
  162.6720  207.4630  150.8700 C   0  0  1  0  0  3  0  0  0  0  0  0
  160.5440  207.0400  155.1140 C   0  0  0  0  0  2  0  0  0  0  0  0
  161.4140  207.3520  152.9100 C   0  0  2  0  0  3  0  0  0  0  0  0
  160.4870  206.9400  149.9430 O   0  0  0  0  0  0  0  0  0  0  0  0
  160.1120  206.1270  148.8710 C   0  0  0  0  0  2  0  0  0  0  0  0
  161.3150  202.8800  148.0650 C   0  0  0  0  0  2  0  0  0  0  0  0
  161.4170  204.9860  147.1030 C   0  0  0  0  0  2  0  0  0  0  0  0
  161.2050  205.1120  148.5900 C   0  0  2  0  0  3  0  0  0  0  0  0
  161.4000  203.5690  146.7850 N   0  0  0  0  0  2  0  0  0  0  0  0
  160.8070  203.8030  149.0660 N   0  0  0  0  0  2  0  0  0  0  0  0
  1 26  1  1  0  0  0
  3  7  1  1  0  0  0
  3 16  1  0  0  0  0
  4 23  1  1  0  0  0
  5 11  1  6  0  0  0
  5 15  1  0  0  0  0
  6 19  1  0  0  0  0
  8 12  1  0  0  0  0
  9 27  1  0  0  0  0
 10 22  1  0  0  0  0
 10 17  1  0  0  0  0
 11 20  1  0  0  0  0
 13  9  1  0  0  0  0
 13 20  1  0  0  0  0
 14  2  1  0  0  0  0
 15  4  1  0  0  0  0
 15 12  1  0  0  0  0
 16  8  1  0  0  0  0
 17 28  1  0  0  0  0
 17 25  1  0  0  0  0
 18  1  1  0  0  0  0
 18  4  1  0  0  0  0
 19  3  1  0  0  0  0
 19  5  1  0  0  0  0
 20 18  1  0  0  0  0
 22 24  1  0  0  0  0
 23 21  1  0  0  0  0
 24 13  1  0  0  0  0
 25 14  1  0  0  0  0
 25  9  1  0  0  0  0
 26 21  1  0  0  0  0
 27  2  1  0  0  0  0
 27  1  1  0  0  0  0
 29 28  1  0  0  0  0
 30 34  1  0  0  0  0
 31 32  1  0  0  0  0
 32 29  1  0  0  0  0
 32 34  1  0  0  0  0
 33 31  1  0  0  0  0
 33 30  1  0  0  0  0
M  END
>  <MODEL>
1

>  <REMARK>
 VINA RESULT:      -7.2      0.000      0.000
  Name = 
  3 active torsions:
  status: ('A' for Active; 'I' for Inactive)
    1  A    between atoms: C_17  and  O_28
    2  A    between atoms: O_28  and  C_29
    3  A    between atoms: C_29  and  C_32
                            x       y       z     vdW  Elec       q    Type
                         _______ _______ _______ _____ _____    ______ ____

>  <TORSDO>
F 3

$$$$
=
 OpenBabel11122414423D

 34 40  0  0  1  0  0  0  0  0999 V2000
  161.8720  209.8670  152.2620 N   0  0  1  0  0  0  0  0  0  0  0  0
  161.4190  211.5410  154.0820 C   0  0  0  0  0  2  0  0  0  0  0  0
  160.5410  204.0460  149.8670 C   0  0  1  0  0  3  0  0  0  0  0  0
  162.0490  208.1900  150.4760 C   0  0  2  0  0  3  0  0  0  0  0  0
  161.8000  205.8430  151.2660 C   0  0  2  0  0  3  0  0  0  0  0  0
  161.4320  203.4850  152.1500 C   0  0  0  0  0  1  0  0  0  0  0  0
  159.3620  204.7290  150.1150 F   0  0  0  0  0  0  0  0  0  0  0  0
  161.2510  205.7830  148.1370 C   0  0  0  0  0  2  0  0  0  0  0  0
  161.4070  209.2300  154.5460 C   0  0  2  0  0  3  0  0  0  0  0  0
  159.3780  207.9620  156.6840 C   0  0  0  0  0  2  0  0  0  0  0  0
  160.9820  206.2450  152.3430 O   0  0  0  0  0  0  0  0  0  0  0  0
  162.2580  206.3350  148.9400 O   0  0  0  0  0  0  0  0  0  0  0  0
  160.8760  207.8450  154.1620 C   0  0  1  0  0  3  0  0  0  0  0  0
  160.9330  211.3920  155.5220 C   0  0  0  0  0  2  0  0  0  0  0  0
  161.5830  206.7940  150.0740 C   0  0  2  0  0  3  0  0  0  0  0  0
  161.0530  204.2970  148.4460 C   0  0  0  0  0  2  0  0  0  0  0  0
  159.4660  209.4330  156.2280 C   0  0  1  0  0  3  0  0  0  0  0  0
  161.3570  208.5700  151.7900 C   0  0  1  0  0  3  0  0  0  0  0  0
  161.6140  204.3520  150.9150 C   0  0  1  0  0  3  0  0  0  0  0  0
  161.5410  207.4420  152.8380 C   0  0  2  0  0  3  0  0  0  0  0  0
  162.2530  210.3730  149.8910 C   0  0  0  0  0  2  0  0  0  0  0  0
  160.7090  207.2050  156.6540 C   0  0  0  0  0  2  0  0  0  0  0  0
  161.7080  209.1340  149.4890 O   0  0  0  0  0  0  0  0  0  0  0  0
  161.1390  206.7900  155.2420 C   0  0  0  0  0  2  0  0  0  0  0  0
  160.8830  209.8900  155.8160 C   0  0  1  0  0  3  0  0  0  0  0  0
  161.6040  210.8450  151.2020 C   0  0  0  0  0  2  0  0  0  0  0  0
  161.0840  210.2090  153.4470 C   0  0  2  0  0  3  0  0  0  0  0  0
  158.5430  209.6610  155.2000 O   0  0  0  0  0  0  0  0  0  0  0  0
  157.7310  210.6990  155.6620 C   0  0  0  0  0  2  0  0  0  0  0  0
  155.8540  213.2670  154.0740 C   0  0  0  0  0  2  0  0  0  0  0  0
  157.8640  212.1830  153.6840 C   0  0  0  0  0  2  0  0  0  0  0  0
  156.9570  211.3000  154.5020 C   0  0  2  0  0  3  0  0  0  0  0  0
  157.1780  213.4490  153.4970 N   0  0  0  0  0  2  0  0  0  0  0  0
  155.8900  212.1450  154.9980 N   0  0  0  0  0  2  0  0  0  0  0  0
  1 26  1  6  0  0  0
  1 27  1  0  0  0  0
  2 14  1  0  0  0  0
  3  7  1  1  0  0  0
  3 19  1  0  0  0  0
  4 23  1  6  0  0  0
  4 18  1  0  0  0  0
  5 11  1  1  0  0  0
  8 16  1  0  0  0  0
  8 12  1  0  0  0  0
  9 25  1  0  0  0  0
 11 20  1  0  0  0  0
 12 15  1  0  0  0  0
 13  9  1  0  0  0  0
 13 24  1  0  0  0  0
 14 25  1  0  0  0  0
 15  4  1  0  0  0  0
 15  5  1  0  0  0  0
 16  3  1  0  0  0  0
 17 10  1  0  0  0  0
 18  1  1  0  0  0  0
 18 20  1  0  0  0  0
 19  5  1  0  0  0  0
 19  6  1  0  0  0  0
 20 13  1  0  0  0  0
 21 26  1  0  0  0  0
 22 10  1  0  0  0  0
 23 21  1  0  0  0  0
 24 22  1  0  0  0  0
 25 17  1  0  0  0  0
 27  2  1  0  0  0  0
 27  9  1  0  0  0  0
 28 29  1  0  0  0  0
 28 17  1  0  0  0  0
 30 34  1  0  0  0  0
 31 32  1  0  0  0  0
 32 34  1  0  0  0  0
 32 29  1  0  0  0  0
 33 31  1  0  0  0  0
 33 30  1  0  0  0  0
M  END
>  <MODEL>
2

>  <REMARK>
 VINA RESULT:      -6.3      2.756      8.000
  Name = 
  3 active torsions:
  status: ('A' for Active; 'I' for Inactive)
    1  A    between atoms: C_17  and  O_28
    2  A    between atoms: O_28  and  C_29
    3  A    between atoms: C_29  and  C_32
                            x       y       z     vdW  Elec       q    Type
                         _______ _______ _______ _____ _____    ______ ____

>  <TORSDO>
F 3

$$$$
=
 OpenBabel11122414423D

 34 40  0  0  1  0  0  0  0  0999 V2000
  161.8570  213.5900  142.6910 N   0  0  1  0  0  0  0  0  0  0  0  0
  162.6550  213.0160  140.3770 C   0  0  0  0  0  2  0  0  0  0  0  0
  157.0670  213.2090  146.9700 C   0  0  1  0  0  3  0  0  0  0  0  0
  160.9820  213.8990  144.9650 C   0  0  2  0  0  3  0  0  0  0  0  0
  158.5170  214.2270  145.0630 C   0  0  2  0  0  3  0  0  0  0  0  0
  155.9820  214.4510  145.0730 C   0  0  0  0  0  1  0  0  0  0  0  0
  157.3320  211.9520  146.4520 F   0  0  0  0  0  0  0  0  0  0  0  0
  159.4050  213.3460  147.9840 C   0  0  0  0  0  2  0  0  0  0  0  0
  160.3880  213.5290  140.7740 C   0  0  2  0  0  3  0  0  0  0  0  0
  158.0320  212.0600  139.1650 C   0  0  0  0  0  2  0  0  0  0  0  0
  158.3250  213.4730  143.8860 O   0  0  0  0  0  0  0  0  0  0  0  0
  159.8660  214.3050  147.0710 O   0  0  0  0  0  0  0  0  0  0  0  0
  159.1350  213.2520  141.6110 C   0  0  1  0  0  3  0  0  0  0  0  0
  161.9130  212.7400  139.0710 C   0  0  0  0  0  2  0  0  0  0  0  0
  159.7400  213.6850  145.8260 C   0  0  2  0  0  3  0  0  0  0  0  0
  157.9010  213.4930  148.2220 C   0  0  0  0  0  2  0  0  0  0  0  0
  159.5480  211.7930  139.0650 C   0  0  1  0  0  3  0  0  0  0  0  0
  160.7180  213.2990  143.5800 C   0  0  1  0  0  3  0  0  0  0  0  0
  157.2360  214.3100  145.9190 C   0  0  1  0  0  3  0  0  0  0  0  0
  159.3750  213.8290  143.0140 C   0  0  2  0  0  3  0  0  0  0  0  0
  163.2170  213.5850  144.7340 C   0  0  0  0  0  2  0  0  0  0  0  0
  157.6610  213.5060  139.5110 C   0  0  0  0  0  2  0  0  0  0  0  0
  162.1000  213.2610  145.5350 O   0  0  0  0  0  0  0  0  0  0  0  0
  157.8660  213.8470  140.9920 C   0  0  0  0  0  2  0  0  0  0  0  0
  160.4330  213.0310  139.3340 C   0  0  1  0  0  3  0  0  0  0  0  0
  163.0480  213.0080  143.3190 C   0  0  0  0  0  2  0  0  0  0  0  0
  161.5810  212.8900  141.4360 C   0  0  2  0  0  3  0  0  0  0  0  0
  159.8930  210.7320  139.9100 O   0  0  0  0  0  0  0  0  0  0  0  0
  159.7830  209.5850  139.1200 C   0  0  0  0  0  2  0  0  0  0  0  0
  162.1160  206.9410  138.6720 C   0  0  0  0  0  2  0  0  0  0  0  0
  161.2840  208.6720  137.3750 C   0  0  0  0  0  2  0  0  0  0  0  0
  161.1640  209.0230  138.8360 C   0  0  2  0  0  3  0  0  0  0  0  0
  161.8110  207.3210  137.3000 N   0  0  0  0  0  2  0  0  0  0  0  0
  161.3660  207.7950  139.5780 N   0  0  0  0  0  2  0  0  0  0  0  0
  1 26  1  1  0  0  0
  1 18  1  0  0  0  0
  2 27  1  0  0  0  0
  3  7  1  6  0  0  0
  3 16  1  0  0  0  0
  4 23  1  1  0  0  0
  4 15  1  0  0  0  0
  5 11  1  6  0  0  0
  5 15  1  0  0  0  0
  5 19  1  0  0  0  0
  6 19  1  0  0  0  0
  8 16  1  0  0  0  0
  9 27  1  0  0  0  0
  9 13  1  0  0  0  0
 10 22  1  0  0  0  0
 12  8  1  0  0  0  0
 13 20  1  0  0  0  0
 14 25  1  0  0  0  0
 14  2  1  0  0  0  0
 15 12  1  0  0  0  0
 17 10  1  0  0  0  0
 17 25  1  0  0  0  0
 17 28  1  0  0  0  0
 18  4  1  0  0  0  0
 19  3  1  0  0  0  0
 20 18  1  0  0  0  0
 20 11  1  0  0  0  0
 21 23  1  0  0  0  0
 22 24  1  0  0  0  0
 24 13  1  0  0  0  0
 25  9  1  0  0  0  0
 26 21  1  0  0  0  0
 27  1  1  0  0  0  0
 29 28  1  0  0  0  0
 30 34  1  0  0  0  0
 31 32  1  0  0  0  0
 32 29  1  0  0  0  0
 32 34  1  0  0  0  0
 33 31  1  0  0  0  0
 33 30  1  0  0  0  0
M  END
>  <MODEL>
3

>  <REMARK>
 VINA RESULT:      -6.0      8.615     10.865
  Name = 
  3 active torsions:
  status: ('A' for Active; 'I' for Inactive)
    1  A    between atoms: C_17  and  O_28
    2  A    between atoms: O_28  and  C_29
    3  A    between atoms: C_29  and  C_32
                            x       y       z     vdW  Elec       q    Type
                         _______ _______ _______ _____ _____    ______ ____

>  <TORSDO>
F 3

$$$$
=
 OpenBabel11122414423D

 34 40  0  0  1  0  0  0  0  0999 V2000
  161.8430  209.5970  151.7370 N   0  0  1  0  0  0  0  0  0  0  0  0
  161.4170  211.4710  153.3570 C   0  0  0  0  0  2  0  0  0  0  0  0
  160.4370  203.5580  150.0210 C   0  0  1  0  0  3  0  0  0  0  0  0
  161.9930  207.7270  150.1510 C   0  0  2  0  0  3  0  0  0  0  0  0
  161.7230  205.4880  151.2020 C   0  0  2  0  0  3  0  0  0  0  0  0
  161.3340  203.2490  152.3490 C   0  0  0  0  0  1  0  0  0  0  0  0
  159.2670  204.2780  150.1940 F   0  0  0  0  0  0  0  0  0  0  0  0
  161.1570  205.0800  148.1020 C   0  0  0  0  0  2  0  0  0  0  0  0
  161.3820  209.2270  154.0800 C   0  0  2  0  0  3  0  0  0  0  0  0
  159.3510  208.2320  156.3550 C   0  0  0  0  0  2  0  0  0  0  0  0
  160.9150  206.0170  152.2310 O   0  0  0  0  0  0  0  0  0  0  0  0
  162.1740  205.7080  148.8340 O   0  0  0  0  0  0  0  0  0  0  0  0
  160.8350  207.8140  153.8570 C   0  0  1  0  0  3  0  0  0  0  0  0
  160.9370  211.4910  154.8070 C   0  0  0  0  0  2  0  0  0  0  0  0
  161.5100  206.2990  149.9110 C   0  0  2  0  0  3  0  0  0  0  0  0
  160.9450  203.6410  148.5780 C   0  0  0  0  0  2  0  0  0  0  0  0
  159.4520  209.6410  155.7360 C   0  0  1  0  0  3  0  0  0  0  0  0
  161.3110  208.2600  151.4160 C   0  0  1  0  0  3  0  0  0  0  0  0
  161.5190  203.9680  151.0230 C   0  0  1  0  0  3  0  0  0  0  0  0
  161.4890  207.2570  152.5840 C   0  0  2  0  0  3  0  0  0  0  0  0
  162.2170  209.8270  149.3220 C   0  0  0  0  0  2  0  0  0  0  0  0
  160.6740  207.4620  156.4060 C   0  0  0  0  0  2  0  0  0  0  0  0
  161.6560  208.5570  149.0650 O   0  0  0  0  0  0  0  0  0  0  0  0
  161.0920  206.8850  155.0480 C   0  0  0  0  0  2  0  0  0  0  0  0
  160.8730  210.0330  155.2690 C   0  0  1  0  0  3  0  0  0  0  0  0
  161.5790  210.4520  150.5740 C   0  0  0  0  0  2  0  0  0  0  0  0
  161.0650  210.0790  152.8780 C   0  0  2  0  0  3  0  0  0  0  0  0
  158.5260  209.7610  154.6930 O   0  0  0  0  0  0  0  0  0  0  0  0
  158.0500  211.0710  154.7760 C   0  0  0  0  0  2  0  0  0  0  0  0
  156.4680  213.0620  157.2610 C   0  0  0  0  0  2  0  0  0  0  0  0
  155.8920  211.2170  155.9820 C   0  0  0  0  0  2  0  0  0  0  0  0
  157.3910  211.2930  156.1250 C   0  0  2  0  0  3  0  0  0  0  0  0
  155.3380  212.3880  156.6370 N   0  0  0  0  0  2  0  0  0  0  0  0
  157.6950  212.6210  156.6190 N   0  0  0  0  0  2  0  0  0  0  0  0
  1 26  1  6  0  0  0
  1 27  1  0  0  0  0
  2 14  1  0  0  0  0
  3  7  1  6  0  0  0
  3 19  1  0  0  0  0
  4 23  1  6  0  0  0
  4 18  1  0  0  0  0
  5 11  1  1  0  0  0
  8 16  1  0  0  0  0
  8 12  1  0  0  0  0
  9 25  1  0  0  0  0
 10 22  1  0  0  0  0
 11 20  1  0  0  0  0
 12 15  1  0  0  0  0
 13  9  1  0  0  0  0
 13 24  1  0  0  0  0
 14 25  1  0  0  0  0
 15  4  1  0  0  0  0
 15  5  1  0  0  0  0
 16  3  1  0  0  0  0
 17 10  1  0  0  0  0
 18  1  1  0  0  0  0
 18 20  1  0  0  0  0
 19  5  1  0  0  0  0
 19  6  1  0  0  0  0
 20 13  1  0  0  0  0
 21 26  1  0  0  0  0
 23 21  1  0  0  0  0
 24 22  1  0  0  0  0
 25 17  1  0  0  0  0
 27  2  1  0  0  0  0
 27  9  1  0  0  0  0
 28 29  1  0  0  0  0
 28 17  1  0  0  0  0
 29 32  1  0  0  0  0
 31 32  1  0  0  0  0
 31 33  1  0  0  0  0
 32 34  1  0  0  0  0
 33 30  1  0  0  0  0
 34 30  1  0  0  0  0
M  END
>  <MODEL>
4

>  <REMARK>
 VINA RESULT:      -5.5      2.750      8.361
  Name = 
  3 active torsions:
  status: ('A' for Active; 'I' for Inactive)
    1  A    between atoms: C_17  and  O_28
    2  A    between atoms: O_28  and  C_29
    3  A    between atoms: C_29  and  C_32
                            x       y       z     vdW  Elec       q    Type
                         _______ _______ _______ _____ _____    ______ ____

>  <TORSDO>
F 3

$$$$
=
 OpenBabel11122414423D

 34 40  0  0  1  0  0  0  0  0999 V2000
  162.2030  207.9300  149.6430 N   0  0  1  0  0  0  0  0  0  0  0  0
  162.2330  210.2180  150.6830 C   0  0  0  0  0  2  0  0  0  0  0  0
  159.9360  201.9170  149.9560 C   0  0  1  0  0  3  0  0  0  0  0  0
  161.9080  205.6940  148.6680 C   0  0  2  0  0  3  0  0  0  0  0  0
  161.5820  203.8930  150.3530 C   0  0  2  0  0  3  0  0  0  0  0  0
  161.1550  202.1350  152.1430 C   0  0  0  0  0  1  0  0  0  0  0  0
  158.8880  202.8170  150.0530 F   0  0  0  0  0  0  0  0  0  0  0  0
  160.4920  202.7340  147.6020 C   0  0  0  0  0  2  0  0  0  0  0  0
  162.0860  208.2880  152.0290 C   0  0  2  0  0  3  0  0  0  0  0  0
  160.3510  208.2580  154.7280 C   0  0  0  0  0  2  0  0  0  0  0  0
  161.0060  204.7950  151.2730 O   0  0  0  0  0  0  0  0  0  0  0  0
  161.6710  203.3870  147.9870 O   0  0  0  0  0  0  0  0  0  0  0  0
  161.3690  206.9620  152.2990 C   0  0  1  0  0  3  0  0  0  0  0  0
  161.9940  210.7040  152.1110 C   0  0  0  0  0  2  0  0  0  0  0  0
  161.2510  204.3400  148.9180 C   0  0  2  0  0  3  0  0  0  0  0  0
  160.2140  201.5280  148.5010 C   0  0  0  0  0  2  0  0  0  0  0  0
  160.4960  209.4120  153.7160 C   0  0  1  0  0  3  0  0  0  0  0  0
  161.4940  206.6470  149.7950 C   0  0  1  0  0  3  0  0  0  0  0  0
  161.1990  202.4280  150.6530 C   0  0  1  0  0  3  0  0  0  0  0  0
  161.7520  205.9880  151.1750 C   0  0  2  0  0  3  0  0  0  0  0  0
  162.2100  207.4310  147.2390 C   0  0  0  0  0  2  0  0  0  0  0  0
  161.5810  207.3500  154.8390 C   0  0  0  0  0  2  0  0  0  0  0  0
  161.4890  206.2330  147.4360 O   0  0  0  0  0  0  0  0  0  0  0  0
  161.7160  206.3680  153.6690 C   0  0  0  0  0  2  0  0  0  0  0  0
  161.8560  209.4540  152.9840 C   0  0  1  0  0  3  0  0  0  0  0  0
  161.8470  208.4610  148.3230 C   0  0  0  0  0  2  0  0  0  0  0  0
  161.6700  208.8130  150.6800 C   0  0  2  0  0  3  0  0  0  0  0  0
  159.4330  209.3730  152.8060 O   0  0  0  0  0  0  0  0  0  0  0  0
  158.9410  210.6790  152.7620 C   0  0  0  0  0  2  0  0  0  0  0  0
  158.7260  213.3580  155.0880 C   0  0  0  0  0  2  0  0  0  0  0  0
  157.4940  211.4530  154.6160 C   0  0  0  0  0  2  0  0  0  0  0  0
  158.9190  211.2670  154.1610 C   0  0  2  0  0  3  0  0  0  0  0  0
  157.3780  212.8090  155.1230 N   0  0  0  0  0  2  0  0  0  0  0  0
  159.5310  212.5810  154.1600 N   0  0  0  0  0  2  0  0  0  0  0  0
  1 26  1  6  0  0  0
  1 18  1  0  0  0  0
  1 27  1  0  0  0  0
  2 14  1  0  0  0  0
  3  7  1  6  0  0  0
  3 19  1  0  0  0  0
  4 23  1  6  0  0  0
  4 15  1  0  0  0  0
  4 18  1  0  0  0  0
  5 19  1  0  0  0  0
  5 11  1  1  0  0  0
  8 12  1  0  0  0  0
  8 16  1  0  0  0  0
  9 13  1  0  0  0  0
  9 25  1  0  0  0  0
 10 22  1  0  0  0  0
 12 15  1  0  0  0  0
 13 24  1  0  0  0  0
 14 25  1  0  0  0  0
 15  5  1  0  0  0  0
 16  3  1  0  0  0  0
 17 10  1  0  0  0  0
 18 20  1  0  0  0  0
 19  6  1  0  0  0  0
 20 11  1  0  0  0  0
 20 13  1  0  0  0  0
 21 23  1  0  0  0  0
 21 26  1  0  0  0  0
 24 22  1  0  0  0  0
 25 17  1  0  0  0  0
 27  2  1  0  0  0  0
 27  9  1  0  0  0  0
 28 17  1  0  0  0  0
 29 28  1  0  0  0  0
 29 32  1  0  0  0  0
 30 33  1  0  0  0  0
 31 33  1  0  0  0  0
 32 31  1  0  0  0  0
 34 32  1  0  0  0  0
 34 30  1  0  0  0  0
M  END
>  <MODEL>
5

>  <REMARK>
 VINA RESULT:      -4.8      2.889      8.506
  Name = 
  3 active torsions:
  status: ('A' for Active; 'I' for Inactive)
    1  A    between atoms: C_17  and  O_28
    2  A    between atoms: O_28  and  C_29
    3  A    between atoms: C_29  and  C_32
                            x       y       z     vdW  Elec       q    Type
                         _______ _______ _______ _____ _____    ______ ____

>  <TORSDO>
F 3

$$$$
=
 OpenBabel11122414423D

 34 40  0  0  1  0  0  0  0  0999 V2000
  161.0050  211.8580  151.6770 N   0  0  1  0  0  0  0  0  0  0  0  0
  160.0170  213.5230  153.2790 C   0  0  0  0  0  2  0  0  0  0  0  0
  161.3200  205.6960  149.8510 C   0  0  1  0  0  3  0  0  0  0  0  0
  161.7250  210.1220  150.0930 C   0  0  2  0  0  3  0  0  0  0  0  0
  161.9910  207.8690  151.1160 C   0  0  2  0  0  3  0  0  0  0  0  0
  162.1370  205.5840  152.2260 C   0  0  0  0  0  1  0  0  0  0  0  0
  159.9950  206.0840  149.9590 F   0  0  0  0  0  0  0  0  0  0  0  0
  161.7220  207.3910  147.9860 C   0  0  0  0  0  2  0  0  0  0  0  0
  160.5290  211.3330  153.9870 C   0  0  2  0  0  3  0  0  0  0  0  0
  158.7050  209.7990  156.1350 C   0  0  0  0  0  2  0  0  0  0  0  0
  161.0170  208.1500  152.0980 O   0  0  0  0  0  0  0  0  0  0  0  0
  162.4980  208.2470  148.7790 O   0  0  0  0  0  0  0  0  0  0  0  0
  160.3820  209.8310  153.7260 C   0  0  1  0  0  3  0  0  0  0  0  0
  159.4700  213.3880  154.6980 C   0  0  0  0  0  2  0  0  0  0  0  0
  161.6450  208.6240  149.8190 C   0  0  2  0  0  3  0  0  0  0  0  0
  161.8670  205.9380  148.4410 C   0  0  0  0  0  2  0  0  0  0  0  0
  158.4700  211.1980  155.5290 C   0  0  1  0  0  3  0  0  0  0  0  0
  160.8590  210.4350  151.3190 C   0  0  1  0  0  3  0  0  0  0  0  0
  162.2000  206.3530  150.9180 C   0  0  1  0  0  3  0  0  0  0  0  0
  161.2280  209.4890  152.4900 C   0  0  2  0  0  3  0  0  0  0  0  0
  161.4390  212.2250  149.2890 C   0  0  0  0  0  2  0  0  0  0  0  0
  160.1780  209.3980  156.2590 C   0  0  0  0  0  2  0  0  0  0  0  0
  161.2440  210.8580  148.9930 O   0  0  0  0  0  0  0  0  0  0  0  0
  160.8070  208.9770  154.9250 C   0  0  0  0  0  2  0  0  0  0  0  0
  159.7620  211.9550  155.1490 C   0  0  1  0  0  3  0  0  0  0  0  0
  160.5930  212.6380  150.5050 C   0  0  0  0  0  2  0  0  0  0  0  0
  160.0670  212.0980  152.7730 C   0  0  2  0  0  3  0  0  0  0  0  0
  157.6030  211.0940  154.4350 O   0  0  0  0  0  0  0  0  0  0  0  0
  156.3310  210.9390  154.9890 C   0  0  0  0  0  2  0  0  0  0  0  0
  155.6330  214.4070  155.3440 C   0  0  0  0  0  2  0  0  0  0  0  0
  156.0810  212.9650  153.5870 C   0  0  0  0  0  2  0  0  0  0  0  0
  155.5100  212.1930  154.7490 C   0  0  2  0  0  3  0  0  0  0  0  0
  156.2250  214.3450  154.0160 N   0  0  0  0  0  2  0  0  0  0  0  0
  155.5810  213.0660  155.9030 N   0  0  0  0  0  2  0  0  0  0  0  0
  1 26  1  6  0  0  0
  1 27  1  0  0  0  0
  2 14  1  0  0  0  0
  3  7  1  6  0  0  0
  3 19  1  0  0  0  0
  4 23  1  6  0  0  0
  4 18  1  0  0  0  0
  5 11  1  1  0  0  0
  8 16  1  0  0  0  0
  8 12  1  0  0  0  0
  9 25  1  0  0  0  0
 10 22  1  0  0  0  0
 11 20  1  0  0  0  0
 12 15  1  0  0  0  0
 13  9  1  0  0  0  0
 13 24  1  0  0  0  0
 14 25  1  0  0  0  0
 15  4  1  0  0  0  0
 15  5  1  0  0  0  0
 16  3  1  0  0  0  0
 17 10  1  0  0  0  0
 18  1  1  0  0  0  0
 18 20  1  0  0  0  0
 19  5  1  0  0  0  0
 19  6  1  0  0  0  0
 20 13  1  0  0  0  0
 21 26  1  0  0  0  0
 23 21  1  0  0  0  0
 24 22  1  0  0  0  0
 25 17  1  0  0  0  0
 27  2  1  0  0  0  0
 27  9  1  0  0  0  0
 28 29  1  0  0  0  0
 28 17  1  0  0  0  0
 30 34  1  0  0  0  0
 31 33  1  0  0  0  0
 31 32  1  0  0  0  0
 32 29  1  0  0  0  0
 32 34  1  0  0  0  0
 33 30  1  0  0  0  0
M  END
>  <MODEL>
6

>  <REMARK>
 VINA RESULT:      -4.4      3.070      8.214
  Name = 
  3 active torsions:
  status: ('A' for Active; 'I' for Inactive)
    1  A    between atoms: C_17  and  O_28
    2  A    between atoms: O_28  and  C_29
    3  A    between atoms: C_29  and  C_32
                            x       y       z     vdW  Elec       q    Type
                         _______ _______ _______ _____ _____    ______ ____

>  <TORSDO>
F 3

$$$$
