=
 OpenBabel11122412333D

 30 35  0  0  1  0  0  0  0  0999 V2000
  161.2040  206.3380  150.5280 C   0  0  0  0  0  0  0  0  0  0  0  0
  160.9810  203.8860  150.4260 C   0  0  0  0  0  0  0  0  0  0  0  0
  160.8380  206.3050  154.7010 N   0  0  0  0  0  2  0  0  0  0  0  0
  161.3190  207.5040  151.3330 C   0  0  0  0  0  0  0  0  0  0  0  0
  161.1020  206.5130  149.0310 C   0  0  0  0  0  2  0  0  0  0  0  0
  162.3770  209.8940  148.7060 O   0  0  0  0  0  0  0  0  0  0  0  0
  160.1660  210.1780  152.0580 C   0  0  1  0  0  3  0  0  0  0  0  0
  162.0420  208.8220  149.2810 C   0  0  0  0  0  0  0  0  0  0  0  0
  160.0650  209.5230  153.4300 C   0  0  2  0  0  3  0  0  0  0  0  0
  160.9420  207.7410  154.9750 C   0  0  1  0  0  3  0  0  0  0  0  0
  161.9030  207.6200  148.5210 N   0  0  0  0  0  0  0  0  0  0  0  0
  161.9210  208.7770  150.7730 C   0  0  1  0  0  3  0  0  0  0  0  0
  160.9150  202.5430  151.1040 C   0  0  0  0  0  2  0  0  0  0  0  0
  160.2920  210.6650  154.3630 C   0  0  0  0  0  2  0  0  0  0  0  0
  159.7770  211.5260  152.1880 O   0  0  0  0  0  0  0  0  0  0  0  0
  161.0690  203.8670  149.0400 O   0  0  0  0  0  1  0  0  0  0  0  0
  160.9740  206.1630  153.2980 C   0  0  0  0  0  0  0  0  0  0  0  0
  160.5650  202.6380  152.4820 O   0  0  0  0  0  0  0  0  0  0  0  0
  161.0240  205.0460  151.1430 C   0  0  0  0  0  0  0  0  0  0  0  0
  161.1290  207.3720  152.7100 C   0  0  0  0  0  0  0  0  0  0  0  0
  162.2180  208.0180  155.7490 C   0  0  0  0  0  1  0  0  0  0  0  0
  160.9970  208.4170  153.6690 N   0  0  0  0  0  0  0  0  0  0  0  0
  159.7770  211.8400  153.5650 C   0  0  0  0  0  2  0  0  0  0  0  0
  162.5570  210.5330  152.2900 O   0  0  0  0  0  1  0  0  0  0  0  0
  160.6770  203.8290  153.1950 C   0  0  0  0  0  3  0  0  0  0  0  0
  160.9110  204.9820  152.5640 C   0  0  0  0  0  0  0  0  0  0  0  0
  161.5540  210.1210  151.4100 C   0  0  2  0  0  3  0  0  0  0  0  0
  162.2620  207.6090  147.2110 O   0  0  0  0  0  0  0  0  0  0  0  0
  162.4810  205.7420  145.7550 C   0  0  0  0  0  1  0  0  0  0  0  0
  161.5560  206.5450  146.6430 C   0  0  0  0  0  2  0  0  0  0  0  0
  1 19  1  0  0  0  0
  1  4  2  0  0  0  0
  2 13  1  0  0  0  0
  2 19  2  0  0  0  0
  3 10  1  0  0  0  0
  4 20  1  0  0  0  0
  5  1  1  0  0  0  0
  6  8  2  0  0  0  0
  7 15  1  1  0  0  0
  7  9  1  0  0  0  0
  9 22  1  0  0  0  0
  9 14  1  1  0  0  0
 10 21  1  1  0  0  0
 11  5  1  0  0  0  0
 11  8  1  0  0  0  0
 12  8  1  6  0  0  0
 12  4  1  0  0  0  0
 12 27  1  0  0  0  0
 13 18  1  0  0  0  0
 15 23  1  0  0  0  0
 16  2  1  0  0  0  0
 17  3  1  0  0  0  0
 18 25  1  0  0  0  0
 19 26  1  0  0  0  0
 20 17  2  0  0  0  0
 20 22  1  0  0  0  0
 22 10  1  0  0  0  0
 23 14  1  0  0  0  0
 26 25  2  0  0  0  0
 26 17  1  0  0  0  0
 27  7  1  0  0  0  0
 27 24  1  1  0  0  0
 28 11  1  0  0  0  0
 29 30  1  0  0  0  0
 30 28  1  0  0  0  0
M  END
>  <MODEL>
1

>  <REMARK>
 VINA RESULT:      -6.9      0.000      0.000
  Name = 
  2 active torsions:
  status: ('A' for Active; 'I' for Inactive)
    1  A    between atoms: N_11  and  O_28
    2  A    between atoms: O_28  and  C_30
                            x       y       z     vdW  Elec       q    Type
                         _______ _______ _______ _____ _____    ______ ____

>  <TORSDO>
F 2

$$$$
=
 OpenBabel11122412333D

 30 35  0  0  1  0  0  0  0  0999 V2000
  161.3010  210.8200  150.8270 C   0  0  0  0  0  0  0  0  0  0  0  0
  161.1650  212.2660  148.8370 C   0  0  0  0  0  0  0  0  0  0  0  0
  159.1310  213.5810  153.1120 N   0  0  0  0  0  2  0  0  0  0  0  0
  160.9140  210.5880  152.1750 C   0  0  0  0  0  0  0  0  0  0  0  0
  162.2890  209.8680  150.1960 C   0  0  0  0  0  2  0  0  0  0  0  0
  161.9830  207.0520  152.4620 O   0  0  0  0  0  0  0  0  0  0  0  0
  161.8090  210.1640  155.0080 C   0  0  1  0  0  3  0  0  0  0  0  0
  161.7470  208.1930  151.9790 C   0  0  0  0  0  0  0  0  0  0  0  0
  160.9830  211.4240  155.2320 C   0  0  2  0  0  3  0  0  0  0  0  0
  159.1060  212.8800  154.4000 C   0  0  1  0  0  3  0  0  0  0  0  0
  162.1220  208.4860  150.6310 N   0  0  0  0  0  0  0  0  0  0  0  0
  160.9590  209.1930  152.7660 C   0  0  1  0  0  3  0  0  0  0  0  0
  160.6140  213.4720  148.1240 C   0  0  0  0  0  2  0  0  0  0  0  0
  160.4270  211.2210  156.6020 C   0  0  0  0  0  2  0  0  0  0  0  0
  162.2470  209.7000  156.2640 O   0  0  0  0  0  0  0  0  0  0  0  0
  161.9080  211.3840  148.0610 O   0  0  0  0  0  1  0  0  0  0  0  0
  159.8270  212.7320  152.2170 C   0  0  0  0  0  0  0  0  0  0  0  0
  160.0950  214.4530  149.0190 O   0  0  0  0  0  0  0  0  0  0  0  0
  160.8860  212.0230  150.1500 C   0  0  0  0  0  0  0  0  0  0  0  0
  160.2340  211.6060  152.8470 C   0  0  0  0  0  0  0  0  0  0  0  0
  157.6790  212.4810  154.7310 C   0  0  0  0  0  1  0  0  0  0  0  0
  159.9340  211.6730  154.2380 N   0  0  0  0  0  0  0  0  0  0  0  0
  161.4850  210.3600  157.2530 C   0  0  0  0  0  2  0  0  0  0  0  0
  159.8280  208.7690  154.8470 O   0  0  0  0  0  1  0  0  0  0  0  0
  159.7680  214.1510  150.3390 C   0  0  0  0  0  3  0  0  0  0  0  0
  160.1300  212.9870  150.8820 C   0  0  0  0  0  0  0  0  0  0  0  0
  161.0800  209.0270  154.2840 C   0  0  2  0  0  3  0  0  0  0  0  0
  162.6060  207.4950  149.8390 O   0  0  0  0  0  0  0  0  0  0  0  0
  160.6670  206.5610  148.8250 C   0  0  0  0  0  1  0  0  0  0  0  0
  161.8210  207.5310  148.6820 C   0  0  0  0  0  2  0  0  0  0  0  0
  1  4  2  0  0  0  0
  2 19  2  0  0  0  0
  3 10  1  0  0  0  0
  4 12  1  0  0  0  0
  4 20  1  0  0  0  0
  5 11  1  0  0  0  0
  5  1  1  0  0  0  0
  7  9  1  0  0  0  0
  7 15  1  1  0  0  0
  8  6  2  0  0  0  0
  9 14  1  1  0  0  0
 10 21  1  6  0  0  0
 11  8  1  0  0  0  0
 12  8  1  6  0  0  0
 12 27  1  0  0  0  0
 13  2  1  0  0  0  0
 13 18  1  0  0  0  0
 14 23  1  0  0  0  0
 15 23  1  0  0  0  0
 16  2  1  0  0  0  0
 17 20  2  0  0  0  0
 17  3  1  0  0  0  0
 18 25  1  0  0  0  0
 19  1  1  0  0  0  0
 19 26  1  0  0  0  0
 20 22  1  0  0  0  0
 22 10  1  0  0  0  0
 22  9  1  0  0  0  0
 25 26  2  0  0  0  0
 26 17  1  0  0  0  0
 27 24  1  1  0  0  0
 27  7  1  0  0  0  0
 28 11  1  0  0  0  0
 30 29  1  0  0  0  0
 30 28  1  0  0  0  0
M  END
>  <MODEL>
2

>  <REMARK>
 VINA RESULT:      -6.4      2.777      5.936
  Name = 
  2 active torsions:
  status: ('A' for Active; 'I' for Inactive)
    1  A    between atoms: N_11  and  O_28
    2  A    between atoms: O_28  and  C_30
                            x       y       z     vdW  Elec       q    Type
                         _______ _______ _______ _____ _____    ______ ____

>  <TORSDO>
F 2

$$$$
=
 OpenBabel11122412333D

 30 35  0  0  1  0  0  0  0  0999 V2000
  161.1930  211.0880  150.9670 C   0  0  0  0  0  0  0  0  0  0  0  0
  161.5570  212.0940  148.7470 C   0  0  0  0  0  0  0  0  0  0  0  0
  158.8670  214.3540  152.1830 N   0  0  0  0  0  2  0  0  0  0  0  0
  160.5390  211.1580  152.2280 C   0  0  0  0  0  0  0  0  0  0  0  0
  162.2000  209.9840  150.7470 C   0  0  0  0  0  2  0  0  0  0  0  0
  161.2370  207.7150  153.4080 O   0  0  0  0  0  0  0  0  0  0  0  0
  160.8440  211.2930  155.2100 C   0  0  1  0  0  3  0  0  0  0  0  0
  161.1930  208.7410  152.6740 C   0  0  0  0  0  0  0  0  0  0  0  0
  160.0980  212.6060  155.0120 C   0  0  2  0  0  3  0  0  0  0  0  0
  158.5410  213.9370  153.5500 C   0  0  1  0  0  3  0  0  0  0  0  0
  161.8390  208.7310  151.3990 N   0  0  0  0  0  0  0  0  0  0  0  0
  160.3560  209.9150  153.0760 C   0  0  1  0  0  3  0  0  0  0  0  0
  161.2530  213.1490  147.7160 C   0  0  0  0  0  2  0  0  0  0  0  0
  159.2780  212.7160  156.2540 C   0  0  0  0  0  2  0  0  0  0  0  0
  160.9960  211.0810  156.5940 O   0  0  0  0  0  0  0  0  0  0  0  0
  162.3580  211.0400  148.3250 O   0  0  0  0  0  1  0  0  0  0  0  0
  159.6470  213.3080  151.6300 C   0  0  0  0  0  0  0  0  0  0  0  0
  160.6580  214.3150  148.2800 O   0  0  0  0  0  0  0  0  0  0  0  0
  161.0150  212.1410  149.9990 C   0  0  0  0  0  0  0  0  0  0  0  0
  159.8320  212.3210  152.5370 C   0  0  0  0  0  0  0  0  0  0  0  0
  157.0490  213.6770  153.6570 C   0  0  0  0  0  1  0  0  0  0  0  0
  159.2810  212.6880  153.7980 N   0  0  0  0  0  0  0  0  0  0  0  0
  160.1180  211.9640  157.2610 C   0  0  0  0  0  2  0  0  0  0  0  0
  158.8200  209.9820  154.9260 O   0  0  0  0  0  1  0  0  0  0  0  0
  160.0630  214.3080  149.5390 C   0  0  0  0  0  3  0  0  0  0  0  0
  160.2170  213.2680  150.3610 C   0  0  0  0  0  0  0  0  0  0  0  0
  160.1720  210.0630  154.5890 C   0  0  2  0  0  3  0  0  0  0  0  0
  162.3800  207.5780  150.9300 O   0  0  0  0  0  0  0  0  0  0  0  0
  160.8560  206.4950  149.4600 C   0  0  0  0  0  1  0  0  0  0  0  0
  161.9800  207.5000  149.5920 C   0  0  0  0  0  2  0  0  0  0  0  0
  1  4  2  0  0  0  0
  2 19  2  0  0  0  0
  3 10  1  0  0  0  0
  4 20  1  0  0  0  0
  5  1  1  0  0  0  0
  5 11  1  0  0  0  0
  7 15  1  1  0  0  0
  8 12  1  0  0  0  0
  8  6  2  0  0  0  0
  9  7  1  0  0  0  0
  9 14  1  1  0  0  0
 10 21  1  6  0  0  0
 10 22  1  0  0  0  0
 11  8  1  0  0  0  0
 12  4  1  1  0  0  0
 12 27  1  0  0  0  0
 13 18  1  0  0  0  0
 13  2  1  0  0  0  0
 14 23  1  0  0  0  0
 15 23  1  0  0  0  0
 16  2  1  0  0  0  0
 17  3  1  0  0  0  0
 17 20  2  0  0  0  0
 18 25  1  0  0  0  0
 19 26  1  0  0  0  0
 19  1  1  0  0  0  0
 20 22  1  0  0  0  0
 22  9  1  0  0  0  0
 25 26  2  0  0  0  0
 26 17  1  0  0  0  0
 27 24  1  6  0  0  0
 27  7  1  0  0  0  0
 28 11  1  0  0  0  0
 29 30  1  0  0  0  0
 30 28  1  0  0  0  0
M  END
>  <MODEL>
3

>  <REMARK>
 VINA RESULT:      -6.1      3.027      6.305
  Name = 
  2 active torsions:
  status: ('A' for Active; 'I' for Inactive)
    1  A    between atoms: N_11  and  O_28
    2  A    between atoms: O_28  and  C_30
                            x       y       z     vdW  Elec       q    Type
                         _______ _______ _______ _____ _____    ______ ____

>  <TORSDO>
F 2

$$$$
=
 OpenBabel11122412333D

 30 35  0  0  1  0  0  0  0  0999 V2000
  161.6740  208.5660  150.8180 C   0  0  0  0  0  0  0  0  0  0  0  0
  162.0340  209.8040  148.7180 C   0  0  0  0  0  0  0  0  0  0  0  0
  160.3620  212.0360  152.7640 N   0  0  0  0  0  2  0  0  0  0  0  0
  161.1960  208.5790  152.1570 C   0  0  0  0  0  0  0  0  0  0  0  0
  162.3510  207.3120  150.3150 C   0  0  0  0  0  2  0  0  0  0  0  0
  161.1510  204.9250  152.7700 O   0  0  0  0  0  0  0  0  0  0  0  0
  161.8410  208.1640  155.0580 C   0  0  1  0  0  3  0  0  0  0  0  0
  161.2810  206.0380  152.1890 C   0  0  0  0  0  0  0  0  0  0  0  0
  161.4220  209.6260  155.1400 C   0  0  2  0  0  3  0  0  0  0  0  0
  160.0910  211.4910  154.0980 C   0  0  1  0  0  3  0  0  0  0  0  0
  161.7660  206.0860  150.8450 N   0  0  0  0  0  0  0  0  0  0  0  0
  160.8050  207.2920  152.8540 C   0  0  1  0  0  3  0  0  0  0  0  0
  161.8890  211.0510  147.8860 C   0  0  0  0  0  2  0  0  0  0  0  0
  160.7920  209.7190  156.4890 C   0  0  0  0  0  2  0  0  0  0  0  0
  162.0830  207.7050  156.3670 O   0  0  0  0  0  0  0  0  0  0  0  0
  162.5020  208.6780  148.0540 O   0  0  0  0  0  1  0  0  0  0  0  0
  160.7990  210.9430  151.9750 C   0  0  0  0  0  0  0  0  0  0  0  0
  161.6620  212.2170  148.6750 O   0  0  0  0  0  0  0  0  0  0  0  0
  161.6570  209.7730  150.0290 C   0  0  0  0  0  0  0  0  0  0  0  0
  160.8320  209.8080  152.7110 C   0  0  0  0  0  0  0  0  0  0  0  0
  158.6020  211.5620  154.3810 C   0  0  0  0  0  1  0  0  0  0  0  0
  160.5250  210.0840  154.0740 N   0  0  0  0  0  0  0  0  0  0  0  0
  161.5240  208.6460  157.2600 C   0  0  0  0  0  2  0  0  0  0  0  0
  159.5390  207.4080  154.8960 O   0  0  0  0  0  1  0  0  0  0  0  0
  161.2210  212.1440  149.9940 C   0  0  0  0  0  3  0  0  0  0  0  0
  161.2020  210.9780  150.6440 C   0  0  0  0  0  0  0  0  0  0  0  0
  160.8260  207.2330  154.3840 C   0  0  2  0  0  3  0  0  0  0  0  0
  161.9540  204.9300  150.1580 O   0  0  0  0  0  0  0  0  0  0  0  0
  161.5810  204.2370  147.9140 C   0  0  0  0  0  1  0  0  0  0  0  0
  161.0200  204.9610  149.1180 C   0  0  0  0  0  2  0  0  0  0  0  0
  1  4  2  0  0  0  0
  2 19  2  0  0  0  0
  3 10  1  0  0  0  0
  4 20  1  0  0  0  0
  5  1  1  0  0  0  0
  5 11  1  0  0  0  0
  7  9  1  0  0  0  0
  7 15  1  1  0  0  0
  8  6  2  0  0  0  0
  8 12  1  0  0  0  0
  9 14  1  1  0  0  0
 10 21  1  6  0  0  0
 11  8  1  0  0  0  0
 12  4  1  1  0  0  0
 12 27  1  0  0  0  0
 13 18  1  0  0  0  0
 13  2  1  0  0  0  0
 14 23  1  0  0  0  0
 15 23  1  0  0  0  0
 16  2  1  0  0  0  0
 17 20  2  0  0  0  0
 17  3  1  0  0  0  0
 18 25  1  0  0  0  0
 19 26  1  0  0  0  0
 19  1  1  0  0  0  0
 20 22  1  0  0  0  0
 22 10  1  0  0  0  0
 22  9  1  0  0  0  0
 25 26  2  0  0  0  0
 26 17  1  0  0  0  0
 27 24  1  1  0  0  0
 27  7  1  0  0  0  0
 28 11  1  0  0  0  0
 29 30  1  0  0  0  0
 30 28  1  0  0  0  0
M  END
>  <MODEL>
4

>  <REMARK>
 VINA RESULT:      -6.0      2.165      5.053
  Name = 
  2 active torsions:
  status: ('A' for Active; 'I' for Inactive)
    1  A    between atoms: N_11  and  O_28
    2  A    between atoms: O_28  and  C_30
                            x       y       z     vdW  Elec       q    Type
                         _______ _______ _______ _____ _____    ______ ____

>  <TORSDO>
F 2

$$$$
=
 OpenBabel11122412333D

 30 35  0  0  1  0  0  0  0  0999 V2000
  161.4170  208.4710  152.0350 C   0  0  0  0  0  0  0  0  0  0  0  0
  162.2010  208.3010  149.7050 C   0  0  0  0  0  0  0  0  0  0  0  0
  160.4400  212.5130  151.5240 N   0  0  0  0  0  2  0  0  0  0  0  0
  160.7960  209.2600  153.0420 C   0  0  0  0  0  0  0  0  0  0  0  0
  161.9460  207.1100  152.4220 C   0  0  0  0  0  2  0  0  0  0  0  0
  160.1200  206.5810  155.5110 O   0  0  0  0  0  0  0  0  0  0  0  0
  161.0330  210.4930  155.7670 C   0  0  1  0  0  3  0  0  0  0  0  0
  160.4860  207.1690  154.4570 C   0  0  0  0  0  0  0  0  0  0  0  0
  160.8370  211.7760  154.9690 C   0  0  2  0  0  3  0  0  0  0  0  0
  159.9370  212.8230  152.8650 C   0  0  1  0  0  3  0  0  0  0  0  0
  161.1230  206.4280  153.4130 N   0  0  0  0  0  0  0  0  0  0  0  0
  160.1350  208.6080  154.2400 C   0  0  1  0  0  3  0  0  0  0  0  0
  162.3470  208.8780  148.3220 C   0  0  0  0  0  2  0  0  0  0  0  0
  160.0780  212.6460  155.9140 C   0  0  0  0  0  2  0  0  0  0  0  0
  161.0500  210.8290  157.1350 O   0  0  0  0  0  0  0  0  0  0  0  0
  162.5640  206.9680  149.8530 O   0  0  0  0  0  1  0  0  0  0  0  0
  160.7910  211.1400  151.5440 C   0  0  0  0  0  0  0  0  0  0  0  0
  162.2120  210.2970  148.3000 O   0  0  0  0  0  0  0  0  0  0  0  0
  161.6760  209.0310  150.7320 C   0  0  0  0  0  0  0  0  0  0  0  0
  160.5640  210.6090  152.7680 C   0  0  0  0  0  0  0  0  0  0  0  0
  158.4540  213.1360  152.7910 C   0  0  0  0  0  1  0  0  0  0  0  0
  160.1490  211.6180  153.6840 N   0  0  0  0  0  0  0  0  0  0  0  0
  160.5430  212.1410  157.2600 C   0  0  0  0  0  2  0  0  0  0  0  0
  158.6760  209.9250  155.6270 O   0  0  0  0  0  1  0  0  0  0  0  0
  161.6170  211.0010  149.3440 C   0  0  0  0  0  3  0  0  0  0  0  0
  161.3450  210.4000  150.5040 C   0  0  0  0  0  0  0  0  0  0  0  0
  159.9710  209.4130  155.5330 C   0  0  2  0  0  3  0  0  0  0  0  0
  161.2090  205.0760  153.5070 O   0  0  0  0  0  0  0  0  0  0  0  0
  160.8290  203.2590  152.0200 C   0  0  0  0  0  1  0  0  0  0  0  0
  161.4450  204.6300  152.2030 C   0  0  0  0  0  2  0  0  0  0  0  0
  1  5  1  0  0  0  0
  1  4  2  0  0  0  0
  2 16  1  0  0  0  0
  2 19  2  0  0  0  0
  3 17  1  0  0  0  0
  3 10  1  0  0  0  0
  5 11  1  0  0  0  0
  7 15  1  1  0  0  0
  8  6  2  0  0  0  0
  9  7  1  0  0  0  0
  9 14  1  1  0  0  0
 10 21  1  6  0  0  0
 10 22  1  0  0  0  0
 11 28  1  0  0  0  0
 11  8  1  0  0  0  0
 12  4  1  6  0  0  0
 12  8  1  0  0  0  0
 12 27  1  0  0  0  0
 13  2  1  0  0  0  0
 14 23  1  0  0  0  0
 15 23  1  0  0  0  0
 17 20  2  0  0  0  0
 18 13  1  0  0  0  0
 18 25  1  0  0  0  0
 19  1  1  0  0  0  0
 20  4  1  0  0  0  0
 20 22  1  0  0  0  0
 22  9  1  0  0  0  0
 25 26  2  0  0  0  0
 26 19  1  0  0  0  0
 26 17  1  0  0  0  0
 27 24  1  6  0  0  0
 27  7  1  0  0  0  0
 29 30  1  0  0  0  0
 30 28  1  0  0  0  0
M  END
>  <MODEL>
5

>  <REMARK>
 VINA RESULT:      -5.9      2.331      5.375
  Name = 
  2 active torsions:
  status: ('A' for Active; 'I' for Inactive)
    1  A    between atoms: N_11  and  O_28
    2  A    between atoms: O_28  and  C_30
                            x       y       z     vdW  Elec       q    Type
                         _______ _______ _______ _____ _____    ______ ____

>  <TORSDO>
F 2

$$$$
=
 OpenBabel11122412333D

 30 35  0  0  1  0  0  0  0  0999 V2000
  161.3860  207.7350  151.2040 C   0  0  0  0  0  0  0  0  0  0  0  0
  161.5900  210.1480  150.7470 C   0  0  0  0  0  0  0  0  0  0  0  0
  162.2760  206.7960  147.2190 N   0  0  0  0  0  2  0  0  0  0  0  0
  161.5200  206.4030  150.7250 C   0  0  0  0  0  0  0  0  0  0  0  0
  160.8190  207.9400  152.5890 C   0  0  0  0  0  2  0  0  0  0  0  0
  161.3080  204.6200  153.9660 O   0  0  0  0  0  0  0  0  0  0  0  0
  160.1690  203.7760  150.1990 C   0  0  1  0  0  3  0  0  0  0  0  0
  161.3570  205.5500  153.1150 C   0  0  0  0  0  0  0  0  0  0  0  0
  160.5960  204.0860  148.7700 C   0  0  2  0  0  3  0  0  0  0  0  0
  162.1940  205.3340  147.2800 C   0  0  1  0  0  3  0  0  0  0  0  0
  161.2200  206.9090  153.5390 N   0  0  0  0  0  0  0  0  0  0  0  0
  161.6900  205.2460  151.6880 C   0  0  1  0  0  3  0  0  0  0  0  0
  161.9700  211.2850  149.8370 C   0  0  0  0  0  2  0  0  0  0  0  0
  160.8770  202.7340  148.2040 C   0  0  0  0  0  2  0  0  0  0  0  0
  159.5980  202.4880  150.2140 O   0  0  0  0  0  0  0  0  0  0  0  0
  161.2670  210.4920  152.0540 O   0  0  0  0  0  1  0  0  0  0  0  0
  162.0160  207.2580  148.5340 C   0  0  0  0  0  0  0  0  0  0  0  0
  162.0290  210.8990  148.4660 O   0  0  0  0  0  0  0  0  0  0  0  0
  161.6310  208.8510  150.3250 C   0  0  0  0  0  0  0  0  0  0  0  0
  161.7710  206.2180  149.3640 C   0  0  0  0  0  0  0  0  0  0  0  0
  163.5700  204.7400  147.0360 C   0  0  0  0  0  1  0  0  0  0  0  0
  161.7400  204.9930  148.6380 N   0  0  0  0  0  0  0  0  0  0  0  0
  159.9470  201.8520  149.0030 C   0  0  0  0  0  2  0  0  0  0  0  0
  162.4170  203.1160  150.8360 O   0  0  0  0  0  1  0  0  0  0  0  0
  162.1290  209.5650  148.0770 C   0  0  0  0  0  3  0  0  0  0  0  0
  161.9540  208.5810  148.9610 C   0  0  0  0  0  0  0  0  0  0  0  0
  161.2910  203.8360  151.2410 C   0  0  2  0  0  3  0  0  0  0  0  0
  161.1740  207.1970  154.8650 O   0  0  0  0  0  0  0  0  0  0  0  0
  160.1070  208.8430  156.2100 C   0  0  0  0  0  1  0  0  0  0  0  0
  160.8750  208.5610  154.9370 C   0  0  0  0  0  2  0  0  0  0  0  0
  1  5  1  0  0  0  0
  2 16  1  0  0  0  0
  3 10  1  0  0  0  0
  3 17  1  0  0  0  0
  4  1  2  0  0  0  0
  5 11  1  0  0  0  0
  7 15  1  6  0  0  0
  7 27  1  0  0  0  0
  8 11  1  0  0  0  0
  8  6  2  0  0  0  0
  9 14  1  1  0  0  0
  9  7  1  0  0  0  0
 10 21  1  1  0  0  0
 10 22  1  0  0  0  0
 11 28  1  0  0  0  0
 12  4  1  6  0  0  0
 12  8  1  0  0  0  0
 13  2  1  0  0  0  0
 14 23  1  0  0  0  0
 17 26  1  0  0  0  0
 17 20  2  0  0  0  0
 18 13  1  0  0  0  0
 19  2  2  0  0  0  0
 19  1  1  0  0  0  0
 20  4  1  0  0  0  0
 22  9  1  0  0  0  0
 22 20  1  0  0  0  0
 23 15  1  0  0  0  0
 25 18  1  0  0  0  0
 25 26  2  0  0  0  0
 26 19  1  0  0  0  0
 27 24  1  6  0  0  0
 27 12  1  0  0  0  0
 28 30  1  0  0  0  0
 30 29  1  0  0  0  0
M  END
>  <MODEL>
6

>  <REMARK>
 VINA RESULT:      -5.7      1.728      7.187
  Name = 
  2 active torsions:
  status: ('A' for Active; 'I' for Inactive)
    1  A    between atoms: N_11  and  O_28
    2  A    between atoms: O_28  and  C_30
                            x       y       z     vdW  Elec       q    Type
                         _______ _______ _______ _____ _____    ______ ____

>  <TORSDO>
F 2

$$$$
=
 OpenBabel11122412333D

 30 35  0  0  1  0  0  0  0  0999 V2000
  160.6420  209.4580  153.3240 C   0  0  0  0  0  0  0  0  0  0  0  0
  160.9650  207.6850  155.0050 C   0  0  0  0  0  0  0  0  0  0  0  0
  158.7950  211.9450  156.1460 N   0  0  0  0  0  2  0  0  0  0  0  0
  160.2200  210.7860  153.0400 C   0  0  0  0  0  0  0  0  0  0  0  0
  161.0590  208.5800  152.1670 C   0  0  0  0  0  2  0  0  0  0  0  0
  161.6620  211.1150  149.6430 O   0  0  0  0  0  0  0  0  0  0  0  0
  158.3740  212.5520  151.4660 C   0  0  1  0  0  3  0  0  0  0  0  0
  161.3620  210.6400  150.7720 C   0  0  0  0  0  0  0  0  0  0  0  0
  157.9130  212.9520  152.8620 C   0  0  2  0  0  3  0  0  0  0  0  0
  158.5030  213.1090  155.3040 C   0  0  1  0  0  3  0  0  0  0  0  0
  161.7520  209.3060  151.1100 N   0  0  0  0  0  0  0  0  0  0  0  0
  160.7170  211.5100  151.8060 C   0  0  1  0  0  3  0  0  0  0  0  0
  160.9260  207.2040  156.4310 C   0  0  0  0  0  2  0  0  0  0  0  0
  157.5520  214.3900  152.6960 C   0  0  0  0  0  2  0  0  0  0  0  0
  157.7040  213.3690  150.5350 O   0  0  0  0  0  0  0  0  0  0  0  0
  161.5530  206.8260  154.0860 O   0  0  0  0  0  1  0  0  0  0  0  0
  159.4580  211.0120  155.3090 C   0  0  0  0  0  0  0  0  0  0  0  0
  160.0860  208.0030  157.2610 O   0  0  0  0  0  0  0  0  0  0  0  0
  160.5110  208.9240  154.6570 C   0  0  0  0  0  0  0  0  0  0  0  0
  159.5730  211.4980  154.0510 C   0  0  0  0  0  0  0  0  0  0  0  0
  159.3270  214.2940  155.7740 C   0  0  0  0  0  1  0  0  0  0  0  0
  158.8950  212.7450  153.9320 N   0  0  0  0  0  0  0  0  0  0  0  0
  157.1400  214.4520  151.2440 C   0  0  0  0  0  2  0  0  0  0  0  0
  160.3940  213.8880  151.6390 O   0  0  0  0  0  1  0  0  0  0  0  0
  159.6910  209.2880  156.8950 C   0  0  0  0  0  3  0  0  0  0  0  0
  159.9030  209.7410  155.6580 C   0  0  0  0  0  0  0  0  0  0  0  0
  159.8840  212.6570  151.2250 C   0  0  2  0  0  3  0  0  0  0  0  0
  162.5580  208.6100  150.2680 O   0  0  0  0  0  0  0  0  0  0  0  0
  161.2880  207.5460  148.5610 C   0  0  0  0  0  1  0  0  0  0  0  0
  161.8520  207.4420  149.9620 C   0  0  0  0  0  2  0  0  0  0  0  0
  1 19  1  0  0  0  0
  2 13  1  0  0  0  0
  4  1  2  0  0  0  0
  4 20  1  0  0  0  0
  5  1  1  0  0  0  0
  6  8  2  0  0  0  0
  7 15  1  6  0  0  0
  7  9  1  0  0  0  0
  8 11  1  0  0  0  0
  9 14  1  6  0  0  0
  9 22  1  0  0  0  0
 10 21  1  1  0  0  0
 10  3  1  0  0  0  0
 11  5  1  0  0  0  0
 12  8  1  6  0  0  0
 12  4  1  0  0  0  0
 13 18  1  0  0  0  0
 15 23  1  0  0  0  0
 16  2  1  0  0  0  0
 17 26  1  0  0  0  0
 17  3  1  0  0  0  0
 19  2  2  0  0  0  0
 19 26  1  0  0  0  0
 20 17  2  0  0  0  0
 22 20  1  0  0  0  0
 22 10  1  0  0  0  0
 23 14  1  0  0  0  0
 25 18  1  0  0  0  0
 26 25  2  0  0  0  0
 27  7  1  0  0  0  0
 27 24  1  1  0  0  0
 27 12  1  0  0  0  0
 28 11  1  0  0  0  0
 29 30  1  0  0  0  0
 30 28  1  0  0  0  0
M  END
>  <MODEL>
7

>  <REMARK>
 VINA RESULT:      -5.4      2.796      4.788
  Name = 
  2 active torsions:
  status: ('A' for Active; 'I' for Inactive)
    1  A    between atoms: N_11  and  O_28
    2  A    between atoms: O_28  and  C_30
                            x       y       z     vdW  Elec       q    Type
                         _______ _______ _______ _____ _____    ______ ____

>  <TORSDO>
F 2

$$$$
=
 OpenBabel11122412333D

 30 35  0  0  1  0  0  0  0  0999 V2000
  160.8090  210.3670  151.7200 C   0  0  0  0  0  0  0  0  0  0  0  0
  162.0490  208.3890  150.9320 C   0  0  0  0  0  0  0  0  0  0  0  0
  160.1460  208.5950  155.4570 N   0  0  0  0  0  2  0  0  0  0  0  0
  160.1570  211.0290  152.7950 C   0  0  0  0  0  0  0  0  0  0  0  0
  160.7640  211.0110  150.3540 C   0  0  0  0  0  2  0  0  0  0  0  0
  159.8830  214.4040  151.2890 O   0  0  0  0  0  0  0  0  0  0  0  0
  157.6140  212.2490  153.8210 C   0  0  1  0  0  3  0  0  0  0  0  0
  160.1750  213.1870  151.4480 C   0  0  0  0  0  0  0  0  0  0  0  0
  157.7820  211.1770  154.8890 C   0  0  2  0  0  3  0  0  0  0  0  0
  159.3780  209.6600  156.1090 C   0  0  1  0  0  3  0  0  0  0  0  0
  160.8240  212.4680  150.3970 N   0  0  0  0  0  0  0  0  0  0  0  0
  159.9640  212.5330  152.7780 C   0  0  1  0  0  3  0  0  0  0  0  0
  162.7060  207.0590  151.1930 C   0  0  0  0  0  2  0  0  0  0  0  0
  157.2230  211.8290  156.1090 C   0  0  0  0  0  2  0  0  0  0  0  0
  156.5100  213.0490  154.1750 O   0  0  0  0  0  0  0  0  0  0  0  0
  162.2590  208.9370  149.6720 O   0  0  0  0  0  1  0  0  0  0  0  0
  160.4670  209.0790  154.1650 C   0  0  0  0  0  0  0  0  0  0  0  0
  162.2400  206.4390  152.3890 O   0  0  0  0  0  0  0  0  0  0  0  0
  161.3500  209.0430  151.9030 C   0  0  0  0  0  0  0  0  0  0  0  0
  159.9520  210.3160  153.9770 C   0  0  0  0  0  0  0  0  0  0  0  0
  160.1840  210.2330  157.2610 C   0  0  0  0  0  1  0  0  0  0  0  0
  159.1540  210.7010  155.0930 N   0  0  0  0  0  0  0  0  0  0  0  0
  156.2020  212.7790  155.5270 C   0  0  0  0  0  2  0  0  0  0  0  0
  159.3310  213.6510  154.8120 O   0  0  0  0  0  1  0  0  0  0  0  0
  161.5790  207.1550  153.3850 C   0  0  0  0  0  3  0  0  0  0  0  0
  161.1630  208.4040  153.1660 C   0  0  0  0  0  0  0  0  0  0  0  0
  158.8340  213.1520  153.6070 C   0  0  2  0  0  3  0  0  0  0  0  0
  161.2430  213.1310  149.2890 O   0  0  0  0  0  0  0  0  0  0  0  0
  163.0820  212.5780  147.8850 C   0  0  0  0  0  1  0  0  0  0  0  0
  161.7390  212.1440  148.4320 C   0  0  0  0  0  2  0  0  0  0  0  0
  1 19  1  0  0  0  0
  1  4  2  0  0  0  0
  2 13  1  0  0  0  0
  2 19  2  0  0  0  0
  3 10  1  0  0  0  0
  4 20  1  0  0  0  0
  5 11  1  0  0  0  0
  5  1  1  0  0  0  0
  6  8  2  0  0  0  0
  7 15  1  1  0  0  0
  7  9  1  0  0  0  0
  9 22  1  0  0  0  0
  9 14  1  1  0  0  0
 10 21  1  1  0  0  0
 11  8  1  0  0  0  0
 12  8  1  6  0  0  0
 12  4  1  0  0  0  0
 12 27  1  0  0  0  0
 13 18  1  0  0  0  0
 15 23  1  0  0  0  0
 16  2  1  0  0  0  0
 17  3  1  0  0  0  0
 18 25  1  0  0  0  0
 19 26  1  0  0  0  0
 20 17  2  0  0  0  0
 20 22  1  0  0  0  0
 22 10  1  0  0  0  0
 23 14  1  0  0  0  0
 26 25  2  0  0  0  0
 26 17  1  0  0  0  0
 27  7  1  0  0  0  0
 27 24  1  1  0  0  0
 28 11  1  0  0  0  0
 29 30  1  0  0  0  0
 30 28  1  0  0  0  0
M  END
>  <MODEL>
8

>  <REMARK>
 VINA RESULT:      -5.2      2.881      4.458
  Name = 
  2 active torsions:
  status: ('A' for Active; 'I' for Inactive)
    1  A    between atoms: N_11  and  O_28
    2  A    between atoms: O_28  and  C_30
                            x       y       z     vdW  Elec       q    Type
                         _______ _______ _______ _____ _____    ______ ____

>  <TORSDO>
F 2

$$$$
=
 OpenBabel11122412333D

 30 35  0  0  1  0  0  0  0  0999 V2000
  160.8180  210.7140  152.3960 C   0  0  0  0  0  0  0  0  0  0  0  0
  161.8760  210.7010  150.1710 C   0  0  0  0  0  0  0  0  0  0  0  0
  158.7520  214.2500  151.5090 N   0  0  0  0  0  2  0  0  0  0  0  0
  159.8810  211.3170  153.2800 C   0  0  0  0  0  0  0  0  0  0  0  0
  161.6790  209.5920  152.9270 C   0  0  0  0  0  2  0  0  0  0  0  0
  159.7530  208.6550  155.8550 O   0  0  0  0  0  0  0  0  0  0  0  0
  159.4310  212.6670  155.9220 C   0  0  1  0  0  3  0  0  0  0  0  0
  160.0450  209.2850  154.8020 C   0  0  0  0  0  0  0  0  0  0  0  0
  158.9560  213.7990  155.0200 C   0  0  2  0  0  3  0  0  0  0  0  0
  158.0310  214.4450  152.7710 C   0  0  1  0  0  3  0  0  0  0  0  0
  160.9870  208.7320  153.8800 N   0  0  0  0  0  0  0  0  0  0  0  0
  159.3110  210.5420  154.4510 C   0  0  1  0  0  3  0  0  0  0  0  0
  162.0000  211.2420  148.7710 C   0  0  0  0  0  2  0  0  0  0  0  0
  157.8710  214.4350  155.8240 C   0  0  0  0  0  2  0  0  0  0  0  0
  159.1930  213.0430  157.2580 O   0  0  0  0  0  0  0  0  0  0  0  0
  162.5980  209.5460  150.4460 O   0  0  0  0  0  1  0  0  0  0  0  0
  159.4890  213.0490  151.6600 C   0  0  0  0  0  0  0  0  0  0  0  0
  161.4550  212.5520  148.6360 O   0  0  0  0  0  0  0  0  0  0  0  0
  161.0460  211.2760  151.0880 C   0  0  0  0  0  0  0  0  0  0  0  0
  159.2930  212.5210  152.8910 C   0  0  0  0  0  0  0  0  0  0  0  0
  156.5400  214.2920  152.5310 C   0  0  0  0  0  1  0  0  0  0  0  0
  158.4970  213.3920  153.6890 N   0  0  0  0  0  0  0  0  0  0  0  0
  158.3100  214.1450  157.2410 C   0  0  0  0  0  2  0  0  0  0  0  0
  157.3800  211.4090  155.5950 O   0  0  0  0  0  1  0  0  0  0  0  0
  160.5640  213.0820  149.5660 C   0  0  0  0  0  3  0  0  0  0  0  0
  160.3520  212.4720  150.7330 C   0  0  0  0  0  0  0  0  0  0  0  0
  158.7710  211.3080  155.6630 C   0  0  2  0  0  3  0  0  0  0  0  0
  161.4580  207.4740  154.0760 O   0  0  0  0  0  0  0  0  0  0  0  0
  162.1130  206.0200  152.3110 C   0  0  0  0  0  1  0  0  0  0  0  0
  160.9650  206.7230  153.0050 C   0  0  0  0  0  2  0  0  0  0  0  0
  1  5  1  0  0  0  0
  1  4  2  0  0  0  0
  2 16  1  0  0  0  0
  2 19  2  0  0  0  0
  3 17  1  0  0  0  0
  3 10  1  0  0  0  0
  5 11  1  0  0  0  0
  7 15  1  1  0  0  0
  8  6  2  0  0  0  0
  9 14  1  1  0  0  0
  9  7  1  0  0  0  0
 10 21  1  6  0  0  0
 10 22  1  0  0  0  0
 11 28  1  0  0  0  0
 11  8  1  0  0  0  0
 12  4  1  1  0  0  0
 12  8  1  0  0  0  0
 12 27  1  0  0  0  0
 13  2  1  0  0  0  0
 14 23  1  0  0  0  0
 17 20  2  0  0  0  0
 18 13  1  0  0  0  0
 18 25  1  0  0  0  0
 19  1  1  0  0  0  0
 20  4  1  0  0  0  0
 20 22  1  0  0  0  0
 22  9  1  0  0  0  0
 23 15  1  0  0  0  0
 25 26  2  0  0  0  0
 26 19  1  0  0  0  0
 26 17  1  0  0  0  0
 27 24  1  6  0  0  0
 27  7  1  0  0  0  0
 29 30  1  0  0  0  0
 30 28  1  0  0  0  0
M  END
>  <MODEL>
9

>  <REMARK>
 VINA RESULT:      -5.1      3.135      6.678
  Name = 
  2 active torsions:
  status: ('A' for Active; 'I' for Inactive)
    1  A    between atoms: N_11  and  O_28
    2  A    between atoms: O_28  and  C_30
                            x       y       z     vdW  Elec       q    Type
                         _______ _______ _______ _____ _____    ______ ____

>  <TORSDO>
F 2

$$$$
