=
 OpenBabel11122413303D

 31 35  0  0  1  0  0  0  0  0999 V2000
  160.9740  204.4860  144.9060 C   0  0  0  0  0  0  0  0  0  0  0  0
  160.3990  205.2270  148.5920 C   0  0  2  0  0  3  0  0  0  0  0  0
  160.8040  203.9740  149.3550 C   0  0  0  0  0  0  0  0  0  0  0  0
  161.2950  201.5920  149.4200 C   0  0  0  0  0  0  0  0  0  0  0  0
  160.9870  205.2850  147.2000 C   0  0  0  0  0  0  0  0  0  0  0  0
  162.0960  205.2680  144.6230 C   0  0  0  0  0  3  0  0  0  0  0  0
  160.9530  202.7400  148.7020 C   0  0  0  0  0  3  0  0  0  0  0  0
  162.2280  206.7890  149.3410 C   0  0  2  0  0  3  0  0  0  0  0  0
  160.4250  203.7150  143.9380 F   0  0  0  0  0  0  0  0  0  0  0  0
  160.7720  205.2290  151.4450 O   0  0  0  0  0  0  0  0  0  0  0  0
  161.4650  200.2970  148.7110 C   0  0  0  0  0  1  0  0  0  0  0  0
  162.6790  207.0560  147.9040 C   0  0  0  0  0  2  0  0  0  0  0  0
  160.7200  206.5120  149.3800 C   0  0  2  0  0  3  0  0  0  0  0  0
  160.4210  204.4960  146.1880 C   0  0  0  0  0  3  0  0  0  0  0  0
  161.4750  201.6600  150.8030 C   0  0  0  0  0  3  0  0  0  0  0  0
  162.1190  206.0780  146.9100 C   0  0  0  0  0  0  0  0  0  0  0  0
  162.6590  206.0680  145.6200 C   0  0  0  0  0  3  0  0  0  0  0  0
  160.2050  206.3740  150.8140 C   0  0  0  0  0  2  0  0  0  0  0  0
  160.9540  204.0260  150.7570 C   0  0  0  0  0  0  0  0  0  0  0  0
  161.3040  202.8750  151.4700 C   0  0  0  0  0  3  0  0  0  0  0  0
  161.4930  209.4870  148.7790 O   0  0  0  0  0  0  0  0  0  0  0  0
  162.1520  209.2690  149.8320 C   0  0  0  0  0  0  0  0  0  0  0  0
  162.5560  207.9420  150.1690 N   0  0  0  0  0  2  0  0  0  0  0  0
  160.4570  211.3340  152.4230 N   0  0  0  0  0  0  0  0  0  0  0  0
  162.4100  210.0420  152.1190 O   0  0  0  0  0  0  0  0  0  0  0  0
  161.8240  212.0980  148.9780 C   0  0  0  0  0  1  0  0  0  0  0  0
  159.0780  211.2030  152.8580 C   0  0  0  0  0  1  0  0  0  0  0  0
  161.0450  209.9980  152.4810 C   0  0  0  0  0  2  0  0  0  0  0  0
  161.8310  211.7500  150.4560 C   0  0  2  0  0  3  0  0  0  0  0  0
  162.5190  210.4030  150.7530 C   0  0  2  0  0  3  0  0  0  0  0  0
  160.4170  211.7410  151.0230 C   0  0  0  0  0  2  0  0  0  0  0  0
  1 14  1  0  0  0  0
  2  5  1  6  0  0  0
  2  3  1  0  0  0  0
  2 13  1  0  0  0  0
  3 19  1  0  0  0  0
  4 15  2  0  0  0  0
  6  1  2  0  0  0  0
  6 17  1  0  0  0  0
  7  3  2  0  0  0  0
  7  4  1  0  0  0  0
  8 13  1  0  0  0  0
  8 23  1  1  0  0  0
  9  1  1  0  0  0  0
 11  4  1  0  0  0  0
 12  8  1  0  0  0  0
 13 18  1  1  0  0  0
 14  5  2  0  0  0  0
 15 20  1  0  0  0  0
 16  5  1  0  0  0  0
 16 12  1  0  0  0  0
 17 16  2  0  0  0  0
 18 10  1  0  0  0  0
 19 10  1  0  0  0  0
 19 20  2  0  0  0  0
 21 22  2  0  0  0  0
 22 23  1  0  0  0  0
 24 28  1  0  0  0  0
 24 27  1  0  0  0  0
 25 28  1  0  0  0  0
 29 26  1  6  0  0  0
 29 30  1  0  0  0  0
 29 31  1  0  0  0  0
 30 22  1  6  0  0  0
 30 25  1  0  0  0  0
 31 24  1  0  0  0  0
M  END
>  <MODEL>
1

>  <REMARK>
 VINA RESULT:      -6.5      0.000      0.000
  Name = 
  2 active torsions:
  status: ('A' for Active; 'I' for Inactive)
    1  A    between atoms: C_5  and  C_30
    2  A    between atoms: C_10  and  N_16
                            x       y       z     vdW  Elec       q    Type
                         _______ _______ _______ _____ _____    ______ ____

>  <TORSDO>
F 2

$$$$
=
 OpenBabel11122413303D

 31 35  0  0  1  0  0  0  0  0999 V2000
  161.1350  208.1530  138.0240 C   0  0  0  0  0  0  0  0  0  0  0  0
  159.5050  211.5130  138.7440 C   0  0  2  0  0  3  0  0  0  0  0  0
  158.0160  211.2460  138.9130 C   0  0  0  0  0  0  0  0  0  0  0  0
  156.0640  209.8280  138.6040 C   0  0  0  0  0  0  0  0  0  0  0  0
  160.3500  210.2710  138.9170 C   0  0  0  0  0  0  0  0  0  0  0  0
  161.8140  207.8970  139.2170 C   0  0  0  0  0  3  0  0  0  0  0  0
  157.4370  210.0460  138.4710 C   0  0  0  0  0  3  0  0  0  0  0  0
  160.0940  212.1450  141.1110 C   0  0  2  0  0  3  0  0  0  0  0  0
  161.1780  207.2520  137.0140 F   0  0  0  0  0  0  0  0  0  0  0  0
  157.7180  213.4740  139.8580 O   0  0  0  0  0  0  0  0  0  0  0  0
  155.4690  208.5450  138.1460 C   0  0  0  0  0  1  0  0  0  0  0  0
  161.1420  211.0360  141.2150 C   0  0  0  0  0  2  0  0  0  0  0  0
  159.9970  212.6470  139.6650 C   0  0  2  0  0  3  0  0  0  0  0  0
  160.4080  209.3350  137.8740 C   0  0  0  0  0  3  0  0  0  0  0  0
  155.2500  210.8140  139.1650 C   0  0  0  0  0  3  0  0  0  0  0  0
  161.0410  210.0110  140.1220 C   0  0  0  0  0  0  0  0  0  0  0  0
  161.7740  208.8280  140.2570 C   0  0  0  0  0  3  0  0  0  0  0  0
  159.0570  213.8480  139.5430 C   0  0  0  0  0  2  0  0  0  0  0  0
  157.1810  212.2510  139.4460 C   0  0  0  0  0  0  0  0  0  0  0  0
  155.8080  212.0240  139.5850 C   0  0  0  0  0  3  0  0  0  0  0  0
  159.7500  212.1350  143.9420 O   0  0  0  0  0  0  0  0  0  0  0  0
  160.2600  213.1640  143.4190 C   0  0  0  0  0  0  0  0  0  0  0  0
  160.4560  213.2350  142.0070 N   0  0  0  0  0  2  0  0  0  0  0  0
  162.0430  213.6770  146.6470 N   0  0  0  0  0  0  0  0  0  0  0  0
  162.0860  214.4240  144.4070 O   0  0  0  0  0  0  0  0  0  0  0  0
  158.4650  214.2220  145.5400 C   0  0  0  0  0  1  0  0  0  0  0  0
  162.5950  212.6380  147.4960 C   0  0  0  0  0  1  0  0  0  0  0  0
  162.5380  213.4230  145.2960 C   0  0  0  0  0  2  0  0  0  0  0  0
  159.9640  214.4450  145.6370 C   0  0  2  0  0  3  0  0  0  0  0  0
  160.6780  214.3300  144.2760 C   0  0  2  0  0  3  0  0  0  0  0  0
  160.5970  213.4820  146.6320 C   0  0  0  0  0  2  0  0  0  0  0  0
  1  6  1  0  0  0  0
  2  3  1  1  0  0  0
  2  5  1  0  0  0  0
  2 13  1  0  0  0  0
  3 19  1  0  0  0  0
  4 15  2  0  0  0  0
  5 16  2  0  0  0  0
  6 17  2  0  0  0  0
  7  4  1  0  0  0  0
  7  3  2  0  0  0  0
  8 12  1  0  0  0  0
  8 23  1  1  0  0  0
  9  1  1  0  0  0  0
 11  4  1  0  0  0  0
 13 18  1  1  0  0  0
 13  8  1  0  0  0  0
 14  1  2  0  0  0  0
 14  5  1  0  0  0  0
 15 20  1  0  0  0  0
 16 17  1  0  0  0  0
 16 12  1  0  0  0  0
 18 10  1  0  0  0  0
 19 20  2  0  0  0  0
 19 10  1  0  0  0  0
 22 21  2  0  0  0  0
 23 22  1  0  0  0  0
 24 27  1  0  0  0  0
 25 28  1  0  0  0  0
 28 24  1  0  0  0  0
 29 26  1  6  0  0  0
 29 31  1  0  0  0  0
 30 22  1  1  0  0  0
 30 25  1  0  0  0  0
 30 29  1  0  0  0  0
 31 24  1  0  0  0  0
M  END
>  <MODEL>
2

>  <REMARK>
 VINA RESULT:      -6.5      7.743     10.365
  Name = 
  2 active torsions:
  status: ('A' for Active; 'I' for Inactive)
    1  A    between atoms: C_5  and  C_30
    2  A    between atoms: C_10  and  N_16
                            x       y       z     vdW  Elec       q    Type
                         _______ _______ _______ _____ _____    ______ ____

>  <TORSDO>
F 2

$$$$
=
 OpenBabel11122413303D

 31 35  0  0  1  0  0  0  0  0999 V2000
  161.6710  206.3870  152.2310 C   0  0  0  0  0  0  0  0  0  0  0  0
  159.9580  209.6920  153.0090 C   0  0  2  0  0  3  0  0  0  0  0  0
  160.5510  210.1910  154.3180 C   0  0  0  0  0  0  0  0  0  0  0  0
  161.7790  209.7950  156.3810 C   0  0  0  0  0  0  0  0  0  0  0  0
  160.8280  208.6620  152.3220 C   0  0  0  0  0  0  0  0  0  0  0  0
  162.4980  206.7310  151.1600 C   0  0  0  0  0  3  0  0  0  0  0  0
  161.2670  209.3320  155.1670 C   0  0  0  0  0  3  0  0  0  0  0  0
  160.9000  211.4180  151.4330 C   0  0  2  0  0  3  0  0  0  0  0  0
  161.6800  205.1210  152.7130 F   0  0  0  0  0  0  0  0  0  0  0  0
  159.5660  212.3870  153.9350 O   0  0  0  0  0  0  0  0  0  0  0  0
  162.5480  208.8770  157.2610 C   0  0  0  0  0  1  0  0  0  0  0  0
  161.5870  210.3550  150.5750 C   0  0  0  0  0  2  0  0  0  0  0  0
  159.6160  210.8510  152.0510 C   0  0  2  0  0  3  0  0  0  0  0  0
  160.8390  207.3470  152.8080 C   0  0  0  0  0  3  0  0  0  0  0  0
  161.5650  211.1190  156.7700 C   0  0  0  0  0  3  0  0  0  0  0  0
  161.6620  209.0080  151.2360 C   0  0  0  0  0  0  0  0  0  0  0  0
  162.4850  208.0350  150.6590 C   0  0  0  0  0  3  0  0  0  0  0  0
  158.8280  211.9230  152.8070 C   0  0  0  0  0  2  0  0  0  0  0  0
  160.3100  211.5170  154.7360 C   0  0  0  0  0  0  0  0  0  0  0  0
  160.8310  211.9780  155.9480 C   0  0  0  0  0  3  0  0  0  0  0  0
  161.6350  211.7330  148.6950 O   0  0  0  0  0  0  0  0  0  0  0  0
  160.9930  212.6730  149.2390 C   0  0  0  0  0  0  0  0  0  0  0  0
  160.5990  212.5810  150.6090 N   0  0  0  0  0  2  0  0  0  0  0  0
  160.0890  213.4940  145.7230 N   0  0  0  0  0  0  0  0  0  0  0  0
  159.3120  213.8340  147.9270 O   0  0  0  0  0  0  0  0  0  0  0  0
  163.0820  214.3040  147.8920 C   0  0  0  0  0  1  0  0  0  0  0  0
  159.9760  212.5530  144.6240 C   0  0  0  0  0  1  0  0  0  0  0  0
  159.2980  212.9500  146.8250 C   0  0  0  0  0  2  0  0  0  0  0  0
  161.6500  214.3430  147.3880 C   0  0  2  0  0  3  0  0  0  0  0  0
  160.6260  213.9040  148.4530 C   0  0  2  0  0  3  0  0  0  0  0  0
  161.4880  213.4900  146.1370 C   0  0  0  0  0  2  0  0  0  0  0  0
  1  9  1  0  0  0  0
  1 14  1  0  0  0  0
  2  5  1  6  0  0  0
  2  3  1  0  0  0  0
  3 19  2  0  0  0  0
  3  7  1  0  0  0  0
  4 15  1  0  0  0  0
  4 11  1  0  0  0  0
  5 14  2  0  0  0  0
  6  1  2  0  0  0  0
  7  4  2  0  0  0  0
  8 23  1  6  0  0  0
  8 13  1  0  0  0  0
 10 19  1  0  0  0  0
 12 16  1  0  0  0  0
 12  8  1  0  0  0  0
 13 18  1  1  0  0  0
 13  2  1  0  0  0  0
 16  5  1  0  0  0  0
 17  6  1  0  0  0  0
 17 16  2  0  0  0  0
 18 10  1  0  0  0  0
 19 20  1  0  0  0  0
 20 15  2  0  0  0  0
 21 22  2  0  0  0  0
 22 23  1  0  0  0  0
 24 31  1  0  0  0  0
 24 28  1  0  0  0  0
 25 30  1  0  0  0  0
 27 24  1  0  0  0  0
 28 25  1  0  0  0  0
 29 26  1  1  0  0  0
 29 30  1  0  0  0  0
 30 22  1  6  0  0  0
 31 29  1  0  0  0  0
M  END
>  <MODEL>
3

>  <REMARK>
 VINA RESULT:      -6.2      4.331      7.127
  Name = 
  2 active torsions:
  status: ('A' for Active; 'I' for Inactive)
    1  A    between atoms: C_5  and  C_30
    2  A    between atoms: C_10  and  N_16
                            x       y       z     vdW  Elec       q    Type
                         _______ _______ _______ _____ _____    ______ ____

>  <TORSDO>
F 2

$$$$
=
 OpenBabel11122413303D

 31 35  0  0  1  0  0  0  0  0999 V2000
  161.0240  204.1130  145.3350 C   0  0  0  0  0  0  0  0  0  0  0  0
  160.4300  205.6750  148.7510 C   0  0  2  0  0  3  0  0  0  0  0  0
  160.8080  204.6220  149.7830 C   0  0  0  0  0  0  0  0  0  0  0  0
  161.2570  202.3090  150.3900 C   0  0  0  0  0  0  0  0  0  0  0  0
  161.0310  205.4090  147.3890 C   0  0  0  0  0  0  0  0  0  0  0  0
  162.1610  204.7940  144.8970 C   0  0  0  0  0  3  0  0  0  0  0  0
  160.9410  203.2700  149.4270 C   0  0  0  0  0  3  0  0  0  0  0  0
  162.2790  207.3400  149.1500 C   0  0  2  0  0  3  0  0  0  0  0  0
  160.4700  203.1510  144.5600 F   0  0  0  0  0  0  0  0  0  0  0  0
  160.7790  206.3170  151.5350 O   0  0  0  0  0  0  0  0  0  0  0  0
  161.4110  200.8850  149.9940 C   0  0  0  0  0  1  0  0  0  0  0  0
  162.7460  207.2680  147.6960 C   0  0  0  0  0  2  0  0  0  0  0  0
  160.7660  207.1010  149.2330 C   0  0  2  0  0  3  0  0  0  0  0  0
  160.4610  204.4200  146.5750 C   0  0  0  0  0  3  0  0  0  0  0  0
  161.4270  202.6850  151.7240 C   0  0  0  0  0  3  0  0  0  0  0  0
  162.1790  206.1000  146.9420 C   0  0  0  0  0  0  0  0  0  0  0  0
  162.7300  205.7900  145.6940 C   0  0  0  0  0  3  0  0  0  0  0  0
  160.2360  207.2980  150.6550 C   0  0  0  0  0  2  0  0  0  0  0  0
  160.9460  204.9870  151.1390 C   0  0  0  0  0  0  0  0  0  0  0  0
  161.2700  204.0220  152.0970 C   0  0  0  0  0  3  0  0  0  0  0  0
  161.4190  209.8480  148.1000 O   0  0  0  0  0  0  0  0  0  0  0  0
  162.1510  209.8660  149.1280 C   0  0  0  0  0  0  0  0  0  0  0  0
  162.6200  208.6450  149.7010 N   0  0  0  0  0  2  0  0  0  0  0  0
  160.5230  213.1340  149.8500 N   0  0  0  0  0  0  0  0  0  0  0  0
  161.7710  211.4470  150.9310 O   0  0  0  0  0  0  0  0  0  0  0  0
  163.3070  212.0790  147.5140 C   0  0  0  0  0  1  0  0  0  0  0  0
  159.1510  213.4960  149.5430 C   0  0  0  0  0  1  0  0  0  0  0  0
  160.4730  211.8520  150.5480 C   0  0  0  0  0  2  0  0  0  0  0  0
  162.6000  212.3860  148.8230 C   0  0  2  0  0  3  0  0  0  0  0  0
  162.5360  211.1720  149.7700 C   0  0  2  0  0  3  0  0  0  0  0  0
  161.1950  212.9180  148.5730 C   0  0  0  0  0  2  0  0  0  0  0  0
  1 14  1  0  0  0  0
  2  5  1  6  0  0  0
  2 13  1  0  0  0  0
  2  3  1  0  0  0  0
  3 19  1  0  0  0  0
  4 15  2  0  0  0  0
  6  1  2  0  0  0  0
  6 17  1  0  0  0  0
  7  3  2  0  0  0  0
  7  4  1  0  0  0  0
  8 13  1  0  0  0  0
  8 23  1  6  0  0  0
  9  1  1  0  0  0  0
 11  4  1  0  0  0  0
 12  8  1  0  0  0  0
 13 18  1  1  0  0  0
 14  5  2  0  0  0  0
 15 20  1  0  0  0  0
 16  5  1  0  0  0  0
 16 12  1  0  0  0  0
 17 16  2  0  0  0  0
 18 10  1  0  0  0  0
 19 10  1  0  0  0  0
 19 20  2  0  0  0  0
 21 22  2  0  0  0  0
 22 23  1  0  0  0  0
 24 28  1  0  0  0  0
 27 24  1  0  0  0  0
 28 25  1  0  0  0  0
 29 26  1  6  0  0  0
 29 30  1  0  0  0  0
 30 22  1  6  0  0  0
 30 25  1  0  0  0  0
 31 29  1  0  0  0  0
 31 24  1  0  0  0  0
M  END
>  <MODEL>
4

>  <REMARK>
 VINA RESULT:      -6.1      1.212      1.518
  Name = 
  2 active torsions:
  status: ('A' for Active; 'I' for Inactive)
    1  A    between atoms: C_5  and  C_30
    2  A    between atoms: C_10  and  N_16
                            x       y       z     vdW  Elec       q    Type
                         _______ _______ _______ _____ _____    ______ ____

>  <TORSDO>
F 2

$$$$
=
 OpenBabel11122413303D

 31 35  0  0  1  0  0  0  0  0999 V2000
  160.8800  206.4720  146.6390 C   0  0  0  0  0  0  0  0  0  0  0  0
  160.2270  205.0860  150.1200 C   0  0  2  0  0  3  0  0  0  0  0  0
  160.6990  203.6390  150.1070 C   0  0  0  0  0  0  0  0  0  0  0  0
  161.3290  201.6210  148.9040 C   0  0  0  0  0  0  0  0  0  0  0  0
  160.8240  205.9100  149.0010 C   0  0  0  0  0  0  0  0  0  0  0  0
  161.9560  207.3320  146.8640 C   0  0  0  0  0  3  0  0  0  0  0  0
  160.9260  202.9580  148.9010 C   0  0  0  0  0  3  0  0  0  0  0  0
  161.9540  206.0810  151.6630 C   0  0  2  0  0  3  0  0  0  0  0  0
  160.3870  206.3180  145.3870 F   0  0  0  0  0  0  0  0  0  0  0  0
  160.5730  203.5700  152.5410 O   0  0  0  0  0  0  0  0  0  0  0  0
  161.5810  200.9200  147.6180 C   0  0  0  0  0  1  0  0  0  0  0  0
  162.4010  207.0980  150.6120 C   0  0  0  0  0  2  0  0  0  0  0  0
  160.4640  205.7590  151.4870 C   0  0  2  0  0  3  0  0  0  0  0  0
  160.3150  205.7650  147.7020 C   0  0  0  0  0  3  0  0  0  0  0  0
  161.4910  200.9430  150.1130 C   0  0  0  0  0  3  0  0  0  0  0  0
  161.9100  206.7850  149.2280 C   0  0  0  0  0  0  0  0  0  0  0  0
  162.4620  207.4940  148.1560 C   0  0  0  0  0  3  0  0  0  0  0  0
  159.9440  204.8480  152.6010 C   0  0  0  0  0  2  0  0  0  0  0  0
  160.8310  202.9350  151.3230 C   0  0  0  0  0  0  0  0  0  0  0  0
  161.2420  201.5990  151.3210 C   0  0  0  0  0  3  0  0  0  0  0  0
  160.5530  208.2640  152.8490 O   0  0  0  0  0  0  0  0  0  0  0  0
  161.4630  207.7150  153.5290 C   0  0  0  0  0  0  0  0  0  0  0  0
  162.2060  206.6200  152.9920 N   0  0  0  0  0  2  0  0  0  0  0  0
  159.7760  209.7460  156.1530 N   0  0  0  0  0  0  0  0  0  0  0  0
  160.8810  207.6760  155.8860 O   0  0  0  0  0  0  0  0  0  0  0  0
  162.8110  210.3280  153.9690 C   0  0  0  0  0  1  0  0  0  0  0  0
  158.4510  210.3330  156.0640 C   0  0  0  0  0  1  0  0  0  0  0  0
  159.6380  208.3400  155.7780 C   0  0  0  0  0  2  0  0  0  0  0  0
  161.9560  209.7230  155.0690 C   0  0  2  0  0  3  0  0  0  0  0  0
  161.7760  208.2000  154.9200 C   0  0  2  0  0  3  0  0  0  0  0  0
  160.5920  210.3980  155.1350 C   0  0  0  0  0  2  0  0  0  0  0  0
  1  6  2  0  0  0  0
  1 14  1  0  0  0  0
  2  5  1  6  0  0  0
  2 13  1  0  0  0  0
  3  2  1  0  0  0  0
  3 19  1  0  0  0  0
  4 15  2  0  0  0  0
  5 16  1  0  0  0  0
  6 17  1  0  0  0  0
  7  4  1  0  0  0  0
  7  3  2  0  0  0  0
  8 23  1  1  0  0  0
  9  1  1  0  0  0  0
 10 18  1  0  0  0  0
 11  4  1  0  0  0  0
 12  8  1  0  0  0  0
 13  8  1  0  0  0  0
 13 18  1  1  0  0  0
 14  5  2  0  0  0  0
 15 20  1  0  0  0  0
 16 12  1  0  0  0  0
 17 16  2  0  0  0  0
 19 10  1  0  0  0  0
 20 19  2  0  0  0  0
 21 22  2  0  0  0  0
 23 22  1  0  0  0  0
 27 24  1  0  0  0  0
 28 25  1  0  0  0  0
 28 24  1  0  0  0  0
 29 26  1  6  0  0  0
 29 31  1  0  0  0  0
 30 22  1  6  0  0  0
 30 29  1  0  0  0  0
 30 25  1  0  0  0  0
 31 24  1  0  0  0  0
M  END
>  <MODEL>
5

>  <REMARK>
 VINA RESULT:      -6.1      2.407      3.068
  Name = 
  2 active torsions:
  status: ('A' for Active; 'I' for Inactive)
    1  A    between atoms: C_5  and  C_30
    2  A    between atoms: C_10  and  N_16
                            x       y       z     vdW  Elec       q    Type
                         _______ _______ _______ _____ _____    ______ ____

>  <TORSDO>
F 2

$$$$
=
 OpenBabel11122413303D

 31 35  0  0  1  0  0  0  0  0999 V2000
  162.0030  206.5520  147.4080 C   0  0  0  0  0  0  0  0  0  0  0  0
  162.4260  209.2140  150.0920 C   0  0  2  0  0  3  0  0  0  0  0  0
  161.7830  210.4830  149.5510 C   0  0  0  0  0  0  0  0  0  0  0  0
  160.9340  211.8090  147.6960 C   0  0  0  0  0  0  0  0  0  0  0  0
  161.9520  207.9650  149.3840 C   0  0  0  0  0  0  0  0  0  0  0  0
  161.0350  205.7200  147.9730 C   0  0  0  0  0  3  0  0  0  0  0  0
  161.4950  210.6270  148.1840 C   0  0  0  0  0  3  0  0  0  0  0  0
  160.8080  208.6780  151.9470 C   0  0  2  0  0  3  0  0  0  0  0  0
  162.4950  206.2800  146.1760 F   0  0  0  0  0  0  0  0  0  0  0  0
  161.8600  211.4780  151.7750 O   0  0  0  0  0  0  0  0  0  0  0  0
  160.6190  211.9390  146.2500 C   0  0  0  0  0  1  0  0  0  0  0  0
  160.5040  207.2940  151.3700 C   0  0  0  0  0  2  0  0  0  0  0  0
  162.2500  209.0830  151.6180 C   0  0  2  0  0  3  0  0  0  0  0  0
  162.4610  207.6690  148.1110 C   0  0  0  0  0  3  0  0  0  0  0  0
  160.6700  212.8690  148.5660 C   0  0  0  0  0  3  0  0  0  0  0  0
  160.9760  207.1180  149.9550 C   0  0  0  0  0  0  0  0  0  0  0  0
  160.5320  205.9970  149.2460 C   0  0  0  0  0  3  0  0  0  0  0  0
  162.6370  210.4010  152.2920 C   0  0  0  0  0  2  0  0  0  0  0  0
  161.5470  211.5720  150.4160 C   0  0  0  0  0  0  0  0  0  0  0  0
  160.9770  212.7500  149.9240 C   0  0  0  0  0  3  0  0  0  0  0  0
  159.3410  210.6200  153.4350 O   0  0  0  0  0  0  0  0  0  0  0  0
  159.8510  209.6580  154.0730 C   0  0  0  0  0  0  0  0  0  0  0  0
  160.6010  208.6540  153.3890 N   0  0  0  0  0  2  0  0  0  0  0  0
  161.9520  210.0990  157.1140 N   0  0  0  0  0  0  0  0  0  0  0  0
  159.8760  210.7870  156.2220 O   0  0  0  0  0  0  0  0  0  0  0  0
  160.3370  207.0880  155.4870 C   0  0  0  0  0  1  0  0  0  0  0  0
  163.3490  210.4910  157.1410 C   0  0  0  0  0  1  0  0  0  0  0  0
  161.2610  211.0670  156.2650 C   0  0  0  0  0  2  0  0  0  0  0  0
  160.4390  208.4000  156.2450 C   0  0  2  0  0  3  0  0  0  0  0  0
  159.6710  209.5490  155.5640 C   0  0  2  0  0  3  0  0  0  0  0  0
  161.8940  208.8030  156.4460 C   0  0  0  0  0  2  0  0  0  0  0  0
  1  6  2  0  0  0  0
  1 14  1  0  0  0  0
  2  5  1  6  0  0  0
  2 13  1  0  0  0  0
  3  2  1  0  0  0  0
  3 19  1  0  0  0  0
  4  7  1  0  0  0  0
  4 15  2  0  0  0  0
  5 16  1  0  0  0  0
  6 17  1  0  0  0  0
  7  3  2  0  0  0  0
  8 23  1  1  0  0  0
  9  1  1  0  0  0  0
 10 18  1  0  0  0  0
 11  4  1  0  0  0  0
 12  8  1  0  0  0  0
 13  8  1  0  0  0  0
 13 18  1  1  0  0  0
 14  5  2  0  0  0  0
 15 20  1  0  0  0  0
 16 12  1  0  0  0  0
 17 16  2  0  0  0  0
 19 10  1  0  0  0  0
 20 19  2  0  0  0  0
 21 22  2  0  0  0  0
 23 22  1  0  0  0  0
 24 27  1  0  0  0  0
 25 28  1  0  0  0  0
 28 24  1  0  0  0  0
 29 26  1  6  0  0  0
 29 31  1  0  0  0  0
 30 22  1  6  0  0  0
 30 25  1  0  0  0  0
 30 29  1  0  0  0  0
 31 24  1  0  0  0  0
M  END
>  <MODEL>
6

>  <REMARK>
 VINA RESULT:      -5.8      2.803      6.302
  Name = 
  2 active torsions:
  status: ('A' for Active; 'I' for Inactive)
    1  A    between atoms: C_5  and  C_30
    2  A    between atoms: C_10  and  N_16
                            x       y       z     vdW  Elec       q    Type
                         _______ _______ _______ _____ _____    ______ ____

>  <TORSDO>
F 2

$$$$
=
 OpenBabel11122413303D

 31 35  0  0  1  0  0  0  0  0999 V2000
  161.8380  206.4850  147.1510 C   0  0  0  0  0  0  0  0  0  0  0  0
  162.4640  209.1440  149.7970 C   0  0  2  0  0  3  0  0  0  0  0  0
  161.8080  210.4220  149.2930 C   0  0  0  0  0  0  0  0  0  0  0  0
  160.8670  211.7580  147.4900 C   0  0  0  0  0  0  0  0  0  0  0  0
  161.9290  207.9010  149.1220 C   0  0  0  0  0  0  0  0  0  0  0  0
  160.8950  205.6680  147.7760 C   0  0  0  0  0  3  0  0  0  0  0  0
  161.4390  210.5680  147.9460 C   0  0  0  0  0  3  0  0  0  0  0  0
  160.9540  208.6350  151.7490 C   0  0  2  0  0  3  0  0  0  0  0  0
  162.2490  206.2030  145.8910 F   0  0  0  0  0  0  0  0  0  0  0  0
  162.0360  211.4200  151.5050 O   0  0  0  0  0  0  0  0  0  0  0  0
  160.4660  211.8900  146.0650 C   0  0  0  0  0  1  0  0  0  0  0  0
  160.5950  207.2560  151.1950 C   0  0  0  0  0  2  0  0  0  0  0  0
  162.3800  209.0180  151.3310 C   0  0  2  0  0  3  0  0  0  0  0  0
  162.3540  207.5960  147.8210 C   0  0  0  0  0  3  0  0  0  0  0  0
  160.6730  212.8230  148.3720 C   0  0  0  0  0  3  0  0  0  0  0  0
  160.9780  207.0710  149.7540 C   0  0  0  0  0  0  0  0  0  0  0  0
  160.4740  205.9550  149.0770 C   0  0  0  0  0  3  0  0  0  0  0  0
  162.8270  210.3320  151.9770 C   0  0  0  0  0  2  0  0  0  0  0  0
  161.6410  211.5160  150.1680 C   0  0  0  0  0  0  0  0  0  0  0  0
  161.0610  212.7020  149.7090 C   0  0  0  0  0  3  0  0  0  0  0  0
  159.6950  210.6510  153.3260 O   0  0  0  0  0  0  0  0  0  0  0  0
  160.1880  209.6590  153.9300 C   0  0  0  0  0  0  0  0  0  0  0  0
  160.8360  208.6170  153.2010 N   0  0  0  0  0  2  0  0  0  0  0  0
  159.0230  211.7960  156.7470 N   0  0  0  0  0  0  0  0  0  0  0  0
  158.7550  209.6120  155.8900 O   0  0  0  0  0  0  0  0  0  0  0  0
  162.4300  210.5510  155.6670 C   0  0  0  0  0  1  0  0  0  0  0  0
  158.4510  213.1260  156.6350 C   0  0  0  0  0  1  0  0  0  0  0  0
  158.2930  210.9450  155.8100 C   0  0  0  0  0  2  0  0  0  0  0  0
  161.0170  210.5000  156.2220 C   0  0  2  0  0  3  0  0  0  0  0  0
  160.0940  209.5540  155.4300 C   0  0  2  0  0  3  0  0  0  0  0  0
  160.4010  211.8920  156.2770 C   0  0  0  0  0  2  0  0  0  0  0  0
  1  6  2  0  0  0  0
  1 14  1  0  0  0  0
  2  5  1  6  0  0  0
  2 13  1  0  0  0  0
  3  2  1  0  0  0  0
  3 19  1  0  0  0  0
  4  7  1  0  0  0  0
  4 15  2  0  0  0  0
  5 16  1  0  0  0  0
  6 17  1  0  0  0  0
  7  3  2  0  0  0  0
  8 23  1  1  0  0  0
  9  1  1  0  0  0  0
 10 18  1  0  0  0  0
 11  4  1  0  0  0  0
 12  8  1  0  0  0  0
 13  8  1  0  0  0  0
 13 18  1  1  0  0  0
 14  5  2  0  0  0  0
 15 20  1  0  0  0  0
 16 12  1  0  0  0  0
 17 16  2  0  0  0  0
 19 10  1  0  0  0  0
 20 19  2  0  0  0  0
 21 22  2  0  0  0  0
 23 22  1  0  0  0  0
 27 24  1  0  0  0  0
 28 25  1  0  0  0  0
 28 24  1  0  0  0  0
 29 26  1  6  0  0  0
 29 31  1  0  0  0  0
 30 22  1  6  0  0  0
 30 25  1  0  0  0  0
 30 29  1  0  0  0  0
 31 24  1  0  0  0  0
M  END
>  <MODEL>
7

>  <REMARK>
 VINA RESULT:      -5.4      2.741      6.063
  Name = 
  2 active torsions:
  status: ('A' for Active; 'I' for Inactive)
    1  A    between atoms: C_5  and  C_30
    2  A    between atoms: C_10  and  N_16
                            x       y       z     vdW  Elec       q    Type
                         _______ _______ _______ _____ _____    ______ ____

>  <TORSDO>
F 2

$$$$
=
 OpenBabel11122413303D

 31 35  0  0  1  0  0  0  0  0999 V2000
  162.1220  213.0160  147.9340 C   0  0  0  0  0  0  0  0  0  0  0  0
  159.7030  213.9820  150.7050 C   0  0  2  0  0  3  0  0  0  0  0  0
  158.3130  213.9920  150.0850 C   0  0  0  0  0  0  0  0  0  0  0  0
  156.8570  214.0630  148.1380 C   0  0  0  0  0  0  0  0  0  0  0  0
  160.7030  213.1850  149.8980 C   0  0  0  0  0  0  0  0  0  0  0  0
  162.4820  211.7180  148.3000 C   0  0  0  0  0  3  0  0  0  0  0  0
  158.1380  214.0220  148.6930 C   0  0  0  0  0  3  0  0  0  0  0  0
  159.4720  211.9900  152.2310 C   0  0  2  0  0  3  0  0  0  0  0  0
  162.6270  213.5650  146.8030 F   0  0  0  0  0  0  0  0  0  0  0  0
  157.3150  214.0690  152.3080 O   0  0  0  0  0  0  0  0  0  0  0  0
  156.6880  214.0780  146.6610 C   0  0  0  0  0  1  0  0  0  0  0  0
  160.6550  211.2720  151.5810 C   0  0  0  0  0  2  0  0  0  0  0  0
  159.6780  213.5090  152.1730 C   0  0  2  0  0  3  0  0  0  0  0  0
  161.2380  213.7470  148.7300 C   0  0  0  0  0  3  0  0  0  0  0  0
  155.7360  214.0910  148.9690 C   0  0  0  0  0  3  0  0  0  0  0  0
  161.0720  211.8730  150.2690 C   0  0  0  0  0  0  0  0  0  0  0  0
  161.9660  211.1530  149.4690 C   0  0  0  0  0  3  0  0  0  0  0  0
  158.5820  214.2600  152.9320 C   0  0  0  0  0  2  0  0  0  0  0  0
  157.1760  214.0560  150.9180 C   0  0  0  0  0  0  0  0  0  0  0  0
  155.8950  214.0890  150.3570 C   0  0  0  0  0  3  0  0  0  0  0  0
  160.4640  209.5270  153.2740 O   0  0  0  0  0  0  0  0  0  0  0  0
  159.8650  210.3000  154.0710 C   0  0  0  0  0  0  0  0  0  0  0  0
  159.3400  211.5460  153.6130 N   0  0  0  0  0  2  0  0  0  0  0  0
  161.9730  210.2770  157.1390 N   0  0  0  0  0  0  0  0  0  0  0  0
  159.8670  211.0340  156.3860 O   0  0  0  0  0  0  0  0  0  0  0  0
  160.4530  207.5410  155.0110 C   0  0  0  0  0  1  0  0  0  0  0  0
  163.3560  210.7090  157.2330 C   0  0  0  0  0  1  0  0  0  0  0  0
  161.2410  211.3530  156.4750 C   0  0  0  0  0  2  0  0  0  0  0  0
  160.5150  208.7030  155.9880 C   0  0  2  0  0  3  0  0  0  0  0  0
  159.7000  209.9250  155.5210 C   0  0  2  0  0  3  0  0  0  0  0  0
  161.9560  209.1170  156.2550 C   0  0  0  0  0  2  0  0  0  0  0  0
  1  6  2  0  0  0  0
  1 14  1  0  0  0  0
  2  5  1  6  0  0  0
  2 13  1  0  0  0  0
  3  2  1  0  0  0  0
  3 19  1  0  0  0  0
  4  7  1  0  0  0  0
  4 15  2  0  0  0  0
  5 16  1  0  0  0  0
  6 17  1  0  0  0  0
  7  3  2  0  0  0  0
  8 23  1  1  0  0  0
  9  1  1  0  0  0  0
 10 18  1  0  0  0  0
 11  4  1  0  0  0  0
 12  8  1  0  0  0  0
 13  8  1  0  0  0  0
 13 18  1  1  0  0  0
 14  5  2  0  0  0  0
 15 20  1  0  0  0  0
 16 12  1  0  0  0  0
 17 16  2  0  0  0  0
 19 10  1  0  0  0  0
 20 19  2  0  0  0  0
 21 22  2  0  0  0  0
 23 22  1  0  0  0  0
 24 27  1  0  0  0  0
 25 28  1  0  0  0  0
 28 24  1  0  0  0  0
 29 26  1  6  0  0  0
 29 31  1  0  0  0  0
 30 22  1  6  0  0  0
 30 29  1  0  0  0  0
 30 25  1  0  0  0  0
 31 24  1  0  0  0  0
M  END
>  <MODEL>
8

>  <REMARK>
 VINA RESULT:      -5.4      5.698      8.670
  Name = 
  2 active torsions:
  status: ('A' for Active; 'I' for Inactive)
    1  A    between atoms: C_5  and  C_30
    2  A    between atoms: C_10  and  N_16
                            x       y       z     vdW  Elec       q    Type
                         _______ _______ _______ _____ _____    ______ ____

>  <TORSDO>
F 2

$$$$
=
 OpenBabel11122413303D

 31 35  0  0  1  0  0  0  0  0999 V2000
  160.7730  201.5450  148.9460 C   0  0  0  0  0  0  0  0  0  0  0  0
  162.3130  204.8720  149.9570 C   0  0  2  0  0  3  0  0  0  0  0  0
  161.7930  205.9090  148.9720 C   0  0  0  0  0  0  0  0  0  0  0  0
  160.7610  206.4900  146.8470 C   0  0  0  0  0  0  0  0  0  0  0  0
  161.4640  203.6210  150.0000 C   0  0  0  0  0  0  0  0  0  0  0  0
  159.8430  201.3330  149.9650 C   0  0  0  0  0  3  0  0  0  0  0  0
  161.2060  205.5270  147.7550 C   0  0  0  0  0  3  0  0  0  0  0  0
  161.1340  205.6440  152.0470 C   0  0  2  0  0  3  0  0  0  0  0  0
  160.8880  200.6490  147.9370 F   0  0  0  0  0  0  0  0  0  0  0  0
  162.5930  207.6980  150.4230 O   0  0  0  0  0  0  0  0  0  0  0  0
  160.1280  206.0690  145.5700 C   0  0  0  0  0  1  0  0  0  0  0  0
  160.4560  204.2880  152.2440 C   0  0  0  0  0  2  0  0  0  0  0  0
  162.4990  205.4600  151.3710 C   0  0  2  0  0  3  0  0  0  0  0  0
  161.5810  202.6830  148.9640 C   0  0  0  0  0  3  0  0  0  0  0  0
  160.9140  207.8470  147.1360 C   0  0  0  0  0  3  0  0  0  0  0  0
  160.5250  203.4020  151.0320 C   0  0  0  0  0  0  0  0  0  0  0  0
  159.7270  202.2530  151.0090 C   0  0  0  0  0  3  0  0  0  0  0  0
  163.2690  206.7790  151.2780 C   0  0  0  0  0  2  0  0  0  0  0  0
  161.9750  207.2830  149.2400 C   0  0  0  0  0  0  0  0  0  0  0  0
  161.5210  208.2430  148.3310 C   0  0  0  0  0  3  0  0  0  0  0  0
  160.4560  208.3550  152.6170 O   0  0  0  0  0  0  0  0  0  0  0  0
  160.9260  207.6600  153.5590 C   0  0  0  0  0  0  0  0  0  0  0  0
  161.2900  206.2970  153.3400 N   0  0  0  0  0  2  0  0  0  0  0  0
  159.0950  210.0400  155.7590 N   0  0  0  0  0  0  0  0  0  0  0  0
  160.0580  207.8850  155.8160 O   0  0  0  0  0  0  0  0  0  0  0  0
  162.4100  210.2070  153.9420 C   0  0  0  0  0  1  0  0  0  0  0  0
  157.8410  210.7030  155.4500 C   0  0  0  0  0  1  0  0  0  0  0  0
  158.8940  208.6170  155.4920 C   0  0  0  0  0  2  0  0  0  0  0  0
  161.3830  209.7680  154.9710 C   0  0  2  0  0  3  0  0  0  0  0  0
  161.1030  208.2530  154.9320 C   0  0  2  0  0  3  0  0  0  0  0  0
  160.0780  210.5360  154.8030 C   0  0  0  0  0  2  0  0  0  0  0  0
  1 14  2  0  0  0  0
  1  6  1  0  0  0  0
  2  3  1  6  0  0  0
  2  5  1  0  0  0  0
  2 13  1  0  0  0  0
  3 19  1  0  0  0  0
  4 15  2  0  0  0  0
  4  7  1  0  0  0  0
  5 16  2  0  0  0  0
  6 17  2  0  0  0  0
  7  3  2  0  0  0  0
  8 12  1  0  0  0  0
  8 23  1  1  0  0  0
  9  1  1  0  0  0  0
 10 18  1  0  0  0  0
 11  4  1  0  0  0  0
 13 18  1  6  0  0  0
 13  8  1  0  0  0  0
 14  5  1  0  0  0  0
 15 20  1  0  0  0  0
 16 12  1  0  0  0  0
 17 16  1  0  0  0  0
 19 10  1  0  0  0  0
 20 19  2  0  0  0  0
 21 22  2  0  0  0  0
 23 22  1  0  0  0  0
 27 24  1  0  0  0  0
 28 24  1  0  0  0  0
 28 25  1  0  0  0  0
 29 26  1  6  0  0  0
 30 22  1  6  0  0  0
 30 29  1  0  0  0  0
 30 25  1  0  0  0  0
 31 29  1  0  0  0  0
 31 24  1  0  0  0  0
M  END
>  <MODEL>
9

>  <REMARK>
 VINA RESULT:      -5.0      2.450      4.671
  Name = 
  2 active torsions:
  status: ('A' for Active; 'I' for Inactive)
    1  A    between atoms: C_5  and  C_30
    2  A    between atoms: C_10  and  N_16
                            x       y       z     vdW  Elec       q    Type
                         _______ _______ _______ _____ _____    ______ ____

>  <TORSDO>
F 2

$$$$
