=
 OpenBabel11122413303D

 31 35  0  0  1  0  0  0  0  0999 V2000
  160.9540  206.6770  146.8690 C   0  0  0  0  0  0  0  0  0  0  0  0
  160.7480  204.9750  150.2120 N   0  0  0  0  0  0  0  0  0  0  0  0
  160.8540  203.5430  150.0100 C   0  0  0  0  0  0  0  0  0  0  0  0
  161.1100  201.6020  148.5620 C   0  0  0  0  0  0  0  0  0  0  0  0
  161.0900  205.9140  149.1710 C   0  0  0  0  0  0  0  0  0  0  0  0
  161.7890  207.7550  147.1710 C   0  0  0  0  0  3  0  0  0  0  0  0
  160.9380  202.9790  148.7260 C   0  0  0  0  0  3  0  0  0  0  0  0
  162.1360  206.1160  151.8580 C   0  0  2  0  0  3  0  0  0  0  0  0
  160.4830  206.5200  145.6080 F   0  0  0  0  0  0  0  0  0  0  0  0
  160.8690  203.2340  152.4100 O   0  0  0  0  0  0  0  0  0  0  0  0
  161.1930  201.0210  147.1970 C   0  0  0  0  0  1  0  0  0  0  0  0
  162.4030  207.2720  150.8830 C   0  0  0  0  0  2  0  0  0  0  0  0
  160.7550  205.5270  151.5750 C   0  0  2  0  0  3  0  0  0  0  0  0
  160.6020  205.7640  147.8640 C   0  0  0  0  0  3  0  0  0  0  0  0
  161.2160  200.7740  149.6820 C   0  0  0  0  0  3  0  0  0  0  0  0
  161.9290  207.0110  149.4750 C   0  0  0  0  0  0  0  0  0  0  0  0
  162.2700  207.9240  148.4710 C   0  0  0  0  0  3  0  0  0  0  0  0
  160.2890  204.5140  152.6270 C   0  0  0  0  0  2  0  0  0  0  0  0
  160.9480  202.6960  151.1290 C   0  0  0  0  0  0  0  0  0  0  0  0
  161.1390  201.3210  150.9640 C   0  0  0  0  0  3  0  0  0  0  0  0
  160.6640  208.3300  152.8920 O   0  0  0  0  0  0  0  0  0  0  0  0
  161.4360  207.7230  153.6830 C   0  0  0  0  0  0  0  0  0  0  0  0
  162.2100  206.6130  153.2260 N   0  0  0  0  0  2  0  0  0  0  0  0
  159.2990  209.8410  155.9830 C   0  0  1  0  0  3  0  0  0  0  0  0
  160.4320  207.6010  155.9860 C   0  0  0  0  0  2  0  0  0  0  0  0
  162.6790  210.1970  154.4410 O   0  0  0  0  0  1  0  0  0  0  0  0
  158.0930  210.4980  155.7520 O   0  0  0  0  0  1  0  0  0  0  0  0
  159.1170  208.3450  155.7470 C   0  0  0  0  0  2  0  0  0  0  0  0
  161.6950  209.6820  155.2870 C   0  0  2  0  0  3  0  0  0  0  0  0
  161.5630  208.1590  155.1140 C   0  0  2  0  0  3  0  0  0  0  0  0
  160.3680  210.3970  155.0480 C   0  0  0  0  0  2  0  0  0  0  0  0
  1  6  2  0  0  0  0
  1 14  1  0  0  0  0
  2 13  1  0  0  0  0
  3  2  1  0  0  0  0
  3 19  1  0  0  0  0
  4  7  1  0  0  0  0
  4 15  2  0  0  0  0
  5 16  1  0  0  0  0
  5  2  1  0  0  0  0
  6 17  1  0  0  0  0
  7  3  2  0  0  0  0
  8 23  1  1  0  0  0
  9  1  1  0  0  0  0
 10 18  1  0  0  0  0
 11  4  1  0  0  0  0
 12  8  1  0  0  0  0
 13  8  1  0  0  0  0
 13 18  1  1  0  0  0
 14  5  2  0  0  0  0
 15 20  1  0  0  0  0
 16 12  1  0  0  0  0
 17 16  2  0  0  0  0
 19 10  1  0  0  0  0
 20 19  2  0  0  0  0
 21 22  2  0  0  0  0
 23 22  1  0  0  0  0
 24 27  1  6  0  0  0
 28 24  1  0  0  0  0
 28 25  1  0  0  0  0
 29 26  1  6  0  0  0
 30 22  1  6  0  0  0
 30 29  1  0  0  0  0
 30 25  1  0  0  0  0
 31 29  1  0  0  0  0
 31 24  1  0  0  0  0
M  END
>  <MODEL>
1

>  <REMARK>
 VINA RESULT:      -8.1      0.000      0.000
  Name = 
  2 active torsions:
  status: ('A' for Active; 'I' for Inactive)
    1  A    between atoms: C_5  and  C_30
    2  A    between atoms: C_10  and  N_16
                            x       y       z     vdW  Elec       q    Type
                         _______ _______ _______ _____ _____    ______ ____

>  <TORSDO>
F 2

$$$$
=
 OpenBabel11122413303D

 31 35  0  0  1  0  0  0  0  0999 V2000
  160.9340  208.8450  154.6560 C   0  0  0  0  0  0  0  0  0  0  0  0
  161.7220  209.4680  151.0350 N   0  0  0  0  0  0  0  0  0  0  0  0
  161.5230  208.2340  150.2980 C   0  0  0  0  0  0  0  0  0  0  0  0
  160.9130  205.8790  150.2000 C   0  0  0  0  0  0  0  0  0  0  0  0
  161.2200  209.6380  152.3770 C   0  0  0  0  0  0  0  0  0  0  0  0
  160.2170  210.0010  154.9730 C   0  0  0  0  0  3  0  0  0  0  0  0
  161.1670  207.0360  150.9410 C   0  0  0  0  0  3  0  0  0  0  0  0
  160.7280  211.5580  150.2730 C   0  0  2  0  0  3  0  0  0  0  0  0
  161.1430  207.8980  155.6010 F   0  0  0  0  0  0  0  0  0  0  0  0
  161.9650  209.4250  148.2390 O   0  0  0  0  0  0  0  0  0  0  0  0
  160.5420  204.6190  150.8950 C   0  0  0  0  0  1  0  0  0  0  0  0
  160.3210  211.9280  151.7070 C   0  0  0  0  0  2  0  0  0  0  0  0
  162.0030  210.7170  150.3120 C   0  0  2  0  0  3  0  0  0  0  0  0
  161.4370  208.6660  153.3660 C   0  0  0  0  0  3  0  0  0  0  0  0
  160.9950  205.9100  148.8060 C   0  0  0  0  0  3  0  0  0  0  0  0
  160.5000  210.8100  152.7050 C   0  0  0  0  0  0  0  0  0  0  0  0
  160.0060  210.9820  154.0010 C   0  0  0  0  0  3  0  0  0  0  0  0
  162.6250  210.4770  148.9320 C   0  0  0  0  0  2  0  0  0  0  0  0
  161.6160  208.2480  148.8950 C   0  0  0  0  0  0  0  0  0  0  0  0
  161.3430  207.0950  148.1540 C   0  0  0  0  0  3  0  0  0  0  0  0
  159.8620  211.9900  147.5890 O   0  0  0  0  0  0  0  0  0  0  0  0
  160.4720  212.9320  148.1640 C   0  0  0  0  0  0  0  0  0  0  0  0
  160.9420  212.7770  149.5040 N   0  0  0  0  0  2  0  0  0  0  0  0
  161.6220  213.8250  144.6670 C   0  0  1  0  0  3  0  0  0  0  0  0
  159.7750  214.4210  146.2600 C   0  0  0  0  0  2  0  0  0  0  0  0
  163.0550  214.1840  148.0940 O   0  0  0  0  0  1  0  0  0  0  0  0
  161.9680  213.0120  143.5900 O   0  0  0  0  0  1  0  0  0  0  0  0
  160.1780  213.5460  145.0720 C   0  0  0  0  0  2  0  0  0  0  0  0
  162.1890  214.4270  147.0260 C   0  0  2  0  0  3  0  0  0  0  0  0
  160.7240  214.2280  147.4490 C   0  0  2  0  0  3  0  0  0  0  0  0
  162.5610  213.5470  145.8360 C   0  0  0  0  0  2  0  0  0  0  0  0
  1  6  1  0  0  0  0
  1  9  1  0  0  0  0
  2  5  1  0  0  0  0
  3  7  1  0  0  0  0
  3  2  1  0  0  0  0
  4 11  1  0  0  0  0
  4  7  2  0  0  0  0
  5 16  2  0  0  0  0
  5 14  1  0  0  0  0
  8 23  1  6  0  0  0
  8 13  1  0  0  0  0
  8 12  1  0  0  0  0
 10 19  1  0  0  0  0
 10 18  1  0  0  0  0
 12 16  1  0  0  0  0
 13 18  1  6  0  0  0
 13  2  1  0  0  0  0
 14  1  2  0  0  0  0
 15  4  1  0  0  0  0
 16 17  1  0  0  0  0
 17  6  2  0  0  0  0
 19  3  2  0  0  0  0
 20 15  2  0  0  0  0
 20 19  1  0  0  0  0
 21 22  2  0  0  0  0
 22 23  1  0  0  0  0
 24 27  1  6  0  0  0
 24 28  1  0  0  0  0
 24 31  1  0  0  0  0
 25 30  1  0  0  0  0
 28 25  1  0  0  0  0
 29 30  1  0  0  0  0
 29 26  1  1  0  0  0
 30 22  1  6  0  0  0
 31 29  1  0  0  0  0
M  END
>  <MODEL>
2

>  <REMARK>
 VINA RESULT:      -7.3      4.954      7.813
  Name = 
  2 active torsions:
  status: ('A' for Active; 'I' for Inactive)
    1  A    between atoms: C_5  and  C_30
    2  A    between atoms: C_10  and  N_16
                            x       y       z     vdW  Elec       q    Type
                         _______ _______ _______ _____ _____    ______ ____

>  <TORSDO>
F 2

$$$$
=
 OpenBabel11122413303D

 31 35  0  0  1  0  0  0  0  0999 V2000
  161.1970  203.9870  145.6440 C   0  0  0  0  0  0  0  0  0  0  0  0
  160.9390  205.7200  148.9680 N   0  0  0  0  0  0  0  0  0  0  0  0
  160.9760  204.7180  150.0170 C   0  0  0  0  0  0  0  0  0  0  0  0
  161.1290  202.4040  150.7580 C   0  0  0  0  0  0  0  0  0  0  0  0
  161.3160  205.4090  147.6110 C   0  0  0  0  0  0  0  0  0  0  0  0
  162.0840  204.8310  144.9740 C   0  0  0  0  0  3  0  0  0  0  0  0
  161.0240  203.3440  149.7290 C   0  0  0  0  0  3  0  0  0  0  0  0
  162.3930  207.6740  149.0480 C   0  0  2  0  0  3  0  0  0  0  0  0
  160.7090  202.8870  145.0220 F   0  0  0  0  0  0  0  0  0  0  0  0
  160.9970  206.4880  151.6670 O   0  0  0  0  0  0  0  0  0  0  0  0
  161.1730  200.9540  150.4360 C   0  0  0  0  0  1  0  0  0  0  0  0
  162.7060  207.5450  147.5490 C   0  0  0  0  0  2  0  0  0  0  0  0
  160.9840  207.1480  149.3150 C   0  0  2  0  0  3  0  0  0  0  0  0
  160.8110  204.2750  146.9550 C   0  0  0  0  0  3  0  0  0  0  0  0
  161.2060  202.8280  152.0860 C   0  0  0  0  0  3  0  0  0  0  0  0
  162.2080  206.2650  146.9250 C   0  0  0  0  0  0  0  0  0  0  0  0
  162.5830  205.9690  145.6110 C   0  0  0  0  0  3  0  0  0  0  0  0
  160.4790  207.4290  150.7350 C   0  0  0  0  0  2  0  0  0  0  0  0
  161.0400  205.1310  151.3600 C   0  0  0  0  0  0  0  0  0  0  0  0
  161.1650  204.1910  152.3860 C   0  0  0  0  0  3  0  0  0  0  0  0
  161.3700  209.8920  147.5730 O   0  0  0  0  0  0  0  0  0  0  0  0
  161.9560  210.1360  148.6630 C   0  0  0  0  0  0  0  0  0  0  0  0
  162.5010  209.0710  149.4440 N   0  0  0  0  0  2  0  0  0  0  0  0
  160.8530  213.5060  147.3330 C   0  0  1  0  0  3  0  0  0  0  0  0
  160.7430  212.1870  149.4660 C   0  0  0  0  0  2  0  0  0  0  0  0
  164.1410  211.8290  147.8860 O   0  0  0  0  0  1  0  0  0  0  0  0
  160.1590  213.8410  146.1730 O   0  0  0  0  0  1  0  0  0  0  0  0
  159.9980  212.5770  148.1880 C   0  0  0  0  0  2  0  0  0  0  0  0
  162.9350  212.4440  148.2230 C   0  0  2  0  0  3  0  0  0  0  0  0
  162.1010  211.5470  149.1540 C   0  0  2  0  0  3  0  0  0  0  0  0
  162.1650  212.8220  146.9600 C   0  0  0  0  0  2  0  0  0  0  0  0
  1 14  1  0  0  0  0
  2 13  1  0  0  0  0
  2  3  1  0  0  0  0
  3 19  1  0  0  0  0
  4 15  2  0  0  0  0
  5  2  1  0  0  0  0
  6 17  1  0  0  0  0
  6  1  2  0  0  0  0
  7  3  2  0  0  0  0
  7  4  1  0  0  0  0
  8 13  1  0  0  0  0
  8 23  1  6  0  0  0
  9  1  1  0  0  0  0
 11  4  1  0  0  0  0
 12  8  1  0  0  0  0
 13 18  1  1  0  0  0
 14  5  2  0  0  0  0
 15 20  1  0  0  0  0
 16 12  1  0  0  0  0
 16  5  1  0  0  0  0
 17 16  2  0  0  0  0
 18 10  1  0  0  0  0
 19 10  1  0  0  0  0
 19 20  2  0  0  0  0
 21 22  2  0  0  0  0
 22 23  1  0  0  0  0
 24 27  1  6  0  0  0
 24 28  1  0  0  0  0
 28 25  1  0  0  0  0
 29 26  1  6  0  0  0
 29 30  1  0  0  0  0
 30 22  1  6  0  0  0
 30 25  1  0  0  0  0
 31 24  1  0  0  0  0
 31 29  1  0  0  0  0
M  END
>  <MODEL>
3

>  <REMARK>
 VINA RESULT:      -7.1      3.507      5.110
  Name = 
  2 active torsions:
  status: ('A' for Active; 'I' for Inactive)
    1  A    between atoms: C_5  and  C_30
    2  A    between atoms: C_10  and  N_16
                            x       y       z     vdW  Elec       q    Type
                         _______ _______ _______ _____ _____    ______ ____

>  <TORSDO>
F 2

$$$$
=
 OpenBabel11122413303D

 31 35  0  0  1  0  0  0  0  0999 V2000
  161.3110  202.0660  150.8310 C   0  0  0  0  0  0  0  0  0  0  0  0
  161.8970  205.3880  149.1770 N   0  0  0  0  0  0  0  0  0  0  0  0
  161.5810  205.2660  147.7670 C   0  0  0  0  0  0  0  0  0  0  0  0
  160.8360  203.9640  145.8490 C   0  0  0  0  0  0  0  0  0  0  0  0
  161.4930  204.3860  150.1330 C   0  0  0  0  0  0  0  0  0  0  0  0
  160.6810  202.4650  152.0120 C   0  0  0  0  0  3  0  0  0  0  0  0
  161.2010  204.0400  147.1950 C   0  0  0  0  0  3  0  0  0  0  0  0
  160.9740  207.2030  150.5160 C   0  0  2  0  0  3  0  0  0  0  0  0
  161.5270  200.7500  150.5920 F   0  0  0  0  0  0  0  0  0  0  0  0
  161.9550  207.6420  147.5060 O   0  0  0  0  0  0  0  0  0  0  0  0
  160.4410  202.6590  145.2590 C   0  0  0  0  0  1  0  0  0  0  0  0
  160.6820  206.2430  151.6790 C   0  0  0  0  0  2  0  0  0  0  0  0
  162.2000  206.7080  149.7500 C   0  0  2  0  0  3  0  0  0  0  0  0
  161.7190  203.0210  149.8980 C   0  0  0  0  0  3  0  0  0  0  0  0
  160.8290  205.1180  145.0620 C   0  0  0  0  0  3  0  0  0  0  0  0
  160.8630  204.7860  151.3340 C   0  0  0  0  0  0  0  0  0  0  0  0
  160.4640  203.8210  152.2650 C   0  0  0  0  0  3  0  0  0  0  0  0
  162.7170  207.7030  148.7050 C   0  0  0  0  0  2  0  0  0  0  0  0
  161.5840  206.4170  146.9600 C   0  0  0  0  0  0  0  0  0  0  0  0
  161.2000  206.3440  145.6180 C   0  0  0  0  0  3  0  0  0  0  0  0
  160.4720  208.0310  153.2000 O   0  0  0  0  0  0  0  0  0  0  0  0
  160.9420  208.8880  152.4030 C   0  0  0  0  0  0  0  0  0  0  0  0
  161.2060  208.5420  151.0430 N   0  0  0  0  0  2  0  0  0  0  0  0
  160.5960  210.6780  155.7230 C   0  0  1  0  0  3  0  0  0  0  0  0
  162.3230  210.3280  153.9350 C   0  0  0  0  0  2  0  0  0  0  0  0
  158.9500  210.9550  152.3850 O   0  0  0  0  0  1  0  0  0  0  0  0
  160.1370  210.2230  156.9570 O   0  0  0  0  0  1  0  0  0  0  0  0
  161.8040  209.8520  155.2930 C   0  0  0  0  0  2  0  0  0  0  0  0
  159.9720  211.0510  153.3310 C   0  0  2  0  0  3  0  0  0  0  0  0
  161.2250  210.2880  152.8660 C   0  0  2  0  0  3  0  0  0  0  0  0
  159.4810  210.5600  154.6900 C   0  0  0  0  0  2  0  0  0  0  0  0
  1  6  1  0  0  0  0
  2 13  1  0  0  0  0
  2  5  1  0  0  0  0
  3  2  1  0  0  0  0
  4  7  2  0  0  0  0
  5 16  2  0  0  0  0
  6 17  2  0  0  0  0
  7  3  1  0  0  0  0
  8 23  1  1  0  0  0
  8 12  1  0  0  0  0
  9  1  1  0  0  0  0
 10 18  1  0  0  0  0
 11  4  1  0  0  0  0
 13 18  1  6  0  0  0
 13  8  1  0  0  0  0
 14  5  1  0  0  0  0
 14  1  2  0  0  0  0
 15 20  2  0  0  0  0
 15  4  1  0  0  0  0
 16 12  1  0  0  0  0
 16 17  1  0  0  0  0
 19 10  1  0  0  0  0
 19  3  2  0  0  0  0
 20 19  1  0  0  0  0
 22 21  2  0  0  0  0
 23 22  1  0  0  0  0
 24 27  1  1  0  0  0
 25 28  1  0  0  0  0
 28 24  1  0  0  0  0
 29 26  1  6  0  0  0
 29 31  1  0  0  0  0
 30 22  1  1  0  0  0
 30 29  1  0  0  0  0
 30 25  1  0  0  0  0
 31 24  1  0  0  0  0
M  END
>  <MODEL>
4

>  <REMARK>
 VINA RESULT:      -7.0      2.342      4.196
  Name = 
  2 active torsions:
  status: ('A' for Active; 'I' for Inactive)
    1  A    between atoms: C_5  and  C_30
    2  A    between atoms: C_10  and  N_16
                            x       y       z     vdW  Elec       q    Type
                         _______ _______ _______ _____ _____    ______ ____

>  <TORSDO>
F 2

$$$$
=
 OpenBabel11122413303D

 31 35  0  0  1  0  0  0  0  0999 V2000
  158.6400  213.2330  153.3700 C   0  0  0  0  0  0  0  0  0  0  0  0
  160.8300  212.4190  150.4270 N   0  0  0  0  0  0  0  0  0  0  0  0
  161.2450  211.0330  150.5280 C   0  0  0  0  0  0  0  0  0  0  0  0
  161.2500  208.8810  151.6670 C   0  0  0  0  0  0  0  0  0  0  0  0
  159.7530  212.9470  151.2290 C   0  0  0  0  0  0  0  0  0  0  0  0
  157.6340  213.9800  152.7530 C   0  0  0  0  0  3  0  0  0  0  0  0
  160.8950  210.2320  151.6280 C   0  0  0  0  0  3  0  0  0  0  0  0
  159.8770  213.2950  148.3620 C   0  0  2  0  0  3  0  0  0  0  0  0
  158.5910  213.0050  154.7040 F   0  0  0  0  0  0  0  0  0  0  0  0
  162.3120  211.2240  148.3650 O   0  0  0  0  0  0  0  0  0  0  0  0
  160.8750  208.0490  152.8400 C   0  0  0  0  0  1  0  0  0  0  0  0
  158.8000  214.0620  149.1440 C   0  0  0  0  0  2  0  0  0  0  0  0
  161.1400  213.1920  149.2160 C   0  0  2  0  0  3  0  0  0  0  0  0
  159.6960  212.7220  152.6130 C   0  0  0  0  0  3  0  0  0  0  0  0
  161.9440  208.3100  150.5980 C   0  0  0  0  0  3  0  0  0  0  0  0
  158.7370  213.7110  150.6100 C   0  0  0  0  0  0  0  0  0  0  0  0
  157.6860  214.2230  151.3780 C   0  0  0  0  0  3  0  0  0  0  0  0
  162.3540  212.6430  148.4570 C   0  0  0  0  0  2  0  0  0  0  0  0
  161.9570  210.4490  149.4650 C   0  0  0  0  0  0  0  0  0  0  0  0
  162.2940  209.0930  149.4960 C   0  0  0  0  0  3  0  0  0  0  0  0
  159.8170  212.1230  145.7620 O   0  0  0  0  0  0  0  0  0  0  0  0
  160.1000  213.3500  145.8430 C   0  0  0  0  0  0  0  0  0  0  0  0
  160.1570  213.9950  147.1160 N   0  0  0  0  0  2  0  0  0  0  0  0
  160.9030  212.4450  142.2530 C   0  0  1  0  0  3  0  0  0  0  0  0
  159.3280  213.9340  143.5210 C   0  0  0  0  0  2  0  0  0  0  0  0
  162.7650  214.0670  145.0520 O   0  0  0  0  0  1  0  0  0  0  0  0
  161.0370  211.2030  141.6390 O   0  0  0  0  0  1  0  0  0  0  0  0
  159.4980  212.5790  142.8320 C   0  0  0  0  0  2  0  0  0  0  0  0
  161.8060  213.9360  144.0470 C   0  0  2  0  0  3  0  0  0  0  0  0
  160.3890  214.1510  144.6060 C   0  0  2  0  0  3  0  0  0  0  0  0
  161.9440  212.5790  143.3600 C   0  0  0  0  0  2  0  0  0  0  0  0
  1  9  1  0  0  0  0
  2  3  1  0  0  0  0
  2  5  1  0  0  0  0
  3  7  1  0  0  0  0
  4 11  1  0  0  0  0
  5 14  1  0  0  0  0
  6  1  1  0  0  0  0
  7  4  2  0  0  0  0
  8 23  1  6  0  0  0
  8 12  1  0  0  0  0
  8 13  1  0  0  0  0
 10 18  1  0  0  0  0
 10 19  1  0  0  0  0
 12 16  1  0  0  0  0
 13 18  1  6  0  0  0
 13  2  1  0  0  0  0
 14  1  2  0  0  0  0
 15  4  1  0  0  0  0
 16  5  2  0  0  0  0
 16 17  1  0  0  0  0
 17  6  2  0  0  0  0
 19 20  1  0  0  0  0
 19  3  2  0  0  0  0
 20 15  2  0  0  0  0
 21 22  2  0  0  0  0
 22 23  1  0  0  0  0
 24 27  1  1  0  0  0
 24 28  1  0  0  0  0
 24 31  1  0  0  0  0
 25 30  1  0  0  0  0
 28 25  1  0  0  0  0
 29 30  1  0  0  0  0
 29 26  1  1  0  0  0
 30 22  1  1  0  0  0
 31 29  1  0  0  0  0
M  END
>  <MODEL>
5

>  <REMARK>
 VINA RESULT:      -6.5      6.320      9.856
  Name = 
  2 active torsions:
  status: ('A' for Active; 'I' for Inactive)
    1  A    between atoms: C_5  and  C_30
    2  A    between atoms: C_10  and  N_16
                            x       y       z     vdW  Elec       q    Type
                         _______ _______ _______ _____ _____    ______ ____

>  <TORSDO>
F 2

$$$$
=
 OpenBabel11122413303D

 31 35  0  0  1  0  0  0  0  0999 V2000
  160.6940  206.5480  146.8780 C   0  0  0  0  0  0  0  0  0  0  0  0
  160.7200  206.0920  150.6070 N   0  0  0  0  0  0  0  0  0  0  0  0
  160.8580  204.6780  150.9010 C   0  0  0  0  0  0  0  0  0  0  0  0
  161.0930  202.3610  150.1900 C   0  0  0  0  0  0  0  0  0  0  0  0
  160.9770  206.6210  149.2900 C   0  0  0  0  0  0  0  0  0  0  0  0
  161.5120  207.6710  146.7420 C   0  0  0  0  0  3  0  0  0  0  0  0
  160.8900  203.7090  149.8830 C   0  0  0  0  0  3  0  0  0  0  0  0
  162.1600  207.7410  151.6770 C   0  0  2  0  0  3  0  0  0  0  0  0
  160.1610  205.9630  145.7780 F   0  0  0  0  0  0  0  0  0  0  0  0
  161.0110  205.2110  153.2560 O   0  0  0  0  0  0  0  0  0  0  0  0
  161.1200  201.3490  149.1030 C   0  0  0  0  0  1  0  0  0  0  0  0
  162.3390  208.4960  150.3510 C   0  0  0  0  0  2  0  0  0  0  0  0
  160.7840  207.0780  151.6970 C   0  0  2  0  0  3  0  0  0  0  0  0
  160.4240  206.0270  148.1450 C   0  0  0  0  0  3  0  0  0  0  0  0
  161.2850  201.9680  151.5160 C   0  0  0  0  0  3  0  0  0  0  0  0
  161.7980  207.7640  149.1490 C   0  0  0  0  0  0  0  0  0  0  0  0
  162.0570  208.2800  147.8750 C   0  0  0  0  0  3  0  0  0  0  0  0
  160.4060  206.4820  153.0580 C   0  0  0  0  0  2  0  0  0  0  0  0
  161.0370  204.2670  152.2330 C   0  0  0  0  0  0  0  0  0  0  0  0
  161.2600  202.9210  152.5360 C   0  0  0  0  0  3  0  0  0  0  0  0
  160.6150  210.1140  152.0290 O   0  0  0  0  0  0  0  0  0  0  0  0
  161.4780  209.8440  152.9070 C   0  0  0  0  0  0  0  0  0  0  0  0
  162.2930  208.6770  152.7860 N   0  0  0  0  0  2  0  0  0  0  0  0
  160.4940  209.6370  156.5590 C   0  0  1  0  0  3  0  0  0  0  0  0
  162.5380  210.0940  155.1750 C   0  0  0  0  0  2  0  0  0  0  0  0
  159.5410  211.8160  153.6830 O   0  0  0  0  0  1  0  0  0  0  0  0
  159.7980  208.6530  157.2570 O   0  0  0  0  0  1  0  0  0  0  0  0
  161.7590  209.0340  155.9550 C   0  0  0  0  0  2  0  0  0  0  0  0
  160.3570  211.2830  154.6820 C   0  0  2  0  0  3  0  0  0  0  0  0
  161.6720  210.7470  154.0910 C   0  0  2  0  0  3  0  0  0  0  0  0
  159.6040  210.2070  155.4600 C   0  0  0  0  0  2  0  0  0  0  0  0
  1 14  1  0  0  0  0
  2  3  1  0  0  0  0
  2 13  1  0  0  0  0
  3 19  1  0  0  0  0
  4 15  2  0  0  0  0
  5  2  1  0  0  0  0
  6  1  2  0  0  0  0
  6 17  1  0  0  0  0
  7  4  1  0  0  0  0
  7  3  2  0  0  0  0
  8 13  1  0  0  0  0
  8 23  1  1  0  0  0
  9  1  1  0  0  0  0
 11  4  1  0  0  0  0
 12  8  1  0  0  0  0
 13 18  1  1  0  0  0
 14  5  2  0  0  0  0
 15 20  1  0  0  0  0
 16  5  1  0  0  0  0
 16 12  1  0  0  0  0
 17 16  2  0  0  0  0
 18 10  1  0  0  0  0
 19 20  2  0  0  0  0
 19 10  1  0  0  0  0
 21 22  2  0  0  0  0
 23 22  1  0  0  0  0
 24 27  1  6  0  0  0
 25 28  1  0  0  0  0
 28 24  1  0  0  0  0
 29 26  1  6  0  0  0
 29 31  1  0  0  0  0
 30 22  1  6  0  0  0
 30 29  1  0  0  0  0
 30 25  1  0  0  0  0
 31 24  1  0  0  0  0
M  END
>  <MODEL>
6

>  <REMARK>
 VINA RESULT:      -6.2      1.430      1.911
  Name = 
  2 active torsions:
  status: ('A' for Active; 'I' for Inactive)
    1  A    between atoms: C_5  and  C_30
    2  A    between atoms: C_10  and  N_16
                            x       y       z     vdW  Elec       q    Type
                         _______ _______ _______ _____ _____    ______ ____

>  <TORSDO>
F 2

$$$$
=
 OpenBabel11122413303D

 31 35  0  0  1  0  0  0  0  0999 V2000
  160.9480  204.6950  145.2440 C   0  0  0  0  0  0  0  0  0  0  0  0
  160.9080  205.1270  148.9760 N   0  0  0  0  0  0  0  0  0  0  0  0
  160.9690  203.8160  149.5950 C   0  0  0  0  0  0  0  0  0  0  0  0
  161.0920  201.3880  149.4510 C   0  0  0  0  0  0  0  0  0  0  0  0
  161.2080  205.3180  147.5780 C   0  0  0  0  0  0  0  0  0  0  0  0
  161.8240  205.7150  144.8680 C   0  0  0  0  0  3  0  0  0  0  0  0
  160.9620  202.6350  148.8330 C   0  0  0  0  0  3  0  0  0  0  0  0
  162.4210  206.9090  149.6640 C   0  0  2  0  0  3  0  0  0  0  0  0
  160.3970  203.8950  144.2990 F   0  0  0  0  0  0  0  0  0  0  0  0
  161.1240  204.8780  151.7630 O   0  0  0  0  0  0  0  0  0  0  0  0
  161.0780  200.1490  148.6320 C   0  0  0  0  0  1  0  0  0  0  0  0
  162.6530  207.3230  148.2020 C   0  0  0  0  0  2  0  0  0  0  0  0
  161.0120  206.3360  149.8060 C   0  0  2  0  0  3  0  0  0  0  0  0
  160.6370  204.4990  146.5910 C   0  0  0  0  0  3  0  0  0  0  0  0
  161.2480  201.3090  150.8370 C   0  0  0  0  0  3  0  0  0  0  0  0
  162.0880  206.3550  147.1920 C   0  0  0  0  0  0  0  0  0  0  0  0
  162.3880  206.5460  145.8400 C   0  0  0  0  0  3  0  0  0  0  0  0
  160.5880  206.0950  151.2600 C   0  0  0  0  0  2  0  0  0  0  0  0
  161.1120  203.7210  150.9900 C   0  0  0  0  0  0  0  0  0  0  0  0
  161.2610  202.4740  151.6050 C   0  0  0  0  0  3  0  0  0  0  0  0
  161.5360  209.5540  149.0600 O   0  0  0  0  0  0  0  0  0  0  0  0
  162.1130  209.3700  150.1670 C   0  0  0  0  0  0  0  0  0  0  0  0
  162.5890  208.0720  150.5250 N   0  0  0  0  0  2  0  0  0  0  0  0
  159.8540  211.1940  152.5990 C   0  0  1  0  0  3  0  0  0  0  0  0
  162.1050  210.0810  152.5790 C   0  0  0  0  0  2  0  0  0  0  0  0
  161.6220  212.1030  149.4410 O   0  0  0  0  0  1  0  0  0  0  0  0
  158.5060  211.0130  152.8960 O   0  0  0  0  0  1  0  0  0  0  0  0
  160.6200  209.9110  152.9060 C   0  0  0  0  0  2  0  0  0  0  0  0
  161.4810  211.7570  150.7850 C   0  0  2  0  0  3  0  0  0  0  0  0
  162.3160  210.5100  151.1220 C   0  0  2  0  0  3  0  0  0  0  0  0
  160.0060  211.5600  151.1260 C   0  0  0  0  0  2  0  0  0  0  0  0
  1 14  1  0  0  0  0
  2  3  1  0  0  0  0
  2 13  1  0  0  0  0
  3 19  1  0  0  0  0
  4 15  2  0  0  0  0
  5  2  1  0  0  0  0
  6  1  2  0  0  0  0
  6 17  1  0  0  0  0
  7  4  1  0  0  0  0
  7  3  2  0  0  0  0
  8 13  1  0  0  0  0
  8 23  1  1  0  0  0
  9  1  1  0  0  0  0
 11  4  1  0  0  0  0
 12  8  1  0  0  0  0
 13 18  1  1  0  0  0
 14  5  2  0  0  0  0
 15 20  1  0  0  0  0
 16  5  1  0  0  0  0
 16 12  1  0  0  0  0
 17 16  2  0  0  0  0
 18 10  1  0  0  0  0
 19 20  2  0  0  0  0
 19 10  1  0  0  0  0
 21 22  2  0  0  0  0
 22 23  1  0  0  0  0
 24 27  1  6  0  0  0
 24 28  1  0  0  0  0
 25 28  1  0  0  0  0
 29 26  1  6  0  0  0
 29 30  1  0  0  0  0
 29 31  1  0  0  0  0
 30 22  1  6  0  0  0
 30 25  1  0  0  0  0
 31 24  1  0  0  0  0
M  END
>  <MODEL>
7

>  <REMARK>
 VINA RESULT:      -6.0      2.370      2.954
  Name = 
  2 active torsions:
  status: ('A' for Active; 'I' for Inactive)
    1  A    between atoms: C_5  and  C_30
    2  A    between atoms: C_10  and  N_16
                            x       y       z     vdW  Elec       q    Type
                         _______ _______ _______ _____ _____    ______ ____

>  <TORSDO>
F 2

$$$$
=
 OpenBabel11122413303D

 31 35  0  0  1  0  0  0  0  0999 V2000
  161.6400  206.4610  147.0500 C   0  0  0  0  0  0  0  0  0  0  0  0
  162.0260  209.1230  149.6730 N   0  0  0  0  0  0  0  0  0  0  0  0
  161.6620  210.4010  149.0930 C   0  0  0  0  0  0  0  0  0  0  0  0
  160.8960  211.7590  147.2220 C   0  0  0  0  0  0  0  0  0  0  0  0
  161.7010  207.8760  149.0240 C   0  0  0  0  0  0  0  0  0  0  0  0
  161.0410  205.4410  147.7930 C   0  0  0  0  0  3  0  0  0  0  0  0
  161.3100  210.5280  147.7390 C   0  0  0  0  0  3  0  0  0  0  0  0
  161.0830  208.3950  151.7990 C   0  0  2  0  0  3  0  0  0  0  0  0
  161.9010  206.2740  145.7340 F   0  0  0  0  0  0  0  0  0  0  0  0
  161.9280  211.4320  151.2660 O   0  0  0  0  0  0  0  0  0  0  0  0
  160.5320  211.8770  145.7870 C   0  0  0  0  0  1  0  0  0  0  0  0
  160.8760  206.9720  151.2600 C   0  0  0  0  0  2  0  0  0  0  0  0
  162.2970  209.0210  151.1150 C   0  0  2  0  0  3  0  0  0  0  0  0
  161.9730  207.6710  147.6620 C   0  0  0  0  0  3  0  0  0  0  0  0
  160.8120  212.8740  148.0590 C   0  0  0  0  0  3  0  0  0  0  0  0
  161.1020  206.8380  149.7740 C   0  0  0  0  0  0  0  0  0  0  0  0
  160.7790  205.6280  149.1520 C   0  0  0  0  0  3  0  0  0  0  0  0
  162.7330  210.3550  151.7320 C   0  0  0  0  0  2  0  0  0  0  0  0
  161.5860  211.5350  149.9210 C   0  0  0  0  0  0  0  0  0  0  0  0
  161.1540  212.7610  149.4080 C   0  0  0  0  0  3  0  0  0  0  0  0
  160.0080  210.2470  153.6850 O   0  0  0  0  0  0  0  0  0  0  0  0
  160.7040  209.2950  154.1330 C   0  0  0  0  0  0  0  0  0  0  0  0
  161.2800  208.3400  153.2410 N   0  0  0  0  0  2  0  0  0  0  0  0
  159.7510  211.3600  157.1630 C   0  0  1  0  0  3  0  0  0  0  0  0
  159.6400  208.9740  156.3900 C   0  0  0  0  0  2  0  0  0  0  0  0
  162.9540  210.4950  155.4530 O   0  0  0  0  0  1  0  0  0  0  0  0
  159.0370  212.5510  157.2610 O   0  0  0  0  0  1  0  0  0  0  0  0
  158.8740  210.2920  156.5170 C   0  0  0  0  0  2  0  0  0  0  0  0
  161.7980  210.2870  156.2060 C   0  0  2  0  0  3  0  0  0  0  0  0
  160.9470  209.1540  155.6080 C   0  0  2  0  0  3  0  0  0  0  0  0
  161.0070  211.5870  156.3270 C   0  0  0  0  0  2  0  0  0  0  0  0
  1 14  2  0  0  0  0
  1  6  1  0  0  0  0
  2 13  1  0  0  0  0
  3  2  1  0  0  0  0
  3 19  1  0  0  0  0
  4  7  1  0  0  0  0
  4 15  2  0  0  0  0
  5  2  1  0  0  0  0
  5 16  2  0  0  0  0
  6 17  2  0  0  0  0
  7  3  2  0  0  0  0
  8 23  1  1  0  0  0
  9  1  1  0  0  0  0
 10 18  1  0  0  0  0
 11  4  1  0  0  0  0
 12  8  1  0  0  0  0
 13 18  1  1  0  0  0
 13  8  1  0  0  0  0
 14  5  1  0  0  0  0
 15 20  1  0  0  0  0
 16 12  1  0  0  0  0
 17 16  1  0  0  0  0
 19 10  1  0  0  0  0
 20 19  2  0  0  0  0
 21 22  2  0  0  0  0
 23 22  1  0  0  0  0
 24 27  1  6  0  0  0
 25 28  1  0  0  0  0
 28 24  1  0  0  0  0
 29 26  1  6  0  0  0
 29 31  1  0  0  0  0
 30 22  1  6  0  0  0
 30 29  1  0  0  0  0
 30 25  1  0  0  0  0
 31 24  1  0  0  0  0
M  END
>  <MODEL>
8

>  <REMARK>
 VINA RESULT:      -5.7      2.703      5.427
  Name = 
  2 active torsions:
  status: ('A' for Active; 'I' for Inactive)
    1  A    between atoms: C_5  and  C_30
    2  A    between atoms: C_10  and  N_16
                            x       y       z     vdW  Elec       q    Type
                         _______ _______ _______ _____ _____    ______ ____

>  <TORSDO>
F 2

$$$$
=
 OpenBabel11122413303D

 31 35  0  0  1  0  0  0  0  0999 V2000
  162.2070  213.3050  147.1790 C   0  0  0  0  0  0  0  0  0  0  0  0
  159.8680  213.4320  150.1170 N   0  0  0  0  0  0  0  0  0  0  0  0
  158.5310  213.7210  149.6330 C   0  0  0  0  0  0  0  0  0  0  0  0
  156.9660  214.1810  147.8250 C   0  0  0  0  0  0  0  0  0  0  0  0
  160.9240  213.0230  149.2240 C   0  0  0  0  0  0  0  0  0  0  0  0
  162.9820  212.1890  147.5060 C   0  0  0  0  0  3  0  0  0  0  0  0
  158.2720  213.9740  148.2750 C   0  0  0  0  0  3  0  0  0  0  0  0
  160.2750  211.5720  151.6380 C   0  0  2  0  0  3  0  0  0  0  0  0
  162.4480  213.9820  146.0310 F   0  0  0  0  0  0  0  0  0  0  0  0
  157.6840  213.4270  151.8800 O   0  0  0  0  0  0  0  0  0  0  0  0
  156.7100  214.4500  146.3860 C   0  0  0  0  0  1  0  0  0  0  0  0
  161.5400  211.1710  150.8630 C   0  0  0  0  0  2  0  0  0  0  0  0
  160.0770  213.0830  151.5300 C   0  0  2  0  0  3  0  0  0  0  0  0
  161.1860  213.7230  148.0350 C   0  0  0  0  0  3  0  0  0  0  0  0
  155.9000  214.1200  148.7250 C   0  0  0  0  0  3  0  0  0  0  0  0
  161.7170  211.9000  149.5540 C   0  0  0  0  0  0  0  0  0  0  0  0
  162.7410  211.4930  148.6930 C   0  0  0  0  0  3  0  0  0  0  0  0
  158.9740  213.6270  152.4450 C   0  0  0  0  0  2  0  0  0  0  0  0
  157.4500  213.6770  150.5310 C   0  0  0  0  0  0  0  0  0  0  0  0
  156.1420  213.8660  150.0760 C   0  0  0  0  0  3  0  0  0  0  0  0
  160.4740  208.8840  152.5720 O   0  0  0  0  0  0  0  0  0  0  0  0
  160.5220  209.8050  153.4320 C   0  0  0  0  0  0  0  0  0  0  0  0
  160.4170  211.1730  153.0310 N   0  0  0  0  0  2  0  0  0  0  0  0
  159.5370  211.5730  156.6340 C   0  0  1  0  0  3  0  0  0  0  0  0
  159.3270  209.3010  155.5870 C   0  0  0  0  0  2  0  0  0  0  0  0
  162.7670  210.7030  154.9790 O   0  0  0  0  0  1  0  0  0  0  0  0
  158.8890  212.7890  156.8370 O   0  0  0  0  0  1  0  0  0  0  0  0
  158.6340  210.6420  155.8310 C   0  0  0  0  0  2  0  0  0  0  0  0
  161.5640  210.4860  155.6520 C   0  0  2  0  0  3  0  0  0  0  0  0
  160.6810  209.4840  154.8900 C   0  0  2  0  0  3  0  0  0  0  0  0
  160.8450  211.8120  155.8870 C   0  0  0  0  0  2  0  0  0  0  0  0
  1  6  2  0  0  0  0
  1 14  1  0  0  0  0
  2 13  1  0  0  0  0
  3  2  1  0  0  0  0
  3 19  1  0  0  0  0
  4  7  1  0  0  0  0
  4 15  2  0  0  0  0
  5 16  1  0  0  0  0
  5  2  1  0  0  0  0
  6 17  1  0  0  0  0
  7  3  2  0  0  0  0
  8 23  1  1  0  0  0
  9  1  1  0  0  0  0
 10 18  1  0  0  0  0
 11  4  1  0  0  0  0
 12  8  1  0  0  0  0
 13  8  1  0  0  0  0
 13 18  1  1  0  0  0
 14  5  2  0  0  0  0
 15 20  1  0  0  0  0
 16 12  1  0  0  0  0
 17 16  2  0  0  0  0
 19 10  1  0  0  0  0
 20 19  2  0  0  0  0
 21 22  2  0  0  0  0
 23 22  1  0  0  0  0
 24 27  1  6  0  0  0
 25 28  1  0  0  0  0
 28 24  1  0  0  0  0
 29 26  1  6  0  0  0
 29 31  1  0  0  0  0
 30 22  1  6  0  0  0
 30 25  1  0  0  0  0
 30 29  1  0  0  0  0
 31 24  1  0  0  0  0
M  END
>  <MODEL>
9

>  <REMARK>
 VINA RESULT:      -5.6      5.608      7.727
  Name = 
  2 active torsions:
  status: ('A' for Active; 'I' for Inactive)
    1  A    between atoms: C_5  and  C_30
    2  A    between atoms: C_10  and  N_16
                            x       y       z     vdW  Elec       q    Type
                         _______ _______ _______ _____ _____    ______ ____

>  <TORSDO>
F 2

$$$$
