=
 OpenBabel11122413393D

 37 43  0  0  1  0  0  0  0  0999 V2000
  161.3170  209.6340  155.0800 C   0  0  0  0  0  3  0  0  0  0  0  0
  161.7200  205.6050  152.4770 C   0  0  1  0  0  0  0  0  0  0  0  0
  161.1600  209.4380  150.7220 N   0  0  0  0  0  0  0  0  0  0  0  0
  161.3750  210.1190  156.5010 C   0  0  2  0  0  3  0  0  0  0  0  0
  159.6150  212.3290  152.6900 C   0  0  0  0  0  2  0  0  0  0  0  0
  161.8690  207.1590  150.4360 C   0  0  0  0  0  0  0  0  0  0  0  0
  160.2730  210.1080  151.6700 C   0  0  2  0  0  3  0  0  0  0  0  0
  159.6930  211.9900  156.4580 C   0  0  2  0  0  3  0  0  0  0  0  0
  161.5560  208.1830  151.2390 C   0  0  2  0  0  3  0  0  0  0  0  0
  160.7230  211.5550  151.9860 C   0  0  1  0  0  3  0  0  0  0  0  0
  161.8700  207.3760  148.9800 C   0  0  0  0  0  3  0  0  0  0  0  0
  161.1760  211.6270  156.5870 C   0  0  0  0  0  2  0  0  0  0  0  0
  161.2600  208.0480  152.6770 C   0  0  2  0  0  3  0  0  0  0  0  0
  162.9340  205.7350  153.1540 O   0  0  0  0  0  1  0  0  0  0  0  0
  162.3400  210.8340  149.0480 C   0  0  0  0  0  2  0  0  0  0  0  0
  161.5790  208.5700  148.4510 C   0  0  0  0  0  3  0  0  0  0  0  0
  160.7260  206.6540  152.9880 C   0  0  0  0  0  2  0  0  0  0  0  0
  159.1760  211.8620  155.0870 N   0  0  1  0  0  0  0  0  0  0  0  0
  160.0290  212.5850  154.1270 C   0  0  0  0  0  2  0  0  0  0  0  0
  161.2620  209.7790  149.2970 C   0  0  0  0  0  0  0  0  0  0  0  0
  160.2120  209.1440  152.9000 C   0  0  1  0  0  3  0  0  0  0  0  0
  161.9630  205.7460  150.9620 C   0  0  0  0  0  2  0  0  0  0  0  0
  161.2360  212.3800  150.7900 C   0  0  1  0  0  3  0  0  0  0  0  0
  161.1570  204.2260  152.7500 C   0  0  0  0  0  1  0  0  0  0  0  0
  158.9820  210.4340  154.7740 C   0  0  0  0  0  2  0  0  0  0  0  0
  159.4500  213.3910  156.9920 C   0  0  0  0  0  1  0  0  0  0  0  0
  160.2340  209.7460  154.2900 C   0  0  0  0  0  0  0  0  0  0  0  0
  162.5320  211.8440  150.1820 C   0  0  0  0  0  2  0  0  0  0  0  0
  160.6520  213.2850  148.5280 C   0  0  0  0  0  3  0  0  0  0  0  0
  160.2190  212.8860  149.7980 C   0  0  0  0  0  0  0  0  0  0  0  0
  158.8510  212.9460  150.1090 C   0  0  0  0  0  3  0  0  0  0  0  0
  156.6150  213.4640  149.4700 F   0  0  0  0  0  0  0  0  0  0  0  0
  158.3730  213.8070  147.8980 C   0  0  0  0  0  3  0  0  0  0  0  0
  157.9330  213.4070  149.1630 C   0  0  0  0  0  0  0  0  0  0  0  0
  159.7330  213.7460  147.5810 C   0  0  0  0  0  3  0  0  0  0  0  0
  163.6300  210.7870  156.9070 O   0  0  0  0  0  1  0  0  0  0  0  0
  162.7220  209.7440  157.0900 C   0  0  0  0  0  2  0  0  0  0  0  0
  1  4  1  0  0  0  0
  2 24  1  1  0  0  0
  2 17  1  0  0  0  0
  2 14  1  0  0  0  0
  3  9  1  0  0  0  0
  4 12  1  0  0  0  0
  4 37  1  6  0  0  0
  5 19  1  0  0  0  0
  6 22  1  0  0  0  0
  7  3  1  6  0  0  0
  7 10  1  0  0  0  0
  7 21  1  0  0  0  0
  8 12  1  0  0  0  0
  8 26  1  6  0  0  0
  9  6  1  6  0  0  0
  9 13  1  0  0  0  0
 10  5  1  6  0  0  0
 11  6  2  0  0  0  0
 13 21  1  0  0  0  0
 13 17  1  6  0  0  0
 15 20  1  0  0  0  0
 15 28  1  0  0  0  0
 16 11  1  0  0  0  0
 16 20  2  0  0  0  0
 18 19  1  6  0  0  0
 18  8  1  0  0  0  0
 20  3  1  0  0  0  0
 21 27  1  1  0  0  0
 22  2  1  0  0  0  0
 23 30  1  6  0  0  0
 23 10  1  0  0  0  0
 25 18  1  0  0  0  0
 27 25  1  0  0  0  0
 27  1  2  0  0  0  0
 28 23  1  0  0  0  0
 29 30  1  0  0  0  0
 30 31  2  0  0  0  0
 33 34  2  0  0  0  0
 34 32  1  0  0  0  0
 34 31  1  0  0  0  0
 35 33  1  0  0  0  0
 35 29  2  0  0  0  0
 36 37  1  0  0  0  0
M  END
>  <MODEL>
1

>  <REMARK>
 VINA RESULT:      -2.3      0.000      0.000
  Name = 
  2 active torsions:
  status: ('A' for Active; 'I' for Inactive)
    1  A    between atoms: C_4  and  C_37
    2  A    between atoms: C_23  and  C_30
                            x       y       z     vdW  Elec       q    Type
                         _______ _______ _______ _____ _____    ______ ____

>  <TORSDO>
F 2

$$$$
=
 OpenBabel11122413393D

 37 43  0  0  1  0  0  0  0  0999 V2000
  160.8060  209.6060  155.1230 C   0  0  0  0  0  3  0  0  0  0  0  0
  161.6640  205.6960  152.4470 C   0  0  1  0  0  0  0  0  0  0  0  0
  161.0490  209.5530  150.7640 N   0  0  0  0  0  0  0  0  0  0  0  0
  160.7100  210.0420  156.5570 C   0  0  2  0  0  3  0  0  0  0  0  0
  159.1750  212.2880  152.6700 C   0  0  0  0  0  2  0  0  0  0  0  0
  161.9070  207.3260  150.4760 C   0  0  0  0  0  0  0  0  0  0  0  0
  160.0450  210.1420  151.6480 C   0  0  2  0  0  3  0  0  0  0  0  0
  158.9370  211.8230  156.4170 C   0  0  2  0  0  3  0  0  0  0  0  0
  161.4670  208.3040  151.2780 C   0  0  2  0  0  3  0  0  0  0  0  0
  160.3840  211.5980  152.0470 C   0  0  1  0  0  3  0  0  0  0  0  0
  162.0260  207.5940  149.0340 C   0  0  0  0  0  3  0  0  0  0  0  0
  160.4200  211.5340  156.6700 C   0  0  0  0  0  2  0  0  0  0  0  0
  161.0520  208.1030  152.6780 C   0  0  2  0  0  3  0  0  0  0  0  0
  162.8040  205.8670  153.2360 O   0  0  0  0  0  1  0  0  0  0  0  0
  162.2940  211.0670  149.2480 C   0  0  0  0  0  2  0  0  0  0  0  0
  161.7170  208.7880  148.5160 C   0  0  0  0  0  3  0  0  0  0  0  0
  160.5710  206.6730  152.8980 C   0  0  0  0  0  2  0  0  0  0  0  0
  158.5520  211.7150  155.0020 N   0  0  1  0  0  0  0  0  0  0  0  0
  159.4450  212.5150  154.1450 C   0  0  0  0  0  2  0  0  0  0  0  0
  161.2590  209.9490  149.3660 C   0  0  0  0  0  0  0  0  0  0  0  0
  159.9280  209.1340  152.8380 C   0  0  1  0  0  3  0  0  0  0  0  0
  162.0330  205.9030  150.9670 C   0  0  0  0  0  2  0  0  0  0  0  0
  160.9540  212.4910  150.9280 C   0  0  1  0  0  3  0  0  0  0  0  0
  161.1570  204.2810  152.6270 C   0  0  0  0  0  1  0  0  0  0  0  0
  158.4670  210.2900  154.6290 C   0  0  0  0  0  2  0  0  0  0  0  0
  158.5680  213.1900  156.9680 C   0  0  0  0  0  1  0  0  0  0  0  0
  159.7930  209.6880  154.2420 C   0  0  0  0  0  0  0  0  0  0  0  0
  162.3270  212.0460  150.4240 C   0  0  0  0  0  2  0  0  0  0  0  0
  158.9160  213.7750  150.2390 C   0  0  0  0  0  3  0  0  0  0  0  0
  160.0030  212.9770  149.8630 C   0  0  0  0  0  0  0  0  0  0  0  0
  160.1930  212.6670  148.5060 C   0  0  0  0  0  3  0  0  0  0  0  0
  159.4890  212.8410  146.2370 F   0  0  0  0  0  0  0  0  0  0  0  0
  158.2170  213.9380  147.9260 C   0  0  0  0  0  3  0  0  0  0  0  0
  159.3010  213.1450  147.5430 C   0  0  0  0  0  0  0  0  0  0  0  0
  158.0240  214.2540  149.2750 C   0  0  0  0  0  3  0  0  0  0  0  0
  162.8660  209.0340  156.3850 O   0  0  0  0  0  1  0  0  0  0  0  0
  162.0180  209.7190  157.2550 C   0  0  0  0  0  2  0  0  0  0  0  0
  1  4  1  0  0  0  0
  2 24  1  1  0  0  0
  2 17  1  0  0  0  0
  2 14  1  0  0  0  0
  3  9  1  0  0  0  0
  4 12  1  0  0  0  0
  4 37  1  1  0  0  0
  5 19  1  0  0  0  0
  6 22  1  0  0  0  0
  7  3  1  6  0  0  0
  7 10  1  0  0  0  0
  7 21  1  0  0  0  0
  8 12  1  0  0  0  0
  8 26  1  6  0  0  0
  9  6  1  6  0  0  0
  9 13  1  0  0  0  0
 10  5  1  6  0  0  0
 11  6  2  0  0  0  0
 13 21  1  0  0  0  0
 13 17  1  6  0  0  0
 15 20  1  0  0  0  0
 15 28  1  0  0  0  0
 16 11  1  0  0  0  0
 16 20  2  0  0  0  0
 18 19  1  6  0  0  0
 18  8  1  0  0  0  0
 20  3  1  0  0  0  0
 21 27  1  1  0  0  0
 22  2  1  0  0  0  0
 23 30  1  6  0  0  0
 23 10  1  0  0  0  0
 25 18  1  0  0  0  0
 27 25  1  0  0  0  0
 27  1  2  0  0  0  0
 28 23  1  0  0  0  0
 30 29  1  0  0  0  0
 31 30  2  0  0  0  0
 32 34  1  0  0  0  0
 33 35  1  0  0  0  0
 34 33  2  0  0  0  0
 34 31  1  0  0  0  0
 35 29  2  0  0  0  0
 36 37  1  0  0  0  0
M  END
>  <MODEL>
2

>  <REMARK>
 VINA RESULT:       0.4      0.922      1.164
  Name = 
  2 active torsions:
  status: ('A' for Active; 'I' for Inactive)
    1  A    between atoms: C_4  and  C_37
    2  A    between atoms: C_23  and  C_30
                            x       y       z     vdW  Elec       q    Type
                         _______ _______ _______ _____ _____    ______ ____

>  <TORSDO>
F 2

$$$$
