=
 OpenBabel11122414043D

 28 32  0  0  1  0  0  0  0  0999 V2000
  161.4060  212.9800  142.7000 C   0  0  0  0  0  0  0  0  0  0  0  0
  157.2850  213.7490  140.4300 O   0  0  0  0  0  1  0  0  0  0  0  0
  162.6160  210.3610  137.0110 O   0  0  0  0  0  0  0  0  0  0  0  0
  158.9800  213.3480  144.0540 C   0  0  0  0  0  3  0  0  0  0  0  0
  160.9960  209.5550  138.5120 N   0  0  0  0  0  0  0  0  0  0  0  0
  162.7490  212.7820  142.0860 C   0  0  0  0  0  2  0  0  0  0  0  0
  158.2420  213.5230  138.2700 C   0  0  0  0  0  1  0  0  0  0  0  0
  157.6940  212.8000  139.4950 C   0  0  1  0  0  0  0  0  0  0  0  0
  156.9050  210.6320  138.3770 C   0  0  2  0  0  3  0  0  0  0  0  0
  158.7410  211.8660  140.1160 C   0  0  1  0  0  3  0  0  0  0  0  0
  163.6780  214.4520  138.9820 O   0  0  0  0  0  0  0  0  0  0  0  0
  161.0960  211.3060  140.1150 C   0  0  1  0  0  3  0  0  0  0  0  0
  157.8700  209.9060  139.1150 O   0  0  0  0  0  0  0  0  0  0  0  0
  156.4810  211.9370  139.0970 C   0  0  0  0  0  2  0  0  0  0  0  0
  163.3860  213.5240  139.7800 C   0  0  0  0  0  0  0  0  0  0  0  0
  160.1830  212.7620  142.0040 C   0  0  0  0  0  0  0  0  0  0  0  0
  161.9310  210.5110  138.0570 C   0  0  0  0  0  0  0  0  0  0  0  0
  155.6870  209.7630  138.1440 C   0  0  0  0  0  1  0  0  0  0  0  0
  163.3610  212.1120  139.2900 C   0  0  0  0  0  2  0  0  0  0  0  0
  158.9830  212.9680  142.7130 C   0  0  0  0  0  3  0  0  0  0  0  0
  161.3890  213.3620  144.0460 C   0  0  0  0  0  3  0  0  0  0  0  0
  160.1840  213.5450  144.7220 C   0  0  0  0  0  3  0  0  0  0  0  0
  163.0350  213.8350  141.1270 N   0  0  0  0  0  2  0  0  0  0  0  0
  160.2650  210.0910  139.6450 C   0  0  1  0  0  3  0  0  0  0  0  0
  161.9430  211.7310  138.8950 C   0  0  2  0  0  3  0  0  0  0  0  0
  158.9940  210.7400  139.1560 C   0  0  2  0  0  3  0  0  0  0  0  0
  160.6160  208.3550  137.7840 C   0  0  0  0  0  1  0  0  0  0  0  0
  160.1140  212.4250  140.5100 C   0  0  2  0  0  3  0  0  0  0  0  0
  1 21  1  0  0  0  0
  3 17  2  0  0  0  0
  4 22  1  0  0  0  0
  5 24  1  0  0  0  0
  6  1  1  0  0  0  0
  8  7  1  6  0  0  0
  8 10  1  0  0  0  0
  8  2  1  0  0  0  0
  9 18  1  1  0  0  0
  9 14  1  0  0  0  0
  9 13  1  0  0  0  0
 10 28  1  0  0  0  0
 11 15  2  0  0  0  0
 12 28  1  0  0  0  0
 13 26  1  0  0  0  0
 14  8  1  0  0  0  0
 15 23  1  0  0  0  0
 16  1  2  0  0  0  0
 16 20  1  0  0  0  0
 17  5  1  0  0  0  0
 17 25  1  0  0  0  0
 19 15  1  0  0  0  0
 20  4  2  0  0  0  0
 21 22  2  0  0  0  0
 23  6  1  0  0  0  0
 24 12  1  0  0  0  0
 25 19  1  0  0  0  0
 25 12  1  0  0  0  0
 26 24  1  0  0  0  0
 26 10  1  0  0  0  0
 27  5  1  0  0  0  0
 28 16  1  0  0  0  0
M  END
>  <MODEL>
1

>  <REMARK>
 VINA RESULT:      -5.2      0.000      0.000
  Name = 
  0 active torsions:
  status: ('A' for Active; 'I' for Inactive)
                            x       y       z     vdW  Elec       q    Type
                         _______ _______ _______ _____ _____    ______ ____

>  <TORSDO>
F 0

$$$$
=
 OpenBabel11122414043D

 28 32  0  0  1  0  0  0  0  0999 V2000
  161.6830  210.7830  150.4890 C   0  0  0  0  0  0  0  0  0  0  0  0
  157.7860  212.6940  152.4590 O   0  0  0  0  0  1  0  0  0  0  0  0
  161.6130  207.8800  156.1690 O   0  0  0  0  0  0  0  0  0  0  0  0
  160.6590  213.2700  149.7050 C   0  0  0  0  0  3  0  0  0  0  0  0
  161.9200  210.1930  155.8770 N   0  0  0  0  0  0  0  0  0  0  0  0
  162.3090  209.4700  150.8190 C   0  0  0  0  0  2  0  0  0  0  0  0
  157.5140  210.9340  154.0280 C   0  0  0  0  0  1  0  0  0  0  0  0
  158.2510  212.2240  153.6850 C   0  0  1  0  0  0  0  0  0  0  0  0
  158.7900  213.0350  156.0580 C   0  0  2  0  0  3  0  0  0  0  0  0
  159.7690  212.0110  153.6260 C   0  0  1  0  0  3  0  0  0  0  0  0
  160.2920  206.6240  151.8760 O   0  0  0  0  0  0  0  0  0  0  0  0
  161.4950  210.3150  153.5430 C   0  0  1  0  0  3  0  0  0  0  0  0
  160.1710  212.8740  155.7930 O   0  0  0  0  0  0  0  0  0  0  0  0
  157.9740  213.2900  154.7640 C   0  0  0  0  0  2  0  0  0  0  0  0
  161.1230  207.5670  151.9340 C   0  0  0  0  0  0  0  0  0  0  0  0
  160.8240  211.4890  151.3770 C   0  0  0  0  0  0  0  0  0  0  0  0
  161.5910  208.8960  155.4250 C   0  0  0  0  0  0  0  0  0  0  0  0
  158.5880  214.1870  157.0190 C   0  0  0  0  0  1  0  0  0  0  0  0
  161.8590  207.8220  153.2100 C   0  0  0  0  0  2  0  0  0  0  0  0
  160.3180  212.7310  150.9440 C   0  0  0  0  0  3  0  0  0  0  0  0
  162.0180  211.3340  149.2470 C   0  0  0  0  0  3  0  0  0  0  0  0
  161.5100  212.5710  148.8540 C   0  0  0  0  0  3  0  0  0  0  0  0
  161.3150  208.4100  150.8010 N   0  0  0  0  0  2  0  0  0  0  0  0
  161.6460  211.1570  154.8290 C   0  0  1  0  0  3  0  0  0  0  0  0
  161.1360  208.8890  154.0160 C   0  0  2  0  0  3  0  0  0  0  0  0
  160.2560  211.7130  155.0150 C   0  0  2  0  0  3  0  0  0  0  0  0
  162.2020  210.5410  157.2600 C   0  0  0  0  0  1  0  0  0  0  0  0
  160.3440  210.9190  152.7160 C   0  0  2  0  0  3  0  0  0  0  0  0
  1  6  1  0  0  0  0
  1 16  1  0  0  0  0
  2  8  1  0  0  0  0
  4 20  1  0  0  0  0
  5 27  1  0  0  0  0
  8  7  1  1  0  0  0
  8 14  1  0  0  0  0
  9 18  1  1  0  0  0
 10  8  1  0  0  0  0
 10 26  1  0  0  0  0
 11 15  2  0  0  0  0
 12 25  1  0  0  0  0
 12 24  1  0  0  0  0
 13  9  1  0  0  0  0
 14  9  1  0  0  0  0
 15 19  1  0  0  0  0
 16 28  1  0  0  0  0
 17  5  1  0  0  0  0
 17  3  2  0  0  0  0
 19 25  1  0  0  0  0
 20 16  2  0  0  0  0
 21  1  2  0  0  0  0
 22 21  1  0  0  0  0
 22  4  2  0  0  0  0
 23  6  1  0  0  0  0
 23 15  1  0  0  0  0
 24 26  1  0  0  0  0
 24  5  1  0  0  0  0
 25 17  1  0  0  0  0
 26 13  1  0  0  0  0
 28 12  1  0  0  0  0
 28 10  1  0  0  0  0
M  END
>  <MODEL>
2

>  <REMARK>
 VINA RESULT:      -4.7     10.599     14.176
  Name = 
  0 active torsions:
  status: ('A' for Active; 'I' for Inactive)
                            x       y       z     vdW  Elec       q    Type
                         _______ _______ _______ _____ _____    ______ ____

>  <TORSDO>
F 0

$$$$
=
 OpenBabel11122414043D

 28 32  0  0  1  0  0  0  0  0999 V2000
  158.6220  212.5370  154.3840 C   0  0  0  0  0  0  0  0  0  0  0  0
  161.5320  211.5310  150.7450 O   0  0  0  0  0  1  0  0  0  0  0  0
  162.0360  207.7300  156.8190 O   0  0  0  0  0  0  0  0  0  0  0  0
  157.9850  213.1520  151.7260 C   0  0  0  0  0  3  0  0  0  0  0  0
  160.5790  207.5130  154.9860 N   0  0  0  0  0  0  0  0  0  0  0  0
  158.8610  212.2660  155.8310 C   0  0  0  0  0  2  0  0  0  0  0  0
  163.1380  210.4440  152.1140 C   0  0  0  0  0  1  0  0  0  0  0  0
  161.8070  210.3220  151.3810 C   0  0  1  0  0  0  0  0  0  0  0  0
  161.8050  207.7950  150.9450 C   0  0  2  0  0  3  0  0  0  0  0  0
  160.6640  209.9580  152.3370 C   0  0  1  0  0  3  0  0  0  0  0  0
  162.2160  212.3700  157.2490 O   0  0  0  0  0  0  0  0  0  0  0  0
  160.0560  209.8100  154.6760 C   0  0  1  0  0  3  0  0  0  0  0  0
  160.6770  207.6550  151.7880 O   0  0  0  0  0  0  0  0  0  0  0  0
  161.8930  209.2090  150.3170 C   0  0  0  0  0  2  0  0  0  0  0  0
  161.1140  211.9030  156.8600 C   0  0  0  0  0  0  0  0  0  0  0  0
  159.2840  211.8400  153.3340 C   0  0  0  0  0  0  0  0  0  0  0  0
  161.3090  208.2600  155.9370 C   0  0  0  0  0  0  0  0  0  0  0  0
  161.7490  206.7550  149.8460 C   0  0  0  0  0  1  0  0  0  0  0  0
  160.8410  210.4410  157.0080 C   0  0  0  0  0  2  0  0  0  0  0  0
  158.9480  212.1850  152.0100 C   0  0  0  0  0  3  0  0  0  0  0  0
  157.6580  213.5070  154.0860 C   0  0  0  0  0  3  0  0  0  0  0  0
  157.3400  213.8150  152.7650 C   0  0  0  0  0  3  0  0  0  0  0  0
  160.1630  212.7640  156.2370 N   0  0  0  0  0  2  0  0  0  0  0  0
  159.9760  208.4120  154.0210 C   0  0  1  0  0  3  0  0  0  0  0  0
  161.1920  209.7180  155.7180 C   0  0  2  0  0  3  0  0  0  0  0  0
  160.8950  208.5600  152.8340 C   0  0  2  0  0  3  0  0  0  0  0  0
  160.6640  206.0710  154.8220 C   0  0  0  0  0  1  0  0  0  0  0  0
  160.4080  210.8270  153.5740 C   0  0  2  0  0  3  0  0  0  0  0  0
  1  6  1  0  0  0  0
  2  8  1  0  0  0  0
  4 20  2  0  0  0  0
  4 22  1  0  0  0  0
  5 17  1  0  0  0  0
  6 23  1  0  0  0  0
  8  7  1  1  0  0  0
  8 10  1  0  0  0  0
  9 18  1  6  0  0  0
  9 13  1  0  0  0  0
 10 26  1  0  0  0  0
 10 28  1  0  0  0  0
 12 25  1  0  0  0  0
 13 26  1  0  0  0  0
 14  9  1  0  0  0  0
 14  8  1  0  0  0  0
 15 19  1  0  0  0  0
 15 11  2  0  0  0  0
 16 28  1  0  0  0  0
 16  1  2  0  0  0  0
 17  3  2  0  0  0  0
 20 16  1  0  0  0  0
 21  1  1  0  0  0  0
 22 21  2  0  0  0  0
 23 15  1  0  0  0  0
 24 12  1  0  0  0  0
 24  5  1  0  0  0  0
 25 17  1  0  0  0  0
 25 19  1  0  0  0  0
 26 24  1  0  0  0  0
 27  5  1  0  0  0  0
 28 12  1  0  0  0  0
M  END
>  <MODEL>
3

>  <REMARK>
 VINA RESULT:      -3.8     11.587     14.362
  Name = 
  0 active torsions:
  status: ('A' for Active; 'I' for Inactive)
                            x       y       z     vdW  Elec       q    Type
                         _______ _______ _______ _____ _____    ______ ____

>  <TORSDO>
F 0

$$$$
=
 OpenBabel11122414043D

 28 32  0  0  1  0  0  0  0  0999 V2000
  162.1220  210.9690  149.2500 C   0  0  0  0  0  0  0  0  0  0  0  0
  158.2990  213.1150  151.1230 O   0  0  0  0  0  1  0  0  0  0  0  0
  161.2420  207.5300  154.5500 O   0  0  0  0  0  0  0  0  0  0  0  0
  161.4470  213.6270  148.6730 C   0  0  0  0  0  3  0  0  0  0  0  0
  161.8240  209.8080  154.5410 N   0  0  0  0  0  0  0  0  0  0  0  0
  162.5690  209.5650  149.4780 C   0  0  0  0  0  2  0  0  0  0  0  0
  157.7020  211.2490  152.4620 C   0  0  0  0  0  1  0  0  0  0  0  0
  158.6020  212.4700  152.3210 C   0  0  1  0  0  0  0  0  0  0  0  0
  159.0180  212.9660  154.8030 C   0  0  2  0  0  3  0  0  0  0  0  0
  160.0870  212.0870  152.3520 C   0  0  1  0  0  3  0  0  0  0  0  0
  160.1700  206.8830  150.0580 O   0  0  0  0  0  0  0  0  0  0  0  0
  161.6190  210.2170  152.2100 C   0  0  1  0  0  3  0  0  0  0  0  0
  160.3900  212.6710  154.6260 O   0  0  0  0  0  0  0  0  0  0  0  0
  158.3510  213.4460  153.4880 C   0  0  0  0  0  2  0  0  0  0  0  0
  161.0910  207.7110  150.2830 C   0  0  0  0  0  0  0  0  0  0  0  0
  161.2710  211.6770  150.1450 C   0  0  0  0  0  0  0  0  0  0  0  0
  161.3950  208.6120  153.9240 C   0  0  0  0  0  0  0  0  0  0  0  0
  158.8600  214.0300  155.8680 C   0  0  0  0  0  1  0  0  0  0  0  0
  161.7360  207.7460  151.6300 C   0  0  0  0  0  2  0  0  0  0  0  0
  160.9430  213.0080  149.8160 C   0  0  0  0  0  3  0  0  0  0  0  0
  162.6210  211.6000  148.1050 C   0  0  0  0  0  3  0  0  0  0  0  0
  162.2870  212.9220  147.8160 C   0  0  0  0  0  3  0  0  0  0  0  0
  161.4710  208.6370  149.2670 N   0  0  0  0  0  2  0  0  0  0  0  0
  161.7480  210.9000  153.5900 C   0  0  1  0  0  3  0  0  0  0  0  0
  161.0660  208.8030  152.4940 C   0  0  2  0  0  3  0  0  0  0  0  0
  160.4160  211.5940  153.7320 C   0  0  2  0  0  3  0  0  0  0  0  0
  162.0200  209.9780  155.9720 C   0  0  0  0  0  1  0  0  0  0  0  0
  160.6170  211.0340  151.3720 C   0  0  2  0  0  3  0  0  0  0  0  0
  1  6  1  0  0  0  0
  1 16  1  0  0  0  0
  2  8  1  0  0  0  0
  4 20  1  0  0  0  0
  5 27  1  0  0  0  0
  8 10  1  0  0  0  0
  8  7  1  1  0  0  0
  8 14  1  0  0  0  0
  9 18  1  1  0  0  0
 10 26  1  0  0  0  0
 11 15  2  0  0  0  0
 12 25  1  0  0  0  0
 12 24  1  0  0  0  0
 13  9  1  0  0  0  0
 14  9  1  0  0  0  0
 15 19  1  0  0  0  0
 16 28  1  0  0  0  0
 17  5  1  0  0  0  0
 17  3  2  0  0  0  0
 19 25  1  0  0  0  0
 20 16  2  0  0  0  0
 21  1  2  0  0  0  0
 22 21  1  0  0  0  0
 22  4  2  0  0  0  0
 23  6  1  0  0  0  0
 23 15  1  0  0  0  0
 24 26  1  0  0  0  0
 24  5  1  0  0  0  0
 25 17  1  0  0  0  0
 26 13  1  0  0  0  0
 28 12  1  0  0  0  0
 28 10  1  0  0  0  0
M  END
>  <MODEL>
4

>  <REMARK>
 VINA RESULT:      -3.0      9.412     12.928
  Name = 
  0 active torsions:
  status: ('A' for Active; 'I' for Inactive)
                            x       y       z     vdW  Elec       q    Type
                         _______ _______ _______ _____ _____    ______ ____

>  <TORSDO>
F 0

$$$$
=
 OpenBabel11122414043D

 28 32  0  0  1  0  0  0  0  0999 V2000
  161.0880  207.6140  152.3740 C   0  0  0  0  0  0  0  0  0  0  0  0
  160.9410  209.5750  156.7170 O   0  0  0  0  0  1  0  0  0  0  0  0
  159.9740  213.7280  150.9360 O   0  0  0  0  0  0  0  0  0  0  0  0
  160.4620  206.1440  154.6760 C   0  0  0  0  0  3  0  0  0  0  0  0
  158.4690  212.3580  152.1140 N   0  0  0  0  0  0  0  0  0  0  0  0
  161.4160  208.2940  151.0890 C   0  0  0  0  0  2  0  0  0  0  0  0
  161.3890  211.7670  155.9230 C   0  0  0  0  0  1  0  0  0  0  0  0
  160.3360  210.6840  156.1270 C   0  0  1  0  0  0  0  0  0  0  0  0
  158.2540  212.1660  156.3370 C   0  0  2  0  0  3  0  0  0  0  0  0
  159.6730  210.2810  154.8040 C   0  0  1  0  0  3  0  0  0  0  0  0
  163.7940  211.0530  150.9600 O   0  0  0  0  0  0  0  0  0  0  0  0
  159.8670  210.4580  152.3970 C   0  0  1  0  0  3  0  0  0  0  0  0
  157.7430  211.6080  155.1410 O   0  0  0  0  0  0  0  0  0  0  0  0
  159.2260  211.2010  157.0630 C   0  0  0  0  0  2  0  0  0  0  0  0
  162.6990  210.4360  150.8970 C   0  0  0  0  0  0  0  0  0  0  0  0
  160.6290  208.3020  153.5330 C   0  0  0  0  0  0  0  0  0  0  0  0
  159.7270  212.6520  151.5430 C   0  0  0  0  0  0  0  0  0  0  0  0
  157.1100  212.5240  157.2610 C   0  0  0  0  0  1  0  0  0  0  0  0
  161.4520  211.1820  150.5480 C   0  0  0  0  0  2  0  0  0  0  0  0
  160.3370  207.5320  154.6760 C   0  0  0  0  0  3  0  0  0  0  0  0
  161.2110  206.2200  152.3870 C   0  0  0  0  0  3  0  0  0  0  0  0
  160.9000  205.4860  153.5310 C   0  0  0  0  0  3  0  0  0  0  0  0
  162.6540  209.0450  151.2090 N   0  0  0  0  0  2  0  0  0  0  0  0
  158.5550  211.1240  152.8710 C   0  0  1  0  0  3  0  0  0  0  0  0
  160.7300  211.6000  151.8190 C   0  0  2  0  0  3  0  0  0  0  0  0
  158.8590  211.4430  154.3130 C   0  0  2  0  0  3  0  0  0  0  0  0
  157.3530  213.2880  152.1850 C   0  0  0  0  0  1  0  0  0  0  0  0
  160.5480  209.8300  153.6270 C   0  0  2  0  0  3  0  0  0  0  0  0
  1 21  2  0  0  0  0
  1 16  1  0  0  0  0
  3 17  2  0  0  0  0
  5 27  1  0  0  0  0
  5 24  1  0  0  0  0
  6 23  1  0  0  0  0
  6  1  1  0  0  0  0
  8  7  1  6  0  0  0
  8  2  1  0  0  0  0
  8 14  1  0  0  0  0
  9 14  1  0  0  0  0
  9 18  1  1  0  0  0
 10  8  1  0  0  0  0
 12 24  1  0  0  0  0
 12 28  1  0  0  0  0
 13  9  1  0  0  0  0
 15 11  2  0  0  0  0
 15 23  1  0  0  0  0
 16 28  1  0  0  0  0
 16 20  2  0  0  0  0
 17 25  1  0  0  0  0
 17  5  1  0  0  0  0
 19 15  1  0  0  0  0
 19 25  1  0  0  0  0
 20  4  1  0  0  0  0
 21 22  1  0  0  0  0
 22  4  2  0  0  0  0
 24 26  1  0  0  0  0
 25 12  1  0  0  0  0
 26 10  1  0  0  0  0
 26 13  1  0  0  0  0
 28 10  1  0  0  0  0
M  END
>  <MODEL>
5

>  <REMARK>
 VINA RESULT:      -2.6     11.140     14.272
  Name = 
  0 active torsions:
  status: ('A' for Active; 'I' for Inactive)
                            x       y       z     vdW  Elec       q    Type
                         _______ _______ _______ _____ _____    ______ ____

>  <TORSDO>
F 0

$$$$
=
 OpenBabel11122414043D

 28 32  0  0  1  0  0  0  0  0999 V2000
  161.1300  207.7720  150.7320 C   0  0  0  0  0  0  0  0  0  0  0  0
  161.9560  208.7650  155.3210 O   0  0  0  0  0  1  0  0  0  0  0  0
  159.9710  214.0430  150.8710 O   0  0  0  0  0  0  0  0  0  0  0  0
  160.9380  205.8420  152.7540 C   0  0  0  0  0  3  0  0  0  0  0  0
  158.6920  212.4430  152.0250 N   0  0  0  0  0  0  0  0  0  0  0  0
  161.2110  208.7120  149.5780 C   0  0  0  0  0  2  0  0  0  0  0  0
  162.3120  211.0790  154.9270 C   0  0  0  0  0  1  0  0  0  0  0  0
  161.2840  209.9690  155.1160 C   0  0  1  0  0  0  0  0  0  0  0  0
  159.3470  211.3580  156.0630 C   0  0  2  0  0  3  0  0  0  0  0  0
  160.3480  209.8510  153.9070 C   0  0  1  0  0  3  0  0  0  0  0  0
  163.6120  211.4530  149.5330 O   0  0  0  0  0  0  0  0  0  0  0  0
  160.0460  210.5370  151.6040 C   0  0  1  0  0  3  0  0  0  0  0  0
  158.5790  211.0610  154.9120 O   0  0  0  0  0  0  0  0  0  0  0  0
  160.4110  210.2670  156.3510 C   0  0  0  0  0  2  0  0  0  0  0  0
  162.5050  210.8550  149.5730 C   0  0  0  0  0  0  0  0  0  0  0  0
  160.9470  208.1950  152.0790 C   0  0  0  0  0  0  0  0  0  0  0  0
  159.8150  212.8610  151.2780 C   0  0  0  0  0  0  0  0  0  0  0  0
  158.4320  211.5020  157.2610 C   0  0  0  0  0  1  0  0  0  0  0  0
  161.2420  211.6490  149.6580 C   0  0  0  0  0  2  0  0  0  0  0  0
  160.8680  207.1970  153.0700 C   0  0  0  0  0  3  0  0  0  0  0  0
  161.2010  206.4080  150.4270 C   0  0  0  0  0  3  0  0  0  0  0  0
  161.1060  205.4460  151.4310 C   0  0  0  0  0  3  0  0  0  0  0  0
  162.4740  209.4300  149.5900 N   0  0  0  0  0  2  0  0  0  0  0  0
  158.8870  211.0770  152.4720 C   0  0  1  0  0  3  0  0  0  0  0  0
  160.8140  211.7820  151.1110 C   0  0  2  0  0  3  0  0  0  0  0  0
  159.4940  211.0850  153.8520 C   0  0  2  0  0  3  0  0  0  0  0  0
  157.6510  213.3280  152.5210 C   0  0  0  0  0  1  0  0  0  0  0  0
  160.9430  209.6670  152.5060 C   0  0  2  0  0  3  0  0  0  0  0  0
  1 16  1  0  0  0  0
  3 17  2  0  0  0  0
  4 20  1  0  0  0  0
  5 24  1  0  0  0  0
  5 27  1  0  0  0  0
  6 23  1  0  0  0  0
  6  1  1  0  0  0  0
  8  7  1  6  0  0  0
  8  2  1  0  0  0  0
  8 14  1  0  0  0  0
  9 14  1  0  0  0  0
  9 18  1  1  0  0  0
 10  8  1  0  0  0  0
 11 15  2  0  0  0  0
 12 24  1  0  0  0  0
 12 28  1  0  0  0  0
 13  9  1  0  0  0  0
 15 23  1  0  0  0  0
 15 19  1  0  0  0  0
 16 28  1  0  0  0  0
 16 20  2  0  0  0  0
 17  5  1  0  0  0  0
 19 25  1  0  0  0  0
 21  1  2  0  0  0  0
 21 22  1  0  0  0  0
 22  4  2  0  0  0  0
 24 26  1  0  0  0  0
 25 17  1  0  0  0  0
 25 12  1  0  0  0  0
 26 10  1  0  0  0  0
 26 13  1  0  0  0  0
 28 10  1  0  0  0  0
M  END
>  <MODEL>
6

>  <REMARK>
 VINA RESULT:      -2.2     10.140     13.569
  Name = 
  0 active torsions:
  status: ('A' for Active; 'I' for Inactive)
                            x       y       z     vdW  Elec       q    Type
                         _______ _______ _______ _____ _____    ______ ____

>  <TORSDO>
F 0

$$$$
