=
 OpenBabel11122413343D

 37 43  0  0  1  0  0  0  0  0999 V2000
  160.4540  209.1030  151.4180 C   0  0  0  0  0  2  0  0  0  0  0  0
  159.9710  212.2290  156.2260 C   0  0  0  0  0  0  0  0  0  0  0  0
  158.2480  212.3860  152.3140 C   0  0  1  0  0  3  0  0  0  0  0  0
  161.2300  207.9680  150.7150 C   0  0  2  0  0  3  0  0  0  0  0  0
  161.5100  213.4330  150.2590 S   0  0  0  0  0  0  0  0  0  0  0  0
  158.0150  212.9410  154.7210 C   0  0  2  0  0  3  0  0  0  0  0  0
  159.3770  211.8290  151.4240 C   0  0  1  0  0  3  0  0  0  0  0  0
  162.3760  209.5970  149.0480 N   0  0  0  0  0  0  0  0  0  0  0  0
  158.9610  212.6660  153.5910 C   0  0  1  0  0  3  0  0  0  0  0  0
  159.8590  212.6370  150.1840 C   0  0  1  0  0  3  0  0  0  0  0  0
  157.1910  214.0480  154.3280 O   0  0  0  0  0  0  0  0  0  0  0  0
  162.4570  208.3400  149.8280 C   0  0  0  0  0  2  0  0  0  0  0  0
  159.8570  211.5030  153.8070 C   0  0  2  0  0  3  0  0  0  0  0  0
  159.3390  210.9710  156.8020 C   0  0  0  0  0  1  0  0  0  0  0  0
  156.7800  213.7850  150.6010 C   0  0  0  0  0  2  0  0  0  0  0  0
  156.8320  214.2810  152.9790 C   0  0  0  0  0  3  0  0  0  0  0  0
  160.7880  211.8750  154.9570 C   0  0  0  0  0  2  0  0  0  0  0  0
  162.0490  210.7540  149.8880 C   0  0  2  0  0  3  0  0  0  0  0  0
  162.3530  212.1180  149.2850 C   0  0  0  0  0  2  0  0  0  0  0  0
  157.3530  213.5590  151.9660 C   0  0  0  0  0  0  0  0  0  0  0  0
  160.5010  211.4490  152.4350 C   0  0  1  0  0  3  0  0  0  0  0  0
  158.8710  213.2860  155.9460 C   0  0  0  0  0  2  0  0  0  0  0  0
  158.8510  213.3880  149.3100 C   0  0  2  0  0  3  0  0  0  0  0  0
  160.9210  212.7930  157.2600 C   0  0  0  0  0  1  0  0  0  0  0  0
  162.5130  210.6150  151.3330 C   0  0  0  0  0  2  0  0  0  0  0  0
  161.3300  209.4490  148.0470 C   0  0  0  0  0  1  0  0  0  0  0  0
  161.3040  210.1730  152.1450 C   0  0  2  0  0  3  0  0  0  0  0  0
  157.4180  212.9320  149.5210 C   0  0  0  0  0  2  0  0  0  0  0  0
  158.4440  212.5510  146.9600 C   0  0  0  0  0  3  0  0  0  0  0  0
  159.2250  213.2890  147.8630 C   0  0  0  0  0  0  0  0  0  0  0  0
  160.3850  213.9270  147.4120 C   0  0  0  0  0  3  0  0  0  0  0  0
  161.8860  214.4520  145.6360 F   0  0  0  0  0  0  0  0  0  0  0  0
  159.9810  213.0970  145.1730 C   0  0  0  0  0  3  0  0  0  0  0  0
  160.7620  213.8330  146.0690 C   0  0  0  0  0  0  0  0  0  0  0  0
  158.8220  212.4560  145.6180 C   0  0  0  0  0  3  0  0  0  0  0  0
  161.0630  206.0340  149.6500 C   0  0  0  0  0  1  0  0  0  0  0  0
  160.3390  207.1790  149.9840 O   0  0  0  0  0  0  0  0  0  0  0  0
  1 27  1  0  0  0  0
  2 14  1  0  0  0  0
  2 24  1  0  0  0  0
  3 20  1  6  0  0  0
  3  9  1  0  0  0  0
  4 37  1  6  0  0  0
  4  1  1  0  0  0  0
  6 22  1  1  0  0  0
  7  3  1  0  0  0  0
  7 21  1  0  0  0  0
  8 12  1  0  0  0  0
  8 18  1  0  0  0  0
  9 13  1  0  0  0  0
  9  6  1  0  0  0  0
 10  5  1  0  0  0  0
 10  7  1  0  0  0  0
 11  6  1  0  0  0  0
 12  4  1  0  0  0  0
 13 17  1  0  0  0  0
 15 20  1  0  0  0  0
 16 11  1  0  0  0  0
 17  2  1  0  0  0  0
 18 25  1  0  0  0  0
 19 18  1  0  0  0  0
 19  5  1  0  0  0  0
 20 16  2  0  0  0  0
 21 13  1  0  0  0  0
 22  2  1  0  0  0  0
 23 28  1  0  0  0  0
 23 10  1  0  0  0  0
 25 27  1  0  0  0  0
 26  8  1  0  0  0  0
 27 21  1  0  0  0  0
 28 15  1  0  0  0  0
 29 30  1  0  0  0  0
 30 23  1  0  0  0  0
 31 30  2  0  0  0  0
 32 34  1  0  0  0  0
 33 35  1  0  0  0  0
 33 34  2  0  0  0  0
 34 31  1  0  0  0  0
 35 29  2  0  0  0  0
 36 37  1  0  0  0  0
M  END
>  <MODEL>
1

>  <REMARK>
 VINA RESULT:      -0.8      0.000      0.000
  Name = 
  2 active torsions:
  status: ('A' for Active; 'I' for Inactive)
    1  A    between atoms: C_4  and  O_37
    2  A    between atoms: C_23  and  C_30
                            x       y       z     vdW  Elec       q    Type
                         _______ _______ _______ _____ _____    ______ ____

>  <TORSDO>
F 2

$$$$
=
 OpenBabel11122413343D

 37 43  0  0  1  0  0  0  0  0999 V2000
  160.5620  208.9550  151.2010 C   0  0  0  0  0  2  0  0  0  0  0  0
  160.5640  211.6880  156.2660 C   0  0  0  0  0  0  0  0  0  0  0  0
  158.5420  212.2090  152.5330 C   0  0  1  0  0  3  0  0  0  0  0  0
  161.2430  207.8610  150.3490 C   0  0  2  0  0  3  0  0  0  0  0  0
  161.6620  213.3370  150.3070 S   0  0  0  0  0  0  0  0  0  0  0  0
  158.5190  212.5710  154.9870 C   0  0  2  0  0  3  0  0  0  0  0  0
  159.5770  211.6980  151.5120 C   0  0  1  0  0  3  0  0  0  0  0  0
  162.3040  209.5910  148.7290 N   0  0  0  0  0  0  0  0  0  0  0  0
  159.3630  212.3650  153.7650 C   0  0  1  0  0  3  0  0  0  0  0  0
  159.9850  212.5920  150.3050 C   0  0  1  0  0  3  0  0  0  0  0  0
  157.7030  213.7270  154.7530 O   0  0  0  0  0  0  0  0  0  0  0  0
  162.4060  208.2730  149.3960 C   0  0  0  0  0  2  0  0  0  0  0  0
  160.2350  211.1660  153.8140 C   0  0  2  0  0  3  0  0  0  0  0  0
  159.9400  210.4050  156.7900 C   0  0  0  0  0  1  0  0  0  0  0  0
  156.9870  213.7810  151.0630 C   0  0  0  0  0  2  0  0  0  0  0  0
  157.2450  214.0790  153.4610 C   0  0  0  0  0  3  0  0  0  0  0  0
  161.2660  211.4190  154.9100 C   0  0  0  0  0  2  0  0  0  0  0  0
  162.0830  210.6840  149.6820 C   0  0  2  0  0  3  0  0  0  0  0  0
  162.3820  212.0850  149.1660 C   0  0  0  0  0  2  0  0  0  0  0  0
  157.6590  213.4290  152.3540 C   0  0  0  0  0  0  0  0  0  0  0  0
  160.7650  211.2080  152.3940 C   0  0  1  0  0  3  0  0  0  0  0  0
  159.4810  212.7930  156.1620 C   0  0  0  0  0  2  0  0  0  0  0  0
  158.9350  213.4380  149.5790 C   0  0  2  0  0  3  0  0  0  0  0  0
  161.6110  212.1410  157.2600 C   0  0  0  0  0  1  0  0  0  0  0  0
  162.6550  210.4160  151.0680 C   0  0  0  0  0  2  0  0  0  0  0  0
  161.1770  209.5520  147.8080 C   0  0  0  0  0  1  0  0  0  0  0  0
  161.5020  209.9400  151.9390 C   0  0  2  0  0  3  0  0  0  0  0  0
  157.5100  213.0030  149.8700 C   0  0  0  0  0  2  0  0  0  0  0  0
  160.2030  214.2410  147.5450 C   0  0  0  0  0  3  0  0  0  0  0  0
  159.1890  213.4470  148.1030 C   0  0  0  0  0  0  0  0  0  0  0  0
  158.3850  212.6650  147.2670 C   0  0  0  0  0  3  0  0  0  0  0  0
  157.8110  211.9120  145.0790 F   0  0  0  0  0  0  0  0  0  0  0  0
  159.6040  213.4630  145.3330 C   0  0  0  0  0  3  0  0  0  0  0  0
  158.5920  212.6710  145.8840 C   0  0  0  0  0  0  0  0  0  0  0  0
  160.4100  214.2480  146.1630 C   0  0  0  0  0  3  0  0  0  0  0  0
  160.9020  205.9790  149.2330 C   0  0  0  0  0  1  0  0  0  0  0  0
  160.2720  207.1580  149.6330 O   0  0  0  0  0  0  0  0  0  0  0  0
  1 27  1  0  0  0  0
  2 14  1  0  0  0  0
  2 24  1  0  0  0  0
  3 20  1  6  0  0  0
  3  9  1  0  0  0  0
  4 37  1  6  0  0  0
  4  1  1  0  0  0  0
  6 22  1  1  0  0  0
  7 21  1  0  0  0  0
  7  3  1  0  0  0  0
  8 12  1  0  0  0  0
  8 18  1  0  0  0  0
  9 13  1  0  0  0  0
  9  6  1  0  0  0  0
 10  5  1  0  0  0  0
 10  7  1  0  0  0  0
 11  6  1  0  0  0  0
 12  4  1  0  0  0  0
 13 17  1  0  0  0  0
 15 20  1  0  0  0  0
 16 11  1  0  0  0  0
 17  2  1  0  0  0  0
 18 25  1  0  0  0  0
 19 18  1  0  0  0  0
 19  5  1  0  0  0  0
 20 16  2  0  0  0  0
 21 13  1  0  0  0  0
 22  2  1  0  0  0  0
 23 28  1  0  0  0  0
 23 10  1  0  0  0  0
 25 27  1  0  0  0  0
 26  8  1  0  0  0  0
 27 21  1  0  0  0  0
 28 15  1  0  0  0  0
 29 30  1  0  0  0  0
 30 23  1  0  0  0  0
 31 30  2  0  0  0  0
 32 34  1  0  0  0  0
 33 34  2  0  0  0  0
 33 35  1  0  0  0  0
 34 31  1  0  0  0  0
 35 29  2  0  0  0  0
 36 37  1  0  0  0  0
M  END
>  <MODEL>
2

>  <REMARK>
 VINA RESULT:      -0.5      0.932      1.225
  Name = 
  2 active torsions:
  status: ('A' for Active; 'I' for Inactive)
    1  A    between atoms: C_4  and  O_37
    2  A    between atoms: C_23  and  C_30
                            x       y       z     vdW  Elec       q    Type
                         _______ _______ _______ _____ _____    ______ ____

>  <TORSDO>
F 2

$$$$
=
 OpenBabel11122413343D

 37 43  0  0  1  0  0  0  0  0999 V2000
  162.1380  209.6480  154.7970 C   0  0  0  0  0  2  0  0  0  0  0  0
  161.9760  207.8060  149.3470 C   0  0  0  0  0  0  0  0  0  0  0  0
  161.0850  211.4850  151.3390 C   0  0  1  0  0  3  0  0  0  0  0  0
  162.3330  209.2320  156.2720 C   0  0  2  0  0  3  0  0  0  0  0  0
  157.8240  210.3190  153.3310 S   0  0  0  0  0  0  0  0  0  0  0  0
  161.7720  210.3640  149.2350 C   0  0  2  0  0  3  0  0  0  0  0  0
  160.5860  211.0120  152.7180 C   0  0  1  0  0  3  0  0  0  0  0  0
  159.8310  209.6170  156.8540 N   0  0  0  0  0  0  0  0  0  0  0  0
  161.0480  210.2280  150.5410 C   0  0  1  0  0  3  0  0  0  0  0  0
  159.2170  211.5120  153.2630 C   0  0  1  0  0  3  0  0  0  0  0  0
  161.1690  211.4540  148.5230 O   0  0  0  0  0  0  0  0  0  0  0  0
  161.0750  208.8570  157.1150 C   0  0  0  0  0  2  0  0  0  0  0  0
  161.5860  209.1750  151.4370 C   0  0  2  0  0  3  0  0  0  0  0  0
  163.4880  207.7270  149.4860 C   0  0  0  0  0  1  0  0  0  0  0  0
  160.0290  213.9120  151.1290 C   0  0  0  0  0  2  0  0  0  0  0  0
  160.6090  212.5710  149.1860 C   0  0  0  0  0  3  0  0  0  0  0  0
  161.3190  207.8380  150.7500 C   0  0  0  0  0  2  0  0  0  0  0  0
  159.4550  209.6020  155.4360 C   0  0  2  0  0  3  0  0  0  0  0  0
  158.0110  209.9760  155.1300 C   0  0  0  0  0  2  0  0  0  0  0  0
  160.4850  212.6180  150.5290 C   0  0  0  0  0  0  0  0  0  0  0  0
  160.7410  209.4620  152.6630 C   0  0  1  0  0  3  0  0  0  0  0  0
  161.5940  209.0370  148.4860 C   0  0  0  0  0  2  0  0  0  0  0  0
  158.7760  212.9620  153.0370 C   0  0  2  0  0  3  0  0  0  0  0  0
  161.5050  206.5590  148.6310 C   0  0  0  0  0  1  0  0  0  0  0  0
  159.9310  208.3640  154.6870 C   0  0  0  0  0  2  0  0  0  0  0  0
  160.0460  210.9990  157.2560 C   0  0  0  0  0  1  0  0  0  0  0  0
  161.2010  208.7560  153.9470 C   0  0  2  0  0  3  0  0  0  0  0  0
  159.9200  213.8790  152.6410 C   0  0  0  0  0  2  0  0  0  0  0  0
  158.7840  213.9460  155.3650 C   0  0  0  0  0  3  0  0  0  0  0  0
  158.0700  213.4960  154.2440 C   0  0  0  0  0  0  0  0  0  0  0  0
  156.6710  213.5270  154.2580 C   0  0  0  0  0  3  0  0  0  0  0  0
  154.6350  214.0340  155.3910 F   0  0  0  0  0  0  0  0  0  0  0  0
  156.7060  214.4530  156.4960 C   0  0  0  0  0  3  0  0  0  0  0  0
  155.9890  214.0060  155.3820 C   0  0  0  0  0  0  0  0  0  0  0  0
  158.1030  214.4230  156.4880 C   0  0  0  0  0  3  0  0  0  0  0  0
  163.4790  211.0970  155.9370 C   0  0  0  0  0  1  0  0  0  0  0  0
  163.0730  210.2120  156.9370 O   0  0  0  0  0  0  0  0  0  0  0  0
  1  4  1  0  0  0  0
  2 14  1  0  0  0  0
  2 17  1  0  0  0  0
  3 20  1  6  0  0  0
  3  7  1  0  0  0  0
  4 37  1  1  0  0  0
  4 12  1  0  0  0  0
  5 19  1  0  0  0  0
  6 22  1  6  0  0  0
  6  9  1  0  0  0  0
  7 10  1  0  0  0  0
  8 12  1  0  0  0  0
  8 26  1  0  0  0  0
  9  3  1  0  0  0  0
  9 13  1  0  0  0  0
 10  5  1  0  0  0  0
 11 16  1  0  0  0  0
 11  6  1  0  0  0  0
 13 21  1  0  0  0  0
 15 28  1  0  0  0  0
 16 20  2  0  0  0  0
 17 13  1  0  0  0  0
 18  8  1  0  0  0  0
 19 18  1  0  0  0  0
 20 15  1  0  0  0  0
 21  7  1  0  0  0  0
 21 27  1  0  0  0  0
 22  2  1  0  0  0  0
 23 10  1  0  0  0  0
 23 30  1  0  0  0  0
 24  2  1  0  0  0  0
 25 18  1  0  0  0  0
 27 25  1  0  0  0  0
 27  1  1  0  0  0  0
 28 23  1  0  0  0  0
 29 35  1  0  0  0  0
 30 31  1  0  0  0  0
 30 29  2  0  0  0  0
 31 34  2  0  0  0  0
 34 32  1  0  0  0  0
 34 33  1  0  0  0  0
 35 33  2  0  0  0  0
 36 37  1  0  0  0  0
M  END
>  <MODEL>
3

>  <REMARK>
 VINA RESULT:       0.4      3.488      7.141
  Name = 
  2 active torsions:
  status: ('A' for Active; 'I' for Inactive)
    1  A    between atoms: C_4  and  O_37
    2  A    between atoms: C_23  and  C_30
                            x       y       z     vdW  Elec       q    Type
                         _______ _______ _______ _____ _____    ______ ____

>  <TORSDO>
F 2

$$$$
