=
 OpenBabel11122414383D

 34 40  0  0  1  0  0  0  0  0999 V2000
  160.8250  207.3230  153.3490 C   0  0  0  0  0  0  0  0  0  0  0  0
  161.3200  205.4940  151.7140 C   0  0  0  0  0  2  0  0  0  0  0  0
  159.0920  213.1960  154.7800 C   0  0  0  0  0  0  0  0  0  0  0  0
  160.7340  209.1700  154.9030 C   0  0  0  0  0  0  0  0  0  0  0  0
  160.8200  211.5400  154.0840 C   0  0  2  0  0  3  0  0  0  0  0  0
  159.1560  212.4650  152.3850 C   0  0  0  0  0  1  0  0  0  0  0  0
  159.0440  214.3820  154.3560 O   0  0  0  0  0  0  0  0  0  0  0  0
  158.8820  211.3370  156.8780 S   0  0  0  0  0  0  0  0  0  0  0  0
  161.1470  207.7350  150.9310 C   0  0  1  0  0  3  0  0  0  0  0  0
  162.6490  208.6070  148.4680 O   0  0  0  0  0  0  0  0  0  0  0  0
  161.3760  210.9480  152.9040 O   0  0  0  0  0  0  0  0  0  0  0  0
  160.6490  211.0540  156.5580 C   0  0  0  0  0  2  0  0  0  0  0  0
  161.5400  209.1030  151.2830 N   0  0  0  0  0  0  0  0  0  0  0  0
  161.9630  205.5590  150.5510 C   0  0  0  0  0  2  0  0  0  0  0  0
  160.8210  210.5760  155.1910 N   0  0  0  0  0  0  0  0  0  0  0  0
  158.9510  212.9600  156.1830 N   0  0  0  0  0  2  0  0  0  0  0  0
  162.0920  207.3350  148.6750 C   0  0  2  0  0  3  0  0  0  0  0  0
  160.9110  208.7130  153.5910 C   0  0  0  0  0  0  0  0  0  0  0  0
  159.3920  212.0590  153.8380 C   0  0  2  0  0  3  0  0  0  0  0  0
  161.2580  209.5810  152.6140 C   0  0  0  0  0  0  0  0  0  0  0  0
  160.4740  206.9360  155.6560 C   0  0  0  0  0  3  0  0  0  0  0  0
  161.6620  209.5460  148.8100 C   0  0  0  0  0  2  0  0  0  0  0  0
  160.5220  208.2710  155.9040 N   0  0  0  0  0  0  0  0  0  0  0  0
  161.8880  210.0770  150.2350 C   0  0  0  0  0  2  0  0  0  0  0  0
  162.2100  206.9910  150.1570 C   0  0  1  0  0  3  0  0  0  0  0  0
  160.6320  206.4710  154.3900 N   0  0  0  0  0  0  0  0  0  0  0  0
  160.9910  206.8560  152.1080 C   0  0  0  0  0  0  0  0  0  0  0  0
  162.7950  206.3860  147.8790 O   0  0  0  0  0  0  0  0  0  0  0  0
  162.2820  205.8020  146.7300 N   0  0  0  0  0  0  0  0  0  0  0  0
  161.0230  202.6540  145.5530 N   0  0  0  0  0  2  0  0  0  0  0  0
  161.7560  203.5800  147.6770 C   0  0  0  0  0  2  0  0  0  0  0  0
  161.8520  204.5800  146.6040 C   0  0  0  0  0  0  0  0  0  0  0  0
  161.0420  202.4260  147.0020 C   0  0  0  0  0  2  0  0  0  0  0  0
  161.3400  204.0600  145.3270 C   0  0  0  0  0  2  0  0  0  0  0  0
  1 18  1  0  0  0  0
  1 26  1  0  0  0  0
  2 27  1  0  0  0  0
  3 16  1  0  0  0  0
  4 15  1  0  0  0  0
  4 23  2  0  0  0  0
  5 11  1  6  0  0  0
  5 15  1  0  0  0  0
  7  3  2  0  0  0  0
  9 13  1  0  0  0  0
  9 27  1  1  0  0  0
 10 17  1  0  0  0  0
 10 22  1  0  0  0  0
 12  8  1  0  0  0  0
 13 20  1  0  0  0  0
 14  2  1  0  0  0  0
 15 12  1  0  0  0  0
 16  8  1  0  0  0  0
 17 28  1  6  0  0  0
 17 25  1  0  0  0  0
 18  4  1  0  0  0  0
 19  6  1  6  0  0  0
 19  5  1  0  0  0  0
 19  3  1  0  0  0  0
 20 11  1  0  0  0  0
 20 18  2  0  0  0  0
 21 23  1  0  0  0  0
 22 24  1  0  0  0  0
 24 13  1  0  0  0  0
 25 14  1  6  0  0  0
 25  9  1  0  0  0  0
 26 21  2  0  0  0  0
 27  1  2  0  0  0  0
 29 28  1  0  0  0  0
 30 33  1  0  0  0  0
 32 29  2  0  0  0  0
 32 31  1  0  0  0  0
 33 31  1  0  0  0  0
 34 30  1  0  0  0  0
 34 32  1  0  0  0  0
M  END
>  <MODEL>
1

>  <REMARK>
 VINA RESULT:      -9.6      0.000      0.000
  Name = 
  2 active torsions:
  status: ('A' for Active; 'I' for Inactive)
    1  A    between atoms: C_17  and  O_28
    2  A    between atoms: O_28  and  N_29
                            x       y       z     vdW  Elec       q    Type
                         _______ _______ _______ _____ _____    ______ ____

>  <TORSDO>
F 2

$$$$
=
 OpenBabel11122414383D

 34 40  0  0  1  0  0  0  0  0999 V2000
  161.3200  204.9440  151.9870 C   0  0  0  0  0  0  0  0  0  0  0  0
  161.6340  206.4790  153.9390 C   0  0  0  0  0  2  0  0  0  0  0  0
  161.9010  203.4900  145.8970 C   0  0  0  0  0  0  0  0  0  0  0  0
  160.6650  203.6370  150.0650 C   0  0  0  0  0  0  0  0  0  0  0  0
  160.7070  204.6330  147.7620 C   0  0  2  0  0  3  0  0  0  0  0  0
  162.8110  205.6620  146.7510 C   0  0  0  0  0  1  0  0  0  0  0  0
  162.0100  203.9680  144.7360 O   0  0  0  0  0  0  0  0  0  0  0  0
  161.4470  201.3110  147.6140 S   0  0  0  0  0  0  0  0  0  0  0  0
  161.9100  207.3340  151.7350 C   0  0  1  0  0  3  0  0  0  0  0  0
  161.3910  210.2460  151.1560 O   0  0  0  0  0  0  0  0  0  0  0  0
  160.6900  205.8790  148.4700 O   0  0  0  0  0  0  0  0  0  0  0  0
  159.9630  202.2420  148.1010 C   0  0  0  0  0  2  0  0  0  0  0  0
  161.3040  207.2760  150.4010 N   0  0  0  0  0  0  0  0  0  0  0  0
  161.4780  207.7990  154.0030 C   0  0  0  0  0  2  0  0  0  0  0  0
  160.3620  203.5270  148.6630 N   0  0  0  0  0  0  0  0  0  0  0  0
  161.5170  202.1220  146.0440 N   0  0  0  0  0  2  0  0  0  0  0  0
  161.9290  209.7350  152.3490 C   0  0  2  0  0  3  0  0  0  0  0  0
  161.0370  204.8750  150.6040 C   0  0  0  0  0  0  0  0  0  0  0  0
  162.0740  204.3730  147.1050 C   0  0  2  0  0  3  0  0  0  0  0  0
  161.0200  205.9830  149.8280 C   0  0  0  0  0  0  0  0  0  0  0  0
  160.7980  202.6490  152.2160 C   0  0  0  0  0  3  0  0  0  0  0  0
  162.0960  209.6430  150.1000 C   0  0  0  0  0  2  0  0  0  0  0  0
  160.5530  202.5550  150.8830 N   0  0  0  0  0  0  0  0  0  0  0  0
  161.3030  208.4580  149.5250 C   0  0  0  0  0  2  0  0  0  0  0  0
  161.2840  208.3810  152.6280 C   0  0  1  0  0  3  0  0  0  0  0  0
  161.1720  203.8360  152.7600 N   0  0  0  0  0  0  0  0  0  0  0  0
  161.6770  206.1120  152.5320 C   0  0  0  0  0  0  0  0  0  0  0  0
  161.6600  210.6500  153.4070 O   0  0  0  0  0  0  0  0  0  0  0  0
  160.6240  211.5720  153.3930 N   0  0  0  0  0  0  0  0  0  0  0  0
  157.4340  212.1710  154.9250 N   0  0  0  0  0  2  0  0  0  0  0  0
  159.2360  210.5590  155.1700 C   0  0  0  0  0  2  0  0  0  0  0  0
  159.5470  211.5430  154.1240 C   0  0  0  0  0  0  0  0  0  0  0  0
  157.9650  211.1100  155.7870 C   0  0  0  0  0  2  0  0  0  0  0  0
  158.5010  212.5720  154.0150 C   0  0  0  0  0  2  0  0  0  0  0  0
  1 27  2  0  0  0  0
  1 26  1  0  0  0  0
  2 14  1  0  0  0  0
  3 16  1  0  0  0  0
  3 19  1  0  0  0  0
  4 18  1  0  0  0  0
  4 23  2  0  0  0  0
  5 11  1  1  0  0  0
  5 15  1  0  0  0  0
  7  3  2  0  0  0  0
  8 12  1  0  0  0  0
  9 27  1  1  0  0  0
  9 25  1  0  0  0  0
 10 17  1  0  0  0  0
 11 20  1  0  0  0  0
 12 15  1  0  0  0  0
 13  9  1  0  0  0  0
 15  4  1  0  0  0  0
 16  8  1  0  0  0  0
 17 25  1  0  0  0  0
 17 28  1  1  0  0  0
 18  1  1  0  0  0  0
 19  6  1  6  0  0  0
 19  5  1  0  0  0  0
 20 13  1  0  0  0  0
 20 18  2  0  0  0  0
 21 26  2  0  0  0  0
 22 10  1  0  0  0  0
 23 21  1  0  0  0  0
 24 22  1  0  0  0  0
 24 13  1  0  0  0  0
 25 14  1  1  0  0  0
 27  2  1  0  0  0  0
 29 28  1  0  0  0  0
 29 32  2  0  0  0  0
 30 33  1  0  0  0  0
 31 33  1  0  0  0  0
 32 31  1  0  0  0  0
 34 32  1  0  0  0  0
 34 30  1  0  0  0  0
M  END
>  <MODEL>
2

>  <REMARK>
 VINA RESULT:      -8.1      3.102      8.626
  Name = 
  2 active torsions:
  status: ('A' for Active; 'I' for Inactive)
    1  A    between atoms: C_17  and  O_28
    2  A    between atoms: O_28  and  N_29
                            x       y       z     vdW  Elec       q    Type
                         _______ _______ _______ _____ _____    ______ ____

>  <TORSDO>
F 2

$$$$
=
 OpenBabel11122414383D

 34 40  0  0  1  0  0  0  0  0999 V2000
  161.2520  209.8960  151.0730 C   0  0  0  0  0  0  0  0  0  0  0  0
  160.6890  211.5810  152.8340 C   0  0  0  0  0  2  0  0  0  0  0  0
  161.1720  204.0670  148.7130 C   0  0  0  0  0  0  0  0  0  0  0  0
  162.1350  208.2210  149.5720 C   0  0  0  0  0  0  0  0  0  0  0  0
  162.1460  205.7970  150.2200 C   0  0  2  0  0  3  0  0  0  0  0  0
  160.0260  204.5460  150.8890 C   0  0  0  0  0  1  0  0  0  0  0  0
  161.0920  202.8440  149.0070 O   0  0  0  0  0  0  0  0  0  0  0  0
  161.7090  206.1080  146.8550 S   0  0  0  0  0  0  0  0  0  0  0  0
  160.4730  209.2650  153.3350 C   0  0  1  0  0  3  0  0  0  0  0  0
  160.7710  208.2850  156.1700 O   0  0  0  0  0  0  0  0  0  0  0  0
  162.0120  206.3130  151.5500 O   0  0  0  0  0  0  0  0  0  0  0  0
  163.0730  206.5210  147.9840 C   0  0  0  0  0  2  0  0  0  0  0  0
  161.1620  207.9840  153.1440 N   0  0  0  0  0  0  0  0  0  0  0  0
  160.7250  211.4570  154.1590 C   0  0  0  0  0  2  0  0  0  0  0  0
  162.5300  206.8680  149.2920 N   0  0  0  0  0  0  0  0  0  0  0  0
  161.6640  204.4340  147.4230 N   0  0  0  0  0  2  0  0  0  0  0  0
  160.2080  209.5140  155.7870 C   0  0  2  0  0  3  0  0  0  0  0  0
  161.6240  208.5530  150.8330 C   0  0  0  0  0  0  0  0  0  0  0  0
  160.8490  205.1220  149.7390 C   0  0  2  0  0  3  0  0  0  0  0  0
  161.5920  207.6240  151.8150 C   0  0  0  0  0  0  0  0  0  0  0  0
  161.9580  210.4870  148.8940 C   0  0  0  0  0  3  0  0  0  0  0  0
  160.1860  207.2990  155.3580 C   0  0  0  0  0  2  0  0  0  0  0  0
  162.2910  209.1950  148.6340 N   0  0  0  0  0  0  0  0  0  0  0  0
  161.1130  206.9440  154.1840 C   0  0  0  0  0  2  0  0  0  0  0  0
  160.9500  210.0210  154.5530 C   0  0  1  0  0  3  0  0  0  0  0  0
  161.4500  210.8300  150.1060 N   0  0  0  0  0  0  0  0  0  0  0  0
  160.7630  210.2440  152.2670 C   0  0  0  0  0  0  0  0  0  0  0  0
  160.3320  210.4370  156.8640 O   0  0  0  0  0  0  0  0  0  0  0  0
  159.3290  211.3090  157.2610 N   0  0  0  0  0  0  0  0  0  0  0  0
  156.0490  212.3830  156.2750 N   0  0  0  0  0  2  0  0  0  0  0  0
  157.6480  210.7020  155.5520 C   0  0  0  0  0  2  0  0  0  0  0  0
  158.1670  211.4680  156.6950 C   0  0  0  0  0  0  0  0  0  0  0  0
  156.2170  211.1890  155.4400 C   0  0  0  0  0  2  0  0  0  0  0  0
  157.1810  212.4380  157.1940 C   0  0  0  0  0  2  0  0  0  0  0  0
  1 27  2  0  0  0  0
  2 14  1  0  0  0  0
  3  7  2  0  0  0  0
  3 19  1  0  0  0  0
  4 18  1  0  0  0  0
  5 11  1  1  0  0  0
  8 16  1  0  0  0  0
  8 12  1  0  0  0  0
  9 27  1  6  0  0  0
  9 25  1  0  0  0  0
 11 20  1  0  0  0  0
 12 15  1  0  0  0  0
 13  9  1  0  0  0  0
 13 24  1  0  0  0  0
 15  4  1  0  0  0  0
 15  5  1  0  0  0  0
 16  3  1  0  0  0  0
 17 10  1  0  0  0  0
 17 28  1  1  0  0  0
 18  1  1  0  0  0  0
 18 20  2  0  0  0  0
 19  5  1  0  0  0  0
 19  6  1  1  0  0  0
 20 13  1  0  0  0  0
 21 26  2  0  0  0  0
 22 10  1  0  0  0  0
 23 21  1  0  0  0  0
 23  4  2  0  0  0  0
 24 22  1  0  0  0  0
 25 14  1  6  0  0  0
 25 17  1  0  0  0  0
 26  1  1  0  0  0  0
 27  2  1  0  0  0  0
 28 29  1  0  0  0  0
 30 34  1  0  0  0  0
 31 32  1  0  0  0  0
 32 34  1  0  0  0  0
 32 29  2  0  0  0  0
 33 31  1  0  0  0  0
 33 30  1  0  0  0  0
M  END
>  <MODEL>
3

>  <REMARK>
 VINA RESULT:      -6.7      2.967      8.866
  Name = 
  2 active torsions:
  status: ('A' for Active; 'I' for Inactive)
    1  A    between atoms: C_17  and  O_28
    2  A    between atoms: O_28  and  N_29
                            x       y       z     vdW  Elec       q    Type
                         _______ _______ _______ _____ _____    ______ ____

>  <TORSDO>
F 2

$$$$
