=
 OpenBabel11122414093D

 28 32  0  0  1  0  0  0  0  0999 V2000
  161.1530  209.7130  156.4930 C   0  0  0  0  0  0  0  0  0  0  0  0
  157.5190  211.5540  153.4340 F   0  0  0  0  0  0  0  0  0  0  0  0
  162.1610  207.3190  152.2150 O   0  0  0  0  0  0  0  0  0  0  0  0
  163.4640  210.9520  155.6580 C   0  0  0  0  0  3  0  0  0  0  0  0
  161.3620  209.4810  151.4990 C   0  0  1  0  0  3  0  0  0  0  0  0
  159.6870  208.8190  157.0100 S   0  0  0  0  0  0  0  0  0  0  0  0
  158.0740  213.1310  155.0950 C   0  0  0  0  0  1  0  0  0  0  0  0
  158.4320  212.5520  153.7410 C   0  0  1  0  0  0  0  0  0  0  0  0
  158.7020  213.1320  151.3300 C   0  0  1  0  0  3  0  0  0  0  0  0
  159.8760  211.9950  153.7980 C   0  0  2  0  0  3  0  0  0  0  0  0
  162.2460  207.2910  155.2170 O   0  0  0  0  0  1  0  0  0  0  0  0
  159.7130  209.6080  153.3460 C   0  0  1  0  0  3  0  0  0  0  0  0
  160.1750  212.7550  151.3380 C   0  0  0  0  0  2  0  0  0  0  0  0
  158.3120  213.6590  152.7010 C   0  0  0  0  0  2  0  0  0  0  0  0
  160.9370  206.8280  155.3680 C   0  0  2  0  0  3  0  0  0  0  0  0
  161.1710  210.4520  155.2980 C   0  0  0  0  0  0  0  0  0  0  0  0
  161.4150  208.3160  152.4070 C   0  0  0  0  0  0  0  0  0  0  0  0
  158.4640  214.2050  150.2890 C   0  0  0  0  0  1  0  0  0  0  0  0
  160.0170  207.2350  154.2140 C   0  0  0  0  0  2  0  0  0  0  0  0
  162.3370  211.0380  154.9050 N   0  0  0  0  0  0  0  0  0  0  0  0
  162.2780  209.6510  157.2550 N   0  0  0  0  0  0  0  0  0  0  0  0
  163.4310  210.2530  156.8650 C   0  0  0  0  0  3  0  0  0  0  0  0
  160.3860  207.1400  156.7620 C   0  0  0  0  0  2  0  0  0  0  0  0
  160.1640  210.2900  152.0440 C   0  0  1  0  0  3  0  0  0  0  0  0
  160.5110  208.4040  153.4930 N   0  0  0  0  0  0  0  0  0  0  0  0
  160.5020  211.7270  152.4240 C   0  0  2  0  0  3  0  0  0  0  0  0
  162.5650  210.1900  151.5860 O   0  0  0  0  0  1  0  0  0  0  0  0
  159.9100  210.6290  154.4810 C   0  0  1  0  0  3  0  0  0  0  0  0
  1  6  1  0  0  0  0
  1 21  1  0  0  0  0
  2  8  1  0  0  0  0
  3 17  2  0  0  0  0
  4 22  1  0  0  0  0
  5 27  1  1  0  0  0
  5 24  1  0  0  0  0
  5 17  1  0  0  0  0
  8 10  1  0  0  0  0
  8  7  1  1  0  0  0
  9 18  1  6  0  0  0
  9 13  1  0  0  0  0
  9 14  1  0  0  0  0
 10 28  1  0  0  0  0
 11 15  1  0  0  0  0
 12 25  1  0  0  0  0
 12 28  1  0  0  0  0
 13 26  1  0  0  0  0
 14  8  1  0  0  0  0
 15 23  1  0  0  0  0
 16  1  2  0  0  0  0
 17 25  1  0  0  0  0
 19 15  1  0  0  0  0
 20 16  1  0  0  0  0
 20  4  2  0  0  0  0
 22 21  2  0  0  0  0
 23  6  1  0  0  0  0
 24 26  1  0  0  0  0
 24 12  1  0  0  0  0
 25 19  1  0  0  0  0
 26 10  1  0  0  0  0
 28 16  1  0  0  0  0
M  END
>  <MODEL>
1

>  <REMARK>
 VINA RESULT:      -2.5      0.000      0.000
  Name = 
  0 active torsions:
  status: ('A' for Active; 'I' for Inactive)
                            x       y       z     vdW  Elec       q    Type
                         _______ _______ _______ _____ _____    ______ ____

>  <TORSDO>
F 0

$$$$
=
 OpenBabel11122414093D

 28 32  0  0  1  0  0  0  0  0999 V2000
  160.2880  209.9910  156.3480 C   0  0  0  0  0  0  0  0  0  0  0  0
  155.6290  210.6120  154.3830 F   0  0  0  0  0  0  0  0  0  0  0  0
  161.3710  211.3030  151.6410 O   0  0  0  0  0  0  0  0  0  0  0  0
  161.2610  212.5470  156.6600 C   0  0  0  0  0  3  0  0  0  0  0  0
  159.3760  212.5610  152.1520 C   0  0  1  0  0  3  0  0  0  0  0  0
  159.7260  208.3090  156.0790 S   0  0  0  0  0  0  0  0  0  0  0  0
  155.6120  211.0600  156.6970 C   0  0  0  0  0  1  0  0  0  0  0  0
  155.8890  211.6090  155.3120 C   0  0  1  0  0  0  0  0  0  0  0  0
  155.2060  213.3810  153.6930 C   0  0  1  0  0  3  0  0  0  0  0  0
  157.3650  212.0730  155.2400 C   0  0  2  0  0  3  0  0  0  0  0  0
  162.1790  209.7760  154.0980 O   0  0  0  0  0  1  0  0  0  0  0  0
  158.4300  210.7200  153.5180 C   0  0  1  0  0  3  0  0  0  0  0  0
  156.5950  213.9990  153.6860 C   0  0  0  0  0  2  0  0  0  0  0  0
  154.9360  212.7710  155.0600 C   0  0  0  0  0  2  0  0  0  0  0  0
  161.4190  208.6460  153.7900 C   0  0  2  0  0  3  0  0  0  0  0  0
  159.6090  211.0850  155.7820 C   0  0  0  0  0  0  0  0  0  0  0  0
  160.2740  211.3910  152.2550 C   0  0  0  0  0  0  0  0  0  0  0  0
  154.1770  214.4530  153.4060 C   0  0  0  0  0  1  0  0  0  0  0  0
  160.1810  208.9630  152.9480 C   0  0  0  0  0  2  0  0  0  0  0  0
  160.1290  212.3340  155.9410 N   0  0  0  0  0  0  0  0  0  0  0  0
  161.4080  210.2130  157.0870 N   0  0  0  0  0  0  0  0  0  0  0  0
  161.9080  211.4640  157.2560 C   0  0  0  0  0  3  0  0  0  0  0  0
  161.1440  207.7960  155.0340 C   0  0  0  0  0  2  0  0  0  0  0  0
  158.1040  212.0850  152.8900 C   0  0  1  0  0  3  0  0  0  0  0  0
  159.7640  210.3560  153.0750 N   0  0  0  0  0  0  0  0  0  0  0  0
  157.6810  212.9840  154.0470 C   0  0  2  0  0  3  0  0  0  0  0  0
  159.9730  213.6600  152.7780 O   0  0  0  0  0  1  0  0  0  0  0  0
  158.3040  210.8840  155.0440 C   0  0  1  0  0  3  0  0  0  0  0  0
  1 21  1  0  0  0  0
  2  8  1  0  0  0  0
  3 17  2  0  0  0  0
  4 22  1  0  0  0  0
  5 17  1  0  0  0  0
  5 27  1  1  0  0  0
  5 24  1  0  0  0  0
  6  1  1  0  0  0  0
  8  7  1  1  0  0  0
  9 18  1  1  0  0  0
  9 14  1  0  0  0  0
 10  8  1  0  0  0  0
 12 28  1  0  0  0  0
 13  9  1  0  0  0  0
 13 26  1  0  0  0  0
 14  8  1  0  0  0  0
 15 11  1  0  0  0  0
 15 23  1  0  0  0  0
 16 20  1  0  0  0  0
 16  1  2  0  0  0  0
 17 25  1  0  0  0  0
 19 25  1  0  0  0  0
 19 15  1  0  0  0  0
 20  4  2  0  0  0  0
 21 22  2  0  0  0  0
 23  6  1  0  0  0  0
 24 12  1  0  0  0  0
 24 26  1  0  0  0  0
 25 12  1  0  0  0  0
 26 10  1  0  0  0  0
 28 10  1  0  0  0  0
 28 16  1  0  0  0  0
M  END
>  <MODEL>
2

>  <REMARK>
 VINA RESULT:      -2.4      2.233      3.052
  Name = 
  0 active torsions:
  status: ('A' for Active; 'I' for Inactive)
                            x       y       z     vdW  Elec       q    Type
                         _______ _______ _______ _____ _____    ______ ____

>  <TORSDO>
F 0

$$$$
=
 OpenBabel11122414093D

 28 32  0  0  1  0  0  0  0  0999 V2000
  161.0470  208.8450  155.6410 C   0  0  0  0  0  0  0  0  0  0  0  0
  156.2940  210.2950  154.5180 F   0  0  0  0  0  0  0  0  0  0  0  0
  161.6080  210.5170  150.9570 O   0  0  0  0  0  0  0  0  0  0  0  0
  162.4250  211.1980  156.0190 C   0  0  0  0  0  3  0  0  0  0  0  0
  159.9200  211.9640  151.8940 C   0  0  1  0  0  3  0  0  0  0  0  0
  160.2080  207.2940  155.3170 S   0  0  0  0  0  0  0  0  0  0  0  0
  156.6850  210.4800  156.8350 C   0  0  0  0  0  1  0  0  0  0  0  0
  156.8340  211.1390  155.4770 C   0  0  1  0  0  0  0  0  0  0  0  0
  156.1910  213.1540  154.1560 C   0  0  1  0  0  3  0  0  0  0  0  0
  158.3360  211.4070  155.2100 C   0  0  2  0  0  3  0  0  0  0  0  0
  162.5340  208.6330  153.1050 O   0  0  0  0  0  1  0  0  0  0  0  0
  158.9230  210.1250  153.2250 C   0  0  1  0  0  3  0  0  0  0  0  0
  157.6400  213.5800  153.9790 C   0  0  0  0  0  2  0  0  0  0  0  0
  156.0370  212.4380  155.4880 C   0  0  0  0  0  2  0  0  0  0  0  0
  161.5770  207.6540  152.8240 C   0  0  2  0  0  3  0  0  0  0  0  0
  160.4630  210.0760  155.2920 C   0  0  0  0  0  0  0  0  0  0  0  0
  160.6390  210.6820  151.7460 C   0  0  0  0  0  0  0  0  0  0  0  0
  155.3020  214.3790  154.1360 C   0  0  0  0  0  1  0  0  0  0  0  0
  160.2900  208.2250  152.2250 C   0  0  0  0  0  2  0  0  0  0  0  0
  161.1800  211.2190  155.4760 N   0  0  0  0  0  0  0  0  0  0  0  0
  162.2840  208.8330  156.2060 N   0  0  0  0  0  0  0  0  0  0  0  0
  162.9850  209.9790  156.4030 C   0  0  0  0  0  3  0  0  0  0  0  0
  161.3650  206.7160  154.0150 C   0  0  0  0  0  2  0  0  0  0  0  0
  158.7140  211.5820  152.7820 C   0  0  1  0  0  3  0  0  0  0  0  0
  160.1080  209.6390  152.5410 N   0  0  0  0  0  0  0  0  0  0  0  0
  158.6040  212.3950  154.0680 C   0  0  2  0  0  3  0  0  0  0  0  0
  160.7590  212.8970  152.5110 O   0  0  0  0  0  1  0  0  0  0  0  0
  159.0480  210.1340  154.7600 C   0  0  1  0  0  3  0  0  0  0  0  0
  1 21  1  0  0  0  0
  2  8  1  0  0  0  0
  3 17  2  0  0  0  0
  4 22  1  0  0  0  0
  5 27  1  1  0  0  0
  5 24  1  0  0  0  0
  6  1  1  0  0  0  0
  8 14  1  0  0  0  0
  8  7  1  1  0  0  0
  9 18  1  1  0  0  0
  9 14  1  0  0  0  0
 10  8  1  0  0  0  0
 12 28  1  0  0  0  0
 13 26  1  0  0  0  0
 13  9  1  0  0  0  0
 15 11  1  0  0  0  0
 15 23  1  0  0  0  0
 16 20  1  0  0  0  0
 16  1  2  0  0  0  0
 17  5  1  0  0  0  0
 17 25  1  0  0  0  0
 19 25  1  0  0  0  0
 19 15  1  0  0  0  0
 20  4  2  0  0  0  0
 21 22  2  0  0  0  0
 23  6  1  0  0  0  0
 24 12  1  0  0  0  0
 24 26  1  0  0  0  0
 25 12  1  0  0  0  0
 26 10  1  0  0  0  0
 28 10  1  0  0  0  0
 28 16  1  0  0  0  0
M  END
>  <MODEL>
3

>  <REMARK>
 VINA RESULT:       0.1      1.753      2.610
  Name = 
  0 active torsions:
  status: ('A' for Active; 'I' for Inactive)
                            x       y       z     vdW  Elec       q    Type
                         _______ _______ _______ _____ _____    ______ ____

>  <TORSDO>
F 0

$$$$
