=
 OpenBabel11122413073D

 31 35  0  0  1  0  0  0  0  0999 V2000
  161.0580  206.4470  146.7240 C   0  0  0  0  0  0  0  0  0  0  0  0
  160.3050  205.1270  150.1440 C   0  0  2  0  0  3  0  0  0  0  0  0
  160.7310  203.6760  150.0620 C   0  0  0  0  0  0  0  0  0  0  0  0
  161.0640  201.7160  148.7660 C   0  0  0  0  0  0  0  0  0  0  0  0
  160.9080  205.9640  149.0400 C   0  0  0  0  0  0  0  0  0  0  0  0
  162.0090  207.3860  146.9640 N   0  0  0  0  0  0  0  0  0  0  0  0
  160.7490  203.0330  148.8620 N   0  0  0  0  0  0  0  0  0  0  0  0
  161.9880  206.2210  151.7130 C   0  0  2  0  0  3  0  0  0  0  0  0
  160.6310  206.1930  145.3920 N   0  0  0  0  0  1  0  0  0  0  0  0
  161.0100  203.5990  152.5720 C   0  0  0  0  0  2  0  0  0  0  0  0
  161.0880  201.0480  147.4390 C   0  0  0  0  0  1  0  0  0  0  0  0
  162.2860  207.3200  150.6980 C   0  0  0  0  0  2  0  0  0  0  0  0
  160.5410  205.7330  151.5440 C   0  0  2  0  0  3  0  0  0  0  0  0
  160.5160  205.7480  147.7550 N   0  0  0  0  0  0  0  0  0  0  0  0
  161.3590  200.9950  149.9220 C   0  0  0  0  0  3  0  0  0  0  0  0
  161.8960  206.9330  149.3040 C   0  0  0  0  0  0  0  0  0  0  0  0
  162.4270  207.6450  148.2300 C   0  0  0  0  0  3  0  0  0  0  0  0
  160.1470  204.7830  152.5940 N   0  0  0  0  0  2  0  0  0  0  0  0
  160.9960  202.9360  151.2290 C   0  0  0  0  0  0  0  0  0  0  0  0
  161.3210  201.6210  151.1270 N   0  0  0  0  0  0  0  0  0  0  0  0
  160.5400  208.3800  152.8800 O   0  0  0  0  0  0  0  0  0  0  0  0
  161.4230  207.8210  153.5870 C   0  0  0  0  0  0  0  0  0  0  0  0
  162.1880  206.7360  153.0600 N   0  0  0  0  0  2  0  0  0  0  0  0
  159.3220  209.7030  155.5830 C   0  0  0  0  0  0  0  0  0  0  0  0
  160.7760  207.6840  156.0250 C   0  0  0  0  0  2  0  0  0  0  0  0
  162.7160  210.3620  154.2480 C   0  0  0  0  0  1  0  0  0  0  0  0
  158.2360  210.3080  155.7720 O   0  0  0  0  0  0  0  0  0  0  0  0
  159.4770  208.3570  156.0370 N   0  0  0  0  0  2  0  0  0  0  0  0
  161.7170  209.7780  155.1300 N   0  0  0  0  0  0  0  0  0  0  0  0
  161.7130  208.3080  154.9860 C   0  0  2  0  0  3  0  0  0  0  0  0
  160.4140  210.3580  154.7930 C   0  0  0  0  0  2  0  0  0  0  0  0
  1  6  2  0  0  0  0
  1 14  1  0  0  0  0
  2  5  1  6  0  0  0
  2 13  1  0  0  0  0
  3  2  1  0  0  0  0
  3 19  1  0  0  0  0
  4  7  1  0  0  0  0
  4 15  2  0  0  0  0
  5 16  1  0  0  0  0
  6 17  1  0  0  0  0
  7  3  2  0  0  0  0
  8 23  1  1  0  0  0
  9  1  1  0  0  0  0
 10 18  1  0  0  0  0
 11  4  1  0  0  0  0
 12  8  1  0  0  0  0
 13  8  1  0  0  0  0
 13 18  1  1  0  0  0
 14  5  2  0  0  0  0
 15 20  1  0  0  0  0
 16 12  1  0  0  0  0
 17 16  2  0  0  0  0
 19 10  1  0  0  0  0
 20 19  2  0  0  0  0
 21 22  2  0  0  0  0
 23 22  1  0  0  0  0
 24 27  2  0  0  0  0
 24 28  1  0  0  0  0
 25 28  1  0  0  0  0
 26 29  1  0  0  0  0
 30 22  1  6  0  0  0
 30 29  1  0  0  0  0
 30 25  1  0  0  0  0
 31 29  1  0  0  0  0
 31 24  1  0  0  0  0
M  END
>  <MODEL>
1

>  <REMARK>
 VINA RESULT:      -6.8      0.000      0.000
  Name = 
  2 active torsions:
  status: ('A' for Active; 'I' for Inactive)
    1  A    between atoms: C_5  and  C_30
    2  A    between atoms: C_10  and  N_16
                            x       y       z     vdW  Elec       q    Type
                         _______ _______ _______ _____ _____    ______ ____

>  <TORSDO>
F 2

$$$$
=
 OpenBabel11122413073D

 31 35  0  0  1  0  0  0  0  0999 V2000
  160.6090  207.9520  156.2840 C   0  0  0  0  0  0  0  0  0  0  0  0
  161.8960  208.9210  152.9060 C   0  0  2  0  0  3  0  0  0  0  0  0
  161.5520  207.7250  152.0430 C   0  0  0  0  0  0  0  0  0  0  0  0
  161.1670  205.3910  151.8480 C   0  0  0  0  0  0  0  0  0  0  0  0
  161.1000  208.9480  154.1900 C   0  0  0  0  0  0  0  0  0  0  0  0
  159.6440  208.8780  156.5180 N   0  0  0  0  0  0  0  0  0  0  0  0
  161.4110  206.4930  152.6040 N   0  0  0  0  0  0  0  0  0  0  0  0
  160.3760  210.7910  152.0780 C   0  0  2  0  0  3  0  0  0  0  0  0
  160.8680  206.9370  157.2450 N   0  0  0  0  0  1  0  0  0  0  0  0
  161.6190  209.1770  149.9760 C   0  0  0  0  0  2  0  0  0  0  0  0
  161.0050  204.0630  152.4920 C   0  0  0  0  0  1  0  0  0  0  0  0
  159.8780  211.0720  153.4920 C   0  0  0  0  0  2  0  0  0  0  0  0
  161.8140  210.2520  152.1290 C   0  0  2  0  0  3  0  0  0  0  0  0
  161.3270  207.9930  155.1310 N   0  0  0  0  0  0  0  0  0  0  0  0
  161.0750  205.5170  150.4620 C   0  0  0  0  0  3  0  0  0  0  0  0
  160.0980  209.9140  154.4180 C   0  0  0  0  0  0  0  0  0  0  0  0
  159.3850  209.8570  155.6130 C   0  0  0  0  0  3  0  0  0  0  0  0
  162.4030  210.1090  150.7900 N   0  0  0  0  0  2  0  0  0  0  0  0
  161.4920  207.8410  150.6420 C   0  0  0  0  0  0  0  0  0  0  0  0
  161.2370  206.7390  149.8900 N   0  0  0  0  0  0  0  0  0  0  0  0
  158.0000  212.1750  151.3310 O   0  0  0  0  0  0  0  0  0  0  0  0
  159.1010  212.6650  150.9570 C   0  0  0  0  0  0  0  0  0  0  0  0
  160.3290  212.0170  151.2940 N   0  0  0  0  0  2  0  0  0  0  0  0
  157.9260  213.0170  147.7260 C   0  0  0  0  0  0  0  0  0  0  0  0
  157.7410  214.4510  149.7990 C   0  0  0  0  0  2  0  0  0  0  0  0
  161.3040  213.4360  149.1920 C   0  0  0  0  0  1  0  0  0  0  0  0
  157.3830  212.5410  146.6960 O   0  0  0  0  0  0  0  0  0  0  0  0
  157.1340  213.7080  148.6950 N   0  0  0  0  0  2  0  0  0  0  0  0
  159.9300  213.7960  148.8760 N   0  0  0  0  0  0  0  0  0  0  0  0
  159.1420  213.9190  150.1190 C   0  0  2  0  0  3  0  0  0  0  0  0
  159.3800  212.7690  147.9870 C   0  0  0  0  0  2  0  0  0  0  0  0
  1  6  2  0  0  0  0
  1  9  1  0  0  0  0
  2  3  1  6  0  0  0
  2  5  1  0  0  0  0
  3  7  1  0  0  0  0
  4 11  1  0  0  0  0
  4  7  2  0  0  0  0
  5 16  1  0  0  0  0
  5 14  2  0  0  0  0
  8 23  1  6  0  0  0
  8 13  1  0  0  0  0
  8 12  1  0  0  0  0
 10 19  1  0  0  0  0
 10 18  1  0  0  0  0
 12 16  1  0  0  0  0
 13 18  1  6  0  0  0
 13  2  1  0  0  0  0
 14  1  1  0  0  0  0
 15  4  1  0  0  0  0
 16 17  2  0  0  0  0
 17  6  1  0  0  0  0
 19  3  2  0  0  0  0
 20 15  2  0  0  0  0
 20 19  1  0  0  0  0
 22 23  1  0  0  0  0
 22 21  2  0  0  0  0
 24 31  1  0  0  0  0
 24 28  1  0  0  0  0
 25 30  1  0  0  0  0
 27 24  2  0  0  0  0
 28 25  1  0  0  0  0
 29 26  1  0  0  0  0
 29 30  1  0  0  0  0
 30 22  1  6  0  0  0
 31 29  1  0  0  0  0
M  END
>  <MODEL>
2

>  <REMARK>
 VINA RESULT:      -6.3      4.077      7.040
  Name = 
  2 active torsions:
  status: ('A' for Active; 'I' for Inactive)
    1  A    between atoms: C_5  and  C_30
    2  A    between atoms: C_10  and  N_16
                            x       y       z     vdW  Elec       q    Type
                         _______ _______ _______ _____ _____    ______ ____

>  <TORSDO>
F 2

$$$$
=
 OpenBabel11122413073D

 31 35  0  0  1  0  0  0  0  0999 V2000
  161.3080  203.8740  145.8250 C   0  0  0  0  0  0  0  0  0  0  0  0
  160.5310  205.7830  148.9480 C   0  0  2  0  0  3  0  0  0  0  0  0
  160.8810  204.8080  150.0520 C   0  0  0  0  0  0  0  0  0  0  0  0
  161.0980  202.5680  150.8050 C   0  0  0  0  0  0  0  0  0  0  0  0
  161.1620  205.4050  147.6290 C   0  0  0  0  0  0  0  0  0  0  0  0
  162.3090  204.6020  145.2660 N   0  0  0  0  0  0  0  0  0  0  0  0
  160.8520  203.4680  149.8180 N   0  0  0  0  0  0  0  0  0  0  0  0
  162.2870  207.6230  149.1100 C   0  0  2  0  0  3  0  0  0  0  0  0
  160.8520  202.6870  145.1890 N   0  0  0  0  0  1  0  0  0  0  0  0
  161.1870  206.7250  151.6710 C   0  0  0  0  0  2  0  0  0  0  0  0
  161.0720  201.1120  150.5130 C   0  0  0  0  0  1  0  0  0  0  0  0
  162.6280  207.4890  147.6300 C   0  0  0  0  0  2  0  0  0  0  0  0
  160.8150  207.2480  149.3430 C   0  0  2  0  0  3  0  0  0  0  0  0
  160.7440  204.2770  146.9930 N   0  0  0  0  0  0  0  0  0  0  0  0
  161.3710  203.0220  152.0950 C   0  0  0  0  0  3  0  0  0  0  0  0
  162.2020  206.1690  147.0610 C   0  0  0  0  0  0  0  0  0  0  0  0
  162.7550  205.7410  145.8560 C   0  0  0  0  0  3  0  0  0  0  0  0
  160.3860  207.5070  150.7250 N   0  0  0  0  0  2  0  0  0  0  0  0
  161.1230  205.2610  151.3630 C   0  0  0  0  0  0  0  0  0  0  0  0
  161.3790  204.3570  152.3450 N   0  0  0  0  0  0  0  0  0  0  0  0
  161.2290  209.9550  147.8600 O   0  0  0  0  0  0  0  0  0  0  0  0
  161.9640  210.1190  148.8720 C   0  0  0  0  0  0  0  0  0  0  0  0
  162.5290  208.9920  149.5430 N   0  0  0  0  0  2  0  0  0  0  0  0
  160.5160  213.0740  147.8160 C   0  0  0  0  0  0  0  0  0  0  0  0
  161.1020  212.1540  150.0960 C   0  0  0  0  0  2  0  0  0  0  0  0
  164.0220  211.8730  147.7530 C   0  0  0  0  0  1  0  0  0  0  0  0
  159.7080  213.7020  147.0860 O   0  0  0  0  0  0  0  0  0  0  0  0
  160.1370  212.7000  149.1430 N   0  0  0  0  0  2  0  0  0  0  0  0
  162.8070  212.4210  148.3380 N   0  0  0  0  0  0  0  0  0  0  0  0
  162.2870  211.5060  149.3730 C   0  0  2  0  0  3  0  0  0  0  0  0
  161.8340  212.6280  147.2610 C   0  0  0  0  0  2  0  0  0  0  0  0
  1 14  1  0  0  0  0
  2  5  1  6  0  0  0
  2 13  1  0  0  0  0
  2  3  1  0  0  0  0
  3 19  1  0  0  0  0
  4 15  2  0  0  0  0
  6  1  2  0  0  0  0
  6 17  1  0  0  0  0
  7  3  2  0  0  0  0
  7  4  1  0  0  0  0
  8 13  1  0  0  0  0
  8 23  1  6  0  0  0
  9  1  1  0  0  0  0
 11  4  1  0  0  0  0
 12  8  1  0  0  0  0
 13 18  1  1  0  0  0
 14  5  2  0  0  0  0
 15 20  1  0  0  0  0
 16  5  1  0  0  0  0
 16 12  1  0  0  0  0
 17 16  2  0  0  0  0
 18 10  1  0  0  0  0
 19 10  1  0  0  0  0
 19 20  2  0  0  0  0
 21 22  2  0  0  0  0
 22 23  1  0  0  0  0
 24 28  1  0  0  0  0
 26 29  1  0  0  0  0
 27 24  2  0  0  0  0
 28 25  1  0  0  0  0
 29 30  1  0  0  0  0
 30 22  1  6  0  0  0
 30 25  1  0  0  0  0
 31 24  1  0  0  0  0
 31 29  1  0  0  0  0
M  END
>  <MODEL>
3

>  <REMARK>
 VINA RESULT:      -6.3      3.333      4.766
  Name = 
  2 active torsions:
  status: ('A' for Active; 'I' for Inactive)
    1  A    between atoms: C_5  and  C_30
    2  A    between atoms: C_10  and  N_16
                            x       y       z     vdW  Elec       q    Type
                         _______ _______ _______ _____ _____    ______ ____

>  <TORSDO>
F 2

$$$$
=
 OpenBabel11122413073D

 31 35  0  0  1  0  0  0  0  0999 V2000
  160.3630  209.6080  154.5100 C   0  0  0  0  0  0  0  0  0  0  0  0
  162.0020  210.1200  151.1850 C   0  0  2  0  0  3  0  0  0  0  0  0
  161.6830  208.8440  150.4360 C   0  0  0  0  0  0  0  0  0  0  0  0
  161.2080  206.5190  150.4740 C   0  0  0  0  0  0  0  0  0  0  0  0
  161.0920  210.3290  152.3730 C   0  0  0  0  0  0  0  0  0  0  0  0
  159.4250  210.5890  154.5400 N   0  0  0  0  0  0  0  0  0  0  0  0
  161.4330  207.6930  151.1180 N   0  0  0  0  0  0  0  0  0  0  0  0
  160.6560  211.9330  150.0030 C   0  0  2  0  0  3  0  0  0  0  0  0
  160.4820  208.7060  155.6020 N   0  0  0  0  0  1  0  0  0  0  0  0
  162.0110  210.0350  148.2320 C   0  0  0  0  0  2  0  0  0  0  0  0
  160.9240  205.2830  151.2470 C   0  0  0  0  0  1  0  0  0  0  0  0
  160.0420  212.3980  151.3190 C   0  0  0  0  0  2  0  0  0  0  0  0
  162.0560  211.3520  150.2560 C   0  0  2  0  0  3  0  0  0  0  0  0
  161.1860  209.4850  153.4360 N   0  0  0  0  0  0  0  0  0  0  0  0
  161.2510  206.4820  149.0800 C   0  0  0  0  0  3  0  0  0  0  0  0
  160.1210  211.3510  152.3890 C   0  0  0  0  0  0  0  0  0  0  0  0
  159.2980  211.4630  153.5080 C   0  0  0  0  0  3  0  0  0  0  0  0
  162.7590  211.0290  149.0070 N   0  0  0  0  0  2  0  0  0  0  0  0
  161.7590  208.7950  149.0320 C   0  0  0  0  0  0  0  0  0  0  0  0
  161.5230  207.6200  148.3910 N   0  0  0  0  0  0  0  0  0  0  0  0
  159.1320  212.2190  147.6120 O   0  0  0  0  0  0  0  0  0  0  0  0
  159.9430  213.1420  147.9000 C   0  0  0  0  0  0  0  0  0  0  0  0
  160.7400  213.0570  149.0820 N   0  0  0  0  0  2  0  0  0  0  0  0
  160.5030  213.0540  144.4910 C   0  0  0  0  0  0  0  0  0  0  0  0
  158.9810  214.4390  145.9580 C   0  0  0  0  0  2  0  0  0  0  0  0
  162.4910  214.4460  147.2920 C   0  0  0  0  0  1  0  0  0  0  0  0
  160.6750  212.4140  143.4220 O   0  0  0  0  0  0  0  0  0  0  0  0
  159.1980  213.5240  144.8390 N   0  0  0  0  0  2  0  0  0  0  0  0
  161.4200  214.3970  146.3070 N   0  0  0  0  0  0  0  0  0  0  0  0
  160.1110  214.3320  146.9870 C   0  0  2  0  0  3  0  0  0  0  0  0
  161.6420  213.2310  145.4480 C   0  0  0  0  0  2  0  0  0  0  0  0
  1  6  2  0  0  0  0
  1  9  1  0  0  0  0
  2  3  1  6  0  0  0
  2  5  1  0  0  0  0
  3  7  1  0  0  0  0
  4  7  2  0  0  0  0
  4 11  1  0  0  0  0
  5 16  1  0  0  0  0
  5 14  2  0  0  0  0
  8 23  1  6  0  0  0
  8 13  1  0  0  0  0
  8 12  1  0  0  0  0
 10 18  1  0  0  0  0
 10 19  1  0  0  0  0
 12 16  1  0  0  0  0
 13 18  1  6  0  0  0
 13  2  1  0  0  0  0
 14  1  1  0  0  0  0
 15  4  1  0  0  0  0
 16 17  2  0  0  0  0
 17  6  1  0  0  0  0
 19  3  2  0  0  0  0
 20 19  1  0  0  0  0
 20 15  2  0  0  0  0
 21 22  2  0  0  0  0
 22 23  1  0  0  0  0
 24 28  1  0  0  0  0
 24 31  1  0  0  0  0
 25 30  1  0  0  0  0
 27 24  2  0  0  0  0
 28 25  1  0  0  0  0
 29 30  1  0  0  0  0
 29 26  1  0  0  0  0
 30 22  1  6  0  0  0
 31 29  1  0  0  0  0
M  END
>  <MODEL>
4

>  <REMARK>
 VINA RESULT:      -6.2      4.775      8.089
  Name = 
  2 active torsions:
  status: ('A' for Active; 'I' for Inactive)
    1  A    between atoms: C_5  and  C_30
    2  A    between atoms: C_10  and  N_16
                            x       y       z     vdW  Elec       q    Type
                         _______ _______ _______ _____ _____    ______ ____

>  <TORSDO>
F 2

$$$$
=
 OpenBabel11122413073D

 31 35  0  0  1  0  0  0  0  0999 V2000
  157.8700  213.5920  152.3020 C   0  0  0  0  0  0  0  0  0  0  0  0
  160.8030  213.4240  149.9840 C   0  0  2  0  0  3  0  0  0  0  0  0
  161.2050  211.9650  150.0310 C   0  0  0  0  0  0  0  0  0  0  0  0
  161.3160  209.9160  151.2230 C   0  0  0  0  0  0  0  0  0  0  0  0
  159.3970  213.6470  150.4900 C   0  0  0  0  0  0  0  0  0  0  0  0
  156.8530  213.9540  151.4780 N   0  0  0  0  0  0  0  0  0  0  0  0
  160.9110  211.2080  151.1240 N   0  0  0  0  0  0  0  0  0  0  0  0
  159.8730  213.7750  147.6370 C   0  0  2  0  0  3  0  0  0  0  0  0
  157.6200  213.3660  153.6830 N   0  0  0  0  0  1  0  0  0  0  0  0
  162.3260  212.1830  147.7770 C   0  0  0  0  0  2  0  0  0  0  0  0
  160.9660  209.1130  152.4230 C   0  0  0  0  0  1  0  0  0  0  0  0
  158.5910  214.3880  148.1890 C   0  0  0  0  0  2  0  0  0  0  0  0
  161.0410  214.0560  148.5950 C   0  0  2  0  0  3  0  0  0  0  0  0
  159.1270  213.4430  151.8070 N   0  0  0  0  0  0  0  0  0  0  0  0
  162.0650  209.3500  150.1930 C   0  0  0  0  0  3  0  0  0  0  0  0
  158.3500  214.0200  149.6220 C   0  0  0  0  0  0  0  0  0  0  0  0
  157.0730  214.1780  150.1570 C   0  0  0  0  0  3  0  0  0  0  0  0
  162.3320  213.6240  148.0420 N   0  0  0  0  0  2  0  0  0  0  0  0
  161.9910  211.4010  149.0100 C   0  0  0  0  0  0  0  0  0  0  0  0
  162.3850  210.1040  149.1080 N   0  0  0  0  0  0  0  0  0  0  0  0
  159.6670  212.3740  145.1650 O   0  0  0  0  0  0  0  0  0  0  0  0
  160.0280  213.5820  145.1210 C   0  0  0  0  0  0  0  0  0  0  0  0
  160.1560  214.3390  146.3250 N   0  0  0  0  0  2  0  0  0  0  0  0
  160.7900  211.9730  142.1580 C   0  0  0  0  0  0  0  0  0  0  0  0
  159.3170  213.9480  142.7250 C   0  0  0  0  0  2  0  0  0  0  0  0
  162.7210  214.3370  144.2600 C   0  0  0  0  0  1  0  0  0  0  0  0
  160.9680  210.9210  141.4940 O   0  0  0  0  0  0  0  0  0  0  0  0
  159.5160  212.6230  142.1390 N   0  0  0  0  0  2  0  0  0  0  0  0
  161.7140  213.9230  143.2940 N   0  0  0  0  0  0  0  0  0  0  0  0
  160.3650  214.2380  143.8050 C   0  0  2  0  0  3  0  0  0  0  0  0
  161.8780  212.4870  143.0510 C   0  0  0  0  0  2  0  0  0  0  0  0
  1  9  1  0  0  0  0
  2  3  1  6  0  0  0
  2  5  1  0  0  0  0
  3  7  1  0  0  0  0
  4 11  1  0  0  0  0
  5 14  2  0  0  0  0
  6  1  2  0  0  0  0
  7  4  2  0  0  0  0
  8 23  1  6  0  0  0
  8 12  1  0  0  0  0
  8 13  1  0  0  0  0
 10 18  1  0  0  0  0
 10 19  1  0  0  0  0
 12 16  1  0  0  0  0
 13 18  1  6  0  0  0
 13  2  1  0  0  0  0
 14  1  1  0  0  0  0
 15  4  1  0  0  0  0
 16 17  2  0  0  0  0
 16  5  1  0  0  0  0
 17  6  1  0  0  0  0
 19 20  1  0  0  0  0
 19  3  2  0  0  0  0
 20 15  2  0  0  0  0
 22 21  2  0  0  0  0
 22 23  1  0  0  0  0
 24 31  1  0  0  0  0
 25 30  1  0  0  0  0
 27 24  2  0  0  0  0
 28 24  1  0  0  0  0
 28 25  1  0  0  0  0
 29 30  1  0  0  0  0
 29 26  1  0  0  0  0
 30 22  1  1  0  0  0
 31 29  1  0  0  0  0
M  END
>  <MODEL>
5

>  <REMARK>
 VINA RESULT:      -6.0      6.517     10.342
  Name = 
  2 active torsions:
  status: ('A' for Active; 'I' for Inactive)
    1  A    between atoms: C_5  and  C_30
    2  A    between atoms: C_10  and  N_16
                            x       y       z     vdW  Elec       q    Type
                         _______ _______ _______ _____ _____    ______ ____

>  <TORSDO>
F 2

$$$$
=
 OpenBabel11122413073D

 31 35  0  0  1  0  0  0  0  0999 V2000
  161.5810  202.9970  151.7210 C   0  0  0  0  0  0  0  0  0  0  0  0
  162.4190  206.3820  150.3640 C   0  0  2  0  0  3  0  0  0  0  0  0
  161.8350  206.3550  148.9680 C   0  0  0  0  0  0  0  0  0  0  0  0
  161.2060  205.1190  147.0410 C   0  0  0  0  0  0  0  0  0  0  0  0
  161.8360  205.3060  151.2500 C   0  0  0  0  0  0  0  0  0  0  0  0
  160.7550  203.2830  152.7610 N   0  0  0  0  0  0  0  0  0  0  0  0
  161.6660  205.1710  148.3180 N   0  0  0  0  0  0  0  0  0  0  0  0
  160.9750  208.0400  151.6520 C   0  0  2  0  0  3  0  0  0  0  0  0
  161.8870  201.6440  151.4080 N   0  0  0  0  0  1  0  0  0  0  0  0
  161.7220  208.8790  148.9480 C   0  0  0  0  0  2  0  0  0  0  0  0
  161.0190  203.8100  146.3650 C   0  0  0  0  0  1  0  0  0  0  0  0
  160.7280  207.0280  152.7650 C   0  0  0  0  0  2  0  0  0  0  0  0
  162.3460  207.7830  151.0070 C   0  0  2  0  0  3  0  0  0  0  0  0
  162.1140  204.0020  150.9790 N   0  0  0  0  0  0  0  0  0  0  0  0
  160.9140  206.3050  146.3690 C   0  0  0  0  0  3  0  0  0  0  0  0
  160.9780  205.6170  152.3240 C   0  0  0  0  0  0  0  0  0  0  0  0
  160.4550  204.5690  153.0780 C   0  0  0  0  0  3  0  0  0  0  0  0
  162.7060  208.8220  150.0320 N   0  0  0  0  0  2  0  0  0  0  0  0
  161.5720  207.5500  148.2730 C   0  0  0  0  0  0  0  0  0  0  0  0
  161.1020  207.4940  147.0000 N   0  0  0  0  0  0  0  0  0  0  0  0
  161.2070  208.7020  154.4130 O   0  0  0  0  0  0  0  0  0  0  0  0
  161.0510  209.6520  153.5980 C   0  0  0  0  0  0  0  0  0  0  0  0
  160.9240  209.3880  152.2000 N   0  0  0  0  0  2  0  0  0  0  0  0
  158.3580  211.1150  155.1940 C   0  0  0  0  0  0  0  0  0  0  0  0
  160.8510  211.1670  155.6090 C   0  0  0  0  0  2  0  0  0  0  0  0
  160.0800  211.9110  152.0100 C   0  0  0  0  0  1  0  0  0  0  0  0
  157.1920  211.0550  155.6600 O   0  0  0  0  0  0  0  0  0  0  0  0
  159.4820  210.9080  156.0530 N   0  0  0  0  0  2  0  0  0  0  0  0
  159.8880  211.8710  153.4520 N   0  0  0  0  0  0  0  0  0  0  0  0
  160.9630  211.0780  154.0830 C   0  0  2  0  0  3  0  0  0  0  0  0
  158.5660  211.2990  153.7210 C   0  0  0  0  0  2  0  0  0  0  0  0
  1  6  2  0  0  0  0
  2  3  1  6  0  0  0
  2 13  1  0  0  0  0
  2  5  1  0  0  0  0
  4  7  2  0  0  0  0
  5 16  1  0  0  0  0
  6 17  1  0  0  0  0
  7  3  1  0  0  0  0
  8 23  1  1  0  0  0
  8 12  1  0  0  0  0
  9  1  1  0  0  0  0
 10 18  1  0  0  0  0
 11  4  1  0  0  0  0
 13 18  1  6  0  0  0
 13  8  1  0  0  0  0
 14  5  2  0  0  0  0
 14  1  1  0  0  0  0
 15 20  2  0  0  0  0
 15  4  1  0  0  0  0
 16 12  1  0  0  0  0
 16 17  2  0  0  0  0
 19 10  1  0  0  0  0
 19  3  2  0  0  0  0
 20 19  1  0  0  0  0
 22 21  2  0  0  0  0
 23 22  1  0  0  0  0
 24 27  2  0  0  0  0
 24 28  1  0  0  0  0
 25 28  1  0  0  0  0
 26 29  1  0  0  0  0
 29 31  1  0  0  0  0
 29 30  1  0  0  0  0
 30 22  1  1  0  0  0
 30 25  1  0  0  0  0
 31 24  1  0  0  0  0
M  END
>  <MODEL>
6

>  <REMARK>
 VINA RESULT:      -5.2      1.865      4.230
  Name = 
  2 active torsions:
  status: ('A' for Active; 'I' for Inactive)
    1  A    between atoms: C_5  and  C_30
    2  A    between atoms: C_10  and  N_16
                            x       y       z     vdW  Elec       q    Type
                         _______ _______ _______ _____ _____    ______ ____

>  <TORSDO>
F 2

$$$$
=
 OpenBabel11122413073D

 31 35  0  0  1  0  0  0  0  0999 V2000
  161.8510  212.6570  147.8600 C   0  0  0  0  0  0  0  0  0  0  0  0
  159.7230  213.9060  150.6740 C   0  0  2  0  0  3  0  0  0  0  0  0
  158.3360  213.9560  150.0700 C   0  0  0  0  0  0  0  0  0  0  0  0
  156.9490  214.2120  148.1610 C   0  0  0  0  0  0  0  0  0  0  0  0
  160.6640  213.0320  149.8770 C   0  0  0  0  0  0  0  0  0  0  0  0
  162.3080  211.4670  148.3310 N   0  0  0  0  0  0  0  0  0  0  0  0
  158.1790  214.0990  148.7250 N   0  0  0  0  0  0  0  0  0  0  0  0
  159.6300  212.0200  152.3850 C   0  0  2  0  0  3  0  0  0  0  0  0
  162.2210  213.0950  146.5600 N   0  0  0  0  0  1  0  0  0  0  0  0
  157.3090  213.8030  152.3730 C   0  0  0  0  0  2  0  0  0  0  0  0
  156.8100  214.3530  146.6890 C   0  0  0  0  0  1  0  0  0  0  0  0
  160.8650  211.3550  151.7850 C   0  0  0  0  0  2  0  0  0  0  0  0
  159.7010  213.5400  152.1730 C   0  0  2  0  0  3  0  0  0  0  0  0
  161.0400  213.4270  148.6310 N   0  0  0  0  0  0  0  0  0  0  0  0
  155.8170  214.1990  148.9760 C   0  0  0  0  0  3  0  0  0  0  0  0
  161.1280  211.7980  150.3770 C   0  0  0  0  0  0  0  0  0  0  0  0
  161.9690  211.0330  149.5720 C   0  0  0  0  0  3  0  0  0  0  0  0
  158.6150  214.2490  152.8650 N   0  0  0  0  0  2  0  0  0  0  0  0
  157.1930  213.9780  150.8900 C   0  0  0  0  0  0  0  0  0  0  0  0
  155.9640  214.0800  150.3210 N   0  0  0  0  0  0  0  0  0  0  0  0
  160.0770  209.4550  153.5420 O   0  0  0  0  0  0  0  0  0  0  0  0
  159.7970  210.4050  154.3230 C   0  0  0  0  0  0  0  0  0  0  0  0
  159.5570  211.7150  153.8060 N   0  0  0  0  0  2  0  0  0  0  0  0
  162.3130  210.7410  156.6680 C   0  0  0  0  0  0  0  0  0  0  0  0
  159.8890  211.4550  156.6190 C   0  0  0  0  0  2  0  0  0  0  0  0
  160.2360  207.8400  155.6630 C   0  0  0  0  0  1  0  0  0  0  0  0
  163.5050  211.0040  156.9700 O   0  0  0  0  0  0  0  0  0  0  0  0
  161.3120  211.7580  156.7610 N   0  0  0  0  0  2  0  0  0  0  0  0
  160.5440  209.0970  156.3290 N   0  0  0  0  0  0  0  0  0  0  0  0
  159.6760  210.1710  155.8090 C   0  0  2  0  0  3  0  0  0  0  0  0
  161.9620  209.3950  156.1110 C   0  0  0  0  0  2  0  0  0  0  0  0
  1  6  2  0  0  0  0
  1 14  1  0  0  0  0
  2  5  1  6  0  0  0
  2 13  1  0  0  0  0
  3  2  1  0  0  0  0
  3 19  1  0  0  0  0
  4  7  1  0  0  0  0
  4 15  2  0  0  0  0
  5 16  1  0  0  0  0
  6 17  1  0  0  0  0
  7  3  2  0  0  0  0
  8 23  1  1  0  0  0
  9  1  1  0  0  0  0
 10 18  1  0  0  0  0
 11  4  1  0  0  0  0
 12  8  1  0  0  0  0
 13  8  1  0  0  0  0
 13 18  1  6  0  0  0
 14  5  2  0  0  0  0
 15 20  1  0  0  0  0
 16 12  1  0  0  0  0
 17 16  2  0  0  0  0
 19 10  1  0  0  0  0
 20 19  2  0  0  0  0
 21 22  2  0  0  0  0
 23 22  1  0  0  0  0
 24 28  1  0  0  0  0
 24 27  2  0  0  0  0
 25 28  1  0  0  0  0
 26 29  1  0  0  0  0
 30 22  1  6  0  0  0
 30 29  1  0  0  0  0
 30 25  1  0  0  0  0
 31 29  1  0  0  0  0
 31 24  1  0  0  0  0
M  END
>  <MODEL>
7

>  <REMARK>
 VINA RESULT:      -5.1      5.419      7.937
  Name = 
  2 active torsions:
  status: ('A' for Active; 'I' for Inactive)
    1  A    between atoms: C_5  and  C_30
    2  A    between atoms: C_10  and  N_16
                            x       y       z     vdW  Elec       q    Type
                         _______ _______ _______ _____ _____    ______ ____

>  <TORSDO>
F 2

$$$$
=
 OpenBabel11122413073D

 31 35  0  0  1  0  0  0  0  0999 V2000
  161.2400  204.2050  145.6690 C   0  0  0  0  0  0  0  0  0  0  0  0
  160.5190  205.4080  149.1390 C   0  0  2  0  0  3  0  0  0  0  0  0
  160.8570  204.2110  150.0020 C   0  0  0  0  0  0  0  0  0  0  0  0
  161.0350  201.8580  150.2510 C   0  0  0  0  0  0  0  0  0  0  0  0
  161.1340  205.3130  147.7620 C   0  0  0  0  0  0  0  0  0  0  0  0
  162.2510  205.0190  145.2700 N   0  0  0  0  0  0  0  0  0  0  0  0
  160.8010  202.9530  149.4840 N   0  0  0  0  0  0  0  0  0  0  0  0
  162.3110  207.1380  149.6760 C   0  0  2  0  0  3  0  0  0  0  0  0
  160.7570  203.1920  144.7960 N   0  0  0  0  0  1  0  0  0  0  0  0
  161.2090  205.7270  151.9930 C   0  0  0  0  0  2  0  0  0  0  0  0
  160.9790  200.5000  149.6520 C   0  0  0  0  0  1  0  0  0  0  0  0
  162.6400  207.3210  148.1990 C   0  0  0  0  0  2  0  0  0  0  0  0
  160.8340  206.7480  149.8370 C   0  0  2  0  0  3  0  0  0  0  0  0
  160.6910  204.3560  146.9020 N   0  0  0  0  0  0  0  0  0  0  0  0
  161.3240  202.0170  151.6060 C   0  0  0  0  0  3  0  0  0  0  0  0
  162.1850  206.1630  147.3620 C   0  0  0  0  0  0  0  0  0  0  0  0
  162.7230  205.9950  146.0880 C   0  0  0  0  0  3  0  0  0  0  0  0
  160.4180  206.7090  151.2470 N   0  0  0  0  0  2  0  0  0  0  0  0
  161.1150  204.3650  151.3770 C   0  0  0  0  0  0  0  0  0  0  0  0
  161.3600  203.2670  152.1380 N   0  0  0  0  0  0  0  0  0  0  0  0
  161.5720  209.7440  148.7920 O   0  0  0  0  0  0  0  0  0  0  0  0
  162.1800  209.6530  149.8940 C   0  0  0  0  0  0  0  0  0  0  0  0
  162.5820  208.3760  150.3920 N   0  0  0  0  0  2  0  0  0  0  0  0
  160.4610  210.8820  152.6280 C   0  0  0  0  0  0  0  0  0  0  0  0
  162.9180  210.5620  152.1320 C   0  0  0  0  0  2  0  0  0  0  0  0
  161.2090  212.3510  149.3080 C   0  0  0  0  0  1  0  0  0  0  0  0
  159.5120  210.8140  153.4510 O   0  0  0  0  0  0  0  0  0  0  0  0
  161.7370  210.3310  152.9630 N   0  0  0  0  0  2  0  0  0  0  0  0
  161.4780  211.9310  150.6760 N   0  0  0  0  0  0  0  0  0  0  0  0
  162.5240  210.8890  150.6880 C   0  0  2  0  0  3  0  0  0  0  0  0
  160.2240  211.4470  151.2600 C   0  0  0  0  0  2  0  0  0  0  0  0
  1 14  1  0  0  0  0
  2  5  1  6  0  0  0
  2 13  1  0  0  0  0
  2  3  1  0  0  0  0
  3 19  1  0  0  0  0
  4 15  2  0  0  0  0
  6  1  2  0  0  0  0
  6 17  1  0  0  0  0
  7  3  2  0  0  0  0
  7  4  1  0  0  0  0
  8 13  1  0  0  0  0
  8 23  1  1  0  0  0
  9  1  1  0  0  0  0
 11  4  1  0  0  0  0
 12  8  1  0  0  0  0
 13 18  1  1  0  0  0
 14  5  2  0  0  0  0
 15 20  1  0  0  0  0
 16  5  1  0  0  0  0
 16 12  1  0  0  0  0
 17 16  2  0  0  0  0
 18 10  1  0  0  0  0
 19 10  1  0  0  0  0
 19 20  2  0  0  0  0
 21 22  2  0  0  0  0
 22 23  1  0  0  0  0
 24 28  1  0  0  0  0
 24 27  2  0  0  0  0
 25 28  1  0  0  0  0
 26 29  1  0  0  0  0
 29 30  1  0  0  0  0
 29 31  1  0  0  0  0
 30 22  1  1  0  0  0
 30 25  1  0  0  0  0
 31 24  1  0  0  0  0
M  END
>  <MODEL>
8

>  <REMARK>
 VINA RESULT:      -4.9      2.412      3.073
  Name = 
  2 active torsions:
  status: ('A' for Active; 'I' for Inactive)
    1  A    between atoms: C_5  and  C_30
    2  A    between atoms: C_10  and  N_16
                            x       y       z     vdW  Elec       q    Type
                         _______ _______ _______ _____ _____    ______ ____

>  <TORSDO>
F 2

$$$$
=
 OpenBabel11122413073D

 31 35  0  0  1  0  0  0  0  0999 V2000
  160.8390  201.9580  149.4720 C   0  0  0  0  0  0  0  0  0  0  0  0
  162.3210  205.3100  150.2300 C   0  0  2  0  0  3  0  0  0  0  0  0
  161.7780  206.1920  149.1260 C   0  0  0  0  0  0  0  0  0  0  0  0
  160.9800  206.4220  146.9020 C   0  0  0  0  0  0  0  0  0  0  0  0
  161.5270  204.0340  150.3870 C   0  0  0  0  0  0  0  0  0  0  0  0
  160.0540  201.7220  150.5550 N   0  0  0  0  0  0  0  0  0  0  0  0
  161.4090  205.6490  147.9330 N   0  0  0  0  0  0  0  0  0  0  0  0
  161.1750  206.1290  152.3530 C   0  0  2  0  0  3  0  0  0  0  0  0
  160.8980  201.0080  148.4160 N   0  0  0  0  0  1  0  0  0  0  0  0
  162.1310  208.2390  150.5640 C   0  0  0  0  0  2  0  0  0  0  0  0
  160.5730  205.7970  145.6180 C   0  0  0  0  0  1  0  0  0  0  0  0
  160.7170  204.7170  152.7040 C   0  0  0  0  0  2  0  0  0  0  0  0
  162.4910  206.0700  151.5630 C   0  0  2  0  0  3  0  0  0  0  0  0
  161.5670  203.1030  149.3950 N   0  0  0  0  0  0  0  0  0  0  0  0
  160.9290  207.8070  147.0580 C   0  0  0  0  0  3  0  0  0  0  0  0
  160.7140  203.8030  151.5150 C   0  0  0  0  0  0  0  0  0  0  0  0
  159.9880  202.6160  151.5750 C   0  0  0  0  0  3  0  0  0  0  0  0
  163.0610  207.4050  151.3310 N   0  0  0  0  0  2  0  0  0  0  0  0
  161.7570  207.5920  149.2670 C   0  0  0  0  0  0  0  0  0  0  0  0
  161.3160  208.3610  148.2370 N   0  0  0  0  0  0  0  0  0  0  0  0
  160.1540  208.7480  152.8200 O   0  0  0  0  0  0  0  0  0  0  0  0
  160.8160  208.2070  153.7480 C   0  0  0  0  0  0  0  0  0  0  0  0
  161.3590  206.8970  153.5760 N   0  0  0  0  0  2  0  0  0  0  0  0
  159.2260  211.0770  154.8320 C   0  0  0  0  0  0  0  0  0  0  0  0
  159.8650  208.9170  155.9770 C   0  0  0  0  0  2  0  0  0  0  0  0
  162.7840  210.3440  154.0970 C   0  0  0  0  0  1  0  0  0  0  0  0
  158.3860  211.9980  154.6650 O   0  0  0  0  0  0  0  0  0  0  0  0
  158.8710  209.9150  155.5840 N   0  0  0  0  0  2  0  0  0  0  0  0
  161.5470  210.3310  154.8640 N   0  0  0  0  0  0  0  0  0  0  0  0
  161.0760  208.9430  155.0390 C   0  0  2  0  0  3  0  0  0  0  0  0
  160.5620  211.1520  154.1560 C   0  0  0  0  0  2  0  0  0  0  0  0
  1  6  2  0  0  0  0
  2  3  1  6  0  0  0
  2  5  1  0  0  0  0
  2 13  1  0  0  0  0
  3 19  1  0  0  0  0
  4 15  2  0  0  0  0
  4  7  1  0  0  0  0
  5 16  1  0  0  0  0
  6 17  1  0  0  0  0
  7  3  2  0  0  0  0
  8 12  1  0  0  0  0
  8 23  1  1  0  0  0
  9  1  1  0  0  0  0
 10 18  1  0  0  0  0
 11  4  1  0  0  0  0
 13 18  1  6  0  0  0
 13  8  1  0  0  0  0
 14  1  1  0  0  0  0
 14  5  2  0  0  0  0
 15 20  1  0  0  0  0
 16 17  2  0  0  0  0
 16 12  1  0  0  0  0
 19 10  1  0  0  0  0
 20 19  2  0  0  0  0
 21 22  2  0  0  0  0
 23 22  1  0  0  0  0
 24 28  1  0  0  0  0
 26 29  1  0  0  0  0
 27 24  2  0  0  0  0
 28 25  1  0  0  0  0
 29 30  1  0  0  0  0
 30 22  1  6  0  0  0
 30 25  1  0  0  0  0
 31 24  1  0  0  0  0
 31 29  1  0  0  0  0
M  END
>  <MODEL>
9

>  <REMARK>
 VINA RESULT:      -4.8      1.317      3.906
  Name = 
  2 active torsions:
  status: ('A' for Active; 'I' for Inactive)
    1  A    between atoms: C_5  and  C_30
    2  A    between atoms: C_10  and  N_16
                            x       y       z     vdW  Elec       q    Type
                         _______ _______ _______ _____ _____    ______ ____

>  <TORSDO>
F 2

$$$$
