=
 OpenBabel11122413243D

 31 35  0  0  1  0  0  0  0  0999 V2000
  160.7840  207.5900  156.2720 C   0  0  0  0  0  0  0  0  0  0  0  0
  161.9970  208.9160  152.9230 C   0  0  2  0  0  3  0  0  0  0  0  0
  161.5820  208.0650  151.7390 C   0  0  0  0  0  0  0  0  0  0  0  0
  160.7450  205.9740  150.8240 C   0  0  0  0  0  0  0  0  0  0  0  0
  161.1550  208.6850  154.1440 C   0  0  0  0  0  0  0  0  0  0  0  0
  159.5660  208.2650  156.4070 C   0  0  0  0  0  3  0  0  0  0  0  0
  161.0880  206.7640  151.9230 C   0  0  0  0  0  3  0  0  0  0  0  0
  160.6100  211.1150  152.5900 C   0  0  1  0  0  3  0  0  0  0  0  0
  161.2030  206.7110  157.2600 O   0  0  0  0  0  1  0  0  0  0  0  0
  162.3050  209.8560  150.2040 N   0  0  0  0  0  2  0  0  0  0  0  0
  160.2090  204.6040  151.0340 C   0  0  0  0  0  1  0  0  0  0  0  0
  159.4700  210.2720  153.1910 C   0  0  0  0  0  2  0  0  0  0  0  0
  162.0060  210.4220  152.5760 C   0  0  2  0  0  3  0  0  0  0  0  0
  161.5780  207.7990  155.1390 C   0  0  0  0  0  3  0  0  0  0  0  0
  160.9070  206.4690  149.5280 C   0  0  0  0  0  3  0  0  0  0  0  0
  159.9390  209.3690  154.2860 C   0  0  0  0  0  0  0  0  0  0  0  0
  159.1400  209.1500  155.4120 C   0  0  0  0  0  3  0  0  0  0  0  0
  162.8210  210.6680  151.3030 C   0  0  0  0  0  2  0  0  0  0  0  0
  161.7770  208.5440  150.4260 C   0  0  0  0  0  0  0  0  0  0  0  0
  161.4240  207.7520  149.3300 C   0  0  0  0  0  3  0  0  0  0  0  0
  160.2320  211.5690  151.2940 O   0  0  0  0  0  0  0  0  0  0  0  0
  158.3210  212.7770  151.7760 O   0  0  0  0  0  0  0  0  0  0  0  0
  159.3710  212.6510  151.0910 C   0  0  0  0  0  0  0  0  0  0  0  0
  158.3590  213.4420  147.3810 C   0  0  1  0  0  3  0  0  0  0  0  0
  158.4360  214.4510  149.6470 C   0  0  0  0  0  2  0  0  0  0  0  0
  161.5550  212.6380  148.9550 O   0  0  0  0  0  0  0  0  0  0  0  0
  157.5480  212.6060  146.4140 C   0  0  0  0  0  1  0  0  0  0  0  0
  157.5730  213.6620  148.6660 C   0  0  0  0  0  2  0  0  0  0  0  0
  160.3620  213.0260  148.8630 C   0  0  0  0  0  0  0  0  0  0  0  0
  159.6940  213.6710  150.0470 C   0  0  2  0  0  3  0  0  0  0  0  0
  159.6290  212.7810  147.6580 N   0  0  0  0  0  2  0  0  0  0  0  0
  1  6  1  0  0  0  0
  1  9  1  0  0  0  0
  2  3  1  6  0  0  0
  2  5  1  0  0  0  0
  3  7  1  0  0  0  0
  4 11  1  0  0  0  0
  4  7  2  0  0  0  0
  5 16  2  0  0  0  0
  5 14  1  0  0  0  0
  8 21  1  6  0  0  0
  8 12  1  0  0  0  0
 10 19  1  0  0  0  0
 10 18  1  0  0  0  0
 12 16  1  0  0  0  0
 13 18  1  6  0  0  0
 13  8  1  0  0  0  0
 13  2  1  0  0  0  0
 14  1  2  0  0  0  0
 15  4  1  0  0  0  0
 16 17  1  0  0  0  0
 17  6  2  0  0  0  0
 19  3  2  0  0  0  0
 20 15  2  0  0  0  0
 20 19  1  0  0  0  0
 23 21  1  0  0  0  0
 23 22  2  0  0  0  0
 24 27  1  6  0  0  0
 24 31  1  0  0  0  0
 24 28  1  0  0  0  0
 25 30  1  0  0  0  0
 28 25  1  0  0  0  0
 29 26  2  0  0  0  0
 29 30  1  0  0  0  0
 30 23  1  1  0  0  0
 31 29  1  0  0  0  0
M  END
>  <MODEL>
1

>  <REMARK>
 VINA RESULT:      -5.1      0.000      0.000
  Name = 
  3 active torsions:
  status: ('A' for Active; 'I' for Inactive)
    1  A    between atoms: C_5  and  O_16
    2  A    between atoms: C_5  and  C_30
    3  A    between atoms: C_10  and  O_16
                            x       y       z     vdW  Elec       q    Type
                         _______ _______ _______ _____ _____    ______ ____

>  <TORSDO>
F 3

$$$$
=
 OpenBabel11122413243D

 31 35  0  0  1  0  0  0  0  0999 V2000
  162.6260  213.7290  147.5070 C   0  0  0  0  0  0  0  0  0  0  0  0
  159.9110  214.2810  150.1110 C   0  0  2  0  0  3  0  0  0  0  0  0
  158.5060  214.0590  149.5880 C   0  0  0  0  0  0  0  0  0  0  0  0
  156.9480  213.8170  147.7360 C   0  0  0  0  0  0  0  0  0  0  0  0
  160.9680  213.6240  149.2690 C   0  0  0  0  0  0  0  0  0  0  0  0
  162.9270  212.3780  147.7090 C   0  0  0  0  0  3  0  0  0  0  0  0
  158.2520  213.9820  148.2090 C   0  0  0  0  0  3  0  0  0  0  0  0
  160.2460  212.2890  151.7820 C   0  0  1  0  0  3  0  0  0  0  0  0
  163.2990  214.4510  146.5320 O   0  0  0  0  0  1  0  0  0  0  0  0
  157.6420  214.1220  151.8980 N   0  0  0  0  0  2  0  0  0  0  0  0
  156.6960  213.7220  146.2750 C   0  0  0  0  0  1  0  0  0  0  0  0
  160.5100  211.4890  150.4930 C   0  0  0  0  0  2  0  0  0  0  0  0
  160.0600  213.8230  151.5790 C   0  0  2  0  0  3  0  0  0  0  0  0
  161.6450  214.3520  148.2860 C   0  0  0  0  0  3  0  0  0  0  0  0
  155.8820  213.7420  148.6350 C   0  0  0  0  0  3  0  0  0  0  0  0
  161.2780  212.2720  149.4780 C   0  0  0  0  0  0  0  0  0  0  0  0
  162.2490  211.6470  148.6900 C   0  0  0  0  0  3  0  0  0  0  0  0
  158.9580  214.4460  152.4420 C   0  0  0  0  0  2  0  0  0  0  0  0
  157.4190  214.0190  150.4870 C   0  0  0  0  0  0  0  0  0  0  0  0
  156.1180  213.8440  150.0090 C   0  0  0  0  0  3  0  0  0  0  0  0
  159.1480  211.7120  152.4820 O   0  0  0  0  0  0  0  0  0  0  0  0
  158.2620  210.8910  154.4540 O   0  0  0  0  0  0  0  0  0  0  0  0
  159.2770  211.1290  153.7460 C   0  0  0  0  0  0  0  0  0  0  0  0
  160.9220  208.3380  155.9640 C   0  0  1  0  0  3  0  0  0  0  0  0
  161.0890  209.4220  153.7370 C   0  0  0  0  0  2  0  0  0  0  0  0
  160.6330  211.9580  156.3550 O   0  0  0  0  0  0  0  0  0  0  0  0
  160.2560  207.2470  156.7740 C   0  0  0  0  0  1  0  0  0  0  0  0
  160.4540  208.2730  154.5170 C   0  0  0  0  0  2  0  0  0  0  0  0
  160.6540  210.8420  155.7730 C   0  0  0  0  0  0  0  0  0  0  0  0
  160.6340  210.7850  154.2700 C   0  0  2  0  0  3  0  0  0  0  0  0
  160.6180  209.6400  156.5480 N   0  0  0  0  0  2  0  0  0  0  0  0
  1  6  2  0  0  0  0
  1 14  1  0  0  0  0
  2  5  1  6  0  0  0
  2 13  1  0  0  0  0
  3  2  1  0  0  0  0
  3 19  1  0  0  0  0
  4  7  1  0  0  0  0
  4 15  2  0  0  0  0
  5 16  1  0  0  0  0
  6 17  1  0  0  0  0
  7  3  2  0  0  0  0
  8 21  1  6  0  0  0
  9  1  1  0  0  0  0
 10 18  1  0  0  0  0
 11  4  1  0  0  0  0
 12  8  1  0  0  0  0
 13  8  1  0  0  0  0
 13 18  1  1  0  0  0
 14  5  2  0  0  0  0
 15 20  1  0  0  0  0
 16 12  1  0  0  0  0
 17 16  2  0  0  0  0
 19 10  1  0  0  0  0
 20 19  2  0  0  0  0
 21 23  1  0  0  0  0
 23 22  2  0  0  0  0
 24 31  1  0  0  0  0
 24 27  1  1  0  0  0
 25 30  1  0  0  0  0
 25 28  1  0  0  0  0
 28 24  1  0  0  0  0
 29 26  2  0  0  0  0
 29 31  1  0  0  0  0
 30 23  1  1  0  0  0
 30 29  1  0  0  0  0
M  END
>  <MODEL>
2

>  <REMARK>
 VINA RESULT:      -4.8      2.873      7.862
  Name = 
  3 active torsions:
  status: ('A' for Active; 'I' for Inactive)
    1  A    between atoms: C_5  and  O_16
    2  A    between atoms: C_5  and  C_30
    3  A    between atoms: C_10  and  O_16
                            x       y       z     vdW  Elec       q    Type
                         _______ _______ _______ _____ _____    ______ ____

>  <TORSDO>
F 3

$$$$
=
 OpenBabel11122413243D

 31 35  0  0  1  0  0  0  0  0999 V2000
  161.9650  207.1270  152.7740 C   0  0  0  0  0  0  0  0  0  0  0  0
  159.7480  209.6940  154.4890 C   0  0  2  0  0  3  0  0  0  0  0  0
  160.4940  210.6150  155.4350 C   0  0  0  0  0  0  0  0  0  0  0  0
  162.4620  211.1480  156.7590 C   0  0  0  0  0  0  0  0  0  0  0  0
  160.6420  209.0260  153.4830 C   0  0  0  0  0  0  0  0  0  0  0  0
  162.3090  207.8060  151.5990 C   0  0  0  0  0  3  0  0  0  0  0  0
  161.7990  210.3130  155.8570 C   0  0  0  0  0  3  0  0  0  0  0  0
  159.0340  211.2940  152.5400 C   0  0  1  0  0  3  0  0  0  0  0  0
  162.4520  205.8480  153.0040 O   0  0  0  0  0  1  0  0  0  0  0  0
  158.5030  212.0640  155.5860 N   0  0  0  0  0  2  0  0  0  0  0  0
  163.8490  210.8250  157.1850 C   0  0  0  0  0  1  0  0  0  0  0  0
  160.4930  211.0990  152.0870 C   0  0  0  0  0  2  0  0  0  0  0  0
  158.6000  210.4250  153.7580 C   0  0  2  0  0  3  0  0  0  0  0  0
  161.1330  207.7380  153.7170 C   0  0  0  0  0  3  0  0  0  0  0  0
  161.8250  212.2840  157.2610 C   0  0  0  0  0  3  0  0  0  0  0  0
  160.9780  209.7010  152.3010 C   0  0  0  0  0  0  0  0  0  0  0  0
  161.8210  209.0950  151.3650 C   0  0  0  0  0  3  0  0  0  0  0  0
  157.7070  211.1530  154.7680 C   0  0  0  0  0  2  0  0  0  0  0  0
  159.8430  211.7450  155.9750 C   0  0  0  0  0  0  0  0  0  0  0  0
  160.5160  212.5810  156.8700 C   0  0  0  0  0  3  0  0  0  0  0  0
  158.7890  212.6790  152.7640 O   0  0  0  0  0  0  0  0  0  0  0  0
  156.5110  213.0630  152.6770 O   0  0  0  0  0  0  0  0  0  0  0  0
  157.6670  213.3420  152.2600 C   0  0  0  0  0  0  0  0  0  0  0  0
  157.8130  213.5420  148.3410 C   0  0  1  0  0  3  0  0  0  0  0  0
  156.5980  214.4530  150.3050 C   0  0  0  0  0  2  0  0  0  0  0  0
  160.2130  214.4110  150.9540 O   0  0  0  0  0  0  0  0  0  0  0  0
  157.8870  212.4180  147.3300 C   0  0  0  0  0  1  0  0  0  0  0  0
  156.6120  213.3440  149.2560 C   0  0  0  0  0  2  0  0  0  0  0  0
  159.0990  214.1620  150.4260 C   0  0  0  0  0  0  0  0  0  0  0  0
  157.8350  214.3910  151.2090 C   0  0  2  0  0  3  0  0  0  0  0  0
  159.0490  213.5910  149.1140 N   0  0  0  0  0  2  0  0  0  0  0  0
  1  9  1  0  0  0  0
  1 14  1  0  0  0  0
  2  5  1  6  0  0  0
  2  3  1  0  0  0  0
  3  7  2  0  0  0  0
  3 19  1  0  0  0  0
  4 11  1  0  0  0  0
  4 15  2  0  0  0  0
  5 14  2  0  0  0  0
  6  1  2  0  0  0  0
  7  4  1  0  0  0  0
  8 21  1  1  0  0  0
  8 13  1  0  0  0  0
 10 19  1  0  0  0  0
 12 16  1  0  0  0  0
 12  8  1  0  0  0  0
 13  2  1  0  0  0  0
 13 18  1  1  0  0  0
 16  5  1  0  0  0  0
 17  6  1  0  0  0  0
 17 16  2  0  0  0  0
 18 10  1  0  0  0  0
 19 20  2  0  0  0  0
 20 15  1  0  0  0  0
 23 22  2  0  0  0  0
 23 21  1  0  0  0  0
 24 27  1  6  0  0  0
 24 31  1  0  0  0  0
 24 28  1  0  0  0  0
 25 30  1  0  0  0  0
 28 25  1  0  0  0  0
 29 26  2  0  0  0  0
 29 30  1  0  0  0  0
 30 23  1  1  0  0  0
 31 29  1  0  0  0  0
M  END
>  <MODEL>
3

>  <REMARK>
 VINA RESULT:      -4.7      2.549      4.682
  Name = 
  3 active torsions:
  status: ('A' for Active; 'I' for Inactive)
    1  A    between atoms: C_5  and  O_16
    2  A    between atoms: C_5  and  C_30
    3  A    between atoms: C_10  and  O_16
                            x       y       z     vdW  Elec       q    Type
                         _______ _______ _______ _____ _____    ______ ____

>  <TORSDO>
F 3

$$$$
=
 OpenBabel11122413243D

 31 35  0  0  1  0  0  0  0  0999 V2000
  161.1550  201.1180  148.6600 C   0  0  0  0  0  0  0  0  0  0  0  0
  162.2790  204.5630  149.8060 C   0  0  2  0  0  3  0  0  0  0  0  0
  161.7830  205.6950  148.9270 C   0  0  0  0  0  0  0  0  0  0  0  0
  160.8300  206.4900  146.8360 C   0  0  0  0  0  0  0  0  0  0  0  0
  161.4790  203.3010  149.6560 C   0  0  0  0  0  0  0  0  0  0  0  0
  159.9700  200.9620  149.3880 C   0  0  0  0  0  3  0  0  0  0  0  0
  161.2480  205.4380  147.6540 C   0  0  0  0  0  3  0  0  0  0  0  0
  160.9640  204.9290  152.0440 C   0  0  1  0  0  3  0  0  0  0  0  0
  161.5810  200.1120  147.8050 O   0  0  0  0  0  1  0  0  0  0  0  0
  162.5100  207.3280  150.6270 N   0  0  0  0  0  2  0  0  0  0  0  0
  160.2510  206.2040  145.4980 C   0  0  0  0  0  1  0  0  0  0  0  0
  159.8180  204.2500  151.2710 C   0  0  0  0  0  2  0  0  0  0  0  0
  162.3300  204.9710  151.2950 C   0  0  2  0  0  3  0  0  0  0  0  0
  161.9090  202.2890  148.7930 C   0  0  0  0  0  3  0  0  0  0  0  0
  160.9570  207.8100  147.2740 C   0  0  0  0  0  3  0  0  0  0  0  0
  160.2970  203.1390  150.3930 C   0  0  0  0  0  0  0  0  0  0  0  0
  159.5380  201.9740  150.2500 C   0  0  0  0  0  3  0  0  0  0  0  0
  163.1010  206.2840  151.4600 C   0  0  0  0  0  2  0  0  0  0  0  0
  161.9420  207.0320  149.3460 C   0  0  0  0  0  0  0  0  0  0  0  0
  161.5140  208.0810  148.5270 C   0  0  0  0  0  3  0  0  0  0  0  0
  160.5500  206.2270  152.4620 O   0  0  0  0  0  0  0  0  0  0  0  0
  161.7030  206.2030  154.4650 O   0  0  0  0  0  0  0  0  0  0  0  0
  160.8310  206.7400  153.7310 C   0  0  0  0  0  0  0  0  0  0  0  0
  161.6590  210.1960  155.3980 C   0  0  1  0  0  3  0  0  0  0  0  0
  160.4970  209.1900  153.4490 C   0  0  0  0  0  2  0  0  0  0  0  0
  159.7010  207.3210  156.5090 O   0  0  0  0  0  0  0  0  0  0  0  0
  162.9780  210.7040  155.9390 C   0  0  0  0  0  1  0  0  0  0  0  0
  161.8240  209.7570  153.9490 C   0  0  0  0  0  2  0  0  0  0  0  0
  160.2820  208.1030  155.7120 C   0  0  0  0  0  0  0  0  0  0  0  0
  160.0880  207.9360  154.2300 C   0  0  2  0  0  3  0  0  0  0  0  0
  161.1800  209.0930  156.2230 N   0  0  0  0  0  2  0  0  0  0  0  0
  1 14  2  0  0  0  0
  1  6  1  0  0  0  0
  2  3  1  6  0  0  0
  2 13  1  0  0  0  0
  3 19  1  0  0  0  0
  4 15  2  0  0  0  0
  4  7  1  0  0  0  0
  5  2  1  0  0  0  0
  5 16  2  0  0  0  0
  6 17  2  0  0  0  0
  7  3  2  0  0  0  0
  8 21  1  6  0  0  0
  9  1  1  0  0  0  0
 10 18  1  0  0  0  0
 11  4  1  0  0  0  0
 12  8  1  0  0  0  0
 13 18  1  6  0  0  0
 13  8  1  0  0  0  0
 14  5  1  0  0  0  0
 15 20  1  0  0  0  0
 16 12  1  0  0  0  0
 17 16  1  0  0  0  0
 19 10  1  0  0  0  0
 20 19  2  0  0  0  0
 21 23  1  0  0  0  0
 23 22  2  0  0  0  0
 24 27  1  1  0  0  0
 24 31  1  0  0  0  0
 25 28  1  0  0  0  0
 25 30  1  0  0  0  0
 28 24  1  0  0  0  0
 29 31  1  0  0  0  0
 29 26  2  0  0  0  0
 30 23  1  6  0  0  0
 30 29  1  0  0  0  0
M  END
>  <MODEL>
4

>  <REMARK>
 VINA RESULT:      -4.3      3.931      7.184
  Name = 
  3 active torsions:
  status: ('A' for Active; 'I' for Inactive)
    1  A    between atoms: C_5  and  O_16
    2  A    between atoms: C_5  and  C_30
    3  A    between atoms: C_10  and  O_16
                            x       y       z     vdW  Elec       q    Type
                         _______ _______ _______ _____ _____    ______ ____

>  <TORSDO>
F 3

$$$$
=
 OpenBabel11122413243D

 31 35  0  0  1  0  0  0  0  0999 V2000
  161.2200  204.9970  144.5690 C   0  0  0  0  0  0  0  0  0  0  0  0
  160.3050  205.1890  148.2540 C   0  0  2  0  0  3  0  0  0  0  0  0
  160.7090  203.9650  149.0510 C   0  0  0  0  0  0  0  0  0  0  0  0
  161.4130  201.6400  149.1500 C   0  0  0  0  0  0  0  0  0  0  0  0
  161.0580  205.3310  146.9620 C   0  0  0  0  0  0  0  0  0  0  0  0
  162.4810  205.6010  144.5700 C   0  0  0  0  0  3  0  0  0  0  0  0
  161.0800  202.7740  148.4060 C   0  0  0  0  0  3  0  0  0  0  0  0
  161.8900  207.0570  149.1860 C   0  0  1  0  0  3  0  0  0  0  0  0
  160.6740  204.5310  143.3810 O   0  0  0  0  0  1  0  0  0  0  0  0
  160.2250  205.1750  151.1450 N   0  0  0  0  0  2  0  0  0  0  0  0
  161.8200  200.3910  148.4560 C   0  0  0  0  0  1  0  0  0  0  0  0
  162.9200  206.3970  148.2520 C   0  0  0  0  0  2  0  0  0  0  0  0
  160.4430  206.4870  149.0800 C   0  0  2  0  0  3  0  0  0  0  0  0
  160.5080  204.8600  145.7660 C   0  0  0  0  0  3  0  0  0  0  0  0
  161.3640  201.6780  150.5450 C   0  0  0  0  0  3  0  0  0  0  0  0
  162.3180  205.9470  146.9600 C   0  0  0  0  0  0  0  0  0  0  0  0
  163.0340  206.0710  145.7650 C   0  0  0  0  0  3  0  0  0  0  0  0
  159.7210  206.3400  150.4230 C   0  0  0  0  0  2  0  0  0  0  0  0
  160.6270  203.9840  150.4590 C   0  0  0  0  0  0  0  0  0  0  0  0
  160.9700  202.8490  151.1990 C   0  0  0  0  0  3  0  0  0  0  0  0
  162.3740  207.0230  150.5250 O   0  0  0  0  0  0  0  0  0  0  0  0
  163.0120  209.0360  151.4660 O   0  0  0  0  0  0  0  0  0  0  0  0
  162.1940  208.0790  151.4230 C   0  0  0  0  0  0  0  0  0  0  0  0
  161.1360  209.7930  154.7930 C   0  0  1  0  0  3  0  0  0  0  0  0
  160.4020  209.4730  152.4440 C   0  0  0  0  0  2  0  0  0  0  0  0
  161.6170  206.3010  153.8390 O   0  0  0  0  0  0  0  0  0  0  0  0
  161.9670  210.6340  155.7380 C   0  0  0  0  0  1  0  0  0  0  0  0
  161.1940  210.3760  153.3880 C   0  0  0  0  0  2  0  0  0  0  0  0
  161.4100  207.5330  153.6980 C   0  0  0  0  0  0  0  0  0  0  0  0
  161.0210  208.0740  152.3490 C   0  0  2  0  0  3  0  0  0  0  0  0
  161.6210  208.4170  154.8030 N   0  0  0  0  0  2  0  0  0  0  0  0
  1  6  2  0  0  0  0
  1 14  1  0  0  0  0
  2  5  1  6  0  0  0
  2  3  1  0  0  0  0
  2 13  1  0  0  0  0
  3 19  1  0  0  0  0
  4 15  2  0  0  0  0
  6 17  1  0  0  0  0
  7  3  2  0  0  0  0
  7  4  1  0  0  0  0
  8 21  1  1  0  0  0
  9  1  1  0  0  0  0
 11  4  1  0  0  0  0
 12  8  1  0  0  0  0
 13  8  1  0  0  0  0
 13 18  1  1  0  0  0
 14  5  2  0  0  0  0
 15 20  1  0  0  0  0
 16  5  1  0  0  0  0
 16 12  1  0  0  0  0
 17 16  2  0  0  0  0
 18 10  1  0  0  0  0
 19 10  1  0  0  0  0
 19 20  2  0  0  0  0
 21 23  1  0  0  0  0
 23 22  2  0  0  0  0
 24 31  1  0  0  0  0
 24 27  1  1  0  0  0
 25 28  1  0  0  0  0
 28 24  1  0  0  0  0
 29 26  2  0  0  0  0
 29 31  1  0  0  0  0
 30 23  1  6  0  0  0
 30 25  1  0  0  0  0
 30 29  1  0  0  0  0
M  END
>  <MODEL>
5

>  <REMARK>
 VINA RESULT:      -3.9      3.856      7.662
  Name = 
  3 active torsions:
  status: ('A' for Active; 'I' for Inactive)
    1  A    between atoms: C_5  and  O_16
    2  A    between atoms: C_5  and  C_30
    3  A    between atoms: C_10  and  O_16
                            x       y       z     vdW  Elec       q    Type
                         _______ _______ _______ _____ _____    ______ ____

>  <TORSDO>
F 3

$$$$
=
 OpenBabel11122413243D

 31 35  0  0  1  0  0  0  0  0999 V2000
  162.6960  213.3530  147.6180 C   0  0  0  0  0  0  0  0  0  0  0  0
  160.0050  214.1210  150.1900 C   0  0  2  0  0  3  0  0  0  0  0  0
  158.5920  213.9050  149.6840 C   0  0  0  0  0  0  0  0  0  0  0  0
  157.0230  213.5960  147.8530 C   0  0  0  0  0  0  0  0  0  0  0  0
  161.0420  213.3910  149.3860 C   0  0  0  0  0  0  0  0  0  0  0  0
  162.9630  212.0080  147.8970 C   0  0  0  0  0  3  0  0  0  0  0  0
  158.3320  213.7560  148.3120 C   0  0  0  0  0  3  0  0  0  0  0  0
  160.2950  212.2220  151.9730 C   0  0  1  0  0  3  0  0  0  0  0  0
  163.3830  214.0010  146.6020 O   0  0  0  0  0  1  0  0  0  0  0  0
  157.7380  214.1230  151.9880 N   0  0  0  0  0  2  0  0  0  0  0  0
  156.7630  213.4230  146.4000 C   0  0  0  0  0  1  0  0  0  0  0  0
  160.5340  211.3420  150.7320 C   0  0  0  0  0  2  0  0  0  0  0  0
  160.1460  213.7460  151.6820 C   0  0  2  0  0  3  0  0  0  0  0  0
  161.7330  214.0440  148.3620 C   0  0  0  0  0  3  0  0  0  0  0  0
  155.9580  213.6000  148.7560 C   0  0  0  0  0  3  0  0  0  0  0  0
  161.3180  212.0460  149.6720 C   0  0  0  0  0  0  0  0  0  0  0  0
  162.2710  211.3530  148.9200 C   0  0  0  0  0  3  0  0  0  0  0  0
  159.0640  214.4440  152.5100 C   0  0  0  0  0  2  0  0  0  0  0  0
  157.5080  213.9440  150.5860 C   0  0  0  0  0  0  0  0  0  0  0  0
  156.2010  213.7750  150.1220 C   0  0  0  0  0  3  0  0  0  0  0  0
  159.1850  211.7130  152.7080 O   0  0  0  0  0  0  0  0  0  0  0  0
  159.8310  209.6250  153.4600 O   0  0  0  0  0  0  0  0  0  0  0  0
  159.3180  210.7480  153.7100 C   0  0  0  0  0  0  0  0  0  0  0  0
  156.5550  212.9430  155.4310 C   0  0  1  0  0  3  0  0  0  0  0  0
  157.3830  210.6090  155.2700 C   0  0  0  0  0  2  0  0  0  0  0  0
  160.2000  212.9340  155.6520 O   0  0  0  0  0  0  0  0  0  0  0  0
  155.6510  213.9920  154.8190 C   0  0  0  0  0  1  0  0  0  0  0  0
  156.4150  211.6290  154.6750 C   0  0  0  0  0  2  0  0  0  0  0  0
  159.0420  212.5000  155.4240 C   0  0  0  0  0  0  0  0  0  0  0  0
  158.8420  211.0460  155.0950 C   0  0  2  0  0  3  0  0  0  0  0  0
  157.9370  213.4100  155.4060 N   0  0  0  0  0  2  0  0  0  0  0  0
  1  6  2  0  0  0  0
  1 14  1  0  0  0  0
  2  5  1  6  0  0  0
  2 13  1  0  0  0  0
  3  2  1  0  0  0  0
  3 19  1  0  0  0  0
  4  7  1  0  0  0  0
  4 15  2  0  0  0  0
  5 16  1  0  0  0  0
  6 17  1  0  0  0  0
  7  3  2  0  0  0  0
  8 21  1  6  0  0  0
  9  1  1  0  0  0  0
 10 18  1  0  0  0  0
 11  4  1  0  0  0  0
 12  8  1  0  0  0  0
 13  8  1  0  0  0  0
 13 18  1  1  0  0  0
 14  5  2  0  0  0  0
 15 20  1  0  0  0  0
 16 12  1  0  0  0  0
 17 16  2  0  0  0  0
 19 10  1  0  0  0  0
 20 19  2  0  0  0  0
 21 23  1  0  0  0  0
 22 23  2  0  0  0  0
 24 27  1  6  0  0  0
 28 25  1  0  0  0  0
 28 24  1  0  0  0  0
 29 26  2  0  0  0  0
 30 23  1  6  0  0  0
 30 25  1  0  0  0  0
 30 29  1  0  0  0  0
 31 29  1  0  0  0  0
 31 24  1  0  0  0  0
M  END
>  <MODEL>
6

>  <REMARK>
 VINA RESULT:      -3.6      3.385      7.363
  Name = 
  3 active torsions:
  status: ('A' for Active; 'I' for Inactive)
    1  A    between atoms: C_5  and  O_16
    2  A    between atoms: C_5  and  C_30
    3  A    between atoms: C_10  and  O_16
                            x       y       z     vdW  Elec       q    Type
                         _______ _______ _______ _____ _____    ______ ____

>  <TORSDO>
F 3

$$$$
=
 OpenBabel11122413243D

 31 35  0  0  1  0  0  0  0  0999 V2000
  162.0890  206.0490  146.5450 C   0  0  0  0  0  0  0  0  0  0  0  0
  162.6370  208.2550  149.5910 C   0  0  2  0  0  3  0  0  0  0  0  0
  162.0380  209.6420  149.4600 C   0  0  0  0  0  0  0  0  0  0  0  0
  161.1070  211.4270  148.0970 C   0  0  0  0  0  0  0  0  0  0  0  0
  162.0370  207.2580  148.6420 C   0  0  0  0  0  0  0  0  0  0  0  0
  160.8980  205.4010  146.8880 C   0  0  0  0  0  3  0  0  0  0  0  0
  161.6220  210.1340  148.2120 C   0  0  0  0  0  3  0  0  0  0  0  0
  161.1510  207.1370  151.4380 C   0  0  1  0  0  3  0  0  0  0  0  0
  162.7060  205.7710  145.3330 O   0  0  0  0  0  1  0  0  0  0  0  0
  162.4190  210.0280  151.8670 N   0  0  0  0  0  2  0  0  0  0  0  0
  160.6560  211.9290  146.7730 C   0  0  0  0  0  1  0  0  0  0  0  0
  160.1630  206.9460  150.2730 C   0  0  0  0  0  2  0  0  0  0  0  0
  162.5400  207.7190  151.0360 C   0  0  2  0  0  3  0  0  0  0  0  0
  162.6580  206.9790  147.4210 C   0  0  0  0  0  3  0  0  0  0  0  0
  161.0170  212.2480  149.2230 C   0  0  0  0  0  3  0  0  0  0  0  0
  160.8480  206.6000  148.9900 C   0  0  0  0  0  0  0  0  0  0  0  0
  160.2740  205.6800  148.1080 C   0  0  0  0  0  3  0  0  0  0  0  0
  163.1030  208.7470  152.0230 C   0  0  0  0  0  2  0  0  0  0  0  0
  161.9770  210.4910  150.5860 C   0  0  0  0  0  0  0  0  0  0  0  0
  161.4530  211.7810  150.4660 C   0  0  0  0  0  3  0  0  0  0  0  0
  160.5320  207.9070  152.4640 O   0  0  0  0  0  0  0  0  0  0  0  0
  161.3100  206.5910  154.1980 O   0  0  0  0  0  0  0  0  0  0  0  0
  160.6550  207.6000  153.8220 C   0  0  0  0  0  0  0  0  0  0  0  0
  161.7460  210.0510  156.6880 C   0  0  1  0  0  3  0  0  0  0  0  0
  160.3780  209.9420  154.6200 C   0  0  0  0  0  2  0  0  0  0  0  0
  159.8030  206.9590  156.6840 O   0  0  0  0  0  0  0  0  0  0  0  0
  163.1260  210.2960  157.2610 C   0  0  0  0  0  1  0  0  0  0  0  0
  161.7630  210.2580  155.1790 C   0  0  0  0  0  2  0  0  0  0  0  0
  160.3340  208.0060  156.2340 C   0  0  0  0  0  0  0  0  0  0  0  0
  160.0000  208.4730  154.8430 C   0  0  2  0  0  3  0  0  0  0  0  0
  161.3080  208.7000  157.0200 N   0  0  0  0  0  2  0  0  0  0  0  0
  1  6  2  0  0  0  0
  1 14  1  0  0  0  0
  2  5  1  6  0  0  0
  2 13  1  0  0  0  0
  3  2  1  0  0  0  0
  3 19  1  0  0  0  0
  4  7  1  0  0  0  0
  4 15  2  0  0  0  0
  5 16  1  0  0  0  0
  6 17  1  0  0  0  0
  7  3  2  0  0  0  0
  8 21  1  1  0  0  0
  9  1  1  0  0  0  0
 10 18  1  0  0  0  0
 11  4  1  0  0  0  0
 12  8  1  0  0  0  0
 13  8  1  0  0  0  0
 13 18  1  1  0  0  0
 14  5  2  0  0  0  0
 15 20  1  0  0  0  0
 16 12  1  0  0  0  0
 17 16  2  0  0  0  0
 19 10  1  0  0  0  0
 20 19  2  0  0  0  0
 21 23  1  0  0  0  0
 23 22  2  0  0  0  0
 24 31  1  0  0  0  0
 24 27  1  6  0  0  0
 25 30  1  0  0  0  0
 25 28  1  0  0  0  0
 28 24  1  0  0  0  0
 29 26  2  0  0  0  0
 29 31  1  0  0  0  0
 30 23  1  6  0  0  0
 30 29  1  0  0  0  0
M  END
>  <MODEL>
7

>  <REMARK>
 VINA RESULT:      -3.5      2.712      7.240
  Name = 
  3 active torsions:
  status: ('A' for Active; 'I' for Inactive)
    1  A    between atoms: C_5  and  O_16
    2  A    between atoms: C_5  and  C_30
    3  A    between atoms: C_10  and  O_16
                            x       y       z     vdW  Elec       q    Type
                         _______ _______ _______ _____ _____    ______ ____

>  <TORSDO>
F 3

$$$$
=
 OpenBabel11122413243D

 31 35  0  0  1  0  0  0  0  0999 V2000
  157.2380  214.0460  150.3140 C   0  0  0  0  0  0  0  0  0  0  0  0
  160.6740  213.8590  148.6990 C   0  0  2  0  0  3  0  0  0  0  0  0
  161.4150  212.5670  148.9820 C   0  0  0  0  0  0  0  0  0  0  0  0
  161.7030  210.5310  150.2780 C   0  0  0  0  0  0  0  0  0  0  0  0
  159.1910  213.7510  148.9140 C   0  0  0  0  0  0  0  0  0  0  0  0
  156.4290  213.5350  149.2940 C   0  0  0  0  0  3  0  0  0  0  0  0
  160.9900  211.6990  150.0000 C   0  0  0  0  0  3  0  0  0  0  0  0
  160.1430  213.6910  146.1370 C   0  0  1  0  0  3  0  0  0  0  0  0
  156.6700  214.4450  151.5160 O   0  0  0  0  0  1  0  0  0  0  0  0
  163.0770  213.1490  147.2540 N   0  0  0  0  0  2  0  0  0  0  0  0
  161.2330  209.6130  151.3480 C   0  0  0  0  0  1  0  0  0  0  0  0
  159.0050  212.7720  146.6170 C   0  0  0  0  0  2  0  0  0  0  0  0
  160.9540  214.3840  147.2740 C   0  0  2  0  0  3  0  0  0  0  0  0
  158.6200  214.1520  150.1250 C   0  0  0  0  0  3  0  0  0  0  0  0
  162.8570  210.2250  149.5540 C   0  0  0  0  0  3  0  0  0  0  0  0
  158.3780  213.2490  147.8870 C   0  0  0  0  0  0  0  0  0  0  0  0
  156.9980  213.1310  148.0820 C   0  0  0  0  0  3  0  0  0  0  0  0
  162.4630  214.4530  147.0210 C   0  0  0  0  0  2  0  0  0  0  0  0
  162.6020  212.2700  148.2790 C   0  0  0  0  0  0  0  0  0  0  0  0
  163.3070  211.0950  148.5560 C   0  0  0  0  0  3  0  0  0  0  0  0
  160.9900  212.9720  145.2460 O   0  0  0  0  0  0  0  0  0  0  0  0
  161.8520  213.8480  143.2880 O   0  0  0  0  0  0  0  0  0  0  0  0
  160.9660  213.1590  143.8610 C   0  0  0  0  0  0  0  0  0  0  0  0
  160.0200  212.7810  140.0700 C   0  0  1  0  0  3  0  0  0  0  0  0
  160.4420  211.4540  142.1250 C   0  0  0  0  0  2  0  0  0  0  0  0
  158.3270  214.3560  142.8960 O   0  0  0  0  0  0  0  0  0  0  0  0
  160.6450  213.4400  138.8590 C   0  0  0  0  0  1  0  0  0  0  0  0
  161.0870  212.0540  140.8780 C   0  0  0  0  0  2  0  0  0  0  0  0
  159.1190  213.5930  142.2850 C   0  0  0  0  0  0  0  0  0  0  0  0
  159.8760  212.5400  143.0470 C   0  0  2  0  0  3  0  0  0  0  0  0
  159.3470  213.7860  140.8850 N   0  0  0  0  0  2  0  0  0  0  0  0
  1  9  1  0  0  0  0
  2  5  1  6  0  0  0
  2  3  1  0  0  0  0
  3  7  1  0  0  0  0
  4 11  1  0  0  0  0
  5 14  2  0  0  0  0
  6  1  2  0  0  0  0
  7  4  2  0  0  0  0
  8 21  1  1  0  0  0
  8 12  1  0  0  0  0
  8 13  1  0  0  0  0
 10 19  1  0  0  0  0
 12 16  1  0  0  0  0
 13 18  1  6  0  0  0
 13  2  1  0  0  0  0
 14  1  1  0  0  0  0
 15  4  1  0  0  0  0
 16 17  2  0  0  0  0
 16  5  1  0  0  0  0
 17  6  1  0  0  0  0
 18 10  1  0  0  0  0
 19 20  1  0  0  0  0
 19  3  2  0  0  0  0
 20 15  2  0  0  0  0
 22 23  2  0  0  0  0
 23 21  1  0  0  0  0
 24 27  1  6  0  0  0
 24 28  1  0  0  0  0
 24 31  1  0  0  0  0
 25 30  1  0  0  0  0
 28 25  1  0  0  0  0
 29 26  2  0  0  0  0
 29 30  1  0  0  0  0
 30 23  1  6  0  0  0
 31 29  1  0  0  0  0
M  END
>  <MODEL>
8

>  <REMARK>
 VINA RESULT:      -3.5      3.847      7.169
  Name = 
  3 active torsions:
  status: ('A' for Active; 'I' for Inactive)
    1  A    between atoms: C_5  and  O_16
    2  A    between atoms: C_5  and  C_30
    3  A    between atoms: C_10  and  O_16
                            x       y       z     vdW  Elec       q    Type
                         _______ _______ _______ _____ _____    ______ ____

>  <TORSDO>
F 3

$$$$
=
 OpenBabel11122413243D

 31 35  0  0  1  0  0  0  0  0999 V2000
  162.4620  211.0600  148.8380 C   0  0  0  0  0  0  0  0  0  0  0  0
  162.5560  208.1760  151.3120 C   0  0  2  0  0  3  0  0  0  0  0  0
  161.5260  208.2830  152.4180 C   0  0  0  0  0  0  0  0  0  0  0  0
  159.9300  209.5880  153.7080 C   0  0  0  0  0  0  0  0  0  0  0  0
  162.2250  209.0140  150.1100 C   0  0  0  0  0  0  0  0  0  0  0  0
  161.5890  210.5580  147.8670 C   0  0  0  0  0  3  0  0  0  0  0  0
  160.8490  209.4890  152.6610 C   0  0  0  0  0  3  0  0  0  0  0  0
  161.7120  206.1310  149.9070 C   0  0  1  0  0  3  0  0  0  0  0  0
  163.0120  212.3260  148.6890 O   0  0  0  0  0  1  0  0  0  0  0  0
  161.9970  205.9520  153.0750 N   0  0  0  0  0  2  0  0  0  0  0  0
  159.2100  210.8660  153.9440 C   0  0  0  0  0  1  0  0  0  0  0  0
  160.7300  207.1650  149.3270 C   0  0  0  0  0  2  0  0  0  0  0  0
  162.7850  206.7120  150.8760 C   0  0  2  0  0  3  0  0  0  0  0  0
  162.7790  210.2890  149.9610 C   0  0  0  0  0  3  0  0  0  0  0  0
  159.6880  208.4880  154.5330 C   0  0  0  0  0  3  0  0  0  0  0  0
  161.3590  208.5070  149.1300 C   0  0  0  0  0  0  0  0  0  0  0  0
  161.0330  209.2840  148.0150 C   0  0  0  0  0  3  0  0  0  0  0  0
  163.0750  205.8340  152.0970 C   0  0  0  0  0  2  0  0  0  0  0  0
  161.3030  207.1870  153.2790 C   0  0  0  0  0  0  0  0  0  0  0  0
  160.3750  207.2890  154.3200 C   0  0  0  0  0  3  0  0  0  0  0  0
  160.9790  205.0660  150.5070 O   0  0  0  0  0  0  0  0  0  0  0  0
  159.5010  203.4090  149.8640 O   0  0  0  0  0  0  0  0  0  0  0  0
  160.6670  203.8850  149.8290 C   0  0  0  0  0  0  0  0  0  0  0  0
  161.0380  202.1220  146.3400 C   0  0  1  0  0  3  0  0  0  0  0  0
  162.0310  203.9100  147.7460 C   0  0  0  0  0  2  0  0  0  0  0  0
  161.3780  200.9150  149.7700 O   0  0  0  0  0  0  0  0  0  0  0  0
  159.9680  201.7830  145.3240 C   0  0  0  0  0  1  0  0  0  0  0  0
  160.9880  203.6070  146.6730 C   0  0  0  0  0  2  0  0  0  0  0  0
  161.3380  201.7360  148.8180 C   0  0  0  0  0  0  0  0  0  0  0  0
  161.7270  203.1710  149.0550 C   0  0  2  0  0  3  0  0  0  0  0  0
  160.8490  201.3160  147.5410 N   0  0  0  0  0  2  0  0  0  0  0  0
  1 14  1  0  0  0  0
  2  5  1  6  0  0  0
  2  3  1  0  0  0  0
  3  7  2  0  0  0  0
  3 19  1  0  0  0  0
  4 11  1  0  0  0  0
  4 15  2  0  0  0  0
  6 17  1  0  0  0  0
  6  1  2  0  0  0  0
  7  4  1  0  0  0  0
  8 21  1  1  0  0  0
  8 13  1  0  0  0  0
  9  1  1  0  0  0  0
 10 19  1  0  0  0  0
 12  8  1  0  0  0  0
 13  2  1  0  0  0  0
 13 18  1  1  0  0  0
 14  5  2  0  0  0  0
 16 12  1  0  0  0  0
 16  5  1  0  0  0  0
 17 16  2  0  0  0  0
 18 10  1  0  0  0  0
 19 20  2  0  0  0  0
 20 15  1  0  0  0  0
 23 22  2  0  0  0  0
 23 21  1  0  0  0  0
 24 27  1  6  0  0  0
 24 28  1  0  0  0  0
 24 31  1  0  0  0  0
 25 30  1  0  0  0  0
 28 25  1  0  0  0  0
 29 30  1  0  0  0  0
 29 26  2  0  0  0  0
 30 23  1  6  0  0  0
 31 29  1  0  0  0  0
M  END
>  <MODEL>
9

>  <REMARK>
 VINA RESULT:      -3.3      3.910      7.851
  Name = 
  3 active torsions:
  status: ('A' for Active; 'I' for Inactive)
    1  A    between atoms: C_5  and  O_16
    2  A    between atoms: C_5  and  C_30
    3  A    between atoms: C_10  and  O_16
                            x       y       z     vdW  Elec       q    Type
                         _______ _______ _______ _____ _____    ______ ____

>  <TORSDO>
F 3

$$$$
