=
 OpenBabel11122413473D

 37 43  0  0  1  0  0  0  0  0999 V2000
  161.9010  205.6030  146.5200 C   0  0  0  0  0  0  0  0  0  0  0  0
  161.1360  205.6280  150.6290 C   0  0  0  0  0  0  0  0  0  0  0  0
  160.7490  209.0880  152.2460 C   0  0  0  0  0  2  0  0  0  0  0  0
  161.2980  204.2760  148.6150 C   0  0  0  0  0  0  0  0  0  0  0  0
  161.5000  206.9510  150.9400 C   0  0  0  0  0  0  0  0  0  0  0  0
  161.4750  205.4490  149.3190 C   0  0  0  0  0  0  0  0  0  0  0  0
  161.3800  207.6650  152.3090 C   0  0  2  0  0  3  0  0  0  0  0  0
  160.7550  203.1840  149.3060 C   0  0  0  0  0  3  0  0  0  0  0  0
  162.0210  206.5840  148.8340 C   0  0  0  0  0  0  0  0  0  0  0  0
  160.5160  206.0720  146.1070 C   0  0  0  0  0  1  0  0  0  0  0  0
  160.2190  204.6170  152.7910 C   0  0  0  0  0  2  0  0  0  0  0  0
  160.4020  203.3240  150.6680 C   0  0  0  0  0  3  0  0  0  0  0  0
  162.5530  206.6740  147.4330 C   0  0  0  0  0  2  0  0  0  0  0  0
  161.5200  210.9650  150.8130 C   0  0  1  0  0  3  0  0  0  0  0  0
  160.8860  209.6460  150.9140 N   0  0  1  0  0  0  0  0  0  0  0  0
  160.6000  204.5450  151.3540 C   0  0  0  0  0  0  0  0  0  0  0  0
  162.0720  207.5150  149.8090 N   0  0  0  0  0  0  0  0  0  0  0  0
  161.7900  204.2050  147.1910 C   0  0  0  0  0  2  0  0  0  0  0  0
  160.7700  206.8930  153.4930 C   0  0  1  0  0  3  0  0  0  0  0  0
  162.7420  205.4660  145.2700 C   0  0  0  0  0  1  0  0  0  0  0  0
  162.3490  209.7500  150.7880 C   0  0  1  0  0  3  0  0  0  0  0  0
  162.6300  208.8650  149.5920 C   0  0  0  0  0  2  0  0  0  0  0  0
  161.2060  205.4460  153.5770 C   0  0  0  0  0  2  0  0  0  0  0  0
  160.6190  206.9790  155.9890 C   0  0  0  0  0  3  0  0  0  0  0  0
  161.0520  207.5750  154.8000 C   0  0  0  0  0  0  0  0  0  0  0  0
  161.7450  208.7950  154.8470 C   0  0  0  0  0  3  0  0  0  0  0  0
  162.7310  210.7030  156.1230 C   0  0  0  0  0  1  0  0  0  0  0  0
  161.5610  208.8120  157.2610 C   0  0  0  0  0  3  0  0  0  0  0  0
  161.9980  209.4110  156.0760 C   0  0  0  0  0  0  0  0  0  0  0  0
  160.8730  207.5950  157.2180 C   0  0  0  0  0  3  0  0  0  0  0  0
  161.3130  211.5350  149.4460 C   0  0  0  0  0  0  0  0  0  0  0  0
  160.8210  212.8690  149.3020 N   0  0  0  0  0  2  0  0  0  0  0  0
  161.5430  210.8260  148.4290 O   0  0  0  0  0  0  0  0  0  0  0  0
  161.8770  214.3580  147.6780 C   0  0  0  0  0  1  0  0  0  0  0  0
  160.6570  213.5130  148.0050 C   0  0  2  0  0  3  0  0  0  0  0  0
  158.4480  213.8620  148.8890 O   0  0  0  0  0  1  0  0  0  0  0  0
  159.3990  214.3690  147.9990 C   0  0  0  0  0  2  0  0  0  0  0  0
  1 18  1  0  0  0  0
  1 13  1  0  0  0  0
  2  5  2  0  0  0  0
  2 16  1  0  0  0  0
  4  8  2  0  0  0  0
  4  6  1  0  0  0  0
  5  7  1  0  0  0  0
  6  2  1  0  0  0  0
  7  3  1  6  0  0  0
  7 19  1  0  0  0  0
  8 12  1  0  0  0  0
  9  6  2  0  0  0  0
  9 17  1  0  0  0  0
 10  1  1  0  0  0  0
 11 23  1  0  0  0  0
 12 16  2  0  0  0  0
 13  9  1  0  0  0  0
 14 31  1  6  0  0  0
 14 15  1  0  0  0  0
 15  3  1  1  0  0  0
 16 11  1  0  0  0  0
 17  5  1  0  0  0  0
 18  4  1  0  0  0  0
 19 23  1  0  0  0  0
 19 25  1  1  0  0  0
 20  1  1  0  0  0  0
 21 22  1  6  0  0  0
 21 14  1  0  0  0  0
 21 15  1  0  0  0  0
 22 17  1  0  0  0  0
 24 30  1  0  0  0  0
 25 26  1  0  0  0  0
 25 24  2  0  0  0  0
 26 29  2  0  0  0  0
 29 27  1  0  0  0  0
 29 28  1  0  0  0  0
 30 28  2  0  0  0  0
 32 31  1  0  0  0  0
 33 31  2  0  0  0  0
 35 34  1  1  0  0  0
 35 32  1  0  0  0  0
 37 35  1  0  0  0  0
 37 36  1  0  0  0  0
M  END
>  <MODEL>
1

>  <REMARK>
 VINA RESULT:      -9.1      0.000      0.000
  Name = 
  4 active torsions:
  status: ('A' for Active; 'I' for Inactive)
    1  A    between atoms: CA_4  and  N_12
    2  A    between atoms: CA_4  and  C_37
    3  A    between atoms: C_8  and  C_18
    4  A    between atoms: C_23  and  C_30
                            x       y       z     vdW  Elec       q    Type
                         _______ _______ _______ _____ _____    ______ ____

>  <TORSDO>
F 4

$$$$
=
 OpenBabel11122413473D

 37 43  0  0  1  0  0  0  0  0999 V2000
  161.8730  206.1630  147.4610 C   0  0  0  0  0  0  0  0  0  0  0  0
  161.2520  207.0070  151.5060 C   0  0  0  0  0  0  0  0  0  0  0  0
  160.6110  210.6900  152.3760 C   0  0  0  0  0  2  0  0  0  0  0  0
  161.4670  205.2720  149.8170 C   0  0  0  0  0  0  0  0  0  0  0  0
  161.5060  208.3910  151.5120 C   0  0  0  0  0  0  0  0  0  0  0  0
  161.5610  206.5790  150.2470 C   0  0  0  0  0  0  0  0  0  0  0  0
  161.3690  209.3700  152.7040 C   0  0  2  0  0  3  0  0  0  0  0  0
  161.0490  204.3140  150.7510 C   0  0  0  0  0  3  0  0  0  0  0  0
  161.9840  207.6240  149.5060 C   0  0  0  0  0  0  0  0  0  0  0  0
  160.4380  206.4190  147.0320 C   0  0  0  0  0  1  0  0  0  0  0  0
  160.5070  206.4120  153.8790 C   0  0  0  0  0  2  0  0  0  0  0  0
  160.7320  204.7140  152.0690 C   0  0  0  0  0  3  0  0  0  0  0  0
  162.4580  207.4550  148.0910 C   0  0  0  0  0  2  0  0  0  0  0  0
  161.1580  212.2730  150.5420 C   0  0  1  0  0  3  0  0  0  0  0  0
  160.6500  210.9590  150.9520 N   0  0  1  0  0  0  0  0  0  0  0  0
  160.8430  206.0650  152.4710 C   0  0  0  0  0  0  0  0  0  0  0  0
  161.9850  208.7440  150.2590 N   0  0  0  0  0  0  0  0  0  0  0  0
  161.9130  204.9370  148.4160 C   0  0  0  0  0  2  0  0  0  0  0  0
  160.8730  208.8230  154.0550 C   0  0  1  0  0  3  0  0  0  0  0  0
  162.6800  205.8300  146.2250 C   0  0  0  0  0  1  0  0  0  0  0  0
  162.0930  211.1510  150.7280 C   0  0  1  0  0  3  0  0  0  0  0  0
  162.4110  210.0570  149.7330 C   0  0  0  0  0  2  0  0  0  0  0  0
  161.4420  207.4680  154.4190 C   0  0  0  0  0  2  0  0  0  0  0  0
  160.0620  210.4560  155.7690 C   0  0  0  0  0  3  0  0  0  0  0  0
  161.1380  209.7900  155.1720 C   0  0  0  0  0  0  0  0  0  0  0  0
  162.4430  210.0330  155.6270 C   0  0  0  0  0  3  0  0  0  0  0  0
  164.0490  211.1940  157.1480 C   0  0  0  0  0  1  0  0  0  0  0  0
  161.5870  211.6010  157.2610 C   0  0  0  0  0  3  0  0  0  0  0  0
  162.6660  210.9380  156.6690 C   0  0  0  0  0  0  0  0  0  0  0  0
  160.2850  211.3590  156.8120 C   0  0  0  0  0  3  0  0  0  0  0  0
  160.8520  212.5170  149.0980 C   0  0  0  0  0  0  0  0  0  0  0  0
  159.4980  212.7030  148.6820 N   0  0  0  0  0  2  0  0  0  0  0  0
  161.7870  212.5290  148.2520 O   0  0  0  0  0  0  0  0  0  0  0  0
  159.4760  214.4530  146.9780 C   0  0  0  0  0  1  0  0  0  0  0  0
  159.1310  213.0100  147.3060 C   0  0  2  0  0  3  0  0  0  0  0  0
  157.3760  212.5020  145.7420 O   0  0  0  0  0  1  0  0  0  0  0  0
  157.6460  212.7560  147.0890 C   0  0  0  0  0  2  0  0  0  0  0  0
  1 13  1  0  0  0  0
  1 18  1  0  0  0  0
  2  5  2  0  0  0  0
  2 16  1  0  0  0  0
  4  6  1  0  0  0  0
  4  8  2  0  0  0  0
  5  7  1  0  0  0  0
  6  2  1  0  0  0  0
  7  3  1  6  0  0  0
  7 19  1  0  0  0  0
  8 12  1  0  0  0  0
  9  6  2  0  0  0  0
  9 17  1  0  0  0  0
 10  1  1  0  0  0  0
 11 23  1  0  0  0  0
 12 16  2  0  0  0  0
 13  9  1  0  0  0  0
 14 31  1  6  0  0  0
 14 21  1  0  0  0  0
 14 15  1  0  0  0  0
 15  3  1  1  0  0  0
 16 11  1  0  0  0  0
 17  5  1  0  0  0  0
 18  4  1  0  0  0  0
 19 23  1  0  0  0  0
 19 25  1  1  0  0  0
 20  1  1  0  0  0  0
 21 22  1  6  0  0  0
 21 15  1  0  0  0  0
 22 17  1  0  0  0  0
 24 30  1  0  0  0  0
 25 26  1  0  0  0  0
 25 24  2  0  0  0  0
 26 29  2  0  0  0  0
 29 27  1  0  0  0  0
 29 28  1  0  0  0  0
 30 28  2  0  0  0  0
 32 31  1  0  0  0  0
 33 31  2  0  0  0  0
 35 34  1  1  0  0  0
 35 32  1  0  0  0  0
 36 37  1  0  0  0  0
 37 35  1  0  0  0  0
M  END
>  <MODEL>
2

>  <REMARK>
 VINA RESULT:      -8.2      1.416      1.949
  Name = 
  4 active torsions:
  status: ('A' for Active; 'I' for Inactive)
    1  A    between atoms: CA_4  and  N_12
    2  A    between atoms: CA_4  and  C_37
    3  A    between atoms: C_8  and  C_18
    4  A    between atoms: C_23  and  C_30
                            x       y       z     vdW  Elec       q    Type
                         _______ _______ _______ _____ _____    ______ ____

>  <TORSDO>
F 4

$$$$
