=
 OpenBabel11122414333D

 34 40  0  0  0  0  0  0  0  0999 V2000
  161.6910  208.1070  150.2280 C   0  0  0  0  0  0  0  0  0  0  0  0
  161.5180  206.6880  148.0880 C   0  0  0  0  0  3  0  0  0  0  0  0
  159.2600  209.9150  154.8900 O   0  0  0  0  0  0  0  0  0  0  0  0
  161.8840  209.4000  152.3640 C   0  0  0  0  0  0  0  0  0  0  0  0
  161.5820  208.1880  154.4210 N   0  0  0  0  0  0  0  0  0  0  0  0
  159.8680  207.9680  156.1660 C   0  0  0  0  0  2  0  0  0  0  0  0
  159.1070  209.2890  156.1350 C   0  0  0  0  0  2  0  0  0  0  0  0
  161.2680  211.1020  155.5690 C   0  0  0  0  0  2  0  0  0  0  0  0
  161.2930  205.7130  150.2510 C   0  0  0  0  0  0  0  0  0  0  0  0
  160.7710  202.6830  150.6960 C   0  0  0  0  0  3  0  0  0  0  0  0
  161.4080  206.9600  153.6970 C   0  0  0  0  0  3  0  0  0  0  0  0
  162.2090  210.7000  154.4370 C   0  0  0  0  0  2  0  0  0  0  0  0
  161.2550  205.6810  151.6580 C   0  0  0  0  0  0  0  0  0  0  0  0
  161.2830  205.2580  147.9430 N   0  0  0  0  0  0  0  0  0  0  0  0
  161.8550  209.4200  153.7100 C   0  0  0  0  0  0  0  0  0  0  0  0
  159.7960  211.1850  155.1530 C   0  0  0  0  0  2  0  0  0  0  0  0
  160.9230  203.3570  149.3950 C   0  0  0  0  0  0  0  0  0  0  0  0
  161.6740  208.1160  151.6390 C   0  0  0  0  0  0  0  0  0  0  0  0
  161.3570  208.1480  155.8630 C   0  0  0  0  0  2  0  0  0  0  0  0
  161.4470  206.9130  152.3550 C   0  0  0  0  0  0  0  0  0  0  0  0
  161.5350  210.6030  150.2080 C   0  0  0  0  0  2  0  0  0  0  0  0
  160.8220  203.1800  151.9260 C   0  0  0  0  0  3  0  0  0  0  0  0
  162.2090  210.6430  151.5730 C   0  0  0  0  0  2  0  0  0  0  0  0
  161.0470  204.5600  152.3650 C   0  0  0  0  0  3  0  0  0  0  0  0
  161.1480  204.6700  149.2370 C   0  0  0  0  0  0  0  0  0  0  0  0
  161.9810  209.3590  149.4470 C   0  0  0  0  0  2  0  0  0  0  0  0
  161.5080  206.8950  149.5660 C   0  0  0  0  0  0  0  0  0  0  0  0
  160.8180  202.5250  148.1790 C   0  0  0  0  0  3  0  0  0  0  0  0
  161.1950  201.2470  148.1320 C   0  0  0  0  0  3  0  0  0  0  0  0
  161.3270  198.7660  145.3260 C   0  0  0  0  0  2  0  0  0  0  0  0
  160.4400  200.9960  145.7500 C   0  0  0  0  0  2  0  0  0  0  0  0
  161.0780  200.4730  146.9360 N   0  0  0  0  0  0  0  0  0  0  0  0
  160.4090  199.8440  144.7640 C   0  0  0  0  0  2  0  0  0  0  0  0
  161.5680  199.1190  146.7800 C   0  0  0  0  0  2  0  0  0  0  0  0
  1 18  2  0  0  0  0
  2 27  1  0  0  0  0
  3 16  1  0  0  0  0
  3  7  1  0  0  0  0
  4 15  2  0  0  0  0
  5 19  1  0  0  0  0
  7  6  1  0  0  0  0
  9 13  1  0  0  0  0
 10 22  2  0  0  0  0
 11  5  1  0  0  0  0
 12  8  1  0  0  0  0
 13 20  1  0  0  0  0
 13 24  2  0  0  0  0
 14  2  2  0  0  0  0
 14 25  1  0  0  0  0
 15  5  1  0  0  0  0
 15 12  1  0  0  0  0
 16  8  1  0  0  0  0
 17 10  1  0  0  0  0
 18 20  1  0  0  0  0
 18  4  1  0  0  0  0
 19  6  1  0  0  0  0
 20 11  2  0  0  0  0
 21 23  1  0  0  0  0
 22 24  1  0  0  0  0
 23  4  1  0  0  0  0
 25 17  2  0  0  0  0
 25  9  1  0  0  0  0
 26 21  1  0  0  0  0
 26  1  1  0  0  0  0
 27  1  1  0  0  0  0
 27  9  2  0  0  0  0
 28 17  1  0  0  0  0
 29 28  2  0  0  0  0
 30 34  1  0  0  0  0
 31 32  1  0  0  0  0
 32 29  1  0  0  0  0
 33 30  1  0  0  0  0
 33 31  1  0  0  0  0
 34 32  1  0  0  0  0
M  END
>  <MODEL>
1

>  <REMARK>
 VINA RESULT:      -9.5      0.000      0.000
  Name = 
  2 active torsions:
  status: ('A' for Active; 'I' for Inactive)
    1  A    between atoms: C_17  and  C_28
    2  A    between atoms: C_29  and  N_32
                            x       y       z     vdW  Elec       q    Type
                         _______ _______ _______ _____ _____    ______ ____

>  <TORSDO>
F 2

$$$$
=
 OpenBabel11122414333D

 34 40  0  0  0  0  0  0  0  0999 V2000
  160.9900  203.7360  150.4880 C   0  0  0  0  0  0  0  0  0  0  0  0
  160.9120  205.1560  152.6330 C   0  0  0  0  0  3  0  0  0  0  0  0
  158.9270  202.7350  145.4240 O   0  0  0  0  0  0  0  0  0  0  0  0
  161.1270  202.4310  148.3560 C   0  0  0  0  0  0  0  0  0  0  0  0
  161.5570  203.6590  146.3320 N   0  0  0  0  0  0  0  0  0  0  0  0
  160.3070  204.3870  144.3480 C   0  0  0  0  0  2  0  0  0  0  0  0
  159.1820  203.3670  144.1990 C   0  0  0  0  0  2  0  0  0  0  0  0
  160.5560  200.9780  145.0230 C   0  0  0  0  0  2  0  0  0  0  0  0
  161.3580  206.1360  150.5070 C   0  0  0  0  0  0  0  0  0  0  0  0
  161.8740  209.1750  150.1170 C   0  0  0  0  0  3  0  0  0  0  0  0
  161.6520  204.8860  147.0720 C   0  0  0  0  0  3  0  0  0  0  0  0
  161.3740  201.0770  146.3070 C   0  0  0  0  0  2  0  0  0  0  0  0
  161.5650  206.1670  149.1150 C   0  0  0  0  0  0  0  0  0  0  0  0
  161.1070  206.5890  152.8010 N   0  0  0  0  0  0  0  0  0  0  0  0
  161.3170  202.4100  147.0230 C   0  0  0  0  0  0  0  0  0  0  0  0
  159.0830  201.3590  145.1940 C   0  0  0  0  0  2  0  0  0  0  0  0
  161.5940  208.4970  151.3950 C   0  0  0  0  0  0  0  0  0  0  0  0
  161.2050  203.7220  149.0940 C   0  0  0  0  0  0  0  0  0  0  0  0
  161.5970  203.7560  144.8760 C   0  0  0  0  0  2  0  0  0  0  0  0
  161.4810  204.9300  148.4040 C   0  0  0  0  0  0  0  0  0  0  0  0
  160.0740  201.4130  150.3750 C   0  0  0  0  0  2  0  0  0  0  0  0
  161.9720  208.6760  148.8910 C   0  0  0  0  0  3  0  0  0  0  0  0
  160.9190  201.1550  149.1340 C   0  0  0  0  0  2  0  0  0  0  0  0
  161.8300  207.2910  148.4340 C   0  0  0  0  0  3  0  0  0  0  0  0
  161.3750  207.1810  151.5290 C   0  0  0  0  0  0  0  0  0  0  0  0
  160.7490  202.4620  151.2510 C   0  0  0  0  0  2  0  0  0  0  0  0
  161.0820  204.9510  151.1650 C   0  0  0  0  0  0  0  0  0  0  0  0
  161.5500  209.3300  152.6140 C   0  0  0  0  0  3  0  0  0  0  0  0
  160.5450  210.1570  152.9000 C   0  0  0  0  0  3  0  0  0  0  0  0
  160.0590  212.6350  155.6700 C   0  0  0  0  0  2  0  0  0  0  0  0
  161.4920  210.7320  155.1530 C   0  0  0  0  0  2  0  0  0  0  0  0
  160.5380  210.9480  154.0900 N   0  0  0  0  0  0  0  0  0  0  0  0
  161.0770  211.6720  156.2690 C   0  0  0  0  0  2  0  0  0  0  0  0
  159.6030  212.0210  154.3610 C   0  0  0  0  0  2  0  0  0  0  0  0
  1 27  1  0  0  0  0
  1 26  1  0  0  0  0
  2 14  1  0  0  0  0
  4 18  1  0  0  0  0
  4 23  1  0  0  0  0
  5 15  1  0  0  0  0
  5 11  1  0  0  0  0
  6 19  1  0  0  0  0
  7  6  1  0  0  0  0
  7  3  1  0  0  0  0
  8 16  1  0  0  0  0
  8 12  1  0  0  0  0
  9 27  1  0  0  0  0
  9 25  1  0  0  0  0
 10 17  2  0  0  0  0
 11 20  2  0  0  0  0
 12 15  1  0  0  0  0
 13  9  2  0  0  0  0
 15  4  2  0  0  0  0
 16  3  1  0  0  0  0
 17 25  1  0  0  0  0
 17 28  1  0  0  0  0
 18  1  2  0  0  0  0
 19  5  1  0  0  0  0
 20 18  1  0  0  0  0
 20 13  1  0  0  0  0
 21 26  1  0  0  0  0
 22 10  1  0  0  0  0
 23 21  1  0  0  0  0
 24 22  2  0  0  0  0
 24 13  1  0  0  0  0
 25 14  2  0  0  0  0
 27  2  2  0  0  0  0
 28 29  2  0  0  0  0
 29 32  1  0  0  0  0
 30 33  1  0  0  0  0
 31 33  1  0  0  0  0
 32 34  1  0  0  0  0
 32 31  1  0  0  0  0
 34 30  1  0  0  0  0
M  END
>  <MODEL>
2

>  <REMARK>
 VINA RESULT:      -9.0      2.572      9.860
  Name = 
  2 active torsions:
  status: ('A' for Active; 'I' for Inactive)
    1  A    between atoms: C_17  and  C_28
    2  A    between atoms: C_29  and  N_32
                            x       y       z     vdW  Elec       q    Type
                         _______ _______ _______ _____ _____    ______ ____

>  <TORSDO>
F 2

$$$$
=
 OpenBabel11122414333D

 34 40  0  0  0  0  0  0  0  0999 V2000
  161.1190  204.8670  150.8760 C   0  0  0  0  0  0  0  0  0  0  0  0
  160.8310  206.1730  153.0750 C   0  0  0  0  0  3  0  0  0  0  0  0
  159.5250  204.1110  145.6040 O   0  0  0  0  0  0  0  0  0  0  0  0
  161.4610  203.6750  148.7010 C   0  0  0  0  0  0  0  0  0  0  0  0
  162.0510  205.0110  146.7890 N   0  0  0  0  0  0  0  0  0  0  0  0
  160.9710  205.8280  144.7410 C   0  0  0  0  0  2  0  0  0  0  0  0
  159.8780  204.8080  144.4400 C   0  0  0  0  0  2  0  0  0  0  0  0
  161.2070  202.3920  145.2610 C   0  0  0  0  0  2  0  0  0  0  0  0
  161.4490  207.2650  151.0500 C   0  0  0  0  0  0  0  0  0  0  0  0
  161.9560  210.3250  150.8620 C   0  0  0  0  0  3  0  0  0  0  0  0
  162.0630  206.1980  147.5950 C   0  0  0  0  0  3  0  0  0  0  0  0
  161.9070  202.4320  146.6160 C   0  0  0  0  0  2  0  0  0  0  0  0
  161.7780  207.3700  149.6850 C   0  0  0  0  0  0  0  0  0  0  0  0
  160.9910  207.5970  153.3320 N   0  0  0  0  0  0  0  0  0  0  0  0
  161.7680  203.7250  147.3910 C   0  0  0  0  0  0  0  0  0  0  0  0
  159.7190  202.7500  145.3200 C   0  0  0  0  0  2  0  0  0  0  0  0
  161.5740  209.5800  152.0740 C   0  0  0  0  0  0  0  0  0  0  0  0
  161.4560  204.9270  149.5080 C   0  0  0  0  0  0  0  0  0  0  0  0
  162.2180  205.1830  145.3490 C   0  0  0  0  0  2  0  0  0  0  0  0
  161.7750  206.1720  148.9080 C   0  0  0  0  0  0  0  0  0  0  0  0
  160.2480  202.5440  150.5640 C   0  0  0  0  0  2  0  0  0  0  0  0
  162.1690  209.8920  149.6260 C   0  0  0  0  0  3  0  0  0  0  0  0
  161.2030  202.3590  149.3910 C   0  0  0  0  0  2  0  0  0  0  0  0
  162.0880  208.5310  149.0880 C   0  0  0  0  0  3  0  0  0  0  0  0
  161.3620  208.2560  152.1210 C   0  0  0  0  0  0  0  0  0  0  0  0
  160.8280  203.5530  151.5490 C   0  0  0  0  0  2  0  0  0  0  0  0
  161.1330  206.0460  151.6200 C   0  0  0  0  0  0  0  0  0  0  0  0
  161.4110  210.3480  153.3250 C   0  0  0  0  0  3  0  0  0  0  0  0
  160.3400  211.0960  153.5910 C   0  0  0  0  0  3  0  0  0  0  0  0
  159.6570  213.4770  156.4030 C   0  0  0  0  0  2  0  0  0  0  0  0
  160.9630  211.4600  155.9950 C   0  0  0  0  0  2  0  0  0  0  0  0
  160.2180  211.8260  154.8130 N   0  0  0  0  0  0  0  0  0  0  0  0
  160.4670  212.3860  157.0910 C   0  0  0  0  0  2  0  0  0  0  0  0
  159.3610  212.9780  155.0030 C   0  0  0  0  0  2  0  0  0  0  0  0
  1 26  1  0  0  0  0
  1 27  1  0  0  0  0
  2 14  1  0  0  0  0
  4 23  1  0  0  0  0
  4 18  1  0  0  0  0
  5 15  1  0  0  0  0
  5 11  1  0  0  0  0
  6 19  1  0  0  0  0
  7  6  1  0  0  0  0
  7  3  1  0  0  0  0
  8 16  1  0  0  0  0
  8 12  1  0  0  0  0
  9 27  1  0  0  0  0
  9 25  1  0  0  0  0
 10 17  2  0  0  0  0
 11 20  2  0  0  0  0
 12 15  1  0  0  0  0
 13  9  2  0  0  0  0
 15  4  2  0  0  0  0
 16  3  1  0  0  0  0
 17 25  1  0  0  0  0
 17 28  1  0  0  0  0
 18  1  2  0  0  0  0
 19  5  1  0  0  0  0
 20 18  1  0  0  0  0
 20 13  1  0  0  0  0
 21 26  1  0  0  0  0
 22 10  1  0  0  0  0
 23 21  1  0  0  0  0
 24 22  2  0  0  0  0
 24 13  1  0  0  0  0
 25 14  2  0  0  0  0
 27  2  2  0  0  0  0
 28 29  2  0  0  0  0
 29 32  1  0  0  0  0
 30 33  1  0  0  0  0
 31 33  1  0  0  0  0
 32 34  1  0  0  0  0
 32 31  1  0  0  0  0
 34 30  1  0  0  0  0
M  END
>  <MODEL>
3

>  <REMARK>
 VINA RESULT:      -7.6      2.626      9.819
  Name = 
  2 active torsions:
  status: ('A' for Active; 'I' for Inactive)
    1  A    between atoms: C_17  and  C_28
    2  A    between atoms: C_29  and  N_32
                            x       y       z     vdW  Elec       q    Type
                         _______ _______ _______ _____ _____    ______ ____

>  <TORSDO>
F 2

$$$$
=
 OpenBabel11122414333D

 34 40  0  0  0  0  0  0  0  0999 V2000
  161.6480  208.2840  151.0600 C   0  0  0  0  0  0  0  0  0  0  0  0
  162.3750  208.7810  148.6410 C   0  0  0  0  0  3  0  0  0  0  0  0
  162.2570  209.3690  156.4780 O   0  0  0  0  0  0  0  0  0  0  0  0
  160.8770  207.8850  153.4080 C   0  0  0  0  0  0  0  0  0  0  0  0
  160.0210  209.7750  154.6270 N   0  0  0  0  0  0  0  0  0  0  0  0
  160.7590  211.2510  156.4440 C   0  0  0  0  0  2  0  0  0  0  0  0
  161.7360  210.4100  157.2600 C   0  0  0  0  0  2  0  0  0  0  0  0
  160.4660  207.8360  157.0660 C   0  0  0  0  0  2  0  0  0  0  0  0
  161.4590  210.4790  150.0410 C   0  0  0  0  0  0  0  0  0  0  0  0
  161.0630  213.4150  149.1040 C   0  0  0  0  0  3  0  0  0  0  0  0
  160.2020  210.6220  153.4830 C   0  0  0  0  0  3  0  0  0  0  0  0
  160.0180  207.4060  155.6720 C   0  0  0  0  0  2  0  0  0  0  0  0
  160.9010  211.0300  151.2090 C   0  0  0  0  0  0  0  0  0  0  0  0
  162.3250  210.0330  147.9000 N   0  0  0  0  0  0  0  0  0  0  0  0
  160.3480  208.3670  154.5490 C   0  0  0  0  0  0  0  0  0  0  0  0
  161.9560  208.1790  157.1600 C   0  0  0  0  0  2  0  0  0  0  0  0
  161.6190  212.3130  148.2990 C   0  0  0  0  0  0  0  0  0  0  0  0
  161.0790  208.7940  152.2450 C   0  0  0  0  0  0  0  0  0  0  0  0
  159.6110  210.4170  155.8730 C   0  0  0  0  0  2  0  0  0  0  0  0
  160.7150  210.1620  152.3290 C   0  0  0  0  0  0  0  0  0  0  0  0
  162.3470  206.2160  152.2800 C   0  0  0  0  0  2  0  0  0  0  0  0
  160.6180  213.4180  150.3540 C   0  0  0  0  0  3  0  0  0  0  0  0
  161.1940  206.4180  153.2550 C   0  0  0  0  0  2  0  0  0  0  0  0
  160.5430  212.3180  151.3200 C   0  0  0  0  0  3  0  0  0  0  0  0
  161.7770  211.0540  148.7350 C   0  0  0  0  0  0  0  0  0  0  0  0
  161.9940  206.8260  150.9280 C   0  0  0  0  0  2  0  0  0  0  0  0
  161.8160  209.1440  149.9770 C   0  0  0  0  0  0  0  0  0  0  0  0
  162.0320  212.6200  146.9140 C   0  0  0  0  0  3  0  0  0  0  0  0
  161.1710  212.9260  145.9450 C   0  0  0  0  0  3  0  0  0  0  0  0
  161.6380  213.5830  142.2850 C   0  0  0  0  0  2  0  0  0  0  0  0
  163.0100  213.3270  144.2830 C   0  0  0  0  0  2  0  0  0  0  0  0
  161.6090  213.2170  144.6160 N   0  0  0  0  0  0  0  0  0  0  0  0
  163.0490  213.7610  142.8300 C   0  0  0  0  0  2  0  0  0  0  0  0
  160.7270  213.4300  143.4870 C   0  0  0  0  0  2  0  0  0  0  0  0
  1 18  2  0  0  0  0
  2 27  1  0  0  0  0
  3 16  1  0  0  0  0
  3  7  1  0  0  0  0
  4 15  2  0  0  0  0
  5 19  1  0  0  0  0
  6  7  1  0  0  0  0
  8 16  1  0  0  0  0
  9 13  1  0  0  0  0
 10 22  2  0  0  0  0
 11  5  1  0  0  0  0
 12  8  1  0  0  0  0
 13 24  2  0  0  0  0
 13 20  1  0  0  0  0
 14  2  2  0  0  0  0
 14 25  1  0  0  0  0
 15  5  1  0  0  0  0
 15 12  1  0  0  0  0
 17 25  2  0  0  0  0
 17 10  1  0  0  0  0
 18 20  1  0  0  0  0
 18  4  1  0  0  0  0
 19  6  1  0  0  0  0
 20 11  2  0  0  0  0
 21 23  1  0  0  0  0
 22 24  1  0  0  0  0
 23  4  1  0  0  0  0
 25  9  1  0  0  0  0
 26  1  1  0  0  0  0
 26 21  1  0  0  0  0
 27  9  2  0  0  0  0
 27  1  1  0  0  0  0
 28 17  1  0  0  0  0
 29 28  2  0  0  0  0
 30 33  1  0  0  0  0
 30 34  1  0  0  0  0
 31 32  1  0  0  0  0
 32 29  1  0  0  0  0
 33 31  1  0  0  0  0
 34 32  1  0  0  0  0
M  END
>  <MODEL>
4

>  <REMARK>
 VINA RESULT:      -7.1      4.260      7.488
  Name = 
  2 active torsions:
  status: ('A' for Active; 'I' for Inactive)
    1  A    between atoms: C_17  and  C_28
    2  A    between atoms: C_29  and  N_32
                            x       y       z     vdW  Elec       q    Type
                         _______ _______ _______ _____ _____    ______ ____

>  <TORSDO>
F 2

$$$$
