=
 OpenBabel11122413163D

 31 35  0  0  1  0  0  0  0  0999 V2000
  160.4870  207.3660  155.7700 C   0  0  0  0  0  0  0  0  0  0  0  0
  162.0070  208.8470  152.6090 C   0  0  2  0  0  3  0  0  0  0  0  0
  161.5640  207.9990  151.4280 C   0  0  0  0  0  0  0  0  0  0  0  0
  158.2410  212.5800  152.0830 O   0  0  0  0  0  0  0  0  0  0  0  0
  159.2230  212.8750  151.3520 C   0  0  0  0  0  0  0  0  0  0  0  0
  160.7370  205.8980  150.5230 C   0  0  0  0  0  0  0  0  0  0  0  0
  161.1260  208.6460  153.8140 C   0  0  0  0  0  0  0  0  0  0  0  0
  159.3800  208.2010  155.9550 C   0  0  0  0  0  3  0  0  0  0  0  0
  161.1230  206.6800  151.6150 C   0  0  0  0  0  3  0  0  0  0  0  0
  160.7030  211.0030  152.2770 C   0  0  0  0  0  0  0  0  0  0  0  0
  160.7090  206.3380  156.6220 F   0  0  0  0  0  0  0  0  0  0  0  0
  162.1430  209.8000  149.8890 O   0  0  0  0  0  0  0  0  0  0  0  0
  160.2580  204.5080  150.7380 C   0  0  0  0  0  1  0  0  0  0  0  0
  159.8070  210.6060  153.1340 N   0  0  0  0  0  0  0  0  0  0  0  0
  162.0730  210.3510  152.2520 C   0  0  2  0  0  3  0  0  0  0  0  0
  160.4490  212.1350  151.4330 N   0  0  0  0  0  2  0  0  0  0  0  0
  161.3550  207.5840  154.6970 C   0  0  0  0  0  3  0  0  0  0  0  0
  160.8000  206.4230  149.2310 C   0  0  0  0  0  3  0  0  0  0  0  0
  160.0220  209.4930  154.0120 C   0  0  0  0  0  0  0  0  0  0  0  0
  159.1470  209.2650  155.0780 C   0  0  0  0  0  3  0  0  0  0  0  0
  162.7890  210.5460  150.9160 C   0  0  0  0  0  2  0  0  0  0  0  0
  161.6610  208.5080  150.1150 C   0  0  0  0  0  0  0  0  0  0  0  0
  161.2630  207.7250  149.0270 C   0  0  0  0  0  3  0  0  0  0  0  0
  157.8620  213.2420  147.8320 N   0  0  0  0  0  0  0  0  0  0  0  0
  157.6150  214.2770  150.0440 C   0  0  0  0  0  2  0  0  0  0  0  0
  161.2010  213.3840  149.3620 O   0  0  0  0  0  1  0  0  0  0  0  0
  157.2820  212.2370  146.9610 C   0  0  0  0  0  1  0  0  0  0  0  0
  157.0690  213.2390  149.0610 C   0  0  0  0  0  2  0  0  0  0  0  0
  159.8980  213.7960  149.0770 C   0  0  2  0  0  3  0  0  0  0  0  0
  159.0850  214.0000  150.3670 C   0  0  2  0  0  3  0  0  0  0  0  0
  159.2150  212.7900  148.1500 C   0  0  0  0  0  2  0  0  0  0  0  0
  1  8  1  0  0  0  0
  1 11  1  0  0  0  0
  2  3  1  6  0  0  0
  2  7  1  0  0  0  0
  3  9  1  0  0  0  0
  5 16  1  0  0  0  0
  5  4  2  0  0  0  0
  6 13  1  0  0  0  0
  6  9  2  0  0  0  0
  7 19  2  0  0  0  0
  7 17  1  0  0  0  0
 10 14  2  0  0  0  0
 12 22  1  0  0  0  0
 12 21  1  0  0  0  0
 14 19  1  0  0  0  0
 15 21  1  6  0  0  0
 15 10  1  0  0  0  0
 15  2  1  0  0  0  0
 16 10  1  0  0  0  0
 17  1  2  0  0  0  0
 18  6  1  0  0  0  0
 19 20  1  0  0  0  0
 20  8  2  0  0  0  0
 22  3  2  0  0  0  0
 23 18  2  0  0  0  0
 23 22  1  0  0  0  0
 24 31  1  0  0  0  0
 24 28  1  0  0  0  0
 25 30  1  0  0  0  0
 27 24  1  0  0  0  0
 28 25  1  0  0  0  0
 29 26  1  1  0  0  0
 29 30  1  0  0  0  0
 30  5  1  1  0  0  0
 31 29  1  0  0  0  0
M  END
>  <MODEL>
1

>  <REMARK>
 VINA RESULT:      -6.5      0.000      0.000
  Name = 
  1 active torsions:
  status: ('A' for Active; 'I' for Inactive)
    1  A    between atoms: C_5  and  C_30
                            x       y       z     vdW  Elec       q    Type
                         _______ _______ _______ _____ _____    ______ ____

>  <TORSDO>
F 1

$$$$
=
 OpenBabel11122413163D

 31 35  0  0  1  0  0  0  0  0999 V2000
  161.9070  207.3520  137.9270 C   0  0  0  0  0  0  0  0  0  0  0  0
  160.8610  211.0080  137.7360 C   0  0  2  0  0  3  0  0  0  0  0  0
  159.3420  211.0680  137.7500 C   0  0  0  0  0  0  0  0  0  0  0  0
  161.5220  211.8700  142.9530 O   0  0  0  0  0  0  0  0  0  0  0  0
  161.4420  212.9760  142.3560 C   0  0  0  0  0  0  0  0  0  0  0  0
  157.1800  210.0170  137.3820 C   0  0  0  0  0  0  0  0  0  0  0  0
  161.3820  209.6940  138.2570 C   0  0  0  0  0  0  0  0  0  0  0  0
  162.2020  207.2250  139.2880 C   0  0  0  0  0  3  0  0  0  0  0  0
  158.5760  209.9500  137.3880 C   0  0  0  0  0  3  0  0  0  0  0  0
  161.4850  211.9240  140.0230 C   0  0  0  0  0  0  0  0  0  0  0  0
  162.0100  206.2780  137.1090 F   0  0  0  0  0  0  0  0  0  0  0  0
  159.4190  213.4240  138.3770 O   0  0  0  0  0  0  0  0  0  0  0  0
  156.3800  208.8210  137.0110 C   0  0  0  0  0  1  0  0  0  0  0  0
  161.6250  210.7130  140.4810 N   0  0  0  0  0  0  0  0  0  0  0  0
  161.4970  212.1760  138.5270 C   0  0  2  0  0  3  0  0  0  0  0  0
  161.4390  213.0400  140.9230 N   0  0  0  0  0  2  0  0  0  0  0  0
  161.4910  208.5840  137.4130 C   0  0  0  0  0  3  0  0  0  0  0  0
  156.5360  211.2080  137.7280 C   0  0  0  0  0  3  0  0  0  0  0  0
  161.6950  209.5680  139.6220 C   0  0  0  0  0  0  0  0  0  0  0  0
  162.0980  208.3320  140.1360 C   0  0  0  0  0  3  0  0  0  0  0  0
  160.8240  213.4960  138.1510 C   0  0  0  0  0  2  0  0  0  0  0  0
  158.6850  212.2780  138.0600 C   0  0  0  0  0  0  0  0  0  0  0  0
  157.2880  212.3360  138.0640 C   0  0  0  0  0  3  0  0  0  0  0  0
  161.1060  213.8010  146.0410 N   0  0  0  0  0  0  0  0  0  0  0  0
  162.5100  214.3960  144.1190 C   0  0  0  0  0  2  0  0  0  0  0  0
  158.9080  214.0470  143.1060 O   0  0  0  0  0  1  0  0  0  0  0  0
  161.0360  212.9050  147.1810 C   0  0  0  0  0  1  0  0  0  0  0  0
  162.3530  213.4920  145.3430 C   0  0  0  0  0  2  0  0  0  0  0  0
  159.9920  214.3530  143.9310 C   0  0  2  0  0  3  0  0  0  0  0  0
  161.3220  214.2340  143.1670 C   0  0  2  0  0  3  0  0  0  0  0  0
  159.9860  213.4550  145.1680 C   0  0  0  0  0  2  0  0  0  0  0  0
  1  8  1  0  0  0  0
  2  3  1  1  0  0  0
  2  7  1  0  0  0  0
  2 15  1  0  0  0  0
  3 22  1  0  0  0  0
  5  4  2  0  0  0  0
  6  9  1  0  0  0  0
  6 18  2  0  0  0  0
  7 19  2  0  0  0  0
  8 20  2  0  0  0  0
  9  3  2  0  0  0  0
 10 14  2  0  0  0  0
 10 16  1  0  0  0  0
 11  1  1  0  0  0  0
 13  6  1  0  0  0  0
 15 21  1  1  0  0  0
 15 10  1  0  0  0  0
 16  5  1  0  0  0  0
 17  1  2  0  0  0  0
 17  7  1  0  0  0  0
 18 23  1  0  0  0  0
 19 20  1  0  0  0  0
 19 14  1  0  0  0  0
 21 12  1  0  0  0  0
 22 23  2  0  0  0  0
 22 12  1  0  0  0  0
 24 27  1  0  0  0  0
 25 28  1  0  0  0  0
 28 24  1  0  0  0  0
 29 26  1  6  0  0  0
 29 31  1  0  0  0  0
 30  5  1  1  0  0  0
 30 29  1  0  0  0  0
 30 25  1  0  0  0  0
 31 24  1  0  0  0  0
M  END
>  <MODEL>
2

>  <REMARK>
 VINA RESULT:      -5.8      8.960     12.628
  Name = 
  1 active torsions:
  status: ('A' for Active; 'I' for Inactive)
    1  A    between atoms: C_5  and  C_30
                            x       y       z     vdW  Elec       q    Type
                         _______ _______ _______ _____ _____    ______ ____

>  <TORSDO>
F 1

$$$$
=
 OpenBabel11122413163D

 31 35  0  0  1  0  0  0  0  0999 V2000
  162.3320  213.8120  146.9770 C   0  0  0  0  0  0  0  0  0  0  0  0
  159.9350  214.4450  149.8670 C   0  0  2  0  0  3  0  0  0  0  0  0
  158.5190  214.2040  149.3690 C   0  0  0  0  0  0  0  0  0  0  0  0
  160.6270  209.6150  152.0060 O   0  0  0  0  0  0  0  0  0  0  0  0
  160.0760  210.3680  152.8510 C   0  0  0  0  0  0  0  0  0  0  0  0
  156.9130  214.0480  147.5490 C   0  0  0  0  0  0  0  0  0  0  0  0
  160.9660  213.8000  148.9780 C   0  0  0  0  0  0  0  0  0  0  0  0
  162.7620  212.5130  147.2620 C   0  0  0  0  0  3  0  0  0  0  0  0
  158.2210  214.2500  147.9990 C   0  0  0  0  0  3  0  0  0  0  0  0
  160.3350  212.4700  151.4140 C   0  0  0  0  0  0  0  0  0  0  0  0
  162.7780  214.4460  145.8670 F   0  0  0  0  0  0  0  0  0  0  0  0
  157.7230  213.9990  151.6660 O   0  0  0  0  0  0  0  0  0  0  0  0
  156.6150  214.0840  146.0940 C   0  0  0  0  0  1  0  0  0  0  0  0
  160.9720  211.8430  150.4660 N   0  0  0  0  0  0  0  0  0  0  0  0
  160.1270  213.9700  151.3270 C   0  0  2  0  0  3  0  0  0  0  0  0
  159.9310  211.7730  152.6010 N   0  0  0  0  0  2  0  0  0  0  0  0
  161.4300  214.4530  147.8310 C   0  0  0  0  0  3  0  0  0  0  0  0
  155.8870  213.8090  148.4660 C   0  0  0  0  0  3  0  0  0  0  0  0
  161.4120  212.4990  149.2710 C   0  0  0  0  0  0  0  0  0  0  0  0
  162.3040  211.8560  148.4080 C   0  0  0  0  0  3  0  0  0  0  0  0
  158.9660  214.4510  152.1960 C   0  0  0  0  0  2  0  0  0  0  0  0
  157.4700  214.0010  150.2920 C   0  0  0  0  0  0  0  0  0  0  0  0
  156.1650  213.7880  149.8350 C   0  0  0  0  0  3  0  0  0  0  0  0
  161.1250  210.3650  156.4950 N   0  0  0  0  0  0  0  0  0  0  0  0
  159.1490  210.8570  155.1240 C   0  0  0  0  0  2  0  0  0  0  0  0
  160.9800  207.8440  153.8240 O   0  0  0  0  0  1  0  0  0  0  0  0
  162.2750  210.9890  157.1210 C   0  0  0  0  0  1  0  0  0  0  0  0
  160.3880  211.4310  155.8170 C   0  0  0  0  0  2  0  0  0  0  0  0
  160.4890  208.7460  154.7700 C   0  0  2  0  0  3  0  0  0  0  0  0
  159.5410  209.7700  154.1210 C   0  0  2  0  0  3  0  0  0  0  0  0
  161.6460  209.4440  155.4860 C   0  0  0  0  0  2  0  0  0  0  0  0
  1  8  2  0  0  0  0
  1 17  1  0  0  0  0
  2  7  1  6  0  0  0
  2 15  1  0  0  0  0
  3  2  1  0  0  0  0
  3 22  1  0  0  0  0
  4  5  2  0  0  0  0
  6  9  1  0  0  0  0
  6 18  2  0  0  0  0
  7 19  1  0  0  0  0
  8 20  1  0  0  0  0
  9  3  2  0  0  0  0
 10 16  1  0  0  0  0
 11  1  1  0  0  0  0
 12 21  1  0  0  0  0
 13  6  1  0  0  0  0
 14 10  2  0  0  0  0
 15 10  1  0  0  0  0
 15 21  1  1  0  0  0
 16  5  1  0  0  0  0
 17  7  2  0  0  0  0
 18 23  1  0  0  0  0
 19 14  1  0  0  0  0
 20 19  2  0  0  0  0
 22 12  1  0  0  0  0
 23 22  2  0  0  0  0
 24 27  1  0  0  0  0
 25 28  1  0  0  0  0
 28 24  1  0  0  0  0
 29 26  1  6  0  0  0
 29 31  1  0  0  0  0
 30  5  1  6  0  0  0
 30 29  1  0  0  0  0
 30 25  1  0  0  0  0
 31 24  1  0  0  0  0
M  END
>  <MODEL>
3

>  <REMARK>
 VINA RESULT:      -5.3      3.695      7.823
  Name = 
  1 active torsions:
  status: ('A' for Active; 'I' for Inactive)
    1  A    between atoms: C_5  and  C_30
                            x       y       z     vdW  Elec       q    Type
                         _______ _______ _______ _____ _____    ______ ____

>  <TORSDO>
F 1

$$$$
=
 OpenBabel11122413163D

 31 35  0  0  1  0  0  0  0  0999 V2000
  161.6780  206.1690  152.6110 C   0  0  0  0  0  0  0  0  0  0  0  0
  159.8880  209.4450  153.3610 C   0  0  2  0  0  3  0  0  0  0  0  0
  160.6430  210.1530  154.4740 C   0  0  0  0  0  0  0  0  0  0  0  0
  162.1950  212.0720  149.3390 O   0  0  0  0  0  0  0  0  0  0  0  0
  161.2040  212.7310  149.7520 C   0  0  0  0  0  0  0  0  0  0  0  0
  162.1680  210.0920  156.3670 C   0  0  0  0  0  0  0  0  0  0  0  0
  160.7310  208.3980  152.6800 C   0  0  0  0  0  0  0  0  0  0  0  0
  162.4290  206.5220  151.4850 C   0  0  0  0  0  3  0  0  0  0  0  0
  161.4940  209.4400  155.3320 C   0  0  0  0  0  3  0  0  0  0  0  0
  160.4020  210.8810  151.3280 C   0  0  0  0  0  0  0  0  0  0  0  0
  161.7770  204.9210  153.1270 F   0  0  0  0  0  0  0  0  0  0  0  0
  159.5590  212.2600  153.8980 O   0  0  0  0  0  0  0  0  0  0  0  0
  163.0780  209.3270  157.2590 C   0  0  0  0  0  1  0  0  0  0  0  0
  161.3410  210.0530  150.9670 N   0  0  0  0  0  0  0  0  0  0  0  0
  159.3340  210.4370  152.3110 C   0  0  2  0  0  3  0  0  0  0  0  0
  160.2970  212.1720  150.7120 N   0  0  0  0  0  2  0  0  0  0  0  0
  160.8350  207.1080  153.2110 C   0  0  0  0  0  3  0  0  0  0  0  0
  161.9890  211.4630  156.5630 C   0  0  0  0  0  3  0  0  0  0  0  0
  161.4760  208.7460  151.5390 C   0  0  0  0  0  0  0  0  0  0  0  0
  162.3280  207.8090  150.9480 C   0  0  0  0  0  3  0  0  0  0  0  0
  158.6540  211.6160  153.0060 C   0  0  0  0  0  2  0  0  0  0  0  0
  160.4370  211.5300  154.7030 C   0  0  0  0  0  0  0  0  0  0  0  0
  161.1240  212.1800  155.7330 C   0  0  0  0  0  3  0  0  0  0  0  0
  159.6640  214.2900  146.6580 N   0  0  0  0  0  0  0  0  0  0  0  0
  159.5080  214.4530  149.1020 C   0  0  0  0  0  2  0  0  0  0  0  0
  163.0710  213.9890  148.0020 O   0  0  0  0  0  1  0  0  0  0  0  0
  159.0590  213.6450  145.5070 C   0  0  0  0  0  1  0  0  0  0  0  0
  158.9330  213.8180  147.8340 C   0  0  0  0  0  2  0  0  0  0  0  0
  161.7480  214.4300  147.9360 C   0  0  2  0  0  3  0  0  0  0  0  0
  160.9980  214.1290  149.2450 C   0  0  2  0  0  3  0  0  0  0  0  0
  161.0390  213.8010  146.7370 C   0  0  0  0  0  2  0  0  0  0  0  0
  1 11  1  0  0  0  0
  1 17  1  0  0  0  0
  2  7  1  6  0  0  0
  2  3  1  0  0  0  0
  3 22  2  0  0  0  0
  3  9  1  0  0  0  0
  4  5  2  0  0  0  0
  5 16  1  0  0  0  0
  6 18  1  0  0  0  0
  6 13  1  0  0  0  0
  7 17  2  0  0  0  0
  8  1  2  0  0  0  0
  9  6  2  0  0  0  0
 10 15  1  0  0  0  0
 12 22  1  0  0  0  0
 14 10  2  0  0  0  0
 14 19  1  0  0  0  0
 15 21  1  1  0  0  0
 15  2  1  0  0  0  0
 16 10  1  0  0  0  0
 19  7  1  0  0  0  0
 20  8  1  0  0  0  0
 20 19  2  0  0  0  0
 21 12  1  0  0  0  0
 22 23  1  0  0  0  0
 23 18  2  0  0  0  0
 24 31  1  0  0  0  0
 24 28  1  0  0  0  0
 25 30  1  0  0  0  0
 27 24  1  0  0  0  0
 28 25  1  0  0  0  0
 29 26  1  1  0  0  0
 29 30  1  0  0  0  0
 30  5  1  6  0  0  0
 31 29  1  0  0  0  0
M  END
>  <MODEL>
4

>  <REMARK>
 VINA RESULT:      -4.2      2.124      4.369
  Name = 
  1 active torsions:
  status: ('A' for Active; 'I' for Inactive)
    1  A    between atoms: C_5  and  C_30
                            x       y       z     vdW  Elec       q    Type
                         _______ _______ _______ _____ _____    ______ ____

>  <TORSDO>
F 1

$$$$
