=
 OpenBabel11122412583D

 32 37  0  0  1  0  0  0  0  0999 V2000
  158.4910  212.0870  155.7930 C   0  0  0  0  0  2  0  0  0  0  0  0
  162.0120  209.1230  152.9280 N   0  0  1  0  0  0  0  0  0  0  0  0
  162.0590  211.0600  148.3270 C   0  0  0  0  0  2  0  0  0  0  0  0
  162.7880  209.7900  147.9080 C   0  0  0  0  0  2  0  0  0  0  0  0
  161.4740  206.6980  153.2880 C   0  0  2  0  0  3  0  0  0  0  0  0
  161.1380  205.4200  152.5720 C   0  0  0  0  0  0  0  0  0  0  0  0
  160.1270  209.9670  154.3420 C   0  0  2  0  0  3  0  0  0  0  0  0
  160.3660  210.7860  152.1030 C   0  0  0  0  0  2  0  0  0  0  0  0
  160.6150  203.9870  150.9390 N   0  0  0  0  0  0  0  0  0  0  0  0
  158.5210  211.4090  153.3430 C   0  0  0  0  0  2  0  0  0  0  0  0
  162.2730  211.3430  149.8170 C   0  0  0  0  0  2  0  0  0  0  0  0
  161.8280  210.3180  152.0890 C   0  0  2  0  0  3  0  0  0  0  0  0
  162.3480  210.0680  150.6740 C   0  0  1  0  0  3  0  0  0  0  0  0
  161.7220  207.6450  150.9360 C   0  0  2  0  0  3  0  0  0  0  0  0
  160.7410  203.1980  152.1590 C   0  0  0  0  0  2  0  0  0  0  0  0
  158.5020  210.7000  155.9780 O   0  0  0  0  0  0  0  0  0  0  0  0
  159.9510  211.1380  153.4590 N   0  0  1  0  0  0  0  0  0  0  0  0
  161.0510  204.1670  153.1620 O   0  0  0  0  0  0  0  0  0  0  0  0
  159.8390  210.3290  155.8020 C   0  0  0  0  0  2  0  0  0  0  0  0
  158.0600  212.4470  154.3700 C   0  0  1  0  0  3  0  0  0  0  0  0
  162.2370  208.5610  148.6440 C   0  0  0  0  0  2  0  0  0  0  0  0
  161.6350  208.8740  150.0280 C   0  0  2  0  0  3  0  0  0  0  0  0
  160.8860  206.4990  150.3540 C   0  0  0  0  0  2  0  0  0  0  0  0
  161.5790  209.4640  154.2910 C   0  0  0  0  0  2  0  0  0  0  0  0
  160.6800  206.7870  154.4320 O   0  0  0  0  0  1  0  0  0  0  0  0
  160.5790  203.4400  149.5940 C   0  0  0  0  0  1  0  0  0  0  0  0
  161.2730  207.9530  152.3910 C   0  0  2  0  0  3  0  0  0  0  0  0
  160.9180  205.3280  151.2800 C   0  0  0  0  0  0  0  0  0  0  0  0
  156.6110  212.5750  154.3230 N   0  0  0  0  0  2  0  0  0  0  0  0
  155.9510  213.5960  153.5710 C   0  0  0  0  0  0  0  0  0  0  0  0
  156.6140  214.4530  152.9300 O   0  0  0  0  0  0  0  0  0  0  0  0
  154.4660  213.6480  153.5500 C   0  0  0  0  0  1  0  0  0  0  0  0
  1 16  1  0  0  0  0
  2 24  1  1  0  0  0
  3 11  1  0  0  0  0
  4  3  1  0  0  0  0
  4 21  1  0  0  0  0
  5 25  1  1  0  0  0
  6 18  1  0  0  0  0
  6  5  1  0  0  0  0
  7 24  1  1  0  0  0
  7 19  1  0  0  0  0
  9 28  1  0  0  0  0
  9 15  1  0  0  0  0
 10 17  1  0  0  0  0
 10 20  1  0  0  0  0
 12  8  1  6  0  0  0
 12  2  1  0  0  0  0
 13 11  1  6  0  0  0
 13 12  1  0  0  0  0
 14 23  1  6  0  0  0
 14 27  1  0  0  0  0
 15 18  1  0  0  0  0
 17  8  1  6  0  0  0
 17  7  1  0  0  0  0
 19 16  1  0  0  0  0
 20 29  1  1  0  0  0
 20  1  1  0  0  0  0
 22 21  1  6  0  0  0
 22 13  1  0  0  0  0
 22 14  1  0  0  0  0
 23 28  1  0  0  0  0
 26  9  1  0  0  0  0
 27  2  1  0  0  0  0
 27  5  1  0  0  0  0
 28  6  2  0  0  0  0
 30 29  1  0  0  0  0
 31 30  2  0  0  0  0
 32 30  1  0  0  0  0
M  END
>  <MODEL>
1

>  <REMARK>
 VINA RESULT:      -6.3      0.000      0.000
  Name = 
  1 active torsions:
  status: ('A' for Active; 'I' for Inactive)
    1  A    between atoms: C_20  and  N_29
                            x       y       z     vdW  Elec       q    Type
                         _______ _______ _______ _____ _____    ______ ____

>  <TORSDO>
F 1

$$$$
=
 OpenBabel11122412583D

 32 37  0  0  1  0  0  0  0  0999 V2000
  162.5420  207.7040  148.3490 C   0  0  0  0  0  2  0  0  0  0  0  0
  161.5670  210.6300  152.8080 N   0  0  1  0  0  0  0  0  0  0  0  0
  160.5300  207.3590  156.4340 C   0  0  0  0  0  2  0  0  0  0  0  0
  160.0150  208.5540  157.2260 C   0  0  0  0  0  2  0  0  0  0  0  0
  159.9350  212.4440  152.2170 C   0  0  2  0  0  3  0  0  0  0  0  0
  158.6020  213.0290  152.5850 C   0  0  0  0  0  0  0  0  0  0  0  0
  161.5810  209.6090  150.5230 C   0  0  2  0  0  3  0  0  0  0  0  0
  161.1370  208.2180  152.4220 C   0  0  0  0  0  2  0  0  0  0  0  0
  156.6090  213.3010  153.5600 N   0  0  0  0  0  0  0  0  0  0  0  0
  160.9570  207.3250  150.3000 C   0  0  0  0  0  2  0  0  0  0  0  0
  161.5610  207.8020  155.3920 C   0  0  0  0  0  2  0  0  0  0  0  0
  161.7670  209.2730  153.3410 C   0  0  2  0  0  3  0  0  0  0  0  0
  161.2530  209.1790  154.7770 C   0  0  1  0  0  3  0  0  0  0  0  0
  159.5190  210.9110  154.2090 C   0  0  2  0  0  3  0  0  0  0  0  0
  156.8040  214.4520  152.6870 C   0  0  0  0  0  2  0  0  0  0  0  0
  161.7990  208.8830  148.2240 O   0  0  0  0  0  0  0  0  0  0  0  0
  161.7490  208.2590  151.0950 N   0  0  1  0  0  0  0  0  0  0  0  0
  158.0740  214.2100  152.0800 O   0  0  0  0  0  0  0  0  0  0  0  0
  162.3300  209.7420  149.1930 C   0  0  0  0  0  2  0  0  0  0  0  0
  161.7960  206.6730  149.1970 C   0  0  1  0  0  3  0  0  0  0  0  0
  159.2830  209.5520  156.3200 C   0  0  0  0  0  2  0  0  0  0  0  0
  159.7680  209.5460  154.8570 C   0  0  2  0  0  3  0  0  0  0  0  0
  158.0160  211.2070  154.1620 C   0  0  0  0  0  2  0  0  0  0  0  0
  162.1660  210.6740  151.4650 C   0  0  0  0  0  2  0  0  0  0  0  0
  160.0470  212.4330  150.8260 O   0  0  0  0  0  1  0  0  0  0  0  0
  155.6000  213.2070  154.6010 C   0  0  0  0  0  1  0  0  0  0  0  0
  160.1320  211.0080  152.7850 C   0  0  2  0  0  3  0  0  0  0  0  0
  157.7780  212.5070  153.4650 C   0  0  0  0  0  0  0  0  0  0  0  0
  160.9390  205.8710  148.3370 N   0  0  0  0  0  2  0  0  0  0  0  0
  161.4560  204.9990  147.3300 C   0  0  0  0  0  0  0  0  0  0  0  0
  162.6960  204.9110  147.1290 O   0  0  0  0  0  0  0  0  0  0  0  0
  160.5180  204.1910  146.5060 C   0  0  0  0  0  1  0  0  0  0  0  0
  1 20  1  0  0  0  0
  2 24  1  6  0  0  0
  2 12  1  0  0  0  0
  3  4  1  0  0  0  0
  5 25  1  6  0  0  0
  5  6  1  0  0  0  0
  5 27  1  0  0  0  0
  6 28  2  0  0  0  0
  7 19  1  6  0  0  0
  7 17  1  0  0  0  0
  7 24  1  0  0  0  0
  9 26  1  0  0  0  0
 11  3  1  0  0  0  0
 12  8  1  6  0  0  0
 12 13  1  0  0  0  0
 13 22  1  0  0  0  0
 13 11  1  6  0  0  0
 14 23  1  6  0  0  0
 14 22  1  0  0  0  0
 15  9  1  0  0  0  0
 16  1  1  0  0  0  0
 16 19  1  0  0  0  0
 17 10  1  6  0  0  0
 17  8  1  0  0  0  0
 18  6  1  0  0  0  0
 18 15  1  0  0  0  0
 20 29  1  6  0  0  0
 20 10  1  0  0  0  0
 21  4  1  0  0  0  0
 22 21  1  1  0  0  0
 27  2  1  0  0  0  0
 27 14  1  0  0  0  0
 28  9  1  0  0  0  0
 28 23  1  0  0  0  0
 30 29  1  0  0  0  0
 31 30  2  0  0  0  0
 32 30  1  0  0  0  0
M  END
>  <MODEL>
2

>  <REMARK>
 VINA RESULT:      -5.8      2.507      8.095
  Name = 
  1 active torsions:
  status: ('A' for Active; 'I' for Inactive)
    1  A    between atoms: C_20  and  N_29
                            x       y       z     vdW  Elec       q    Type
                         _______ _______ _______ _____ _____    ______ ____

>  <TORSDO>
F 1

$$$$
=
 OpenBabel11122412583D

 32 37  0  0  1  0  0  0  0  0999 V2000
  162.4980  206.6710  148.8400 C   0  0  0  0  0  2  0  0  0  0  0  0
  161.6570  210.6030  152.4780 N   0  0  1  0  0  0  0  0  0  0  0  0
  160.5360  208.3210  156.7740 C   0  0  0  0  0  2  0  0  0  0  0  0
  160.0680  209.6870  157.2610 C   0  0  0  0  0  2  0  0  0  0  0  0
  160.0850  212.2810  151.4730 C   0  0  2  0  0  3  0  0  0  0  0  0
  158.7750  212.9830  151.6910 C   0  0  0  0  0  0  0  0  0  0  0  0
  161.6190  209.0700  150.4990 C   0  0  2  0  0  3  0  0  0  0  0  0
  161.1410  208.1840  152.6740 C   0  0  0  0  0  2  0  0  0  0  0  0
  156.8000  213.5490  152.5720 N   0  0  0  0  0  0  0  0  0  0  0  0
  160.9150  206.8210  150.8240 C   0  0  0  0  0  2  0  0  0  0  0  0
  161.5740  208.4680  155.6580 C   0  0  0  0  0  2  0  0  0  0  0  0
  161.8140  209.4040  153.3180 C   0  0  2  0  0  3  0  0  0  0  0  0
  161.3090  209.6700  154.7340 C   0  0  1  0  0  3  0  0  0  0  0  0
  159.6310  211.2790  153.7710 C   0  0  2  0  0  3  0  0  0  0  0  0
  157.0290  214.4530  151.4520 C   0  0  0  0  0  2  0  0  0  0  0  0
  161.7950  207.8130  148.4380 O   0  0  0  0  0  0  0  0  0  0  0  0
  161.7450  207.8880  151.3750 N   0  0  1  0  0  0  0  0  0  0  0  0
  158.2850  214.0290  150.9210 O   0  0  0  0  0  0  0  0  0  0  0  0
  162.3620  208.8570  149.1770 C   0  0  0  0  0  2  0  0  0  0  0  0
  161.7230  205.8970  149.9070 C   0  0  1  0  0  3  0  0  0  0  0  0
  159.3640  210.4670  156.1430 C   0  0  0  0  0  2  0  0  0  0  0  0
  159.8370  210.0980  154.7240 C   0  0  2  0  0  3  0  0  0  0  0  0
  158.1390  211.6080  153.6540 C   0  0  0  0  0  2  0  0  0  0  0  0
  162.2470  210.3060  151.1630 C   0  0  0  0  0  2  0  0  0  0  0  0
  160.1850  211.9380  150.1240 O   0  0  0  0  0  1  0  0  0  0  0  0
  155.7970  213.7390  153.6050 C   0  0  0  0  0  1  0  0  0  0  0  0
  160.2370  211.0150  152.3650 C   0  0  2  0  0  3  0  0  0  0  0  0
  157.9400  212.7140  152.6690 C   0  0  0  0  0  0  0  0  0  0  0  0
  160.8320  204.9450  149.2610 N   0  0  0  0  0  2  0  0  0  0  0  0
  160.8100  203.5570  149.6000 C   0  0  0  0  0  0  0  0  0  0  0  0
  161.5940  203.0940  150.4700 O   0  0  0  0  0  0  0  0  0  0  0  0
  159.8540  202.6480  148.9140 C   0  0  0  0  0  1  0  0  0  0  0  0
  1 20  1  0  0  0  0
  2 24  1  6  0  0  0
  2 12  1  0  0  0  0
  3  4  1  0  0  0  0
  5 25  1  6  0  0  0
  5  6  1  0  0  0  0
  5 27  1  0  0  0  0
  6 28  2  0  0  0  0
  7 19  1  6  0  0  0
  7 24  1  0  0  0  0
  7 17  1  0  0  0  0
  9 28  1  0  0  0  0
  9 26  1  0  0  0  0
 11  3  1  0  0  0  0
 12  8  1  6  0  0  0
 12 13  1  0  0  0  0
 13 11  1  1  0  0  0
 14 23  1  6  0  0  0
 14 22  1  0  0  0  0
 15  9  1  0  0  0  0
 16  1  1  0  0  0  0
 16 19  1  0  0  0  0
 17 10  1  6  0  0  0
 17  8  1  0  0  0  0
 18 15  1  0  0  0  0
 18  6  1  0  0  0  0
 20 29  1  6  0  0  0
 20 10  1  0  0  0  0
 21  4  1  0  0  0  0
 22 13  1  0  0  0  0
 22 21  1  1  0  0  0
 27  2  1  0  0  0  0
 27 14  1  0  0  0  0
 28 23  1  0  0  0  0
 29 30  1  0  0  0  0
 30 31  2  0  0  0  0
 32 30  1  0  0  0  0
M  END
>  <MODEL>
3

>  <REMARK>
 VINA RESULT:      -5.5      2.069      8.085
  Name = 
  1 active torsions:
  status: ('A' for Active; 'I' for Inactive)
    1  A    between atoms: C_20  and  N_29
                            x       y       z     vdW  Elec       q    Type
                         _______ _______ _______ _____ _____    ______ ____

>  <TORSDO>
F 1

$$$$
=
 OpenBabel11122412583D

 32 37  0  0  1  0  0  0  0  0999 V2000
  159.4440  210.1110  156.6930 C   0  0  0  0  0  2  0  0  0  0  0  0
  162.4560  208.0820  152.6670 N   0  0  1  0  0  0  0  0  0  0  0  0
  161.5600  210.9360  148.6700 C   0  0  0  0  0  2  0  0  0  0  0  0
  162.2390  209.8390  147.8600 C   0  0  0  0  0  2  0  0  0  0  0  0
  162.0810  205.6020  152.5780 C   0  0  2  0  0  3  0  0  0  0  0  0
  161.6600  204.4810  151.6710 C   0  0  0  0  0  0  0  0  0  0  0  0
  160.8470  208.4690  154.5440 C   0  0  2  0  0  3  0  0  0  0  0  0
  160.6270  209.7530  152.5340 C   0  0  0  0  0  2  0  0  0  0  0  0
  160.8850  203.3850  149.8840 N   0  0  0  0  0  0  0  0  0  0  0  0
  159.0310  209.9630  154.1890 C   0  0  0  0  0  2  0  0  0  0  0  0
  162.0430  210.9170  150.1230 C   0  0  0  0  0  2  0  0  0  0  0  0
  162.0740  209.4100  152.1570 C   0  0  2  0  0  3  0  0  0  0  0  0
  162.3240  209.4990  150.6530 C   0  0  1  0  0  3  0  0  0  0  0  0
  161.8440  207.0360  150.4840 C   0  0  2  0  0  3  0  0  0  0  0  0
  161.2690  202.3710  150.8580 C   0  0  0  0  0  2  0  0  0  0  0  0
  159.5380  208.7210  156.5650 O   0  0  0  0  0  0  0  0  0  0  0  0
  160.4650  209.7820  153.9860 N   0  0  1  0  0  0  0  0  0  0  0  0
  161.7300  203.1290  151.9770 O   0  0  0  0  0  0  0  0  0  0  0  0
  160.8300  208.4960  156.0760 C   0  0  0  0  0  2  0  0  0  0  0  0
  158.7380  210.7270  155.4840 C   0  0  1  0  0  3  0  0  0  0  0  0
  161.8820  208.4460  148.3950 C   0  0  0  0  0  2  0  0  0  0  0  0
  161.5430  208.4170  149.8980 C   0  0  2  0  0  3  0  0  0  0  0  0
  160.9530  205.9770  149.8240 C   0  0  0  0  0  2  0  0  0  0  0  0
  162.2790  208.0980  154.1270 C   0  0  0  0  0  2  0  0  0  0  0  0
  161.5160  205.3920  153.8360 O   0  0  0  0  0  1  0  0  0  0  0  0
  160.6130  203.1300  148.4790 C   0  0  0  0  0  1  0  0  0  0  0  0
  161.6700  206.9990  152.0280 C   0  0  2  0  0  3  0  0  0  0  0  0
  161.2010  204.6440  150.4510 C   0  0  0  0  0  0  0  0  0  0  0  0
  157.3030  210.7530  155.7250 N   0  0  0  0  0  2  0  0  0  0  0  0
  156.6760  211.7410  156.5450 C   0  0  0  0  0  0  0  0  0  0  0  0
  157.3600  212.6280  157.1210 O   0  0  0  0  0  0  0  0  0  0  0  0
  155.2010  211.7180  156.7250 C   0  0  0  0  0  1  0  0  0  0  0  0
  2 24  1  1  0  0  0
  3 11  1  0  0  0  0
  4 21  1  0  0  0  0
  4  3  1  0  0  0  0
  5 25  1  1  0  0  0
  6 18  1  0  0  0  0
  6  5  1  0  0  0  0
  7 24  1  1  0  0  0
  7 19  1  0  0  0  0
  9 28  1  0  0  0  0
  9 15  1  0  0  0  0
 10 20  1  0  0  0  0
 12  8  1  6  0  0  0
 12  2  1  0  0  0  0
 13 11  1  6  0  0  0
 13 12  1  0  0  0  0
 14 23  1  6  0  0  0
 14 27  1  0  0  0  0
 15 18  1  0  0  0  0
 16  1  1  0  0  0  0
 17  8  1  6  0  0  0
 17 10  1  0  0  0  0
 17  7  1  0  0  0  0
 19 16  1  0  0  0  0
 20 29  1  1  0  0  0
 20  1  1  0  0  0  0
 22 21  1  6  0  0  0
 22 14  1  0  0  0  0
 22 13  1  0  0  0  0
 23 28  1  0  0  0  0
 26  9  1  0  0  0  0
 27  5  1  0  0  0  0
 27  2  1  0  0  0  0
 28  6  2  0  0  0  0
 29 30  1  0  0  0  0
 30 32  1  0  0  0  0
 30 31  2  0  0  0  0
M  END
>  <MODEL>
4

>  <REMARK>
 VINA RESULT:      -3.9      1.749      1.850
  Name = 
  1 active torsions:
  status: ('A' for Active; 'I' for Inactive)
    1  A    between atoms: C_20  and  N_29
                            x       y       z     vdW  Elec       q    Type
                         _______ _______ _______ _____ _____    ______ ____

>  <TORSDO>
F 1

$$$$
