=
 OpenBabel11122413433D

 37 43  0  0  1  0  0  0  0  0999 V2000
  161.5990  205.0790  145.8140 C   0  0  0  0  0  0  0  0  0  0  0  0
  161.1580  205.2210  149.9400 C   0  0  0  0  0  0  0  0  0  0  0  0
  161.0320  208.6590  151.5650 O   0  0  0  0  0  0  0  0  0  0  0  0
  161.2140  203.8150  147.9970 C   0  0  0  0  0  0  0  0  0  0  0  0
  161.4710  206.5600  150.2010 C   0  0  0  0  0  0  0  0  0  0  0  0
  161.4370  205.0110  148.6350 C   0  0  0  0  0  0  0  0  0  0  0  0
  161.2510  207.2680  151.5320 C   0  0  0  0  0  0  0  0  0  0  0  0
  160.7250  202.7780  148.7370 N   0  0  0  0  0  0  0  0  0  0  0  0
  161.8870  206.1510  148.0800 C   0  0  0  0  0  0  0  0  0  0  0  0
  160.1700  205.4810  145.4910 C   0  0  0  0  0  1  0  0  0  0  0  0
  160.3640  204.3370  152.1670 C   0  0  0  0  0  2  0  0  0  0  0  0
  160.4390  202.9320  150.0730 C   0  0  0  0  0  3  0  0  0  0  0  0
  162.2780  206.2170  146.6310 C   0  0  0  0  0  2  0  0  0  0  0  0
  161.9300  210.6510  150.3690 C   0  0  1  0  0  3  0  0  0  0  0  0
  161.0780  209.4150  150.3780 C   0  0  1  0  0  3  0  0  0  0  0  0
  160.6510  204.1740  150.7170 C   0  0  0  0  0  0  0  0  0  0  0  0
  161.9350  207.1240  149.0190 N   0  0  0  0  0  0  0  0  0  0  0  0
  161.5910  203.7000  146.5410 C   0  0  0  0  0  2  0  0  0  0  0  0
  161.2360  206.6040  152.7180 C   0  0  0  0  0  0  0  0  0  0  0  0
  162.3480  204.9220  144.5080 C   0  0  0  0  0  1  0  0  0  0  0  0
  162.5350  209.3050  149.9600 C   0  0  1  0  0  3  0  0  0  0  0  0
  162.3320  208.5090  148.6980 C   0  0  0  0  0  2  0  0  0  0  0  0
  161.4870  205.1250  152.8170 C   0  0  0  0  0  2  0  0  0  0  0  0
  160.2980  206.6730  155.0350 C   0  0  0  0  0  3  0  0  0  0  0  0
  161.0060  207.3100  154.0030 C   0  0  0  0  0  0  0  0  0  0  0  0
  161.5320  208.5930  154.2330 C   0  0  0  0  0  3  0  0  0  0  0  0
  161.9870  210.8340  155.7240 Cl  0  0  0  0  0  0  0  0  0  0  0  0
  160.6160  208.5930  156.4730 C   0  0  0  0  0  3  0  0  0  0  0  0
  161.3330  209.2330  155.4590 C   0  0  0  0  0  0  0  0  0  0  0  0
  160.0990  207.3130  156.2620 C   0  0  0  0  0  3  0  0  0  0  0  0
  161.5800  211.6140  149.2180 C   0  0  2  0  0  3  0  0  0  0  0  0
  162.6830  212.1540  148.5490 O   0  0  0  0  0  1  0  0  0  0  0  0
  159.5610  212.9920  147.6470 O   0  0  0  0  0  0  0  0  0  0  0  0
  159.7250  213.3350  148.8470 C   0  0  0  0  0  0  0  0  0  0  0  0
  160.6850  212.6720  149.6750 N   0  0  0  0  0  2  0  0  0  0  0  0
  157.7860  213.9500  150.0160 F   0  0  0  0  0  0  0  0  0  0  0  0
  158.9240  214.4530  149.4100 C   0  0  0  0  0  2  0  0  0  0  0  0
  1 18  1  0  0  0  0
  1 13  1  0  0  0  0
  2  5  2  0  0  0  0
  2 16  1  0  0  0  0
  4  6  1  0  0  0  0
  4  8  2  0  0  0  0
  5  7  1  0  0  0  0
  6  2  1  0  0  0  0
  7  3  1  0  0  0  0
  7 19  2  0  0  0  0
  8 12  1  0  0  0  0
  9  6  2  0  0  0  0
  9 17  1  0  0  0  0
 10  1  1  0  0  0  0
 11 23  1  0  0  0  0
 12 16  2  0  0  0  0
 13  9  1  0  0  0  0
 14 31  1  6  0  0  0
 14 15  1  0  0  0  0
 15  3  1  1  0  0  0
 16 11  1  0  0  0  0
 17  5  1  0  0  0  0
 18  4  1  0  0  0  0
 19 23  1  0  0  0  0
 19 25  1  0  0  0  0
 20  1  1  0  0  0  0
 21 22  1  6  0  0  0
 21 14  1  0  0  0  0
 21 15  1  0  0  0  0
 22 17  1  0  0  0  0
 24 30  1  0  0  0  0
 25 26  1  0  0  0  0
 25 24  2  0  0  0  0
 26 29  2  0  0  0  0
 29 27  1  0  0  0  0
 29 28  1  0  0  0  0
 30 28  2  0  0  0  0
 31 32  1  1  0  0  0
 31 35  1  0  0  0  0
 33 34  2  0  0  0  0
 34 37  1  0  0  0  0
 34 35  1  0  0  0  0
 37 36  1  0  0  0  0
M  END
>  <MODEL>
1

>  <REMARK>
 VINA RESULT:      -9.5      0.000      0.000
  Name = 
  4 active torsions:
  status: ('A' for Active; 'I' for Inactive)
    1  A    between atoms: C_4  and  C_37
    2  A    between atoms: C_8  and  N_12
    3  A    between atoms: C_8  and  C_18
    4  A    between atoms: C_23  and  C_30
                            x       y       z     vdW  Elec       q    Type
                         _______ _______ _______ _____ _____    ______ ____

>  <TORSDO>
F 4

$$$$
=
 OpenBabel11122413433D

 37 43  0  0  1  0  0  0  0  0999 V2000
  161.4440  210.5890  155.1760 C   0  0  0  0  0  0  0  0  0  0  0  0
  161.2280  207.7250  152.1780 C   0  0  0  0  0  0  0  0  0  0  0  0
  162.0090  208.8510  148.6290 O   0  0  0  0  0  0  0  0  0  0  0  0
  161.1130  208.1420  154.5380 C   0  0  0  0  0  0  0  0  0  0  0  0
  161.2490  208.5290  151.0320 C   0  0  0  0  0  0  0  0  0  0  0  0
  161.1200  208.5650  153.2320 C   0  0  0  0  0  0  0  0  0  0  0  0
  161.4320  208.0190  149.6090 C   0  0  0  0  0  0  0  0  0  0  0  0
  161.1770  206.7990  154.7760 N   0  0  0  0  0  0  0  0  0  0  0  0
  161.0910  209.8370  152.7940 C   0  0  0  0  0  0  0  0  0  0  0  0
  162.9620  210.6410  155.2340 C   0  0  0  0  0  1  0  0  0  0  0  0
  161.3800  205.3740  151.2750 C   0  0  0  0  0  2  0  0  0  0  0  0
  161.2730  205.8990  153.7400 C   0  0  0  0  0  3  0  0  0  0  0  0
  160.9740  210.9920  153.7480 C   0  0  0  0  0  2  0  0  0  0  0  0
  161.8890  211.2620  148.0170 C   0  0  1  0  0  3  0  0  0  0  0  0
  162.3630  210.1780  148.9400 C   0  0  1  0  0  3  0  0  0  0  0  0
  161.3000  206.3460  152.3970 C   0  0  0  0  0  0  0  0  0  0  0  0
  161.1540  209.8540  151.4430 N   0  0  0  0  0  0  0  0  0  0  0  0
  160.9620  209.1770  155.6250 C   0  0  0  0  0  2  0  0  0  0  0  0
  161.0740  206.7630  149.2310 C   0  0  0  0  0  0  0  0  0  0  0  0
  160.9050  211.6080  156.1570 C   0  0  0  0  0  1  0  0  0  0  0  0
  161.0180  210.8360  149.2030 C   0  0  1  0  0  3  0  0  0  0  0  0
  161.2030  211.1110  150.6720 C   0  0  0  0  0  2  0  0  0  0  0  0
  160.4200  205.7930  150.1760 C   0  0  0  0  0  2  0  0  0  0  0  0
  160.3180  206.5810  146.8550 C   0  0  0  0  0  3  0  0  0  0  0  0
  161.2720  206.2820  147.8410 C   0  0  0  0  0  0  0  0  0  0  0  0
  162.4280  205.5720  147.4740 C   0  0  0  0  0  3  0  0  0  0  0  0
  164.0550  204.2620  145.7170 Cl  0  0  0  0  0  0  0  0  0  0  0  0
  161.6510  205.4460  145.1850 C   0  0  0  0  0  3  0  0  0  0  0  0
  162.6140  205.1520  146.1540 C   0  0  0  0  0  0  0  0  0  0  0  0
  160.5030  206.1620  145.5340 C   0  0  0  0  0  3  0  0  0  0  0  0
  162.6680  212.5810  148.1890 C   0  0  2  0  0  3  0  0  0  0  0  0
  161.9410  213.6200  148.7770 O   0  0  0  0  0  1  0  0  0  0  0  0
  161.2360  213.2980  145.7630 O   0  0  0  0  0  0  0  0  0  0  0  0
  162.4950  213.3270  145.7480 C   0  0  0  0  0  0  0  0  0  0  0  0
  163.2510  213.0110  146.9220 N   0  0  0  0  0  2  0  0  0  0  0  0
  163.1000  212.6370  143.5890 F   0  0  0  0  0  0  0  0  0  0  0  0
  163.2100  213.6790  144.4930 C   0  0  0  0  0  2  0  0  0  0  0  0
  1 10  1  0  0  0  0
  1 18  1  0  0  0  0
  1 20  1  0  0  0  0
  2 16  1  0  0  0  0
  2  6  1  0  0  0  0
  3  7  1  0  0  0  0
  4  8  2  0  0  0  0
  4 18  1  0  0  0  0
  5 17  1  0  0  0  0
  5  2  2  0  0  0  0
  6  4  1  0  0  0  0
  7  5  1  0  0  0  0
  9  6  2  0  0  0  0
  9 13  1  0  0  0  0
 11 16  1  0  0  0  0
 12  8  1  0  0  0  0
 13  1  1  0  0  0  0
 14 31  1  1  0  0  0
 14 15  1  0  0  0  0
 14 21  1  0  0  0  0
 15  3  1  6  0  0  0
 15 21  1  0  0  0  0
 16 12  2  0  0  0  0
 17  9  1  0  0  0  0
 19  7  2  0  0  0  0
 19 23  1  0  0  0  0
 21 22  1  1  0  0  0
 22 17  1  0  0  0  0
 23 11  1  0  0  0  0
 24 25  1  0  0  0  0
 25 19  1  0  0  0  0
 26 25  2  0  0  0  0
 27 29  1  0  0  0  0
 28 30  1  0  0  0  0
 28 29  2  0  0  0  0
 29 26  1  0  0  0  0
 30 24  2  0  0  0  0
 31 32  1  6  0  0  0
 34 33  2  0  0  0  0
 34 35  1  0  0  0  0
 35 31  1  0  0  0  0
 36 37  1  0  0  0  0
 37 34  1  0  0  0  0
M  END
>  <MODEL>
2

>  <REMARK>
 VINA RESULT:      -8.6      3.252      6.889
  Name = 
  4 active torsions:
  status: ('A' for Active; 'I' for Inactive)
    1  A    between atoms: C_4  and  C_37
    2  A    between atoms: C_8  and  N_12
    3  A    between atoms: C_8  and  C_18
    4  A    between atoms: C_23  and  C_30
                            x       y       z     vdW  Elec       q    Type
                         _______ _______ _______ _____ _____    ______ ____

>  <TORSDO>
F 4

$$$$
=
 OpenBabel11122413433D

 37 43  0  0  1  0  0  0  0  0999 V2000
  161.6050  205.5650  146.5770 C   0  0  0  0  0  0  0  0  0  0  0  0
  161.2660  206.5770  150.5890 C   0  0  0  0  0  0  0  0  0  0  0  0
  161.0410  210.2770  151.4440 O   0  0  0  0  0  0  0  0  0  0  0  0
  161.3290  204.7890  148.9910 C   0  0  0  0  0  0  0  0  0  0  0  0
  161.5310  207.9500  150.5470 C   0  0  0  0  0  0  0  0  0  0  0  0
  161.5180  206.1000  149.3500 C   0  0  0  0  0  0  0  0  0  0  0  0
  161.3160  208.9200  151.7020 C   0  0  0  0  0  0  0  0  0  0  0  0
  160.9020  203.9180  149.9520 N   0  0  0  0  0  0  0  0  0  0  0  0
  161.9070  207.1100  148.5490 C   0  0  0  0  0  0  0  0  0  0  0  0
  160.1520  205.8400  146.2240 C   0  0  0  0  0  1  0  0  0  0  0  0
  160.5660  206.1660  152.9790 C   0  0  0  0  0  2  0  0  0  0  0  0
  160.6440  204.3460  151.2330 C   0  0  0  0  0  3  0  0  0  0  0  0
  162.2570  206.8760  147.1070 C   0  0  0  0  0  2  0  0  0  0  0  0
  161.8250  211.9950  149.8200 C   0  0  1  0  0  3  0  0  0  0  0  0
  161.0250  210.7610  150.1220 C   0  0  1  0  0  3  0  0  0  0  0  0
  160.8230  205.7050  151.5890 C   0  0  0  0  0  0  0  0  0  0  0  0
  161.9390  208.2630  149.2560 N   0  0  0  0  0  0  0  0  0  0  0  0
  161.6710  204.3760  147.5820 C   0  0  0  0  0  2  0  0  0  0  0  0
  161.3590  208.5260  153.0030 C   0  0  0  0  0  0  0  0  0  0  0  0
  162.3250  205.1570  145.3100 C   0  0  0  0  0  1  0  0  0  0  0  0
  162.4740  210.6140  149.6880 C   0  0  1  0  0  3  0  0  0  0  0  0
  162.2710  209.5590  148.6330 C   0  0  0  0  0  2  0  0  0  0  0  0
  161.6730  207.1130  153.4070 C   0  0  0  0  0  2  0  0  0  0  0  0
  162.2320  210.0960  154.7420 C   0  0  0  0  0  3  0  0  0  0  0  0
  161.1340  209.4840  154.1140 C   0  0  0  0  0  0  0  0  0  0  0  0
  159.8370  209.8380  154.5210 C   0  0  0  0  0  3  0  0  0  0  0  0
  158.0190  211.1850  156.0480 Cl  0  0  0  0  0  0  0  0  0  0  0  0
  160.7420  211.3570  156.1730 C   0  0  0  0  0  3  0  0  0  0  0  0
  159.6420  210.7640  155.5480 C   0  0  0  0  0  0  0  0  0  0  0  0
  162.0380  211.0240  155.7700 C   0  0  0  0  0  3  0  0  0  0  0  0
  161.4070  212.6750  148.5020 C   0  0  2  0  0  3  0  0  0  0  0  0
  162.0700  213.8740  148.2230 O   0  0  0  0  0  1  0  0  0  0  0  0
  159.6890  212.3150  146.1850 O   0  0  0  0  0  0  0  0  0  0  0  0
  159.1670  212.6940  147.2670 C   0  0  0  0  0  0  0  0  0  0  0  0
  159.9600  212.8600  148.4460 N   0  0  0  0  0  2  0  0  0  0  0  0
  157.0070  211.9590  146.7180 F   0  0  0  0  0  0  0  0  0  0  0  0
  157.7110  212.9880  147.3190 C   0  0  0  0  0  2  0  0  0  0  0  0
  1 13  1  0  0  0  0
  1 18  1  0  0  0  0
  2 16  1  0  0  0  0
  3  7  1  0  0  0  0
  4  6  1  0  0  0  0
  4  8  2  0  0  0  0
  5  2  2  0  0  0  0
  5  7  1  0  0  0  0
  6  2  1  0  0  0  0
  7 19  2  0  0  0  0
  8 12  1  0  0  0  0
  9 17  1  0  0  0  0
  9  6  2  0  0  0  0
 10  1  1  0  0  0  0
 11 23  1  0  0  0  0
 12 16  2  0  0  0  0
 13  9  1  0  0  0  0
 14 31  1  6  0  0  0
 14 15  1  0  0  0  0
 15  3  1  1  0  0  0
 16 11  1  0  0  0  0
 17  5  1  0  0  0  0
 18  4  1  0  0  0  0
 19 23  1  0  0  0  0
 19 25  1  0  0  0  0
 20  1  1  0  0  0  0
 21 22  1  6  0  0  0
 21 14  1  0  0  0  0
 21 15  1  0  0  0  0
 22 17  1  0  0  0  0
 24 30  1  0  0  0  0
 25 26  1  0  0  0  0
 25 24  2  0  0  0  0
 26 29  2  0  0  0  0
 29 27  1  0  0  0  0
 29 28  1  0  0  0  0
 30 28  2  0  0  0  0
 31 32  1  1  0  0  0
 33 34  2  0  0  0  0
 34 37  1  0  0  0  0
 34 35  1  0  0  0  0
 35 31  1  0  0  0  0
 36 37  1  0  0  0  0
M  END
>  <MODEL>
3

>  <REMARK>
 VINA RESULT:      -8.4      1.672      2.057
  Name = 
  4 active torsions:
  status: ('A' for Active; 'I' for Inactive)
    1  A    between atoms: C_4  and  C_37
    2  A    between atoms: C_8  and  N_12
    3  A    between atoms: C_8  and  C_18
    4  A    between atoms: C_23  and  C_30
                            x       y       z     vdW  Elec       q    Type
                         _______ _______ _______ _____ _____    ______ ____

>  <TORSDO>
F 4

$$$$
=
 OpenBabel11122413433D

 37 43  0  0  1  0  0  0  0  0999 V2000
  161.6310  205.9590  146.6840 C   0  0  0  0  0  0  0  0  0  0  0  0
  161.2110  206.1210  150.8120 C   0  0  0  0  0  0  0  0  0  0  0  0
  160.7220  209.5500  152.3840 O   0  0  0  0  0  0  0  0  0  0  0  0
  161.4050  204.6970  148.8900 C   0  0  0  0  0  0  0  0  0  0  0  0
  161.3780  207.4900  151.0490 C   0  0  0  0  0  0  0  0  0  0  0  0
  161.5000  205.9200  149.5070 C   0  0  0  0  0  0  0  0  0  0  0  0
  161.0920  208.1910  152.3700 C   0  0  0  0  0  0  0  0  0  0  0  0
  161.0390  203.6240  149.6510 N   0  0  0  0  0  0  0  0  0  0  0  0
  161.8180  207.0940  148.9300 C   0  0  0  0  0  0  0  0  0  0  0  0
  160.1630  206.1970  146.3690 C   0  0  0  0  0  1  0  0  0  0  0  0
  160.5380  205.1920  153.0600 C   0  0  0  0  0  2  0  0  0  0  0  0
  160.7490  203.7690  150.9870 C   0  0  0  0  0  3  0  0  0  0  0  0
  162.1870  207.1790  147.4760 C   0  0  0  0  0  2  0  0  0  0  0  0
  161.3850  211.6080  151.1490 C   0  0  1  0  0  3  0  0  0  0  0  0
  160.6740  210.2870  151.1850 C   0  0  1  0  0  3  0  0  0  0  0  0
  160.8290  205.0370  151.6100 C   0  0  0  0  0  0  0  0  0  0  0  0
  161.7660  208.0820  149.8530 N   0  0  0  0  0  0  0  0  0  0  0  0
  161.7800  204.6000  147.4320 C   0  0  0  0  0  2  0  0  0  0  0  0
  161.1600  207.5490  153.5670 C   0  0  0  0  0  0  0  0  0  0  0  0
  162.3810  205.8640  145.3730 C   0  0  0  0  0  1  0  0  0  0  0  0
  162.1310  210.3300  150.7540 C   0  0  1  0  0  3  0  0  0  0  0  0
  162.0060  209.4960  149.5070 C   0  0  0  0  0  2  0  0  0  0  0  0
  161.5730  206.1080  153.6860 C   0  0  0  0  0  2  0  0  0  0  0  0
  161.5910  207.9230  156.0010 C   0  0  0  0  0  3  0  0  0  0  0  0
  160.8650  208.2470  154.8430 C   0  0  0  0  0  0  0  0  0  0  0  0
  159.9050  209.2710  154.9090 C   0  0  0  0  0  3  0  0  0  0  0  0
  158.4550  211.2050  156.1750 Cl  0  0  0  0  0  0  0  0  0  0  0  0
  160.3820  209.6000  157.2590 C   0  0  0  0  0  3  0  0  0  0  0  0
  159.6600  209.9400  156.1110 C   0  0  0  0  0  0  0  0  0  0  0  0
  161.3480  208.5930  157.2040 C   0  0  0  0  0  3  0  0  0  0  0  0
  160.9220  212.5080  149.9860 C   0  0  2  0  0  3  0  0  0  0  0  0
  159.5470  212.4820  149.7340 O   0  0  0  0  0  1  0  0  0  0  0  0
  162.3940  214.4050  148.3480 O   0  0  0  0  0  0  0  0  0  0  0  0
  162.3610  213.1990  147.9870 C   0  0  0  0  0  0  0  0  0  0  0  0
  161.6750  212.2170  148.7700 N   0  0  0  0  0  2  0  0  0  0  0  0
  164.1780  212.0790  147.0150 F   0  0  0  0  0  0  0  0  0  0  0  0
  163.0280  212.7900  146.7230 C   0  0  0  0  0  2  0  0  0  0  0  0
  1 18  1  0  0  0  0
  1 13  1  0  0  0  0
  2  5  2  0  0  0  0
  2 16  1  0  0  0  0
  4  6  1  0  0  0  0
  4  8  2  0  0  0  0
  5  7  1  0  0  0  0
  6  2  1  0  0  0  0
  7  3  1  0  0  0  0
  7 19  2  0  0  0  0
  8 12  1  0  0  0  0
  9  6  2  0  0  0  0
  9 17  1  0  0  0  0
 10  1  1  0  0  0  0
 11 23  1  0  0  0  0
 12 16  2  0  0  0  0
 13  9  1  0  0  0  0
 14 31  1  6  0  0  0
 14 15  1  0  0  0  0
 15  3  1  1  0  0  0
 16 11  1  0  0  0  0
 17  5  1  0  0  0  0
 18  4  1  0  0  0  0
 19 23  1  0  0  0  0
 19 25  1  0  0  0  0
 20  1  1  0  0  0  0
 21 22  1  6  0  0  0
 21 14  1  0  0  0  0
 21 15  1  0  0  0  0
 22 17  1  0  0  0  0
 24 30  1  0  0  0  0
 25 26  1  0  0  0  0
 25 24  2  0  0  0  0
 26 29  2  0  0  0  0
 29 27  1  0  0  0  0
 29 28  1  0  0  0  0
 30 28  2  0  0  0  0
 31 32  1  6  0  0  0
 34 33  2  0  0  0  0
 34 35  1  0  0  0  0
 35 31  1  0  0  0  0
 37 36  1  0  0  0  0
 37 34  1  0  0  0  0
M  END
>  <MODEL>
4

>  <REMARK>
 VINA RESULT:      -6.9      1.864      2.221
  Name = 
  4 active torsions:
  status: ('A' for Active; 'I' for Inactive)
    1  A    between atoms: C_4  and  C_37
    2  A    between atoms: C_8  and  N_12
    3  A    between atoms: C_8  and  C_18
    4  A    between atoms: C_23  and  C_30
                            x       y       z     vdW  Elec       q    Type
                         _______ _______ _______ _____ _____    ______ ____

>  <TORSDO>
F 4

$$$$
