=
 OpenBabel11122414283D

 34 40  0  0  1  0  0  0  0  0999 V2000
  161.4210  209.0020  149.5350 C   0  0  1  0  0  3  0  0  0  0  0  0
  160.6580  206.7960  148.5790 C   0  0  0  0  0  2  0  0  0  0  0  0
  158.3760  210.1950  154.7860 C   0  0  0  0  0  2  0  0  0  0  0  0
  161.7190  210.9550  151.2030 C   0  0  1  0  0  3  0  0  0  0  0  0
  161.4140  210.4790  153.6320 C   0  0  0  0  0  0  0  0  0  0  0  0
  160.5910  210.0620  155.9740 C   0  0  0  0  0  2  0  0  0  0  0  0
  159.1190  210.4380  156.0930 C   0  0  0  0  0  2  0  0  0  0  0  0
  159.0250  212.3500  153.6160 C   0  0  0  0  0  2  0  0  0  0  0  0
  162.0590  206.6650  150.5890 C   0  0  1  0  0  3  0  0  0  0  0  0
  160.4930  204.4410  152.3710 C   0  0  0  0  0  2  0  0  0  0  0  0
  161.6680  209.2200  153.3810 N   0  0  0  0  0  0  0  0  0  0  0  0
  159.6230  211.6900  152.3810 C   0  0  0  0  0  2  0  0  0  0  0  0
  161.5050  207.2300  151.9080 C   0  0  2  0  0  3  0  0  0  0  0  0
  160.6010  205.4480  149.2060 C   0  0  0  0  0  2  0  0  0  0  0  0
  161.1370  211.4760  152.5190 C   0  0  2  0  0  3  0  0  0  0  0  0
  157.8850  211.5080  154.1800 C   0  0  0  0  0  2  0  0  0  0  0  0
  161.4500  204.1910  151.2090 C   0  0  2  0  0  3  0  0  0  0  0  0
  161.2490  209.5160  150.9820 C   0  0  2  0  0  3  0  0  0  0  0  0
  161.2370  210.9080  154.9820 N   0  0  0  0  0  2  0  0  0  0  0  0
  161.9440  208.6800  152.0400 C   0  0  1  0  0  3  0  0  0  0  0  0
  162.2090  211.2390  148.8190 C   0  0  0  0  0  3  0  0  0  0  0  0
  161.1190  205.2710  153.5000 C   0  0  0  0  0  2  0  0  0  0  0  0
  161.4650  211.8370  149.9830 C   0  0  0  0  0  2  0  0  0  0  0  0
  162.0630  206.3960  153.0610 C   0  0  0  0  0  2  0  0  0  0  0  0
  161.3920  205.3700  150.2720 C   0  0  2  0  0  3  0  0  0  0  0  0
  162.2010  209.9120  148.6190 C   0  0  0  0  0  3  0  0  0  0  0  0
  161.7630  207.5180  149.3390 C   0  0  2  0  0  3  0  0  0  0  0  0
  161.1230  202.9000  150.5240 C   0  0  0  0  0  3  0  0  0  0  0  0
  160.5320  202.8980  149.3860 N   0  0  0  0  0  0  0  0  0  0  0  0
  161.0880  200.6620  146.7610 O   0  0  0  0  0  0  0  0  0  0  0  0
  161.2040  200.6070  149.1200 C   0  0  0  0  0  2  0  0  0  0  0  0
  160.2150  201.6600  148.7230 C   0  0  2  0  0  3  0  0  0  0  0  0
  161.9030  200.2560  147.8280 C   0  0  0  0  0  2  0  0  0  0  0  0
  160.4150  201.8000  147.2270 C   0  0  0  0  0  2  0  0  0  0  0  0
  1 26  1  1  0  0  0
  1 18  1  0  0  0  0
  2 14  1  0  0  0  0
  2 27  1  0  0  0  0
  3  7  1  0  0  0  0
  4 23  1  6  0  0  0
  4 15  1  0  0  0  0
  5 19  1  0  0  0  0
  6  7  1  0  0  0  0
  8 16  1  0  0  0  0
  9 13  1  0  0  0  0
 10 22  1  0  0  0  0
 11  5  2  0  0  0  0
 12 15  1  0  0  0  0
 12  8  1  0  0  0  0
 13 20  1  0  0  0  0
 13 24  1  0  0  0  0
 14 25  1  0  0  0  0
 15  5  1  0  0  0  0
 16  3  1  0  0  0  0
 17 10  1  0  0  0  0
 18  4  1  0  0  0  0
 18 20  1  0  0  0  0
 19  6  1  0  0  0  0
 20 11  1  0  0  0  0
 21 23  1  0  0  0  0
 24 22  1  0  0  0  0
 25  9  1  0  0  0  0
 25 17  1  0  0  0  0
 26 21  2  0  0  0  0
 27  1  1  0  0  0  0
 27  9  1  0  0  0  0
 28 17  1  0  0  0  0
 29 28  2  0  0  0  0
 30 34  1  0  0  0  0
 30 33  1  0  0  0  0
 32 31  1  0  0  0  0
 32 29  1  0  0  0  0
 33 31  1  0  0  0  0
 34 32  1  0  0  0  0
M  END
>  <MODEL>
1

>  <REMARK>
 VINA RESULT:      -8.1      0.000      0.000
  Name = 
  2 active torsions:
  status: ('A' for Active; 'I' for Inactive)
    1  A    between atoms: C_17  and  C_28
    2  A    between atoms: N_29  and  C_32
                            x       y       z     vdW  Elec       q    Type
                         _______ _______ _______ _____ _____    ______ ____

>  <TORSDO>
F 2

$$$$
=
 OpenBabel11122414283D

 34 40  0  0  1  0  0  0  0  0999 V2000
  160.8110  211.4590  150.4450 C   0  0  1  0  0  3  0  0  0  0  0  0
  161.1510  209.1210  149.5610 C   0  0  0  0  0  2  0  0  0  0  0  0
  156.2710  211.4890  154.6480 C   0  0  0  0  0  2  0  0  0  0  0  0
  159.9540  213.3960  151.9280 C   0  0  1  0  0  3  0  0  0  0  0  0
  159.2060  212.8550  154.2450 C   0  0  0  0  0  0  0  0  0  0  0  0
  157.9950  212.1800  156.3460 C   0  0  0  0  0  2  0  0  0  0  0  0
  156.5090  211.9940  156.0650 C   0  0  0  0  0  2  0  0  0  0  0  0
  156.4080  213.7260  153.4590 C   0  0  0  0  0  2  0  0  0  0  0  0
  161.9250  209.5230  151.8540 C   0  0  1  0  0  3  0  0  0  0  0  0
  160.8280  206.8910  153.4170 C   0  0  0  0  0  2  0  0  0  0  0  0
  159.9420  211.7740  154.1920 N   0  0  0  0  0  0  0  0  0  0  0  0
  157.5020  213.3220  152.4800 C   0  0  0  0  0  2  0  0  0  0  0  0
  160.8820  209.8540  152.9340 C   0  0  2  0  0  3  0  0  0  0  0  0
  161.4060  207.8500  150.2880 C   0  0  0  0  0  2  0  0  0  0  0  0
  158.9010  213.6760  153.0040 C   0  0  2  0  0  3  0  0  0  0  0  0
  155.5290  212.5290  153.8100 C   0  0  0  0  0  2  0  0  0  0  0  0
  162.0820  207.0000  152.5550 C   0  0  2  0  0  3  0  0  0  0  0  0
  160.0940  211.8840  151.7470 C   0  0  2  0  0  3  0  0  0  0  0  0
  158.5410  213.1980  155.4620 N   0  0  0  0  0  2  0  0  0  0  0  0
  160.7320  211.3650  153.0210 C   0  0  1  0  0  3  0  0  0  0  0  0
  160.9230  213.8260  149.7200 C   0  0  0  0  0  3  0  0  0  0  0  0
  160.8020  207.8980  154.5750 C   0  0  0  0  0  2  0  0  0  0  0  0
  159.7390  214.1170  150.6000 C   0  0  0  0  0  2  0  0  0  0  0  0
  161.3720  209.2880  154.2670 C   0  0  0  0  0  2  0  0  0  0  0  0
  161.8640  208.0720  151.5170 C   0  0  2  0  0  3  0  0  0  0  0  0
  161.4340  212.5860  149.6600 C   0  0  0  0  0  3  0  0  0  0  0  0
  161.6900  210.2020  150.4900 C   0  0  2  0  0  3  0  0  0  0  0  0
  162.4220  205.6750  151.9450 C   0  0  0  0  0  3  0  0  0  0  0  0
  161.4940  204.8960  151.5220 N   0  0  0  0  0  0  0  0  0  0  0  0
  160.5440  201.6380  150.7000 O   0  0  0  0  0  0  0  0  0  0  0  0
  161.2790  203.5590  149.5380 C   0  0  0  0  0  2  0  0  0  0  0  0
  161.8150  203.6210  150.9360 C   0  0  2  0  0  3  0  0  0  0  0  0
  160.2630  202.4420  149.5860 C   0  0  0  0  0  2  0  0  0  0  0  0
  161.0770  202.5120  151.6570 C   0  0  0  0  0  2  0  0  0  0  0  0
  1 26  1  1  0  0  0
  1 27  1  0  0  0  0
  1 18  1  0  0  0  0
  2 14  1  0  0  0  0
  2 27  1  0  0  0  0
  3  7  1  0  0  0  0
  4 23  1  6  0  0  0
  4 15  1  0  0  0  0
  5 19  1  0  0  0  0
  7  6  1  0  0  0  0
  8 16  1  0  0  0  0
  9 13  1  0  0  0  0
 10 22  1  0  0  0  0
 11  5  2  0  0  0  0
 12 15  1  0  0  0  0
 12  8  1  0  0  0  0
 13 20  1  0  0  0  0
 13 24  1  0  0  0  0
 14 25  1  0  0  0  0
 15  5  1  0  0  0  0
 16  3  1  0  0  0  0
 17 10  1  0  0  0  0
 18  4  1  0  0  0  0
 18 20  1  0  0  0  0
 19  6  1  0  0  0  0
 20 11  1  0  0  0  0
 21 23  1  0  0  0  0
 24 22  1  0  0  0  0
 25  9  1  0  0  0  0
 25 17  1  0  0  0  0
 26 21  2  0  0  0  0
 27  9  1  0  0  0  0
 28 17  1  0  0  0  0
 29 28  2  0  0  0  0
 30 34  1  0  0  0  0
 31 33  1  0  0  0  0
 31 32  1  0  0  0  0
 32 29  1  0  0  0  0
 32 34  1  0  0  0  0
 33 30  1  0  0  0  0
M  END
>  <MODEL>
2

>  <REMARK>
 VINA RESULT:      -6.3      1.856      3.108
  Name = 
  2 active torsions:
  status: ('A' for Active; 'I' for Inactive)
    1  A    between atoms: C_17  and  C_28
    2  A    between atoms: N_29  and  C_32
                            x       y       z     vdW  Elec       q    Type
                         _______ _______ _______ _____ _____    ______ ____

>  <TORSDO>
F 2

$$$$
=
 OpenBabel11122414283D

 34 40  0  0  1  0  0  0  0  0999 V2000
  160.2660  210.2810  139.1720 C   0  0  1  0  0  3  0  0  0  0  0  0
  161.3160  210.7400  141.4190 C   0  0  0  0  0  2  0  0  0  0  0  0
  154.1000  210.3770  139.6620 C   0  0  0  0  0  2  0  0  0  0  0  0
  158.4660  210.0650  137.3290 C   0  0  1  0  0  3  0  0  0  0  0  0
  156.3780  211.4100  137.5670 C   0  0  0  0  0  0  0  0  0  0  0  0
  154.1170  212.3670  138.1210 C   0  0  0  0  0  2  0  0  0  0  0  0
  153.2540  211.3210  138.8170 C   0  0  0  0  0  2  0  0  0  0  0  0
  154.8280  208.8120  137.8030 C   0  0  0  0  0  2  0  0  0  0  0  0
  160.2640  212.6620  140.3160 C   0  0  1  0  0  3  0  0  0  0  0  0
  158.6190  214.0370  142.7600 C   0  0  0  0  0  2  0  0  0  0  0  0
  157.0360  212.2260  138.3500 N   0  0  0  0  0  0  0  0  0  0  0  0
  156.3250  208.9580  138.0450 C   0  0  0  0  0  2  0  0  0  0  0  0
  158.7410  212.6430  140.1040 C   0  0  2  0  0  3  0  0  0  0  0  0
  161.1070  211.8710  142.3610 C   0  0  0  0  0  2  0  0  0  0  0  0
  156.9430  210.0570  137.1680 C   0  0  2  0  0  3  0  0  0  0  0  0
  154.0540  208.9530  139.1090 C   0  0  0  0  0  2  0  0  0  0  0  0
  160.1070  214.1750  142.4520 C   0  0  2  0  0  3  0  0  0  0  0  0
  158.8190  210.5840  138.7240 C   0  0  2  0  0  3  0  0  0  0  0  0
  155.0330  211.7150  137.1980 N   0  0  0  0  0  2  0  0  0  0  0  0
  158.4460  212.0540  138.7330 C   0  0  1  0  0  3  0  0  0  0  0  0
  160.6470  208.9740  137.1020 C   0  0  0  0  0  3  0  0  0  0  0  0
  157.7190  214.4530  141.5880 C   0  0  0  0  0  2  0  0  0  0  0  0
  159.1630  208.7450  137.0130 C   0  0  0  0  0  2  0  0  0  0  0  0
  158.2250  214.0790  140.1900 C   0  0  0  0  0  2  0  0  0  0  0  0
  160.5730  212.9250  141.7500 C   0  0  2  0  0  3  0  0  0  0  0  0
  161.1610  209.7060  138.1020 C   0  0  0  0  0  3  0  0  0  0  0  0
  160.9750  211.3200  140.0520 C   0  0  2  0  0  3  0  0  0  0  0  0
  160.8830  214.4510  143.7030 C   0  0  0  0  0  3  0  0  0  0  0  0
  160.4670  214.0140  144.8360 N   0  0  0  0  0  0  0  0  0  0  0  0
  160.9310  213.4910  148.2580 O   0  0  0  0  0  0  0  0  0  0  0  0
  162.1890  213.1710  146.2830 C   0  0  0  0  0  2  0  0  0  0  0  0
  161.2080  214.2770  146.0420 C   0  0  2  0  0  3  0  0  0  0  0  0
  161.7320  212.5560  147.5860 C   0  0  0  0  0  2  0  0  0  0  0  0
  160.2900  214.2180  147.2460 C   0  0  0  0  0  2  0  0  0  0  0  0
  1 26  1  6  0  0  0
  1 27  1  0  0  0  0
  2 14  1  0  0  0  0
  4 23  1  1  0  0  0
  4 18  1  0  0  0  0
  5 11  2  0  0  0  0
  6  7  1  0  0  0  0
  7  3  1  0  0  0  0
  8 12  1  0  0  0  0
  8 16  1  0  0  0  0
  9 25  1  0  0  0  0
 11 20  1  0  0  0  0
 13 24  1  0  0  0  0
 13  9  1  0  0  0  0
 15  4  1  0  0  0  0
 15  5  1  0  0  0  0
 15 12  1  0  0  0  0
 16  3  1  0  0  0  0
 17 10  1  0  0  0  0
 17 28  1  0  0  0  0
 18 20  1  0  0  0  0
 18  1  1  0  0  0  0
 19  5  1  0  0  0  0
 19  6  1  0  0  0  0
 20 13  1  0  0  0  0
 21 26  2  0  0  0  0
 22 10  1  0  0  0  0
 23 21  1  0  0  0  0
 24 22  1  0  0  0  0
 25 14  1  0  0  0  0
 25 17  1  0  0  0  0
 27  9  1  0  0  0  0
 27  2  1  0  0  0  0
 28 29  2  0  0  0  0
 29 32  1  0  0  0  0
 31 33  1  0  0  0  0
 32 31  1  0  0  0  0
 32 34  1  0  0  0  0
 33 30  1  0  0  0  0
 34 30  1  0  0  0  0
M  END
>  <MODEL>
3

>  <REMARK>
 VINA RESULT:      -6.0     10.276     13.980
  Name = 
  2 active torsions:
  status: ('A' for Active; 'I' for Inactive)
    1  A    between atoms: C_17  and  C_28
    2  A    between atoms: N_29  and  C_32
                            x       y       z     vdW  Elec       q    Type
                         _______ _______ _______ _____ _____    ______ ____

>  <TORSDO>
F 2

$$$$
