=
 OpenBabel11122414083D

 28 32  0  0  1  0  0  0  0  0999 V2000
  159.2250  211.8570  152.5020 C   0  0  0  0  0  0  0  0  0  0  0  0
  156.7820  212.2360  149.7100 O   0  0  0  0  0  0  0  0  0  0  0  0
  163.3810  211.8940  147.7130 O   0  0  0  0  0  0  0  0  0  0  0  0
  158.6780  214.3500  153.6610 C   0  0  0  0  0  3  0  0  0  0  0  0
  162.4020  214.0770  148.1230 C   0  0  2  0  0  3  0  0  0  0  0  0
  159.5820  210.5150  151.9500 C   0  0  0  0  0  2  0  0  0  0  0  0
  156.3040  214.4530  148.7630 O   0  0  0  0  0  0  0  0  0  0  0  0
  157.2940  213.3240  148.8070 S   0  0  0  0  0  0  0  0  0  0  0  0
  158.6860  212.7120  146.6430 C   0  0  0  0  0  0  0  0  0  0  0  0
  158.8540  213.9420  149.3990 C   0  0  2  0  0  3  0  0  0  0  0  0
  163.2100  210.3330  151.4920 O   0  0  0  0  0  0  0  0  0  0  0  0
  161.0970  213.2850  150.0460 C   0  0  2  0  0  3  0  0  0  0  0  0
  159.8150  213.2550  147.2690 O   0  0  0  0  0  0  0  0  0  0  0  0
  157.5250  212.7010  147.2160 N   0  0  0  0  0  0  0  0  0  0  0  0
  161.9960  210.4430  151.1820 C   0  0  0  0  0  0  0  0  0  0  0  0
  159.2570  213.0200  151.7060 C   0  0  0  0  0  0  0  0  0  0  0  0
  162.6010  212.6310  148.3730 C   0  0  0  0  0  0  0  0  0  0  0  0
  158.8380  212.0890  145.3030 C   0  0  0  0  0  1  0  0  0  0  0  0
  161.6250  210.7580  149.7690 C   0  0  0  0  0  2  0  0  0  0  0  0
  158.9950  214.2660  152.3040 C   0  0  0  0  0  3  0  0  0  0  0  0
  158.9120  211.9540  153.8640 C   0  0  0  0  0  3  0  0  0  0  0  0
  158.6330  213.1930  154.4400 C   0  0  0  0  0  3  0  0  0  0  0  0
  160.9950  210.2490  152.1820 N   0  0  0  0  0  2  0  0  0  0  0  0
  161.1470  214.3870  148.9720 C   0  0  2  0  0  3  0  0  0  0  0  0
  161.8480  212.1690  149.4790 N   0  0  0  0  0  0  0  0  0  0  0  0
  159.7870  214.2950  148.2580 C   0  0  2  0  0  3  0  0  0  0  0  0
  162.2920  214.4310  146.6460 C   0  0  0  0  0  1  0  0  0  0  0  0
  159.6230  212.9400  150.2470 C   0  0  1  0  0  3  0  0  0  0  0  0
  1 21  1  0  0  0  0
  3 17  2  0  0  0  0
  4 22  1  0  0  0  0
  5 27  1  6  0  0  0
  5 17  1  0  0  0  0
  5 24  1  0  0  0  0
  6 23  1  0  0  0  0
  6  1  1  0  0  0  0
  7  8  2  0  0  0  0
  8  2  2  0  0  0  0
  9 14  2  0  0  0  0
  9 13  1  0  0  0  0
 10  8  1  6  0  0  0
 10 28  1  0  0  0  0
 12 25  1  6  0  0  0
 12 28  1  0  0  0  0
 13 26  1  0  0  0  0
 14  8  1  0  0  0  0
 15 11  2  0  0  0  0
 15 23  1  0  0  0  0
 16 20  1  0  0  0  0
 16  1  2  0  0  0  0
 17 25  1  0  0  0  0
 18  9  1  0  0  0  0
 19 15  1  0  0  0  0
 20  4  2  0  0  0  0
 21 22  2  0  0  0  0
 24 12  1  0  0  0  0
 25 19  1  0  0  0  0
 26 24  1  0  0  0  0
 26 10  1  0  0  0  0
 28 16  1  0  0  0  0
M  END
>  <MODEL>
1

>  <REMARK>
 VINA RESULT:      -2.1      0.000      0.000
  Name = 
  0 active torsions:
  status: ('A' for Active; 'I' for Inactive)
                            x       y       z     vdW  Elec       q    Type
                         _______ _______ _______ _____ _____    ______ ____

>  <TORSDO>
F 0

$$$$
=
 OpenBabel11122414083D

 28 32  0  0  1  0  0  0  0  0999 V2000
  157.7330  213.0670  154.2190 C   0  0  0  0  0  0  0  0  0  0  0  0
  160.5180  212.2170  156.5490 O   0  0  0  0  0  0  0  0  0  0  0  0
  161.9870  211.2730  149.8710 O   0  0  0  0  0  0  0  0  0  0  0  0
  156.0080  211.0570  155.1370 C   0  0  0  0  0  3  0  0  0  0  0  0
  161.0980  209.4060  151.1410 C   0  0  2  0  0  3  0  0  0  0  0  0
  158.5880  214.1600  153.6660 C   0  0  0  0  0  2  0  0  0  0  0  0
  160.8840  209.8920  157.2610 O   0  0  0  0  0  0  0  0  0  0  0  0
  161.0580  210.8750  156.1370 S   0  0  0  0  0  0  0  0  0  0  0  0
  163.1840  210.7190  154.5740 C   0  0  0  0  0  0  0  0  0  0  0  0
  160.1980  210.2720  154.7010 C   0  0  2  0  0  3  0  0  0  0  0  0
  158.7800  213.8100  150.0260 O   0  0  0  0  0  0  0  0  0  0  0  0
  159.5660  210.8280  152.4270 C   0  0  2  0  0  3  0  0  0  0  0  0
  162.3480  210.2460  153.5560 O   0  0  0  0  0  0  0  0  0  0  0  0
  162.7320  211.0130  155.7510 N   0  0  0  0  0  0  0  0  0  0  0  0
  159.1480  213.7540  151.2280 C   0  0  0  0  0  0  0  0  0  0  0  0
  158.1900  211.7340  154.2970 C   0  0  0  0  0  0  0  0  0  0  0  0
  161.2220  210.8340  150.7710 C   0  0  0  0  0  0  0  0  0  0  0  0
  164.6240  210.9350  154.2770 C   0  0  0  0  0  1  0  0  0  0  0  0
  160.4530  213.1110  151.5660 C   0  0  0  0  0  2  0  0  0  0  0  0
  157.3090  210.7350  154.7450 C   0  0  0  0  0  3  0  0  0  0  0  0
  156.4250  213.3780  154.6080 C   0  0  0  0  0  3  0  0  0  0  0  0
  155.5670  212.3790  155.0720 C   0  0  0  0  0  3  0  0  0  0  0  0
  158.3190  214.3210  152.2440 N   0  0  0  0  0  2  0  0  0  0  0  0
  160.3040  209.4780  152.4660 C   0  0  2  0  0  3  0  0  0  0  0  0
  160.3420  211.6580  151.5120 N   0  0  0  0  0  0  0  0  0  0  0  0
  161.1260  209.5220  153.7660 C   0  0  2  0  0  3  0  0  0  0  0  0
  162.4340  208.6780  151.2220 C   0  0  0  0  0  1  0  0  0  0  0  0
  159.5830  211.3750  153.8520 C   0  0  1  0  0  3  0  0  0  0  0  0
  1 16  2  0  0  0  0
  1 21  1  0  0  0  0
  3 17  2  0  0  0  0
  5 27  1  1  0  0  0
  5 24  1  0  0  0  0
  6  1  1  0  0  0  0
  8  2  2  0  0  0  0
  8  7  2  0  0  0  0
  9 14  2  0  0  0  0
 10  8  1  1  0  0  0
 11 15  2  0  0  0  0
 12 25  1  6  0  0  0
 12 24  1  0  0  0  0
 12 28  1  0  0  0  0
 13 26  1  0  0  0  0
 13  9  1  0  0  0  0
 14  8  1  0  0  0  0
 15 19  1  0  0  0  0
 15 23  1  0  0  0  0
 16 20  1  0  0  0  0
 17  5  1  0  0  0  0
 17 25  1  0  0  0  0
 18  9  1  0  0  0  0
 20  4  2  0  0  0  0
 21 22  2  0  0  0  0
 22  4  1  0  0  0  0
 23  6  1  0  0  0  0
 24 26  1  0  0  0  0
 25 19  1  0  0  0  0
 26 10  1  0  0  0  0
 28 16  1  0  0  0  0
 28 10  1  0  0  0  0
M  END
>  <MODEL>
2

>  <REMARK>
 VINA RESULT:      -1.5      3.256      6.170
  Name = 
  0 active torsions:
  status: ('A' for Active; 'I' for Inactive)
                            x       y       z     vdW  Elec       q    Type
                         _______ _______ _______ _____ _____    ______ ____

>  <TORSDO>
F 0

$$$$
=
 OpenBabel11122414083D

 28 32  0  0  1  0  0  0  0  0999 V2000
  160.9450  208.4950  155.2960 C   0  0  0  0  0  0  0  0  0  0  0  0
  158.5130  211.2750  154.7790 O   0  0  0  0  0  0  0  0  0  0  0  0
  161.3760  208.8640  148.9800 O   0  0  0  0  0  0  0  0  0  0  0  0
  162.7930  210.0360  156.7360 C   0  0  0  0  0  3  0  0  0  0  0  0
  162.4290  210.7400  150.1040 C   0  0  2  0  0  3  0  0  0  0  0  0
  160.0200  207.6030  154.5350 C   0  0  0  0  0  2  0  0  0  0  0  0
  159.2980  213.5940  154.5520 O   0  0  0  0  0  0  0  0  0  0  0  0
  159.1550  212.2710  153.8540 S   0  0  0  0  0  0  0  0  0  0  0  0
  158.6370  212.2030  151.2620 C   0  0  0  0  0  0  0  0  0  0  0  0
  160.7650  211.7050  153.3490 C   0  0  2  0  0  3  0  0  0  0  0  0
  161.8770  205.9730  151.8330 O   0  0  0  0  0  0  0  0  0  0  0  0
  161.9540  209.8470  152.3400 C   0  0  2  0  0  3  0  0  0  0  0  0
  159.9520  211.7690  151.0540 O   0  0  0  0  0  0  0  0  0  0  0  0
  158.1830  212.4680  152.4440 N   0  0  0  0  0  0  0  0  0  0  0  0
  161.0860  206.7780  152.3890 C   0  0  0  0  0  0  0  0  0  0  0  0
  161.3960  209.7220  154.7660 C   0  0  0  0  0  0  0  0  0  0  0  0
  161.6900  209.4590  150.0460 C   0  0  0  0  0  0  0  0  0  0  0  0
  157.7260  212.3170  150.0930 C   0  0  0  0  0  1  0  0  0  0  0  0
  160.4580  207.8660  151.5800 C   0  0  0  0  0  2  0  0  0  0  0  0
  162.3340  210.4770  155.4920 C   0  0  0  0  0  3  0  0  0  0  0  0
  161.4160  208.0600  156.5400 C   0  0  0  0  0  3  0  0  0  0  0  0
  162.3310  208.8280  157.2610 C   0  0  0  0  0  3  0  0  0  0  0  0
  160.7920  206.6270  153.7790 N   0  0  0  0  0  2  0  0  0  0  0  0
  162.2540  211.1540  151.5840 C   0  0  2  0  0  3  0  0  0  0  0  0
  161.4110  208.9420  151.3330 N   0  0  0  0  0  0  0  0  0  0  0  0
  161.0640  212.0730  151.9100 C   0  0  2  0  0  3  0  0  0  0  0  0
  161.9560  211.7650  149.0810 C   0  0  0  0  0  1  0  0  0  0  0  0
  160.9260  210.1930  153.4150 C   0  0  1  0  0  3  0  0  0  0  0  0
  1 21  1  0  0  0  0
  3 17  2  0  0  0  0
  4 22  1  0  0  0  0
  5 27  1  6  0  0  0
  5 24  1  0  0  0  0
  6  1  1  0  0  0  0
  8  7  2  0  0  0  0
  8  2  2  0  0  0  0
  9 14  2  0  0  0  0
 10 28  1  0  0  0  0
 10  8  1  6  0  0  0
 11 15  2  0  0  0  0
 12 25  1  6  0  0  0
 12 28  1  0  0  0  0
 13  9  1  0  0  0  0
 13 26  1  0  0  0  0
 14  8  1  0  0  0  0
 15 23  1  0  0  0  0
 16  1  2  0  0  0  0
 16 20  1  0  0  0  0
 17  5  1  0  0  0  0
 17 25  1  0  0  0  0
 18  9  1  0  0  0  0
 19 15  1  0  0  0  0
 20  4  2  0  0  0  0
 21 22  2  0  0  0  0
 23  6  1  0  0  0  0
 24 26  1  0  0  0  0
 24 12  1  0  0  0  0
 25 19  1  0  0  0  0
 26 10  1  0  0  0  0
 28 16  1  0  0  0  0
M  END
>  <MODEL>
3

>  <REMARK>
 VINA RESULT:      -0.3      3.601      4.785
  Name = 
  0 active torsions:
  status: ('A' for Active; 'I' for Inactive)
                            x       y       z     vdW  Elec       q    Type
                         _______ _______ _______ _____ _____    ______ ____

>  <TORSDO>
F 0

$$$$
