=
 OpenBabel11122414053D

 28 31  0  0  1  0  0  0  0  0999 V2000
  158.2090  212.0990  153.2010 C   0  0  0  0  0  0  0  0  0  0  0  0
  160.4240  209.2700  151.2190 O   0  0  0  0  0  0  0  0  0  0  0  0
  159.2160  214.3300  151.8400 C   0  0  0  0  0  3  0  0  0  0  0  0
  157.7160  210.9870  153.8830 O   0  0  0  0  0  0  0  0  0  0  0  0
  162.5160  210.2380  152.0800 O   0  0  0  0  0  0  0  0  0  0  0  0
  161.3270  209.3840  152.4150 S   0  0  0  0  0  0  0  0  0  0  0  0
  160.8610  207.2490  153.8440 C   0  0  1  0  0  3  0  0  0  0  0  0
  160.4330  210.0530  153.7920 C   0  0  1  0  0  3  0  0  0  0  0  0
  156.4230  213.2140  155.9190 C   0  0  0  0  0  1  0  0  0  0  0  0
  160.4950  211.6680  155.5500 C   0  0  2  0  0  3  0  0  0  0  0  0
  160.7910  208.0110  155.1880 C   0  0  0  0  0  2  0  0  0  0  0  0
  161.8580  207.8040  152.9180 N   0  0  0  0  0  2  0  0  0  0  0  0
  156.7650  211.7350  155.9980 C   0  0  2  0  0  3  0  0  0  0  0  0
  159.5930  212.3610  153.2100 C   0  0  0  0  0  0  0  0  0  0  0  0
  161.1580  205.7880  154.1020 C   0  0  0  0  0  1  0  0  0  0  0  0
  158.1450  211.4520  156.6120 C   0  0  0  0  0  2  0  0  0  0  0  0
  160.0850  213.4810  152.5300 C   0  0  0  0  0  3  0  0  0  0  0  0
  157.3400  212.9610  152.5160 C   0  0  0  0  0  3  0  0  0  0  0  0
  157.8440  214.0710  151.8350 C   0  0  0  0  0  3  0  0  0  0  0  0
  156.5280  211.0280  154.6630 C   0  0  0  0  0  2  0  0  0  0  0  0
  160.6800  210.3330  156.1400 N   0  0  0  0  0  0  0  0  0  0  0  0
  159.2510  212.3930  156.1100 C   0  0  1  0  0  3  0  0  0  0  0  0
  161.0910  209.5020  155.0180 C   0  0  2  0  0  3  0  0  0  0  0  0
  160.5660  211.5320  154.0120 C   0  0  2  0  0  3  0  0  0  0  0  0
  159.9580  214.4530  156.5100 C   0  0  0  0  0  1  0  0  0  0  0  0
  159.6350  213.2520  157.1420 O   0  0  0  0  0  0  0  0  0  0  0  0
  161.8180  210.4200  157.0440 C   0  0  0  0  0  2  0  0  0  0  0  0
  163.0840  210.6790  156.2520 C   0  0  0  0  0  1  0  0  0  0  0  0
  1 14  1  0  0  0  0
  1  4  1  0  0  0  0
  2  6  2  0  0  0  0
  3 17  1  0  0  0  0
  4 20  1  0  0  0  0
  5  6  2  0  0  0  0
  6 12  1  0  0  0  0
  7 15  1  1  0  0  0
  7 11  1  0  0  0  0
  8  6  1  6  0  0  0
  8 24  1  0  0  0  0
  8 23  1  0  0  0  0
 10 22  1  0  0  0  0
 10 21  1  1  0  0  0
 12  7  1  0  0  0  0
 13  9  1  6  0  0  0
 13 16  1  0  0  0  0
 17 14  2  0  0  0  0
 18  1  2  0  0  0  0
 19  3  2  0  0  0  0
 19 18  1  0  0  0  0
 20 13  1  0  0  0  0
 21 27  1  0  0  0  0
 22 16  1  0  0  0  0
 22 26  1  1  0  0  0
 23 11  1  1  0  0  0
 23 21  1  0  0  0  0
 24 14  1  6  0  0  0
 24 10  1  0  0  0  0
 25 26  1  0  0  0  0
 28 27  1  0  0  0  0
M  END
>  <MODEL>
1

>  <REMARK>
 VINA RESULT:      -3.5      0.000      0.000
  Name = 
  2 active torsions:
  status: ('A' for Active; 'I' for Inactive)
    1  A    between atoms: C_5  and  N_24
    2  A    between atoms: O_17  and  C_25
                            x       y       z     vdW  Elec       q    Type
                         _______ _______ _______ _____ _____    ______ ____

>  <TORSDO>
F 2

$$$$
=
 OpenBabel11122414053D

 28 31  0  0  1  0  0  0  0  0999 V2000
  161.1110  209.3660  155.7750 C   0  0  0  0  0  0  0  0  0  0  0  0
  158.5200  212.1850  157.2500 O   0  0  0  0  0  0  0  0  0  0  0  0
  163.4150  210.3330  157.0380 C   0  0  0  0  0  3  0  0  0  0  0  0
  159.9630  208.8920  155.1400 O   0  0  0  0  0  0  0  0  0  0  0  0
  159.7420  213.9810  156.0940 O   0  0  0  0  0  0  0  0  0  0  0  0
  158.7620  212.8540  155.9270 S   0  0  0  0  0  0  0  0  0  0  0  0
  156.6170  212.3950  154.5110 C   0  0  1  0  0  3  0  0  0  0  0  0
  159.3510  211.6720  154.7440 C   0  0  1  0  0  3  0  0  0  0  0  0
  162.0660  207.0340  153.4360 C   0  0  0  0  0  1  0  0  0  0  0  0
  160.9970  211.2570  153.0660 C   0  0  2  0  0  3  0  0  0  0  0  0
  157.3930  212.0150  153.2280 C   0  0  0  0  0  2  0  0  0  0  0  0
  157.2650  213.4660  155.2810 N   0  0  0  0  0  2  0  0  0  0  0  0
  160.6380  207.5210  153.2420 C   0  0  2  0  0  3  0  0  0  0  0  0
  161.5330  210.6910  155.5480 C   0  0  0  0  0  0  0  0  0  0  0  0
  155.2060  212.8060  154.1500 C   0  0  0  0  0  1  0  0  0  0  0  0
  160.5300  208.8010  152.3980 C   0  0  0  0  0  2  0  0  0  0  0  0
  162.6880  211.1630  156.1810 C   0  0  0  0  0  3  0  0  0  0  0  0
  161.8520  208.5340  156.6280 C   0  0  0  0  0  3  0  0  0  0  0  0
  162.9980  209.0200  157.2600 C   0  0  0  0  0  3  0  0  0  0  0  0
  159.8810  207.5920  154.5690 C   0  0  0  0  0  2  0  0  0  0  0  0
  159.7050  211.4870  152.4000 N   0  0  0  0  0  0  0  0  0  0  0  0
  161.5840  209.8640  152.7480 C   0  0  1  0  0  3  0  0  0  0  0  0
  158.9040  212.1710  153.4060 C   0  0  2  0  0  3  0  0  0  0  0  0
  160.8390  211.6010  154.5640 C   0  0  2  0  0  3  0  0  0  0  0  0
  161.9040  209.3060  150.6290 C   0  0  0  0  0  1  0  0  0  0  0  0
  162.5020  209.9700  151.7010 O   0  0  0  0  0  0  0  0  0  0  0  0
  159.9420  212.4390  151.3250 C   0  0  0  0  0  2  0  0  0  0  0  0
  159.7290  213.8510  151.8340 C   0  0  0  0  0  1  0  0  0  0  0  0
  1 18  1  0  0  0  0
  3 19  1  0  0  0  0
  4  1  1  0  0  0  0
  6  5  2  0  0  0  0
  6  2  2  0  0  0  0
  7 15  1  6  0  0  0
  7 12  1  0  0  0  0
  8  6  1  1  0  0  0
 10 21  1  6  0  0  0
 10 24  1  0  0  0  0
 11  7  1  0  0  0  0
 12  6  1  0  0  0  0
 13  9  1  1  0  0  0
 13 20  1  0  0  0  0
 14  1  2  0  0  0  0
 14 17  1  0  0  0  0
 16 22  1  0  0  0  0
 16 13  1  0  0  0  0
 17  3  2  0  0  0  0
 18 19  2  0  0  0  0
 20  4  1  0  0  0  0
 21 23  1  0  0  0  0
 22 26  1  6  0  0  0
 22 10  1  0  0  0  0
 23 11  1  6  0  0  0
 23  8  1  0  0  0  0
 24  8  1  0  0  0  0
 24 14  1  1  0  0  0
 25 26  1  0  0  0  0
 27 28  1  0  0  0  0
 27 21  1  0  0  0  0
M  END
>  <MODEL>
2

>  <REMARK>
 VINA RESULT:      -3.0      2.171      6.087
  Name = 
  2 active torsions:
  status: ('A' for Active; 'I' for Inactive)
    1  A    between atoms: C_5  and  N_24
    2  A    between atoms: O_17  and  C_25
                            x       y       z     vdW  Elec       q    Type
                         _______ _______ _______ _____ _____    ______ ____

>  <TORSDO>
F 2

$$$$
