=
 OpenBabel11122414103D

 28 32  0  0  1  0  0  0  0  0999 V2000
  162.7580  211.5280  139.5640 C   0  0  0  0  0  0  0  0  0  0  0  0
  160.2170  211.3120  143.9100 F   0  0  0  0  0  0  0  0  0  0  0  0
  158.5880  211.9780  137.7180 O   0  0  0  0  0  0  0  0  0  0  0  0
  163.0450  214.2420  138.9430 C   0  0  0  0  0  3  0  0  0  0  0  0
  158.2760  213.0290  139.8640 C   0  0  2  0  0  3  0  0  0  0  0  0
  162.5610  210.1760  139.8520 O   0  0  0  0  0  0  0  0  0  0  0  0
  162.0090  212.5610  144.4420 F   0  0  0  0  0  0  0  0  0  0  0  0
  160.7450  212.5950  143.8870 C   0  0  0  0  0  0  0  0  0  0  0  0
  158.5410  213.6990  144.0060 C   0  0  1  0  0  3  0  0  0  0  0  0
  160.8460  213.1410  142.4450 C   0  0  2  0  0  3  0  0  0  0  0  0
  161.0370  210.4040  137.0120 C   0  0  0  0  0  1  0  0  0  0  0  0
  159.8090  211.4650  140.9920 C   0  0  1  0  0  3  0  0  0  0  0  0
  158.7560  214.4530  142.8380 O   0  0  0  0  0  0  0  0  0  0  0  0
  159.8600  213.4920  144.7360 C   0  0  0  0  0  2  0  0  0  0  0  0
  160.9560  209.4250  138.1700 C   0  0  2  0  0  3  0  0  0  0  0  0
  162.0900  212.4890  140.3370 C   0  0  0  0  0  0  0  0  0  0  0  0
  158.8680  212.0340  138.9440 C   0  0  0  0  0  0  0  0  0  0  0  0
  157.5760  214.4370  144.9100 C   0  0  0  0  0  1  0  0  0  0  0  0
  159.8060  209.7180  139.1480 C   0  0  0  0  0  2  0  0  0  0  0  0
  162.2290  213.8490  140.0070 C   0  0  0  0  0  3  0  0  0  0  0  0
  163.5740  211.9240  138.4950 C   0  0  0  0  0  3  0  0  0  0  0  0
  163.7200  213.2800  138.1890 C   0  0  0  0  0  3  0  0  0  0  0  0
  162.3170  209.2100  138.8390 C   0  0  0  0  0  2  0  0  0  0  0  0
  158.7680  212.5720  141.2340 C   0  0  1  0  0  3  0  0  0  0  0  0
  159.7450  211.1180  139.5770 N   0  0  0  0  0  0  0  0  0  0  0  0
  159.5220  213.7040  141.9130 C   0  0  2  0  0  3  0  0  0  0  0  0
  156.8850  212.9440  139.8220 O   0  0  0  0  0  1  0  0  0  0  0  0
  161.1770  212.0250  141.4550 C   0  0  1  0  0  3  0  0  0  0  0  0
  1  6  1  0  0  0  0
  1 16  1  0  0  0  0
  3 17  2  0  0  0  0
  4 20  1  0  0  0  0
  5 27  1  1  0  0  0
  5 24  1  0  0  0  0
  8  2  1  0  0  0  0
  8  7  1  0  0  0  0
  8 14  1  0  0  0  0
  9 14  1  0  0  0  0
  9 18  1  1  0  0  0
 10  8  1  1  0  0  0
 12 25  1  6  0  0  0
 12 24  1  0  0  0  0
 12 28  1  0  0  0  0
 13  9  1  0  0  0  0
 15 11  1  6  0  0  0
 15 23  1  0  0  0  0
 15 19  1  0  0  0  0
 16 28  1  0  0  0  0
 17 25  1  0  0  0  0
 17  5  1  0  0  0  0
 19 25  1  0  0  0  0
 20 16  2  0  0  0  0
 21  1  2  0  0  0  0
 22 21  1  0  0  0  0
 22  4  2  0  0  0  0
 23  6  1  0  0  0  0
 24 26  1  0  0  0  0
 26 10  1  0  0  0  0
 26 13  1  0  0  0  0
 28 10  1  0  0  0  0
M  END
>  <MODEL>
1

>  <REMARK>
 VINA RESULT:      -4.6      0.000      0.000
  Name = 
  0 active torsions:
  status: ('A' for Active; 'I' for Inactive)
                            x       y       z     vdW  Elec       q    Type
                         _______ _______ _______ _____ _____    ______ ____

>  <TORSDO>
F 0

$$$$
=
 OpenBabel11122414103D

 28 32  0  0  1  0  0  0  0  0999 V2000
  160.7340  209.7520  155.8230 C   0  0  0  0  0  0  0  0  0  0  0  0
  155.8160  210.5340  155.0580 F   0  0  0  0  0  0  0  0  0  0  0  0
  161.2000  211.9140  151.8090 O   0  0  0  0  0  0  0  0  0  0  0  0
  161.7540  212.1150  156.9230 C   0  0  0  0  0  3  0  0  0  0  0  0
  159.2180  212.9640  152.6910 C   0  0  2  0  0  3  0  0  0  0  0  0
  160.2290  208.5980  155.2230 O   0  0  0  0  0  0  0  0  0  0  0  0
  156.0450  210.9230  157.2600 F   0  0  0  0  0  0  0  0  0  0  0  0
  156.1690  211.4850  156.0040 C   0  0  0  0  0  0  0  0  0  0  0  0
  155.4970  213.3980  154.5970 C   0  0  1  0  0  3  0  0  0  0  0  0
  157.6250  211.9640  155.8110 C   0  0  2  0  0  3  0  0  0  0  0  0
  162.4420  209.4800  153.0400 C   0  0  0  0  0  1  0  0  0  0  0  0
  158.4470  210.8890  153.7710 C   0  0  1  0  0  3  0  0  0  0  0  0
  156.7580  214.0150  154.6780 O   0  0  0  0  0  0  0  0  0  0  0  0
  155.2040  212.6530  155.8920 C   0  0  0  0  0  2  0  0  0  0  0  0
  161.2020  208.6040  152.9820 C   0  0  2  0  0  3  0  0  0  0  0  0
  159.9180  210.8910  155.8960 C   0  0  0  0  0  0  0  0  0  0  0  0
  160.1440  211.8290  152.4900 C   0  0  0  0  0  0  0  0  0  0  0  0
  154.4340  214.4530  154.3740 C   0  0  0  0  0  1  0  0  0  0  0  0
  159.9550  209.3290  152.4500 C   0  0  0  0  0  2  0  0  0  0  0  0
  160.4450  212.0770  156.4360 C   0  0  0  0  0  3  0  0  0  0  0  0
  162.0490  209.7940  156.3100 C   0  0  0  0  0  3  0  0  0  0  0  0
  162.5550  210.9730  156.8620 C   0  0  0  0  0  3  0  0  0  0  0  0
  160.9800  207.8350  154.2880 C   0  0  0  0  0  2  0  0  0  0  0  0
  158.0290  212.3230  153.4000 C   0  0  1  0  0  3  0  0  0  0  0  0
  159.7120  210.6220  153.0950 N   0  0  0  0  0  0  0  0  0  0  0  0
  157.7750  213.0310  154.7210 C   0  0  2  0  0  3  0  0  0  0  0  0
  158.8050  213.4620  151.4550 O   0  0  0  0  0  1  0  0  0  0  0  0
  158.5180  210.8270  155.3170 C   0  0  1  0  0  3  0  0  0  0  0  0
  1 16  2  0  0  0  0
  1 21  1  0  0  0  0
  2  8  1  0  0  0  0
  3 17  2  0  0  0  0
  5 27  1  6  0  0  0
  5 24  1  0  0  0  0
  6  1  1  0  0  0  0
  8  7  1  0  0  0  0
  9 18  1  1  0  0  0
  9 13  1  0  0  0  0
  9 14  1  0  0  0  0
 10  8  1  6  0  0  0
 12 25  1  6  0  0  0
 12 28  1  0  0  0  0
 13 26  1  0  0  0  0
 14  8  1  0  0  0  0
 15 11  1  1  0  0  0
 15 23  1  0  0  0  0
 16 20  1  0  0  0  0
 17  5  1  0  0  0  0
 17 25  1  0  0  0  0
 19 15  1  0  0  0  0
 19 25  1  0  0  0  0
 20  4  2  0  0  0  0
 21 22  2  0  0  0  0
 22  4  1  0  0  0  0
 23  6  1  0  0  0  0
 24 12  1  0  0  0  0
 24 26  1  0  0  0  0
 26 10  1  0  0  0  0
 28 10  1  0  0  0  0
 28 16  1  0  0  0  0
M  END
>  <MODEL>
2

>  <REMARK>
 VINA RESULT:      -3.1     12.243     14.304
  Name = 
  0 active torsions:
  status: ('A' for Active; 'I' for Inactive)
                            x       y       z     vdW  Elec       q    Type
                         _______ _______ _______ _____ _____    ______ ____

>  <TORSDO>
F 0

$$$$
=
 OpenBabel11122414103D

 28 32  0  0  1  0  0  0  0  0999 V2000
  160.8030  208.9100  155.9950 C   0  0  0  0  0  0  0  0  0  0  0  0
  157.1760  211.2040  153.3550 F   0  0  0  0  0  0  0  0  0  0  0  0
  162.7920  208.4160  151.8960 O   0  0  0  0  0  0  0  0  0  0  0  0
  162.7940  210.8260  156.4440 C   0  0  0  0  0  3  0  0  0  0  0  0
  161.5890  210.4830  151.5970 C   0  0  2  0  0  3  0  0  0  0  0  0
  159.8330  207.9470  155.7170 O   0  0  0  0  0  0  0  0  0  0  0  0
  157.3290  212.4770  155.2010 F   0  0  0  0  0  0  0  0  0  0  0  0
  157.8720  212.2440  153.9530 C   0  0  0  0  0  0  0  0  0  0  0  0
  158.4830  213.3070  151.8110 C   0  0  1  0  0  3  0  0  0  0  0  0
  159.3710  211.9050  154.1140 C   0  0  2  0  0  3  0  0  0  0  0  0
  162.4030  206.6290  154.2690 C   0  0  0  0  0  1  0  0  0  0  0  0
  159.7170  209.7430  153.0180 C   0  0  1  0  0  3  0  0  0  0  0  0
  159.8610  213.2890  152.0910 O   0  0  0  0  0  0  0  0  0  0  0  0
  157.6960  213.4900  153.1000 C   0  0  0  0  0  2  0  0  0  0  0  0
  160.9030  206.4510  154.1100 C   0  0  2  0  0  3  0  0  0  0  0  0
  160.7160  210.1600  155.3650 C   0  0  0  0  0  0  0  0  0  0  0  0
  161.7850  209.1270  152.1530 C   0  0  0  0  0  0  0  0  0  0  0  0
  158.1770  214.4530  150.8690 C   0  0  0  0  0  1  0  0  0  0  0  0
  160.3010  207.2720  152.9570 C   0  0  0  0  0  2  0  0  0  0  0  0
  161.7290  211.1100  155.5850 C   0  0  0  0  0  3  0  0  0  0  0  0
  161.8750  208.6260  156.8540 C   0  0  0  0  0  3  0  0  0  0  0  0
  162.8650  209.5850  157.0800 C   0  0  0  0  0  3  0  0  0  0  0  0
  160.1620  206.5910  155.4420 C   0  0  0  0  0  2  0  0  0  0  0  0
  160.1710  210.8360  152.0340 C   0  0  1  0  0  3  0  0  0  0  0  0
  160.7130  208.6790  152.9650 N   0  0  0  0  0  0  0  0  0  0  0  0
  160.1870  212.1280  152.8350 C   0  0  2  0  0  3  0  0  0  0  0  0
  161.6450  210.4370  150.2040 O   0  0  0  0  0  1  0  0  0  0  0  0
  159.5710  210.4180  154.4040 C   0  0  1  0  0  3  0  0  0  0  0  0
  1 21  1  0  0  0  0
  2  8  1  0  0  0  0
  3 17  2  0  0  0  0
  4 22  1  0  0  0  0
  5 27  1  6  0  0  0
  5 24  1  0  0  0  0
  5 17  1  0  0  0  0
  6  1  1  0  0  0  0
  8  7  1  0  0  0  0
  9 18  1  6  0  0  0
  9 13  1  0  0  0  0
  9 14  1  0  0  0  0
 10  8  1  6  0  0  0
 10 28  1  0  0  0  0
 12 25  1  1  0  0  0
 12 28  1  0  0  0  0
 13 26  1  0  0  0  0
 14  8  1  0  0  0  0
 15 11  1  1  0  0  0
 15 23  1  0  0  0  0
 16 20  1  0  0  0  0
 16  1  2  0  0  0  0
 17 25  1  0  0  0  0
 19 25  1  0  0  0  0
 19 15  1  0  0  0  0
 20  4  2  0  0  0  0
 21 22  2  0  0  0  0
 23  6  1  0  0  0  0
 24 26  1  0  0  0  0
 24 12  1  0  0  0  0
 26 10  1  0  0  0  0
 28 16  1  0  0  0  0
M  END
>  <MODEL>
3

>  <REMARK>
 VINA RESULT:      -2.6     11.139     13.810
  Name = 
  0 active torsions:
  status: ('A' for Active; 'I' for Inactive)
                            x       y       z     vdW  Elec       q    Type
                         _______ _______ _______ _____ _____    ______ ____

>  <TORSDO>
F 0

$$$$
=
 OpenBabel11122414103D

 28 32  0  0  1  0  0  0  0  0999 V2000
  161.6890  210.0250  154.2390 C   0  0  0  0  0  0  0  0  0  0  0  0
  160.4760  214.2440  151.7650 F   0  0  0  0  0  0  0  0  0  0  0  0
  157.6820  210.7030  156.3580 O   0  0  0  0  0  0  0  0  0  0  0  0
  160.3570  207.9320  152.9440 C   0  0  0  0  0  3  0  0  0  0  0  0
  157.2390  211.6460  154.1850 C   0  0  2  0  0  3  0  0  0  0  0  0
  162.3030  211.0820  154.9130 O   0  0  0  0  0  0  0  0  0  0  0  0
  161.3770  212.9620  150.1520 F   0  0  0  0  0  0  0  0  0  0  0  0
  160.2180  213.2290  150.8560 C   0  0  0  0  0  0  0  0  0  0  0  0
  157.8280  213.7990  150.6230 C   0  0  1  0  0  3  0  0  0  0  0  0
  159.7530  211.9370  151.5640 C   0  0  2  0  0  3  0  0  0  0  0  0
  160.4240  209.8970  157.2590 C   0  0  0  0  0  1  0  0  0  0  0  0
  159.5430  212.4840  153.9410 C   0  0  1  0  0  3  0  0  0  0  0  0
  157.3940  212.5070  150.9700 O   0  0  0  0  0  0  0  0  0  0  0  0
  159.1550  213.7160  149.8840 C   0  0  0  0  0  2  0  0  0  0  0  0
  161.0870  211.2440  157.0260 C   0  0  2  0  0  3  0  0  0  0  0  0
  160.7580  210.3150  153.2310 C   0  0  0  0  0  0  0  0  0  0  0  0
  158.0990  211.3180  155.3420 C   0  0  0  0  0  0  0  0  0  0  0  0
  156.7960  214.4530  149.7290 C   0  0  0  0  0  1  0  0  0  0  0  0
  160.1540  212.2930  156.3990 C   0  0  0  0  0  2  0  0  0  0  0  0
  160.0830  209.2570  152.5970 C   0  0  0  0  0  3  0  0  0  0  0  0
  161.9600  208.6940  154.5870 C   0  0  0  0  0  3  0  0  0  0  0  0
  161.2980  207.6500  153.9370 C   0  0  0  0  0  3  0  0  0  0  0  0
  162.4430  211.1030  156.3280 C   0  0  0  0  0  2  0  0  0  0  0  0
  158.1320  212.5390  153.3290 C   0  0  1  0  0  3  0  0  0  0  0  0
  159.4270  211.8020  155.2250 N   0  0  0  0  0  0  0  0  0  0  0  0
  158.2660  211.9480  151.9350 C   0  0  2  0  0  3  0  0  0  0  0  0
  156.1300  212.3760  154.6120 O   0  0  0  0  0  1  0  0  0  0  0  0
  160.4520  211.7660  152.9120 C   0  0  1  0  0  3  0  0  0  0  0  0
  1 21  1  0  0  0  0
  1  6  1  0  0  0  0
  4 22  1  0  0  0  0
  5 27  1  1  0  0  0
  5 17  1  0  0  0  0
  6 23  1  0  0  0  0
  7  8  1  0  0  0  0
  8  2  1  0  0  0  0
  9 18  1  6  0  0  0
  9 13  1  0  0  0  0
 10  8  1  1  0  0  0
 10 26  1  0  0  0  0
 10 28  1  0  0  0  0
 12 25  1  1  0  0  0
 13 26  1  0  0  0  0
 14  9  1  0  0  0  0
 14  8  1  0  0  0  0
 15 11  1  6  0  0  0
 16  1  2  0  0  0  0
 17  3  2  0  0  0  0
 19 15  1  0  0  0  0
 20  4  2  0  0  0  0
 20 16  1  0  0  0  0
 22 21  2  0  0  0  0
 23 15  1  0  0  0  0
 24 12  1  0  0  0  0
 24  5  1  0  0  0  0
 25 17  1  0  0  0  0
 25 19  1  0  0  0  0
 26 24  1  0  0  0  0
 28 16  1  0  0  0  0
 28 12  1  0  0  0  0
M  END
>  <MODEL>
4

>  <REMARK>
 VINA RESULT:      -2.3     10.287     13.678
  Name = 
  0 active torsions:
  status: ('A' for Active; 'I' for Inactive)
                            x       y       z     vdW  Elec       q    Type
                         _______ _______ _______ _____ _____    ______ ____

>  <TORSDO>
F 0

$$$$
