=
 OpenBabel11122414043D

 28 32  0  0  1  0  0  0  0  0999 V2000
  158.3900  212.7110  152.7860 C   0  0  0  0  0  0  0  0  0  0  0  0
  161.7060  210.1690  149.9870 O   0  0  0  0  0  0  0  0  0  0  0  0
  162.5160  210.8210  156.8010 O   0  0  0  0  0  1  0  0  0  0  0  0
  159.8370  213.8740  150.6820 C   0  0  0  0  0  3  0  0  0  0  0  0
  161.3500  209.1470  155.5150 C   0  0  1  0  0  3  0  0  0  0  0  0
  157.5860  212.2020  153.9440 C   0  0  0  0  0  2  0  0  0  0  0  0
  163.0010  210.3000  152.0620 O   0  0  0  0  0  0  0  0  0  0  0  0
  161.8720  209.5940  151.3650 S   0  0  0  0  0  0  0  0  0  0  0  0
  162.1760  207.3520  152.5790 C   0  0  2  0  0  3  0  0  0  0  0  0
  160.3400  209.7870  152.2730 C   0  0  1  0  0  3  0  0  0  0  0  0
  159.6060  214.4530  155.5040 O   0  0  0  0  0  0  0  0  0  0  0  0
  159.8400  210.7120  154.4620 N   0  0  1  0  0  0  0  0  0  0  0  0
  160.7320  207.2810  153.0610 C   0  0  0  0  0  2  0  0  0  0  0  0
  162.2350  207.9090  151.2360 N   0  0  0  0  0  2  0  0  0  0  0  0
  159.0260  213.3470  155.6500 C   0  0  0  0  0  0  0  0  0  0  0  0
  159.6850  212.2170  152.4620 C   0  0  0  0  0  0  0  0  0  0  0  0
  161.2590  210.3870  156.3760 C   0  0  2  0  0  3  0  0  0  0  0  0
  162.7670  205.9580  152.5690 C   0  0  0  0  0  1  0  0  0  0  0  0
  159.7150  212.2590  156.2640 N   0  0  0  0  0  2  0  0  0  0  0  0
  160.3880  212.8200  151.4090 C   0  0  0  0  0  3  0  0  0  0  0  0
  157.8480  213.7690  152.0450 C   0  0  0  0  0  3  0  0  0  0  0  0
  158.5640  214.3470  150.9960 C   0  0  0  0  0  3  0  0  0  0  0  0
  157.6340  213.1640  155.1330 C   0  0  0  0  0  2  0  0  0  0  0  0
  160.0950  209.2870  154.6530 C   0  0  1  0  0  3  0  0  0  0  0  0
  160.6110  211.4240  155.4800 C   0  0  2  0  0  3  0  0  0  0  0  0
  160.0940  208.6630  153.2660 C   0  0  1  0  0  3  0  0  0  0  0  0
  162.5100  209.2040  154.7350 O   0  0  0  0  0  1  0  0  0  0  0  0
  160.3720  211.0460  153.1370 C   0  0  2  0  0  3  0  0  0  0  0  0
  1  6  1  0  0  0  0
  2  8  2  0  0  0  0
  4 22  2  0  0  0  0
  4 20  1  0  0  0  0
  5 27  1  6  0  0  0
  5 17  1  0  0  0  0
  6 23  1  0  0  0  0
  8  7  2  0  0  0  0
  9 18  1  6  0  0  0
  9 13  1  0  0  0  0
 10  8  1  1  0  0  0
 10 28  1  0  0  0  0
 10 26  1  0  0  0  0
 11 15  2  0  0  0  0
 12 24  1  0  0  0  0
 12 25  1  0  0  0  0
 13 26  1  0  0  0  0
 14  8  1  0  0  0  0
 14  9  1  0  0  0  0
 15 19  1  0  0  0  0
 16  1  1  0  0  0  0
 16 28  1  0  0  0  0
 17  3  1  0  0  0  0
 20 16  2  0  0  0  0
 21  1  2  0  0  0  0
 22 21  1  0  0  0  0
 23 15  1  0  0  0  0
 24  5  1  0  0  0  0
 25 19  1  0  0  0  0
 25 17  1  0  0  0  0
 26 24  1  0  0  0  0
 28 12  1  0  0  0  0
M  END
>  <MODEL>
1

>  <REMARK>
 VINA RESULT:      -4.0      0.000      0.000
  Name = 
  0 active torsions:
  status: ('A' for Active; 'I' for Inactive)
                            x       y       z     vdW  Elec       q    Type
                         _______ _______ _______ _____ _____    ______ ____

>  <TORSDO>
F 0

$$$$
=
 OpenBabel11122414043D

 28 32  0  0  1  0  0  0  0  0999 V2000
  158.4480  213.9520  140.0000 C   0  0  0  0  0  0  0  0  0  0  0  0
  163.0640  214.4530  141.9320 O   0  0  0  0  0  0  0  0  0  0  0  0
  161.6060  209.5020  137.3640 O   0  0  0  0  0  1  0  0  0  0  0  0
  158.9930  213.7640  142.7460 C   0  0  0  0  0  3  0  0  0  0  0  0
  162.3630  211.7670  137.0320 C   0  0  1  0  0  3  0  0  0  0  0  0
  158.0470  214.0070  138.5570 C   0  0  0  0  0  2  0  0  0  0  0  0
  163.3450  212.2620  140.8750 O   0  0  0  0  0  0  0  0  0  0  0  0
  163.2870  213.7440  140.6270 S   0  0  0  0  0  0  0  0  0  0  0  0
  164.8570  213.7310  138.5960 C   0  0  2  0  0  3  0  0  0  0  0  0
  161.9590  214.1530  139.4990 C   0  0  1  0  0  3  0  0  0  0  0  0
  157.3570  210.7570  139.2930 O   0  0  0  0  0  0  0  0  0  0  0  0
  160.4760  212.7810  138.1490 N   0  0  1  0  0  0  0  0  0  0  0  0
  163.8720  214.4480  137.6800 C   0  0  0  0  0  2  0  0  0  0  0  0
  164.7840  214.2750  139.9430 N   0  0  0  0  0  2  0  0  0  0  0  0
  157.7610  211.5210  138.3790 C   0  0  0  0  0  0  0  0  0  0  0  0
  159.7150  213.4750  140.4360 C   0  0  0  0  0  0  0  0  0  0  0  0
  161.2060  210.7930  137.0110 C   0  0  2  0  0  3  0  0  0  0  0  0
  166.2610  213.9140  138.0570 C   0  0  0  0  0  1  0  0  0  0  0  0
  158.8660  211.1320  137.5650 N   0  0  0  0  0  2  0  0  0  0  0  0
  159.9600  213.3860  141.8140 C   0  0  0  0  0  3  0  0  0  0  0  0
  157.4880  214.3300  140.9470 C   0  0  0  0  0  3  0  0  0  0  0  0
  157.7580  214.2410  142.3130 C   0  0  0  0  0  3  0  0  0  0  0  0
  157.1110  212.8540  138.1850 C   0  0  0  0  0  2  0  0  0  0  0  0
  161.6410  213.0840  137.3230 C   0  0  1  0  0  3  0  0  0  0  0  0
  160.2270  211.3460  138.0280 C   0  0  2  0  0  3  0  0  0  0  0  0
  162.4040  214.1840  138.0460 C   0  0  1  0  0  3  0  0  0  0  0  0
  163.2410  211.4290  138.0660 O   0  0  0  0  0  1  0  0  0  0  0  0
  160.8670  213.0850  139.5300 C   0  0  2  0  0  3  0  0  0  0  0  0
  1 16  2  0  0  0  0
  1 21  1  0  0  0  0
  5 24  1  0  0  0  0
  5 27  1  1  0  0  0
  6  1  1  0  0  0  0
  8  7  2  0  0  0  0
  8  2  2  0  0  0  0
  9 18  1  6  0  0  0
  9 14  1  0  0  0  0
 10 28  1  0  0  0  0
 10  8  1  1  0  0  0
 12 28  1  0  0  0  0
 13 26  1  0  0  0  0
 13  9  1  0  0  0  0
 14  8  1  0  0  0  0
 15 11  2  0  0  0  0
 16 20  1  0  0  0  0
 17  5  1  0  0  0  0
 17  3  1  0  0  0  0
 17 25  1  0  0  0  0
 19 25  1  0  0  0  0
 19 15  1  0  0  0  0
 20  4  2  0  0  0  0
 21 22  2  0  0  0  0
 22  4  1  0  0  0  0
 23 15  1  0  0  0  0
 23  6  1  0  0  0  0
 24 26  1  0  0  0  0
 24 12  1  0  0  0  0
 25 12  1  0  0  0  0
 26 10  1  0  0  0  0
 28 16  1  0  0  0  0
M  END
>  <MODEL>
2

>  <REMARK>
 VINA RESULT:      -3.6     12.233     15.124
  Name = 
  0 active torsions:
  status: ('A' for Active; 'I' for Inactive)
                            x       y       z     vdW  Elec       q    Type
                         _______ _______ _______ _____ _____    ______ ____

>  <TORSDO>
F 0

$$$$
=
 OpenBabel11122414043D

 28 32  0  0  1  0  0  0  0  0999 V2000
  160.7770  209.0760  154.4600 C   0  0  0  0  0  0  0  0  0  0  0  0
  158.2200  212.3770  157.2610 O   0  0  0  0  0  0  0  0  0  0  0  0
  160.3120  213.9460  150.8830 O   0  0  0  0  0  1  0  0  0  0  0  0
  161.6920  210.0230  156.9380 C   0  0  0  0  0  3  0  0  0  0  0  0
  158.2710  212.9180  151.6550 C   0  0  1  0  0  3  0  0  0  0  0  0
  160.4000  208.5250  153.1180 C   0  0  0  0  0  2  0  0  0  0  0  0
  158.9380  213.8910  155.4740 O   0  0  0  0  0  0  0  0  0  0  0  0
  157.9570  212.8140  155.8480 S   0  0  0  0  0  0  0  0  0  0  0  0
  156.0640  213.6440  154.3240 C   0  0  2  0  0  3  0  0  0  0  0  0
  158.1100  211.4030  154.7560 C   0  0  1  0  0  3  0  0  0  0  0  0
  163.1740  210.3270  152.3170 O   0  0  0  0  0  0  0  0  0  0  0  0
  159.3710  211.0440  152.7110 N   0  0  1  0  0  0  0  0  0  0  0  0
  155.8900  212.3070  153.6140 C   0  0  0  0  0  2  0  0  0  0  0  0
  156.3470  213.4340  155.7360 N   0  0  0  0  0  2  0  0  0  0  0  0
  162.0490  209.9630  151.8890 C   0  0  0  0  0  0  0  0  0  0  0  0
  160.4150  210.3810  154.8940 C   0  0  0  0  0  0  0  0  0  0  0  0
  159.6320  212.7340  151.0200 C   0  0  2  0  0  3  0  0  0  0  0  0
  154.7920  214.4530  154.1830 C   0  0  0  0  0  1  0  0  0  0  0  0
  161.2110  210.8980  151.2120 N   0  0  0  0  0  2  0  0  0  0  0  0
  160.8890  210.8320  156.1340 C   0  0  0  0  0  3  0  0  0  0  0  0
  161.5820  208.2730  155.2790 C   0  0  0  0  0  3  0  0  0  0  0  0
  162.0350  208.7410  156.5130 C   0  0  0  0  0  3  0  0  0  0  0  0
  161.5760  208.5670  152.1380 C   0  0  0  0  0  2  0  0  0  0  0  0
  158.0620  211.5560  152.3170 C   0  0  1  0  0  3  0  0  0  0  0  0
  160.3710  211.8110  151.9700 C   0  0  2  0  0  3  0  0  0  0  0  0
  157.1820  211.4790  153.5550 C   0  0  1  0  0  3  0  0  0  0  0  0
  158.3340  213.9410  152.6060 O   0  0  0  0  0  1  0  0  0  0  0  0
  159.5080  211.3370  154.1420 C   0  0  2  0  0  3  0  0  0  0  0  0
  1 16  2  0  0  0  0
  1 21  1  0  0  0  0
  3 17  1  0  0  0  0
  5 24  1  0  0  0  0
  5 27  1  1  0  0  0
  6  1  1  0  0  0  0
  7  8  2  0  0  0  0
  8  2  2  0  0  0  0
  9 18  1  1  0  0  0
  9 14  1  0  0  0  0
 10  8  1  1  0  0  0
 12 28  1  0  0  0  0
 13  9  1  0  0  0  0
 14  8  1  0  0  0  0
 15 23  1  0  0  0  0
 15 11  2  0  0  0  0
 16 20  1  0  0  0  0
 17  5  1  0  0  0  0
 17 25  1  0  0  0  0
 19 15  1  0  0  0  0
 19 25  1  0  0  0  0
 20  4  2  0  0  0  0
 21 22  2  0  0  0  0
 22  4  1  0  0  0  0
 23  6  1  0  0  0  0
 24 12  1  0  0  0  0
 24 26  1  0  0  0  0
 25 12  1  0  0  0  0
 26 13  1  0  0  0  0
 26 10  1  0  0  0  0
 28 10  1  0  0  0  0
 28 16  1  0  0  0  0
M  END
>  <MODEL>
3

>  <REMARK>
 VINA RESULT:      -3.4      2.283      6.431
  Name = 
  0 active torsions:
  status: ('A' for Active; 'I' for Inactive)
                            x       y       z     vdW  Elec       q    Type
                         _______ _______ _______ _____ _____    ______ ____

>  <TORSDO>
F 0

$$$$
=
 OpenBabel11122414043D

 28 32  0  0  1  0  0  0  0  0999 V2000
  160.4940  205.7880  150.7240 C   0  0  0  0  0  0  0  0  0  0  0  0
  160.5050  206.3050  155.7250 O   0  0  0  0  0  0  0  0  0  0  0  0
  163.8510  210.7480  151.6530 O   0  0  0  0  0  1  0  0  0  0  0  0
  161.5030  203.8360  152.4680 C   0  0  0  0  0  3  0  0  0  0  0  0
  161.5760  210.7630  152.4540 C   0  0  1  0  0  3  0  0  0  0  0  0
  160.0090  206.7710  149.7010 C   0  0  0  0  0  2  0  0  0  0  0  0
  162.2600  207.9270  155.1860 O   0  0  0  0  0  0  0  0  0  0  0  0
  160.7750  207.6910  155.2130 S   0  0  0  0  0  0  0  0  0  0  0  0
  160.1290  210.1420  155.6230 C   0  0  2  0  0  3  0  0  0  0  0  0
  160.0710  207.8620  153.5760 C   0  0  1  0  0  3  0  0  0  0  0  0
  163.3440  206.7280  149.0200 O   0  0  0  0  0  0  0  0  0  0  0  0
  160.9960  208.6350  151.4670 N   0  0  1  0  0  0  0  0  0  0  0  0
  159.1890  210.2190  154.4260 C   0  0  0  0  0  2  0  0  0  0  0  0
  160.0260  208.8410  156.2650 N   0  0  0  0  0  2  0  0  0  0  0  0
  162.3270  207.4690  149.0420 C   0  0  0  0  0  0  0  0  0  0  0  0
  161.0540  206.1790  151.9720 C   0  0  0  0  0  0  0  0  0  0  0  0
  162.5230  210.4860  151.3070 C   0  0  2  0  0  3  0  0  0  0  0  0
  159.7590  211.2220  156.6180 C   0  0  0  0  0  1  0  0  0  0  0  0
  162.4230  208.7900  149.5710 N   0  0  0  0  0  2  0  0  0  0  0  0
  161.5550  205.1840  152.8230 C   0  0  0  0  0  3  0  0  0  0  0  0
  160.4470  204.4300  150.3810 C   0  0  0  0  0  3  0  0  0  0  0  0
  160.9440  203.4580  151.2490 C   0  0  0  0  0  3  0  0  0  0  0  0
  161.0140  206.9420  148.5590 C   0  0  0  0  0  2  0  0  0  0  0  0
  160.4290  209.8040  152.1340 C   0  0  1  0  0  3  0  0  0  0  0  0
  162.3310  209.0130  151.0050 C   0  0  2  0  0  3  0  0  0  0  0  0
  159.5860  209.2730  153.2830 C   0  0  1  0  0  3  0  0  0  0  0  0
  162.1940  210.4300  153.6630 O   0  0  0  0  0  1  0  0  0  0  0  0
  161.1220  207.6000  152.4980 C   0  0  2  0  0  3  0  0  0  0  0  0
  1 16  1  0  0  0  0
  4 20  1  0  0  0  0
  5 27  1  1  0  0  0
  6  1  1  0  0  0  0
  7  8  2  0  0  0  0
  8  2  2  0  0  0  0
  8 14  1  0  0  0  0
  9 14  1  0  0  0  0
  9 18  1  1  0  0  0
 10  8  1  1  0  0  0
 11 15  2  0  0  0  0
 12 24  1  0  0  0  0
 12 28  1  0  0  0  0
 13  9  1  0  0  0  0
 15 19  1  0  0  0  0
 16 28  1  0  0  0  0
 16 20  2  0  0  0  0
 17  3  1  0  0  0  0
 17  5  1  0  0  0  0
 19 25  1  0  0  0  0
 21  1  2  0  0  0  0
 21 22  1  0  0  0  0
 22  4  2  0  0  0  0
 23 15  1  0  0  0  0
 23  6  1  0  0  0  0
 24  5  1  0  0  0  0
 24 26  1  0  0  0  0
 25 17  1  0  0  0  0
 25 12  1  0  0  0  0
 26 10  1  0  0  0  0
 26 13  1  0  0  0  0
 28 10  1  0  0  0  0
M  END
>  <MODEL>
4

>  <REMARK>
 VINA RESULT:      -1.8      2.719      6.663
  Name = 
  0 active torsions:
  status: ('A' for Active; 'I' for Inactive)
                            x       y       z     vdW  Elec       q    Type
                         _______ _______ _______ _____ _____    ______ ____

>  <TORSDO>
F 0

$$$$
=
 OpenBabel11122414043D

 28 32  0  0  1  0  0  0  0  0999 V2000
  162.5250  207.2730  151.2500 C   0  0  0  0  0  0  0  0  0  0  0  0
  160.5530  211.8760  151.7120 O   0  0  0  0  0  0  0  0  0  0  0  0
  158.4700  206.6640  155.7130 O   0  0  0  0  0  1  0  0  0  0  0  0
  161.1850  208.5870  149.1640 C   0  0  0  0  0  3  0  0  0  0  0  0
  160.2510  208.2620  156.0210 C   0  0  1  0  0  3  0  0  0  0  0  0
  163.2330  206.4690  152.2990 C   0  0  0  0  0  2  0  0  0  0  0  0
  158.9450  210.6480  153.0920 O   0  0  0  0  0  0  0  0  0  0  0  0
  160.3250  211.2430  153.0550 S   0  0  0  0  0  0  0  0  0  0  0  0
  160.4530  211.7660  155.5660 C   0  0  2  0  0  3  0  0  0  0  0  0
  161.5710  209.9860  153.3340 C   0  0  1  0  0  3  0  0  0  0  0  0
  160.4400  204.5840  151.8220 O   0  0  0  0  0  0  0  0  0  0  0  0
  161.4240  207.6550  153.9990 N   0  0  1  0  0  0  0  0  0  0  0  0
  161.7590  211.0090  155.7780 C   0  0  0  0  0  2  0  0  0  0  0  0
  160.4680  212.4510  154.2830 N   0  0  0  0  0  2  0  0  0  0  0  0
  161.2700  204.9560  152.6910 C   0  0  0  0  0  0  0  0  0  0  0  0
  161.4890  208.2010  151.5510 C   0  0  0  0  0  0  0  0  0  0  0  0
  159.8520  206.8550  155.6330 C   0  0  2  0  0  3  0  0  0  0  0  0
  160.2790  212.7810  156.6750 C   0  0  0  0  0  1  0  0  0  0  0  0
  160.8150  205.3560  153.9820 N   0  0  0  0  0  2  0  0  0  0  0  0
  160.8330  208.8400  150.4900 C   0  0  0  0  0  3  0  0  0  0  0  0
  162.8690  207.0300  149.9140 C   0  0  0  0  0  3  0  0  0  0  0  0
  162.2070  207.6850  148.8760 C   0  0  0  0  0  3  0  0  0  0  0  0
  162.7240  205.0260  152.3460 C   0  0  0  0  0  2  0  0  0  0  0  0
  161.5440  208.4380  155.2250 C   0  0  1  0  0  3  0  0  0  0  0  0
  160.3280  206.7090  154.2010 C   0  0  2  0  0  3  0  0  0  0  0  0
  161.9480  209.8410  154.7990 C   0  0  1  0  0  3  0  0  0  0  0  0
  159.2670  209.1610  155.5970 O   0  0  0  0  0  1  0  0  0  0  0  0
  161.0490  208.6040  152.9450 C   0  0  2  0  0  3  0  0  0  0  0  0
  1 16  1  0  0  0  0
  1  6  1  0  0  0  0
  2  8  2  0  0  0  0
  4 20  1  0  0  0  0
  5 27  1  6  0  0  0
  6 23  1  0  0  0  0
  8  7  2  0  0  0  0
  8 14  1  0  0  0  0
  9 13  1  0  0  0  0
  9 18  1  1  0  0  0
 10  8  1  1  0  0  0
 10 26  1  0  0  0  0
 11 15  2  0  0  0  0
 12 25  1  0  0  0  0
 12 24  1  0  0  0  0
 14  9  1  0  0  0  0
 15 19  1  0  0  0  0
 16 28  1  0  0  0  0
 17  3  1  0  0  0  0
 17  5  1  0  0  0  0
 19 25  1  0  0  0  0
 20 16  2  0  0  0  0
 21  1  2  0  0  0  0
 22  4  2  0  0  0  0
 22 21  1  0  0  0  0
 23 15  1  0  0  0  0
 24  5  1  0  0  0  0
 25 17  1  0  0  0  0
 26 24  1  0  0  0  0
 26 13  1  0  0  0  0
 28 10  1  0  0  0  0
 28 12  1  0  0  0  0
M  END
>  <MODEL>
5

>  <REMARK>
 VINA RESULT:      -1.7      2.928      5.918
  Name = 
  0 active torsions:
  status: ('A' for Active; 'I' for Inactive)
                            x       y       z     vdW  Elec       q    Type
                         _______ _______ _______ _____ _____    ______ ____

>  <TORSDO>
F 0

$$$$
=
 OpenBabel11122414043D

 28 32  0  0  1  0  0  0  0  0999 V2000
  160.5850  211.2420  153.4000 C   0  0  0  0  0  0  0  0  0  0  0  0
  162.6850  210.2020  148.9510 O   0  0  0  0  0  0  0  0  0  0  0  0
  156.6350  213.4780  149.3840 O   0  0  0  0  0  1  0  0  0  0  0  0
  161.1610  208.6320  152.5450 C   0  0  0  0  0  3  0  0  0  0  0  0
  158.8870  214.3420  149.3490 C   0  0  1  0  0  3  0  0  0  0  0  0
  160.2100  212.5870  153.9460 C   0  0  0  0  0  2  0  0  0  0  0  0
  160.4630  210.8660  148.1610 O   0  0  0  0  0  0  0  0  0  0  0  0
  161.7860  211.3710  148.6680 S   0  0  0  0  0  0  0  0  0  0  0  0
  161.7290  213.5910  147.3770 C   0  0  2  0  0  3  0  0  0  0  0  0
  161.5730  212.3280  150.1660 C   0  0  1  0  0  3  0  0  0  0  0  0
  157.1410  211.1590  153.5930 O   0  0  0  0  0  0  0  0  0  0  0  0
  159.5980  213.1440  151.3220 N   0  0  1  0  0  0  0  0  0  0  0  0
  161.9420  214.4530  148.6160 C   0  0  0  0  0  2  0  0  0  0  0  0
  162.5200  212.3740  147.4660 N   0  0  0  0  0  2  0  0  0  0  0  0
  157.7600  212.2520  153.5220 C   0  0  0  0  0  0  0  0  0  0  0  0
  160.5630  210.9330  152.0110 C   0  0  0  0  0  0  0  0  0  0  0  0
  157.6660  213.9950  150.1720 C   0  0  2  0  0  3  0  0  0  0  0  0
  162.1450  214.3720  146.1490 C   0  0  0  0  0  1  0  0  0  0  0  0
  157.5000  213.1460  152.4410 N   0  0  0  0  0  2  0  0  0  0  0  0
  160.8500  209.6210  151.6110 C   0  0  0  0  0  3  0  0  0  0  0  0
  160.9010  210.2400  154.3260 C   0  0  0  0  0  3  0  0  0  0  0  0
  161.1920  208.9430  153.9030 C   0  0  0  0  0  3  0  0  0  0  0  0
  158.8010  212.5830  154.5430 C   0  0  0  0  0  2  0  0  0  0  0  0
  160.0010  214.1880  150.3840 C   0  0  1  0  0  3  0  0  0  0  0  0
  158.1580  212.9550  151.1580 C   0  0  2  0  0  3  0  0  0  0  0  0
  161.3940  213.8140  149.9000 C   0  0  1  0  0  3  0  0  0  0  0  0
  159.0280  213.4170  148.3090 O   0  0  0  0  0  1  0  0  0  0  0  0
  160.2930  211.9240  150.8950 C   0  0  2  0  0  3  0  0  0  0  0  0
  1  6  1  0  0  0  0
  1 21  1  0  0  0  0
  3 17  1  0  0  0  0
  4 22  1  0  0  0  0
  5 27  1  6  0  0  0
  5 17  1  0  0  0  0
  5 24  1  0  0  0  0
  6 23  1  0  0  0  0
  7  8  2  0  0  0  0
  8  2  2  0  0  0  0
  9 18  1  6  0  0  0
  9 14  1  0  0  0  0
  9 13  1  0  0  0  0
 10  8  1  6  0  0  0
 10 28  1  0  0  0  0
 13 26  1  0  0  0  0
 14  8  1  0  0  0  0
 15 11  2  0  0  0  0
 15 23  1  0  0  0  0
 16  1  2  0  0  0  0
 17 25  1  0  0  0  0
 19 15  1  0  0  0  0
 20 16  1  0  0  0  0
 20  4  2  0  0  0  0
 22 21  2  0  0  0  0
 24 12  1  0  0  0  0
 25 12  1  0  0  0  0
 25 19  1  0  0  0  0
 26 10  1  0  0  0  0
 26 24  1  0  0  0  0
 28 12  1  0  0  0  0
 28 16  1  0  0  0  0
M  END
>  <MODEL>
6

>  <REMARK>
 VINA RESULT:      -1.0      2.907      5.819
  Name = 
  0 active torsions:
  status: ('A' for Active; 'I' for Inactive)
                            x       y       z     vdW  Elec       q    Type
                         _______ _______ _______ _____ _____    ______ ____

>  <TORSDO>
F 0

$$$$
