=
 OpenBabel11122414073D

 28 32  0  0  1  0  0  0  0  0999 V2000
  157.9290  209.0710  137.8490 C   0  0  0  0  0  0  0  0  0  0  0  0
  157.7000  212.6840  137.0110 O   0  0  0  0  0  0  0  0  0  0  0  0
  163.3700  210.6350  140.7050 O   0  0  0  0  0  0  0  0  0  0  0  0
  155.6390  209.2000  139.4600 C   0  0  0  0  0  3  0  0  0  0  0  0
  161.4220  211.5270  141.8490 C   0  0  2  0  0  3  0  0  0  0  0  0
  159.1580  208.9130  137.0120 C   0  0  0  0  0  2  0  0  0  0  0  0
  157.1410  214.4530  138.6270 O   0  0  0  0  0  0  0  0  0  0  0  0
  158.1820  213.4560  138.2060 S   0  0  0  0  0  0  0  0  0  0  0  0
  160.8330  214.0100  138.5730 C   0  0  0  0  0  0  0  0  0  0  0  0
  158.5330  212.3620  139.5600 C   0  0  2  0  0  3  0  0  0  0  0  0
  161.7600  207.2910  139.0130 O   0  0  0  0  0  0  0  0  0  0  0  0
  159.8490  210.4660  140.2960 C   0  0  2  0  0  3  0  0  0  0  0  0
  160.8150  213.3500  139.6940 N   0  0  0  0  0  0  0  0  0  0  0  0
  159.6470  214.2730  137.8280 N   0  0  0  0  0  2  0  0  0  0  0  0
  161.1450  208.2170  138.4220 C   0  0  0  0  0  0  0  0  0  0  0  0
  157.8470  210.0370  138.8730 C   0  0  0  0  0  0  0  0  0  0  0  0
  162.1180  210.7660  140.7870 C   0  0  0  0  0  0  0  0  0  0  0  0
  162.1390  214.4530  138.0200 C   0  0  0  0  0  1  0  0  0  0  0  0
  161.6110  209.6270  138.5840 C   0  0  0  0  0  2  0  0  0  0  0  0
  156.6990  210.0800  139.6820 C   0  0  0  0  0  3  0  0  0  0  0  0
  156.8630  208.1890  137.6380 C   0  0  0  0  0  3  0  0  0  0  0  0
  155.7200  208.2550  138.4360 C   0  0  0  0  0  3  0  0  0  0  0  0
  160.0220  207.8990  137.5980 N   0  0  0  0  0  2  0  0  0  0  0  0
  159.9860  211.6380  141.2860 C   0  0  2  0  0  3  0  0  0  0  0  0
  161.2140  210.1550  139.8830 N   0  0  0  0  0  0  0  0  0  0  0  0
  159.6380  212.8910  140.4570 C   0  0  2  0  0  3  0  0  0  0  0  0
  162.0920  212.8500  142.2000 C   0  0  0  0  0  1  0  0  0  0  0  0
  158.9960  210.9760  139.1350 C   0  0  1  0  0  3  0  0  0  0  0  0
  1 16  1  0  0  0  0
  2  8  2  0  0  0  0
  3 17  2  0  0  0  0
  4 20  1  0  0  0  0
  5 27  1  6  0  0  0
  6 23  1  0  0  0  0
  6  1  1  0  0  0  0
  8  7  2  0  0  0  0
  9 13  2  0  0  0  0
 10  8  1  6  0  0  0
 10 26  1  0  0  0  0
 12 25  1  6  0  0  0
 12 24  1  0  0  0  0
 13 26  1  0  0  0  0
 14  8  1  0  0  0  0
 14  9  1  0  0  0  0
 15 19  1  0  0  0  0
 15 11  2  0  0  0  0
 16 28  1  0  0  0  0
 16 20  2  0  0  0  0
 17  5  1  0  0  0  0
 18  9  1  0  0  0  0
 19 25  1  0  0  0  0
 21  1  2  0  0  0  0
 21 22  1  0  0  0  0
 22  4  2  0  0  0  0
 23 15  1  0  0  0  0
 24  5  1  0  0  0  0
 25 17  1  0  0  0  0
 26 24  1  0  0  0  0
 28 10  1  0  0  0  0
 28 12  1  0  0  0  0
M  END
>  <MODEL>
1

>  <REMARK>
 VINA RESULT:      -2.6      0.000      0.000
  Name = 
  0 active torsions:
  status: ('A' for Active; 'I' for Inactive)
                            x       y       z     vdW  Elec       q    Type
                         _______ _______ _______ _____ _____    ______ ____

>  <TORSDO>
F 0

$$$$
=
 OpenBabel11122414073D

 28 32  0  0  1  0  0  0  0  0999 V2000
  157.8840  213.2630  153.8220 C   0  0  0  0  0  0  0  0  0  0  0  0
  160.1480  212.1550  156.5530 O   0  0  0  0  0  0  0  0  0  0  0  0
  162.2280  210.7580  149.9410 O   0  0  0  0  0  0  0  0  0  0  0  0
  155.8600  211.5140  154.6590 C   0  0  0  0  0  3  0  0  0  0  0  0
  161.0440  209.0750  151.2320 C   0  0  2  0  0  3  0  0  0  0  0  0
  158.9080  214.2220  153.3070 C   0  0  0  0  0  2  0  0  0  0  0  0
  160.4300  209.8150  157.2610 O   0  0  0  0  0  0  0  0  0  0  0  0
  160.6960  210.8100  156.1670 S   0  0  0  0  0  0  0  0  0  0  0  0
  162.9330  210.5720  154.6150 C   0  0  0  0  0  0  0  0  0  0  0  0
  159.9540  210.2400  154.6580 C   0  0  2  0  0  3  0  0  0  0  0  0
  159.3680  213.6580  149.7180 O   0  0  0  0  0  0  0  0  0  0  0  0
  159.5890  210.7260  152.3140 C   0  0  2  0  0  3  0  0  0  0  0  0
  162.2390  209.9360  153.7160 N   0  0  0  0  0  0  0  0  0  0  0  0
  162.3880  210.9220  155.8850 N   0  0  0  0  0  2  0  0  0  0  0  0
  159.6230  213.6220  150.9510 C   0  0  0  0  0  0  0  0  0  0  0  0
  158.1720  211.8940  154.0000 C   0  0  0  0  0  0  0  0  0  0  0  0
  161.3530  210.4560  150.7980 C   0  0  0  0  0  0  0  0  0  0  0  0
  164.3170  210.9990  154.2860 C   0  0  0  0  0  1  0  0  0  0  0  0
  160.8030  212.8440  151.4330 C   0  0  0  0  0  2  0  0  0  0  0  0
  157.1430  211.0260  154.4060 C   0  0  0  0  0  3  0  0  0  0  0  0
  156.5930  213.7410  154.0730 C   0  0  0  0  0  3  0  0  0  0  0  0
  155.5860  212.8720  154.4950 C   0  0  0  0  0  3  0  0  0  0  0  0
  158.7860  214.3390  151.8610 N   0  0  0  0  0  2  0  0  0  0  0  0
  160.1750  209.3130  152.4890 C   0  0  2  0  0  3  0  0  0  0  0  0
  160.5180  211.4150  151.4240 N   0  0  0  0  0  0  0  0  0  0  0  0
  160.8900  209.3540  153.8550 C   0  0  2  0  0  3  0  0  0  0  0  0
  162.2780  208.2060  151.4430 C   0  0  0  0  0  1  0  0  0  0  0  0
  159.5470  211.3550  153.7050 C   0  0  1  0  0  3  0  0  0  0  0  0
  1 16  2  0  0  0  0
  1 21  1  0  0  0  0
  3 17  2  0  0  0  0
  5 27  1  1  0  0  0
  5 24  1  0  0  0  0
  6  1  1  0  0  0  0
  8  2  2  0  0  0  0
  8  7  2  0  0  0  0
  9 14  1  0  0  0  0
 10  8  1  1  0  0  0
 11 15  2  0  0  0  0
 12 25  1  6  0  0  0
 12 24  1  0  0  0  0
 12 28  1  0  0  0  0
 13 26  1  0  0  0  0
 13  9  2  0  0  0  0
 14  8  1  0  0  0  0
 15 19  1  0  0  0  0
 15 23  1  0  0  0  0
 16 20  1  0  0  0  0
 17  5  1  0  0  0  0
 17 25  1  0  0  0  0
 18  9  1  0  0  0  0
 20  4  2  0  0  0  0
 21 22  2  0  0  0  0
 22  4  1  0  0  0  0
 23  6  1  0  0  0  0
 24 26  1  0  0  0  0
 25 19  1  0  0  0  0
 26 10  1  0  0  0  0
 28 16  1  0  0  0  0
 28 10  1  0  0  0  0
M  END
>  <MODEL>
2

>  <REMARK>
 VINA RESULT:      -1.5     12.604     14.951
  Name = 
  0 active torsions:
  status: ('A' for Active; 'I' for Inactive)
                            x       y       z     vdW  Elec       q    Type
                         _______ _______ _______ _____ _____    ______ ____

>  <TORSDO>
F 0

$$$$
=
 OpenBabel11122414073D

 28 32  0  0  1  0  0  0  0  0999 V2000
  159.1310  211.8830  152.2090 C   0  0  0  0  0  0  0  0  0  0  0  0
  156.7190  212.3450  149.4190 O   0  0  0  0  0  0  0  0  0  0  0  0
  163.5600  211.9600  147.6720 O   0  0  0  0  0  0  0  0  0  0  0  0
  158.4850  214.3790  153.3090 C   0  0  0  0  0  3  0  0  0  0  0  0
  162.4960  214.1210  147.9780 C   0  0  2  0  0  3  0  0  0  0  0  0
  159.5360  210.5410  151.6900 C   0  0  0  0  0  2  0  0  0  0  0  0
  156.4040  214.4530  148.1900 O   0  0  0  0  0  0  0  0  0  0  0  0
  157.3380  213.3050  148.4420 S   0  0  0  0  0  0  0  0  0  0  0  0
  159.0130  212.4440  146.4610 C   0  0  0  0  0  0  0  0  0  0  0  0
  158.8810  213.9250  149.0640 C   0  0  2  0  0  3  0  0  0  0  0  0
  163.1870  210.4190  151.4300 O   0  0  0  0  0  0  0  0  0  0  0  0
  161.0990  213.3290  149.8320 C   0  0  2  0  0  3  0  0  0  0  0  0
  159.9670  213.1810  146.9500 N   0  0  0  0  0  0  0  0  0  0  0  0
  157.6790  212.5000  146.9620 N   0  0  0  0  0  2  0  0  0  0  0  0
  161.9880  210.5060  151.0520 C   0  0  0  0  0  0  0  0  0  0  0  0
  159.1850  213.0380  151.4020 C   0  0  0  0  0  0  0  0  0  0  0  0
  162.7210  212.6870  148.2700 C   0  0  0  0  0  0  0  0  0  0  0  0
  159.3350  211.4670  145.3890 C   0  0  0  0  0  1  0  0  0  0  0  0
  161.6910  210.8110  149.6210 C   0  0  0  0  0  2  0  0  0  0  0  0
  158.8730  214.2850  151.9710 C   0  0  0  0  0  3  0  0  0  0  0  0
  158.7460  211.9880  153.5500 C   0  0  0  0  0  3  0  0  0  0  0  0
  158.4190  213.2300  154.0980 C   0  0  0  0  0  3  0  0  0  0  0  0
  160.9380  210.2990  151.9990 N   0  0  0  0  0  2  0  0  0  0  0  0
  161.1780  214.4070  148.7340 C   0  0  2  0  0  3  0  0  0  0  0  0
  161.9130  212.2230  149.3370 N   0  0  0  0  0  0  0  0  0  0  0  0
  159.8580  214.2610  147.9500 C   0  0  2  0  0  3  0  0  0  0  0  0
  162.4830  214.4530  146.4910 C   0  0  0  0  0  1  0  0  0  0  0  0
  159.6250  212.9490  149.9640 C   0  0  1  0  0  3  0  0  0  0  0  0
  1 21  1  0  0  0  0
  3 17  2  0  0  0  0
  4 22  1  0  0  0  0
  5 27  1  6  0  0  0
  5 17  1  0  0  0  0
  5 24  1  0  0  0  0
  6 23  1  0  0  0  0
  6  1  1  0  0  0  0
  7  8  2  0  0  0  0
  8  2  2  0  0  0  0
  9 13  2  0  0  0  0
  9 14  1  0  0  0  0
 10  8  1  6  0  0  0
 10 28  1  0  0  0  0
 12 25  1  6  0  0  0
 12 28  1  0  0  0  0
 13 26  1  0  0  0  0
 14  8  1  0  0  0  0
 15 11  2  0  0  0  0
 15 23  1  0  0  0  0
 16 20  1  0  0  0  0
 16  1  2  0  0  0  0
 17 25  1  0  0  0  0
 18  9  1  0  0  0  0
 19 15  1  0  0  0  0
 20  4  2  0  0  0  0
 21 22  2  0  0  0  0
 24 12  1  0  0  0  0
 25 19  1  0  0  0  0
 26 24  1  0  0  0  0
 26 10  1  0  0  0  0
 28 16  1  0  0  0  0
M  END
>  <MODEL>
3

>  <REMARK>
 VINA RESULT:      -0.8      8.946     11.281
  Name = 
  0 active torsions:
  status: ('A' for Active; 'I' for Inactive)
                            x       y       z     vdW  Elec       q    Type
                         _______ _______ _______ _____ _____    ______ ____

>  <TORSDO>
F 0

$$$$
=
 OpenBabel11122414073D

 28 32  0  0  1  0  0  0  0  0999 V2000
  159.2040  212.9190  151.8690 C   0  0  0  0  0  0  0  0  0  0  0  0
  159.9910  214.4080  155.1820 O   0  0  0  0  0  0  0  0  0  0  0  0
  161.8710  207.6620  154.2060 O   0  0  0  0  0  0  0  0  0  0  0  0
  156.4460  213.1690  152.3030 C   0  0  0  0  0  3  0  0  0  0  0  0
  159.7620  208.2000  155.2830 C   0  0  2  0  0  3  0  0  0  0  0  0
  160.6560  212.7460  151.5560 C   0  0  0  0  0  2  0  0  0  0  0  0
  158.7800  213.8920  157.2600 O   0  0  0  0  0  0  0  0  0  0  0  0
  159.7260  213.3580  156.2230 S   0  0  0  0  0  0  0  0  0  0  0  0
  161.6310  211.5270  156.9220 C   0  0  0  0  0  0  0  0  0  0  0  0
  159.0280  211.9020  155.4830 C   0  0  2  0  0  3  0  0  0  0  0  0
  161.2460  209.2850  150.5160 O   0  0  0  0  0  0  0  0  0  0  0  0
  159.3640  210.1480  153.8470 C   0  0  2  0  0  3  0  0  0  0  0  0
  160.8440  210.5640  156.5390 N   0  0  0  0  0  0  0  0  0  0  0  0
  161.2000  212.8850  156.9720 N   0  0  0  0  0  2  0  0  0  0  0  0
  161.2460  210.3000  151.2620 C   0  0  0  0  0  0  0  0  0  0  0  0
  158.6300  212.3910  153.0440 C   0  0  0  0  0  0  0  0  0  0  0  0
  160.8640  208.4120  154.3170 C   0  0  0  0  0  0  0  0  0  0  0  0
  163.0420  211.2110  157.2610 C   0  0  0  0  0  1  0  0  0  0  0  0
  161.6840  210.1640  152.6840 C   0  0  0  0  0  2  0  0  0  0  0  0
  157.2440  212.5110  153.2410 C   0  0  0  0  0  3  0  0  0  0  0  0
  158.3950  213.5720  150.9320 C   0  0  0  0  0  3  0  0  0  0  0  0
  157.0230  213.7020  151.1500 C   0  0  0  0  0  3  0  0  0  0  0  0
  160.8410  211.5630  150.7300 N   0  0  0  0  0  2  0  0  0  0  0  0
  159.0060  209.5470  155.2200 C   0  0  2  0  0  3  0  0  0  0  0  0
  160.6410  209.5400  153.4870 N   0  0  0  0  0  0  0  0  0  0  0  0
  159.4010  210.6370  156.2360 C   0  0  2  0  0  3  0  0  0  0  0  0
  160.2320  207.7770  156.6690 C   0  0  0  0  0  1  0  0  0  0  0  0
  159.4790  211.6580  154.0490 C   0  0  1  0  0  3  0  0  0  0  0  0
  1 16  1  0  0  0  0
  2  8  2  0  0  0  0
  3 17  2  0  0  0  0
  4 20  1  0  0  0  0
  5 27  1  1  0  0  0
  6  1  1  0  0  0  0
  8 14  1  0  0  0  0
  8  7  2  0  0  0  0
  9 14  1  0  0  0  0
  9 18  1  0  0  0  0
 10  8  1  1  0  0  0
 10 26  1  0  0  0  0
 11 15  2  0  0  0  0
 12 25  1  1  0  0  0
 12 28  1  0  0  0  0
 12 24  1  0  0  0  0
 13  9  2  0  0  0  0
 15 19  1  0  0  0  0
 16 20  2  0  0  0  0
 16 28  1  0  0  0  0
 17  5  1  0  0  0  0
 19 25  1  0  0  0  0
 21 22  1  0  0  0  0
 21  1  2  0  0  0  0
 22  4  2  0  0  0  0
 23 15  1  0  0  0  0
 23  6  1  0  0  0  0
 24  5  1  0  0  0  0
 24 26  1  0  0  0  0
 25 17  1  0  0  0  0
 26 13  1  0  0  0  0
 28 10  1  0  0  0  0
M  END
>  <MODEL>
4

>  <REMARK>
 VINA RESULT:      -0.4     13.333     15.390
  Name = 
  0 active torsions:
  status: ('A' for Active; 'I' for Inactive)
                            x       y       z     vdW  Elec       q    Type
                         _______ _______ _______ _____ _____    ______ ____

>  <TORSDO>
F 0

$$$$
