=
 OpenBabel11122413413D

 37 42  0  0  1  0  0  0  0  0999 V2000
  159.4540  210.9140  155.2630 C   0  0  0  0  0  0  0  0  0  0  0  0
  161.5070  208.1580  152.8850 C   0  0  0  0  0  0  0  0  0  0  0  0
  159.8920  207.1340  150.7950 O   0  0  0  0  0  1  0  0  0  0  0  0
  160.5410  208.6130  155.0270 C   0  0  0  0  0  0  0  0  0  0  0  0
  161.5250  208.7630  151.5180 C   0  0  1  0  0  3  0  0  0  0  0  0
  160.8510  208.9860  153.7320 C   0  0  0  0  0  0  0  0  0  0  0  0
  161.0920  207.7630  150.4440 C   0  0  1  0  0  3  0  0  0  0  0  0
  160.9280  207.3760  155.4550 N   0  0  0  0  0  0  0  0  0  0  0  0
  160.3320  210.1250  153.0960 N   0  0  0  0  0  0  0  0  0  0  0  0
  160.6580  211.7660  155.6300 C   0  0  0  0  0  1  0  0  0  0  0  0
  162.3530  205.8470  152.3100 C   0  0  0  0  0  2  0  0  0  0  0  0
  161.5850  206.5060  154.6220 C   0  0  0  0  0  3  0  0  0  0  0  0
  159.2740  210.9080  153.7280 C   0  0  0  0  0  2  0  0  0  0  0  0
  161.8860  206.8750  153.2960 C   0  0  0  0  0  0  0  0  0  0  0  0
  160.5640  209.9800  151.6580 C   0  0  1  0  0  3  0  0  0  0  0  0
  159.6300  209.4900  155.8460 C   0  0  0  0  0  2  0  0  0  0  0  0
  162.2170  206.7340  150.1800 C   0  0  1  0  0  3  0  0  0  0  0  0
  158.2240  211.5390  155.8870 C   0  0  0  0  0  1  0  0  0  0  0  0
  163.0850  206.4380  151.2620 O   0  0  0  0  0  0  0  0  0  0  0  0
  161.5040  211.1290  149.5810 C   0  0  0  0  0  2  0  0  0  0  0  0
  161.9650  212.3950  149.0290 N   0  0  0  0  0  0  0  0  0  0  0  0
  159.9820  213.8230  149.2610 C   0  0  2  0  0  3  0  0  0  0  0  0
  160.8340  212.9800  148.3180 C   0  0  0  0  0  2  0  0  0  0  0  0
  159.4070  212.9770  150.3620 C   0  0  0  0  0  0  0  0  0  0  0  0
  158.2380  212.6240  150.3380 O   0  0  0  0  0  0  0  0  0  0  0  0
  160.3140  212.4970  151.4560 C   0  0  0  0  0  2  0  0  0  0  0  0
  158.9670  214.4530  148.5390 O   0  0  0  0  0  1  0  0  0  0  0  0
  161.1550  211.2660  151.0740 C   0  0  1  0  0  3  0  0  0  0  0  0
  162.7780  212.9410  146.8060 C   0  0  0  0  0  1  0  0  0  0  0  0
  162.9660  212.0650  148.0290 C   0  0  0  0  0  2  0  0  0  0  0  0
  161.2520  204.4170  149.8470 C   0  0  0  0  0  3  0  0  0  0  0  0
  161.8660  205.5600  149.3130 C   0  0  0  0  0  0  0  0  0  0  0  0
  162.1500  205.6170  147.9440 C   0  0  0  0  0  3  0  0  0  0  0  0
  162.1040  204.5990  145.7900 F   0  0  0  0  0  0  0  0  0  0  0  0
  161.2170  203.4010  147.6490 C   0  0  0  0  0  3  0  0  0  0  0  0
  161.8270  204.5400  147.1140 C   0  0  0  0  0  0  0  0  0  0  0  0
  160.9300  203.3400  149.0160 C   0  0  0  0  0  3  0  0  0  0  0  0
  1 10  1  0  0  0  0
  1 16  1  0  0  0  0
  1 18  1  0  0  0  0
  2 14  2  0  0  0  0
  2  6  1  0  0  0  0
  4  8  1  0  0  0  0
  4 16  1  0  0  0  0
  5 15  1  0  0  0  0
  5  2  1  1  0  0  0
  6  4  2  0  0  0  0
  7  3  1  1  0  0  0
  7  5  1  0  0  0  0
  9 13  1  0  0  0  0
  9  6  1  0  0  0  0
 11 14  1  0  0  0  0
 12  8  2  0  0  0  0
 13  1  1  0  0  0  0
 14 12  1  0  0  0  0
 15  9  1  1  0  0  0
 17 32  1  1  0  0  0
 17  7  1  0  0  0  0
 17 19  1  0  0  0  0
 19 11  1  0  0  0  0
 21 20  1  0  0  0  0
 22 27  1  6  0  0  0
 22 24  1  0  0  0  0
 23 21  1  0  0  0  0
 23 22  1  0  0  0  0
 24 26  1  0  0  0  0
 25 24  2  0  0  0  0
 28 20  1  6  0  0  0
 28 26  1  0  0  0  0
 28 15  1  0  0  0  0
 29 30  1  0  0  0  0
 30 21  1  0  0  0  0
 32 31  1  0  0  0  0
 33 32  2  0  0  0  0
 34 36  1  0  0  0  0
 35 37  1  0  0  0  0
 36 35  2  0  0  0  0
 36 33  1  0  0  0  0
 37 31  2  0  0  0  0
M  END
>  <MODEL>
1

>  <REMARK>
 VINA RESULT:      -5.9      0.000      0.000
  Name = 
  3 active torsions:
  status: ('A' for Active; 'I' for Inactive)
    1  A    between atoms: N_4  and  C_37
    2  A    between atoms: C_21  and  C_27
    3  A    between atoms: C_23  and  C_30
                            x       y       z     vdW  Elec       q    Type
                         _______ _______ _______ _____ _____    ______ ____

>  <TORSDO>
F 3

$$$$
=
 OpenBabel11122413413D

 37 42  0  0  1  0  0  0  0  0999 V2000
  160.4190  208.5700  154.7080 C   0  0  0  0  0  0  0  0  0  0  0  0
  161.7870  206.7300  151.2140 C   0  0  0  0  0  0  0  0  0  0  0  0
  159.8230  206.7120  149.1720 O   0  0  0  0  0  1  0  0  0  0  0  0
  161.1380  206.4360  153.4990 C   0  0  0  0  0  0  0  0  0  0  0  0
  161.7390  207.7980  150.1680 C   0  0  1  0  0  3  0  0  0  0  0  0
  161.3530  207.2370  152.3920 C   0  0  0  0  0  0  0  0  0  0  0  0
  161.0530  207.3150  148.8890 C   0  0  1  0  0  3  0  0  0  0  0  0
  161.3910  205.0990  153.3900 N   0  0  0  0  0  0  0  0  0  0  0  0
  160.9320  208.5720  152.2940 N   0  0  0  0  0  0  0  0  0  0  0  0
  161.7640  209.1100  155.1640 C   0  0  0  0  0  1  0  0  0  0  0  0
  162.2300  204.7360  149.7260 C   0  0  0  0  0  2  0  0  0  0  0  0
  161.8230  204.5480  152.2100 C   0  0  0  0  0  3  0  0  0  0  0  0
  160.0710  209.1540  153.3200 C   0  0  0  0  0  2  0  0  0  0  0  0
  162.0250  205.3580  151.0740 C   0  0  0  0  0  0  0  0  0  0  0  0
  160.9810  208.9550  150.8820 C   0  0  1  0  0  3  0  0  0  0  0  0
  160.4560  207.0210  154.7080 C   0  0  0  0  0  2  0  0  0  0  0  0
  161.9860  206.3630  148.1030 C   0  0  1  0  0  3  0  0  0  0  0  0
  159.3660  209.0240  155.6960 C   0  0  0  0  0  1  0  0  0  0  0  0
  162.9180  205.6060  148.8590 O   0  0  0  0  0  0  0  0  0  0  0  0
  161.6960  210.7830  149.2490 C   0  0  0  0  0  2  0  0  0  0  0  0
  162.2720  212.1150  149.1340 N   0  0  0  0  0  0  0  0  0  0  0  0
  160.6800  213.4870  150.4030 C   0  0  2  0  0  3  0  0  0  0  0  0
  161.1550  213.0470  149.0220 C   0  0  0  0  0  2  0  0  0  0  0  0
  160.1820  212.3110  151.1960 C   0  0  0  0  0  0  0  0  0  0  0  0
  158.9860  212.1110  151.3380 O   0  0  0  0  0  0  0  0  0  0  0  0
  161.1780  211.3330  151.7460 C   0  0  0  0  0  2  0  0  0  0  0  0
  159.6820  214.4530  150.2700 O   0  0  0  0  0  1  0  0  0  0  0  0
  161.6790  210.3080  150.7130 C   0  0  1  0  0  3  0  0  0  0  0  0
  162.2060  212.9970  146.8720 C   0  0  0  0  0  1  0  0  0  0  0  0
  162.9760  212.1480  147.8640 C   0  0  0  0  0  2  0  0  0  0  0  0
  160.6400  206.3150  145.9590 C   0  0  0  0  0  3  0  0  0  0  0  0
  161.3790  205.6350  146.9390 C   0  0  0  0  0  0  0  0  0  0  0  0
  161.5650  204.2530  146.8290 C   0  0  0  0  0  3  0  0  0  0  0  0
  161.1990  202.2150  145.6490 F   0  0  0  0  0  0  0  0  0  0  0  0
  160.2790  204.2330  144.7780 C   0  0  0  0  0  3  0  0  0  0  0  0
  161.0160  203.5530  145.7510 C   0  0  0  0  0  0  0  0  0  0  0  0
  160.0910  205.6150  144.8820 C   0  0  0  0  0  3  0  0  0  0  0  0
  1 16  1  0  0  0  0
  1 10  1  0  0  0  0
  1 18  1  0  0  0  0
  2  6  1  0  0  0  0
  4 16  1  0  0  0  0
  5 15  1  0  0  0  0
  5  2  1  1  0  0  0
  6  4  2  0  0  0  0
  7  3  1  1  0  0  0
  7  5  1  0  0  0  0
  8  4  1  0  0  0  0
  9  6  1  0  0  0  0
  9 13  1  0  0  0  0
 11 14  1  0  0  0  0
 12  8  2  0  0  0  0
 13  1  1  0  0  0  0
 14  2  2  0  0  0  0
 14 12  1  0  0  0  0
 15  9  1  1  0  0  0
 17 32  1  1  0  0  0
 17 19  1  0  0  0  0
 17  7  1  0  0  0  0
 19 11  1  0  0  0  0
 21 20  1  0  0  0  0
 22 27  1  6  0  0  0
 22 24  1  0  0  0  0
 23 21  1  0  0  0  0
 23 22  1  0  0  0  0
 24 25  2  0  0  0  0
 24 26  1  0  0  0  0
 28 20  1  6  0  0  0
 28 15  1  0  0  0  0
 28 26  1  0  0  0  0
 29 30  1  0  0  0  0
 30 21  1  0  0  0  0
 31 32  1  0  0  0  0
 33 32  2  0  0  0  0
 34 36  1  0  0  0  0
 35 37  1  0  0  0  0
 35 36  2  0  0  0  0
 36 33  1  0  0  0  0
 37 31  2  0  0  0  0
M  END
>  <MODEL>
2

>  <REMARK>
 VINA RESULT:      -5.3      1.512      2.304
  Name = 
  3 active torsions:
  status: ('A' for Active; 'I' for Inactive)
    1  A    between atoms: N_4  and  C_37
    2  A    between atoms: C_21  and  C_27
    3  A    between atoms: C_23  and  C_30
                            x       y       z     vdW  Elec       q    Type
                         _______ _______ _______ _____ _____    ______ ____

>  <TORSDO>
F 3

$$$$
=
 OpenBabel11122413413D

 37 42  0  0  1  0  0  0  0  0999 V2000
  158.6820  213.5890  152.3080 C   0  0  0  0  0  0  0  0  0  0  0  0
  159.3480  212.7530  148.2680 C   0  0  0  0  0  0  0  0  0  0  0  0
  161.4600  214.3020  147.1880 O   0  0  0  0  0  1  0  0  0  0  0  0
  157.8700  213.7120  149.8870 C   0  0  0  0  0  0  0  0  0  0  0  0
  160.7480  212.2290  148.2060 C   0  0  1  0  0  3  0  0  0  0  0  0
  159.0420  213.0590  149.5510 C   0  0  0  0  0  0  0  0  0  0  0  0
  161.5640  212.9090  147.1060 C   0  0  1  0  0  3  0  0  0  0  0  0
  157.0000  214.0380  148.8880 N   0  0  0  0  0  0  0  0  0  0  0  0
  160.1140  212.8610  150.4350 N   0  0  0  0  0  0  0  0  0  0  0  0
  158.2050  212.2010  152.7020 C   0  0  0  0  0  1  0  0  0  0  0  0
  158.9180  213.0340  145.7940 C   0  0  0  0  0  2  0  0  0  0  0  0
  157.2810  213.7530  147.5760 C   0  0  0  0  0  3  0  0  0  0  0  0
  160.1190  213.5020  151.7470 C   0  0  0  0  0  2  0  0  0  0  0  0
  158.4830  213.1040  147.2260 C   0  0  0  0  0  0  0  0  0  0  0  0
  161.2890  212.5000  149.6410 C   0  0  1  0  0  3  0  0  0  0  0  0
  157.6860  214.2110  151.2970 C   0  0  0  0  0  2  0  0  0  0  0  0
  161.1350  212.3870  145.7150 C   0  0  1  0  0  3  0  0  0  0  0  0
  158.7040  214.4530  153.5510 C   0  0  0  0  0  1  0  0  0  0  0  0
  159.7920  211.9520  145.5760 O   0  0  0  0  0  0  0  0  0  0  0  0
  161.0850  210.4860  151.1960 C   0  0  0  0  0  2  0  0  0  0  0  0
  161.7460  209.2790  151.6710 N   0  0  0  0  0  0  0  0  0  0  0  0
  162.0520  207.9970  149.6000 C   0  0  2  0  0  3  0  0  0  0  0  0
  161.2280  208.1740  150.8720 C   0  0  0  0  0  2  0  0  0  0  0  0
  161.9740  209.2260  148.7380 C   0  0  0  0  0  0  0  0  0  0  0  0
  161.2660  209.2520  147.7440 O   0  0  0  0  0  0  0  0  0  0  0  0
  162.7180  210.4580  149.1630 C   0  0  0  0  0  2  0  0  0  0  0  0
  161.6040  206.8740  148.9040 O   0  0  0  0  0  1  0  0  0  0  0  0
  161.9940  211.2810  150.2430 C   0  0  1  0  0  3  0  0  0  0  0  0
  161.5700  210.2970  153.8700 C   0  0  0  0  0  1  0  0  0  0  0  0
  161.2820  209.0670  153.0320 C   0  0  0  0  0  2  0  0  0  0  0  0
  163.0340  213.5080  144.4710 C   0  0  0  0  0  3  0  0  0  0  0  0
  161.6890  213.1120  144.5230 C   0  0  0  0  0  0  0  0  0  0  0  0
  160.8450  213.3890  143.4420 C   0  0  0  0  0  3  0  0  0  0  0  0
  160.5170  214.3230  141.2740 F   0  0  0  0  0  0  0  0  0  0  0  0
  162.6780  214.4520  142.2700 C   0  0  0  0  0  3  0  0  0  0  0  0
  161.3380  214.0570  142.3180 C   0  0  0  0  0  0  0  0  0  0  0  0
  163.5270  214.1770  143.3460 C   0  0  0  0  0  3  0  0  0  0  0  0
  1 10  1  0  0  0  0
  1 18  1  0  0  0  0
  2  6  1  0  0  0  0
  4 16  1  0  0  0  0
  5  2  1  1  0  0  0
  5 15  1  0  0  0  0
  6  4  2  0  0  0  0
  6  9  1  0  0  0  0
  7  3  1  6  0  0  0
  7  5  1  0  0  0  0
  8  4  1  0  0  0  0
  9 13  1  0  0  0  0
 11 14  1  0  0  0  0
 12  8  2  0  0  0  0
 13  1  1  0  0  0  0
 14 12  1  0  0  0  0
 14  2  2  0  0  0  0
 15 28  1  0  0  0  0
 15  9  1  1  0  0  0
 16  1  1  0  0  0  0
 17 32  1  6  0  0  0
 17  7  1  0  0  0  0
 19 17  1  0  0  0  0
 19 11  1  0  0  0  0
 20 21  1  0  0  0  0
 21 30  1  0  0  0  0
 22 27  1  6  0  0  0
 22 23  1  0  0  0  0
 23 21  1  0  0  0  0
 24 26  1  0  0  0  0
 24 22  1  0  0  0  0
 25 24  2  0  0  0  0
 28 26  1  6  0  0  0
 28 20  1  0  0  0  0
 30 29  1  0  0  0  0
 31 32  1  0  0  0  0
 33 32  2  0  0  0  0
 34 36  1  0  0  0  0
 35 36  2  0  0  0  0
 35 37  1  0  0  0  0
 36 33  1  0  0  0  0
 37 31  2  0  0  0  0
M  END
>  <MODEL>
3

>  <REMARK>
 VINA RESULT:      -4.0      3.159      7.493
  Name = 
  3 active torsions:
  status: ('A' for Active; 'I' for Inactive)
    1  A    between atoms: N_4  and  C_37
    2  A    between atoms: C_21  and  C_27
    3  A    between atoms: C_23  and  C_30
                            x       y       z     vdW  Elec       q    Type
                         _______ _______ _______ _____ _____    ______ ____

>  <TORSDO>
F 3

$$$$
=
 OpenBabel11122413413D

 37 42  0  0  1  0  0  0  0  0999 V2000
  161.2990  210.5940  154.6970 C   0  0  0  0  0  0  0  0  0  0  0  0
  160.4250  211.5380  150.7210 C   0  0  0  0  0  0  0  0  0  0  0  0
  162.6830  212.5450  149.3380 O   0  0  0  0  0  1  0  0  0  0  0  0
  160.0870  212.0980  153.0240 C   0  0  0  0  0  0  0  0  0  0  0  0
  161.3040  210.6430  149.9080 C   0  0  1  0  0  3  0  0  0  0  0  0
  160.6440  211.3050  152.0370 C   0  0  0  0  0  0  0  0  0  0  0  0
  162.0480  211.4130  148.8150 C   0  0  1  0  0  3  0  0  0  0  0  0
  159.2820  213.1340  152.6460 N   0  0  0  0  0  0  0  0  0  0  0  0
  161.6520  210.3550  152.2670 N   0  0  0  0  0  0  0  0  0  0  0  0
  160.3040  209.4530  154.8330 C   0  0  0  0  0  1  0  0  0  0  0  0
  159.5950  213.0610  148.8830 C   0  0  0  0  0  2  0  0  0  0  0  0
  159.0450  213.4070  151.3220 C   0  0  0  0  0  3  0  0  0  0  0  0
  162.3050  210.2700  153.5700 C   0  0  0  0  0  2  0  0  0  0  0  0
  159.6260  212.6120  150.3130 C   0  0  0  0  0  0  0  0  0  0  0  0
  162.2450  210.0100  150.9740 C   0  0  1  0  0  3  0  0  0  0  0  0
  160.5370  211.9200  154.4510 C   0  0  0  0  0  2  0  0  0  0  0  0
  161.0840  211.7820  147.6630 C   0  0  1  0  0  3  0  0  0  0  0  0
  162.0620  210.7150  156.0000 C   0  0  0  0  0  1  0  0  0  0  0  0
  159.7190  211.9700  148.0010 O   0  0  0  0  0  0  0  0  0  0  0  0
  161.1380  207.7450  151.3790 C   0  0  0  0  0  2  0  0  0  0  0  0
  161.2340  206.3140  151.1290 N   0  0  0  0  0  0  0  0  0  0  0  0
  161.1970  206.2040  148.6770 C   0  0  2  0  0  3  0  0  0  0  0  0
  160.3990  206.0340  149.9660 C   0  0  0  0  0  2  0  0  0  0  0  0
  161.6780  207.6200  148.5310 C   0  0  0  0  0  0  0  0  0  0  0  0
  161.1250  208.3960  147.7670 O   0  0  0  0  0  0  0  0  0  0  0  0
  162.8030  208.0970  149.4020 C   0  0  0  0  0  2  0  0  0  0  0  0
  160.4090  205.8330  147.5860 O   0  0  0  0  0  1  0  0  0  0  0  0
  162.3650  208.4910  150.8240 C   0  0  1  0  0  3  0  0  0  0  0  0
  161.2330  206.1550  153.5530 C   0  0  0  0  0  1  0  0  0  0  0  0
  160.6070  205.6580  152.2650 C   0  0  0  0  0  2  0  0  0  0  0  0
  162.6810  213.5910  146.8930 C   0  0  0  0  0  3  0  0  0  0  0  0
  161.6120  212.7240  146.6200 C   0  0  0  0  0  0  0  0  0  0  0  0
  161.0270  212.7270  145.3490 C   0  0  0  0  0  3  0  0  0  0  0  0
  160.9340  213.5900  143.1290 F   0  0  0  0  0  0  0  0  0  0  0  0
  162.5680  214.4530  144.6340 C   0  0  0  0  0  3  0  0  0  0  0  0
  161.5030  213.5900  144.3580 C   0  0  0  0  0  0  0  0  0  0  0  0
  163.1570  214.4530  145.9020 C   0  0  0  0  0  3  0  0  0  0  0  0
  1 10  1  0  0  0  0
  1 18  1  0  0  0  0
  2  6  1  0  0  0  0
  4 16  1  0  0  0  0
  5  2  1  1  0  0  0
  5 15  1  0  0  0  0
  6  9  1  0  0  0  0
  6  4  2  0  0  0  0
  7  3  1  1  0  0  0
  7  5  1  0  0  0  0
  8  4  1  0  0  0  0
  9 13  1  0  0  0  0
 11 14  1  0  0  0  0
 12  8  2  0  0  0  0
 13  1  1  0  0  0  0
 14  2  2  0  0  0  0
 14 12  1  0  0  0  0
 15  9  1  1  0  0  0
 16  1  1  0  0  0  0
 17 32  1  1  0  0  0
 17 19  1  0  0  0  0
 17  7  1  0  0  0  0
 19 11  1  0  0  0  0
 21 20  1  0  0  0  0
 21 30  1  0  0  0  0
 22 27  1  6  0  0  0
 22 23  1  0  0  0  0
 23 21  1  0  0  0  0
 24 22  1  0  0  0  0
 24 26  1  0  0  0  0
 25 24  2  0  0  0  0
 28 26  1  6  0  0  0
 28 15  1  0  0  0  0
 28 20  1  0  0  0  0
 30 29  1  0  0  0  0
 32 31  1  0  0  0  0
 33 32  2  0  0  0  0
 34 36  1  0  0  0  0
 35 37  1  0  0  0  0
 36 35  2  0  0  0  0
 36 33  1  0  0  0  0
 37 31  2  0  0  0  0
M  END
>  <MODEL>
4

>  <REMARK>
 VINA RESULT:      -3.4      2.566      6.660
  Name = 
  3 active torsions:
  status: ('A' for Active; 'I' for Inactive)
    1  A    between atoms: N_4  and  C_37
    2  A    between atoms: C_21  and  C_27
    3  A    between atoms: C_23  and  C_30
                            x       y       z     vdW  Elec       q    Type
                         _______ _______ _______ _____ _____    ______ ____

>  <TORSDO>
F 3

$$$$
