=
 OpenBabel11122413473D

 37 44  0  0  1  0  0  0  0  0999 V2000
  160.6600  206.2120  151.3710 C   0  0  0  0  0  2  0  0  0  0  0  0
  160.1720  207.7410  155.7560 C   0  0  0  0  0  0  0  0  0  0  0  0
  160.6830  210.6330  152.7910 C   0  0  0  0  0  0  0  0  0  0  0  0
  161.1820  204.8420  150.9770 C   0  0  0  0  0  0  0  0  0  0  0  0
  161.8780  209.5320  149.2460 C   0  0  0  0  0  2  0  0  0  0  0  0
  160.2670  210.2030  155.1370 C   0  0  0  0  0  0  0  0  0  0  0  0
  161.0990  209.8650  151.7000 C   0  0  0  0  0  0  0  0  0  0  0  0
  161.9760  205.5240  148.6930 C   0  0  0  0  0  0  0  0  0  0  0  0
  160.6310  209.7920  153.8670 C   0  0  0  0  0  0  0  0  0  0  0  0
  161.3010  210.3630  150.3300 N   0  0  0  0  0  0  0  0  0  0  0  0
  159.9530  211.5580  155.3230 C   0  0  0  0  0  3  0  0  0  0  0  0
  161.6810  204.5490  149.7600 C   0  0  0  0  0  3  0  0  0  0  0  0
  160.9580  208.5400  153.5470 N   0  0  0  0  0  0  0  0  0  0  0  0
  158.7240  207.4510  155.4010 C   0  0  0  0  0  1  0  0  0  0  0  0
  160.3420  212.9450  151.7860 C   0  0  0  0  0  2  0  0  0  0  0  0
  159.9950  212.4470  154.2240 C   0  0  0  0  0  3  0  0  0  0  0  0
  161.0670  207.4590  154.5270 C   0  0  0  0  0  2  0  0  0  0  0  0
  162.1030  206.8890  149.0390 N   0  0  0  0  0  0  0  0  0  0  0  0
  161.3530  208.1440  149.4100 C   0  0  1  0  0  3  0  0  0  0  0  0
  160.3720  211.9960  152.9410 C   0  0  0  0  0  0  0  0  0  0  0  0
  161.2670  208.5390  152.2300 C   0  0  0  0  0  0  0  0  0  0  0  0
  160.3000  209.2010  156.2590 C   0  0  0  0  0  2  0  0  0  0  0  0
  160.8060  211.7140  150.0060 C   0  0  1  0  0  3  0  0  0  0  0  0
  160.5820  206.8070  156.8740 C   0  0  0  0  0  1  0  0  0  0  0  0
  162.3830  207.7280  150.2130 C   0  0  1  0  0  3  0  0  0  0  0  0
  162.1720  205.1420  147.5110 O   0  0  0  0  0  0  0  0  0  0  0  0
  161.7580  207.2880  151.5170 C   0  0  2  0  0  3  0  0  0  0  0  0
  161.3650  212.6550  150.8780 O   0  0  0  0  0  0  0  0  0  0  0  0
  162.2960  212.5680  148.1820 C   0  0  0  0  0  3  0  0  0  0  0  0
  161.0280  212.1290  148.5780 C   0  0  0  0  0  0  0  0  0  0  0  0
  159.9770  212.1130  147.6500 C   0  0  0  0  0  3  0  0  0  0  0  0
  158.8860  212.5020  145.1770 Cl  0  0  0  0  0  0  0  0  0  0  0  0
  161.4690  212.9570  145.9390 C   0  0  0  0  0  3  0  0  0  0  0  0
  160.1980  212.5250  146.3330 C   0  0  0  0  0  0  0  0  0  0  0  0
  162.5170  212.9790  146.8640 C   0  0  0  0  0  3  0  0  0  0  0  0
  161.3340  202.4760  151.3150 O   0  0  0  0  0  1  0  0  0  0  0  0
  161.0150  203.6930  151.9230 C   0  0  0  0  0  2  0  0  0  0  0  0
  2 22  1  0  0  0  0
  2 24  1  0  0  0  0
  3 20  2  0  0  0  0
  3  9  1  0  0  0  0
  4  1  1  0  0  0  0
  4 37  1  0  0  0  0
  5 10  1  0  0  0  0
  6 11  1  0  0  0  0
  6 22  1  0  0  0  0
  7 21  2  0  0  0  0
  7  3  1  0  0  0  0
  8 18  1  0  0  0  0
  8 12  1  0  0  0  0
  9  6  2  0  0  0  0
 10  7  1  0  0  0  0
 12  4  2  0  0  0  0
 13  9  1  0  0  0  0
 13 17  1  0  0  0  0
 14  2  1  0  0  0  0
 15 20  1  0  0  0  0
 16 11  2  0  0  0  0
 17  2  1  0  0  0  0
 18 19  1  0  0  0  0
 19  5  1  6  0  0  0
 19 25  1  0  0  0  0
 20 16  1  0  0  0  0
 21 13  1  0  0  0  0
 23 30  1  6  0  0  0
 23 10  1  0  0  0  0
 23 28  1  0  0  0  0
 25 18  1  6  0  0  0
 25 27  1  0  0  0  0
 26  8  2  0  0  0  0
 27  1  1  6  0  0  0
 27 21  1  0  0  0  0
 28 15  1  0  0  0  0
 29 30  1  0  0  0  0
 31 30  2  0  0  0  0
 32 34  1  0  0  0  0
 33 34  2  0  0  0  0
 33 35  1  0  0  0  0
 34 31  1  0  0  0  0
 35 29  2  0  0  0  0
 36 37  1  0  0  0  0
M  END
>  <MODEL>
1

>  <REMARK>
 VINA RESULT:      -5.7      0.000      0.000
  Name = 
  2 active torsions:
  status: ('A' for Active; 'I' for Inactive)
    1  A    between atoms: C_4  and  C_37
    2  A    between atoms: C_23  and  C_30
                            x       y       z     vdW  Elec       q    Type
                         _______ _______ _______ _____ _____    ______ ____

>  <TORSDO>
F 2

$$$$
=
 OpenBabel11122413473D

 37 44  0  0  1  0  0  0  0  0999 V2000
  160.8990  207.0740  151.6050 C   0  0  0  0  0  2  0  0  0  0  0  0
  160.2250  207.9460  156.1420 C   0  0  0  0  0  0  0  0  0  0  0  0
  160.1300  211.2180  153.5540 C   0  0  0  0  0  0  0  0  0  0  0  0
  161.6580  205.8830  151.0480 C   0  0  0  0  0  0  0  0  0  0  0  0
  161.4370  210.7940  149.9050 C   0  0  0  0  0  2  0  0  0  0  0  0
  159.8490  210.4380  155.8290 C   0  0  0  0  0  0  0  0  0  0  0  0
  160.6590  210.6780  152.3790 C   0  0  0  0  0  0  0  0  0  0  0  0
  162.2650  206.9710  148.8660 C   0  0  0  0  0  0  0  0  0  0  0  0
  160.2570  210.2590  154.5190 C   0  0  0  0  0  0  0  0  0  0  0  0
  160.7380  211.3670  151.0800 N   0  0  0  0  0  0  0  0  0  0  0  0
  159.2930  211.6790  156.1780 C   0  0  0  0  0  3  0  0  0  0  0  0
  162.1780  205.8380  149.8050 C   0  0  0  0  0  3  0  0  0  0  0  0
  160.8040  209.1370  154.0490 N   0  0  0  0  0  0  0  0  0  0  0  0
  158.8490  207.4360  155.7500 C   0  0  0  0  0  1  0  0  0  0  0  0
  159.3460  213.5300  152.8380 C   0  0  0  0  0  2  0  0  0  0  0  0
  159.1470  212.6860  155.1970 C   0  0  0  0  0  3  0  0  0  0  0  0
  161.1310  207.9860  154.8900 C   0  0  0  0  0  2  0  0  0  0  0  0
  162.1440  208.2850  149.3760 N   0  0  0  0  0  0  0  0  0  0  0  0
  161.1810  209.3230  149.8960 C   0  0  1  0  0  3  0  0  0  0  0  0
  159.5750  212.4710  153.8690 C   0  0  0  0  0  0  0  0  0  0  0  0
  161.0810  209.3530  152.7430 C   0  0  0  0  0  0  0  0  0  0  0  0
  160.0900  209.3320  156.8200 C   0  0  0  0  0  2  0  0  0  0  0  0
  159.9940  212.6300  150.9220 C   0  0  1  0  0  3  0  0  0  0  0  0
  160.8240  206.9770  157.1390 C   0  0  0  0  0  1  0  0  0  0  0  0
  162.2870  209.0140  150.6460 C   0  0  1  0  0  3  0  0  0  0  0  0
  162.5050  206.7780  147.6470 O   0  0  0  0  0  0  0  0  0  0  0  0
  161.7810  208.3110  151.8840 C   0  0  2  0  0  3  0  0  0  0  0  0
  160.3860  213.5470  151.9040 O   0  0  0  0  0  0  0  0  0  0  0  0
  161.3250  213.8070  149.1550 C   0  0  0  0  0  3  0  0  0  0  0  0
  160.1060  213.2490  149.5560 C   0  0  0  0  0  0  0  0  0  0  0  0
  159.0010  213.3020  148.6950 C   0  0  0  0  0  3  0  0  0  0  0  0
  157.7390  213.9650  146.3650 Cl  0  0  0  0  0  0  0  0  0  0  0  0
  160.3410  214.4530  147.0390 C   0  0  0  0  0  3  0  0  0  0  0  0
  159.1200  213.9020  147.4380 C   0  0  0  0  0  0  0  0  0  0  0  0
  161.4430  214.4060  147.8980 C   0  0  0  0  0  3  0  0  0  0  0  0
  161.2260  204.7970  153.1380 O   0  0  0  0  0  1  0  0  0  0  0  0
  161.7270  204.6180  151.8460 C   0  0  0  0  0  2  0  0  0  0  0  0
  2 22  1  0  0  0  0
  2 24  1  0  0  0  0
  3 20  2  0  0  0  0
  3  9  1  0  0  0  0
  4  1  1  0  0  0  0
  4 37  1  0  0  0  0
  5 10  1  0  0  0  0
  6 11  1  0  0  0  0
  6 22  1  0  0  0  0
  7 21  2  0  0  0  0
  7  3  1  0  0  0  0
  8 18  1  0  0  0  0
  8 12  1  0  0  0  0
  9  6  2  0  0  0  0
 10  7  1  0  0  0  0
 12  4  2  0  0  0  0
 13  9  1  0  0  0  0
 13 17  1  0  0  0  0
 14  2  1  0  0  0  0
 15 20  1  0  0  0  0
 16 11  2  0  0  0  0
 17  2  1  0  0  0  0
 18 19  1  0  0  0  0
 19  5  1  6  0  0  0
 19 25  1  0  0  0  0
 20 16  1  0  0  0  0
 21 13  1  0  0  0  0
 23 30  1  6  0  0  0
 23 10  1  0  0  0  0
 23 28  1  0  0  0  0
 25 18  1  6  0  0  0
 25 27  1  0  0  0  0
 26  8  2  0  0  0  0
 27  1  1  6  0  0  0
 27 21  1  0  0  0  0
 28 15  1  0  0  0  0
 29 30  1  0  0  0  0
 31 30  2  0  0  0  0
 32 34  1  0  0  0  0
 33 34  2  0  0  0  0
 33 35  1  0  0  0  0
 34 31  1  0  0  0  0
 35 29  2  0  0  0  0
 37 36  1  0  0  0  0
M  END
>  <MODEL>
2

>  <REMARK>
 VINA RESULT:      -5.6      1.358      1.445
  Name = 
  2 active torsions:
  status: ('A' for Active; 'I' for Inactive)
    1  A    between atoms: C_4  and  C_37
    2  A    between atoms: C_23  and  C_30
                            x       y       z     vdW  Elec       q    Type
                         _______ _______ _______ _____ _____    ______ ____

>  <TORSDO>
F 2

$$$$
=
 OpenBabel11122413473D

 37 44  0  0  1  0  0  0  0  0999 V2000
  160.8220  210.4580  148.2880 C   0  0  0  0  0  2  0  0  0  0  0  0
  161.5810  206.0940  146.8120 C   0  0  0  0  0  0  0  0  0  0  0  0
  161.3740  206.6850  150.9390 C   0  0  0  0  0  0  0  0  0  0  0  0
  161.1730  211.7160  147.5130 C   0  0  0  0  0  0  0  0  0  0  0  0
  161.5360  210.3170  152.3490 C   0  0  0  0  0  2  0  0  0  0  0  0
  161.5890  205.0780  149.1400 C   0  0  0  0  0  0  0  0  0  0  0  0
  161.4560  208.0760  151.0400 C   0  0  0  0  0  0  0  0  0  0  0  0
  161.3470  213.2100  149.5250 C   0  0  0  0  0  0  0  0  0  0  0  0
  161.5850  206.3740  149.6250 C   0  0  0  0  0  0  0  0  0  0  0  0
  161.3000  208.8540  152.2790 N   0  0  0  0  0  0  0  0  0  0  0  0
  161.3830  204.0350  150.0570 C   0  0  0  0  0  3  0  0  0  0  0  0
  161.3170  212.9310  148.0780 C   0  0  0  0  0  3  0  0  0  0  0  0
  161.7720  207.4580  148.8710 N   0  0  0  0  0  0  0  0  0  0  0  0
  160.0820  206.2030  146.5940 C   0  0  0  0  0  1  0  0  0  0  0  0
  160.8540  205.9520  153.3180 C   0  0  0  0  0  2  0  0  0  0  0  0
  161.1580  204.3310  151.4210 C   0  0  0  0  0  3  0  0  0  0  0  0
  162.1030  207.4030  147.4470 C   0  0  0  0  0  2  0  0  0  0  0  0
  161.6080  212.1420  150.4160 N   0  0  0  0  0  0  0  0  0  0  0  0
  161.0270  210.9200  151.0820 C   0  0  1  0  0  3  0  0  0  0  0  0
  161.1610  205.6660  151.8830 C   0  0  0  0  0  0  0  0  0  0  0  0
  161.7150  208.5260  149.6990 C   0  0  0  0  0  0  0  0  0  0  0  0
  161.8890  204.8500  147.6840 C   0  0  0  0  0  2  0  0  0  0  0  0
  160.7810  208.1580  153.4710 C   0  0  1  0  0  3  0  0  0  0  0  0
  162.2450  205.9140  145.4640 C   0  0  0  0  0  1  0  0  0  0  0  0
  162.2210  210.8060  150.4170 C   0  0  1  0  0  3  0  0  0  0  0  0
  161.2060  214.3820  149.9560 O   0  0  0  0  0  0  0  0  0  0  0  0
  161.9550  209.9440  149.2040 C   0  0  2  0  0  3  0  0  0  0  0  0
  161.5850  207.0530  153.7720 O   0  0  0  0  0  0  0  0  0  0  0  0
  161.5770  208.9650  155.7060 C   0  0  0  0  0  3  0  0  0  0  0  0
  160.6260  209.0360  154.6830 C   0  0  0  0  0  0  0  0  0  0  0  0
  159.5260  209.8970  154.8130 C   0  0  0  0  0  3  0  0  0  0  0  0
  158.0160  211.7620  156.1170 Cl  0  0  0  0  0  0  0  0  0  0  0  0
  160.3440  210.6180  156.9760 C   0  0  0  0  0  3  0  0  0  0  0  0
  159.3880  210.6870  155.9580 C   0  0  0  0  0  0  0  0  0  0  0  0
  161.4380  209.7570  156.8500 C   0  0  0  0  0  3  0  0  0  0  0  0
  160.0740  212.2020  145.4420 O   0  0  0  0  0  1  0  0  0  0  0  0
  161.2280  211.6640  146.0180 C   0  0  0  0  0  2  0  0  0  0  0  0
  2 17  1  0  0  0  0
  2 22  1  0  0  0  0
  3  7  1  0  0  0  0
  3 20  1  0  0  0  0
  4 12  2  0  0  0  0
  4  1  1  0  0  0  0
  6  9  1  0  0  0  0
  6 11  2  0  0  0  0
  7 10  1  0  0  0  0
  8 26  2  0  0  0  0
  8 18  1  0  0  0  0
  9  3  2  0  0  0  0
 10  5  1  0  0  0  0
 10 23  1  0  0  0  0
 11 16  1  0  0  0  0
 12  8  1  0  0  0  0
 13  9  1  0  0  0  0
 13 21  1  0  0  0  0
 14  2  1  0  0  0  0
 15 28  1  0  0  0  0
 16 20  2  0  0  0  0
 17 13  1  0  0  0  0
 18 19  1  0  0  0  0
 19  5  1  1  0  0  0
 20 15  1  0  0  0  0
 21  7  2  0  0  0  0
 22  6  1  0  0  0  0
 23 28  1  0  0  0  0
 23 30  1  1  0  0  0
 24  2  1  0  0  0  0
 25 18  1  6  0  0  0
 25 19  1  0  0  0  0
 27  1  1  1  0  0  0
 27 21  1  0  0  0  0
 27 25  1  0  0  0  0
 29 35  1  0  0  0  0
 30 31  1  0  0  0  0
 30 29  2  0  0  0  0
 31 34  2  0  0  0  0
 34 32  1  0  0  0  0
 34 33  1  0  0  0  0
 35 33  2  0  0  0  0
 36 37  1  0  0  0  0
 37  4  1  0  0  0  0
M  END
>  <MODEL>
3

>  <REMARK>
 VINA RESULT:      -5.0      2.660      7.648
  Name = 
  2 active torsions:
  status: ('A' for Active; 'I' for Inactive)
    1  A    between atoms: C_4  and  C_37
    2  A    between atoms: C_23  and  C_30
                            x       y       z     vdW  Elec       q    Type
                         _______ _______ _______ _____ _____    ______ ____

>  <TORSDO>
F 2

$$$$
=
 OpenBabel11122413473D

 37 44  0  0  1  0  0  0  0  0999 V2000
  160.7740  204.6590  147.6290 C   0  0  0  0  0  2  0  0  0  0  0  0
  160.8290  203.5550  152.1650 C   0  0  0  0  0  0  0  0  0  0  0  0
  161.5170  207.5520  151.1840 C   0  0  0  0  0  0  0  0  0  0  0  0
  161.0700  203.6970  146.4920 C   0  0  0  0  0  0  0  0  0  0  0  0
  162.2820  208.4960  147.4790 C   0  0  0  0  0  2  0  0  0  0  0  0
  161.2190  205.9350  152.9610 C   0  0  0  0  0  0  0  0  0  0  0  0
  161.7400  207.4820  149.8070 C   0  0  0  0  0  0  0  0  0  0  0  0
  161.7800  205.4600  144.8500 C   0  0  0  0  0  0  0  0  0  0  0  0
  161.4280  206.2650  151.6340 C   0  0  0  0  0  0  0  0  0  0  0  0
  161.9080  208.6350  148.9070 N   0  0  0  0  0  0  0  0  0  0  0  0
  161.1120  206.9840  153.8880 C   0  0  0  0  0  3  0  0  0  0  0  0
  161.4320  204.0850  145.2540 C   0  0  0  0  0  3  0  0  0  0  0  0
  161.5530  205.3750  150.6490 N   0  0  0  0  0  0  0  0  0  0  0  0
  159.3320  203.6200  151.9140 C   0  0  0  0  0  1  0  0  0  0  0  0
  161.4280  210.0540  151.6380 C   0  0  0  0  0  2  0  0  0  0  0  0
  161.1960  208.3250  153.4470 C   0  0  0  0  0  3  0  0  0  0  0  0
  161.5820  203.9290  150.8680 C   0  0  0  0  0  2  0  0  0  0  0  0
  162.1210  206.3960  145.8540 N   0  0  0  0  0  0  0  0  0  0  0  0
  161.5820  207.2920  146.9410 C   0  0  1  0  0  3  0  0  0  0  0  0
  161.4110  208.6270  152.0850 C   0  0  0  0  0  0  0  0  0  0  0  0
  161.7610  206.0750  149.5100 C   0  0  0  0  0  0  0  0  0  0  0  0
  161.1950  204.4820  153.3510 C   0  0  0  0  0  2  0  0  0  0  0  0
  161.5830  209.9740  149.4320 C   0  0  1  0  0  3  0  0  0  0  0  0
  161.1860  202.1320  152.5370 C   0  0  0  0  0  1  0  0  0  0  0  0
  162.6010  206.4260  147.2440 C   0  0  1  0  0  3  0  0  0  0  0  0
  161.8330  205.7780  143.6350 O   0  0  0  0  0  0  0  0  0  0  0  0
  162.0190  205.3900  148.1770 C   0  0  2  0  0  3  0  0  0  0  0  0
  162.3310  210.2340  150.5860 O   0  0  0  0  0  0  0  0  0  0  0  0
  162.9680  211.7830  148.3890 C   0  0  0  0  0  3  0  0  0  0  0  0
  161.7550  211.0880  148.4360 C   0  0  0  0  0  0  0  0  0  0  0  0
  160.7080  211.4590  147.5810 C   0  0  0  0  0  3  0  0  0  0  0  0
  159.5720  212.9720  145.6110 Cl  0  0  0  0  0  0  0  0  0  0  0  0
  162.0960  213.2010  146.6310 C   0  0  0  0  0  3  0  0  0  0  0  0
  160.8800  212.5130  146.6790 C   0  0  0  0  0  0  0  0  0  0  0  0
  163.1400  212.8360  147.4870 C   0  0  0  0  0  3  0  0  0  0  0  0
  160.4370  201.6160  145.4890 O   0  0  0  0  0  1  0  0  0  0  0  0
  160.8150  202.2340  146.6840 C   0  0  0  0  0  2  0  0  0  0  0  0
  2 24  1  0  0  0  0
  2 22  1  0  0  0  0
  3  9  2  0  0  0  0
  3 20  1  0  0  0  0
  4 37  1  0  0  0  0
  4  1  1  0  0  0  0
  5 10  1  0  0  0  0
  6 22  1  0  0  0  0
  6 11  2  0  0  0  0
  7  3  1  0  0  0  0
  8 12  1  0  0  0  0
  8 18  1  0  0  0  0
  9  6  1  0  0  0  0
 10 23  1  0  0  0  0
 10  7  1  0  0  0  0
 12  4  2  0  0  0  0
 13 17  1  0  0  0  0
 13  9  1  0  0  0  0
 14  2  1  0  0  0  0
 15 20  1  0  0  0  0
 16 11  1  0  0  0  0
 17  2  1  0  0  0  0
 18 19  1  0  0  0  0
 19 25  1  0  0  0  0
 19  5  1  6  0  0  0
 20 16  2  0  0  0  0
 21  7  2  0  0  0  0
 21 13  1  0  0  0  0
 23 30  1  6  0  0  0
 23 28  1  0  0  0  0
 25 18  1  6  0  0  0
 25 27  1  0  0  0  0
 26  8  2  0  0  0  0
 27  1  1  6  0  0  0
 27 21  1  0  0  0  0
 28 15  1  0  0  0  0
 29 30  1  0  0  0  0
 31 30  2  0  0  0  0
 32 34  1  0  0  0  0
 33 34  2  0  0  0  0
 33 35  1  0  0  0  0
 34 31  1  0  0  0  0
 35 29  2  0  0  0  0
 36 37  1  0  0  0  0
M  END
>  <MODEL>
4

>  <REMARK>
 VINA RESULT:      -4.7      2.277      3.833
  Name = 
  2 active torsions:
  status: ('A' for Active; 'I' for Inactive)
    1  A    between atoms: C_4  and  C_37
    2  A    between atoms: C_23  and  C_30
                            x       y       z     vdW  Elec       q    Type
                         _______ _______ _______ _____ _____    ______ ____

>  <TORSDO>
F 2

$$$$
=
 OpenBabel11122413473D

 37 44  0  0  1  0  0  0  0  0999 V2000
  160.9320  208.0200  151.8210 C   0  0  0  0  0  2  0  0  0  0  0  0
  159.9910  210.3540  155.7540 C   0  0  0  0  0  0  0  0  0  0  0  0
  159.9870  212.5500  152.2050 C   0  0  0  0  0  0  0  0  0  0  0  0
  161.7410  206.7370  151.7390 C   0  0  0  0  0  0  0  0  0  0  0  0
  161.5020  210.9590  148.9830 C   0  0  0  0  0  2  0  0  0  0  0  0
  159.5920  212.5780  154.5930 C   0  0  0  0  0  0  0  0  0  0  0  0
  160.5900  211.6620  151.3100 C   0  0  0  0  0  0  0  0  0  0  0  0
  162.4500  207.0420  149.3490 C   0  0  0  0  0  0  0  0  0  0  0  0
  160.0760  211.9800  153.4430 C   0  0  0  0  0  0  0  0  0  0  0  0
  160.7300  211.8720  149.8600 N   0  0  0  0  0  0  0  0  0  0  0  0
  158.9970  213.8440  154.4730 C   0  0  0  0  0  3  0  0  0  0  0  0
  162.3300  206.2910  150.6120 C   0  0  0  0  0  3  0  0  0  0  0  0
  160.6670  210.7850  153.4100 N   0  0  0  0  0  0  0  0  0  0  0  0
  158.6480  209.6950  155.4950 C   0  0  0  0  0  1  0  0  0  0  0  0
  159.2060  214.4530  150.7090 C   0  0  0  0  0  2  0  0  0  0  0  0
  158.8900  214.4530  153.2020 C   0  0  0  0  0  3  0  0  0  0  0  0
  160.9650  209.9990  154.6070 C   0  0  0  0  0  2  0  0  0  0  0  0
  162.2790  208.4450  149.3750 N   0  0  0  0  0  0  0  0  0  0  0  0
  161.2720  209.5640  149.4640 C   0  0  1  0  0  3  0  0  0  0  0  0
  159.3950  213.8150  152.0480 C   0  0  0  0  0  0  0  0  0  0  0  0
  161.0120  210.5540  152.1230 C   0  0  0  0  0  0  0  0  0  0  0  0
  159.7960  211.8830  155.9120 C   0  0  0  0  0  2  0  0  0  0  0  0
  159.9740  212.9810  149.2460 C   0  0  1  0  0  3  0  0  0  0  0  0
  160.5490  209.8020  157.0480 C   0  0  0  0  0  1  0  0  0  0  0  0
  162.3390  209.5660  150.3250 C   0  0  1  0  0  3  0  0  0  0  0  0
  162.7610  206.4550  148.2800 O   0  0  0  0  0  0  0  0  0  0  0  0
  161.7770  209.3070  151.7040 C   0  0  2  0  0  3  0  0  0  0  0  0
  160.2970  214.1890  149.8750 O   0  0  0  0  0  0  0  0  0  0  0  0
  159.0730  212.8230  146.9130 C   0  0  0  0  0  3  0  0  0  0  0  0
  160.1530  213.1020  147.7580 C   0  0  0  0  0  0  0  0  0  0  0  0
  161.3920  213.4600  147.2070 C   0  0  0  0  0  3  0  0  0  0  0  0
  163.0900  213.9920  145.1360 Cl  0  0  0  0  0  0  0  0  0  0  0  0
  160.4610  213.2700  144.9800 C   0  0  0  0  0  3  0  0  0  0  0  0
  161.5440  213.5450  145.8200 C   0  0  0  0  0  0  0  0  0  0  0  0
  159.2260  212.9090  145.5270 C   0  0  0  0  0  3  0  0  0  0  0  0
  161.5380  206.5070  154.1140 O   0  0  0  0  0  1  0  0  0  0  0  0
  161.7850  205.8210  152.9220 C   0  0  0  0  0  2  0  0  0  0  0  0
  2 22  1  0  0  0  0
  2 24  1  0  0  0  0
  3  9  1  0  0  0  0
  4  1  1  0  0  0  0
  4 37  1  0  0  0  0
  5 10  1  0  0  0  0
  6 22  1  0  0  0  0
  7 21  2  0  0  0  0
  7  3  1  0  0  0  0
  8 18  1  0  0  0  0
  8 12  1  0  0  0  0
  9  6  2  0  0  0  0
 10  7  1  0  0  0  0
 11  6  1  0  0  0  0
 12  4  2  0  0  0  0
 13  9  1  0  0  0  0
 13 17  1  0  0  0  0
 14  2  1  0  0  0  0
 15 20  1  0  0  0  0
 16 11  2  0  0  0  0
 17  2  1  0  0  0  0
 18 19  1  0  0  0  0
 19  5  1  6  0  0  0
 19 25  1  0  0  0  0
 20  3  2  0  0  0  0
 20 16  1  0  0  0  0
 21 13  1  0  0  0  0
 23 30  1  6  0  0  0
 23 10  1  0  0  0  0
 23 28  1  0  0  0  0
 25 18  1  6  0  0  0
 25 27  1  0  0  0  0
 26  8  2  0  0  0  0
 27  1  1  6  0  0  0
 27 21  1  0  0  0  0
 28 15  1  0  0  0  0
 29 30  1  0  0  0  0
 31 30  2  0  0  0  0
 32 34  1  0  0  0  0
 33 35  1  0  0  0  0
 33 34  2  0  0  0  0
 34 31  1  0  0  0  0
 35 29  2  0  0  0  0
 37 36  1  0  0  0  0
M  END
>  <MODEL>
5

>  <REMARK>
 VINA RESULT:      -4.6      1.848      2.415
  Name = 
  2 active torsions:
  status: ('A' for Active; 'I' for Inactive)
    1  A    between atoms: C_4  and  C_37
    2  A    between atoms: C_23  and  C_30
                            x       y       z     vdW  Elec       q    Type
                         _______ _______ _______ _____ _____    ______ ____

>  <TORSDO>
F 2

$$$$
=
 OpenBabel11122413473D

 37 44  0  0  1  0  0  0  0  0999 V2000
  161.7400  207.5180  153.8660 C   0  0  0  0  0  2  0  0  0  0  0  0
  161.0040  203.4390  151.7170 C   0  0  0  0  0  0  0  0  0  0  0  0
  161.3950  206.8110  149.2900 C   0  0  0  0  0  0  0  0  0  0  0  0
  161.3270  207.8410  155.2910 C   0  0  0  0  0  0  0  0  0  0  0  0
  161.2240  210.3520  150.9140 C   0  0  0  0  0  2  0  0  0  0  0  0
  161.1290  204.4060  149.3710 C   0  0  0  0  0  0  0  0  0  0  0  0
  161.2890  207.8530  150.2150 C   0  0  0  0  0  0  0  0  0  0  0  0
  161.2180  210.3290  154.9610 C   0  0  0  0  0  0  0  0  0  0  0  0
  161.1280  205.6550  149.9670 C   0  0  0  0  0  0  0  0  0  0  0  0
  161.4880  209.2810  149.9230 N   0  0  0  0  0  0  0  0  0  0  0  0
  161.4000  204.3360  147.9960 C   0  0  0  0  0  3  0  0  0  0  0  0
  161.1840  209.0950  155.7660 C   0  0  0  0  0  3  0  0  0  0  0  0
  160.8830  205.8700  151.2600 N   0  0  0  0  0  0  0  0  0  0  0  0
  162.4880  203.3290  152.0190 C   0  0  0  0  0  1  0  0  0  0  0  0
  162.0440  208.0020  147.1370 C   0  0  0  0  0  2  0  0  0  0  0  0
  161.6830  205.5180  147.2740 C   0  0  0  0  0  3  0  0  0  0  0  0
  160.4850  204.8150  152.1920 C   0  0  0  0  0  2  0  0  0  0  0  0
  161.0220  210.2330  153.5630 N   0  0  0  0  0  0  0  0  0  0  0  0
  161.6590  209.8510  152.2510 C   0  0  1  0  0  3  0  0  0  0  0  0
  161.6740  206.7770  147.9120 C   0  0  0  0  0  0  0  0  0  0  0  0
  160.9570  207.2070  151.4560 C   0  0  0  0  0  0  0  0  0  0  0  0
  160.7640  203.2070  150.2040 C   0  0  0  0  0  2  0  0  0  0  0  0
  162.0780  209.6440  148.6200 C   0  0  1  0  0  3  0  0  0  0  0  0
  160.2800  202.3580  152.4910 C   0  0  0  0  0  1  0  0  0  0  0  0
  160.4380  209.3170  152.5720 C   0  0  1  0  0  3  0  0  0  0  0  0
  161.3550  211.4510  155.5120 O   0  0  0  0  0  0  0  0  0  0  0  0
  160.6640  207.8410  152.8070 C   0  0  2  0  0  3  0  0  0  0  0  0
  161.3120  209.1080  147.5790 O   0  0  0  0  0  0  0  0  0  0  0  0
  163.5690  211.6330  148.3060 C   0  0  0  0  0  3  0  0  0  0  0  0
  162.2720  211.1220  148.4190 C   0  0  0  0  0  0  0  0  0  0  0  0
  161.1750  211.9940  148.3750 C   0  0  0  0  0  3  0  0  0  0  0  0
  160.0080  214.4530  148.1540 Cl  0  0  0  0  0  0  0  0  0  0  0  0
  162.6760  213.8730  148.0920 C   0  0  0  0  0  3  0  0  0  0  0  0
  161.3780  213.3670  148.2100 C   0  0  0  0  0  0  0  0  0  0  0  0
  163.7720  213.0060  148.1400 C   0  0  0  0  0  3  0  0  0  0  0  0
  160.0590  206.8790  157.0810 O   0  0  0  0  0  1  0  0  0  0  0  0
  161.2010  206.7320  156.2880 C   0  0  0  0  0  2  0  0  0  0  0  0
  1  4  1  0  0  0  0
  2 14  1  0  0  0  0
  2 17  1  0  0  0  0
  2 24  1  0  0  0  0
  3  9  1  0  0  0  0
  3  7  1  0  0  0  0
  4 12  2  0  0  0  0
  4 37  1  0  0  0  0
  6  9  2  0  0  0  0
  6 22  1  0  0  0  0
  7 21  2  0  0  0  0
  8 26  2  0  0  0  0
  8 12  1  0  0  0  0
  9 13  1  0  0  0  0
 10  7  1  0  0  0  0
 10  5  1  0  0  0  0
 11  6  1  0  0  0  0
 13 21  1  0  0  0  0
 13 17  1  0  0  0  0
 15 28  1  0  0  0  0
 15 20  1  0  0  0  0
 16 20  1  0  0  0  0
 16 11  2  0  0  0  0
 18  8  1  0  0  0  0
 19  5  1  6  0  0  0
 19 25  1  0  0  0  0
 19 18  1  0  0  0  0
 20  3  2  0  0  0  0
 21 27  1  0  0  0  0
 22  2  1  0  0  0  0
 23 30  1  6  0  0  0
 23 10  1  0  0  0  0
 25 27  1  0  0  0  0
 25 18  1  1  0  0  0
 27  1  1  1  0  0  0
 28 23  1  0  0  0  0
 29 30  1  0  0  0  0
 31 30  2  0  0  0  0
 32 34  1  0  0  0  0
 33 35  1  0  0  0  0
 33 34  2  0  0  0  0
 34 31  1  0  0  0  0
 35 29  2  0  0  0  0
 37 36  1  0  0  0  0
M  END
>  <MODEL>
6

>  <REMARK>
 VINA RESULT:      -4.4      2.260      5.545
  Name = 
  2 active torsions:
  status: ('A' for Active; 'I' for Inactive)
    1  A    between atoms: C_4  and  C_37
    2  A    between atoms: C_23  and  C_30
                            x       y       z     vdW  Elec       q    Type
                         _______ _______ _______ _____ _____    ______ ____

>  <TORSDO>
F 2

$$$$
