=
 OpenBabel11122414323D

 34 41  0  0  1  0  0  0  0  0999 V2000
  161.6840  207.7440  149.7620 C   0  0  0  0  0  0  0  0  0  0  0  0
  161.5650  206.0530  147.7900 C   0  0  0  0  0  3  0  0  0  0  0  0
  159.6390  210.7460  154.7170 C   0  0  2  0  0  3  0  0  0  0  0  0
  161.6600  209.1440  151.7490 C   0  0  0  0  0  0  0  0  0  0  0  0
  161.0600  208.1040  153.9360 C   0  0  0  0  0  0  0  0  0  0  0  0
  159.2050  208.5960  155.5610 C   0  0  0  0  0  2  0  0  0  0  0  0
  159.0830  210.0300  155.8510 N   0  0  0  0  0  2  0  0  0  0  0  0
  161.1100  210.9100  155.0490 C   0  0  1  0  0  3  0  0  0  0  0  0
  161.2360  205.3160  149.9660 C   0  0  0  0  0  0  0  0  0  0  0  0
  161.0460  202.3960  150.8330 C   0  0  0  0  0  3  0  0  0  0  0  0
  160.9200  206.9540  153.3450 N   0  0  0  0  0  0  0  0  0  0  0  0
  161.8680  210.5770  153.7780 C   0  0  0  0  0  2  0  0  0  0  0  0
  160.9570  205.3950  151.4330 C   0  0  2  0  0  3  0  0  0  0  0  0
  161.2530  204.6240  147.8200 N   0  0  0  0  0  0  0  0  0  0  0  0
  161.4820  209.2790  153.1740 N   0  0  0  0  0  0  0  0  0  0  0  0
  160.1960  212.1180  155.0310 C   0  0  0  0  0  2  0  0  0  0  0  0
  160.7060  202.9030  149.6380 C   0  0  0  0  0  0  0  0  0  0  0  0
  161.5140  207.8860  151.1500 C   0  0  0  0  0  0  0  0  0  0  0  0
  160.6720  208.1580  155.3920 C   0  0  0  0  0  2  0  0  0  0  0  0
  161.1780  206.7500  151.9760 N   0  0  0  0  0  0  0  0  0  0  0  0
  162.1390  210.1100  149.5640 C   0  0  0  0  0  3  0  0  0  0  0  0
  161.7640  203.0780  151.9320 C   0  0  0  0  0  3  0  0  0  0  0  0
  161.9730  210.2540  150.9440 C   0  0  0  0  0  3  0  0  0  0  0  0
  161.7700  204.3890  152.1870 C   0  0  0  0  0  3  0  0  0  0  0  0
  161.0750  204.2640  149.1910 C   0  0  0  0  0  0  0  0  0  0  0  0
  161.9960  208.8540  148.9720 C   0  0  0  0  0  3  0  0  0  0  0  0
  161.5400  206.4490  149.1900 N   0  0  0  0  0  0  0  0  0  0  0  0
  160.0400  201.9900  148.6650 C   0  0  0  0  0  2  0  0  0  0  0  0
  160.9690  200.8440  148.2960 C   0  0  0  0  0  2  0  0  0  0  0  0
  160.3930  199.6140  145.1790 C   0  0  0  0  0  2  0  0  0  0  0  0
  160.3600  201.7420  146.2190 C   0  0  0  0  0  2  0  0  0  0  0  0
  161.3890  200.9770  146.9120 N   0  0  0  0  0  0  0  0  0  0  0  0
  160.0920  201.0580  144.9020 C   0  0  0  0  0  2  0  0  0  0  0  0
  161.3750  199.6360  146.3330 C   0  0  0  0  0  2  0  0  0  0  0  0
  1 18  1  0  0  0  0
  2 14  2  0  0  0  0
  2 27  1  0  0  0  0
  3 16  1  1  0  0  0
  3  8  1  0  0  0  0
  3  7  1  0  0  0  0
  4 15  1  0  0  0  0
  5 19  1  0  0  0  0
  6  7  1  0  0  0  0
  8 12  1  6  0  0  0
  9 13  1  0  0  0  0
 10 22  1  0  0  0  0
 11  5  2  0  0  0  0
 13 20  1  0  0  0  0
 13 24  1  1  0  0  0
 14 25  1  0  0  0  0
 15 12  1  0  0  0  0
 15  5  1  0  0  0  0
 16  8  1  0  0  0  0
 17 10  2  0  0  0  0
 18  4  2  0  0  0  0
 18 20  1  0  0  0  0
 19  6  1  0  0  0  0
 20 11  1  0  0  0  0
 21 23  2  0  0  0  0
 22 24  2  0  0  0  0
 23  4  1  0  0  0  0
 25 17  1  0  0  0  0
 25  9  2  0  0  0  0
 26 21  1  0  0  0  0
 26  1  2  0  0  0  0
 27  1  1  0  0  0  0
 27  9  1  0  0  0  0
 28 17  1  0  0  0  0
 29 28  1  0  0  0  0
 30 34  1  0  0  0  0
 31 32  1  0  0  0  0
 32 29  1  0  0  0  0
 33 30  1  0  0  0  0
 33 31  1  0  0  0  0
 34 32  1  0  0  0  0
M  END
>  <MODEL>
1

>  <REMARK>
 VINA RESULT:      -9.8      0.000      0.000
  Name = 
  3 active torsions:
  status: ('A' for Active; 'I' for Inactive)
    1  A    between atoms: C_17  and  C_28
    2  A    between atoms: C_28  and  C_29
    3  A    between atoms: C_29  and  N_32
                            x       y       z     vdW  Elec       q    Type
                         _______ _______ _______ _____ _____    ______ ____

>  <TORSDO>
F 3

$$$$
=
 OpenBabel11122414323D

 34 41  0  0  1  0  0  0  0  0999 V2000
  161.0740  204.7990  151.6270 C   0  0  0  0  0  0  0  0  0  0  0  0
  160.6520  205.8500  153.9680 C   0  0  0  0  0  3  0  0  0  0  0  0
  160.1110  203.8750  145.6300 C   0  0  2  0  0  3  0  0  0  0  0  0
  161.4090  204.0560  149.3370 C   0  0  0  0  0  0  0  0  0  0  0  0
  161.6350  205.7780  147.5440 C   0  0  0  0  0  0  0  0  0  0  0  0
  160.2770  206.2140  145.4740 C   0  0  0  0  0  2  0  0  0  0  0  0
  160.0240  204.9890  144.7040 N   0  0  0  0  0  2  0  0  0  0  0  0
  161.5720  203.4660  145.6040 C   0  0  1  0  0  3  0  0  0  0  0  0
  161.0840  207.2210  152.1470 C   0  0  0  0  0  0  0  0  0  0  0  0
  161.6060  210.2250  152.2800 C   0  0  0  0  0  3  0  0  0  0  0  0
  161.5090  206.7160  148.4360 N   0  0  0  0  0  0  0  0  0  0  0  0
  161.9710  203.2400  147.0490 C   0  0  0  0  0  2  0  0  0  0  0  0
  161.2320  207.6240  150.7130 C   0  0  0  0  0  0  0  0  0  0  0  0
  160.5860  207.2620  154.3450 N   0  0  0  0  0  0  0  0  0  0  0  0
  161.6330  204.3710  147.9470 N   0  0  0  0  0  0  0  0  0  0  0  0
  160.5160  202.5540  145.0120 C   0  0  0  0  0  2  0  0  0  0  0  0
  160.8610  209.5000  153.1280 C   0  0  0  0  0  0  0  0  0  0  0  0
  161.2920  205.0950  150.2710 C   0  0  0  0  0  0  0  0  0  0  0  0
  161.6820  206.2260  146.1050 C   0  0  0  0  0  2  0  0  0  0  0  0
  161.3890  206.4620  149.8150 N   0  0  0  0  0  0  0  0  0  0  0  0
  161.0810  202.4340  151.1250 C   0  0  0  0  0  3  0  0  0  0  0  0
  162.4970  209.7270  151.2090 C   0  0  0  0  0  3  0  0  0  0  0  0
  161.3010  202.7250  149.7760 C   0  0  0  0  0  3  0  0  0  0  0  0
  162.3740  208.5770  150.5410 C   0  0  0  0  0  3  0  0  0  0  0  0
  160.8700  208.0220  153.1690 C   0  0  2  0  0  3  0  0  0  0  0  0
  160.9690  203.4710  152.0520 C   0  0  0  0  0  3  0  0  0  0  0  0
  160.9720  205.8780  152.5480 N   0  0  0  0  0  0  0  0  0  0  0  0
  160.0910  210.2360  154.1730 C   0  0  0  0  0  2  0  0  0  0  0  0
  160.8730  211.4510  154.6460 C   0  0  0  0  0  2  0  0  0  0  0  0
  161.0790  209.1360  157.1290 C   0  0  0  0  0  2  0  0  0  0  0  0
  162.5460  210.6830  156.0950 C   0  0  0  0  0  2  0  0  0  0  0  0
  161.2250  211.2950  156.0470 N   0  0  0  0  0  0  0  0  0  0  0  0
  162.5080  209.5970  157.1410 C   0  0  0  0  0  2  0  0  0  0  0  0
  160.2920  210.3260  156.6140 C   0  0  0  0  0  2  0  0  0  0  0  0
  1 26  1  0  0  0  0
  1 27  1  0  0  0  0
  2 14  2  0  0  0  0
  3 16  1  6  0  0  0
  4 23  2  0  0  0  0
  4 18  1  0  0  0  0
  5 15  1  0  0  0  0
  5 11  2  0  0  0  0
  6 19  1  0  0  0  0
  7  6  1  0  0  0  0
  7  3  1  0  0  0  0
  8 16  1  6  0  0  0
  8  3  1  0  0  0  0
  8 12  1  0  0  0  0
  9 27  1  0  0  0  0
 10 17  2  0  0  0  0
 11 20  1  0  0  0  0
 12 15  1  0  0  0  0
 13  9  2  0  0  0  0
 15  4  1  0  0  0  0
 17 25  1  0  0  0  0
 17 28  1  0  0  0  0
 18  1  2  0  0  0  0
 19  5  1  0  0  0  0
 20 18  1  0  0  0  0
 20 13  1  0  0  0  0
 21 26  2  0  0  0  0
 22 10  1  0  0  0  0
 23 21  1  0  0  0  0
 24 13  1  0  0  0  0
 24 22  2  0  0  0  0
 25  9  1  6  0  0  0
 25 14  1  0  0  0  0
 27  2  1  0  0  0  0
 28 29  1  0  0  0  0
 29 32  1  0  0  0  0
 30 33  1  0  0  0  0
 31 33  1  0  0  0  0
 32 31  1  0  0  0  0
 32 34  1  0  0  0  0
 34 30  1  0  0  0  0
M  END
>  <MODEL>
2

>  <REMARK>
 VINA RESULT:      -9.3      1.614      9.226
  Name = 
  3 active torsions:
  status: ('A' for Active; 'I' for Inactive)
    1  A    between atoms: C_17  and  C_28
    2  A    between atoms: C_28  and  C_29
    3  A    between atoms: C_29  and  N_32
                            x       y       z     vdW  Elec       q    Type
                         _______ _______ _______ _____ _____    ______ ____

>  <TORSDO>
F 3

$$$$
=
 OpenBabel11122414323D

 34 41  0  0  1  0  0  0  0  0999 V2000
  161.0550  204.9570  151.6680 C   0  0  0  0  0  0  0  0  0  0  0  0
  160.6030  206.0630  153.9770 C   0  0  0  0  0  3  0  0  0  0  0  0
  160.1640  203.8860  145.6840 C   0  0  2  0  0  3  0  0  0  0  0  0
  161.4180  204.1600  149.4000 C   0  0  0  0  0  0  0  0  0  0  0  0
  161.6630  205.8380  147.5700 C   0  0  0  0  0  0  0  0  0  0  0  0
  160.3280  206.2210  145.4730 C   0  0  0  0  0  2  0  0  0  0  0  0
  160.0860  204.9780  144.7300 N   0  0  0  0  0  2  0  0  0  0  0  0
  161.6250  203.4790  145.6850 C   0  0  1  0  0  3  0  0  0  0  0  0
  161.0550  207.3910  152.1290 C   0  0  0  0  0  0  0  0  0  0  0  0
  161.5710  210.3990  152.1960 C   0  0  0  0  0  3  0  0  0  0  0  0
  161.5250  206.7970  148.4370 N   0  0  0  0  0  0  0  0  0  0  0  0
  162.0080  203.2900  147.1400 C   0  0  0  0  0  2  0  0  0  0  0  0
  161.2190  207.7590  150.6870 C   0  0  0  0  0  0  0  0  0  0  0  0
  160.5310  207.4840  154.3190 N   0  0  0  0  0  0  0  0  0  0  0  0
  161.6570  204.4410  148.0060 N   0  0  0  0  0  0  0  0  0  0  0  0
  160.5780  202.5510  145.1030 C   0  0  0  0  0  2  0  0  0  0  0  0
  160.8170  209.6930  153.0520 C   0  0  0  0  0  0  0  0  0  0  0  0
  161.2880  205.2200  150.3070 C   0  0  0  0  0  0  0  0  0  0  0  0
  161.7260  206.2510  146.1210 C   0  0  0  0  0  2  0  0  0  0  0  0
  161.3890  206.5760  149.8200 N   0  0  0  0  0  0  0  0  0  0  0  0
  161.0710  202.5810  151.2230 C   0  0  0  0  0  3  0  0  0  0  0  0
  162.4750  209.8760  151.1470 C   0  0  0  0  0  3  0  0  0  0  0  0
  161.3070  202.8390  149.8700 C   0  0  0  0  0  3  0  0  0  0  0  0
  162.3610  208.7100  150.5060 C   0  0  0  0  0  3  0  0  0  0  0  0
  160.8280  208.2160  153.1290 C   0  0  2  0  0  3  0  0  0  0  0  0
  160.9460  203.6390  152.1240 C   0  0  0  0  0  3  0  0  0  0  0  0
  160.9400  206.0580  152.5620 N   0  0  0  0  0  0  0  0  0  0  0  0
  160.0330  210.4520  154.0690 C   0  0  0  0  0  2  0  0  0  0  0  0
  159.8020  211.8790  153.5980 C   0  0  0  0  0  2  0  0  0  0  0  0
  156.5700  211.9110  154.6570 C   0  0  0  0  0  2  0  0  0  0  0  0
  158.7050  211.6850  155.6590 C   0  0  0  0  0  2  0  0  0  0  0  0
  158.8970  212.5590  154.5080 N   0  0  0  0  0  0  0  0  0  0  0  0
  157.2320  211.6740  155.9830 C   0  0  0  0  0  2  0  0  0  0  0  0
  157.6050  212.6520  153.8330 C   0  0  0  0  0  2  0  0  0  0  0  0
  1 26  1  0  0  0  0
  1 27  1  0  0  0  0
  2 14  2  0  0  0  0
  3 16  1  6  0  0  0
  3  8  1  0  0  0  0
  4 23  2  0  0  0  0
  4 18  1  0  0  0  0
  5 15  1  0  0  0  0
  5 11  2  0  0  0  0
  6 19  1  0  0  0  0
  7  6  1  0  0  0  0
  7  3  1  0  0  0  0
  8 16  1  6  0  0  0
  8 12  1  0  0  0  0
  9 27  1  0  0  0  0
 10 17  2  0  0  0  0
 11 20  1  0  0  0  0
 12 15  1  0  0  0  0
 13  9  2  0  0  0  0
 15  4  1  0  0  0  0
 17 25  1  0  0  0  0
 17 28  1  0  0  0  0
 18  1  2  0  0  0  0
 19  5  1  0  0  0  0
 20 18  1  0  0  0  0
 20 13  1  0  0  0  0
 21 26  2  0  0  0  0
 22 10  1  0  0  0  0
 23 21  1  0  0  0  0
 24 13  1  0  0  0  0
 24 22  2  0  0  0  0
 25  9  1  6  0  0  0
 25 14  1  0  0  0  0
 27  2  1  0  0  0  0
 29 28  1  0  0  0  0
 29 32  1  0  0  0  0
 30 33  1  0  0  0  0
 31 33  1  0  0  0  0
 32 31  1  0  0  0  0
 34 32  1  0  0  0  0
 34 30  1  0  0  0  0
M  END
>  <MODEL>
3

>  <REMARK>
 VINA RESULT:      -9.1      1.706      9.333
  Name = 
  3 active torsions:
  status: ('A' for Active; 'I' for Inactive)
    1  A    between atoms: C_17  and  C_28
    2  A    between atoms: C_28  and  C_29
    3  A    between atoms: C_29  and  N_32
                            x       y       z     vdW  Elec       q    Type
                         _______ _______ _______ _____ _____    ______ ____

>  <TORSDO>
F 3

$$$$
=
 OpenBabel11122414323D

 34 41  0  0  1  0  0  0  0  0999 V2000
  160.9860  210.6330  151.0150 C   0  0  0  0  0  0  0  0  0  0  0  0
  162.1700  208.8860  149.4960 C   0  0  0  0  0  3  0  0  0  0  0  0
  156.4100  212.9500  154.3960 C   0  0  2  0  0  3  0  0  0  0  0  0
  159.7730  212.0590  152.5660 C   0  0  0  0  0  0  0  0  0  0  0  0
  158.8390  211.0400  154.6430 C   0  0  0  0  0  0  0  0  0  0  0  0
  156.4810  210.8790  155.5030 C   0  0  0  0  0  2  0  0  0  0  0  0
  155.7740  212.1630  155.4370 N   0  0  0  0  0  2  0  0  0  0  0  0
  157.5120  213.7120  155.1080 C   0  0  1  0  0  3  0  0  0  0  0  0
  161.3700  208.2510  151.5800 C   0  0  0  0  0  0  0  0  0  0  0  0
  161.9120  205.5750  152.9420 C   0  0  0  0  0  3  0  0  0  0  0  0
  159.3260  209.8870  154.2910 N   0  0  0  0  0  0  0  0  0  0  0  0
  158.7360  213.6100  154.2190 C   0  0  0  0  0  2  0  0  0  0  0  0
  160.5780  208.3280  152.8470 C   0  0  2  0  0  3  0  0  0  0  0  0
  162.3850  207.4580  149.7300 N   0  0  0  0  0  0  0  0  0  0  0  0
  159.0670  212.2230  153.8130 N   0  0  0  0  0  0  0  0  0  0  0  0
  156.3040  214.4500  154.5680 C   0  0  0  0  0  2  0  0  0  0  0  0
  161.8640  205.8100  151.6210 C   0  0  0  0  0  0  0  0  0  0  0  0
  160.2970  210.8040  152.2280 C   0  0  0  0  0  0  0  0  0  0  0  0
  157.9670  211.0490  155.8730 C   0  0  0  0  0  2  0  0  0  0  0  0
  160.1070  209.6970  153.1360 N   0  0  0  0  0  0  0  0  0  0  0  0
  160.6280  212.9610  150.4710 C   0  0  0  0  0  3  0  0  0  0  0  0
  161.9080  206.5700  154.0370 C   0  0  0  0  0  3  0  0  0  0  0  0
  159.9450  213.1350  151.6770 C   0  0  0  0  0  3  0  0  0  0  0  0
  161.3670  207.7910  154.0010 C   0  0  0  0  0  3  0  0  0  0  0  0
  161.8700  207.1650  151.0300 C   0  0  0  0  0  0  0  0  0  0  0  0
  161.1510  211.7110  150.1390 C   0  0  0  0  0  3  0  0  0  0  0  0
  161.5140  209.3470  150.7100 N   0  0  0  0  0  0  0  0  0  0  0  0
  161.9490  204.6340  150.7070 C   0  0  0  0  0  2  0  0  0  0  0  0
  161.1750  203.4600  151.2870 C   0  0  0  0  0  2  0  0  0  0  0  0
  161.2580  202.5870  148.0020 C   0  0  0  0  0  2  0  0  0  0  0  0
  160.9070  201.4780  150.0650 C   0  0  0  0  0  2  0  0  0  0  0  0
  160.3860  202.8280  150.2450 N   0  0  0  0  0  0  0  0  0  0  0  0
  161.0150  201.2250  148.5830 C   0  0  0  0  0  2  0  0  0  0  0  0
  160.6580  203.5510  149.0060 C   0  0  0  0  0  2  0  0  0  0  0  0
  1 18  1  0  0  0  0
  2 14  2  0  0  0  0
  2 27  1  0  0  0  0
  3 16  1  1  0  0  0
  3  8  1  0  0  0  0
  3  7  1  0  0  0  0
  4 15  1  0  0  0  0
  5 19  1  0  0  0  0
  6 19  1  0  0  0  0
  7  6  1  0  0  0  0
  8 12  1  6  0  0  0
  9 13  1  0  0  0  0
 10 22  1  0  0  0  0
 11  5  2  0  0  0  0
 13 20  1  0  0  0  0
 13 24  1  1  0  0  0
 14 25  1  0  0  0  0
 15 12  1  0  0  0  0
 15  5  1  0  0  0  0
 16  8  1  0  0  0  0
 17 10  2  0  0  0  0
 18  4  2  0  0  0  0
 18 20  1  0  0  0  0
 20 11  1  0  0  0  0
 21 23  2  0  0  0  0
 23  4  1  0  0  0  0
 24 22  2  0  0  0  0
 25  9  2  0  0  0  0
 25 17  1  0  0  0  0
 26 21  1  0  0  0  0
 26  1  2  0  0  0  0
 27  1  1  0  0  0  0
 27  9  1  0  0  0  0
 28 29  1  0  0  0  0
 28 17  1  0  0  0  0
 30 33  1  0  0  0  0
 30 34  1  0  0  0  0
 31 32  1  0  0  0  0
 32 29  1  0  0  0  0
 33 31  1  0  0  0  0
 34 32  1  0  0  0  0
M  END
>  <MODEL>
4

>  <REMARK>
 VINA RESULT:      -7.0      2.218      3.787
  Name = 
  3 active torsions:
  status: ('A' for Active; 'I' for Inactive)
    1  A    between atoms: C_17  and  C_28
    2  A    between atoms: C_28  and  C_29
    3  A    between atoms: C_29  and  N_32
                            x       y       z     vdW  Elec       q    Type
                         _______ _______ _______ _____ _____    ______ ____

>  <TORSDO>
F 3

$$$$
