=
 OpenBabel11122413343D

 37 44  0  0  1  0  0  0  0  0999 V2000
  160.7210  208.6260  151.3130 O   0  0  0  0  0  0  0  0  0  0  0  0
  160.6780  208.4000  156.4470 C   0  0  0  0  0  0  0  0  0  0  0  0
  159.1710  211.4580  154.1030 C   0  0  0  0  0  0  0  0  0  0  0  0
  161.5690  207.6530  150.8870 N   0  0  0  0  0  0  0  0  0  0  0  0
  160.4870  212.0140  150.7190 C   0  0  0  0  0  3  0  0  0  0  0  0
  159.3450  210.5470  156.3300 N   0  0  0  0  0  0  0  0  0  0  0  0
  159.7810  211.2760  152.8880 N   0  0  0  0  0  0  0  0  0  0  0  0
  162.0100  209.4020  149.2040 C   0  0  0  0  0  0  0  0  0  0  0  0
  159.6560  210.5790  155.0180 C   0  0  0  0  0  0  0  0  0  0  0  0
  159.5920  212.0260  151.7270 C   0  0  0  0  0  0  0  0  0  0  0  0
  158.4680  211.4690  156.8190 C   0  0  0  0  0  3  0  0  0  0  0  0
  161.9470  207.9300  149.5030 C   0  0  0  0  0  2  0  0  0  0  0  0
  160.5380  209.7830  154.4370 C   0  0  0  0  0  0  0  0  0  0  0  0
  159.6090  207.3350  156.3040 C   0  0  0  0  0  1  0  0  0  0  0  0
  157.4690  213.2800  153.7810 C   0  0  0  0  0  3  0  0  0  0  0  0
  157.8660  212.4110  155.9570 C   0  0  0  0  0  3  0  0  0  0  0  0
  161.1660  208.7560  155.1370 O   0  0  0  0  0  0  0  0  0  0  0  0
  162.7100  210.3920  150.1050 C   0  0  1  0  0  3  0  0  0  0  0  0
  161.6850  211.2760  150.7460 N   0  0  0  0  0  0  0  0  0  0  0  0
  158.1850  212.4380  154.5870 C   0  0  0  0  0  0  0  0  0  0  0  0
  160.6340  210.1930  153.1250 C   0  0  0  0  0  0  0  0  0  0  0  0
  160.0750  209.6180  157.2120 C   0  0  0  0  0  2  0  0  0  0  0  0
  158.4680  212.8810  151.4850 C   0  0  0  0  0  0  0  0  0  0  0  0
  161.8180  207.8270  157.2610 C   0  0  0  0  0  1  0  0  0  0  0  0
  162.5240  210.3160  151.4860 C   0  0  1  0  0  3  0  0  0  0  0  0
  161.5220  209.8010  148.1600 O   0  0  0  0  0  0  0  0  0  0  0  0
  161.4970  209.4130  152.1710 C   0  0  2  0  0  3  0  0  0  0  0  0
  157.5830  213.4240  152.4170 C   0  0  0  0  0  3  0  0  0  0  0  0
  156.8390  213.4690  149.6660 C   0  0  0  0  0  3  0  0  0  0  0  0
  158.1670  213.3500  150.1010 C   0  0  0  0  0  0  0  0  0  0  0  0
  159.2130  213.6830  149.2210 C   0  0  0  0  0  3  0  0  0  0  0  0
  159.9940  214.4530  147.0390 N   0  0  0  0  0  1  0  0  0  0  0  0
  157.6030  214.2390  147.5000 C   0  0  0  0  0  3  0  0  0  0  0  0
  158.9300  214.1200  147.9240 C   0  0  0  0  0  0  0  0  0  0  0  0
  156.5580  213.9130  148.3700 C   0  0  0  0  0  3  0  0  0  0  0  0
  160.8180  205.8170  149.4790 C   0  0  0  0  0  1  0  0  0  0  0  0
  160.8230  206.4070  150.8780 C   0  0  0  0  0  2  0  0  0  0  0  0
  2 22  1  0  0  0  0
  2 24  1  0  0  0  0
  3 20  1  0  0  0  0
  3  9  2  0  0  0  0
  4  1  1  0  0  0  0
  5 19  1  0  0  0  0
  5 10  2  0  0  0  0
  6 11  1  0  0  0  0
  6 22  1  0  0  0  0
  7 21  1  0  0  0  0
  7  3  1  0  0  0  0
  8 12  1  0  0  0  0
  9  6  1  0  0  0  0
 10  7  1  0  0  0  0
 12  4  1  0  0  0  0
 13  9  1  0  0  0  0
 13 17  1  0  0  0  0
 14  2  1  0  0  0  0
 15 20  2  0  0  0  0
 16 11  2  0  0  0  0
 17  2  1  0  0  0  0
 18  8  1  6  0  0  0
 18 19  1  0  0  0  0
 18 25  1  0  0  0  0
 20 16  1  0  0  0  0
 21 13  2  0  0  0  0
 23 10  1  0  0  0  0
 23 28  2  0  0  0  0
 25 19  1  6  0  0  0
 25 27  1  0  0  0  0
 26  8  2  0  0  0  0
 27  1  1  6  0  0  0
 27 21  1  0  0  0  0
 28 15  1  0  0  0  0
 29 30  1  0  0  0  0
 30 23  1  0  0  0  0
 31 30  2  0  0  0  0
 32 34  1  0  0  0  0
 33 34  2  0  0  0  0
 33 35  1  0  0  0  0
 34 31  1  0  0  0  0
 35 29  2  0  0  0  0
 36 37  1  0  0  0  0
 37  4  1  0  0  0  0
M  END
>  <MODEL>
1

>  <REMARK>
 VINA RESULT:      -6.1      0.000      0.000
  Name = 
  2 active torsions:
  status: ('A' for Active; 'I' for Inactive)
    1  A    between atoms: N_4  and  C_37
    2  A    between atoms: C_23  and  C_30
                            x       y       z     vdW  Elec       q    Type
                         _______ _______ _______ _____ _____    ______ ____

>  <TORSDO>
F 2

$$$$
=
 OpenBabel11122413343D

 37 44  0  0  1  0  0  0  0  0999 V2000
  160.6270  210.7840  147.9530 O   0  0  0  0  0  0  0  0  0  0  0  0
  161.5610  206.0320  146.2370 C   0  0  0  0  0  0  0  0  0  0  0  0
  161.3380  207.2220  150.1920 C   0  0  0  0  0  0  0  0  0  0  0  0
  160.7600  211.6170  146.8870 N   0  0  0  0  0  0  0  0  0  0  0  0
  162.0070  210.7150  151.1130 C   0  0  0  0  0  3  0  0  0  0  0  0
  161.4970  205.3550  148.6720 N   0  0  0  0  0  0  0  0  0  0  0  0
  161.5020  208.5830  150.1390 N   0  0  0  0  0  0  0  0  0  0  0  0
  161.6520  213.0470  148.6890 C   0  0  0  0  0  0  0  0  0  0  0  0
  161.4960  206.6730  148.9610 C   0  0  0  0  0  0  0  0  0  0  0  0
  161.4740  209.4790  151.2070 C   0  0  0  0  0  0  0  0  0  0  0  0
  161.3270  204.4620  149.6890 C   0  0  0  0  0  3  0  0  0  0  0  0
  160.9250  212.9850  147.3760 C   0  0  0  0  0  2  0  0  0  0  0  0
  161.7140  207.6320  148.0760 C   0  0  0  0  0  0  0  0  0  0  0  0
  160.0990  205.9830  145.8370 C   0  0  0  0  0  1  0  0  0  0  0  0
  160.7580  206.6660  152.5740 C   0  0  0  0  0  3  0  0  0  0  0  0
  161.1130  204.9130  151.0090 C   0  0  0  0  0  3  0  0  0  0  0  0
  161.8730  207.3540  146.7210 O   0  0  0  0  0  0  0  0  0  0  0  0
  162.9270  212.2810  148.9560 C   0  0  1  0  0  3  0  0  0  0  0  0
  162.6460  211.2040  149.9580 N   0  0  0  0  0  0  0  0  0  0  0  0
  161.1060  206.2890  151.3060 C   0  0  0  0  0  0  0  0  0  0  0  0
  161.7240  208.8180  148.7780 C   0  0  0  0  0  0  0  0  0  0  0  0
  161.8280  204.9250  147.3020 C   0  0  0  0  0  2  0  0  0  0  0  0
  160.9100  209.1960  152.4940 C   0  0  0  0  0  0  0  0  0  0  0  0
  162.4020  205.7430  145.0110 C   0  0  0  0  0  1  0  0  0  0  0  0
  163.0240  210.9470  148.5570 C   0  0  1  0  0  3  0  0  0  0  0  0
  161.2240  213.7930  149.5540 O   0  0  0  0  0  0  0  0  0  0  0  0
  161.8550  210.1160  148.0280 C   0  0  2  0  0  3  0  0  0  0  0  0
  160.6380  207.9490  153.0570 C   0  0  0  0  0  3  0  0  0  0  0  0
  161.3780  210.4940  154.5910 C   0  0  0  0  0  3  0  0  0  0  0  0
  160.6020  210.3080  153.4380 C   0  0  0  0  0  0  0  0  0  0  0  0
  159.5330  211.1850  153.1780 C   0  0  0  0  0  3  0  0  0  0  0  0
  158.1580  213.1070  153.7960 N   0  0  0  0  0  1  0  0  0  0  0  0
  160.0250  212.4060  155.2100 C   0  0  0  0  0  3  0  0  0  0  0  0
  159.2430  212.2250  154.0650 C   0  0  0  0  0  0  0  0  0  0  0  0
  161.0910  211.5410  155.4730 C   0  0  0  0  0  3  0  0  0  0  0  0
  159.6560  212.3180  144.8360 C   0  0  0  0  0  1  0  0  0  0  0  0
  159.5070  211.5790  146.1540 C   0  0  0  0  0  2  0  0  0  0  0  0
  2 17  1  0  0  0  0
  2 22  1  0  0  0  0
  3 20  1  0  0  0  0
  4 12  1  0  0  0  0
  4  1  1  0  0  0  0
  5 10  2  0  0  0  0
  6  9  1  0  0  0  0
  6 11  1  0  0  0  0
  7  3  1  0  0  0  0
  7 10  1  0  0  0  0
  8 26  2  0  0  0  0
  9  3  2  0  0  0  0
 10 23  1  0  0  0  0
 11 16  2  0  0  0  0
 12  8  1  0  0  0  0
 13 21  2  0  0  0  0
 13  9  1  0  0  0  0
 14  2  1  0  0  0  0
 15 28  1  0  0  0  0
 16 20  1  0  0  0  0
 17 13  1  0  0  0  0
 18  8  1  6  0  0  0
 18 19  1  0  0  0  0
 19  5  1  0  0  0  0
 20 15  2  0  0  0  0
 21  7  1  0  0  0  0
 22  6  1  0  0  0  0
 23 28  2  0  0  0  0
 23 30  1  0  0  0  0
 24  2  1  0  0  0  0
 25 18  1  0  0  0  0
 25 19  1  1  0  0  0
 27  1  1  1  0  0  0
 27 25  1  0  0  0  0
 27 21  1  0  0  0  0
 29 35  1  0  0  0  0
 30 29  2  0  0  0  0
 31 30  1  0  0  0  0
 31 34  2  0  0  0  0
 32 34  1  0  0  0  0
 33 35  2  0  0  0  0
 34 33  1  0  0  0  0
 36 37  1  0  0  0  0
 37  4  1  0  0  0  0
M  END
>  <MODEL>
2

>  <REMARK>
 VINA RESULT:      -6.0      2.743      7.034
  Name = 
  2 active torsions:
  status: ('A' for Active; 'I' for Inactive)
    1  A    between atoms: N_4  and  C_37
    2  A    between atoms: C_23  and  C_30
                            x       y       z     vdW  Elec       q    Type
                         _______ _______ _______ _____ _____    ______ ____

>  <TORSDO>
F 2

$$$$
=
 OpenBabel11122413343D

 37 44  0  0  1  0  0  0  0  0999 V2000
  161.1520  212.0560  148.9310 O   0  0  0  0  0  0  0  0  0  0  0  0
  158.0250  213.3640  152.7930 C   0  0  0  0  0  0  0  0  0  0  0  0
  157.3580  214.0010  148.7610 C   0  0  0  0  0  0  0  0  0  0  0  0
  162.3490  211.7370  149.4890 N   0  0  0  0  0  0  0  0  0  0  0  0
  160.1890  214.2280  146.4310 C   0  0  0  0  0  3  0  0  0  0  0  0
  156.4180  214.0900  150.9810 N   0  0  0  0  0  0  0  0  0  0  0  0
  158.6020  213.8870  148.1960 N   0  0  0  0  0  0  0  0  0  0  0  0
  163.1000  212.8000  147.3930 C   0  0  0  0  0  0  0  0  0  0  0  0
  157.4370  213.9200  150.1140 C   0  0  0  0  0  0  0  0  0  0  0  0
  158.9290  213.9830  146.8430 C   0  0  0  0  0  0  0  0  0  0  0  0
  155.1780  214.3720  150.4880 C   0  0  0  0  0  3  0  0  0  0  0  0
  163.3770  211.7690  148.4500 C   0  0  0  0  0  2  0  0  0  0  0  0
  158.6930  213.7060  150.4690 C   0  0  0  0  0  0  0  0  0  0  0  0
  157.7250  211.8840  152.9350 C   0  0  0  0  0  1  0  0  0  0  0  0
  155.7280  214.2030  146.8580 C   0  0  0  0  0  3  0  0  0  0  0  0
  154.9620  214.4430  149.0950 C   0  0  0  0  0  3  0  0  0  0  0  0
  159.0580  213.5410  151.8020 O   0  0  0  0  0  0  0  0  0  0  0  0
  162.6970  214.2190  147.7190 C   0  0  1  0  0  3  0  0  0  0  0  0
  161.2730  214.4280  147.3060 N   0  0  0  0  0  0  0  0  0  0  0  0
  156.0250  214.2590  148.1920 C   0  0  0  0  0  0  0  0  0  0  0  0
  159.4320  213.6830  149.3050 C   0  0  0  0  0  0  0  0  0  0  0  0
  156.7070  214.1120  152.4260 C   0  0  0  0  0  2  0  0  0  0  0  0
  157.9900  213.8510  145.7680 C   0  0  0  0  0  0  0  0  0  0  0  0
  158.5250  213.8790  154.1260 C   0  0  0  0  0  1  0  0  0  0  0  0
  161.7380  214.4530  148.7050 C   0  0  1  0  0  3  0  0  0  0  0  0
  163.2640  212.4900  146.2240 O   0  0  0  0  0  0  0  0  0  0  0  0
  160.9000  213.3610  149.3700 C   0  0  2  0  0  3  0  0  0  0  0  0
  156.6020  213.9810  145.8190 C   0  0  0  0  0  3  0  0  0  0  0  0
  158.0720  214.4510  143.3320 C   0  0  0  0  0  3  0  0  0  0  0  0
  158.4720  213.6080  144.3790 C   0  0  0  0  0  0  0  0  0  0  0  0
  159.3370  212.5320  144.1040 C   0  0  0  0  0  3  0  0  0  0  0  0
  160.6590  211.2120  142.5320 N   0  0  0  0  0  1  0  0  0  0  0  0
  159.3850  213.1520  141.7640 C   0  0  0  0  0  3  0  0  0  0  0  0
  159.7860  212.3030  142.8010 C   0  0  0  0  0  0  0  0  0  0  0  0
  158.5290  214.2250  142.0290 C   0  0  0  0  0  3  0  0  0  0  0  0
  161.7230  210.3260  151.3690 C   0  0  0  0  0  1  0  0  0  0  0  0
  162.2560  210.3630  149.9470 C   0  0  0  0  0  2  0  0  0  0  0  0
  1  4  1  0  0  0  0
  2 14  1  0  0  0  0
  2 24  1  0  0  0  0
  3  9  2  0  0  0  0
  4 37  1  0  0  0  0
  5 10  2  0  0  0  0
  5 19  1  0  0  0  0
  6 22  1  0  0  0  0
  7  3  1  0  0  0  0
  7 21  1  0  0  0  0
  8 12  1  0  0  0  0
  9 13  1  0  0  0  0
  9  6  1  0  0  0  0
 10  7  1  0  0  0  0
 11  6  1  0  0  0  0
 12  4  1  0  0  0  0
 13 17  1  0  0  0  0
 15 20  2  0  0  0  0
 16 11  2  0  0  0  0
 17  2  1  0  0  0  0
 18  8  1  1  0  0  0
 18 25  1  0  0  0  0
 19 18  1  0  0  0  0
 20  3  1  0  0  0  0
 20 16  1  0  0  0  0
 21 27  1  0  0  0  0
 21 13  2  0  0  0  0
 22  2  1  0  0  0  0
 23 28  2  0  0  0  0
 23 10  1  0  0  0  0
 25 19  1  6  0  0  0
 25 27  1  0  0  0  0
 26  8  2  0  0  0  0
 27  1  1  6  0  0  0
 28 15  1  0  0  0  0
 29 30  1  0  0  0  0
 30 23  1  0  0  0  0
 31 30  2  0  0  0  0
 32 34  1  0  0  0  0
 33 35  1  0  0  0  0
 33 34  2  0  0  0  0
 34 31  1  0  0  0  0
 35 29  2  0  0  0  0
 37 36  1  0  0  0  0
M  END
>  <MODEL>
3

>  <REMARK>
 VINA RESULT:      -5.4      3.312      5.853
  Name = 
  2 active torsions:
  status: ('A' for Active; 'I' for Inactive)
    1  A    between atoms: N_4  and  C_37
    2  A    between atoms: C_23  and  C_30
                            x       y       z     vdW  Elec       q    Type
                         _______ _______ _______ _____ _____    ______ ____

>  <TORSDO>
F 2

$$$$
=
 OpenBabel11122413343D

 37 44  0  0  1  0  0  0  0  0999 V2000
  160.6160  207.8030  151.1850 O   0  0  0  0  0  0  0  0  0  0  0  0
  160.5010  207.8670  156.3220 C   0  0  0  0  0  0  0  0  0  0  0  0
  160.0160  211.1150  153.8080 C   0  0  0  0  0  0  0  0  0  0  0  0
  161.1220  206.5950  150.8220 N   0  0  0  0  0  0  0  0  0  0  0  0
  161.4430  211.0630  150.4230 C   0  0  0  0  0  3  0  0  0  0  0  0
  159.8980  210.3100  156.0790 N   0  0  0  0  0  0  0  0  0  0  0  0
  160.5410  210.6920  152.6140 N   0  0  0  0  0  0  0  0  0  0  0  0
  162.0840  208.0340  149.0630 C   0  0  0  0  0  0  0  0  0  0  0  0
  160.2040  210.1780  154.7720 C   0  0  0  0  0  0  0  0  0  0  0  0
  160.5940  211.4030  151.4150 C   0  0  0  0  0  0  0  0  0  0  0  0
  159.3480  211.4820  156.5080 C   0  0  0  0  0  3  0  0  0  0  0  0
  161.5690  206.6710  149.4320 C   0  0  0  0  0  2  0  0  0  0  0  0
  160.7970  209.1190  154.2460 C   0  0  0  0  0  0  0  0  0  0  0  0
  159.1550  207.1770  156.2130 C   0  0  0  0  0  1  0  0  0  0  0  0
  158.9620  213.3550  153.3700 C   0  0  0  0  0  3  0  0  0  0  0  0
  159.0680  212.5190  155.5920 C   0  0  0  0  0  3  0  0  0  0  0  0
  161.0760  207.9860  155.0050 O   0  0  0  0  0  0  0  0  0  0  0  0
  163.0550  208.8040  149.9260 C   0  0  1  0  0  3  0  0  0  0  0  0
  162.3530  209.9930  150.5060 N   0  0  0  0  0  0  0  0  0  0  0  0
  159.3820  212.3750  154.2270 C   0  0  0  0  0  0  0  0  0  0  0  0
  161.0170  209.4120  152.9170 C   0  0  0  0  0  0  0  0  0  0  0  0
  160.3030  209.2490  157.0180 C   0  0  0  0  0  2  0  0  0  0  0  0
  159.7900  212.5500  151.1120 C   0  0  0  0  0  0  0  0  0  0  0  0
  161.4070  207.0120  157.1820 C   0  0  0  0  0  1  0  0  0  0  0  0
  162.8530  208.8600  151.3060 C   0  0  1  0  0  3  0  0  0  0  0  0
  161.7440  208.5110  147.9920 O   0  0  0  0  0  0  0  0  0  0  0  0
  161.5970  208.3560  152.0170 C   0  0  2  0  0  3  0  0  0  0  0  0
  159.1160  213.3870  152.0030 C   0  0  0  0  0  3  0  0  0  0  0  0
  160.7590  213.5310  149.0140 C   0  0  0  0  0  3  0  0  0  0  0  0
  159.6500  213.0170  149.7030 C   0  0  0  0  0  0  0  0  0  0  0  0
  158.4080  212.9400  149.0480 C   0  0  0  0  0  3  0  0  0  0  0  0
  157.0160  213.3010  147.0740 N   0  0  0  0  0  1  0  0  0  0  0  0
  159.3890  213.8880  147.0480 C   0  0  0  0  0  3  0  0  0  0  0  0
  158.2770  213.3800  147.7280 C   0  0  0  0  0  0  0  0  0  0  0  0
  160.6280  213.9640  147.6900 C   0  0  0  0  0  3  0  0  0  0  0  0
  160.5740  204.2250  150.8550 C   0  0  0  0  0  1  0  0  0  0  0  0
  160.0270  205.6430  150.8600 C   0  0  0  0  0  2  0  0  0  0  0  0
  2 22  1  0  0  0  0
  2 24  1  0  0  0  0
  3 20  1  0  0  0  0
  3  9  2  0  0  0  0
  4 37  1  0  0  0  0
  4  1  1  0  0  0  0
  5 19  1  0  0  0  0
  5 10  2  0  0  0  0
  6 11  1  0  0  0  0
  6 22  1  0  0  0  0
  7 21  1  0  0  0  0
  7  3  1  0  0  0  0
  8 12  1  0  0  0  0
  9  6  1  0  0  0  0
 10  7  1  0  0  0  0
 12  4  1  0  0  0  0
 13  9  1  0  0  0  0
 13 17  1  0  0  0  0
 14  2  1  0  0  0  0
 15 20  2  0  0  0  0
 16 11  2  0  0  0  0
 17  2  1  0  0  0  0
 18  8  1  6  0  0  0
 18 19  1  0  0  0  0
 18 25  1  0  0  0  0
 20 16  1  0  0  0  0
 21 13  2  0  0  0  0
 23 10  1  0  0  0  0
 23 28  2  0  0  0  0
 25 19  1  6  0  0  0
 25 27  1  0  0  0  0
 26  8  2  0  0  0  0
 27  1  1  6  0  0  0
 27 21  1  0  0  0  0
 28 15  1  0  0  0  0
 29 30  1  0  0  0  0
 30 23  1  0  0  0  0
 31 30  2  0  0  0  0
 32 34  1  0  0  0  0
 33 35  1  0  0  0  0
 33 34  2  0  0  0  0
 34 31  1  0  0  0  0
 35 29  2  0  0  0  0
 36 37  1  0  0  0  0
M  END
>  <MODEL>
4

>  <REMARK>
 VINA RESULT:      -3.4      1.218      1.589
  Name = 
  2 active torsions:
  status: ('A' for Active; 'I' for Inactive)
    1  A    between atoms: N_4  and  C_37
    2  A    between atoms: C_23  and  C_30
                            x       y       z     vdW  Elec       q    Type
                         _______ _______ _______ _____ _____    ______ ____

>  <TORSDO>
F 2

$$$$
=
 OpenBabel11122413343D

 37 44  0  0  1  0  0  0  0  0999 V2000
  160.7170  209.3380  150.9810 O   0  0  0  0  0  0  0  0  0  0  0  0
  160.0940  211.0290  155.7930 C   0  0  0  0  0  0  0  0  0  0  0  0
  158.8260  212.9140  152.3360 C   0  0  0  0  0  0  0  0  0  0  0  0
  161.6210  208.3230  151.0380 N   0  0  0  0  0  0  0  0  0  0  0  0
  160.5110  212.2470  149.1410 C   0  0  0  0  0  3  0  0  0  0  0  0
  158.7580  212.9040  154.7480 N   0  0  0  0  0  0  0  0  0  0  0  0
  159.5720  212.3290  151.3450 N   0  0  0  0  0  0  0  0  0  0  0  0
  162.2280  209.3450  148.8760 C   0  0  0  0  0  0  0  0  0  0  0  0
  159.2140  212.4650  153.5570 C   0  0  0  0  0  0  0  0  0  0  0  0
  159.5070  212.5830  149.9760 C   0  0  0  0  0  0  0  0  0  0  0  0
  157.8190  213.8930  154.7640 C   0  0  0  0  0  3  0  0  0  0  0  0
  162.1500  208.0880  149.6960 C   0  0  0  0  0  2  0  0  0  0  0  0
  160.1660  211.5580  153.4090 C   0  0  0  0  0  0  0  0  0  0  0  0
  159.0620  209.9300  155.9520 C   0  0  0  0  0  1  0  0  0  0  0  0
  157.1500  214.3930  151.1860 C   0  0  0  0  0  3  0  0  0  0  0  0
  157.3070  214.4150  153.5570 C   0  0  0  0  0  3  0  0  0  0  0  0
  160.7240  210.9000  154.5020 O   0  0  0  0  0  0  0  0  0  0  0  0
  162.8090  210.6340  149.4070 C   0  0  1  0  0  3  0  0  0  0  0  0
  161.7070  211.6360  149.5630 N   0  0  0  0  0  0  0  0  0  0  0  0
  157.7800  213.9490  152.3160 C   0  0  0  0  0  0  0  0  0  0  0  0
  160.4060  211.4580  152.0550 C   0  0  0  0  0  0  0  0  0  0  0  0
  159.3930  212.4100  155.9820 C   0  0  0  0  0  2  0  0  0  0  0  0
  158.4070  213.2260  149.3190 C   0  0  0  0  0  0  0  0  0  0  0  0
  161.1410  210.8610  156.8730 C   0  0  0  0  0  1  0  0  0  0  0  0
  162.4680  211.0660  150.6890 C   0  0  1  0  0  3  0  0  0  0  0  0
  161.8570  209.3020  147.7140 O   0  0  0  0  0  0  0  0  0  0  0  0
  161.3820  210.4280  151.5550 C   0  0  2  0  0  3  0  0  0  0  0  0
  157.4160  214.0270  149.8860 C   0  0  0  0  0  3  0  0  0  0  0  0
  157.2400  212.3510  147.2750 C   0  0  0  0  0  3  0  0  0  0  0  0
  158.2600  213.1310  147.8380 C   0  0  0  0  0  0  0  0  0  0  0  0
  159.1400  213.8290  146.9900 C   0  0  0  0  0  3  0  0  0  0  0  0
  159.8990  214.4450  144.7520 N   0  0  0  0  0  1  0  0  0  0  0  0
  157.9800  212.9600  145.0510 C   0  0  0  0  0  3  0  0  0  0  0  0
  159.0030  213.7370  145.6030 C   0  0  0  0  0  0  0  0  0  0  0  0
  157.0990  212.2670  145.8870 C   0  0  0  0  0  3  0  0  0  0  0  0
  161.1250  206.0310  150.3920 C   0  0  0  0  0  1  0  0  0  0  0  0
  160.8960  207.1250  151.4210 C   0  0  0  0  0  2  0  0  0  0  0  0
  1  4  1  0  0  0  0
  2 14  1  0  0  0  0
  2 22  1  0  0  0  0
  2 24  1  0  0  0  0
  3  9  2  0  0  0  0
  4 37  1  0  0  0  0
  5 19  1  0  0  0  0
  5 10  2  0  0  0  0
  6 11  1  0  0  0  0
  6 22  1  0  0  0  0
  7 21  1  0  0  0  0
  7  3  1  0  0  0  0
  8 12  1  0  0  0  0
  9  6  1  0  0  0  0
 10  7  1  0  0  0  0
 12  4  1  0  0  0  0
 13  9  1  0  0  0  0
 13 17  1  0  0  0  0
 15 20  2  0  0  0  0
 16 11  2  0  0  0  0
 17  2  1  0  0  0  0
 18  8  1  1  0  0  0
 18 19  1  0  0  0  0
 18 25  1  0  0  0  0
 20  3  1  0  0  0  0
 20 16  1  0  0  0  0
 21 13  2  0  0  0  0
 23 28  2  0  0  0  0
 23 10  1  0  0  0  0
 25 19  1  6  0  0  0
 25 27  1  0  0  0  0
 26  8  2  0  0  0  0
 27  1  1  6  0  0  0
 27 21  1  0  0  0  0
 28 15  1  0  0  0  0
 29 30  1  0  0  0  0
 30 23  1  0  0  0  0
 31 30  2  0  0  0  0
 32 34  1  0  0  0  0
 33 34  2  0  0  0  0
 33 35  1  0  0  0  0
 34 31  1  0  0  0  0
 35 29  2  0  0  0  0
 36 37  1  0  0  0  0
M  END
>  <MODEL>
5

>  <REMARK>
 VINA RESULT:      -3.1      1.505      2.189
  Name = 
  2 active torsions:
  status: ('A' for Active; 'I' for Inactive)
    1  A    between atoms: N_4  and  C_37
    2  A    between atoms: C_23  and  C_30
                            x       y       z     vdW  Elec       q    Type
                         _______ _______ _______ _____ _____    ______ ____

>  <TORSDO>
F 2

$$$$
