=
 OpenBabel11122414013D

 37 41  0  0  1  0  0  0  0  0999 V2000
  160.4310  205.0830  151.1420 C   0  0  1  0  0  3  0  0  0  0  0  0
  161.1010  208.7140  150.2090 C   0  0  0  0  0  2  0  0  0  0  0  0
  160.3070  202.7450  150.1150 C   0  0  2  0  0  3  0  0  0  0  0  0
  161.1460  206.1220  150.3410 C   0  0  2  0  0  3  0  0  0  0  0  0
  159.7720  204.1850  150.1000 C   0  0  2  0  0  3  0  0  0  0  0  0
  160.9390  207.4670  151.0790 C   0  0  1  0  0  3  0  0  0  0  0  0
  160.3130  202.1840  151.5430 C   0  0  0  0  0  2  0  0  0  0  0  0
  159.8850  204.7620  148.8210 O   0  0  0  0  0  0  0  0  0  0  0  0
  161.6900  205.2450  153.1500 C   0  0  0  0  0  2  0  0  0  0  0  0
  160.6760  203.2300  152.6040 C   0  0  0  0  0  2  0  0  0  0  0  0
  163.0640  207.8940  148.8350 C   0  0  0  0  0  2  0  0  0  0  0  0
  162.5450  208.9690  149.7790 C   0  0  0  0  0  2  0  0  0  0  0  0
  161.3720  204.3750  152.0210 N   0  0  1  0  0  0  0  0  0  0  0  0
  160.4960  206.0280  148.9590 C   0  0  2  0  0  3  0  0  0  0  0  0
  161.6930  207.6290  152.3490 N   0  0  2  0  0  0  0  0  0  0  0  0
  162.0610  207.6330  147.7250 C   0  0  0  0  0  2  0  0  0  0  0  0
  161.5120  206.2110  147.8100 C   0  0  2  0  0  3  0  0  0  0  0  0
  162.5240  206.4590  152.7160 C   0  0  0  0  0  2  0  0  0  0  0  0
  160.7580  209.5130  153.6850 C   0  0  0  0  0  2  0  0  0  0  0  0
  160.7800  207.9990  153.4500 C   0  0  2  0  0  3  0  0  0  0  0  0
  161.2060  207.3460  154.7650 C   0  0  0  0  0  2  0  0  0  0  0  0
  160.5990  207.1480  157.1730 C   0  0  0  0  0  1  0  0  0  0  0  0
  159.7710  209.0290  155.8810 N   0  0  0  0  0  0  0  0  0  0  0  0
  160.1330  207.6240  155.8140 C   0  0  1  0  0  3  0  0  0  0  0  0
  159.9900  209.8760  154.9290 C   0  0  0  0  0  3  0  0  0  0  0  0
  160.8820  205.9020  146.5850 O   0  0  0  0  0  0  0  0  0  0  0  0
  161.8490  205.7150  145.5670 C   0  0  1  0  0  3  0  0  0  0  0  0
  163.6570  204.2120  145.3160 O   0  0  0  0  0  0  0  0  0  0  0  0
  163.0770  204.9960  146.0480 C   0  0  0  0  0  3  0  0  0  0  0  0
  161.2790  205.1160  144.2810 C   0  0  0  0  0  2  0  0  0  0  0  0
  160.1220  204.1770  144.5780 C   0  0  0  0  0  2  0  0  0  0  0  0
  160.6030  202.9130  144.9220 O   0  0  0  0  0  1  0  0  0  0  0  0
  161.6060  202.6910  149.5760 O   0  0  0  0  0  0  0  0  0  0  0  0
  161.5640  201.9240  148.3910 C   0  0  0  0  0  0  0  0  0  0  0  0
  162.1790  202.5920  147.3450 F   0  0  0  0  0  0  0  0  0  0  0  0
  162.1700  200.6910  148.5780 F   0  0  0  0  0  0  0  0  0  0  0  0
  160.2410  201.7150  148.0490 F   0  0  0  0  0  0  0  0  0  0  0  0
  1 13  1  0  0  0  0
  2  6  1  0  0  0  0
  3  7  1  0  0  0  0
  4  6  1  0  0  0  0
  4  1  1  0  0  0  0
  5  3  1  0  0  0  0
  5  1  1  0  0  0  0
  6 15  1  0  0  0  0
  7 10  1  0  0  0  0
  8 14  1  0  0  0  0
  8  5  1  0  0  0  0
 11 12  1  0  0  0  0
 12  2  1  0  0  0  0
 13 10  1  0  0  0  0
 13  9  1  0  0  0  0
 14  4  1  0  0  0  0
 15 18  1  0  0  0  0
 15 20  1  0  0  0  0
 16 17  1  0  0  0  0
 16 11  1  0  0  0  0
 17 14  1  0  0  0  0
 18  9  1  0  0  0  0
 19 25  1  0  0  0  0
 20 19  1  0  0  0  0
 20 21  1  0  0  0  0
 21 24  1  0  0  0  0
 24 23  1  0  0  0  0
 24 22  1  0  0  0  0
 25 23  2  0  0  0  0
 26 17  1  0  0  0  0
 27 29  1  0  0  0  0
 27 26  1  0  0  0  0
 28 29  2  0  0  0  0
 30 31  1  0  0  0  0
 30 27  1  0  0  0  0
 31 32  1  0  0  0  0
 33  3  1  0  0  0  0
 34 36  1  0  0  0  0
 34 33  1  0  0  0  0
 35 34  1  0  0  0  0
 37 34  1  0  0  0  0
M  END
>  <MODEL>
1

>  <REMARK>
 VINA RESULT:      -4.8      0.000      0.000
  Name = 
  8 active torsions:
  status: ('A' for Active; 'I' for Inactive)
    1  A    between atoms: O_1  and  C_4
    2  A    between atoms: O_1  and  C_27
    3  A    between atoms: C_2  and  O_22
    4  A    between atoms: C_4  and  C_12
    5  A    between atoms: C_4  and  C_37
    6  A    between atoms: C_6  and  O_22
    7  A    between atoms: C_8  and  C_12
    8  A    between atoms: N_23  and  C_30
                            x       y       z     vdW  Elec       q    Type
                         _______ _______ _______ _____ _____    ______ ____

>  <TORSDO>
F 8

$$$$
=
 OpenBabel11122414013D

 37 41  0  0  1  0  0  0  0  0999 V2000
  161.7380  210.7880  150.6560 C   0  0  1  0  0  3  0  0  0  0  0  0
  161.9460  207.2870  152.1400 C   0  0  0  0  0  2  0  0  0  0  0  0
  161.6640  212.0060  148.4100 C   0  0  2  0  0  3  0  0  0  0  0  0
  161.4120  209.3300  150.6310 C   0  0  2  0  0  3  0  0  0  0  0  0
  162.4370  211.0450  149.3260 C   0  0  2  0  0  3  0  0  0  0  0  0
  161.6900  208.7930  152.0560 C   0  0  1  0  0  3  0  0  0  0  0  0
  161.2470  213.2680  149.1760 C   0  0  0  0  0  2  0  0  0  0  0  0
  162.7110  209.8260  148.6770 O   0  0  0  0  0  0  0  0  0  0  0  0
  160.1210  211.4930  152.2480 C   0  0  0  0  0  2  0  0  0  0  0  0
  160.8540  212.9900  150.6320 C   0  0  0  0  0  2  0  0  0  0  0  0
  160.2160  206.5710  150.4350 C   0  0  0  0  0  2  0  0  0  0  0  0
  160.6990  206.4440  151.8730 C   0  0  0  0  0  2  0  0  0  0  0  0
  160.5170  211.5840  150.8450 N   0  0  1  0  0  0  0  0  0  0  0  0
  162.3200  208.7730  149.5330 C   0  0  2  0  0  3  0  0  0  0  0  0
  160.7180  209.2040  153.1020 N   0  0  2  0  0  0  0  0  0  0  0  0
  161.3740  206.3960  149.4680 C   0  0  0  0  0  2  0  0  0  0  0  0
  161.6290  207.6820  148.6860 C   0  0  2  0  0  3  0  0  0  0  0  0
  159.6310  210.0840  152.6100 C   0  0  0  0  0  2  0  0  0  0  0  0
  161.7720  208.7780  155.3190 C   0  0  0  0  0  2  0  0  0  0  0  0
  161.4200  209.8170  154.2490 C   0  0  2  0  0  3  0  0  0  0  0  0
  160.5550  210.8810  154.9230 C   0  0  0  0  0  2  0  0  0  0  0  0
  160.5270  212.5290  156.7910 C   0  0  0  0  0  1  0  0  0  0  0  0
  162.0780  210.6620  156.8640 N   0  0  0  0  0  0  0  0  0  0  0  0
  161.3950  211.5910  155.9790 C   0  0  1  0  0  3  0  0  0  0  0  0
  162.3030  209.4230  156.5730 C   0  0  0  0  0  3  0  0  0  0  0  0
  162.4450  207.3740  147.5760 O   0  0  0  0  0  0  0  0  0  0  0  0
  161.8800  206.3130  146.8270 C   0  0  1  0  0  3  0  0  0  0  0  0
  160.1440  206.2670  145.2230 O   0  0  0  0  0  0  0  0  0  0  0  0
  160.4910  206.6130  146.3400 C   0  0  0  0  0  3  0  0  0  0  0  0
  162.7940  205.7870  145.7210 C   0  0  0  0  0  2  0  0  0  0  0  0
  163.0600  204.3010  145.8870 C   0  0  0  0  0  2  0  0  0  0  0  0
  161.9230  203.5660  145.5510 O   0  0  0  0  0  1  0  0  0  0  0  0
  160.5250  211.3750  147.8740 O   0  0  0  0  0  0  0  0  0  0  0  0
  160.0280  212.1750  146.8220 C   0  0  0  0  0  0  0  0  0  0  0  0
  158.8200  212.7570  147.1690 F   0  0  0  0  0  0  0  0  0  0  0  0
  160.9400  213.1620  146.4770 F   0  0  0  0  0  0  0  0  0  0  0  0
  159.8170  211.3700  145.7190 F   0  0  0  0  0  0  0  0  0  0  0  0
  1 13  1  0  0  0  0
  3  7  1  0  0  0  0
  3  5  1  0  0  0  0
  4  1  1  0  0  0  0
  4  6  1  0  0  0  0
  5  1  1  0  0  0  0
  6  2  1  0  0  0  0
  6 15  1  0  0  0  0
  7 10  1  0  0  0  0
  8  5  1  0  0  0  0
  8 14  1  0  0  0  0
  9 18  1  0  0  0  0
 10 13  1  0  0  0  0
 11 12  1  0  0  0  0
 12  2  1  0  0  0  0
 13  9  1  0  0  0  0
 14  4  1  0  0  0  0
 15 20  1  0  0  0  0
 16 11  1  0  0  0  0
 17 16  1  0  0  0  0
 17 14  1  0  0  0  0
 18 15  1  0  0  0  0
 19 25  1  0  0  0  0
 20 21  1  0  0  0  0
 20 19  1  0  0  0  0
 21 24  1  0  0  0  0
 24 22  1  0  0  0  0
 24 23  1  0  0  0  0
 25 23  2  0  0  0  0
 26 17  1  0  0  0  0
 27 26  1  0  0  0  0
 28 29  2  0  0  0  0
 29 27  1  0  0  0  0
 30 31  1  0  0  0  0
 30 27  1  0  0  0  0
 32 31  1  0  0  0  0
 33  3  1  0  0  0  0
 34 35  1  0  0  0  0
 34 33  1  0  0  0  0
 36 34  1  0  0  0  0
 37 34  1  0  0  0  0
M  END
>  <MODEL>
2

>  <REMARK>
 VINA RESULT:      -4.3      3.861      5.997
  Name = 
  8 active torsions:
  status: ('A' for Active; 'I' for Inactive)
    1  A    between atoms: O_1  and  C_4
    2  A    between atoms: O_1  and  C_27
    3  A    between atoms: C_2  and  O_22
    4  A    between atoms: C_4  and  C_12
    5  A    between atoms: C_4  and  C_37
    6  A    between atoms: C_6  and  O_22
    7  A    between atoms: C_8  and  C_12
    8  A    between atoms: N_23  and  C_30
                            x       y       z     vdW  Elec       q    Type
                         _______ _______ _______ _____ _____    ______ ____

>  <TORSDO>
F 8

$$$$
=
 OpenBabel11122414013D

 37 41  0  0  1  0  0  0  0  0999 V2000
  160.5490  204.9440  150.9950 C   0  0  1  0  0  3  0  0  0  0  0  0
  161.1150  208.4450  149.6070 C   0  0  0  0  0  2  0  0  0  0  0  0
  160.4110  202.5000  150.2590 C   0  0  2  0  0  3  0  0  0  0  0  0
  161.2070  205.8880  150.0420 C   0  0  2  0  0  3  0  0  0  0  0  0
  159.8540  203.9230  150.1020 C   0  0  2  0  0  3  0  0  0  0  0  0
  161.0160  207.3090  150.6260 C   0  0  1  0  0  3  0  0  0  0  0  0
  160.4960  202.1120  151.7410 C   0  0  0  0  0  2  0  0  0  0  0  0
  159.8940  204.3450  148.7590 O   0  0  0  0  0  0  0  0  0  0  0  0
  161.9020  205.3550  152.9040 C   0  0  0  0  0  2  0  0  0  0  0  0
  160.8950  203.2800  152.6510 C   0  0  0  0  0  2  0  0  0  0  0  0
  163.0210  207.4870  148.2420 C   0  0  0  0  0  2  0  0  0  0  0  0
  162.5330  208.6620  149.0780 C   0  0  0  0  0  2  0  0  0  0  0  0
  161.5430  204.3540  151.9030 N   0  0  1  0  0  0  0  0  0  0  0  0
  160.4910  205.6240  148.7160 C   0  0  2  0  0  3  0  0  0  0  0  0
  161.8290  207.6270  151.8280 N   0  0  2  0  0  0  0  0  0  0  0  0
  161.9690  207.0870  147.2230 C   0  0  0  0  0  2  0  0  0  0  0  0
  161.4460  205.6800  147.5030 C   0  0  2  0  0  3  0  0  0  0  0  0
  162.6960  206.5170  152.2880 C   0  0  0  0  0  2  0  0  0  0  0  0
  160.8440  209.6440  152.9100 C   0  0  0  0  0  2  0  0  0  0  0  0
  160.9660  208.1160  152.9230 C   0  0  2  0  0  3  0  0  0  0  0  0
  161.5270  207.7220  154.2880 C   0  0  0  0  0  2  0  0  0  0  0  0
  161.0980  207.8890  156.7370 C   0  0  0  0  0  1  0  0  0  0  0  0
  160.0450  209.4710  155.2260 N   0  0  0  0  0  0  0  0  0  0  0  0
  160.5080  208.1000  155.3590 C   0  0  1  0  0  3  0  0  0  0  0  0
  160.1350  210.1600  154.1360 C   0  0  0  0  0  3  0  0  0  0  0  0
  160.7620  205.2220  146.3570 O   0  0  0  0  0  0  0  0  0  0  0  0
  161.5920  204.3600  145.5980 C   0  0  1  0  0  3  0  0  0  0  0  0
  159.9130  203.0820  144.5320 O   0  0  0  0  0  0  0  0  0  0  0  0
  160.9150  203.0720  145.2250 C   0  0  0  0  0  3  0  0  0  0  0  0
  162.2600  205.0430  144.4060 C   0  0  0  0  0  2  0  0  0  0  0  0
  161.2670  205.8930  143.6310 C   0  0  0  0  0  2  0  0  0  0  0  0
  161.6730  206.0210  142.3030 O   0  0  0  0  0  1  0  0  0  0  0  0
  161.6830  202.3950  149.6640 O   0  0  0  0  0  0  0  0  0  0  0  0
  161.5760  201.5580  148.5330 C   0  0  0  0  0  0  0  0  0  0  0  0
  162.1880  200.3350  148.7590 F   0  0  0  0  0  0  0  0  0  0  0  0
  160.2480  201.3590  148.1880 F   0  0  0  0  0  0  0  0  0  0  0  0
  162.2170  202.1690  147.4720 F   0  0  0  0  0  0  0  0  0  0  0  0
  1 13  1  0  0  0  0
  2  6  1  0  0  0  0
  3  7  1  0  0  0  0
  4  6  1  0  0  0  0
  4  1  1  0  0  0  0
  5  3  1  0  0  0  0
  5  1  1  0  0  0  0
  6 15  1  0  0  0  0
  7 10  1  0  0  0  0
  8  5  1  0  0  0  0
 11 12  1  0  0  0  0
 12  2  1  0  0  0  0
 13 10  1  0  0  0  0
 13  9  1  0  0  0  0
 14  8  1  0  0  0  0
 14  4  1  0  0  0  0
 15 18  1  0  0  0  0
 15 20  1  0  0  0  0
 16 17  1  0  0  0  0
 16 11  1  0  0  0  0
 17 14  1  0  0  0  0
 18  9  1  0  0  0  0
 19 20  1  0  0  0  0
 19 25  1  0  0  0  0
 20 21  1  0  0  0  0
 21 24  1  0  0  0  0
 23 24  1  0  0  0  0
 24 22  1  0  0  0  0
 25 23  2  0  0  0  0
 26 17  1  0  0  0  0
 27 26  1  0  0  0  0
 28 29  2  0  0  0  0
 29 27  1  0  0  0  0
 30 27  1  0  0  0  0
 31 30  1  0  0  0  0
 32 31  1  0  0  0  0
 33  3  1  0  0  0  0
 34 35  1  0  0  0  0
 34 33  1  0  0  0  0
 36 34  1  0  0  0  0
 37 34  1  0  0  0  0
M  END
>  <MODEL>
3

>  <REMARK>
 VINA RESULT:      -3.7      0.946      1.433
  Name = 
  8 active torsions:
  status: ('A' for Active; 'I' for Inactive)
    1  A    between atoms: O_1  and  C_4
    2  A    between atoms: O_1  and  C_27
    3  A    between atoms: C_2  and  O_22
    4  A    between atoms: C_4  and  C_12
    5  A    between atoms: C_4  and  C_37
    6  A    between atoms: C_6  and  O_22
    7  A    between atoms: C_8  and  C_12
    8  A    between atoms: N_23  and  C_30
                            x       y       z     vdW  Elec       q    Type
                         _______ _______ _______ _____ _____    ______ ____

>  <TORSDO>
F 8

$$$$
=
 OpenBabel11122414013D

 37 41  0  0  1  0  0  0  0  0999 V2000
  161.0500  206.1150  150.6530 C   0  0  1  0  0  3  0  0  0  0  0  0
  161.0910  206.8550  146.9180 C   0  0  0  0  0  2  0  0  0  0  0  0
  160.9470  204.1650  152.3040 C   0  0  2  0  0  3  0  0  0  0  0  0
  161.4450  205.7780  149.2530 C   0  0  2  0  0  3  0  0  0  0  0  0
  160.2710  204.8960  151.1340 C   0  0  2  0  0  3  0  0  0  0  0  0
  161.2690  207.0720  148.4220 C   0  0  1  0  0  3  0  0  0  0  0  0
  161.3410  205.1570  153.4060 C   0  0  0  0  0  2  0  0  0  0  0  0
  160.0240  204.0220  150.0570 O   0  0  0  0  0  0  0  0  0  0  0  0
  162.7110  207.7500  151.1140 C   0  0  0  0  0  2  0  0  0  0  0  0
  161.8230  206.5080  152.8630 C   0  0  0  0  0  2  0  0  0  0  0  0
  162.7630  204.9710  146.6650 C   0  0  0  0  0  2  0  0  0  0  0  0
  162.3620  206.3710  146.2220 C   0  0  0  0  0  2  0  0  0  0  0  0
  162.2390  206.4130  151.4650 N   0  0  1  0  0  0  0  0  0  0  0  0
  160.5090  204.6270  148.8770 C   0  0  2  0  0  3  0  0  0  0  0  0
  162.2720  208.1400  148.6690 N   0  0  2  0  0  0  0  0  0  0  0  0
  161.5670  204.0370  146.6220 C   0  0  0  0  0  2  0  0  0  0  0  0
  161.2090  203.5470  148.0230 C   0  0  2  0  0  3  0  0  0  0  0  0
  163.2870  207.7950  149.6920 C   0  0  0  0  0  2  0  0  0  0  0  0
  162.2650  210.6020  148.2860 C   0  0  0  0  0  2  0  0  0  0  0  0
  161.6020  209.4150  148.9940 C   0  0  2  0  0  3  0  0  0  0  0  0
  161.6530  209.7010  150.4940 C   0  0  0  0  0  2  0  0  0  0  0  0
  160.9650  211.3530  152.2280 C   0  0  0  0  0  1  0  0  0  0  0  0
  161.1140  212.0460  149.9050 N   0  0  0  0  0  0  0  0  0  0  0  0
  160.7990  210.9320  150.7830 C   0  0  1  0  0  3  0  0  0  0  0  0
  161.7170  211.9200  148.7690 C   0  0  0  0  0  3  0  0  0  0  0  0
  160.3520  202.4310  147.9000 O   0  0  0  0  0  0  0  0  0  0  0  0
  160.7750  201.5990  146.8340 C   0  0  1  0  0  3  0  0  0  0  0  0
  161.5980  199.3940  146.6090 O   0  0  0  0  0  0  0  0  0  0  0  0
  161.5480  200.3980  147.2990 C   0  0  0  0  0  3  0  0  0  0  0  0
  159.6590  201.2400  145.8540 C   0  0  0  0  0  2  0  0  0  0  0  0
  159.9400  201.8000  144.4700 C   0  0  0  0  0  2  0  0  0  0  0  0
  159.1850  202.9530  144.2530 O   0  0  0  0  0  1  0  0  0  0  0  0
  162.0860  203.4650  151.8630 O   0  0  0  0  0  0  0  0  0  0  0  0
  161.7810  202.0870  151.8460 C   0  0  0  0  0  0  0  0  0  0  0  0
  162.7890  201.3480  152.4450 F   0  0  0  0  0  0  0  0  0  0  0  0
  160.5760  201.8390  152.4860 F   0  0  0  0  0  0  0  0  0  0  0  0
  161.6720  201.6770  150.5310 F   0  0  0  0  0  0  0  0  0  0  0  0
  1  5  1  0  0  0  0
  1 13  1  0  0  0  0
  2  6  1  0  0  0  0
  3  7  1  0  0  0  0
  4  1  1  0  0  0  0
  5  3  1  0  0  0  0
  6 15  1  0  0  0  0
  6  4  1  0  0  0  0
  8  5  1  0  0  0  0
  9 13  1  0  0  0  0
 10  7  1  0  0  0  0
 12 11  1  0  0  0  0
 12  2  1  0  0  0  0
 13 10  1  0  0  0  0
 14  4  1  0  0  0  0
 14  8  1  0  0  0  0
 15 20  1  0  0  0  0
 15 18  1  0  0  0  0
 16 11  1  0  0  0  0
 16 17  1  0  0  0  0
 17 14  1  0  0  0  0
 18  9  1  0  0  0  0
 19 25  1  0  0  0  0
 19 20  1  0  0  0  0
 20 21  1  0  0  0  0
 21 24  1  0  0  0  0
 23 24  1  0  0  0  0
 24 22  1  0  0  0  0
 25 23  2  0  0  0  0
 26 17  1  0  0  0  0
 27 29  1  0  0  0  0
 27 26  1  0  0  0  0
 28 29  2  0  0  0  0
 30 27  1  0  0  0  0
 31 30  1  0  0  0  0
 32 31  1  0  0  0  0
 33  3  1  0  0  0  0
 34 33  1  0  0  0  0
 34 35  1  0  0  0  0
 34 36  1  0  0  0  0
 37 34  1  0  0  0  0
M  END
>  <MODEL>
4

>  <REMARK>
 VINA RESULT:      -3.5      2.335      4.025
  Name = 
  8 active torsions:
  status: ('A' for Active; 'I' for Inactive)
    1  A    between atoms: O_1  and  C_4
    2  A    between atoms: O_1  and  C_27
    3  A    between atoms: C_2  and  O_22
    4  A    between atoms: C_4  and  C_12
    5  A    between atoms: C_4  and  C_37
    6  A    between atoms: C_6  and  O_22
    7  A    between atoms: C_8  and  C_12
    8  A    between atoms: N_23  and  C_30
                            x       y       z     vdW  Elec       q    Type
                         _______ _______ _______ _____ _____    ______ ____

>  <TORSDO>
F 8

$$$$
=
 OpenBabel11122414013D

 37 41  0  0  1  0  0  0  0  0999 V2000
  161.8020  206.0420  151.0680 C   0  0  1  0  0  3  0  0  0  0  0  0
  162.7430  208.7510  148.5620 C   0  0  0  0  0  2  0  0  0  0  0  0
  161.3040  205.7040  153.5520 C   0  0  2  0  0  3  0  0  0  0  0  0
  161.7260  207.4460  150.5620 C   0  0  2  0  0  3  0  0  0  0  0  0
  162.3140  206.1790  152.4970 C   0  0  2  0  0  3  0  0  0  0  0  0
  162.2290  207.4140  149.0980 C   0  0  1  0  0  3  0  0  0  0  0  0
  160.7560  204.3170  153.1910 C   0  0  0  0  0  2  0  0  0  0  0  0
  162.7260  207.5040  152.7410 O   0  0  0  0  0  0  0  0  0  0  0  0
  160.2520  205.0360  149.5750 C   0  0  0  0  0  2  0  0  0  0  0  0
  160.5590  204.1160  151.6840 C   0  0  0  0  0  2  0  0  0  0  0  0
  161.0010  210.2280  149.6560 C   0  0  0  0  0  2  0  0  0  0  0  0
  161.6370  209.7830  148.3460 C   0  0  0  0  0  2  0  0  0  0  0  0
  160.4880  205.3910  150.9720 N   0  0  1  0  0  0  0  0  0  0  0  0
  162.6050  208.2320  151.5370 C   0  0  2  0  0  3  0  0  0  0  0  0
  161.3070  206.7890  148.1130 N   0  0  2  0  0  0  0  0  0  0  0  0
  162.0720  210.5820  150.6730 C   0  0  0  0  0  2  0  0  0  0  0  0
  162.0280  209.6280  151.8640 C   0  0  2  0  0  3  0  0  0  0  0  0
  160.0460  206.2800  148.6990 C   0  0  0  0  0  2  0  0  0  0  0  0
  162.3670  206.1980  145.9360 C   0  0  0  0  0  2  0  0  0  0  0  0
  162.0040  205.7330  147.3510 C   0  0  2  0  0  3  0  0  0  0  0  0
  161.1290  204.4880  147.2040 C   0  0  0  0  0  2  0  0  0  0  0  0
  161.0880  202.1910  146.2410 C   0  0  0  0  0  1  0  0  0  0  0  0
  162.6550  203.8270  145.3680 N   0  0  0  0  0  0  0  0  0  0  0  0
  161.9640  203.3820  146.5660 C   0  0  1  0  0  3  0  0  0  0  0  0
  162.8920  205.0670  145.0920 C   0  0  0  0  0  3  0  0  0  0  0  0
  162.7730  210.1980  152.9190 O   0  0  0  0  0  0  0  0  0  0  0  0
  161.9410  210.4240  154.0430 C   0  0  1  0  0  3  0  0  0  0  0  0
  162.6630  209.9310  156.2400 O   0  0  0  0  0  0  0  0  0  0  0  0
  162.7150  210.7060  155.2990 C   0  0  0  0  0  3  0  0  0  0  0  0
  160.8330  211.4470  153.7910 C   0  0  0  0  0  2  0  0  0  0  0  0
  160.2060  211.9120  155.0950 C   0  0  0  0  0  2  0  0  0  0  0  0
  158.8920  211.4530  155.1900 O   0  0  0  0  0  1  0  0  0  0  0  0
  160.2420  206.6190  153.6740 O   0  0  0  0  0  0  0  0  0  0  0  0
  160.2900  207.1870  154.9650 C   0  0  0  0  0  0  0  0  0  0  0  0
  159.3820  206.5730  155.8120 F   0  0  0  0  0  0  0  0  0  0  0  0
  161.5660  207.0910  155.5000 F   0  0  0  0  0  0  0  0  0  0  0  0
  159.9550  208.5240  154.8710 F   0  0  0  0  0  0  0  0  0  0  0  0
  1  5  1  0  0  0  0
  2  6  1  0  0  0  0
  3 33  1  0  0  0  0
  4  1  1  0  0  0  0
  4 14  1  0  0  0  0
  5  8  1  0  0  0  0
  5  3  1  0  0  0  0
  6  4  1  0  0  0  0
  7  3  1  0  0  0  0
  9 13  1  0  0  0  0
 10  7  1  0  0  0  0
 11 16  1  0  0  0  0
 12  2  1  0  0  0  0
 12 11  1  0  0  0  0
 13  1  1  0  0  0  0
 13 10  1  0  0  0  0
 14 17  1  0  0  0  0
 14  8  1  0  0  0  0
 15 18  1  0  0  0  0
 15  6  1  0  0  0  0
 16 17  1  0  0  0  0
 17 26  1  0  0  0  0
 18  9  1  0  0  0  0
 19 20  1  0  0  0  0
 20 15  1  0  0  0  0
 21 20  1  0  0  0  0
 22 24  1  0  0  0  0
 23 24  1  0  0  0  0
 24 21  1  0  0  0  0
 25 23  2  0  0  0  0
 25 19  1  0  0  0  0
 26 27  1  0  0  0  0
 27 29  1  0  0  0  0
 29 28  2  0  0  0  0
 30 27  1  0  0  0  0
 30 31  1  0  0  0  0
 31 32  1  0  0  0  0
 33 34  1  0  0  0  0
 34 36  1  0  0  0  0
 34 35  1  0  0  0  0
 37 34  1  0  0  0  0
M  END
>  <MODEL>
5

>  <REMARK>
 VINA RESULT:      -3.4      4.289      7.765
  Name = 
  8 active torsions:
  status: ('A' for Active; 'I' for Inactive)
    1  A    between atoms: O_1  and  C_4
    2  A    between atoms: O_1  and  C_27
    3  A    between atoms: C_2  and  O_22
    4  A    between atoms: C_4  and  C_12
    5  A    between atoms: C_4  and  C_37
    6  A    between atoms: C_6  and  O_22
    7  A    between atoms: C_8  and  C_12
    8  A    between atoms: N_23  and  C_30
                            x       y       z     vdW  Elec       q    Type
                         _______ _______ _______ _____ _____    ______ ____

>  <TORSDO>
F 8

$$$$
=
 OpenBabel11122414013D

 37 41  0  0  1  0  0  0  0  0999 V2000
  161.8410  209.2460  152.0150 C   0  0  1  0  0  3  0  0  0  0  0  0
  161.3400  207.4560  155.3380 C   0  0  0  0  0  2  0  0  0  0  0  0
  162.2570  208.7780  149.5360 C   0  0  2  0  0  3  0  0  0  0  0  0
  161.3180  208.1050  152.8250 C   0  0  2  0  0  3  0  0  0  0  0  0
  162.7500  208.5920  150.9790 C   0  0  2  0  0  3  0  0  0  0  0  0
  161.3140  208.5780  154.2990 C   0  0  1  0  0  3  0  0  0  0  0  0
  161.9200  210.2510  149.2640 C   0  0  0  0  0  2  0  0  0  0  0  0
  162.9350  207.2300  151.2860 O   0  0  0  0  0  0  0  0  0  0  0  0
  160.1350  210.8320  152.4780 C   0  0  0  0  0  2  0  0  0  0  0  0
  161.2920  210.9610  150.4690 C   0  0  0  0  0  2  0  0  0  0  0  0
  159.7810  205.8660  154.1330 C   0  0  0  0  0  2  0  0  0  0  0  0
  160.0350  206.6620  155.4050 C   0  0  0  0  0  2  0  0  0  0  0  0
  160.7320  210.0100  151.4280 N   0  0  1  0  0  0  0  0  0  0  0  0
  162.2830  206.9600  152.5090 C   0  0  2  0  0  3  0  0  0  0  0  0
  160.2740  209.5790  154.6530 N   0  0  2  0  0  0  0  0  0  0  0  0
  161.0260  205.0950  153.7310 C   0  0  0  0  0  2  0  0  0  0  0  0
  161.5680  205.5960  152.3940 C   0  0  2  0  0  3  0  0  0  0  0  0
  159.4040  209.9770  153.5230 C   0  0  0  0  0  2  0  0  0  0  0  0
  161.8890  210.3590  156.3820 C   0  0  0  0  0  2  0  0  0  0  0  0
  160.8890  210.7600  155.2930 C   0  0  2  0  0  3  0  0  0  0  0  0
  159.8320  211.6420  155.9560 C   0  0  0  0  0  2  0  0  0  0  0  0
  159.5310  213.7440  157.2600 C   0  0  0  0  0  1  0  0  0  0  0  0
  161.7030  212.6600  157.2200 N   0  0  0  0  0  0  0  0  0  0  0  0
  160.5050  212.9230  156.4420 C   0  0  1  0  0  3  0  0  0  0  0  0
  162.3650  211.5510  157.1720 C   0  0  0  0  0  3  0  0  0  0  0  0
  162.4800  204.6390  151.8960 O   0  0  0  0  0  0  0  0  0  0  0  0
  161.8060  203.6880  151.0910 C   0  0  1  0  0  3  0  0  0  0  0  0
  161.7370  201.3770  151.5860 O   0  0  0  0  0  0  0  0  0  0  0  0
  161.3320  202.4920  151.8670 C   0  0  0  0  0  3  0  0  0  0  0  0
  160.7110  204.2930  150.2120 C   0  0  0  0  0  2  0  0  0  0  0  0
  160.3560  203.3670  149.0600 C   0  0  0  0  0  2  0  0  0  0  0  0
  161.5020  203.0390  148.3350 O   0  0  0  0  0  1  0  0  0  0  0  0
  161.1260  207.9770  149.2870 O   0  0  0  0  0  0  0  0  0  0  0  0
  161.4370  207.0840  148.2400 C   0  0  0  0  0  0  0  0  0  0  0  0
  162.1670  207.7160  147.2470 F   0  0  0  0  0  0  0  0  0  0  0  0
  162.1460  205.9910  148.7160 F   0  0  0  0  0  0  0  0  0  0  0  0
  160.2560  206.6310  147.6830 F   0  0  0  0  0  0  0  0  0  0  0  0
  1  4  1  0  0  0  0
  2 12  1  0  0  0  0
  3  5  1  0  0  0  0
  4  6  1  0  0  0  0
  5  8  1  0  0  0  0
  5  1  1  0  0  0  0
  6 15  1  0  0  0  0
  6  2  1  0  0  0  0
  7  3  1  0  0  0  0
  7 10  1  0  0  0  0
  8 14  1  0  0  0  0
  9 18  1  0  0  0  0
 10 13  1  0  0  0  0
 11 12  1  0  0  0  0
 13  1  1  0  0  0  0
 13  9  1  0  0  0  0
 14  4  1  0  0  0  0
 15 20  1  0  0  0  0
 16 11  1  0  0  0  0
 17 14  1  0  0  0  0
 17 16  1  0  0  0  0
 18 15  1  0  0  0  0
 19 25  1  0  0  0  0
 20 21  1  0  0  0  0
 20 19  1  0  0  0  0
 21 24  1  0  0  0  0
 24 23  1  0  0  0  0
 24 22  1  0  0  0  0
 25 23  2  0  0  0  0
 26 17  1  0  0  0  0
 27 29  1  0  0  0  0
 27 26  1  0  0  0  0
 28 29  2  0  0  0  0
 30 27  1  0  0  0  0
 31 30  1  0  0  0  0
 32 31  1  0  0  0  0
 33  3  1  0  0  0  0
 34 36  1  0  0  0  0
 34 33  1  0  0  0  0
 35 34  1  0  0  0  0
 37 34  1  0  0  0  0
M  END
>  <MODEL>
6

>  <REMARK>
 VINA RESULT:      -3.1      2.602      5.399
  Name = 
  8 active torsions:
  status: ('A' for Active; 'I' for Inactive)
    1  A    between atoms: O_1  and  C_4
    2  A    between atoms: O_1  and  C_27
    3  A    between atoms: C_2  and  O_22
    4  A    between atoms: C_4  and  C_12
    5  A    between atoms: C_4  and  C_37
    6  A    between atoms: C_6  and  O_22
    7  A    between atoms: C_8  and  C_12
    8  A    between atoms: N_23  and  C_30
                            x       y       z     vdW  Elec       q    Type
                         _______ _______ _______ _____ _____    ______ ____

>  <TORSDO>
F 8

$$$$
=
 OpenBabel11122414013D

 37 41  0  0  1  0  0  0  0  0999 V2000
  160.8460  204.9020  148.1700 C   0  0  1  0  0  3  0  0  0  0  0  0
  160.3510  202.0150  150.6030 C   0  0  0  0  0  2  0  0  0  0  0  0
  161.1840  207.4350  148.1170 C   0  0  2  0  0  3  0  0  0  0  0  0
  161.1120  204.2250  149.4760 C   0  0  2  0  0  3  0  0  0  0  0  0
  160.2880  206.2680  148.5550 C   0  0  2  0  0  3  0  0  0  0  0  0
  160.6770  202.7490  149.3020 C   0  0  1  0  0  3  0  0  0  0  0  0
  161.5800  207.2900  146.6410 C   0  0  0  0  0  2  0  0  0  0  0  0
  160.0260  206.3130  149.9380 O   0  0  0  0  0  0  0  0  0  0  0  0
  162.3330  203.6500  146.8050 C   0  0  0  0  0  2  0  0  0  0  0  0
  161.8210  205.8370  146.2180 C   0  0  0  0  0  2  0  0  0  0  0  0
  162.2030  203.0150  152.0110 C   0  0  0  0  0  2  0  0  0  0  0  0
  161.5810  201.7370  151.4670 C   0  0  0  0  0  2  0  0  0  0  0  0
  162.0770  204.9720  147.3690 N   0  0  1  0  0  0  0  0  0  0  0  0
  160.2890  205.0350  150.4790 C   0  0  2  0  0  3  0  0  0  0  0  0
  161.5620  201.9120  148.4510 N   0  0  2  0  0  0  0  0  0  0  0  0
  161.1360  203.9090  152.6160 C   0  0  0  0  0  2  0  0  0  0  0  0
  161.0110  205.2140  151.8330 C   0  0  2  0  0  3  0  0  0  0  0  0
  162.7260  202.6350  147.8880 C   0  0  0  0  0  2  0  0  0  0  0  0
  161.5390  200.0660  146.7780 C   0  0  0  0  0  2  0  0  0  0  0  0
  160.7810  201.2510  147.3850 C   0  0  2  0  0  3  0  0  0  0  0  0
  160.4710  202.2190  146.2450 C   0  0  0  0  0  2  0  0  0  0  0  0
  159.3310  202.3890  144.0350 C   0  0  0  0  0  1  0  0  0  0  0  0
  159.9840  200.2090  144.8820 N   0  0  0  0  0  0  0  0  0  0  0  0
  159.5220  201.5310  145.2680 C   0  0  1  0  0  3  0  0  0  0  0  0
  160.8390  199.5170  145.5610 C   0  0  0  0  0  3  0  0  0  0  0  0
  160.2920  206.1390  152.6200 O   0  0  0  0  0  0  0  0  0  0  0  0
  161.1810  207.0320  153.2680 C   0  0  1  0  0  3  0  0  0  0  0  0
  161.5920  209.3550  153.4240 O   0  0  0  0  0  0  0  0  0  0  0  0
  160.8590  208.4750  153.0040 C   0  0  0  0  0  3  0  0  0  0  0  0
  161.3770  206.7320  154.7540 C   0  0  0  0  0  2  0  0  0  0  0  0
  160.0920  206.9540  155.5340 C   0  0  0  0  0  2  0  0  0  0  0  0
  160.3540  206.9650  156.9040 O   0  0  0  0  0  1  0  0  0  0  0  0
  162.3410  207.5030  148.9160 O   0  0  0  0  0  0  0  0  0  0  0  0
  162.2930  208.6980  149.6670 C   0  0  0  0  0  0  0  0  0  0  0  0
  163.0800  208.6020  150.8030 F   0  0  0  0  0  0  0  0  0  0  0  0
  162.7060  209.7790  148.9030 F   0  0  0  0  0  0  0  0  0  0  0  0
  160.9880  208.9150  150.0650 F   0  0  0  0  0  0  0  0  0  0  0  0
  1  5  1  0  0  0  0
  1  4  1  0  0  0  0
  2 12  1  0  0  0  0
  3  5  1  0  0  0  0
  3 33  1  0  0  0  0
  4 14  1  0  0  0  0
  5  8  1  0  0  0  0
  6  4  1  0  0  0  0
  6  2  1  0  0  0  0
  7  3  1  0  0  0  0
  8 14  1  0  0  0  0
  9 13  1  0  0  0  0
  9 18  1  0  0  0  0
 10  7  1  0  0  0  0
 10 13  1  0  0  0  0
 11 16  1  0  0  0  0
 12 11  1  0  0  0  0
 13  1  1  0  0  0  0
 14 17  1  0  0  0  0
 15  6  1  0  0  0  0
 17 16  1  0  0  0  0
 17 26  1  0  0  0  0
 18 15  1  0  0  0  0
 19 20  1  0  0  0  0
 20 15  1  0  0  0  0
 21 20  1  0  0  0  0
 22 24  1  0  0  0  0
 23 24  1  0  0  0  0
 23 25  2  0  0  0  0
 24 21  1  0  0  0  0
 25 19  1  0  0  0  0
 26 27  1  0  0  0  0
 27 30  1  0  0  0  0
 29 27  1  0  0  0  0
 29 28  2  0  0  0  0
 30 31  1  0  0  0  0
 31 32  1  0  0  0  0
 33 34  1  0  0  0  0
 34 37  1  0  0  0  0
 34 35  1  0  0  0  0
 36 34  1  0  0  0  0
M  END
>  <MODEL>
7

>  <REMARK>
 VINA RESULT:      -2.0      3.575      8.227
  Name = 
  8 active torsions:
  status: ('A' for Active; 'I' for Inactive)
    1  A    between atoms: O_1  and  C_4
    2  A    between atoms: O_1  and  C_27
    3  A    between atoms: C_2  and  O_22
    4  A    between atoms: C_4  and  C_12
    5  A    between atoms: C_4  and  C_37
    6  A    between atoms: C_6  and  O_22
    7  A    between atoms: C_8  and  C_12
    8  A    between atoms: N_23  and  C_30
                            x       y       z     vdW  Elec       q    Type
                         _______ _______ _______ _____ _____    ______ ____

>  <TORSDO>
F 8

$$$$
=
 OpenBabel11122414013D

 37 41  0  0  1  0  0  0  0  0999 V2000
  161.9140  205.1150  148.2120 C   0  0  1  0  0  3  0  0  0  0  0  0
  161.3530  203.2630  151.4910 C   0  0  0  0  0  2  0  0  0  0  0  0
  162.1260  204.7070  145.6970 C   0  0  2  0  0  3  0  0  0  0  0  0
  161.2840  204.0200  149.0100 C   0  0  2  0  0  3  0  0  0  0  0  0
  162.6670  204.3910  147.1000 C   0  0  2  0  0  3  0  0  0  0  0  0
  161.4260  204.4230  150.4980 C   0  0  1  0  0  3  0  0  0  0  0  0
  161.9800  206.2220  145.5010 C   0  0  0  0  0  2  0  0  0  0  0  0
  162.6800  203.0050  147.3450 O   0  0  0  0  0  0  0  0  0  0  0  0
  160.4680  206.8940  148.8340 C   0  0  0  0  0  2  0  0  0  0  0  0
  161.5210  206.9550  146.7660 C   0  0  0  0  0  2  0  0  0  0  0  0
  159.5290  201.9520  150.3240 C   0  0  0  0  0  2  0  0  0  0  0  0
  159.9580  202.6490  151.6070 C   0  0  0  0  0  2  0  0  0  0  0  0
  160.8890  206.0470  147.7210 N   0  0  1  0  0  0  0  0  0  0  0  0
  162.0650  202.7710  148.5950 C   0  0  2  0  0  3  0  0  0  0  0  0
  160.5530  205.5380  150.9500 N   0  0  2  0  0  0  0  0  0  0  0  0
  160.6330  201.0390  149.8200 C   0  0  0  0  0  2  0  0  0  0  0  0
  161.1650  201.5210  148.4730 C   0  0  2  0  0  3  0  0  0  0  0  0
  159.6850  206.1000  149.8890 C   0  0  0  0  0  2  0  0  0  0  0  0
  160.9250  206.8330  153.0460 C   0  0  0  0  0  2  0  0  0  0  0  0
  161.3570  206.5960  151.5950 C   0  0  2  0  0  3  0  0  0  0  0  0
  161.2100  207.9280  150.8590 C   0  0  0  0  0  2  0  0  0  0  0  0
  161.9560  210.3050  150.8850 C   0  0  0  0  0  1  0  0  0  0  0  0
  162.1100  208.9800  152.9140 N   0  0  0  0  0  0  0  0  0  0  0  0
  162.1930  208.9260  151.4640 C   0  0  1  0  0  3  0  0  0  0  0  0
  161.5990  208.0420  153.6410 C   0  0  0  0  0  3  0  0  0  0  0  0
  161.9090  200.4740  147.8860 O   0  0  0  0  0  0  0  0  0  0  0  0
  161.2070  199.9280  146.7840 C   0  0  1  0  0  3  0  0  0  0  0  0
  159.7010  200.9870  145.3000 O   0  0  0  0  0  0  0  0  0  0  0  0
  160.8310  200.9590  145.7580 C   0  0  0  0  0  3  0  0  0  0  0  0
  161.8850  198.7030  146.1700 C   0  0  0  0  0  2  0  0  0  0  0  0
  160.9320  197.9450  145.2600 C   0  0  0  0  0  2  0  0  0  0  0  0
  161.5810  197.5780  144.0810 O   0  0  0  0  0  1  0  0  0  0  0  0
  160.8850  204.0770  145.4880 O   0  0  0  0  0  0  0  0  0  0  0  0
  160.2640  204.6790  144.3730 C   0  0  0  0  0  0  0  0  0  0  0  0
  159.5000  205.7690  144.7580 F   0  0  0  0  0  0  0  0  0  0  0  0
  161.2060  205.0780  143.4360 F   0  0  0  0  0  0  0  0  0  0  0  0
  159.4250  203.7540  143.7830 F   0  0  0  0  0  0  0  0  0  0  0  0
  1  4  1  0  0  0  0
  2 12  1  0  0  0  0
  3  5  1  0  0  0  0
  4  6  1  0  0  0  0
  5  8  1  0  0  0  0
  5  1  1  0  0  0  0
  6 15  1  0  0  0  0
  6  2  1  0  0  0  0
  7  3  1  0  0  0  0
  7 10  1  0  0  0  0
  8 14  1  0  0  0  0
  9 18  1  0  0  0  0
 10 13  1  0  0  0  0
 11 12  1  0  0  0  0
 13  1  1  0  0  0  0
 13  9  1  0  0  0  0
 14  4  1  0  0  0  0
 15 20  1  0  0  0  0
 16 11  1  0  0  0  0
 17 14  1  0  0  0  0
 17 16  1  0  0  0  0
 18 15  1  0  0  0  0
 19 25  1  0  0  0  0
 20 19  1  0  0  0  0
 21 24  1  0  0  0  0
 21 20  1  0  0  0  0
 22 24  1  0  0  0  0
 23 25  2  0  0  0  0
 24 23  1  0  0  0  0
 26 17  1  0  0  0  0
 27 26  1  0  0  0  0
 28 29  2  0  0  0  0
 29 27  1  0  0  0  0
 30 27  1  0  0  0  0
 31 30  1  0  0  0  0
 32 31  1  0  0  0  0
 33  3  1  0  0  0  0
 34 35  1  0  0  0  0
 34 33  1  0  0  0  0
 36 34  1  0  0  0  0
 37 34  1  0  0  0  0
M  END
>  <MODEL>
8

>  <REMARK>
 VINA RESULT:      -1.8      2.515      5.117
  Name = 
  8 active torsions:
  status: ('A' for Active; 'I' for Inactive)
    1  A    between atoms: O_1  and  C_4
    2  A    between atoms: O_1  and  C_27
    3  A    between atoms: C_2  and  O_22
    4  A    between atoms: C_4  and  C_12
    5  A    between atoms: C_4  and  C_37
    6  A    between atoms: C_6  and  O_22
    7  A    between atoms: C_8  and  C_12
    8  A    between atoms: N_23  and  C_30
                            x       y       z     vdW  Elec       q    Type
                         _______ _______ _______ _____ _____    ______ ____

>  <TORSDO>
F 8

$$$$
