=
 OpenBabel11122414093D

 28 32  0  0  1  0  0  0  0  0999 V2000
  160.4890  209.9860  155.9450 C   0  0  0  0  0  0  0  0  0  0  0  0
  155.6450  210.6220  154.7270 F   0  0  0  0  0  0  0  0  0  0  0  0
  161.2740  211.8390  151.8280 O   0  0  0  0  0  0  0  0  0  0  0  0
  161.3920  212.4430  156.9370 C   0  0  0  0  0  3  0  0  0  0  0  0
  159.2170  212.9250  152.4570 C   0  0  2  0  0  3  0  0  0  0  0  0
  160.0470  208.7820  155.3960 O   0  0  0  0  0  0  0  0  0  0  0  0
  155.6550  211.1640  157.0210 C   0  0  0  0  0  1  0  0  0  0  0  0
  155.9070  211.6580  155.6110 C   0  0  1  0  0  0  0  0  0  0  0  0
  155.3420  213.4390  153.9960 C   0  0  1  0  0  3  0  0  0  0  0  0
  157.3730  212.1410  155.5010 C   0  0  2  0  0  3  0  0  0  0  0  0
  162.4290  209.5270  153.3440 C   0  0  0  0  0  1  0  0  0  0  0  0
  158.3750  210.9260  153.6260 C   0  0  1  0  0  3  0  0  0  0  0  0
  156.5840  214.0840  154.1380 O   0  0  0  0  0  0  0  0  0  0  0  0
  154.9440  212.7970  155.3170 C   0  0  0  0  0  2  0  0  0  0  0  0
  161.2060  208.6300  153.2520 C   0  0  2  0  0  3  0  0  0  0  0  0
  159.6610  211.1150  155.8600 C   0  0  0  0  0  0  0  0  0  0  0  0
  160.1650  211.7910  152.4220 C   0  0  0  0  0  0  0  0  0  0  0  0
  154.2930  214.4530  153.5950 C   0  0  0  0  0  1  0  0  0  0  0  0
  160.0030  209.2930  152.5620 C   0  0  0  0  0  2  0  0  0  0  0  0
  160.1290  212.3470  156.3480 C   0  0  0  0  0  3  0  0  0  0  0  0
  161.7580  210.0870  156.5360 C   0  0  0  0  0  3  0  0  0  0  0  0
  162.2040  211.3110  157.0350 C   0  0  0  0  0  3  0  0  0  0  0  0
  160.8820  207.9610  154.5900 C   0  0  0  0  0  2  0  0  0  0  0  0
  157.9780  212.3210  153.1110 C   0  0  1  0  0  3  0  0  0  0  0  0
  159.6940  210.6270  153.0810 N   0  0  0  0  0  0  0  0  0  0  0  0
  157.6050  213.1240  154.3460 C   0  0  2  0  0  3  0  0  0  0  0  0
  158.9060  213.3220  151.1570 O   0  0  0  0  0  1  0  0  0  0  0  0
  158.3160  210.9850  155.1730 C   0  0  1  0  0  3  0  0  0  0  0  0
  1 21  1  0  0  0  0
  2  8  1  0  0  0  0
  3 17  2  0  0  0  0
  4 22  1  0  0  0  0
  5 27  1  6  0  0  0
  5 24  1  0  0  0  0
  6  1  1  0  0  0  0
  8  7  1  1  0  0  0
  9 18  1  1  0  0  0
  9 13  1  0  0  0  0
  9 14  1  0  0  0  0
 10  8  1  0  0  0  0
 12 28  1  0  0  0  0
 13 26  1  0  0  0  0
 14  8  1  0  0  0  0
 15 11  1  0  0  0  0
 15 23  1  0  0  0  0
 16  1  2  0  0  0  0
 16 20  1  0  0  0  0
 17  5  1  0  0  0  0
 17 25  1  0  0  0  0
 19 25  1  0  0  0  0
 19 15  1  0  0  0  0
 20  4  2  0  0  0  0
 21 22  2  0  0  0  0
 23  6  1  0  0  0  0
 24 12  1  0  0  0  0
 24 26  1  0  0  0  0
 25 12  1  0  0  0  0
 26 10  1  0  0  0  0
 28 10  1  0  0  0  0
 28 16  1  0  0  0  0
M  END
>  <MODEL>
1

>  <REMARK>
 VINA RESULT:      -2.8      0.000      0.000
  Name = 
  0 active torsions:
  status: ('A' for Active; 'I' for Inactive)
                            x       y       z     vdW  Elec       q    Type
                         _______ _______ _______ _____ _____    ______ ____

>  <TORSDO>
F 0

$$$$
=
 OpenBabel11122414093D

 28 32  0  0  1  0  0  0  0  0999 V2000
  157.4320  211.4420  156.3800 C   0  0  0  0  0  0  0  0  0  0  0  0
  162.0170  209.9240  154.9580 F   0  0  0  0  0  0  0  0  0  0  0  0
  157.5710  213.9040  152.5180 O   0  0  0  0  0  0  0  0  0  0  0  0
  155.5970  209.8470  154.9930 C   0  0  0  0  0  3  0  0  0  0  0  0
  158.9070  211.9910  151.9140 C   0  0  2  0  0  3  0  0  0  0  0  0
  158.3520  212.2700  157.0240 O   0  0  0  0  0  0  0  0  0  0  0  0
  161.0940  207.9460  155.8480 C   0  0  0  0  0  1  0  0  0  0  0  0
  161.1960  208.8530  154.6380 C   0  0  1  0  0  0  0  0  0  0  0  0
  161.7390  208.9040  152.2300 C   0  0  1  0  0  3  0  0  0  0  0  0
  159.7770  209.3250  154.2410 C   0  0  2  0  0  3  0  0  0  0  0  0
  156.6790  214.4520  155.3250 C   0  0  0  0  0  1  0  0  0  0  0  0
  159.8410  211.7720  154.1840 C   0  0  1  0  0  3  0  0  0  0  0  0
  160.3920  209.0100  151.8380 O   0  0  0  0  0  0  0  0  0  0  0  0
  161.8400  208.0760  153.5020 C   0  0  0  0  0  2  0  0  0  0  0  0
  158.0640  214.4460  155.9510 C   0  0  2  0  0  3  0  0  0  0  0  0
  157.8870  210.5720  155.3790 C   0  0  0  0  0  0  0  0  0  0  0  0
  158.3850  213.0050  152.8560 C   0  0  0  0  0  0  0  0  0  0  0  0
  162.5300  208.2330  151.1290 C   0  0  0  0  0  1  0  0  0  0  0  0
  159.1900  214.1010  154.9630 C   0  0  0  0  0  2  0  0  0  0  0  0
  156.9570  209.7860  154.6780 C   0  0  0  0  0  3  0  0  0  0  0  0
  156.0660  211.5020  156.6930 C   0  0  0  0  0  3  0  0  0  0  0  0
  155.1530  210.7020  156.0040 C   0  0  0  0  0  3  0  0  0  0  0  0
  158.1000  213.6490  157.2580 C   0  0  0  0  0  2  0  0  0  0  0  0
  159.9760  211.2740  152.7340 C   0  0  1  0  0  3  0  0  0  0  0  0
  158.9180  212.9020  154.1650 N   0  0  0  0  0  0  0  0  0  0  0  0
  159.6750  209.7850  152.7820 C   0  0  2  0  0  3  0  0  0  0  0  0
  159.5060  212.6220  150.8250 O   0  0  0  0  0  1  0  0  0  0  0  0
  159.3640  210.5660  155.0300 C   0  0  1  0  0  3  0  0  0  0  0  0
  1 21  1  0  0  0  0
  1  6  1  0  0  0  0
  3 17  2  0  0  0  0
  4 22  1  0  0  0  0
  5 27  1  6  0  0  0
  5 24  1  0  0  0  0
  5 17  1  0  0  0  0
  6 23  1  0  0  0  0
  8  2  1  0  0  0  0
  8  7  1  1  0  0  0
  9 18  1  6  0  0  0
  9 14  1  0  0  0  0
 10  8  1  0  0  0  0
 10 28  1  0  0  0  0
 11 15  1  0  0  0  0
 12 28  1  0  0  0  0
 13  9  1  0  0  0  0
 13 26  1  0  0  0  0
 14  8  1  0  0  0  0
 15 23  1  0  0  0  0
 16  1  2  0  0  0  0
 17 25  1  0  0  0  0
 19 15  1  0  0  0  0
 20  4  2  0  0  0  0
 20 16  1  0  0  0  0
 22 21  2  0  0  0  0
 24 26  1  0  0  0  0
 24 12  1  0  0  0  0
 25 12  1  0  0  0  0
 25 19  1  0  0  0  0
 26 10  1  0  0  0  0
 28 16  1  0  0  0  0
M  END
>  <MODEL>
2

>  <REMARK>
 VINA RESULT:      -2.2      2.243      5.547
  Name = 
  0 active torsions:
  status: ('A' for Active; 'I' for Inactive)
                            x       y       z     vdW  Elec       q    Type
                         _______ _______ _______ _____ _____    ______ ____

>  <TORSDO>
F 0

$$$$
=
 OpenBabel11122414093D

 28 32  0  0  1  0  0  0  0  0999 V2000
  161.5010  210.9870  137.9780 C   0  0  0  0  0  0  0  0  0  0  0  0
  157.6100  214.1760  137.7700 F   0  0  0  0  0  0  0  0  0  0  0  0
  162.5210  213.2320  141.8400 O   0  0  0  0  0  0  0  0  0  0  0  0
  160.7390  208.9090  139.6920 C   0  0  0  0  0  3  0  0  0  0  0  0
  160.1170  213.3980  141.8110 C   0  0  2  0  0  3  0  0  0  0  0  0
  161.8940  212.0540  137.1710 O   0  0  0  0  0  0  0  0  0  0  0  0
  156.6430  212.1640  137.0110 C   0  0  0  0  0  1  0  0  0  0  0  0
  157.0470  212.9890  138.2170 C   0  0  1  0  0  0  0  0  0  0  0  0
  156.2220  213.9510  140.3360 C   0  0  1  0  0  3  0  0  0  0  0  0
  158.0450  212.1750  139.0730 C   0  0  2  0  0  3  0  0  0  0  0  0
  164.1160  212.2330  139.5090 C   0  0  0  0  0  1  0  0  0  0  0  0
  160.0360  213.5740  139.3540 C   0  0  1  0  0  3  0  0  0  0  0  0
  156.8810  212.9940  141.1290 O   0  0  0  0  0  0  0  0  0  0  0  0
  155.7990  213.3210  139.0170 C   0  0  0  0  0  2  0  0  0  0  0  0
  163.5800  213.2260  138.4920 C   0  0  2  0  0  3  0  0  0  0  0  0
  160.3030  211.0870  138.6990 C   0  0  0  0  0  0  0  0  0  0  0  0
  161.4540  213.3340  141.1800 C   0  0  0  0  0  0  0  0  0  0  0  0
  154.9980  214.4530  141.0690 C   0  0  0  0  0  1  0  0  0  0  0  0
  162.4890  214.1550  139.0500 C   0  0  0  0  0  2  0  0  0  0  0  0
  159.9360  210.0450  139.5690 C   0  0  0  0  0  3  0  0  0  0  0  0
  162.3060  209.8450  138.1060 C   0  0  0  0  0  3  0  0  0  0  0  0
  161.9220  208.8070  138.9570 C   0  0  0  0  0  3  0  0  0  0  0  0
  163.2250  212.5540  137.1640 C   0  0  0  0  0  2  0  0  0  0  0  0
  159.1940  213.7080  140.6360 C   0  0  1  0  0  3  0  0  0  0  0  0
  161.4290  213.4440  139.7670 N   0  0  0  0  0  0  0  0  0  0  0  0
  158.1160  212.6420  140.5330 C   0  0  2  0  0  3  0  0  0  0  0  0
  160.0740  214.4530  142.7220 O   0  0  0  0  0  1  0  0  0  0  0  0
  159.4790  212.3550  138.5770 C   0  0  1  0  0  3  0  0  0  0  0  0
  1 21  2  0  0  0  0
  1 16  1  0  0  0  0
  2  8  1  0  0  0  0
  5 27  1  1  0  0  0
  6  1  1  0  0  0  0
  8  7  1  6  0  0  0
  8 14  1  0  0  0  0
  8 10  1  0  0  0  0
  9 18  1  1  0  0  0
  9 13  1  0  0  0  0
 10 26  1  0  0  0  0
 12 25  1  0  0  0  0
 12 24  1  0  0  0  0
 14  9  1  0  0  0  0
 15 19  1  0  0  0  0
 15 11  1  0  0  0  0
 16 20  2  0  0  0  0
 17  5  1  0  0  0  0
 17  3  2  0  0  0  0
 19 25  1  0  0  0  0
 20  4  1  0  0  0  0
 21 22  1  0  0  0  0
 22  4  2  0  0  0  0
 23  6  1  0  0  0  0
 23 15  1  0  0  0  0
 24  5  1  0  0  0  0
 25 17  1  0  0  0  0
 26 24  1  0  0  0  0
 26 13  1  0  0  0  0
 28 16  1  0  0  0  0
 28 10  1  0  0  0  0
 28 12  1  0  0  0  0
M  END
>  <MODEL>
3

>  <REMARK>
 VINA RESULT:      -1.8     13.382     15.518
  Name = 
  0 active torsions:
  status: ('A' for Active; 'I' for Inactive)
                            x       y       z     vdW  Elec       q    Type
                         _______ _______ _______ _____ _____    ______ ____

>  <TORSDO>
F 0

$$$$
=
 OpenBabel11122414093D

 28 32  0  0  1  0  0  0  0  0999 V2000
  160.7280  208.9030  156.0350 C   0  0  0  0  0  0  0  0  0  0  0  0
  157.1030  211.2020  153.4030 F   0  0  0  0  0  0  0  0  0  0  0  0
  162.7430  208.4370  151.9460 O   0  0  0  0  0  0  0  0  0  0  0  0
  162.7110  210.8210  156.5070 C   0  0  0  0  0  3  0  0  0  0  0  0
  161.5380  210.5030  151.6540 C   0  0  2  0  0  3  0  0  0  0  0  0
  159.7620  207.9390  155.7470 O   0  0  0  0  0  0  0  0  0  0  0  0
  157.1970  212.5080  155.3630 C   0  0  0  0  0  1  0  0  0  0  0  0
  157.7980  212.2450  153.9970 C   0  0  1  0  0  0  0  0  0  0  0  0
  158.4180  213.3090  151.8570 C   0  0  1  0  0  3  0  0  0  0  0  0
  159.2980  211.9040  154.1640 C   0  0  2  0  0  3  0  0  0  0  0  0
  162.3440  206.6360  154.3070 C   0  0  0  0  0  1  0  0  0  0  0  0
  159.6580  209.7500  153.0570 C   0  0  1  0  0  3  0  0  0  0  0  0
  159.7940  213.2990  152.1490 O   0  0  0  0  0  0  0  0  0  0  0  0
  157.6230  213.4890  153.1420 C   0  0  0  0  0  2  0  0  0  0  0  0
  160.8450  206.4560  154.1370 C   0  0  2  0  0  3  0  0  0  0  0  0
  160.6420  210.1560  155.4130 C   0  0  0  0  0  0  0  0  0  0  0  0
  161.7330  209.1430  152.2010 C   0  0  0  0  0  0  0  0  0  0  0  0
  158.1140  214.4530  150.9140 C   0  0  0  0  0  1  0  0  0  0  0  0
  160.2490  207.2810  152.9850 C   0  0  0  0  0  2  0  0  0  0  0  0
  161.6500  211.1080  155.6440 C   0  0  0  0  0  3  0  0  0  0  0  0
  161.7950  208.6180  156.9000 C   0  0  0  0  0  3  0  0  0  0  0  0
  162.7800  209.5770  157.1380 C   0  0  0  0  0  3  0  0  0  0  0  0
  160.0970  206.5860  155.4660 C   0  0  0  0  0  2  0  0  0  0  0  0
  160.1160  210.8500  152.0830 C   0  0  1  0  0  3  0  0  0  0  0  0
  160.6560  208.6880  153.0030 N   0  0  0  0  0  0  0  0  0  0  0  0
  160.1210  212.1370  152.8900 C   0  0  2  0  0  3  0  0  0  0  0  0
  161.6050  210.4670  150.2610 O   0  0  0  0  0  1  0  0  0  0  0  0
  159.5020  210.4170  154.4460 C   0  0  1  0  0  3  0  0  0  0  0  0
  1 21  1  0  0  0  0
  2  8  1  0  0  0  0
  3 17  2  0  0  0  0
  4 22  1  0  0  0  0
  5 27  1  6  0  0  0
  5 24  1  0  0  0  0
  5 17  1  0  0  0  0
  6  1  1  0  0  0  0
  8 10  1  0  0  0  0
  8  7  1  1  0  0  0
  9 18  1  6  0  0  0
  9 13  1  0  0  0  0
  9 14  1  0  0  0  0
 10 28  1  0  0  0  0
 12 28  1  0  0  0  0
 13 26  1  0  0  0  0
 14  8  1  0  0  0  0
 15 11  1  0  0  0  0
 15 23  1  0  0  0  0
 16 20  1  0  0  0  0
 16  1  2  0  0  0  0
 17 25  1  0  0  0  0
 19 25  1  0  0  0  0
 19 15  1  0  0  0  0
 20  4  2  0  0  0  0
 21 22  2  0  0  0  0
 23  6  1  0  0  0  0
 24 26  1  0  0  0  0
 24 12  1  0  0  0  0
 25 12  1  0  0  0  0
 26 10  1  0  0  0  0
 28 16  1  0  0  0  0
M  END
>  <MODEL>
4

>  <REMARK>
 VINA RESULT:      -1.8      1.798      2.716
  Name = 
  0 active torsions:
  status: ('A' for Active; 'I' for Inactive)
                            x       y       z     vdW  Elec       q    Type
                         _______ _______ _______ _____ _____    ______ ____

>  <TORSDO>
F 0

$$$$
=
 OpenBabel11122414093D

 28 32  0  0  1  0  0  0  0  0999 V2000
  161.7340  210.0230  154.1980 C   0  0  0  0  0  0  0  0  0  0  0  0
  160.4570  214.2350  151.7520 F   0  0  0  0  0  0  0  0  0  0  0  0
  157.7970  210.7000  156.4430 O   0  0  0  0  0  0  0  0  0  0  0  0
  160.3630  207.9270  152.9490 C   0  0  0  0  0  3  0  0  0  0  0  0
  157.2840  211.6380  154.2830 C   0  0  2  0  0  3  0  0  0  0  0  0
  162.3690  211.0800  154.8510 O   0  0  0  0  0  0  0  0  0  0  0  0
  161.3920  212.9250  150.0290 C   0  0  0  0  0  1  0  0  0  0  0  0
  160.1550  213.2210  150.8540 C   0  0  1  0  0  0  0  0  0  0  0  0
  157.7590  213.7960  150.7100 C   0  0  1  0  0  3  0  0  0  0  0  0
  159.7150  211.9300  151.5830 C   0  0  2  0  0  3  0  0  0  0  0  0
  160.5660  209.8980  157.2570 C   0  0  0  0  0  1  0  0  0  0  0  0
  159.5780  212.4790  153.9650 C   0  0  1  0  0  3  0  0  0  0  0  0
  157.3360  212.5030  151.0650 O   0  0  0  0  0  0  0  0  0  0  0  0
  159.0590  213.7130  149.9240 C   0  0  0  0  0  2  0  0  0  0  0  0
  161.2200  211.2450  157.0000 C   0  0  2  0  0  3  0  0  0  0  0  0
  160.7710  210.3100  153.2200 C   0  0  0  0  0  0  0  0  0  0  0  0
  158.1810  211.3150  155.4130 C   0  0  0  0  0  0  0  0  0  0  0  0
  156.6960  214.4530  149.8550 C   0  0  0  0  0  1  0  0  0  0  0  0
  160.2670  212.2930  156.4030 C   0  0  0  0  0  2  0  0  0  0  0  0
  160.0780  209.2520  152.6090 C   0  0  0  0  0  3  0  0  0  0  0  0
  162.0170  208.6920  154.5390 C   0  0  0  0  0  3  0  0  0  0  0  0
  161.3360  207.6480  153.9110 C   0  0  0  0  0  3  0  0  0  0  0  0
  162.5530  211.1040  156.2600 C   0  0  0  0  0  2  0  0  0  0  0  0
  158.1480  212.5320  153.3980 C   0  0  1  0  0  3  0  0  0  0  0  0
  159.5040  211.8000  155.2540 N   0  0  0  0  0  0  0  0  0  0  0  0
  158.2390  211.9410  152.0010 C   0  0  2  0  0  3  0  0  0  0  0  0
  156.1870  212.3660  154.7430 O   0  0  0  0  0  1  0  0  0  0  0  0
  160.4540  211.7610  152.9090 C   0  0  1  0  0  3  0  0  0  0  0  0
  1 21  1  0  0  0  0
  1  6  1  0  0  0  0
  4 22  1  0  0  0  0
  5 27  1  1  0  0  0
  5 17  1  0  0  0  0
  6 23  1  0  0  0  0
  8  7  1  6  0  0  0
  8 10  1  0  0  0  0
  8  2  1  0  0  0  0
  9 18  1  6  0  0  0
  9 13  1  0  0  0  0
 10 26  1  0  0  0  0
 10 28  1  0  0  0  0
 12 25  1  0  0  0  0
 13 26  1  0  0  0  0
 14  9  1  0  0  0  0
 14  8  1  0  0  0  0
 15 11  1  0  0  0  0
 16  1  2  0  0  0  0
 17  3  2  0  0  0  0
 19 15  1  0  0  0  0
 20  4  2  0  0  0  0
 20 16  1  0  0  0  0
 22 21  2  0  0  0  0
 23 15  1  0  0  0  0
 24 12  1  0  0  0  0
 24  5  1  0  0  0  0
 25 17  1  0  0  0  0
 25 19  1  0  0  0  0
 26 24  1  0  0  0  0
 28 16  1  0  0  0  0
 28 12  1  0  0  0  0
M  END
>  <MODEL>
5

>  <REMARK>
 VINA RESULT:      -1.6      2.256      4.589
  Name = 
  0 active torsions:
  status: ('A' for Active; 'I' for Inactive)
                            x       y       z     vdW  Elec       q    Type
                         _______ _______ _______ _____ _____    ______ ____

>  <TORSDO>
F 0

$$$$
