=
 OpenBabel11122414203D

 34 40  0  0  1  0  0  0  0  0999 V2000
  161.0710  207.3550  154.6010 C   0  0  0  0  0  0  0  0  0  0  0  0
  160.5910  205.7340  152.7780 C   0  0  0  0  0  2  0  0  0  0  0  0
  157.5800  212.6020  154.7990 C   0  0  1  0  0  3  0  0  0  0  0  0
  160.4580  209.3000  156.0110 C   0  0  2  0  0  3  0  0  0  0  0  0
  159.9570  211.4500  154.7890 C   0  0  2  0  0  3  0  0  0  0  0  0
  159.6860  213.8920  155.3740 C   0  0  0  0  0  1  0  0  0  0  0  0
  156.9320  211.9630  153.5860 C   0  0  0  0  0  1  0  0  0  0  0  0
  158.0360  212.0890  157.2610 C   0  0  0  0  0  2  0  0  0  0  0  0
  162.0120  207.6120  152.2010 C   0  0  2  0  0  3  0  0  0  0  0  0
  162.0240  208.4160  149.2770 C   0  0  0  0  0  2  0  0  0  0  0  0
  160.0850  210.7290  153.4550 C   0  0  0  0  0  2  0  0  0  0  0  0
  159.2420  211.1400  157.2230 C   0  0  0  0  0  2  0  0  0  0  0  0
  161.2410  208.9480  152.1580 C   0  0  1  0  0  3  0  0  0  0  0  0
  161.1000  205.4660  151.3840 C   0  0  0  0  0  2  0  0  0  0  0  0
  159.4710  210.4630  155.8650 C   0  0  2  0  0  3  0  0  0  0  0  0
  157.0900  211.9040  156.0760 C   0  0  0  0  0  2  0  0  0  0  0  0
  161.1430  207.3940  149.8200 N   0  0  0  0  0  0  0  0  0  0  0  0
  160.8030  208.6750  154.6700 C   0  0  0  0  0  0  0  0  0  0  0  0
  159.1060  212.7180  154.6040 C   0  0  2  0  0  3  0  0  0  0  0  0
  161.1290  209.6140  153.5330 C   0  0  2  0  0  3  0  0  0  0  0  0
  160.2850  206.9330  156.8270 C   0  0  0  0  0  3  0  0  0  0  0  0
  161.5980  209.7730  149.7970 C   0  0  0  0  0  2  0  0  0  0  0  0
  159.9340  208.3090  156.9500 N   0  0  0  0  0  2  0  0  0  0  0  0
  161.9910  209.9250  151.2540 C   0  0  0  0  0  2  0  0  0  0  0  0
  161.8440  206.7270  150.9330 C   0  0  1  0  0  3  0  0  0  0  0  0
  160.8310  206.5030  155.7340 N   0  0  0  0  0  0  0  0  0  0  0  0
  161.5890  206.7030  153.3530 C   0  0  1  0  0  3  0  0  0  0  0  0
  160.9470  206.4510  148.7220 C   0  0  0  0  0  2  0  0  0  0  0  0
  161.7750  206.8650  147.5120 C   0  0  0  0  0  2  0  0  0  0  0  0
  161.2490  203.8070  146.3940 O   0  0  0  0  0  0  0  0  0  0  0  0
  162.3750  205.6440  145.4970 N   0  0  0  0  0  2  0  0  0  0  0  0
  162.5410  205.6850  146.9340 C   0  0  2  0  0  3  0  0  0  0  0  0
  161.8530  204.3130  145.2340 C   0  0  0  0  0  2  0  0  0  0  0  0
  161.9460  204.4020  147.4480 C   0  0  0  0  0  2  0  0  0  0  0  0
  1 18  2  0  0  0  0
  1 26  1  0  0  0  0
  2 27  1  0  0  0  0
  3  7  1  6  0  0  0
  3 16  1  0  0  0  0
  4 18  1  6  0  0  0
  4 23  1  0  0  0  0
  5 11  1  6  0  0  0
  5 15  1  0  0  0  0
  9 27  1  0  0  0  0
 10 22  1  0  0  0  0
 10 17  1  0  0  0  0
 11 20  1  0  0  0  0
 12  8  1  0  0  0  0
 13  9  1  0  0  0  0
 13 20  1  0  0  0  0
 14  2  1  0  0  0  0
 15  4  1  0  0  0  0
 15 12  1  0  0  0  0
 16  8  1  0  0  0  0
 17 25  1  0  0  0  0
 19  5  1  0  0  0  0
 19  3  1  0  0  0  0
 19  6  1  0  0  0  0
 20 18  1  0  0  0  0
 21 23  1  0  0  0  0
 22 24  1  0  0  0  0
 24 13  1  0  0  0  0
 25 14  1  0  0  0  0
 25  9  1  0  0  0  0
 26 21  2  0  0  0  0
 27  1  1  0  0  0  0
 28 17  1  0  0  0  0
 29 28  1  0  0  0  0
 30 34  1  0  0  0  0
 31 32  1  0  0  0  0
 32 34  1  0  0  0  0
 32 29  1  0  0  0  0
 33 31  1  0  0  0  0
 33 30  1  0  0  0  0
M  END
>  <MODEL>
1

>  <REMARK>
 VINA RESULT:      -8.3      0.000      0.000
  Name = 
  3 active torsions:
  status: ('A' for Active; 'I' for Inactive)
    1  A    between atoms: N_17  and  C_28
    2  A    between atoms: C_28  and  C_29
    3  A    between atoms: C_29  and  C_32
                            x       y       z     vdW  Elec       q    Type
                         _______ _______ _______ _____ _____    ______ ____

>  <TORSDO>
F 3

$$$$
=
 OpenBabel11122414203D

 34 40  0  0  1  0  0  0  0  0999 V2000
  161.1270  207.4240  154.9340 C   0  0  0  0  0  0  0  0  0  0  0  0
  160.7910  205.6800  153.1940 C   0  0  0  0  0  2  0  0  0  0  0  0
  157.3960  212.5010  154.6980 C   0  0  1  0  0  3  0  0  0  0  0  0
  160.3730  209.4150  156.2040 C   0  0  2  0  0  3  0  0  0  0  0  0
  159.8220  211.4650  154.8400 C   0  0  2  0  0  3  0  0  0  0  0  0
  159.4190  213.9210  155.2700 C   0  0  0  0  0  1  0  0  0  0  0  0
  156.8260  211.7640  153.5020 C   0  0  0  0  0  1  0  0  0  0  0  0
  157.7810  212.1530  157.2000 C   0  0  0  0  0  2  0  0  0  0  0  0
  162.1480  207.5870  152.5580 C   0  0  2  0  0  3  0  0  0  0  0  0
  162.2350  208.2220  149.5950 C   0  0  0  0  0  2  0  0  0  0  0  0
  160.0340  210.6760  153.5560 C   0  0  0  0  0  2  0  0  0  0  0  0
  159.0290  211.2620  157.2610 C   0  0  0  0  0  2  0  0  0  0  0  0
  161.3190  208.8800  152.4090 C   0  0  1  0  0  3  0  0  0  0  0  0
  161.3650  205.3570  151.8370 C   0  0  0  0  0  2  0  0  0  0  0  0
  159.3410  210.5190  155.9550 C   0  0  2  0  0  3  0  0  0  0  0  0
  156.8900  211.8550  155.9950 C   0  0  0  0  0  2  0  0  0  0  0  0
  161.3810  207.1920  150.1640 N   0  0  0  0  0  0  0  0  0  0  0  0
  160.7970  208.7320  154.9160 C   0  0  0  0  0  0  0  0  0  0  0  0
  158.9230  212.6790  154.5510 C   0  0  2  0  0  3  0  0  0  0  0  0
  161.1240  209.6180  153.7370 C   0  0  2  0  0  3  0  0  0  0  0  0
  160.2760  207.0930  157.1510 C   0  0  0  0  0  3  0  0  0  0  0  0
  161.7280  209.5850  150.0170 C   0  0  0  0  0  2  0  0  0  0  0  0
  159.8590  208.4560  157.1800 N   0  0  0  0  0  2  0  0  0  0  0  0
  162.0580  209.8390  151.4770 C   0  0  0  0  0  2  0  0  0  0  0  0
  162.0680  206.6240  151.3390 C   0  0  1  0  0  3  0  0  0  0  0  0
  160.8830  206.6280  156.1060 N   0  0  0  0  0  0  0  0  0  0  0  0
  161.7220  206.7270  153.7460 C   0  0  1  0  0  3  0  0  0  0  0  0
  161.2700  206.1800  149.1180 C   0  0  0  0  0  2  0  0  0  0  0  0
  160.5130  204.9630  149.6350 C   0  0  0  0  0  2  0  0  0  0  0  0
  159.9720  201.8400  148.7210 O   0  0  0  0  0  0  0  0  0  0  0  0
  161.4320  203.4830  147.9390 N   0  0  0  0  0  2  0  0  0  0  0  0
  161.2770  203.6770  149.3640 C   0  0  2  0  0  3  0  0  0  0  0  0
  160.8620  202.1700  147.6900 C   0  0  0  0  0  2  0  0  0  0  0  0
  160.4680  202.5030  149.8470 C   0  0  0  0  0  2  0  0  0  0  0  0
  1 26  1  0  0  0  0
  2 27  1  0  0  0  0
  3  7  1  6  0  0  0
  3 16  1  0  0  0  0
  4 18  1  6  0  0  0
  4 23  1  0  0  0  0
  5 11  1  6  0  0  0
  5 15  1  0  0  0  0
  8 12  1  0  0  0  0
  9 27  1  0  0  0  0
 10 22  1  0  0  0  0
 10 17  1  0  0  0  0
 11 20  1  0  0  0  0
 13  9  1  0  0  0  0
 13 20  1  0  0  0  0
 14  2  1  0  0  0  0
 15  4  1  0  0  0  0
 15 12  1  0  0  0  0
 16  8  1  0  0  0  0
 17 25  1  0  0  0  0
 18  1  2  0  0  0  0
 19  3  1  0  0  0  0
 19  5  1  0  0  0  0
 19  6  1  0  0  0  0
 20 18  1  0  0  0  0
 21 23  1  0  0  0  0
 22 24  1  0  0  0  0
 24 13  1  0  0  0  0
 25 14  1  0  0  0  0
 25  9  1  0  0  0  0
 26 21  2  0  0  0  0
 27  1  1  0  0  0  0
 28 29  1  0  0  0  0
 28 17  1  0  0  0  0
 30 34  1  0  0  0  0
 31 32  1  0  0  0  0
 32 29  1  0  0  0  0
 32 34  1  0  0  0  0
 33 31  1  0  0  0  0
 33 30  1  0  0  0  0
M  END
>  <MODEL>
2

>  <REMARK>
 VINA RESULT:      -6.3      1.234      1.435
  Name = 
  3 active torsions:
  status: ('A' for Active; 'I' for Inactive)
    1  A    between atoms: N_17  and  C_28
    2  A    between atoms: C_28  and  C_29
    3  A    between atoms: C_29  and  C_32
                            x       y       z     vdW  Elec       q    Type
                         _______ _______ _______ _____ _____    ______ ____

>  <TORSDO>
F 3

$$$$
