=
 OpenBabel11122412513D

 32 37  0  0  1  0  0  0  0  0999 V2000
  157.7880  213.3140  145.5500 C   0  0  0  0  0  2  0  0  0  0  0  0
  160.1230  213.2950  150.7950 C   0  0  1  0  0  3  0  0  0  0  0  0
  162.0450  209.4560  148.6260 C   0  0  0  0  0  2  0  0  0  0  0  0
  162.2660  208.7550  149.8920 N   0  0  0  0  0  2  0  0  0  0  0  0
  159.3760  213.1010  153.2200 C   0  0  0  0  0  0  0  0  0  0  0  0
  159.3210  212.3280  154.3780 C   0  0  0  0  0  0  0  0  0  0  0  0
  158.7100  213.2060  148.7390 C   0  0  0  0  0  0  0  0  0  0  0  0
  161.2160  213.5600  148.6950 C   0  0  0  0  0  2  0  0  0  0  0  0
  159.7240  210.5290  155.7860 C   0  0  1  0  0  3  0  0  0  0  0  0
  159.8360  214.1870  146.7130 C   0  0  0  0  0  2  0  0  0  0  0  0
  162.1840  210.9640  148.8340 C   0  0  0  0  0  2  0  0  0  0  0  0
  161.2640  212.8280  149.9770 N   0  0  2  0  0  0  0  0  0  0  0  0
  161.1600  211.4200  149.7860 N   0  0  2  0  0  0  0  0  0  0  0  0
  160.6370  211.2710  152.1990 C   0  0  0  0  0  0  0  0  0  0  0  0
  158.9450  211.6600  156.4210 C   0  0  0  0  0  3  0  0  0  0  0  0
  157.3130  211.9860  146.7020 S   0  0  0  0  0  0  0  0  0  0  0  0
  159.9600  213.2240  147.8830 C   0  0  2  0  0  3  0  0  0  0  0  0
  158.7270  212.6610  155.6190 N   0  0  0  0  0  0  0  0  0  0  0  0
  157.3420  213.1140  148.1300 C   0  0  0  0  0  2  0  0  0  0  0  0
  159.3030  213.4640  145.4830 C   0  0  2  0  0  3  0  0  0  0  0  0
  161.3080  209.2380  150.8870 C   0  0  0  0  0  2  0  0  0  0  0  0
  161.4720  210.7510  151.0620 C   0  0  1  0  0  3  0  0  0  0  0  0
  160.5730  210.5740  153.3750 N   0  0  0  0  0  0  0  0  0  0  0  0
  158.7980  213.1800  150.0740 C   0  0  0  0  0  3  0  0  0  0  0  0
  158.7430  214.4530  153.1840 C   0  0  0  0  0  1  0  0  0  0  0  0
  158.8520  209.2890  155.7150 C   0  0  0  0  0  1  0  0  0  0  0  0
  160.0540  212.5590  152.1030 C   0  0  0  0  0  0  0  0  0  0  0  0
  159.9030  211.0990  154.4300 C   0  0  0  0  0  0  0  0  0  0  0  0
  159.6640  214.2270  144.2960 N   0  0  0  0  0  2  0  0  0  0  0  0
  160.0700  213.6050  143.0760 C   0  0  0  0  0  0  0  0  0  0  0  0
  160.1550  212.3510  142.9910 O   0  0  0  0  0  0  0  0  0  0  0  0
  160.4010  214.4470  141.8970 C   0  0  0  0  0  1  0  0  0  0  0  0
  1 16  1  0  0  0  0
  2 24  1  6  0  0  0
  2 27  1  0  0  0  0
  3 11  1  0  0  0  0
  3  4  1  0  0  0  0
  4 21  1  0  0  0  0
  5  6  1  0  0  0  0
  6 28  2  0  0  0  0
  6 18  1  0  0  0  0
  7 24  2  0  0  0  0
  9 26  1  6  0  0  0
  9 15  1  0  0  0  0
 12  8  1  6  0  0  0
 12  2  1  0  0  0  0
 13 11  1  6  0  0  0
 13 12  1  0  0  0  0
 13 22  1  0  0  0  0
 14 23  2  0  0  0  0
 16 19  1  0  0  0  0
 17 10  1  6  0  0  0
 17  8  1  0  0  0  0
 17  7  1  0  0  0  0
 18 15  2  0  0  0  0
 19  7  1  0  0  0  0
 20 29  1  6  0  0  0
 20  1  1  0  0  0  0
 20 10  1  0  0  0  0
 22 21  1  6  0  0  0
 22 14  1  0  0  0  0
 23 28  1  0  0  0  0
 25  5  1  0  0  0  0
 27 14  1  0  0  0  0
 27  5  2  0  0  0  0
 28  9  1  0  0  0  0
 30 29  1  0  0  0  0
 31 30  2  0  0  0  0
 32 30  1  0  0  0  0
M  END
>  <MODEL>
1

>  <REMARK>
 VINA RESULT:      -3.4      0.000      0.000
  Name = 
  1 active torsions:
  status: ('A' for Active; 'I' for Inactive)
    1  A    between atoms: C_20  and  N_29
                            x       y       z     vdW  Elec       q    Type
                         _______ _______ _______ _____ _____    ______ ____

>  <TORSDO>
F 1

$$$$
=
 OpenBabel11122412513D

 32 37  0  0  1  0  0  0  0  0999 V2000
  162.0340  208.7730  150.9440 C   0  0  0  0  0  2  0  0  0  0  0  0
  161.7070  213.0800  147.1610 C   0  0  1  0  0  3  0  0  0  0  0  0
  157.2610  212.7440  148.9650 C   0  0  0  0  0  2  0  0  0  0  0  0
  156.6460  213.3040  147.7590 N   0  0  0  0  0  2  0  0  0  0  0  0
  162.0040  213.4560  144.6620 C   0  0  0  0  0  0  0  0  0  0  0  0
  161.4050  213.7130  143.4300 C   0  0  0  0  0  0  0  0  0  0  0  0
  161.9150  210.9400  148.4290 C   0  0  0  0  0  0  0  0  0  0  0  0
  161.3910  213.1630  149.5210 C   0  0  0  0  0  2  0  0  0  0  0  0
  159.7150  214.1960  141.9170 C   0  0  1  0  0  3  0  0  0  0  0  0
  162.2630  211.2750  150.8990 C   0  0  0  0  0  2  0  0  0  0  0  0
  158.6440  213.3590  149.1780 C   0  0  0  0  0  2  0  0  0  0  0  0
  160.8070  213.5730  148.2270 N   0  0  2  0  0  0  0  0  0  0  0  0
  159.5070  213.0230  148.0360 N   0  0  2  0  0  0  0  0  0  0  0  0
  159.7680  213.5980  145.6440 C   0  0  0  0  0  0  0  0  0  0  0  0
  161.0970  214.1110  141.3070 C   0  0  0  0  0  3  0  0  0  0  0  0
  161.0600  208.5190  149.4280 S   0  0  0  0  0  0  0  0  0  0  0  0
  161.4280  211.6390  149.6820 C   0  0  2  0  0  3  0  0  0  0  0  0
  162.0340  213.8400  142.1680 N   0  0  0  0  0  0  0  0  0  0  0  0
  162.2370  209.4750  148.4220 C   0  0  0  0  0  2  0  0  0  0  0  0
  161.6540  210.0830  151.6260 C   0  0  2  0  0  3  0  0  0  0  0  0
  157.5160  213.0510  146.6110 C   0  0  0  0  0  2  0  0  0  0  0  0
  158.8920  213.6730  146.8630 C   0  0  1  0  0  3  0  0  0  0  0  0
  159.2460  213.8740  144.4100 N   0  0  0  0  0  0  0  0  0  0  0  0
  161.9830  211.5960  147.2650 C   0  0  0  0  0  3  0  0  0  0  0  0
  163.4810  213.2610  144.7580 C   0  0  0  0  0  1  0  0  0  0  0  0
  158.8450  213.0860  141.3590 C   0  0  0  0  0  1  0  0  0  0  0  0
  161.1630  213.4010  145.7980 C   0  0  0  0  0  0  0  0  0  0  0  0
  160.0620  213.9060  143.3270 C   0  0  0  0  0  0  0  0  0  0  0  0
  162.1360  210.0730  152.9990 N   0  0  0  0  0  2  0  0  0  0  0  0
  161.4710  210.7740  154.0530 C   0  0  0  0  0  0  0  0  0  0  0  0
  160.4400  211.4570  153.8200 O   0  0  0  0  0  0  0  0  0  0  0  0
  162.0080  210.6990  155.4370 C   0  0  0  0  0  1  0  0  0  0  0  0
  1 20  1  0  0  0  0
  2 24  1  6  0  0  0
  2 12  1  0  0  0  0
  3 11  1  0  0  0  0
  4  3  1  0  0  0  0
  5 25  1  0  0  0  0
  5 27  1  0  0  0  0
  6  5  2  0  0  0  0
  7 17  1  0  0  0  0
  9 26  1  6  0  0  0
  9 28  1  0  0  0  0
 10 20  1  0  0  0  0
 12  8  1  1  0  0  0
 13 12  1  0  0  0  0
 13 11  1  1  0  0  0
 14 27  2  0  0  0  0
 14 22  1  0  0  0  0
 15  9  1  0  0  0  0
 15 18  2  0  0  0  0
 16  1  1  0  0  0  0
 17  8  1  6  0  0  0
 17 10  1  0  0  0  0
 18  6  1  0  0  0  0
 19  7  1  0  0  0  0
 19 16  1  0  0  0  0
 20 29  1  1  0  0  0
 21  4  1  0  0  0  0
 22 21  1  6  0  0  0
 22 13  1  0  0  0  0
 23 14  1  0  0  0  0
 24  7  2  0  0  0  0
 27  2  1  0  0  0  0
 28  6  1  0  0  0  0
 28 23  2  0  0  0  0
 29 30  1  0  0  0  0
 30 32  1  0  0  0  0
 31 30  2  0  0  0  0
M  END
>  <MODEL>
2

>  <REMARK>
 VINA RESULT:      -2.6      3.025      8.856
  Name = 
  1 active torsions:
  status: ('A' for Active; 'I' for Inactive)
    1  A    between atoms: C_20  and  N_29
                            x       y       z     vdW  Elec       q    Type
                         _______ _______ _______ _____ _____    ______ ____

>  <TORSDO>
F 1

$$$$
=
 OpenBabel11122412513D

 32 37  0  0  1  0  0  0  0  0999 V2000
  161.7210  209.4780  151.0440 C   0  0  0  0  0  2  0  0  0  0  0  0
  161.6760  213.5890  147.0360 C   0  0  1  0  0  3  0  0  0  0  0  0
  157.0810  212.2080  147.3710 C   0  0  0  0  0  2  0  0  0  0  0  0
  156.7790  212.6070  145.9950 N   0  0  0  0  0  2  0  0  0  0  0  0
  162.6710  214.0280  144.7360 C   0  0  0  0  0  0  0  0  0  0  0  0
  162.4620  214.1370  143.3620 C   0  0  0  0  0  0  0  0  0  0  0  0
  161.9370  211.5580  148.4630 C   0  0  0  0  0  0  0  0  0  0  0  0
  160.6040  213.5920  149.1630 C   0  0  0  0  0  2  0  0  0  0  0  0
  161.2880  214.2080  141.3630 C   0  0  1  0  0  3  0  0  0  0  0  0
  161.3840  211.9630  150.8850 C   0  0  0  0  0  2  0  0  0  0  0  0
  158.1460  213.1320  147.9610 C   0  0  0  0  0  2  0  0  0  0  0  0
  160.3930  213.8540  147.7250 N   0  0  2  0  0  0  0  0  0  0  0  0
  159.3830  213.0110  147.1770 N   0  0  2  0  0  0  0  0  0  0  0  0
  160.2670  213.6350  144.9520 C   0  0  0  0  0  0  0  0  0  0  0  0
  162.7740  214.4530  141.2260 C   0  0  0  0  0  3  0  0  0  0  0  0
  161.3720  209.0020  149.3220 S   0  0  0  0  0  0  0  0  0  0  0  0
  160.9280  212.1200  149.4420 C   0  0  2  0  0  3  0  0  0  0  0  0
  163.4190  214.4110  142.3560 N   0  0  0  0  0  0  0  0  0  0  0  0
  162.5650  210.2110  148.6680 C   0  0  0  0  0  2  0  0  0  0  0  0
  160.8570  210.6600  151.4710 C   0  0  2  0  0  3  0  0  0  0  0  0
  158.0070  212.5680  145.2010 C   0  0  0  0  0  2  0  0  0  0  0  0
  159.0510  213.4990  145.8250 C   0  0  1  0  0  3  0  0  0  0  0  0
  160.1240  213.7810  143.5990 N   0  0  0  0  0  0  0  0  0  0  0  0
  162.2290  212.2130  147.3330 C   0  0  0  0  0  3  0  0  0  0  0  0
  164.0420  214.1880  145.3060 C   0  0  0  0  0  1  0  0  0  0  0  0
  160.9170  212.9240  140.6450 C   0  0  0  0  0  1  0  0  0  0  0  0
  161.5440  213.7740  145.5510 C   0  0  0  0  0  0  0  0  0  0  0  0
  161.2170  214.0060  142.8290 C   0  0  0  0  0  0  0  0  0  0  0  0
  160.8580  210.7630  152.9230 N   0  0  0  0  0  2  0  0  0  0  0  0
  159.7760  211.3410  153.6540 C   0  0  0  0  0  0  0  0  0  0  0  0
  158.7750  211.8140  153.0540 O   0  0  0  0  0  0  0  0  0  0  0  0
  159.8360  211.3920  155.1380 C   0  0  0  0  0  1  0  0  0  0  0  0
  1 20  1  0  0  0  0
  2 24  1  6  0  0  0
  2 12  1  0  0  0  0
  3 11  1  0  0  0  0
  4  3  1  0  0  0  0
  5 25  1  0  0  0  0
  5 27  1  0  0  0  0
  6  5  2  0  0  0  0
  7 19  1  0  0  0  0
  7 17  1  0  0  0  0
  9 26  1  6  0  0  0
  9 28  1  0  0  0  0
 10 20  1  0  0  0  0
 12  8  1  1  0  0  0
 13 12  1  0  0  0  0
 13 11  1  1  0  0  0
 14 27  2  0  0  0  0
 14 22  1  0  0  0  0
 15  9  1  0  0  0  0
 15 18  2  0  0  0  0
 16  1  1  0  0  0  0
 17  8  1  6  0  0  0
 17 10  1  0  0  0  0
 18  6  1  0  0  0  0
 19 16  1  0  0  0  0
 20 29  1  1  0  0  0
 21  4  1  0  0  0  0
 22 21  1  6  0  0  0
 22 13  1  0  0  0  0
 23 14  1  0  0  0  0
 24  7  2  0  0  0  0
 27  2  1  0  0  0  0
 28  6  1  0  0  0  0
 28 23  2  0  0  0  0
 29 30  1  0  0  0  0
 30 32  1  0  0  0  0
 31 30  2  0  0  0  0
M  END
>  <MODEL>
3

>  <REMARK>
 VINA RESULT:      -1.4      2.836      8.954
  Name = 
  1 active torsions:
  status: ('A' for Active; 'I' for Inactive)
    1  A    between atoms: C_20  and  N_29
                            x       y       z     vdW  Elec       q    Type
                         _______ _______ _______ _____ _____    ______ ____

>  <TORSDO>
F 1

$$$$
=
 OpenBabel11122412513D

 32 37  0  0  1  0  0  0  0  0999 V2000
  160.3620  210.4690  153.6400 C   0  0  0  0  0  2  0  0  0  0  0  0
  161.2180  213.6660  148.9480 C   0  0  1  0  0  3  0  0  0  0  0  0
  156.4620  212.9490  149.0450 C   0  0  0  0  0  2  0  0  0  0  0  0
  156.3320  213.0980  147.5940 N   0  0  0  0  0  2  0  0  0  0  0  0
  162.4480  213.5090  146.7260 C   0  0  0  0  0  0  0  0  0  0  0  0
  162.3670  213.3640  145.3420 C   0  0  0  0  0  0  0  0  0  0  0  0
  161.0750  211.9460  150.7520 C   0  0  0  0  0  0  0  0  0  0  0  0
  159.9880  214.2260  150.9100 C   0  0  0  0  0  2  0  0  0  0  0  0
  161.3800  213.1750  143.2520 C   0  0  1  0  0  3  0  0  0  0  0  0
  160.3910  212.8930  152.9810 C   0  0  0  0  0  2  0  0  0  0  0  0
  157.5950  213.8370  149.5610 C   0  0  0  0  0  2  0  0  0  0  0  0
  159.9330  214.2170  149.4340 N   0  0  2  0  0  0  0  0  0  0  0  0
  158.8630  213.4110  148.9500 N   0  0  2  0  0  0  0  0  0  0  0  0
  160.0030  213.4630  146.7540 C   0  0  0  0  0  0  0  0  0  0  0  0
  162.8930  213.2050  143.2310 C   0  0  0  0  0  3  0  0  0  0  0  0
  160.0900  209.7030  152.0120 S   0  0  0  0  0  0  0  0  0  0  0  0
  160.0790  212.8110  151.4940 C   0  0  2  0  0  3  0  0  0  0  0  0
  163.4310  213.3120  144.4100 N   0  0  0  0  0  0  0  0  0  0  0  0
  161.4890  210.6010  151.2720 C   0  0  0  0  0  2  0  0  0  0  0  0
  159.6410  211.8080  153.7420 C   0  0  2  0  0  3  0  0  0  0  0  0
  157.6030  212.7510  146.9570 C   0  0  0  0  0  2  0  0  0  0  0  0
  158.7130  213.6550  147.5030 C   0  0  1  0  0  3  0  0  0  0  0  0
  159.9910  213.3510  145.3910 N   0  0  0  0  0  0  0  0  0  0  0  0
  161.5470  212.3200  149.5570 C   0  0  0  0  0  3  0  0  0  0  0  0
  163.7770  213.6120  147.3990 C   0  0  0  0  0  1  0  0  0  0  0  0
  160.8930  211.8280  142.7530 C   0  0  0  0  0  1  0  0  0  0  0  0
  161.2340  213.5630  147.4490 C   0  0  0  0  0  0  0  0  0  0  0  0
  161.1640  213.2820  144.7130 C   0  0  0  0  0  0  0  0  0  0  0  0
  159.5380  212.2000  155.1400 N   0  0  0  0  0  2  0  0  0  0  0  0
  158.2880  212.2910  155.8250 C   0  0  0  0  0  0  0  0  0  0  0  0
  157.2070  212.0560  155.2230 O   0  0  0  0  0  0  0  0  0  0  0  0
  158.2620  212.6750  157.2600 C   0  0  0  0  0  1  0  0  0  0  0  0
  1 20  1  0  0  0  0
  2 12  1  0  0  0  0
  2 24  1  1  0  0  0
  3 11  1  0  0  0  0
  4  3  1  0  0  0  0
  5 25  1  0  0  0  0
  5 27  1  0  0  0  0
  6  5  2  0  0  0  0
  7 19  1  0  0  0  0
  7 17  1  0  0  0  0
  9 26  1  1  0  0  0
  9 28  1  0  0  0  0
 10 20  1  0  0  0  0
 12  8  1  1  0  0  0
 13 12  1  0  0  0  0
 13 11  1  1  0  0  0
 14 27  2  0  0  0  0
 14 22  1  0  0  0  0
 15  9  1  0  0  0  0
 15 18  2  0  0  0  0
 16  1  1  0  0  0  0
 17  8  1  6  0  0  0
 17 10  1  0  0  0  0
 18  6  1  0  0  0  0
 19 16  1  0  0  0  0
 20 29  1  1  0  0  0
 21  4  1  0  0  0  0
 22 21  1  6  0  0  0
 22 13  1  0  0  0  0
 23 14  1  0  0  0  0
 24  7  2  0  0  0  0
 27  2  1  0  0  0  0
 28  6  1  0  0  0  0
 28 23  2  0  0  0  0
 29 30  1  0  0  0  0
 30 32  1  0  0  0  0
 31 30  2  0  0  0  0
M  END
>  <MODEL>
4

>  <REMARK>
 VINA RESULT:      -1.4      3.134      8.552
  Name = 
  1 active torsions:
  status: ('A' for Active; 'I' for Inactive)
    1  A    between atoms: C_20  and  N_29
                            x       y       z     vdW  Elec       q    Type
                         _______ _______ _______ _____ _____    ______ ____

>  <TORSDO>
F 1

$$$$
=
 OpenBabel11122412513D

 32 37  0  0  1  0  0  0  0  0999 V2000
  158.9040  211.1060  154.7360 C   0  0  0  0  0  2  0  0  0  0  0  0
  162.0400  208.0500  151.0220 C   0  0  1  0  0  3  0  0  0  0  0  0
  161.3830  212.2780  148.8240 C   0  0  0  0  0  2  0  0  0  0  0  0
  161.5180  211.6920  147.4890 N   0  0  0  0  0  2  0  0  0  0  0  0
  161.8440  205.9060  149.6640 C   0  0  0  0  0  0  0  0  0  0  0  0
  161.6860  205.3140  148.4130 C   0  0  0  0  0  0  0  0  0  0  0  0
  160.3410  209.0680  152.5410 C   0  0  0  0  0  0  0  0  0  0  0  0
  162.6360  210.0620  152.1490 C   0  0  0  0  0  2  0  0  0  0  0  0
  161.4870  205.1780  146.1060 C   0  0  1  0  0  3  0  0  0  0  0  0
  161.3200  210.7250  154.1630 C   0  0  0  0  0  2  0  0  0  0  0  0
  162.2620  211.5180  149.8170 C   0  0  0  0  0  2  0  0  0  0  0  0
  162.6130  209.4010  150.8290 N   0  0  2  0  0  0  0  0  0  0  0  0
  161.8140  210.1190  149.8920 N   0  0  2  0  0  0  0  0  0  0  0  0
  161.8290  208.0640  148.5140 C   0  0  0  0  0  0  0  0  0  0  0  0
  161.4980  203.8410  146.8140 C   0  0  0  0  0  3  0  0  0  0  0  0
  158.1240  210.5740  153.1790 S   0  0  0  0  0  0  0  0  0  0  0  0
  161.2270  210.2850  152.7100 C   0  0  2  0  0  3  0  0  0  0  0  0
  161.6110  203.9340  148.1070 N   0  0  0  0  0  0  0  0  0  0  0  0
  158.9970  208.9770  153.2010 C   0  0  0  0  0  2  0  0  0  0  0  0
  160.2530  211.7660  154.4740 C   0  0  2  0  0  3  0  0  0  0  0  0
  161.1490  210.2780  147.5410 C   0  0  0  0  0  2  0  0  0  0  0  0
  162.0440  209.5520  148.5500 C   0  0  1  0  0  3  0  0  0  0  0  0
  161.7030  207.4210  147.3140 N   0  0  0  0  0  0  0  0  0  0  0  0
  160.6970  208.0750  151.7180 C   0  0  0  0  0  3  0  0  0  0  0  0
  161.9380  205.0620  150.8930 C   0  0  0  0  0  1  0  0  0  0  0  0
  160.1410  205.3880  145.4390 C   0  0  0  0  0  1  0  0  0  0  0  0
  161.9210  207.3170  149.7150 C   0  0  0  0  0  0  0  0  0  0  0  0
  161.6120  206.0690  147.2830 C   0  0  0  0  0  0  0  0  0  0  0  0
  160.6610  212.5210  155.6500 N   0  0  0  0  0  2  0  0  0  0  0  0
  160.0340  213.7460  156.0340 C   0  0  0  0  0  0  0  0  0  0  0  0
  159.1050  214.2370  155.3400 O   0  0  0  0  0  0  0  0  0  0  0  0
  160.4880  214.4500  157.2610 C   0  0  0  0  0  1  0  0  0  0  0  0
  2 24  1  6  0  0  0
  3 11  1  0  0  0  0
  4 21  1  0  0  0  0
  4  3  1  0  0  0  0
  5 27  1  0  0  0  0
  5 25  1  0  0  0  0
  6  5  2  0  0  0  0
  7 17  1  0  0  0  0
  7 19  1  0  0  0  0
  9 26  1  1  0  0  0
  9 15  1  0  0  0  0
  9 28  1  0  0  0  0
 10 20  1  0  0  0  0
 12  2  1  0  0  0  0
 12  8  1  1  0  0  0
 13 11  1  6  0  0  0
 13 12  1  0  0  0  0
 14 22  1  0  0  0  0
 14 27  2  0  0  0  0
 15 18  2  0  0  0  0
 16 19  1  0  0  0  0
 16  1  1  0  0  0  0
 17  8  1  1  0  0  0
 17 10  1  0  0  0  0
 18  6  1  0  0  0  0
 20  1  1  0  0  0  0
 20 29  1  1  0  0  0
 22 21  1  6  0  0  0
 22 13  1  0  0  0  0
 23 14  1  0  0  0  0
 24  7  2  0  0  0  0
 27  2  1  0  0  0  0
 28 23  2  0  0  0  0
 28  6  1  0  0  0  0
 29 30  1  0  0  0  0
 30 32  1  0  0  0  0
 31 30  2  0  0  0  0
M  END
>  <MODEL>
5

>  <REMARK>
 VINA RESULT:      -0.6      3.815      8.386
  Name = 
  1 active torsions:
  status: ('A' for Active; 'I' for Inactive)
    1  A    between atoms: C_20  and  N_29
                            x       y       z     vdW  Elec       q    Type
                         _______ _______ _______ _____ _____    ______ ____

>  <TORSDO>
F 1

$$$$
