=
 OpenBabel11122414323D

 34 40  0  0  0  0  0  0  0  0999 V2000
  161.6890  208.0870  150.2410 C   0  0  0  0  0  0  0  0  0  0  0  0
  161.4740  206.5770  148.2630 C   0  0  0  0  0  3  0  0  0  0  0  0
  159.2490  209.8060  154.8250 O   0  0  0  0  0  0  0  0  0  0  0  0
  161.8830  209.3290  152.3510 C   0  0  0  0  0  0  0  0  0  0  0  0
  161.6000  208.2060  154.4390 C   0  0  0  0  0  0  0  0  0  0  0  0
  159.9500  208.0330  156.2990 C   0  0  0  0  0  2  0  0  0  0  0  0
  159.1420  209.3210  156.1370 C   0  0  0  0  0  2  0  0  0  0  0  0
  161.2080  211.1300  155.4110 C   0  0  0  0  0  2  0  0  0  0  0  0
  161.2570  205.6990  150.3060 C   0  0  0  0  0  0  0  0  0  0  0  0
  160.6930  202.7150  150.7570 C   0  0  0  0  0  3  0  0  0  0  0  0
  161.3910  206.9960  153.7770 C   0  0  0  0  0  3  0  0  0  0  0  0
  162.2300  210.6130  154.3970 C   0  0  0  0  0  2  0  0  0  0  0  0
  161.2160  205.6850  151.7090 C   0  0  0  0  0  0  0  0  0  0  0  0
  161.2380  205.2580  148.1100 N   0  0  0  0  0  0  0  0  0  0  0  0
  161.8570  209.3550  153.7260 N   0  0  0  0  0  0  0  0  0  0  0  0
  159.7570  211.1130  154.9190 C   0  0  0  0  0  2  0  0  0  0  0  0
  160.8470  203.3460  149.5190 C   0  0  0  0  0  0  0  0  0  0  0  0
  161.6750  208.1150  151.6550 C   0  0  0  0  0  0  0  0  0  0  0  0
  161.4260  208.2100  155.9310 C   0  0  0  0  0  2  0  0  0  0  0  0
  161.4290  206.9220  152.3840 C   0  0  0  0  0  0  0  0  0  0  0  0
  161.5440  210.5700  150.1990 C   0  0  0  0  0  2  0  0  0  0  0  0
  160.7510  203.2330  152.0430 C   0  0  0  0  0  3  0  0  0  0  0  0
  162.2090  210.5830  151.5680 C   0  0  0  0  0  2  0  0  0  0  0  0
  160.9810  204.5340  152.4620 C   0  0  0  0  0  3  0  0  0  0  0  0
  161.1030  204.7110  149.3440 C   0  0  0  0  0  0  0  0  0  0  0  0
  161.9760  209.3250  149.4360 C   0  0  0  0  0  2  0  0  0  0  0  0
  161.4870  206.8620  149.6090 C   0  0  0  0  0  0  0  0  0  0  0  0
  160.7300  202.5140  148.3010 C   0  0  0  0  0  3  0  0  0  0  0  0
  161.2590  201.2970  148.1850 C   0  0  0  0  0  3  0  0  0  0  0  0
  161.3470  198.8310  145.3640 C   0  0  0  0  0  2  0  0  0  0  0  0
  160.4510  201.0520  145.8190 C   0  0  0  0  0  2  0  0  0  0  0  0
  161.1210  200.5290  146.9870 N   0  0  0  0  0  0  0  0  0  0  0  0
  160.4080  199.9040  144.8280 C   0  0  0  0  0  2  0  0  0  0  0  0
  161.6180  199.1790  146.8150 C   0  0  0  0  0  2  0  0  0  0  0  0
  1 18  1  0  0  0  0
  2 27  1  0  0  0  0
  3 16  1  0  0  0  0
  3  7  1  0  0  0  0
  4 15  1  0  0  0  0
  5 19  1  0  0  0  0
  7  6  1  0  0  0  0
  9 13  1  0  0  0  0
 10 22  1  0  0  0  0
 11  5  2  0  0  0  0
 12  8  1  0  0  0  0
 13 20  2  0  0  0  0
 13 24  1  0  0  0  0
 14  2  2  0  0  0  0
 14 25  1  0  0  0  0
 15 12  1  0  0  0  0
 15  5  1  0  0  0  0
 16  8  1  0  0  0  0
 17 10  2  0  0  0  0
 18  4  2  0  0  0  0
 18 20  1  0  0  0  0
 19  6  1  0  0  0  0
 20 11  1  0  0  0  0
 21 23  1  0  0  0  0
 22 24  2  0  0  0  0
 23  4  1  0  0  0  0
 25 17  1  0  0  0  0
 25  9  2  0  0  0  0
 26 21  1  0  0  0  0
 26  1  1  0  0  0  0
 27  1  2  0  0  0  0
 27  9  1  0  0  0  0
 28 17  1  0  0  0  0
 29 28  2  0  0  0  0
 30 34  1  0  0  0  0
 31 32  1  0  0  0  0
 32 29  1  0  0  0  0
 33 30  1  0  0  0  0
 33 31  1  0  0  0  0
 34 32  1  0  0  0  0
M  END
>  <MODEL>
1

>  <REMARK>
 VINA RESULT:      -9.7      0.000      0.000
  Name = 
  2 active torsions:
  status: ('A' for Active; 'I' for Inactive)
    1  A    between atoms: C_17  and  C_28
    2  A    between atoms: C_29  and  N_32
                            x       y       z     vdW  Elec       q    Type
                         _______ _______ _______ _____ _____    ______ ____

>  <TORSDO>
F 2

$$$$
=
 OpenBabel11122414323D

 34 40  0  0  0  0  0  0  0  0999 V2000
  160.9870  203.6820  150.4570 C   0  0  0  0  0  0  0  0  0  0  0  0
  160.9280  205.1230  152.4960 C   0  0  0  0  0  3  0  0  0  0  0  0
  158.9370  202.9760  145.4340 O   0  0  0  0  0  0  0  0  0  0  0  0
  161.1330  202.5060  148.3050 C   0  0  0  0  0  0  0  0  0  0  0  0
  161.5720  203.7200  146.2960 C   0  0  0  0  0  0  0  0  0  0  0  0
  160.3960  204.4700  144.2310 C   0  0  0  0  0  2  0  0  0  0  0  0
  159.2100  203.5080  144.1650 C   0  0  0  0  0  2  0  0  0  0  0  0
  160.4520  201.1090  145.0420 C   0  0  0  0  0  2  0  0  0  0  0  0
  161.3430  206.0820  150.5220 C   0  0  0  0  0  0  0  0  0  0  0  0
  161.8280  209.1000  150.2360 C   0  0  0  0  0  3  0  0  0  0  0  0
  161.6440  204.9130  147.0160 C   0  0  0  0  0  3  0  0  0  0  0  0
  161.3990  201.2390  146.2370 C   0  0  0  0  0  2  0  0  0  0  0  0
  161.5450  206.1500  149.1350 C   0  0  0  0  0  0  0  0  0  0  0  0
  161.0950  206.4430  152.7190 N   0  0  0  0  0  0  0  0  0  0  0  0
  161.3320  202.5290  146.9440 N   0  0  0  0  0  0  0  0  0  0  0  0
  159.0180  201.5780  145.3110 C   0  0  0  0  0  2  0  0  0  0  0  0
  161.5660  208.4190  151.4270 C   0  0  0  0  0  0  0  0  0  0  0  0
  161.2020  203.7010  149.0590 C   0  0  0  0  0  0  0  0  0  0  0  0
  161.6580  203.8150  144.8010 C   0  0  0  0  0  2  0  0  0  0  0  0
  161.4700  204.9310  148.4010 C   0  0  0  0  0  0  0  0  0  0  0  0
  160.0650  201.3790  150.2740 C   0  0  0  0  0  2  0  0  0  0  0  0
  161.9360  208.6290  148.9350 C   0  0  0  0  0  3  0  0  0  0  0  0
  160.9130  201.1910  149.0240 C   0  0  0  0  0  2  0  0  0  0  0  0
  161.8120  207.3360  148.4510 C   0  0  0  0  0  3  0  0  0  0  0  0
  161.3470  207.0390  151.5270 C   0  0  0  0  0  0  0  0  0  0  0  0
  160.7310  202.3950  151.1920 C   0  0  0  0  0  2  0  0  0  0  0  0
  161.0760  204.8880  151.1490 C   0  0  0  0  0  0  0  0  0  0  0  0
  161.5130  209.2070  152.6770 C   0  0  0  0  0  3  0  0  0  0  0  0
  160.6380  210.1880  152.8950 C   0  0  0  0  0  3  0  0  0  0  0  0
  160.1090  212.5200  155.7820 C   0  0  0  0  0  2  0  0  0  0  0  0
  161.6030  210.6970  155.1580 C   0  0  0  0  0  2  0  0  0  0  0  0
  160.6240  210.9240  154.1210 N   0  0  0  0  0  0  0  0  0  0  0  0
  161.1730  211.5710  156.3210 C   0  0  0  0  0  2  0  0  0  0  0  0
  159.6540  211.9480  154.4530 C   0  0  0  0  0  2  0  0  0  0  0  0
  1 27  2  0  0  0  0
  1 26  1  0  0  0  0
  2 14  2  0  0  0  0
  4 23  1  0  0  0  0
  4 18  2  0  0  0  0
  5 15  1  0  0  0  0
  5 11  2  0  0  0  0
  6 19  1  0  0  0  0
  7  6  1  0  0  0  0
  7  3  1  0  0  0  0
  8 16  1  0  0  0  0
  8 12  1  0  0  0  0
  9 27  1  0  0  0  0
  9 25  2  0  0  0  0
 10 17  2  0  0  0  0
 11 20  1  0  0  0  0
 12 15  1  0  0  0  0
 13  9  1  0  0  0  0
 15  4  1  0  0  0  0
 16  3  1  0  0  0  0
 17 25  1  0  0  0  0
 17 28  1  0  0  0  0
 18  1  1  0  0  0  0
 19  5  1  0  0  0  0
 20 18  1  0  0  0  0
 20 13  2  0  0  0  0
 21 26  1  0  0  0  0
 22 10  1  0  0  0  0
 23 21  1  0  0  0  0
 24 22  2  0  0  0  0
 24 13  1  0  0  0  0
 25 14  1  0  0  0  0
 27  2  1  0  0  0  0
 28 29  2  0  0  0  0
 29 32  1  0  0  0  0
 30 33  1  0  0  0  0
 31 33  1  0  0  0  0
 32 34  1  0  0  0  0
 32 31  1  0  0  0  0
 34 30  1  0  0  0  0
M  END
>  <MODEL>
2

>  <REMARK>
 VINA RESULT:      -8.5      2.557      9.789
  Name = 
  2 active torsions:
  status: ('A' for Active; 'I' for Inactive)
    1  A    between atoms: C_17  and  C_28
    2  A    between atoms: C_29  and  N_32
                            x       y       z     vdW  Elec       q    Type
                         _______ _______ _______ _____ _____    ______ ____

>  <TORSDO>
F 2

$$$$
=
 OpenBabel11122414323D

 34 40  0  0  0  0  0  0  0  0999 V2000
  161.6360  208.3470  151.1250 C   0  0  0  0  0  0  0  0  0  0  0  0
  162.3070  208.9340  148.7920 C   0  0  0  0  0  3  0  0  0  0  0  0
  162.2280  209.6650  156.4010 O   0  0  0  0  0  0  0  0  0  0  0  0
  160.8640  208.0420  153.4370 C   0  0  0  0  0  0  0  0  0  0  0  0
  159.9580  209.8840  154.6570 C   0  0  0  0  0  0  0  0  0  0  0  0
  160.5710  211.4110  156.5290 C   0  0  0  0  0  2  0  0  0  0  0  0
  161.6500  210.6110  157.2600 C   0  0  0  0  0  2  0  0  0  0  0  0
  160.5790  207.9890  157.0390 C   0  0  0  0  0  2  0  0  0  0  0  0
  161.4220  210.5290  150.0820 C   0  0  0  0  0  0  0  0  0  0  0  0
  161.0190  213.4050  149.0890 C   0  0  0  0  0  3  0  0  0  0  0  0
  160.1370  210.7200  153.5560 C   0  0  0  0  0  3  0  0  0  0  0  0
  159.9950  207.6140  155.6760 C   0  0  0  0  0  2  0  0  0  0  0  0
  160.8590  211.0920  151.2380 C   0  0  0  0  0  0  0  0  0  0  0  0
  162.2670  210.0660  148.0600 N   0  0  0  0  0  0  0  0  0  0  0  0
  160.3080  208.5540  154.5860 N   0  0  0  0  0  0  0  0  0  0  0  0
  162.0530  208.4100  157.0070 C   0  0  0  0  0  2  0  0  0  0  0  0
  161.5590  212.3490  148.3510 C   0  0  0  0  0  0  0  0  0  0  0  0
  161.0550  208.8680  152.3040 C   0  0  0  0  0  0  0  0  0  0  0  0
  159.4790  210.5190  155.9300 C   0  0  0  0  0  2  0  0  0  0  0  0
  160.6780  210.2360  152.3630 C   0  0  0  0  0  0  0  0  0  0  0  0
  162.3670  206.3310  152.3860 C   0  0  0  0  0  2  0  0  0  0  0  0
  160.5440  213.4420  150.3920 C   0  0  0  0  0  3  0  0  0  0  0  0
  161.2070  206.5700  153.3430 C   0  0  0  0  0  2  0  0  0  0  0  0
  160.4730  212.4290  151.3350 C   0  0  0  0  0  3  0  0  0  0  0  0
  161.7320  211.0450  148.8320 C   0  0  0  0  0  0  0  0  0  0  0  0
  162.0190  206.8960  151.0160 C   0  0  0  0  0  2  0  0  0  0  0  0
  161.7910  209.2050  150.0380 C   0  0  0  0  0  0  0  0  0  0  0  0
  161.9810  212.6220  146.9600 C   0  0  0  0  0  3  0  0  0  0  0  0
  161.1340  212.9210  145.9770 C   0  0  0  0  0  3  0  0  0  0  0  0
  162.9550  213.7170  142.7990 C   0  0  0  0  0  2  0  0  0  0  0  0
  160.6720  213.2850  143.5340 C   0  0  0  0  0  2  0  0  0  0  0  0
  161.5890  213.1780  144.6460 N   0  0  0  0  0  0  0  0  0  0  0  0
  161.5440  213.4320  142.3020 C   0  0  0  0  0  2  0  0  0  0  0  0
  162.9770  213.3520  144.2710 C   0  0  0  0  0  2  0  0  0  0  0  0
  1 18  1  0  0  0  0
  2 27  1  0  0  0  0
  3 16  1  0  0  0  0
  3  7  1  0  0  0  0
  4 15  1  0  0  0  0
  5 19  1  0  0  0  0
  6  7  1  0  0  0  0
  9 13  1  0  0  0  0
 10 22  1  0  0  0  0
 11  5  2  0  0  0  0
 12  8  1  0  0  0  0
 13 24  1  0  0  0  0
 13 20  2  0  0  0  0
 14  2  2  0  0  0  0
 14 25  1  0  0  0  0
 15  5  1  0  0  0  0
 15 12  1  0  0  0  0
 16  8  1  0  0  0  0
 17 25  1  0  0  0  0
 17 10  2  0  0  0  0
 18 20  1  0  0  0  0
 18  4  2  0  0  0  0
 19  6  1  0  0  0  0
 20 11  1  0  0  0  0
 21 23  1  0  0  0  0
 22 24  2  0  0  0  0
 23  4  1  0  0  0  0
 25  9  2  0  0  0  0
 26  1  1  0  0  0  0
 26 21  1  0  0  0  0
 27  9  1  0  0  0  0
 27  1  2  0  0  0  0
 28 17  1  0  0  0  0
 29 28  2  0  0  0  0
 30 34  1  0  0  0  0
 31 32  1  0  0  0  0
 32 29  1  0  0  0  0
 33 30  1  0  0  0  0
 33 31  1  0  0  0  0
 34 32  1  0  0  0  0
M  END
>  <MODEL>
3

>  <REMARK>
 VINA RESULT:      -7.2      4.281      7.435
  Name = 
  2 active torsions:
  status: ('A' for Active; 'I' for Inactive)
    1  A    between atoms: C_17  and  C_28
    2  A    between atoms: C_29  and  N_32
                            x       y       z     vdW  Elec       q    Type
                         _______ _______ _______ _____ _____    ______ ____

>  <TORSDO>
F 2

$$$$
