=
 OpenBabel11122414323D

 34 40  0  0  1  0  0  0  0  0999 V2000
  161.0880  207.6840  154.3820 C   0  0  0  0  0  0  0  0  0  0  0  0
  161.3250  205.2170  153.4900 C   0  0  0  0  0  3  0  0  0  0  0  0
  158.1400  213.5050  153.9640 C   0  0  2  0  0  3  0  0  0  0  0  0
  160.6110  209.9780  155.0830 C   0  0  0  0  0  0  0  0  0  0  0  0
  159.4120  211.5120  153.4460 C   0  0  1  0  0  3  0  0  0  0  0  0
  158.4460  213.3610  151.8640 C   0  0  0  0  0  2  0  0  0  0  0  0
  157.4800  214.1340  152.7570 C   0  0  0  0  0  2  0  0  0  0  0  0
  159.7570  213.6570  155.8960 C   0  0  0  0  0  2  0  0  0  0  0  0
  160.9970  207.0110  152.0380 C   0  0  0  0  0  0  0  0  0  0  0  0
  160.1330  210.7710  152.3310 C   0  0  0  0  0  2  0  0  0  0  0  0
  159.5660  212.1270  155.9530 C   0  0  0  0  0  2  0  0  0  0  0  0
  160.8970  208.4470  151.5870 C   0  0  1  0  0  3  0  0  0  0  0  0
  161.2450  204.6530  152.0710 C   0  0  0  0  0  3  0  0  0  0  0  0
  160.2350  211.4100  154.7560 C   0  0  1  0  0  3  0  0  0  0  0  0
  158.7180  214.4110  155.0350 C   0  0  0  0  0  2  0  0  0  0  0  0
  160.6710  208.9960  154.0690 C   0  0  0  0  0  0  0  0  0  0  0  0
  159.2490  212.9780  153.0950 C   0  0  1  0  0  3  0  0  0  0  0  0
  160.1660  209.2810  152.6620 C   0  0  1  0  0  3  0  0  0  0  0  0
  161.4520  208.3430  156.6820 C   0  0  0  0  0  3  0  0  0  0  0  0
  161.0350  209.6410  156.3790 C   0  0  0  0  0  3  0  0  0  0  0  0
  161.0700  205.8450  151.1290 C   0  0  0  0  0  3  0  0  0  0  0  0
  161.4740  207.3650  155.6870 C   0  0  0  0  0  3  0  0  0  0  0  0
  161.1370  206.6750  153.3060 C   0  0  1  0  0  3  0  0  0  0  0  0
  162.2970  209.0020  151.3090 C   0  0  0  0  0  2  0  0  0  0  0  0
  162.4210  209.5080  149.8810 C   0  0  0  0  0  2  0  0  0  0  0  0
  161.5470  208.6890  148.9520 C   0  0  0  0  0  2  0  0  0  0  0  0
  162.3900  207.6360  148.2660 C   0  0  0  0  0  2  0  0  0  0  0  0
  161.4850  206.6220  147.5950 C   0  0  0  0  0  2  0  0  0  0  0  0
  162.1950  205.9670  146.4220 C   0  0  0  0  0  2  0  0  0  0  0  0
  161.0130  202.7960  147.7000 C   0  0  0  0  0  2  0  0  0  0  0  0
  161.5630  203.7890  145.6260 O   0  0  0  0  0  0  0  0  0  0  0  0
  162.2990  204.4620  146.6130 C   0  0  2  0  0  3  0  0  0  0  0  0
  161.1890  202.5730  146.2170 C   0  0  0  0  0  2  0  0  0  0  0  0
  161.7390  204.0820  147.9620 C   0  0  0  0  0  2  0  0  0  0  0  0
  1 22  1  0  0  0  0
  3  7  1  6  0  0  0
  3 15  1  0  0  0  0
  4 20  2  0  0  0  0
  5 10  1  6  0  0  0
  5 14  1  0  0  0  0
  6  7  1  0  0  0  0
  8 11  1  0  0  0  0
  9 23  1  0  0  0  0
 12 24  1  1  0  0  0
 12  9  1  0  0  0  0
 12 18  1  0  0  0  0
 13  2  2  0  0  0  0
 14  4  1  0  0  0  0
 14 11  1  1  0  0  0
 15  8  1  0  0  0  0
 16  1  2  0  0  0  0
 16  4  1  0  0  0  0
 17  6  1  6  0  0  0
 17  5  1  0  0  0  0
 17  3  1  0  0  0  0
 18 10  1  6  0  0  0
 18 16  1  0  0  0  0
 20 19  1  0  0  0  0
 21  9  2  0  0  0  0
 21 13  1  0  0  0  0
 22 19  2  0  0  0  0
 23  2  1  1  0  0  0
 23  1  1  0  0  0  0
 25 24  1  0  0  0  0
 26 25  1  0  0  0  0
 27 26  1  0  0  0  0
 28 27  1  0  0  0  0
 29 28  1  0  0  0  0
 30 34  1  0  0  0  0
 31 33  1  0  0  0  0
 31 32  1  0  0  0  0
 32 29  1  6  0  0  0
 32 34  1  0  0  0  0
 33 30  1  0  0  0  0
M  END
>  <MODEL>
1

>  <REMARK>
 VINA RESULT:      -8.7      0.000      0.000
  Name = 
  7 active torsions:
  status: ('A' for Active; 'I' for Inactive)
    1  A    between atoms: C_10  and  C_17
    2  A    between atoms: C_10  and  C_22
    3  A    between atoms: C_13  and  C_24
    4  A    between atoms: C_17  and  C_28
    5  A    between atoms: C_22  and  C_24
    6  A    between atoms: C_28  and  C_29
    7  A    between atoms: C_29  and  C_32
                            x       y       z     vdW  Elec       q    Type
                         _______ _______ _______ _____ _____    ______ ____

>  <TORSDO>
F 7

$$$$
=
 OpenBabel11122414323D

 34 40  0  0  1  0  0  0  0  0999 V2000
  161.1430  204.9540  150.0690 C   0  0  0  0  0  0  0  0  0  0  0  0
  160.8280  204.0490  147.6160 C   0  0  0  0  0  3  0  0  0  0  0  0
  159.7260  209.4850  154.5660 C   0  0  2  0  0  3  0  0  0  0  0  0
  161.1950  205.9450  152.3040 C   0  0  0  0  0  0  0  0  0  0  0  0
  160.5050  208.3810  152.5580 C   0  0  1  0  0  3  0  0  0  0  0  0
  160.1150  210.9230  153.0480 C   0  0  0  0  0  2  0  0  0  0  0  0
  159.3120  210.9230  154.3450 C   0  0  0  0  0  2  0  0  0  0  0  0
  161.2110  207.7880  155.6990 C   0  0  0  0  0  2  0  0  0  0  0  0
  161.0330  206.3300  148.0560 C   0  0  0  0  0  0  0  0  0  0  0  0
  161.0920  208.6180  151.1750 C   0  0  0  0  0  2  0  0  0  0  0  0
  160.6510  206.8340  154.6250 C   0  0  0  0  0  2  0  0  0  0  0  0
  161.3130  207.5830  148.8470 C   0  0  1  0  0  3  0  0  0  0  0  0
  160.7000  204.7890  146.2840 C   0  0  0  0  0  3  0  0  0  0  0  0
  161.1980  207.1580  153.2140 C   0  0  1  0  0  3  0  0  0  0  0  0
  160.4400  209.1190  155.8530 C   0  0  0  0  0  2  0  0  0  0  0  0
  161.0760  206.0910  150.9040 C   0  0  0  0  0  0  0  0  0  0  0  0
  160.7250  209.5900  153.4450 C   0  0  1  0  0  3  0  0  0  0  0  0
  160.7420  207.4350  150.2750 C   0  0  1  0  0  3  0  0  0  0  0  0
  161.5160  203.5490  152.0030 C   0  0  0  0  0  3  0  0  0  0  0  0
  161.4450  204.6690  152.8350 C   0  0  0  0  0  3  0  0  0  0  0  0
  160.8770  206.2780  146.5850 C   0  0  0  0  0  3  0  0  0  0  0  0
  161.3600  203.6900  150.6250 C   0  0  0  0  0  3  0  0  0  0  0  0
  161.0110  205.1320  148.6100 C   0  0  1  0  0  3  0  0  0  0  0  0
  162.8190  207.8530  148.8760 C   0  0  0  0  0  2  0  0  0  0  0  0
  163.1480  209.2280  148.3140 C   0  0  0  0  0  2  0  0  0  0  0  0
  161.9270  210.1260  148.3660 C   0  0  0  0  0  2  0  0  0  0  0  0
  162.2940  211.4360  149.0290 C   0  0  0  0  0  2  0  0  0  0  0  0
  162.7640  212.4200  147.9760 C   0  0  0  0  0  2  0  0  0  0  0  0
  162.0140  213.7360  148.1040 C   0  0  0  0  0  2  0  0  0  0  0  0
  159.8530  212.3170  145.5730 C   0  0  0  0  0  2  0  0  0  0  0  0
  159.6900  213.2420  147.7430 O   0  0  0  0  0  0  0  0  0  0  0  0
  160.8340  213.7920  147.1460 C   0  0  2  0  0  3  0  0  0  0  0  0
  158.9200  212.7580  146.6760 C   0  0  0  0  0  2  0  0  0  0  0  0
  161.1490  212.9930  145.9050 C   0  0  0  0  0  2  0  0  0  0  0  0
  1 22  2  0  0  0  0
  1 16  1  0  0  0  0
  3  7  1  1  0  0  0
  3 15  1  0  0  0  0
  4 20  1  0  0  0  0
  4 14  1  0  0  0  0
  5 10  1  6  0  0  0
  5 14  1  0  0  0  0
  5 17  1  0  0  0  0
  6  7  1  0  0  0  0
  8 15  1  0  0  0  0
  9 23  1  0  0  0  0
  9 12  1  0  0  0  0
 11  8  1  0  0  0  0
 12 24  1  1  0  0  0
 12 18  1  0  0  0  0
 13 21  1  0  0  0  0
 13  2  2  0  0  0  0
 14 11  1  1  0  0  0
 16  4  2  0  0  0  0
 17  6  1  6  0  0  0
 17  3  1  0  0  0  0
 18 16  1  0  0  0  0
 18 10  1  1  0  0  0
 19 20  2  0  0  0  0
 21  9  2  0  0  0  0
 22 19  1  0  0  0  0
 23  2  1  1  0  0  0
 23  1  1  0  0  0  0
 25 26  1  0  0  0  0
 25 24  1  0  0  0  0
 26 27  1  0  0  0  0
 28 29  1  0  0  0  0
 28 27  1  0  0  0  0
 30 34  1  0  0  0  0
 30 33  1  0  0  0  0
 32 31  1  0  0  0  0
 32 29  1  1  0  0  0
 33 31  1  0  0  0  0
 34 32  1  0  0  0  0
M  END
>  <MODEL>
2

>  <REMARK>
 VINA RESULT:      -7.7      2.869      5.794
  Name = 
  7 active torsions:
  status: ('A' for Active; 'I' for Inactive)
    1  A    between atoms: C_10  and  C_17
    2  A    between atoms: C_10  and  C_22
    3  A    between atoms: C_13  and  C_24
    4  A    between atoms: C_17  and  C_28
    5  A    between atoms: C_22  and  C_24
    6  A    between atoms: C_28  and  C_29
    7  A    between atoms: C_29  and  C_32
                            x       y       z     vdW  Elec       q    Type
                         _______ _______ _______ _____ _____    ______ ____

>  <TORSDO>
F 7

$$$$
=
 OpenBabel11122414323D

 34 40  0  0  1  0  0  0  0  0999 V2000
  160.7500  207.7910  154.3630 C   0  0  0  0  0  0  0  0  0  0  0  0
  161.3360  205.4640  153.2770 C   0  0  0  0  0  3  0  0  0  0  0  0
  157.4950  213.4500  154.0040 C   0  0  2  0  0  3  0  0  0  0  0  0
  159.9780  209.9560  155.1980 C   0  0  0  0  0  0  0  0  0  0  0  0
  158.9890  211.6050  153.5320 C   0  0  1  0  0  3  0  0  0  0  0  0
  158.1950  213.5740  152.0000 C   0  0  0  0  0  2  0  0  0  0  0  0
  157.0240  214.1800  152.7660 C   0  0  0  0  0  2  0  0  0  0  0  0
  158.7100  213.4600  156.2160 C   0  0  0  0  0  2  0  0  0  0  0  0
  161.1460  207.3970  151.9870 C   0  0  0  0  0  0  0  0  0  0  0  0
  159.9590  211.0420  152.5060 C   0  0  0  0  0  2  0  0  0  0  0  0
  158.6280  211.9260  156.0730 C   0  0  0  0  0  2  0  0  0  0  0  0
  161.0230  208.8690  151.6800 C   0  0  1  0  0  3  0  0  0  0  0  0
  161.5640  205.0690  151.8170 C   0  0  0  0  0  3  0  0  0  0  0  0
  159.5610  211.3940  154.9590 C   0  0  1  0  0  3  0  0  0  0  0  0
  157.7930  214.2530  155.2570 C   0  0  0  0  0  2  0  0  0  0  0  0
  160.3000  209.1060  154.1160 C   0  0  0  0  0  0  0  0  0  0  0  0
  158.7830  213.0920  153.3140 C   0  0  1  0  0  3  0  0  0  0  0  0
  160.0440  209.5280  152.6770 C   0  0  1  0  0  3  0  0  0  0  0  0
  160.6300  208.1910  156.7460 C   0  0  0  0  0  3  0  0  0  0  0  0
  160.1780  209.4920  156.5080 C   0  0  0  0  0  3  0  0  0  0  0  0
  161.4760  206.3530  150.9910 C   0  0  0  0  0  3  0  0  0  0  0  0
  160.9110  207.3410  155.6770 C   0  0  0  0  0  3  0  0  0  0  0  0
  161.0750  206.9210  153.2160 C   0  0  1  0  0  3  0  0  0  0  0  0
  162.4030  209.5290  151.7380 C   0  0  0  0  0  2  0  0  0  0  0  0
  162.6950  210.3180  150.4720 C   0  0  0  0  0  2  0  0  0  0  0  0
  161.9980  209.6870  149.2830 C   0  0  0  0  0  2  0  0  0  0  0  0
  161.6290  210.7640  148.2860 C   0  0  0  0  0  2  0  0  0  0  0  0
  162.0990  212.1110  148.7990 C   0  0  0  0  0  2  0  0  0  0  0  0
  160.9340  213.0810  148.8950 C   0  0  0  0  0  2  0  0  0  0  0  0
  162.3180  214.4520  145.8460 C   0  0  0  0  0  2  0  0  0  0  0  0
  160.2800  213.5450  146.6290 O   0  0  0  0  0  0  0  0  0  0  0  0
  160.9490  214.0740  147.7420 C   0  0  2  0  0  3  0  0  0  0  0  0
  160.8710  214.1660  145.5190 C   0  0  0  0  0  2  0  0  0  0  0  0
  162.3750  214.3650  147.3420 C   0  0  0  0  0  2  0  0  0  0  0  0
  1 22  1  0  0  0  0
  3  7  1  6  0  0  0
  3 15  1  0  0  0  0
  4 20  2  0  0  0  0
  5 10  1  6  0  0  0
  5 14  1  0  0  0  0
  6  7  1  0  0  0  0
  9 23  1  0  0  0  0
 11  8  1  0  0  0  0
 12 24  1  1  0  0  0
 12  9  1  0  0  0  0
 12 18  1  0  0  0  0
 13  2  2  0  0  0  0
 14  4  1  0  0  0  0
 14 11  1  1  0  0  0
 15  8  1  0  0  0  0
 16  1  2  0  0  0  0
 16  4  1  0  0  0  0
 17  6  1  6  0  0  0
 17  5  1  0  0  0  0
 17  3  1  0  0  0  0
 18 10  1  1  0  0  0
 18 16  1  0  0  0  0
 20 19  1  0  0  0  0
 21 13  1  0  0  0  0
 21  9  2  0  0  0  0
 22 19  2  0  0  0  0
 23  2  1  6  0  0  0
 23  1  1  0  0  0  0
 25 24  1  0  0  0  0
 26 25  1  0  0  0  0
 27 28  1  0  0  0  0
 27 26  1  0  0  0  0
 28 29  1  0  0  0  0
 30 34  1  0  0  0  0
 31 32  1  0  0  0  0
 32 29  1  1  0  0  0
 33 30  1  0  0  0  0
 33 31  1  0  0  0  0
 34 32  1  0  0  0  0
M  END
>  <MODEL>
3

>  <REMARK>
 VINA RESULT:      -7.0      2.836      4.499
  Name = 
  7 active torsions:
  status: ('A' for Active; 'I' for Inactive)
    1  A    between atoms: C_10  and  C_17
    2  A    between atoms: C_10  and  C_22
    3  A    between atoms: C_13  and  C_24
    4  A    between atoms: C_17  and  C_28
    5  A    between atoms: C_22  and  C_24
    6  A    between atoms: C_28  and  C_29
    7  A    between atoms: C_29  and  C_32
                            x       y       z     vdW  Elec       q    Type
                         _______ _______ _______ _____ _____    ______ ____

>  <TORSDO>
F 7

$$$$
=
 OpenBabel11122414323D

 34 40  0  0  1  0  0  0  0  0999 V2000
  160.3020  209.6410  155.6370 C   0  0  0  0  0  0  0  0  0  0  0  0
  160.2370  211.7220  157.2490 C   0  0  0  0  0  3  0  0  0  0  0  0
  162.4300  206.9720  150.0600 C   0  0  2  0  0  3  0  0  0  0  0  0
  160.5960  207.8270  154.0230 C   0  0  0  0  0  0  0  0  0  0  0  0
  161.3470  208.4230  151.6660 C   0  0  1  0  0  3  0  0  0  0  0  0
  161.8380  208.7860  149.1200 C   0  0  0  0  0  2  0  0  0  0  0  0
  162.8240  207.6730  148.7790 C   0  0  0  0  0  2  0  0  0  0  0  0
  161.1080  205.1830  151.2530 C   0  0  0  0  0  2  0  0  0  0  0  0
  160.1280  211.9710  154.9330 C   0  0  0  0  0  0  0  0  0  0  0  0
  160.5640  209.7170  151.8190 C   0  0  0  0  0  2  0  0  0  0  0  0
  161.4890  205.9840  152.5150 C   0  0  0  0  0  2  0  0  0  0  0  0
  159.9860  211.5670  153.4870 C   0  0  1  0  0  3  0  0  0  0  0  0
  160.1750  213.2200  156.9490 C   0  0  0  0  0  2  0  0  0  0  0  0
  160.7430  207.3370  152.5960 C   0  0  1  0  0  3  0  0  0  0  0  0
  161.9110  205.5480  149.9830 C   0  0  0  0  0  2  0  0  0  0  0  0
  160.5060  209.2080  154.3080 C   0  0  0  0  0  0  0  0  0  0  0  0
  161.2770  207.9220  150.2360 C   0  0  1  0  0  3  0  0  0  0  0  0
  160.7610  210.2550  153.2340 C   0  0  1  0  0  3  0  0  0  0  0  0
  160.2030  207.3390  156.3780 C   0  0  0  0  0  3  0  0  0  0  0  0
  160.4110  206.9050  155.0660 C   0  0  0  0  0  3  0  0  0  0  0  0
  160.0640  213.3640  155.4300 C   0  0  0  0  0  3  0  0  0  0  0  0
  160.1540  208.7030  156.6630 C   0  0  0  0  0  3  0  0  0  0  0  0
  160.2170  211.0880  155.9100 C   0  0  0  0  0  0  0  0  0  0  0  0
  158.5040  211.4140  153.1350 C   0  0  0  0  0  2  0  0  0  0  0  0
  157.9540  212.6740  152.4850 C   0  0  0  0  0  2  0  0  0  0  0  0
  158.6790  212.9570  151.1830 C   0  0  0  0  0  2  0  0  0  0  0  0
  157.6710  213.3160  150.1130 C   0  0  0  0  0  2  0  0  0  0  0  0
  158.3230  214.2250  149.0900 C   0  0  0  0  0  2  0  0  0  0  0  0
  158.9480  213.4070  147.9720 C   0  0  0  0  0  2  0  0  0  0  0  0
  162.4540  212.5150  147.9430 C   0  0  0  0  0  2  0  0  0  0  0  0
  160.8470  213.4750  146.5000 O   0  0  0  0  0  0  0  0  0  0  0  0
  160.4250  213.7310  147.8130 C   0  0  2  0  0  3  0  0  0  0  0  0
  162.2130  213.1770  146.6070 C   0  0  0  0  0  2  0  0  0  0  0  0
  161.2380  212.8670  148.7470 C   0  0  0  0  0  2  0  0  0  0  0  0
  1 23  1  0  0  0  0
  1 22  1  0  0  0  0
  3  7  1  6  0  0  0
  3 17  1  0  0  0  0
  4 16  1  0  0  0  0
  4 20  2  0  0  0  0
  5 10  1  6  0  0  0
  5 14  1  0  0  0  0
  7  6  1  0  0  0  0
  8 11  1  0  0  0  0
  9 21  2  0  0  0  0
  9 23  1  0  0  0  0
 12 24  1  1  0  0  0
 12  9  1  0  0  0  0
 13  2  1  0  0  0  0
 14 11  1  1  0  0  0
 14  4  1  0  0  0  0
 15  3  1  0  0  0  0
 15  8  1  0  0  0  0
 16  1  2  0  0  0  0
 17  6  1  6  0  0  0
 17  5  1  0  0  0  0
 18 10  1  6  0  0  0
 18 12  1  0  0  0  0
 18 16  1  0  0  0  0
 19 22  2  0  0  0  0
 20 19  1  0  0  0  0
 21 13  1  0  0  0  0
 23  2  2  0  0  0  0
 25 24  1  0  0  0  0
 26 25  1  0  0  0  0
 27 26  1  0  0  0  0
 28 27  1  0  0  0  0
 29 28  1  0  0  0  0
 30 34  1  0  0  0  0
 31 33  1  0  0  0  0
 31 32  1  0  0  0  0
 32 29  1  6  0  0  0
 32 34  1  0  0  0  0
 33 30  1  0  0  0  0
M  END
>  <MODEL>
4

>  <REMARK>
 VINA RESULT:      -7.0      2.561      6.949
  Name = 
  7 active torsions:
  status: ('A' for Active; 'I' for Inactive)
    1  A    between atoms: C_10  and  C_17
    2  A    between atoms: C_10  and  C_22
    3  A    between atoms: C_13  and  C_24
    4  A    between atoms: C_17  and  C_28
    5  A    between atoms: C_22  and  C_24
    6  A    between atoms: C_28  and  C_29
    7  A    between atoms: C_29  and  C_32
                            x       y       z     vdW  Elec       q    Type
                         _______ _______ _______ _____ _____    ______ ____

>  <TORSDO>
F 7

$$$$
=
 OpenBabel11122414323D

 34 40  0  0  1  0  0  0  0  0999 V2000
  160.8580  202.2750  148.8940 C   0  0  0  0  0  0  0  0  0  0  0  0
  160.1530  200.9740  146.7150 C   0  0  0  0  0  3  0  0  0  0  0  0
  160.7610  207.8230  152.3530 C   0  0  2  0  0  3  0  0  0  0  0  0
  161.3020  203.6680  150.8540 C   0  0  0  0  0  0  0  0  0  0  0  0
  161.1260  206.1930  150.6010 C   0  0  1  0  0  3  0  0  0  0  0  0
  161.2840  208.8060  150.5410 C   0  0  0  0  0  2  0  0  0  0  0  0
  160.6170  209.2390  151.8430 C   0  0  0  0  0  2  0  0  0  0  0  0
  161.9830  206.1210  153.7600 C   0  0  0  0  0  2  0  0  0  0  0  0
  160.8380  203.2010  146.6360 C   0  0  0  0  0  0  0  0  0  0  0  0
  161.6210  206.0140  149.1740 C   0  0  0  0  0  2  0  0  0  0  0  0
  161.1530  205.1060  152.9470 C   0  0  0  0  0  2  0  0  0  0  0  0
  161.4260  204.5030  147.1210 C   0  0  1  0  0  3  0  0  0  0  0  0
  160.0520  201.4360  145.2610 C   0  0  0  0  0  3  0  0  0  0  0  0
  161.6240  205.0130  151.4750 C   0  0  1  0  0  3  0  0  0  0  0  0
  161.5030  207.5860  153.6550 C   0  0  0  0  0  2  0  0  0  0  0  0
  161.0890  203.5460  149.4620 C   0  0  0  0  0  0  0  0  0  0  0  0
  161.6560  207.4850  151.1920 C   0  0  1  0  0  3  0  0  0  0  0  0
  160.9680  204.7730  148.5710 C   0  0  1  0  0  3  0  0  0  0  0  0
  161.1220  201.2480  151.0690 C   0  0  0  0  0  3  0  0  0  0  0  0
  161.3460  202.5040  151.6390 C   0  0  0  0  0  3  0  0  0  0  0  0
  160.5420  202.8840  145.2210 C   0  0  0  0  0  3  0  0  0  0  0  0
  160.8730  201.1340  149.7020 C   0  0  0  0  0  3  0  0  0  0  0  0
  160.6330  202.1740  147.4390 C   0  0  1  0  0  3  0  0  0  0  0  0
  162.9530  204.4520  147.0200 C   0  0  0  0  0  2  0  0  0  0  0  0
  163.4290  204.7970  145.6180 C   0  0  0  0  0  2  0  0  0  0  0  0
  162.5210  205.8380  144.9930 C   0  0  0  0  0  2  0  0  0  0  0  0
  162.0020  205.3230  143.6690 C   0  0  0  0  0  2  0  0  0  0  0  0
  161.8670  206.4770  142.6950 C   0  0  0  0  0  2  0  0  0  0  0  0
  161.9370  205.9760  141.2620 C   0  0  0  0  0  2  0  0  0  0  0  0
  161.8240  207.7530  138.1120 C   0  0  0  0  0  2  0  0  0  0  0  0
  161.5270  208.1880  140.4170 O   0  0  0  0  0  0  0  0  0  0  0  0
  162.3810  207.0800  140.3140 C   0  0  2  0  0  3  0  0  0  0  0  0
  161.5880  208.8120  139.1630 C   0  0  0  0  0  2  0  0  0  0  0  0
  162.3330  206.5780  138.8910 C   0  0  0  0  0  2  0  0  0  0  0  0
  1 16  2  0  0  0  0
  1 22  1  0  0  0  0
  3  7  1  6  0  0  0
  3 15  1  0  0  0  0
  4 14  1  0  0  0  0
  4 20  2  0  0  0  0
  5 10  1  6  0  0  0
  5 17  1  0  0  0  0
  5 14  1  0  0  0  0
  6  7  1  0  0  0  0
  9 12  1  0  0  0  0
  9 23  1  0  0  0  0
 11  8  1  0  0  0  0
 12 24  1  1  0  0  0
 12 18  1  0  0  0  0
 13  2  2  0  0  0  0
 14 11  1  1  0  0  0
 15  8  1  0  0  0  0
 16  4  1  0  0  0  0
 17  6  1  6  0  0  0
 17  3  1  0  0  0  0
 18 10  1  1  0  0  0
 18 16  1  0  0  0  0
 19 20  1  0  0  0  0
 21 13  1  0  0  0  0
 21  9  2  0  0  0  0
 22 19  2  0  0  0  0
 23  2  1  1  0  0  0
 23  1  1  0  0  0  0
 25 24  1  0  0  0  0
 26 25  1  0  0  0  0
 27 26  1  0  0  0  0
 28 27  1  0  0  0  0
 29 28  1  0  0  0  0
 30 34  1  0  0  0  0
 30 33  1  0  0  0  0
 32 31  1  0  0  0  0
 32 29  1  1  0  0  0
 33 31  1  0  0  0  0
 34 32  1  0  0  0  0
M  END
>  <MODEL>
5

>  <REMARK>
 VINA RESULT:      -7.0      3.362      7.210
  Name = 
  7 active torsions:
  status: ('A' for Active; 'I' for Inactive)
    1  A    between atoms: C_10  and  C_17
    2  A    between atoms: C_10  and  C_22
    3  A    between atoms: C_13  and  C_24
    4  A    between atoms: C_17  and  C_28
    5  A    between atoms: C_22  and  C_24
    6  A    between atoms: C_28  and  C_29
    7  A    between atoms: C_29  and  C_32
                            x       y       z     vdW  Elec       q    Type
                         _______ _______ _______ _____ _____    ______ ____

>  <TORSDO>
F 7

$$$$
=
 OpenBabel11122414323D

 34 40  0  0  1  0  0  0  0  0999 V2000
  160.0570  213.2080  149.5140 C   0  0  0  0  0  0  0  0  0  0  0  0
  161.4060  214.0180  147.4010 C   0  0  0  0  0  3  0  0  0  0  0  0
  160.1340  210.9100  155.6350 C   0  0  2  0  0  3  0  0  0  0  0  0
  159.0440  212.5040  151.6260 C   0  0  0  0  0  0  0  0  0  0  0  0
  160.4640  211.1530  153.2490 C   0  0  1  0  0  3  0  0  0  0  0  0
  161.6060  209.5320  154.9580 C   0  0  0  0  0  2  0  0  0  0  0  0
  161.2180  210.1060  156.3180 C   0  0  0  0  0  2  0  0  0  0  0  0
  157.7070  211.2220  155.0160 C   0  0  0  0  0  2  0  0  0  0  0  0
  162.1110  212.1940  148.6720 C   0  0  0  0  0  0  0  0  0  0  0  0
  161.1480  210.5440  152.0360 C   0  0  0  0  0  2  0  0  0  0  0  0
  158.2700  212.2740  154.0370 C   0  0  0  0  0  2  0  0  0  0  0  0
  162.0420  211.0970  149.7050 C   0  0  1  0  0  3  0  0  0  0  0  0
  162.7140  213.5100  146.7930 C   0  0  0  0  0  3  0  0  0  0  0  0
  159.0380  211.6240  152.8610 C   0  0  1  0  0  3  0  0  0  0  0  0
  158.7000  210.7470  156.1020 C   0  0  0  0  0  2  0  0  0  0  0  0
  160.1020  212.4300  150.6910 C   0  0  0  0  0  0  0  0  0  0  0  0
  160.3440  210.1330  154.3640 C   0  0  1  0  0  3  0  0  0  0  0  0
  161.3630  211.6310  150.9860 C   0  0  1  0  0  3  0  0  0  0  0  0
  157.8890  214.0680  150.1580 C   0  0  0  0  0  3  0  0  0  0  0  0
  157.9310  213.3050  151.3280 C   0  0  0  0  0  3  0  0  0  0  0  0
  163.1400  212.2910  147.6130 C   0  0  0  0  0  3  0  0  0  0  0  0
  158.9520  214.0240  149.2560 C   0  0  0  0  0  3  0  0  0  0  0  0
  161.1770  213.1180  148.5570 C   0  0  1  0  0  3  0  0  0  0  0  0
  161.2860  209.8940  149.1350 C   0  0  0  0  0  2  0  0  0  0  0  0
  162.1850  208.6720  149.0300 C   0  0  0  0  0  2  0  0  0  0  0  0
  161.4740  207.4450  149.5660 C   0  0  0  0  0  2  0  0  0  0  0  0
  162.1170  207.0190  150.8680 C   0  0  0  0  0  2  0  0  0  0  0  0
  161.2050  206.0460  151.5880 C   0  0  0  0  0  2  0  0  0  0  0  0
  161.7870  204.6420  151.5510 C   0  0  0  0  0  2  0  0  0  0  0  0
  160.8300  202.4020  148.8770 C   0  0  0  0  0  2  0  0  0  0  0  0
  161.1570  202.3470  151.2170 O   0  0  0  0  0  0  0  0  0  0  0  0
  160.8310  203.6690  150.8780 C   0  0  2  0  0  3  0  0  0  0  0  0
  160.7150  201.5730  150.1350 C   0  0  0  0  0  2  0  0  0  0  0  0
  160.9340  203.8100  149.3790 C   0  0  0  0  0  2  0  0  0  0  0  0
  1 16  1  0  0  0  0
  3 15  1  1  0  0  0
  3  7  1  0  0  0  0
  4 14  1  0  0  0  0
  5 10  1  6  0  0  0
  5 17  1  0  0  0  0
  6  7  1  0  0  0  0
  8 15  1  0  0  0  0
  9 12  1  0  0  0  0
 11  8  1  0  0  0  0
 12 24  1  6  0  0  0
 12 18  1  0  0  0  0
 13  2  2  0  0  0  0
 13 21  1  0  0  0  0
 14  5  1  0  0  0  0
 14 11  1  1  0  0  0
 16 18  1  0  0  0  0
 16  4  2  0  0  0  0
 17  6  1  1  0  0  0
 17  3  1  0  0  0  0
 18 10  1  1  0  0  0
 19 20  2  0  0  0  0
 20  4  1  0  0  0  0
 21  9  2  0  0  0  0
 22  1  2  0  0  0  0
 22 19  1  0  0  0  0
 23  2  1  1  0  0  0
 23  9  1  0  0  0  0
 23  1  1  0  0  0  0
 25 24  1  0  0  0  0
 25 26  1  0  0  0  0
 26 27  1  0  0  0  0
 27 28  1  0  0  0  0
 29 28  1  0  0  0  0
 30 34  1  0  0  0  0
 30 33  1  0  0  0  0
 32 31  1  0  0  0  0
 32 29  1  1  0  0  0
 33 31  1  0  0  0  0
 34 32  1  0  0  0  0
M  END
>  <MODEL>
6

>  <REMARK>
 VINA RESULT:      -6.4      2.394      5.455
  Name = 
  7 active torsions:
  status: ('A' for Active; 'I' for Inactive)
    1  A    between atoms: C_10  and  C_17
    2  A    between atoms: C_10  and  C_22
    3  A    between atoms: C_13  and  C_24
    4  A    between atoms: C_17  and  C_28
    5  A    between atoms: C_22  and  C_24
    6  A    between atoms: C_28  and  C_29
    7  A    between atoms: C_29  and  C_32
                            x       y       z     vdW  Elec       q    Type
                         _______ _______ _______ _____ _____    ______ ____

>  <TORSDO>
F 7

$$$$
=
 OpenBabel11122414323D

 34 40  0  0  1  0  0  0  0  0999 V2000
  160.1510  213.2500  149.4770 C   0  0  0  0  0  0  0  0  0  0  0  0
  161.5900  214.0240  147.4120 C   0  0  0  0  0  3  0  0  0  0  0  0
  159.9630  210.9320  155.5890 C   0  0  2  0  0  3  0  0  0  0  0  0
  159.0510  212.5700  151.5530 C   0  0  0  0  0  0  0  0  0  0  0  0
  160.3760  211.1730  153.2160 C   0  0  1  0  0  3  0  0  0  0  0  0
  161.4140  209.5120  154.9540 C   0  0  0  0  0  2  0  0  0  0  0  0
  161.0000  210.0940  156.3020 C   0  0  0  0  0  2  0  0  0  0  0  0
  157.5680  211.3200  154.8940 C   0  0  0  0  0  2  0  0  0  0  0  0
  162.1990  212.1750  148.6970 C   0  0  0  0  0  0  0  0  0  0  0  0
  161.0790  210.5460  152.0220 C   0  0  0  0  0  2  0  0  0  0  0  0
  158.1930  212.3570  153.9380 C   0  0  0  0  0  2  0  0  0  0  0  0
  162.0630  211.0790  149.7230 C   0  0  1  0  0  3  0  0  0  0  0  0
  162.9010  213.4790  146.8440 C   0  0  0  0  0  3  0  0  0  0  0  0
  158.9780  211.6880  152.7840 C   0  0  1  0  0  3  0  0  0  0  0  0
  158.5110  210.8120  156.0090 C   0  0  0  0  0  2  0  0  0  0  0  0
  160.1350  212.4680  150.6530 C   0  0  0  0  0  0  0  0  0  0  0  0
  160.1900  210.1530  154.3220 C   0  0  1  0  0  3  0  0  0  0  0  0
  161.3610  211.6290  150.9840 C   0  0  1  0  0  3  0  0  0  0  0  0
  157.9910  214.1740  150.0560 C   0  0  0  0  0  3  0  0  0  0  0  0
  157.9720  213.4070  151.2240 C   0  0  0  0  0  3  0  0  0  0  0  0
  163.2640  212.2450  147.6720 C   0  0  0  0  0  3  0  0  0  0  0  0
  159.0800  214.1000  149.1880 C   0  0  0  0  0  3  0  0  0  0  0  0
  161.2970  213.1290  148.5560 C   0  0  1  0  0  3  0  0  0  0  0  0
  161.2900  209.9010  149.1250 C   0  0  0  0  0  2  0  0  0  0  0  0
  162.2150  208.7430  148.7860 C   0  0  0  0  0  2  0  0  0  0  0  0
  162.3560  207.8130  149.9770 C   0  0  0  0  0  2  0  0  0  0  0  0
  161.0530  207.0780  150.1990 C   0  0  0  0  0  2  0  0  0  0  0  0
  160.5560  206.5210  148.8790 C   0  0  0  0  0  2  0  0  0  0  0  0
  161.2210  205.1890  148.5780 C   0  0  0  0  0  2  0  0  0  0  0  0
  161.2230  204.0400  145.1470 C   0  0  0  0  0  2  0  0  0  0  0  0
  161.0900  206.0730  146.3460 O   0  0  0  0  0  0  0  0  0  0  0  0
  161.7740  205.1580  147.1610 C   0  0  2  0  0  3  0  0  0  0  0  0
  161.1830  205.5470  145.0500 C   0  0  0  0  0  2  0  0  0  0  0  0
  161.5950  203.7780  146.5750 C   0  0  0  0  0  2  0  0  0  0  0  0
  1 16  1  0  0  0  0
  3 15  1  1  0  0  0
  3  7  1  0  0  0  0
  4 14  1  0  0  0  0
  5 10  1  6  0  0  0
  5 17  1  0  0  0  0
  6  7  1  0  0  0  0
  8 15  1  0  0  0  0
  9 12  1  0  0  0  0
 11  8  1  0  0  0  0
 12 24  1  6  0  0  0
 12 18  1  0  0  0  0
 13  2  2  0  0  0  0
 13 21  1  0  0  0  0
 14  5  1  0  0  0  0
 14 11  1  1  0  0  0
 16 18  1  0  0  0  0
 16  4  2  0  0  0  0
 17  6  1  1  0  0  0
 17  3  1  0  0  0  0
 18 10  1  1  0  0  0
 19 20  2  0  0  0  0
 20  4  1  0  0  0  0
 21  9  2  0  0  0  0
 22  1  2  0  0  0  0
 22 19  1  0  0  0  0
 23  2  1  1  0  0  0
 23  9  1  0  0  0  0
 23  1  1  0  0  0  0
 25 24  1  0  0  0  0
 25 26  1  0  0  0  0
 26 27  1  0  0  0  0
 28 27  1  0  0  0  0
 29 28  1  0  0  0  0
 30 34  1  0  0  0  0
 31 32  1  0  0  0  0
 32 29  1  1  0  0  0
 33 30  1  0  0  0  0
 33 31  1  0  0  0  0
 34 32  1  0  0  0  0
M  END
>  <MODEL>
7

>  <REMARK>
 VINA RESULT:      -6.3      2.206      5.228
  Name = 
  7 active torsions:
  status: ('A' for Active; 'I' for Inactive)
    1  A    between atoms: C_10  and  C_17
    2  A    between atoms: C_10  and  C_22
    3  A    between atoms: C_13  and  C_24
    4  A    between atoms: C_17  and  C_28
    5  A    between atoms: C_22  and  C_24
    6  A    between atoms: C_28  and  C_29
    7  A    between atoms: C_29  and  C_32
                            x       y       z     vdW  Elec       q    Type
                         _______ _______ _______ _____ _____    ______ ____

>  <TORSDO>
F 7

$$$$
