=
 OpenBabel11122414153D

 34 42  0  0  1  0  0  0  0  0999 V2000
  161.7740  209.4320  151.0840 C   0  0  0  0  0  0  0  0  0  0  0  0
  161.4700  211.0690  153.0240 C   0  0  0  0  0  2  0  0  0  0  0  0
  161.2280  203.3060  148.4290 C   0  0  2  0  0  0  0  0  0  0  0  0
  161.7970  207.7780  149.3180 C   0  0  0  0  0  0  0  0  0  0  0  0
  160.6740  205.5570  149.6480 C   0  0  1  0  0  3  0  0  0  0  0  0
  160.8440  202.8980  150.2670 C   0  0  2  0  0  3  0  0  0  0  0  0
  161.1750  202.1020  149.2010 O   0  0  0  0  0  0  0  0  0  0  0  0
  162.4040  204.8930  146.9180 C   0  0  0  0  0  2  0  0  0  0  0  0
  161.7530  208.7120  153.4890 C   0  0  2  0  0  3  0  0  0  0  0  0
  159.5770  207.7530  155.5900 C   0  0  0  0  0  3  0  0  0  0  0  0
  160.4790  205.9280  151.1320 C   0  0  0  0  0  2  0  0  0  0  0  0
  161.6720  206.1490  147.3910 C   0  0  0  0  0  2  0  0  0  0  0  0
  160.9520  207.4880  153.0380 C   0  0  1  0  0  3  0  0  0  0  0  0
  161.4390  210.8860  154.5350 C   0  0  0  0  0  2  0  0  0  0  0  0
  161.7880  206.3280  148.9110 C   0  0  1  0  0  3  0  0  0  0  0  0
  161.5350  203.6370  147.0070 C   0  0  0  0  0  2  0  0  0  0  0  0
  159.9230  209.0240  155.3130 C   0  0  0  0  0  0  0  0  0  0  0  0
  161.6630  208.0910  150.6770 C   0  0  0  0  0  0  0  0  0  0  0  0
  160.8720  204.0890  149.4880 C   0  0  2  0  0  3  0  0  0  0  0  0
  161.4630  206.9720  151.6820 C   0  0  2  0  0  3  0  0  0  0  0  0
  162.0770  210.0790  148.7810 C   0  0  0  0  0  3  0  0  0  0  0  0
  160.3670  206.5550  155.2440 C   0  0  0  0  0  3  0  0  0  0  0  0
  162.0040  208.7720  148.4090 N   0  0  0  0  0  0  0  0  0  0  0  0
  161.0180  206.4250  154.0880 C   0  0  0  0  0  3  0  0  0  0  0  0
  161.3080  209.3820  154.7970 C   0  0  1  0  0  3  0  0  0  0  0  0
  161.9640  210.4330  150.1260 C   0  0  0  0  0  3  0  0  0  0  0  0
  161.7010  209.7470  152.4800 N   0  0  0  0  0  0  0  0  0  0  0  0
  159.0260  210.0650  155.5930 O   0  0  0  0  0  0  0  0  0  0  0  0
  158.9830  210.7460  156.8440 C   0  0  0  0  0  2  0  0  0  0  0  0
  156.6300  211.9680  155.0080 O   0  0  0  0  0  0  0  0  0  0  0  0
  156.8890  211.9780  157.2600 C   0  0  0  0  0  2  0  0  0  0  0  0
  158.2650  212.0730  156.6820 C   0  0  2  0  0  3  0  0  0  0  0  0
  155.9790  212.2720  156.1660 N   0  0  0  0  0  2  0  0  0  0  0  0
  157.9710  212.3100  155.2290 C   0  0  0  0  0  2  0  0  0  0  0  0
  1 27  1  0  0  0  0
  2 14  1  0  0  0  0
  3 16  1  1  0  0  0
  3  7  1  0  0  0  0
  3 19  1  0  0  0  0
  3  6  1  0  0  0  0
  4 18  2  0  0  0  0
  5 11  1  1  0  0  0
  6  7  1  6  0  0  0
  8 16  1  0  0  0  0
  8 12  1  0  0  0  0
  9 27  1  6  0  0  0
  9 25  1  0  0  0  0
 11 20  1  0  0  0  0
 13  9  1  0  0  0  0
 13 24  1  1  0  0  0
 14 25  1  0  0  0  0
 15 12  1  6  0  0  0
 15  4  1  0  0  0  0
 15  5  1  0  0  0  0
 17 10  2  0  0  0  0
 17 28  1  0  0  0  0
 18  1  1  0  0  0  0
 18 20  1  0  0  0  0
 19  5  1  0  0  0  0
 19  6  1  0  0  0  0
 20 13  1  0  0  0  0
 21 26  1  0  0  0  0
 22 10  1  0  0  0  0
 23 21  2  0  0  0  0
 23  4  1  0  0  0  0
 24 22  2  0  0  0  0
 25 17  1  0  0  0  0
 26  1  2  0  0  0  0
 27  2  1  0  0  0  0
 28 29  1  0  0  0  0
 30 34  1  0  0  0  0
 30 33  1  0  0  0  0
 32 29  1  0  0  0  0
 32 31  1  0  0  0  0
 33 31  1  0  0  0  0
 34 32  1  0  0  0  0
M  END
>  <MODEL>
1

>  <REMARK>
 VINA RESULT:      -9.8      0.000      0.000
  Name = 
  3 active torsions:
  status: ('A' for Active; 'I' for Inactive)
    1  A    between atoms: C_17  and  O_28
    2  A    between atoms: O_28  and  C_29
    3  A    between atoms: C_29  and  C_32
                            x       y       z     vdW  Elec       q    Type
                         _______ _______ _______ _____ _____    ______ ____

>  <TORSDO>
F 3

$$$$
=
 OpenBabel11122414153D

 34 42  0  0  1  0  0  0  0  0999 V2000
  160.8700  207.1620  154.2650 C   0  0  0  0  0  0  0  0  0  0  0  0
  161.5830  204.9850  153.1310 C   0  0  0  0  0  2  0  0  0  0  0  0
  158.9590  213.5770  153.9870 C   0  0  2  0  0  0  0  0  0  0  0  0
  159.9940  209.2480  155.1260 C   0  0  0  0  0  0  0  0  0  0  0  0
  159.1190  210.9980  153.5540 C   0  0  1  0  0  3  0  0  0  0  0  0
  159.5050  213.3210  152.1620 C   0  0  2  0  0  3  0  0  0  0  0  0
  159.2580  214.4530  152.8950 O   0  0  0  0  0  0  0  0  0  0  0  0
  159.2930  212.7880  156.3210 C   0  0  0  0  0  2  0  0  0  0  0  0
  162.0000  207.0950  152.0250 C   0  0  2  0  0  3  0  0  0  0  0  0
  161.0920  206.9240  148.9890 C   0  0  0  0  0  3  0  0  0  0  0  0
  159.6770  210.1620  152.3850 C   0  0  0  0  0  2  0  0  0  0  0  0
  158.9120  211.3290  156.0620 C   0  0  0  0  0  2  0  0  0  0  0  0
  161.0510  208.2170  151.5970 C   0  0  1  0  0  3  0  0  0  0  0  0
  162.2840  204.6880  151.8140 C   0  0  0  0  0  2  0  0  0  0  0  0
  159.7550  210.7220  154.9320 C   0  0  1  0  0  3  0  0  0  0  0  0
  158.5470  213.7620  155.4080 C   0  0  0  0  0  2  0  0  0  0  0  0
  161.2910  205.8910  149.8290 C   0  0  0  0  0  0  0  0  0  0  0  0
  160.5430  208.5150  154.0660 C   0  0  0  0  0  0  0  0  0  0  0  0
  159.1800  212.4540  153.2430 C   0  0  2  0  0  3  0  0  0  0  0  0
  160.8290  209.2130  152.7490 C   0  0  2  0  0  3  0  0  0  0  0  0
  160.0340  207.3210  156.5220 C   0  0  0  0  0  3  0  0  0  0  0  0
  161.5870  208.3000  149.1910 C   0  0  0  0  0  3  0  0  0  0  0  0
  159.7590  208.6390  156.3220 N   0  0  0  0  0  0  0  0  0  0  0  0
  161.5930  208.9010  150.3810 C   0  0  0  0  0  3  0  0  0  0  0  0
  162.2600  205.9850  150.9970 C   0  0  1  0  0  3  0  0  0  0  0  0
  160.5960  206.5580  155.4970 C   0  0  0  0  0  3  0  0  0  0  0  0
  161.4900  206.4280  153.2030 N   0  0  0  0  0  0  0  0  0  0  0  0
  160.6680  204.6610  149.5770 O   0  0  0  0  0  0  0  0  0  0  0  0
  161.0950  203.7610  148.5590 C   0  0  0  0  0  2  0  0  0  0  0  0
  161.7330  200.5990  148.5560 O   0  0  0  0  0  0  0  0  0  0  0  0
  160.5230  201.8500  150.0090 C   0  0  0  0  0  2  0  0  0  0  0  0
  160.3160  202.4620  148.6600 C   0  0  2  0  0  3  0  0  0  0  0  0
  161.1070  200.5420  149.7660 N   0  0  0  0  0  2  0  0  0  0  0  0
  160.9370  201.4340  147.7590 C   0  0  0  0  0  2  0  0  0  0  0  0
  1 26  1  0  0  0  0
  2 27  1  0  0  0  0
  3 16  1  1  0  0  0
  4 23  2  0  0  0  0
  5 11  1  6  0  0  0
  5 15  1  0  0  0  0
  6  7  1  6  0  0  0
  6 19  1  0  0  0  0
  6  3  1  0  0  0  0
  7  3  1  0  0  0  0
  9 27  1  1  0  0  0
 10 22  1  0  0  0  0
 10 17  2  0  0  0  0
 11 20  1  0  0  0  0
 12  8  1  0  0  0  0
 13 24  1  6  0  0  0
 13  9  1  0  0  0  0
 13 20  1  0  0  0  0
 14  2  1  0  0  0  0
 15  4  1  0  0  0  0
 15 12  1  1  0  0  0
 16  8  1  0  0  0  0
 17 25  1  0  0  0  0
 18  1  2  0  0  0  0
 18  4  1  0  0  0  0
 19  5  1  0  0  0  0
 19  3  1  0  0  0  0
 20 18  1  0  0  0  0
 22 24  2  0  0  0  0
 23 21  1  0  0  0  0
 25 14  1  0  0  0  0
 25  9  1  0  0  0  0
 26 21  2  0  0  0  0
 27  1  1  0  0  0  0
 28 17  1  0  0  0  0
 29 32  1  0  0  0  0
 29 28  1  0  0  0  0
 30 33  1  0  0  0  0
 32 31  1  0  0  0  0
 33 31  1  0  0  0  0
 34 30  1  0  0  0  0
 34 32  1  0  0  0  0
M  END
>  <MODEL>
2

>  <REMARK>
 VINA RESULT:      -8.5      2.390      8.968
  Name = 
  3 active torsions:
  status: ('A' for Active; 'I' for Inactive)
    1  A    between atoms: C_17  and  O_28
    2  A    between atoms: O_28  and  C_29
    3  A    between atoms: C_29  and  C_32
                            x       y       z     vdW  Elec       q    Type
                         _______ _______ _______ _____ _____    ______ ____

>  <TORSDO>
F 3

$$$$
=
 OpenBabel11122414153D

 34 42  0  0  1  0  0  0  0  0999 V2000
  161.8530  208.4740  150.0310 C   0  0  0  0  0  0  0  0  0  0  0  0
  161.7830  210.4620  151.6360 C   0  0  0  0  0  2  0  0  0  0  0  0
  160.9200  201.9790  148.6830 C   0  0  2  0  0  0  0  0  0  0  0  0
  161.6610  206.5130  148.6260 C   0  0  0  0  0  0  0  0  0  0  0  0
  160.5370  204.4410  149.4910 C   0  0  1  0  0  3  0  0  0  0  0  0
  160.7230  201.9450  150.5950 C   0  0  2  0  0  3  0  0  0  0  0  0
  160.9250  200.9470  149.6770 O   0  0  0  0  0  0  0  0  0  0  0  0
  161.9600  203.2000  146.7840 C   0  0  0  0  0  2  0  0  0  0  0  0
  162.0700  208.2290  152.5200 C   0  0  2  0  0  3  0  0  0  0  0  0
  160.1080  207.7730  154.9710 C   0  0  0  0  0  3  0  0  0  0  0  0
  160.5060  205.0960  150.8860 C   0  0  0  0  0  2  0  0  0  0  0  0
  161.3050  204.5520  147.0740 C   0  0  0  0  0  2  0  0  0  0  0  0
  161.2030  206.9730  152.3960 C   0  0  1  0  0  3  0  0  0  0  0  0
  161.9070  210.5730  153.1490 C   0  0  0  0  0  2  0  0  0  0  0  0
  161.5830  205.0130  148.5120 C   0  0  1  0  0  3  0  0  0  0  0  0
  161.0830  202.0190  147.2010 C   0  0  0  0  0  2  0  0  0  0  0  0
  160.4470  208.9540  154.4200 C   0  0  0  0  0  0  0  0  0  0  0  0
  161.6750  207.0850  149.9050 C   0  0  0  0  0  0  0  0  0  0  0  0
  160.6910  202.9630  149.6000 C   0  0  2  0  0  3  0  0  0  0  0  0
  161.5610  206.1870  151.1230 C   0  0  2  0  0  3  0  0  0  0  0  0
  161.9250  208.6570  147.6270 C   0  0  0  0  0  3  0  0  0  0  0  0
  160.8350  206.5030  154.7890 C   0  0  0  0  0  3  0  0  0  0  0  0
  161.7910  207.3060  147.5260 N   0  0  0  0  0  0  0  0  0  0  0  0
  161.3600  206.1290  153.6210 C   0  0  0  0  0  3  0  0  0  0  0  0
  161.7760  209.1530  153.7100 C   0  0  1  0  0  3  0  0  0  0  0  0
  161.9610  209.2650  148.8820 C   0  0  0  0  0  3  0  0  0  0  0  0
  161.9320  209.0530  151.3390 N   0  0  0  0  0  0  0  0  0  0  0  0
  159.6030  210.0630  154.5800 O   0  0  0  0  0  0  0  0  0  0  0  0
  158.8970  210.6720  153.5030 C   0  0  0  0  0  2  0  0  0  0  0  0
  157.3110  211.8930  156.0320 O   0  0  0  0  0  0  0  0  0  0  0  0
  159.2190  212.5860  155.0240 C   0  0  0  0  0  2  0  0  0  0  0  0
  158.3570  212.0210  153.9400 C   0  0  2  0  0  3  0  0  0  0  0  0
  158.3460  212.7690  156.1700 N   0  0  0  0  0  2  0  0  0  0  0  0
  157.0510  211.8300  154.6560 C   0  0  0  0  0  2  0  0  0  0  0  0
  1 27  1  0  0  0  0
  2 14  1  0  0  0  0
  3 16  1  1  0  0  0
  3 19  1  0  0  0  0
  3  7  1  0  0  0  0
  3  6  1  0  0  0  0
  4 18  2  0  0  0  0
  5 19  1  0  0  0  0
  5 11  1  1  0  0  0
  6  7  1  6  0  0  0
  8 12  1  0  0  0  0
  8 16  1  0  0  0  0
  9 27  1  6  0  0  0
  9 25  1  0  0  0  0
 11 20  1  0  0  0  0
 13  9  1  0  0  0  0
 13 24  1  1  0  0  0
 14 25  1  0  0  0  0
 15 12  1  6  0  0  0
 15  4  1  0  0  0  0
 15  5  1  0  0  0  0
 17 28  1  0  0  0  0
 17 10  2  0  0  0  0
 18  1  1  0  0  0  0
 18 20  1  0  0  0  0
 19  6  1  0  0  0  0
 20 13  1  0  0  0  0
 21 26  1  0  0  0  0
 22 10  1  0  0  0  0
 23 21  2  0  0  0  0
 23  4  1  0  0  0  0
 24 22  2  0  0  0  0
 25 17  1  0  0  0  0
 26  1  2  0  0  0  0
 27  2  1  0  0  0  0
 29 32  1  0  0  0  0
 29 28  1  0  0  0  0
 30 33  1  0  0  0  0
 31 33  1  0  0  0  0
 32 34  1  0  0  0  0
 32 31  1  0  0  0  0
 34 30  1  0  0  0  0
M  END
>  <MODEL>
3

>  <REMARK>
 VINA RESULT:      -8.3      1.282      1.597
  Name = 
  3 active torsions:
  status: ('A' for Active; 'I' for Inactive)
    1  A    between atoms: C_17  and  O_28
    2  A    between atoms: O_28  and  C_29
    3  A    between atoms: C_29  and  C_32
                            x       y       z     vdW  Elec       q    Type
                         _______ _______ _______ _____ _____    ______ ____

>  <TORSDO>
F 3

$$$$
=
 OpenBabel11122414153D

 34 42  0  0  1  0  0  0  0  0999 V2000
  160.8620  207.1770  154.3100 C   0  0  0  0  0  0  0  0  0  0  0  0
  161.6870  205.0700  153.1200 C   0  0  0  0  0  2  0  0  0  0  0  0
  158.7230  213.5240  154.2050 C   0  0  2  0  0  0  0  0  0  0  0  0
  159.8860  209.1970  155.2190 C   0  0  0  0  0  0  0  0  0  0  0  0
  158.9900  210.9710  153.6850 C   0  0  1  0  0  3  0  0  0  0  0  0
  159.3280  213.3560  152.3890 C   0  0  2  0  0  3  0  0  0  0  0  0
  159.0190  214.4510  153.1540 O   0  0  0  0  0  0  0  0  0  0  0  0
  159.0200  212.6630  156.5180 C   0  0  0  0  0  2  0  0  0  0  0  0
  162.0560  207.2330  152.1030 C   0  0  2  0  0  3  0  0  0  0  0  0
  161.2410  207.1420  149.0380 C   0  0  0  0  0  3  0  0  0  0  0  0
  159.6120  210.1990  152.5040 C   0  0  0  0  0  2  0  0  0  0  0  0
  158.7010  211.2020  156.1960 C   0  0  0  0  0  2  0  0  0  0  0  0
  161.0780  208.3350  151.6870 C   0  0  1  0  0  3  0  0  0  0  0  0
  162.4350  204.8480  151.8140 C   0  0  0  0  0  2  0  0  0  0  0  0
  159.5970  210.6670  155.0700 C   0  0  1  0  0  3  0  0  0  0  0  0
  158.2640  213.6420  155.6190 C   0  0  0  0  0  2  0  0  0  0  0  0
  161.4540  206.0860  149.8460 C   0  0  0  0  0  0  0  0  0  0  0  0
  160.4910  208.5230  154.1490 C   0  0  0  0  0  0  0  0  0  0  0  0
  159.0060  212.4380  153.4290 C   0  0  2  0  0  3  0  0  0  0  0  0
  160.7870  209.2790  152.8670 C   0  0  2  0  0  3  0  0  0  0  0  0
  159.9580  207.2220  156.5450 C   0  0  0  0  0  3  0  0  0  0  0  0
  161.6780  208.5260  149.3030 C   0  0  0  0  0  3  0  0  0  0  0  0
  159.6400  208.5360  156.3850 N   0  0  0  0  0  0  0  0  0  0  0  0
  161.6290  209.0820  150.5130 C   0  0  0  0  0  3  0  0  0  0  0  0
  162.3860  206.1720  151.0440 C   0  0  1  0  0  3  0  0  0  0  0  0
  160.5760  206.5190  155.5110 C   0  0  0  0  0  3  0  0  0  0  0  0
  161.5380  206.5060  153.2400 N   0  0  0  0  0  0  0  0  0  0  0  0
  160.8840  204.8440  149.5310 O   0  0  0  0  0  0  0  0  0  0  0  0
  160.5500  204.4490  148.2040 C   0  0  0  0  0  2  0  0  0  0  0  0
  161.3480  203.3890  145.2650 O   0  0  0  0  0  0  0  0  0  0  0  0
  162.4040  204.8590  146.6310 C   0  0  0  0  0  2  0  0  0  0  0  0
  161.7640  203.8440  147.5250 C   0  0  2  0  0  3  0  0  0  0  0  0
  162.3760  204.2850  145.2970 N   0  0  0  0  0  2  0  0  0  0  0  0
  161.3200  202.8040  146.5390 C   0  0  0  0  0  2  0  0  0  0  0  0
  1 26  1  0  0  0  0
  2 27  1  0  0  0  0
  3 16  1  1  0  0  0
  4 23  2  0  0  0  0
  5 11  1  6  0  0  0
  5 15  1  0  0  0  0
  6  7  1  6  0  0  0
  6 19  1  0  0  0  0
  6  3  1  0  0  0  0
  7  3  1  0  0  0  0
  9 27  1  1  0  0  0
 10 22  1  0  0  0  0
 10 17  2  0  0  0  0
 11 20  1  0  0  0  0
 12  8  1  0  0  0  0
 13 24  1  6  0  0  0
 13  9  1  0  0  0  0
 13 20  1  0  0  0  0
 14  2  1  0  0  0  0
 15  4  1  0  0  0  0
 15 12  1  1  0  0  0
 16  8  1  0  0  0  0
 17 25  1  0  0  0  0
 18  1  2  0  0  0  0
 18  4  1  0  0  0  0
 19  5  1  0  0  0  0
 19  3  1  0  0  0  0
 20 18  1  0  0  0  0
 22 24  2  0  0  0  0
 23 21  1  0  0  0  0
 25 14  1  0  0  0  0
 25  9  1  0  0  0  0
 26 21  2  0  0  0  0
 27  1  1  0  0  0  0
 28 17  1  0  0  0  0
 29 28  1  0  0  0  0
 30 33  1  0  0  0  0
 30 34  1  0  0  0  0
 31 32  1  0  0  0  0
 32 29  1  0  0  0  0
 33 31  1  0  0  0  0
 34 32  1  0  0  0  0
M  END
>  <MODEL>
4

>  <REMARK>
 VINA RESULT:      -7.9      2.198      9.050
  Name = 
  3 active torsions:
  status: ('A' for Active; 'I' for Inactive)
    1  A    between atoms: C_17  and  O_28
    2  A    between atoms: O_28  and  C_29
    3  A    between atoms: C_29  and  C_32
                            x       y       z     vdW  Elec       q    Type
                         _______ _______ _______ _____ _____    ______ ____

>  <TORSDO>
F 3

$$$$
=
 OpenBabel11122414153D

 34 42  0  0  1  0  0  0  0  0999 V2000
  161.5040  208.4310  149.4520 C   0  0  0  0  0  0  0  0  0  0  0  0
  161.5160  207.1330  147.2500 C   0  0  0  0  0  2  0  0  0  0  0  0
  161.1420  208.6490  156.1380 C   0  0  2  0  0  0  0  0  0  0  0  0
  161.6650  209.4460  151.6440 C   0  0  0  0  0  0  0  0  0  0  0  0
  161.8380  208.0100  153.6950 C   0  0  1  0  0  3  0  0  0  0  0  0
  160.6390  206.8180  155.8450 C   0  0  2  0  0  3  0  0  0  0  0  0
  160.5220  207.6370  156.9390 O   0  0  0  0  0  0  0  0  0  0  0  0
  161.1890  210.9160  155.1170 C   0  0  0  0  0  2  0  0  0  0  0  0
  160.3710  206.2090  149.1700 C   0  0  2  0  0  3  0  0  0  0  0  0
  161.1570  203.1570  149.5340 C   0  0  0  0  0  3  0  0  0  0  0  0
  161.5450  206.7850  152.8060 C   0  0  0  0  0  2  0  0  0  0  0  0
  162.0250  210.5330  153.8950 C   0  0  0  0  0  2  0  0  0  0  0  0
  160.8700  205.8600  150.5740 C   0  0  1  0  0  3  0  0  0  0  0  0
  160.9010  205.8060  146.8300 C   0  0  0  0  0  2  0  0  0  0  0  0
  161.3890  209.3690  153.1220 C   0  0  1  0  0  3  0  0  0  0  0  0
  161.5270  210.0750  156.3490 C   0  0  0  0  0  2  0  0  0  0  0  0
  161.3510  203.9120  148.4370 C   0  0  0  0  0  0  0  0  0  0  0  0
  161.3510  208.3380  150.8470 C   0  0  0  0  0  0  0  0  0  0  0  0
  161.2800  207.8200  155.0630 C   0  0  2  0  0  3  0  0  0  0  0  0
  160.7930  207.0860  151.5000 C   0  0  2  0  0  3  0  0  0  0  0  0
  162.3310  210.6800  149.7210 C   0  0  0  0  0  3  0  0  0  0  0  0
  160.2390  203.4770  150.6440 C   0  0  0  0  0  3  0  0  0  0  0  0
  162.1400  210.5850  151.0650 N   0  0  0  0  0  0  0  0  0  0  0  0
  160.0810  204.7130  151.1200 C   0  0  0  0  0  3  0  0  0  0  0  0
  160.4550  205.0980  148.1140 C   0  0  1  0  0  3  0  0  0  0  0  0
  162.0150  209.6050  148.8890 C   0  0  0  0  0  3  0  0  0  0  0  0
  161.1230  207.3210  148.6310 N   0  0  0  0  0  0  0  0  0  0  0  0
  162.3390  203.5510  147.5100 O   0  0  0  0  0  0  0  0  0  0  0  0
  162.0690  202.8040  146.3280 C   0  0  0  0  0  2  0  0  0  0  0  0
  160.4180  200.5850  144.6690 O   0  0  0  0  0  0  0  0  0  0  0  0
  161.2860  200.5060  146.7620 C   0  0  0  0  0  2  0  0  0  0  0  0
  160.8530  201.9220  146.5440 C   0  0  2  0  0  3  0  0  0  0  0  0
  160.6570  199.7320  145.7060 N   0  0  0  0  0  2  0  0  0  0  0  0
  160.0820  201.8110  145.2610 C   0  0  0  0  0  2  0  0  0  0  0  0
  1 18  1  0  0  0  0
  2 27  1  0  0  0  0
  3 16  1  6  0  0  0
  3  7  1  0  0  0  0
  4 15  1  0  0  0  0
  5 11  1  6  0  0  0
  5 19  1  0  0  0  0
  6  3  1  0  0  0  0
  6  7  1  1  0  0  0
  8 16  1  0  0  0  0
  9 27  1  6  0  0  0
  9 13  1  0  0  0  0
 10 22  1  0  0  0  0
 12  8  1  0  0  0  0
 13 24  1  1  0  0  0
 13 20  1  0  0  0  0
 14  2  1  0  0  0  0
 14 25  1  0  0  0  0
 15  5  1  0  0  0  0
 15 12  1  1  0  0  0
 17 10  2  0  0  0  0
 18 20  1  0  0  0  0
 18  4  2  0  0  0  0
 19  6  1  0  0  0  0
 19  3  1  0  0  0  0
 20 11  1  0  0  0  0
 21 23  2  0  0  0  0
 22 24  2  0  0  0  0
 23  4  1  0  0  0  0
 25 17  1  0  0  0  0
 25  9  1  0  0  0  0
 26  1  2  0  0  0  0
 26 21  1  0  0  0  0
 27  1  1  0  0  0  0
 28 17  1  0  0  0  0
 29 32  1  0  0  0  0
 29 28  1  0  0  0  0
 30 34  1  0  0  0  0
 30 33  1  0  0  0  0
 32 31  1  0  0  0  0
 33 31  1  0  0  0  0
 34 32  1  0  0  0  0
M  END
>  <MODEL>
5

>  <REMARK>
 VINA RESULT:      -7.5      2.474      8.763
  Name = 
  3 active torsions:
  status: ('A' for Active; 'I' for Inactive)
    1  A    between atoms: C_17  and  O_28
    2  A    between atoms: O_28  and  C_29
    3  A    between atoms: C_29  and  C_32
                            x       y       z     vdW  Elec       q    Type
                         _______ _______ _______ _____ _____    ______ ____

>  <TORSDO>
F 3

$$$$
=
 OpenBabel11122414153D

 34 42  0  0  1  0  0  0  0  0999 V2000
  160.8440  205.0600  151.8560 C   0  0  0  0  0  0  0  0  0  0  0  0
  161.0100  206.6130  153.8800 C   0  0  0  0  0  2  0  0  0  0  0  0
  161.3480  203.9160  145.2740 C   0  0  2  0  0  0  0  0  0  0  0  0
  160.9350  203.7150  149.8460 C   0  0  0  0  0  0  0  0  0  0  0  0
  161.8830  204.6680  147.7260 C   0  0  1  0  0  3  0  0  0  0  0  0
  161.4890  205.8330  145.2830 C   0  0  2  0  0  3  0  0  0  0  0  0
  161.2410  204.9360  144.2750 O   0  0  0  0  0  0  0  0  0  0  0  0
  160.4520  201.9540  146.5110 C   0  0  0  0  0  2  0  0  0  0  0  0
  160.5400  207.5470  151.6990 C   0  0  2  0  0  3  0  0  0  0  0  0
  162.3940  210.0680  151.1770 C   0  0  0  0  0  3  0  0  0  0  0  0
  161.9210  206.0460  148.4170 C   0  0  0  0  0  2  0  0  0  0  0  0
  161.1930  202.2270  147.8210 C   0  0  0  0  0  2  0  0  0  0  0  0
  161.3170  207.4830  150.3820 C   0  0  1  0  0  3  0  0  0  0  0  0
  160.8510  208.1170  154.0430 C   0  0  0  0  0  2  0  0  0  0  0  0
  160.9090  203.6430  148.3420 C   0  0  1  0  0  3  0  0  0  0  0  0
  161.2310  202.4290  145.2840 C   0  0  0  0  0  2  0  0  0  0  0  0
  162.1560  209.4750  152.3620 C   0  0  0  0  0  0  0  0  0  0  0  0
  160.9250  204.9770  150.4550 C   0  0  0  0  0  0  0  0  0  0  0  0
  161.6210  204.8130  146.2670 C   0  0  2  0  0  3  0  0  0  0  0  0
  160.9410  206.2210  149.5870 C   0  0  2  0  0  3  0  0  0  0  0  0
  160.8520  202.6510  151.9730 C   0  0  0  0  0  3  0  0  0  0  0  0
  161.5830  209.8980  149.9560 C   0  0  0  0  0  3  0  0  0  0  0  0
  160.8930  202.5900  150.6140 N   0  0  0  0  0  0  0  0  0  0  0  0
  161.0670  208.7250  149.5870 C   0  0  0  0  0  3  0  0  0  0  0  0
  160.8650  208.7200  152.6340 C   0  0  1  0  0  3  0  0  0  0  0  0
  160.8250  203.8880  152.6190 C   0  0  0  0  0  3  0  0  0  0  0  0
  160.7700  206.3490  152.4760 N   0  0  0  0  0  0  0  0  0  0  0  0
  163.0720  209.6310  153.4130 O   0  0  0  0  0  0  0  0  0  0  0  0
  163.0110  210.6990  154.3530 C   0  0  0  0  0  2  0  0  0  0  0  0
  162.1800  211.8200  157.2610 O   0  0  0  0  0  0  0  0  0  0  0  0
  160.9160  211.4500  155.4150 C   0  0  0  0  0  2  0  0  0  0  0  0
  161.9720  210.3910  155.4160 C   0  0  2  0  0  3  0  0  0  0  0  0
  160.9340  212.0280  156.7480 N   0  0  0  0  0  2  0  0  0  0  0  0
  162.5820  210.5670  156.7770 C   0  0  0  0  0  2  0  0  0  0  0  0
  1 27  1  0  0  0  0
  1 26  1  0  0  0  0
  2 14  1  0  0  0  0
  3  6  1  0  0  0  0
  3 16  1  1  0  0  0
  3 19  1  0  0  0  0
  4 18  1  0  0  0  0
  4 23  2  0  0  0  0
  5 15  1  0  0  0  0
  5 11  1  1  0  0  0
  6  7  1  6  0  0  0
  6 19  1  0  0  0  0
  7  3  1  0  0  0  0
  8 12  1  0  0  0  0
  9 27  1  1  0  0  0
  9 25  1  0  0  0  0
 10 17  2  0  0  0  0
 11 20  1  0  0  0  0
 13 24  1  6  0  0  0
 13  9  1  0  0  0  0
 15 12  1  1  0  0  0
 15  4  1  0  0  0  0
 16  8  1  0  0  0  0
 17 25  1  0  0  0  0
 17 28  1  0  0  0  0
 18  1  2  0  0  0  0
 19  5  1  0  0  0  0
 20 13  1  0  0  0  0
 20 18  1  0  0  0  0
 21 26  2  0  0  0  0
 22 10  1  0  0  0  0
 23 21  1  0  0  0  0
 24 22  2  0  0  0  0
 25 14  1  0  0  0  0
 27  2  1  0  0  0  0
 28 29  1  0  0  0  0
 29 32  1  0  0  0  0
 31 32  1  0  0  0  0
 31 33  1  0  0  0  0
 32 34  1  0  0  0  0
 33 30  1  0  0  0  0
 34 30  1  0  0  0  0
M  END
>  <MODEL>
6

>  <REMARK>
 VINA RESULT:      -6.8      2.560      4.544
  Name = 
  3 active torsions:
  status: ('A' for Active; 'I' for Inactive)
    1  A    between atoms: C_17  and  O_28
    2  A    between atoms: O_28  and  C_29
    3  A    between atoms: C_29  and  C_32
                            x       y       z     vdW  Elec       q    Type
                         _______ _______ _______ _____ _____    ______ ____

>  <TORSDO>
F 3

$$$$
