=
 OpenBabel11122414243D

 34 41  0  0  1  0  0  0  0  0999 V2000
  161.2150  208.7640  150.4300 C   0  0  2  0  0  3  0  0  0  0  0  0
  161.5280  210.7620  151.9880 C   0  0  0  0  0  2  0  0  0  0  0  0
  160.9030  202.0390  149.1080 C   0  0  0  0  0  0  0  0  0  0  0  0
  161.6700  206.6060  149.1740 C   0  0  0  0  0  0  0  0  0  0  0  0
  161.2830  204.4320  150.1940 C   0  0  0  0  0  0  0  0  0  0  0  0
  160.8140  201.9820  151.1380 C   0  0  0  0  0  2  0  0  0  0  0  0
  160.6700  200.9750  150.1290 C   0  0  0  0  0  2  0  0  0  0  0  0
  161.2340  203.3930  147.1240 C   0  0  0  0  0  3  0  0  0  0  0  0
  161.2870  208.6150  152.9250 C   0  0  0  0  0  0  0  0  0  0  0  0
  160.6090  208.1130  155.9550 C   0  0  0  0  0  2  0  0  0  0  0  0
  161.4420  205.0690  151.5580 C   0  0  0  0  0  3  0  0  0  0  0  0
  161.4280  204.6130  147.6540 C   0  0  0  0  0  3  0  0  0  0  0  0
  161.1130  207.2710  152.8980 C   0  0  0  0  0  0  0  0  0  0  0  0
  161.1040  210.9150  153.4490 C   0  0  0  0  0  2  0  0  0  0  0  0
  161.4600  205.1460  149.0520 C   0  0  0  0  0  0  0  0  0  0  0  0
  160.9730  202.1160  147.7990 C   0  0  0  0  0  3  0  0  0  0  0  0
  160.1030  209.2140  155.0510 C   0  0  2  0  0  3  0  0  0  0  0  0
  161.4090  207.2740  150.4550 C   0  0  0  0  0  0  0  0  0  0  0  0
  161.0370  203.0320  150.1700 N   0  0  0  0  0  0  0  0  0  0  0  0
  161.2720  206.5690  151.5900 C   0  0  0  0  0  0  0  0  0  0  0  0
  162.3610  208.7250  148.2930 C   0  0  0  0  0  3  0  0  0  0  0  0
  160.4810  206.7620  155.3330 C   0  0  0  0  0  3  0  0  0  0  0  0
  162.1030  207.3150  148.1710 N   0  0  0  0  0  2  0  0  0  0  0  0
  160.7210  206.4290  154.0600 C   0  0  0  0  0  3  0  0  0  0  0  0
  161.2430  209.5320  154.0950 C   0  0  1  0  0  3  0  0  0  0  0  0
  162.0000  209.3830  149.3570 N   0  0  0  0  0  0  0  0  0  0  0  0
  161.5470  209.3360  151.7300 N   0  0  0  0  0  0  0  0  0  0  0  0
  159.8000  210.3280  155.8400 O   0  0  0  0  0  0  0  0  0  0  0  0
  158.4170  210.4820  155.7240 C   0  0  0  0  0  2  0  0  0  0  0  0
  156.2170  212.5510  154.3100 N   0  0  0  0  0  0  0  0  0  0  0  0
  156.9640  212.3580  156.4940 C   0  0  0  0  0  2  0  0  0  0  0  0
  158.0760  211.9470  155.5300 C   0  0  2  0  0  3  0  0  0  0  0  0
  155.8930  212.6970  155.6320 O   0  0  0  0  0  0  0  0  0  0  0  0
  157.4290  212.1340  154.1980 C   0  0  0  0  0  3  0  0  0  0  0  0
  1 26  1  6  0  0  0
  1 18  1  0  0  0  0
  1 27  1  0  0  0  0
  2 14  1  0  0  0  0
  3  7  1  0  0  0  0
  3 19  1  0  0  0  0
  4 18  1  0  0  0  0
  5 11  2  0  0  0  0
  7  6  1  0  0  0  0
  8 12  2  0  0  0  0
  8 16  1  0  0  0  0
  9 25  1  0  0  0  0
 11 20  1  0  0  0  0
 12 15  1  0  0  0  0
 13  9  2  0  0  0  0
 13 24  1  0  0  0  0
 15  4  2  0  0  0  0
 15  5  1  0  0  0  0
 16  3  2  0  0  0  0
 17 28  1  1  0  0  0
 17 10  1  0  0  0  0
 18 20  2  0  0  0  0
 19  5  1  0  0  0  0
 19  6  1  0  0  0  0
 20 13  1  0  0  0  0
 21 26  2  0  0  0  0
 22 10  1  0  0  0  0
 23 21  1  0  0  0  0
 23  4  1  0  0  0  0
 24 22  2  0  0  0  0
 25 14  1  6  0  0  0
 25 17  1  0  0  0  0
 27  2  1  0  0  0  0
 27  9  1  0  0  0  0
 29 28  1  0  0  0  0
 30 33  1  0  0  0  0
 32 29  1  1  0  0  0
 32 31  1  0  0  0  0
 33 31  1  0  0  0  0
 34 30  2  0  0  0  0
 34 32  1  0  0  0  0
M  END
>  <MODEL>
1

>  <REMARK>
 VINA RESULT:     -10.1      0.000      0.000
  Name = 
  3 active torsions:
  status: ('A' for Active; 'I' for Inactive)
    1  A    between atoms: C_17  and  O_28
    2  A    between atoms: O_28  and  C_29
    3  A    between atoms: C_29  and  C_32
                            x       y       z     vdW  Elec       q    Type
                         _______ _______ _______ _____ _____    ______ ____

>  <TORSDO>
F 3

$$$$
=
 OpenBabel11122414243D

 34 41  0  0  1  0  0  0  0  0999 V2000
  161.4560  204.9340  152.0910 C   0  0  2  0  0  3  0  0  0  0  0  0
  161.1760  206.3100  154.2240 C   0  0  0  0  0  2  0  0  0  0  0  0
  161.2740  204.1170  145.2820 C   0  0  0  0  0  0  0  0  0  0  0  0
  160.9290  203.7870  149.8880 C   0  0  0  0  0  0  0  0  0  0  0  0
  161.0110  204.9900  147.7750 C   0  0  0  0  0  0  0  0  0  0  0  0
  161.1550  206.1440  145.3750 C   0  0  0  0  0  2  0  0  0  0  0  0
  161.3040  205.2270  144.2850 C   0  0  0  0  0  2  0  0  0  0  0  0
  161.2680  202.0210  146.5010 C   0  0  0  0  0  3  0  0  0  0  0  0
  161.1240  207.4120  152.1430 C   0  0  0  0  0  0  0  0  0  0  0  0
  161.4490  210.5240  151.8220 C   0  0  0  0  0  2  0  0  0  0  0  0
  160.7770  206.2820  148.5280 C   0  0  0  0  0  3  0  0  0  0  0  0
  161.1350  202.4420  147.7700 C   0  0  0  0  0  3  0  0  0  0  0  0
  161.1740  207.4960  150.7910 C   0  0  0  0  0  0  0  0  0  0  0  0
  161.4660  207.7930  154.4530 C   0  0  0  0  0  2  0  0  0  0  0  0
  161.0150  203.7890  148.4110 C   0  0  0  0  0  0  0  0  0  0  0  0
  161.3400  202.8060  145.2620 C   0  0  0  0  0  3  0  0  0  0  0  0
  162.1410  209.6050  152.8030 C   0  0  2  0  0  3  0  0  0  0  0  0
  161.1230  205.0410  150.6290 C   0  0  0  0  0  0  0  0  0  0  0  0
  161.1270  205.0880  146.3620 N   0  0  0  0  0  0  0  0  0  0  0  0
  161.0810  206.2290  150.0050 C   0  0  0  0  0  0  0  0  0  0  0  0
  160.5280  202.6960  151.9840 C   0  0  0  0  0  3  0  0  0  0  0  0
  161.5120  210.0130  150.4210 C   0  0  0  0  0  3  0  0  0  0  0  0
  160.6650  202.6980  150.5520 N   0  0  0  0  0  2  0  0  0  0  0  0
  161.3690  208.7480  150.0120 C   0  0  0  0  0  3  0  0  0  0  0  0
  161.1360  208.5150  153.1420 C   0  0  1  0  0  3  0  0  0  0  0  0
  160.8420  203.7440  152.6890 N   0  0  0  0  0  0  0  0  0  0  0  0
  161.0510  206.1490  152.7890 N   0  0  0  0  0  0  0  0  0  0  0  0
  162.4670  210.3440  153.9440 O   0  0  0  0  0  0  0  0  0  0  0  0
  161.3160  211.0790  154.2340 C   0  0  0  0  0  2  0  0  0  0  0  0
  160.5000  209.6730  157.1460 N   0  0  0  0  0  0  0  0  0  0  0  0
  162.4380  210.7230  156.4340 C   0  0  0  0  0  2  0  0  0  0  0  0
  161.2290  211.3350  155.7270 C   0  0  2  0  0  3  0  0  0  0  0  0
  161.8620  209.7280  157.2600 O   0  0  0  0  0  0  0  0  0  0  0  0
  160.0940  210.5530  156.3000 C   0  0  0  0  0  3  0  0  0  0  0  0
  1 18  1  6  0  0  0
  1 26  1  0  0  0  0
  1 27  1  0  0  0  0
  2 14  1  0  0  0  0
  3 19  1  0  0  0  0
  4 23  1  0  0  0  0
  4 18  1  0  0  0  0
  5 15  1  0  0  0  0
  5 11  2  0  0  0  0
  6 19  1  0  0  0  0
  7  3  1  0  0  0  0
  7  6  1  0  0  0  0
  8 12  2  0  0  0  0
  9 27  1  0  0  0  0
  9 25  1  0  0  0  0
 10 17  1  0  0  0  0
 11 20  1  0  0  0  0
 12 15  1  0  0  0  0
 13  9  2  0  0  0  0
 15  4  2  0  0  0  0
 16  3  2  0  0  0  0
 16  8  1  0  0  0  0
 17 25  1  0  0  0  0
 17 28  1  1  0  0  0
 19  5  1  0  0  0  0
 20 18  2  0  0  0  0
 20 13  1  0  0  0  0
 21 26  2  0  0  0  0
 22 10  1  0  0  0  0
 23 21  1  0  0  0  0
 24 22  2  0  0  0  0
 24 13  1  0  0  0  0
 25 14  1  1  0  0  0
 27  2  1  0  0  0  0
 28 29  1  0  0  0  0
 30 33  1  0  0  0  0
 31 33  1  0  0  0  0
 32 29  1  6  0  0  0
 32 34  1  0  0  0  0
 32 31  1  0  0  0  0
 34 30  2  0  0  0  0
M  END
>  <MODEL>
2

>  <REMARK>
 VINA RESULT:      -9.8      2.440      4.349
  Name = 
  3 active torsions:
  status: ('A' for Active; 'I' for Inactive)
    1  A    between atoms: C_17  and  O_28
    2  A    between atoms: O_28  and  C_29
    3  A    between atoms: C_29  and  C_32
                            x       y       z     vdW  Elec       q    Type
                         _______ _______ _______ _____ _____    ______ ____

>  <TORSDO>
F 3

$$$$
=
 OpenBabel11122414243D

 34 41  0  0  1  0  0  0  0  0999 V2000
  162.2440  208.4180  149.6700 C   0  0  2  0  0  3  0  0  0  0  0  0
  162.0530  207.2730  147.3960 C   0  0  0  0  0  2  0  0  0  0  0  0
  160.9440  208.9100  156.3890 C   0  0  0  0  0  0  0  0  0  0  0  0
  161.5990  209.5500  151.8490 C   0  0  0  0  0  0  0  0  0  0  0  0
  160.9650  208.2640  153.8140 C   0  0  0  0  0  0  0  0  0  0  0  0
  160.3450  206.9920  156.0760 C   0  0  0  0  0  2  0  0  0  0  0  0
  160.5020  207.7820  157.2610 C   0  0  0  0  0  2  0  0  0  0  0  0
  161.6970  210.9920  155.4020 C   0  0  0  0  0  3  0  0  0  0  0  0
  161.3220  206.1200  149.3160 C   0  0  0  0  0  0  0  0  0  0  0  0
  160.7950  203.0210  149.3780 C   0  0  0  0  0  2  0  0  0  0  0  0
  160.5680  207.1180  152.9080 C   0  0  0  0  0  3  0  0  0  0  0  0
  161.7150  210.6850  154.0940 C   0  0  0  0  0  3  0  0  0  0  0  0
  161.0860  205.9580  150.6400 C   0  0  0  0  0  0  0  0  0  0  0  0
  162.0040  205.7800  147.0750 C   0  0  0  0  0  2  0  0  0  0  0  0
  161.3910  209.4510  153.3110 C   0  0  0  0  0  0  0  0  0  0  0  0
  161.3290  210.1550  156.5500 C   0  0  0  0  0  3  0  0  0  0  0  0
  161.8720  203.7730  148.6310 C   0  0  2  0  0  3  0  0  0  0  0  0
  161.6160  208.3290  151.0340 C   0  0  0  0  0  0  0  0  0  0  0  0
  160.7740  208.0670  155.2090 N   0  0  0  0  0  0  0  0  0  0  0  0
  161.1590  207.1640  151.5190 C   0  0  0  0  0  0  0  0  0  0  0  0
  161.8990  210.8130  149.8350 C   0  0  0  0  0  3  0  0  0  0  0  0
  160.7080  203.4260  150.8120 C   0  0  0  0  0  3  0  0  0  0  0  0
  161.7490  210.7020  151.2610 N   0  0  0  0  0  2  0  0  0  0  0  0
  160.8070  204.6610  151.3130 C   0  0  0  0  0  3  0  0  0  0  0  0
  161.2560  205.1050  148.2300 C   0  0  1  0  0  3  0  0  0  0  0  0
  162.0740  209.7560  149.0950 N   0  0  0  0  0  0  0  0  0  0  0  0
  161.6940  207.3890  148.7960 N   0  0  0  0  0  0  0  0  0  0  0  0
  162.2200  203.0340  147.4960 O   0  0  0  0  0  0  0  0  0  0  0  0
  161.0340  202.4160  147.0950 C   0  0  0  0  0  2  0  0  0  0  0  0
  159.1260  201.5730  144.4930 N   0  0  0  0  0  0  0  0  0  0  0  0
  160.4810  203.4120  144.8740 C   0  0  0  0  0  2  0  0  0  0  0  0
  161.0520  202.1900  145.5950 C   0  0  2  0  0  3  0  0  0  0  0  0
  159.3160  202.9060  144.2500 O   0  0  0  0  0  0  0  0  0  0  0  0
  160.0710  201.1230  145.2410 C   0  0  0  0  0  3  0  0  0  0  0  0
  1 26  1  6  0  0  0
  1 18  1  0  0  0  0
  2 27  1  0  0  0  0
  3 16  2  0  0  0  0
  3  7  1  0  0  0  0
  4 15  1  0  0  0  0
  5 19  1  0  0  0  0
  6  7  1  0  0  0  0
  8 16  1  0  0  0  0
  9 13  2  0  0  0  0
 10 22  1  0  0  0  0
 11  5  1  0  0  0  0
 12  8  2  0  0  0  0
 13 24  1  0  0  0  0
 13 20  1  0  0  0  0
 14  2  1  0  0  0  0
 15  5  2  0  0  0  0
 15 12  1  0  0  0  0
 17 28  1  6  0  0  0
 17 10  1  0  0  0  0
 18 20  1  0  0  0  0
 18  4  2  0  0  0  0
 19  6  1  0  0  0  0
 19  3  1  0  0  0  0
 20 11  2  0  0  0  0
 21 23  1  0  0  0  0
 22 24  2  0  0  0  0
 23  4  1  0  0  0  0
 25 14  1  6  0  0  0
 25 17  1  0  0  0  0
 25  9  1  0  0  0  0
 26 21  2  0  0  0  0
 27  9  1  0  0  0  0
 27  1  1  0  0  0  0
 29 28  1  0  0  0  0
 30 34  2  0  0  0  0
 31 32  1  0  0  0  0
 32 29  1  1  0  0  0
 33 30  1  0  0  0  0
 33 31  1  0  0  0  0
 34 32  1  0  0  0  0
M  END
>  <MODEL>
3

>  <REMARK>
 VINA RESULT:      -9.6      3.795      8.607
  Name = 
  3 active torsions:
  status: ('A' for Active; 'I' for Inactive)
    1  A    between atoms: C_17  and  O_28
    2  A    between atoms: O_28  and  C_29
    3  A    between atoms: C_29  and  C_32
                            x       y       z     vdW  Elec       q    Type
                         _______ _______ _______ _____ _____    ______ ____

>  <TORSDO>
F 3

$$$$
=
 OpenBabel11122414243D

 34 41  0  0  1  0  0  0  0  0999 V2000
  160.4570  206.9680  153.9000 C   0  0  2  0  0  3  0  0  0  0  0  0
  161.5500  204.8100  153.0830 C   0  0  0  0  0  2  0  0  0  0  0  0
  158.9990  213.6520  153.3830 C   0  0  0  0  0  0  0  0  0  0  0  0
  160.1700  209.3650  154.6850 C   0  0  0  0  0  0  0  0  0  0  0  0
  160.0060  211.2110  153.1100 C   0  0  0  0  0  0  0  0  0  0  0  0
  159.7110  213.3230  151.5070 C   0  0  0  0  0  2  0  0  0  0  0  0
  159.0850  214.4530  152.1260 C   0  0  0  0  0  2  0  0  0  0  0  0
  158.6540  212.7640  155.6120 C   0  0  0  0  0  3  0  0  0  0  0  0
  161.4890  206.6720  151.6410 C   0  0  0  0  0  0  0  0  0  0  0  0
  162.0120  206.4840  148.5460 C   0  0  0  0  0  2  0  0  0  0  0  0
  160.7500  210.3760  152.0890 C   0  0  0  0  0  3  0  0  0  0  0  0
  159.1580  211.5240  155.4950 C   0  0  0  0  0  3  0  0  0  0  0  0
  161.1890  207.9450  151.2840 C   0  0  0  0  0  0  0  0  0  0  0  0
  161.7510  204.3200  151.6490 C   0  0  0  0  0  2  0  0  0  0  0  0
  159.7880  210.7600  154.3730 C   0  0  0  0  0  0  0  0  0  0  0  0
  158.5570  213.8290  154.6070 C   0  0  0  0  0  3  0  0  0  0  0  0
  161.3010  205.4930  149.4380 C   0  0  2  0  0  3  0  0  0  0  0  0
  160.5000  208.4400  153.5940 C   0  0  0  0  0  0  0  0  0  0  0  0
  159.6360  212.5240  152.7100 N   0  0  0  0  0  0  0  0  0  0  0  0
  160.7520  208.8900  152.3550 C   0  0  0  0  0  0  0  0  0  0  0  0
  160.6610  207.6020  156.2320 C   0  0  0  0  0  3  0  0  0  0  0  0
  161.5190  207.8800  148.7400 C   0  0  0  0  0  3  0  0  0  0  0  0
  160.2410  208.9400  155.9140 N   0  0  0  0  0  2  0  0  0  0  0  0
  161.2060  208.4760  149.8950 C   0  0  0  0  0  3  0  0  0  0  0  0
  161.9980  205.5650  150.7880 C   0  0  1  0  0  3  0  0  0  0  0  0
  160.8130  206.7070  155.2980 N   0  0  0  0  0  0  0  0  0  0  0  0
  161.3270  206.2390  152.9850 N   0  0  0  0  0  0  0  0  0  0  0  0
  161.4420  204.2180  148.8810 O   0  0  0  0  0  0  0  0  0  0  0  0
  161.2090  204.3970  147.5160 C   0  0  0  0  0  2  0  0  0  0  0  0
  160.4790  201.3280  146.4360 N   0  0  0  0  0  0  0  0  0  0  0  0
  161.2060  203.2200  145.3160 C   0  0  0  0  0  2  0  0  0  0  0  0
  161.7620  203.2170  146.7400 C   0  0  2  0  0  3  0  0  0  0  0  0
  160.4450  202.0280  145.2610 O   0  0  0  0  0  0  0  0  0  0  0  0
  161.2040  201.9500  147.2970 C   0  0  0  0  0  3  0  0  0  0  0  0
  1 18  1  6  0  0  0
  1 26  1  0  0  0  0
  3 16  2  0  0  0  0
  4 23  1  0  0  0  0
  5 15  2  0  0  0  0
  6  7  1  0  0  0  0
  6 19  1  0  0  0  0
  7  3  1  0  0  0  0
  9 27  1  0  0  0  0
 10 22  1  0  0  0  0
 10 17  1  0  0  0  0
 11 20  2  0  0  0  0
 11  5  1  0  0  0  0
 12  8  2  0  0  0  0
 13  9  2  0  0  0  0
 13 20  1  0  0  0  0
 14  2  1  0  0  0  0
 15  4  1  0  0  0  0
 15 12  1  0  0  0  0
 16  8  1  0  0  0  0
 17 28  1  6  0  0  0
 17 25  1  0  0  0  0
 18  4  2  0  0  0  0
 19  5  1  0  0  0  0
 19  3  1  0  0  0  0
 20 18  1  0  0  0  0
 22 24  2  0  0  0  0
 23 21  1  0  0  0  0
 24 13  1  0  0  0  0
 25  9  1  0  0  0  0
 25 14  1  1  0  0  0
 26 21  2  0  0  0  0
 27  2  1  0  0  0  0
 27  1  1  0  0  0  0
 29 28  1  0  0  0  0
 30 34  2  0  0  0  0
 31 32  1  0  0  0  0
 32 34  1  0  0  0  0
 32 29  1  1  0  0  0
 33 31  1  0  0  0  0
 33 30  1  0  0  0  0
M  END
>  <MODEL>
4

>  <REMARK>
 VINA RESULT:      -8.4      3.457      9.323
  Name = 
  3 active torsions:
  status: ('A' for Active; 'I' for Inactive)
    1  A    between atoms: C_17  and  O_28
    2  A    between atoms: O_28  and  C_29
    3  A    between atoms: C_29  and  C_32
                            x       y       z     vdW  Elec       q    Type
                         _______ _______ _______ _____ _____    ______ ____

>  <TORSDO>
F 3

$$$$
=
 OpenBabel11122414243D

 34 41  0  0  1  0  0  0  0  0999 V2000
  160.4520  207.4470  153.9650 C   0  0  2  0  0  3  0  0  0  0  0  0
  161.4170  205.1080  153.6190 C   0  0  0  0  0  2  0  0  0  0  0  0
  159.3430  213.9420  152.0530 C   0  0  0  0  0  0  0  0  0  0  0  0
  160.3050  209.9680  154.2280 C   0  0  0  0  0  0  0  0  0  0  0  0
  160.2150  211.4460  152.2980 C   0  0  0  0  0  0  0  0  0  0  0  0
  160.0070  213.1860  150.2860 C   0  0  0  0  0  2  0  0  0  0  0  0
  159.4530  214.4530  150.6550 C   0  0  0  0  0  2  0  0  0  0  0  0
  158.9850  213.5640  154.4210 C   0  0  0  0  0  3  0  0  0  0  0  0
  161.4330  206.6250  151.8160 C   0  0  0  0  0  0  0  0  0  0  0  0
  161.8970  205.7600  148.8290 C   0  0  0  0  0  2  0  0  0  0  0  0
  160.8980  210.3750  151.4740 C   0  0  0  0  0  3  0  0  0  0  0  0
  159.4210  212.3010  154.5660 C   0  0  0  0  0  3  0  0  0  0  0  0
  161.1950  207.8080  151.1990 C   0  0  0  0  0  0  0  0  0  0  0  0
  161.5690  204.3170  152.3200 C   0  0  0  0  0  2  0  0  0  0  0  0
  159.9930  211.2840  153.6280 C   0  0  0  0  0  0  0  0  0  0  0  0
  158.9300  214.3960  153.2130 C   0  0  0  0  0  3  0  0  0  0  0  0
  161.1480  205.0200  149.9130 C   0  0  2  0  0  3  0  0  0  0  0  0
  160.5680  208.8160  153.3550 C   0  0  0  0  0  0  0  0  0  0  0  0
  159.9090  212.6640  151.6310 N   0  0  0  0  0  0  0  0  0  0  0  0
  160.8250  208.9800  152.0480 C   0  0  0  0  0  0  0  0  0  0  0  0
  160.7260  208.5460  156.1100 C   0  0  0  0  0  3  0  0  0  0  0  0
  161.4820  207.1900  148.7250 C   0  0  0  0  0  3  0  0  0  0  0  0
  160.3720  209.8080  155.5180 N   0  0  0  0  0  2  0  0  0  0  0  0
  161.2190  208.0330  149.7290 C   0  0  0  0  0  3  0  0  0  0  0  0
  161.8690  205.3360  151.2150 C   0  0  1  0  0  3  0  0  0  0  0  0
  160.8150  207.4670  155.3860 N   0  0  0  0  0  0  0  0  0  0  0  0
  161.2690  206.4940  153.2220 N   0  0  0  0  0  0  0  0  0  0  0  0
  161.2130  203.6500  149.6380 O   0  0  0  0  0  0  0  0  0  0  0  0
  160.9370  203.5470  148.2730 C   0  0  0  0  0  2  0  0  0  0  0  0
  161.4370  200.5910  146.8140 N   0  0  0  0  0  0  0  0  0  0  0  0
  160.7860  201.1540  148.9640 C   0  0  0  0  0  2  0  0  0  0  0  0
  160.2840  202.2090  147.9790 C   0  0  2  0  0  3  0  0  0  0  0  0
  161.4700  200.2340  148.1340 O   0  0  0  0  0  0  0  0  0  0  0  0
  160.7840  201.6900  146.6720 C   0  0  0  0  0  3  0  0  0  0  0  0
  1 18  1  6  0  0  0
  1 26  1  0  0  0  0
  3 16  2  0  0  0  0
  4 23  1  0  0  0  0
  5 15  2  0  0  0  0
  6  7  1  0  0  0  0
  6 19  1  0  0  0  0
  7  3  1  0  0  0  0
  8 12  2  0  0  0  0
  9 27  1  0  0  0  0
 10 17  1  0  0  0  0
 11 20  2  0  0  0  0
 11  5  1  0  0  0  0
 13  9  2  0  0  0  0
 13 20  1  0  0  0  0
 14  2  1  0  0  0  0
 15  4  1  0  0  0  0
 15 12  1  0  0  0  0
 16  8  1  0  0  0  0
 17 28  1  6  0  0  0
 17 25  1  0  0  0  0
 18  4  2  0  0  0  0
 19  3  1  0  0  0  0
 19  5  1  0  0  0  0
 20 18  1  0  0  0  0
 22 10  1  0  0  0  0
 22 24  2  0  0  0  0
 23 21  1  0  0  0  0
 24 13  1  0  0  0  0
 25  9  1  0  0  0  0
 25 14  1  1  0  0  0
 26 21  2  0  0  0  0
 27  2  1  0  0  0  0
 27  1  1  0  0  0  0
 29 28  1  0  0  0  0
 30 33  1  0  0  0  0
 32 29  1  1  0  0  0
 32 31  1  0  0  0  0
 33 31  1  0  0  0  0
 34 30  2  0  0  0  0
 34 32  1  0  0  0  0
M  END
>  <MODEL>
5

>  <REMARK>
 VINA RESULT:      -8.4      3.441      9.218
  Name = 
  3 active torsions:
  status: ('A' for Active; 'I' for Inactive)
    1  A    between atoms: C_17  and  O_28
    2  A    between atoms: O_28  and  C_29
    3  A    between atoms: C_29  and  C_32
                            x       y       z     vdW  Elec       q    Type
                         _______ _______ _______ _____ _____    ______ ____

>  <TORSDO>
F 3

$$$$
=
 OpenBabel11122414243D

 34 41  0  0  1  0  0  0  0  0999 V2000
  161.2390  208.1090  149.6380 C   0  0  2  0  0  3  0  0  0  0  0  0
  161.5600  210.1870  151.0880 C   0  0  0  0  0  2  0  0  0  0  0  0
  160.9670  201.3240  148.6640 C   0  0  0  0  0  0  0  0  0  0  0  0
  161.6940  205.8940  148.4850 C   0  0  0  0  0  0  0  0  0  0  0  0
  161.3430  203.7710  149.6200 C   0  0  0  0  0  0  0  0  0  0  0  0
  160.9120  201.3680  150.6950 C   0  0  0  0  0  2  0  0  0  0  0  0
  160.7610  200.3110  149.7410 C   0  0  0  0  0  2  0  0  0  0  0  0
  161.2530  202.5780  146.6090 C   0  0  0  0  0  3  0  0  0  0  0  0
  161.3540  208.0870  152.1370 C   0  0  0  0  0  0  0  0  0  0  0  0
  160.7300  207.7340  155.1980 C   0  0  0  0  0  2  0  0  0  0  0  0
  161.5190  204.4780  150.9480 C   0  0  0  0  0  3  0  0  0  0  0  0
  161.4450  203.8250  147.0720 C   0  0  0  0  0  3  0  0  0  0  0  0
  161.1910  206.7420  152.1800 C   0  0  0  0  0  0  0  0  0  0  0  0
  161.1580  210.4100  152.5460 C   0  0  0  0  0  2  0  0  0  0  0  0
  161.4950  204.4280  148.4410 C   0  0  0  0  0  0  0  0  0  0  0  0
  161.0160  201.3340  147.3520 C   0  0  0  0  0  3  0  0  0  0  0  0
  160.1990  208.7840  154.2490 C   0  0  2  0  0  3  0  0  0  0  0  0
  161.4470  206.6240  149.7360 C   0  0  0  0  0  0  0  0  0  0  0  0
  161.1100  202.3700  149.6720 N   0  0  0  0  0  0  0  0  0  0  0  0
  161.3350  205.9760  150.9060 C   0  0  0  0  0  0  0  0  0  0  0  0
  162.3510  207.9710  147.4870 C   0  0  0  0  0  3  0  0  0  0  0  0
  160.6040  206.3530  154.6480 C   0  0  0  0  0  3  0  0  0  0  0  0
  162.1040  206.5550  147.4410 N   0  0  0  0  0  2  0  0  0  0  0  0
  160.8260  205.9580  153.3900 C   0  0  0  0  0  3  0  0  0  0  0  0
  161.3200  209.0630  153.2590 C   0  0  1  0  0  3  0  0  0  0  0  0
  162.0010  208.6800  148.5230 N   0  0  0  0  0  0  0  0  0  0  0  0
  161.5880  208.7490  150.9010 N   0  0  0  0  0  0  0  0  0  0  0  0
  159.8990  209.9330  154.9860 O   0  0  0  0  0  0  0  0  0  0  0  0
  161.0520  210.1930  155.7290 C   0  0  0  0  0  2  0  0  0  0  0  0
  159.4790  213.1320  155.7980 N   0  0  0  0  0  0  0  0  0  0  0  0
  160.9970  212.1660  157.2560 C   0  0  0  0  0  2  0  0  0  0  0  0
  161.2740  211.6900  155.8300 C   0  0  2  0  0  3  0  0  0  0  0  0
  159.8850  213.0290  157.1000 O   0  0  0  0  0  0  0  0  0  0  0  0
  160.2240  212.4030  155.0450 C   0  0  0  0  0  3  0  0  0  0  0  0
  1 26  1  6  0  0  0
  1 18  1  0  0  0  0
  1 27  1  0  0  0  0
  2 14  1  0  0  0  0
  3 19  1  0  0  0  0
  3  7  1  0  0  0  0
  4 18  1  0  0  0  0
  5 19  1  0  0  0  0
  5 11  2  0  0  0  0
  7  6  1  0  0  0  0
  8 12  2  0  0  0  0
  8 16  1  0  0  0  0
  9 13  2  0  0  0  0
  9 25  1  0  0  0  0
 12 15  1  0  0  0  0
 13 24  1  0  0  0  0
 15  4  2  0  0  0  0
 15  5  1  0  0  0  0
 16  3  2  0  0  0  0
 17 28  1  1  0  0  0
 17 10  1  0  0  0  0
 18 20  2  0  0  0  0
 19  6  1  0  0  0  0
 20 11  1  0  0  0  0
 20 13  1  0  0  0  0
 21 26  2  0  0  0  0
 22 10  1  0  0  0  0
 23 21  1  0  0  0  0
 23  4  1  0  0  0  0
 24 22  2  0  0  0  0
 25 14  1  6  0  0  0
 25 17  1  0  0  0  0
 27  2  1  0  0  0  0
 27  9  1  0  0  0  0
 28 29  1  0  0  0  0
 30 33  1  0  0  0  0
 32 29  1  1  0  0  0
 32 31  1  0  0  0  0
 33 31  1  0  0  0  0
 34 30  2  0  0  0  0
 34 32  1  0  0  0  0
M  END
>  <MODEL>
6

>  <REMARK>
 VINA RESULT:      -8.3      1.588      1.706
  Name = 
  3 active torsions:
  status: ('A' for Active; 'I' for Inactive)
    1  A    between atoms: C_17  and  O_28
    2  A    between atoms: O_28  and  C_29
    3  A    between atoms: C_29  and  C_32
                            x       y       z     vdW  Elec       q    Type
                         _______ _______ _______ _____ _____    ______ ____

>  <TORSDO>
F 3

$$$$
