=
 OpenBabel11122413373D

 37 43  0  0  1  0  0  0  0  0999 V2000
  161.9570  210.2780  155.2430 C   0  0  0  0  0  2  0  0  0  0  0  0
  161.7460  206.7750  151.2420 C   0  0  0  0  0  0  0  0  0  0  0  0
  161.3690  211.0620  151.6510 C   0  0  1  0  0  3  0  0  0  0  0  0
  161.9410  210.6950  156.7100 C   0  0  2  0  0  3  0  0  0  0  0  0
  157.8590  211.1060  153.4480 C   0  0  0  0  0  2  0  0  0  0  0  0
  161.6850  209.0510  150.1390 C   0  0  1  0  0  3  0  0  0  0  0  0
  160.3680  211.0080  152.8060 C   0  0  1  0  0  3  0  0  0  0  0  0
  160.0890  212.3970  156.0510 C   0  0  0  0  0  0  0  0  0  0  0  0
  161.9340  209.6520  151.5300 C   0  0  2  0  0  3  0  0  0  0  0  0
  158.9430  211.4880  152.4320 C   0  0  2  0  0  3  0  0  0  0  0  0
  162.2850  209.9090  149.1210 N   0  0  0  0  0  2  0  0  0  0  0  0
  161.2890  212.0670  156.9090 C   0  0  0  0  0  2  0  0  0  0  0  0
  161.4390  208.8160  152.6430 N   0  0  2  0  0  0  0  0  0  0  0  0
  162.9240  206.2110  152.0130 C   0  0  0  0  0  1  0  0  0  0  0  0
  160.4000  213.0520  150.3360 C   0  0  0  0  0  2  0  0  0  0  0  0
  161.6900  211.2610  149.1150 C   0  0  0  0  0  2  0  0  0  0  0  0
  160.8290  207.5530  152.2010 C   0  0  0  0  0  2  0  0  0  0  0  0
  159.2010  211.3980  155.5050 N   0  0  0  0  0  0  0  0  0  0  0  0
  157.9950  211.8160  154.7980 C   0  0  0  0  0  2  0  0  0  0  0  0
  160.7780  211.5670  150.3160 C   0  0  1  0  0  3  0  0  0  0  0  0
  160.4070  209.5740  153.3440 C   0  0  1  0  0  3  0  0  0  0  0  0
  162.2720  207.6480  150.0930 C   0  0  0  0  0  2  0  0  0  0  0  0
  158.9020  213.0000  152.1200 C   0  0  1  0  0  3  0  0  0  0  0  0
  160.9590  205.6210  150.6560 C   0  0  0  0  0  1  0  0  0  0  0  0
  159.4440  209.9680  155.6670 C   0  0  0  0  0  2  0  0  0  0  0  0
  159.8490  213.6150  155.8390 O   0  0  0  0  0  0  0  0  0  0  0  0
  160.6700  209.5310  154.8570 C   0  0  2  0  0  3  0  0  0  0  0  0
  160.1200  213.5380  151.6330 O   0  0  0  0  0  0  0  0  0  0  0  0
  156.6040  213.9930  152.0570 C   0  0  0  0  0  3  0  0  0  0  0  0
  157.6880  213.4540  151.3560 C   0  0  0  0  0  0  0  0  0  0  0  0
  157.6380  213.3730  149.9560 C   0  0  0  0  0  3  0  0  0  0  0  0
  156.4580  213.7340  147.9180 F   0  0  0  0  0  0  0  0  0  0  0  0
  155.4220  214.3480  149.9740 C   0  0  0  0  0  3  0  0  0  0  0  0
  156.5050  213.8170  149.2680 C   0  0  0  0  0  0  0  0  0  0  0  0
  155.4720  214.4370  151.3680 C   0  0  0  0  0  3  0  0  0  0  0  0
  164.2220  211.4690  156.3540 N   0  0  0  0  0  1  0  0  0  0  0  0
  163.3550  210.7360  157.2610 C   0  0  0  0  0  2  0  0  0  0  0  0
  1  4  1  0  0  0  0
  2 14  1  0  0  0  0
  2 17  1  0  0  0  0
  3  7  1  0  0  0  0
  4 12  1  0  0  0  0
  4 37  1  0  0  0  0
  5 19  1  0  0  0  0
  6  9  1  0  0  0  0
  7 21  1  0  0  0  0
  8 12  1  0  0  0  0
  9  3  1  0  0  0  0
  9 13  1  0  0  0  0
 10  7  1  0  0  0  0
 10  5  1  0  0  0  0
 11  6  1  0  0  0  0
 13 21  1  0  0  0  0
 15 28  1  0  0  0  0
 16 11  1  0  0  0  0
 16 20  1  0  0  0  0
 17 13  1  0  0  0  0
 18 25  1  0  0  0  0
 18  8  1  0  0  0  0
 19 18  1  0  0  0  0
 20 15  1  0  0  0  0
 20  3  1  0  0  0  0
 21 27  1  0  0  0  0
 22  6  1  0  0  0  0
 22  2  1  0  0  0  0
 23 10  1  0  0  0  0
 24  2  1  0  0  0  0
 26  8  2  0  0  0  0
 27  1  1  0  0  0  0
 27 25  1  0  0  0  0
 28 23  1  0  0  0  0
 30 29  2  0  0  0  0
 30 23  1  0  0  0  0
 31 30  1  0  0  0  0
 32 34  1  0  0  0  0
 33 35  2  0  0  0  0
 34 31  2  0  0  0  0
 34 33  1  0  0  0  0
 35 29  1  0  0  0  0
 36 37  1  0  0  0  0
M  END
>  <MODEL>
1

>  <REMARK>
 VINA RESULT:      -6.8      0.000      0.000
  Name = 
  2 active torsions:
  status: ('A' for Active; 'I' for Inactive)
    1  A    between atoms: C_4  and  C_37
    2  A    between atoms: C_23  and  C_30
                            x       y       z     vdW  Elec       q    Type
                         _______ _______ _______ _____ _____    ______ ____

>  <TORSDO>
F 2

$$$$
=
 OpenBabel11122413373D

 37 43  0  0  1  0  0  0  0  0999 V2000
  162.1150  210.0870  155.2520 C   0  0  0  0  0  2  0  0  0  0  0  0
  161.7240  206.7470  151.1270 C   0  0  0  0  0  0  0  0  0  0  0  0
  161.4350  211.0210  151.7130 C   0  0  1  0  0  3  0  0  0  0  0  0
  162.1500  210.4460  156.7340 C   0  0  2  0  0  3  0  0  0  0  0  0
  157.9810  211.0520  153.6160 C   0  0  0  0  0  2  0  0  0  0  0  0
  161.6710  209.0650  150.1150 C   0  0  1  0  0  3  0  0  0  0  0  0
  160.4680  210.9380  152.8950 C   0  0  1  0  0  3  0  0  0  0  0  0
  160.3090  212.2030  156.1980 C   0  0  0  0  0  0  0  0  0  0  0  0
  161.9710  209.6070  151.5200 C   0  0  2  0  0  3  0  0  0  0  0  0
  159.0410  211.4550  152.5830 C   0  0  2  0  0  3  0  0  0  0  0  0
  162.2550  209.9530  149.1130 N   0  0  0  0  0  2  0  0  0  0  0  0
  161.5290  211.8200  157.0060 C   0  0  0  0  0  2  0  0  0  0  0  0
  161.4950  208.7370  152.6150 N   0  0  2  0  0  0  0  0  0  0  0  0
  162.9140  206.1350  151.8390 C   0  0  0  0  0  1  0  0  0  0  0  0
  160.4620  213.0760  150.5050 C   0  0  0  0  0  2  0  0  0  0  0  0
  161.6840  211.3140  149.1770 C   0  0  0  0  0  2  0  0  0  0  0  0
  160.8500  207.5030  152.1420 C   0  0  0  0  0  2  0  0  0  0  0  0
  159.3890  211.2410  155.6410 N   0  0  0  0  0  0  0  0  0  0  0  0
  158.1700  211.7060  154.9870 C   0  0  0  0  0  2  0  0  0  0  0  0
  160.8130  211.5880  150.4170 C   0  0  1  0  0  3  0  0  0  0  0  0
  160.4970  209.4840  153.3750 C   0  0  1  0  0  3  0  0  0  0  0  0
  162.2310  207.6560  149.9970 C   0  0  0  0  0  2  0  0  0  0  0  0
  159.0180  212.9790  152.3310 C   0  0  1  0  0  3  0  0  0  0  0  0
  160.9000  205.6310  150.5210 C   0  0  0  0  0  1  0  0  0  0  0  0
  159.6110  209.8010  155.7400 C   0  0  0  0  0  2  0  0  0  0  0  0
  160.0850  213.4320  156.0410 O   0  0  0  0  0  0  0  0  0  0  0  0
  160.8050  209.3770  154.8770 C   0  0  2  0  0  3  0  0  0  0  0  0
  160.2300  213.5160  151.8290 O   0  0  0  0  0  0  0  0  0  0  0  0
  157.8550  213.7480  150.2500 C   0  0  0  0  0  3  0  0  0  0  0  0
  157.7900  213.4830  151.6220 C   0  0  0  0  0  0  0  0  0  0  0  0
  156.5790  213.6640  152.3070 C   0  0  0  0  0  3  0  0  0  0  0  0
  154.2810  214.2940  152.2870 F   0  0  0  0  0  0  0  0  0  0  0  0
  155.5200  214.3880  150.2540 C   0  0  0  0  0  3  0  0  0  0  0  0
  155.4470  214.1180  151.6230 C   0  0  0  0  0  0  0  0  0  0  0  0
  156.7230  214.2020  149.5670 C   0  0  0  0  0  3  0  0  0  0  0  0
  164.1810  211.7510  157.0500 N   0  0  0  0  0  1  0  0  0  0  0  0
  163.5800  210.4420  157.2430 C   0  0  0  0  0  2  0  0  0  0  0  0
  1  4  1  0  0  0  0
  2 14  1  0  0  0  0
  2 17  1  0  0  0  0
  3  7  1  0  0  0  0
  4 12  1  0  0  0  0
  4 37  1  0  0  0  0
  5 19  1  0  0  0  0
  6  9  1  0  0  0  0
  7 21  1  0  0  0  0
  8 12  1  0  0  0  0
  9  3  1  0  0  0  0
  9 13  1  0  0  0  0
 10  7  1  0  0  0  0
 10  5  1  0  0  0  0
 11 16  1  0  0  0  0
 11  6  1  0  0  0  0
 13 21  1  0  0  0  0
 15 28  1  0  0  0  0
 16 20  1  0  0  0  0
 17 13  1  0  0  0  0
 18 25  1  0  0  0  0
 18  8  1  0  0  0  0
 19 18  1  0  0  0  0
 20 15  1  0  0  0  0
 20  3  1  0  0  0  0
 21 27  1  0  0  0  0
 22  6  1  0  0  0  0
 22  2  1  0  0  0  0
 23 10  1  0  0  0  0
 24  2  1  0  0  0  0
 26  8  2  0  0  0  0
 27  1  1  0  0  0  0
 27 25  1  0  0  0  0
 28 23  1  0  0  0  0
 29 30  1  0  0  0  0
 30 31  2  0  0  0  0
 30 23  1  0  0  0  0
 33 34  2  0  0  0  0
 34 32  1  0  0  0  0
 34 31  1  0  0  0  0
 35 29  2  0  0  0  0
 35 33  1  0  0  0  0
 36 37  1  0  0  0  0
M  END
>  <MODEL>
2

>  <REMARK>
 VINA RESULT:      -6.0      0.856      1.156
  Name = 
  2 active torsions:
  status: ('A' for Active; 'I' for Inactive)
    1  A    between atoms: C_4  and  C_37
    2  A    between atoms: C_23  and  C_30
                            x       y       z     vdW  Elec       q    Type
                         _______ _______ _______ _____ _____    ______ ____

>  <TORSDO>
F 2

$$$$
