=
 OpenBabel11122412423D

 30 35  0  0  1  0  0  0  0  0999 V2000
  161.6420  205.6540  149.6420 C   0  0  2  0  0  3  0  0  0  0  0  0
  160.9660  203.2000  149.4540 C   0  0  0  0  0  0  0  0  0  0  0  0
  161.2730  205.2820  153.8720 O   0  0  0  0  0  0  0  0  0  0  0  0
  161.8930  206.8410  150.6400 C   0  0  1  0  0  3  0  0  0  0  0  0
  160.6930  206.0160  148.6640 O   0  0  0  0  0  0  0  0  0  0  0  0
  163.0230  208.7140  148.2320 C   0  0  0  0  0  1  0  0  0  0  0  0
  160.5400  209.7170  151.9130 C   0  0  1  0  0  3  0  0  0  0  0  0
  161.5950  208.2830  148.5310 C   0  0  1  0  0  3  0  0  0  0  0  0
  160.3200  208.6860  153.0390 C   0  0  2  0  0  3  0  0  0  0  0  0
  161.1560  206.6070  154.2610 C   0  0  0  0  0  0  0  0  0  0  0  0
  161.3340  206.9440  147.8180 C   0  0  2  0  0  3  0  0  0  0  0  0
  161.3380  208.1370  150.0410 C   0  0  2  0  0  3  0  0  0  0  0  0
  160.6110  201.9750  150.0290 C   0  0  0  0  0  3  0  0  0  0  0  0
  160.3350  209.5370  154.2780 C   0  0  0  0  0  2  0  0  0  0  0  0
  160.8090  210.9760  152.4760 O   0  0  0  0  0  0  0  0  0  0  0  0
  161.0160  203.3040  148.0690 O   0  0  0  0  0  1  0  0  0  0  0  0
  161.7130  205.2660  152.5300 C   0  0  2  0  0  3  0  0  0  0  0  0
  160.5760  201.8290  151.4160 C   0  0  0  0  0  3  0  0  0  0  0  0
  161.2670  204.3070  150.2720 C   0  0  0  0  0  0  0  0  0  0  0  0
  161.2000  206.5660  151.9680 C   0  0  1  0  0  3  0  0  0  0  0  0
  160.9470  206.9470  155.4560 O   0  0  0  0  0  0  0  0  0  0  0  0
  161.3730  207.5590  153.1210 C   0  0  1  0  0  3  0  0  0  0  0  0
  160.2260  210.9440  153.7500 C   0  0  0  0  0  2  0  0  0  0  0  0
  162.6560  209.9330  150.8550 O   0  0  0  0  0  0  0  0  0  0  0  0
  160.8990  202.9060  152.2420 C   0  0  0  0  0  3  0  0  0  0  0  0
  161.2310  204.1430  151.6800 C   0  0  0  0  0  0  0  0  0  0  0  0
  161.5870  209.3440  150.8970 C   0  0  0  0  0  0  0  0  0  0  0  0
  160.5550  207.1600  146.6810 O   0  0  0  0  0  0  0  0  0  0  0  0
  162.2410  205.9340  145.7640 O   0  0  0  0  0  1  0  0  0  0  0  0
  160.8570  206.0920  145.8360 C   0  0  0  0  0  2  0  0  0  0  0  0
  1  5  1  6  0  0  0
  1 19  1  0  0  0  0
  1  4  1  0  0  0  0
  2 13  2  0  0  0  0
  2 19  1  0  0  0  0
  3 10  1  0  0  0  0
  4 20  1  0  0  0  0
  6  8  1  0  0  0  0
  7 15  1  0  0  0  0
  7  9  1  0  0  0  0
  8 12  1  0  0  0  0
  9 22  1  0  0  0  0
  9 14  1  0  0  0  0
 10 21  2  0  0  0  0
 11  8  1  0  0  0  0
 11  5  1  0  0  0  0
 12  4  1  0  0  0  0
 12 27  1  0  0  0  0
 13 18  1  0  0  0  0
 15 23  1  0  0  0  0
 16  2  1  0  0  0  0
 17  3  1  0  0  0  0
 18 25  2  0  0  0  0
 19 26  2  0  0  0  0
 20 17  1  0  0  0  0
 20 22  1  0  0  0  0
 22 10  1  0  0  0  0
 23 14  1  0  0  0  0
 24 27  2  0  0  0  0
 26 25  1  0  0  0  0
 26 17  1  0  0  0  0
 27  7  1  0  0  0  0
 28 11  1  0  0  0  0
 29 30  1  0  0  0  0
 30 28  1  0  0  0  0
M  END
>  <MODEL>
1

>  <REMARK>
 VINA RESULT:      -8.5      0.000      0.000
  Name = 
  2 active torsions:
  status: ('A' for Active; 'I' for Inactive)
    1  A    between atoms: C_11  and  O_28
    2  A    between atoms: O_28  and  C_30
                            x       y       z     vdW  Elec       q    Type
                         _______ _______ _______ _____ _____    ______ ____

>  <TORSDO>
F 2

$$$$
=
 OpenBabel11122412423D

 30 35  0  0  1  0  0  0  0  0999 V2000
  161.1330  210.4810  151.9990 C   0  0  2  0  0  3  0  0  0  0  0  0
  160.6260  212.6240  150.7090 C   0  0  0  0  0  0  0  0  0  0  0  0
  162.3470  208.7200  148.3120 O   0  0  0  0  0  0  0  0  0  0  0  0
  161.6360  208.9980  151.8720 C   0  0  1  0  0  3  0  0  0  0  0  0
  159.8700  210.5280  152.6240 O   0  0  0  0  0  0  0  0  0  0  0  0
  161.6700  208.6630  155.1090 C   0  0  0  0  0  1  0  0  0  0  0  0
  160.6170  205.7300  151.7910 C   0  0  1  0  0  3  0  0  0  0  0  0
  160.4840  208.7280  154.1580 C   0  0  1  0  0  3  0  0  0  0  0  0
  160.8990  206.0570  150.3100 C   0  0  2  0  0  3  0  0  0  0  0  0
  162.2780  207.3690  148.6100 C   0  0  0  0  0  0  0  0  0  0  0  0
  160.0880  210.2050  153.9780 C   0  0  2  0  0  3  0  0  0  0  0  0
  160.8030  208.0970  152.7910 C   0  0  2  0  0  3  0  0  0  0  0  0
  160.5990  213.3690  149.5260 C   0  0  0  0  0  3  0  0  0  0  0  0
  161.2950  204.7210  149.7440 C   0  0  0  0  0  2  0  0  0  0  0  0
  160.9730  204.3970  152.0530 O   0  0  0  0  0  0  0  0  0  0  0  0
  160.1640  213.2080  151.8830 O   0  0  0  0  0  1  0  0  0  0  0  0
  162.2730  209.4320  149.5290 C   0  0  2  0  0  3  0  0  0  0  0  0
  161.0790  212.8230  148.3350 C   0  0  0  0  0  3  0  0  0  0  0  0
  161.1170  211.3030  150.7050 C   0  0  0  0  0  0  0  0  0  0  0  0
  161.4930  208.5150  150.4350 C   0  0  1  0  0  3  0  0  0  0  0  0
  162.4890  206.4730  147.7500 O   0  0  0  0  0  0  0  0  0  0  0  0
  161.9940  207.1180  150.0620 C   0  0  1  0  0  3  0  0  0  0  0  0
  160.8940  203.7420  150.8160 C   0  0  0  0  0  2  0  0  0  0  0  0
  162.1830  206.2970  153.4840 O   0  0  0  0  0  0  0  0  0  0  0  0
  161.5940  211.5270  148.3180 C   0  0  0  0  0  3  0  0  0  0  0  0
  161.6040  210.7620  149.4880 C   0  0  0  0  0  0  0  0  0  0  0  0
  161.2510  206.6650  152.7870 C   0  0  0  0  0  0  0  0  0  0  0  0
  158.9370  210.4760  154.7180 O   0  0  0  0  0  0  0  0  0  0  0  0
  160.3840  212.0780  155.4410 O   0  0  0  0  0  1  0  0  0  0  0  0
  159.0610  211.8150  155.0900 C   0  0  0  0  0  2  0  0  0  0  0  0
  1 19  1  6  0  0  0
  1  5  1  0  0  0  0
  2 16  1  0  0  0  0
  3 10  1  0  0  0  0
  3 17  1  0  0  0  0
  4  1  1  0  0  0  0
  4 12  1  0  0  0  0
  5 11  1  0  0  0  0
  7 15  1  0  0  0  0
  7 27  1  0  0  0  0
  8  6  1  0  0  0  0
  9  7  1  0  0  0  0
 10 22  1  0  0  0  0
 11  8  1  0  0  0  0
 11 28  1  0  0  0  0
 12  8  1  0  0  0  0
 13  2  2  0  0  0  0
 14  9  1  0  0  0  0
 14 23  1  0  0  0  0
 17 20  1  0  0  0  0
 18 13  1  0  0  0  0
 19  2  1  0  0  0  0
 20  4  1  0  0  0  0
 21 10  2  0  0  0  0
 22  9  1  0  0  0  0
 22 20  1  0  0  0  0
 23 15  1  0  0  0  0
 25 18  2  0  0  0  0
 25 26  1  0  0  0  0
 26 17  1  0  0  0  0
 26 19  2  0  0  0  0
 27 12  1  0  0  0  0
 27 24  2  0  0  0  0
 28 30  1  0  0  0  0
 30 29  1  0  0  0  0
M  END
>  <MODEL>
2

>  <REMARK>
 VINA RESULT:      -7.1      2.081      7.287
  Name = 
  2 active torsions:
  status: ('A' for Active; 'I' for Inactive)
    1  A    between atoms: C_11  and  O_28
    2  A    between atoms: O_28  and  C_30
                            x       y       z     vdW  Elec       q    Type
                         _______ _______ _______ _____ _____    ______ ____

>  <TORSDO>
F 2

$$$$
=
 OpenBabel11122412423D

 30 35  0  0  1  0  0  0  0  0999 V2000
  160.1310  211.5060  153.4890 C   0  0  2  0  0  3  0  0  0  0  0  0
  159.3530  213.4610  152.0450 C   0  0  0  0  0  0  0  0  0  0  0  0
  162.0620  209.9140  150.0380 O   0  0  0  0  0  0  0  0  0  0  0  0
  160.9290  210.1520  153.4910 C   0  0  1  0  0  3  0  0  0  0  0  0
  158.8240  211.3160  153.9820 O   0  0  0  0  0  0  0  0  0  0  0  0
  160.6790  209.9320  156.7270 C   0  0  0  0  0  1  0  0  0  0  0  0
  160.5920  206.7450  153.4790 C   0  0  1  0  0  3  0  0  0  0  0  0
  159.6140  209.7260  155.6610 C   0  0  1  0  0  3  0  0  0  0  0  0
  160.9620  207.0760  152.0190 C   0  0  2  0  0  3  0  0  0  0  0  0
  162.2290  208.5860  150.3980 C   0  0  0  0  0  0  0  0  0  0  0  0
  158.9550  211.0860  155.3670 C   0  0  2  0  0  3  0  0  0  0  0  0
  160.1970  209.1310  154.3670 C   0  0  2  0  0  3  0  0  0  0  0  0
  159.3070  214.1480  150.8290 C   0  0  0  0  0  3  0  0  0  0  0  0
  161.6730  205.8310  151.5650 C   0  0  0  0  0  2  0  0  0  0  0  0
  161.1740  205.5200  153.8440 O   0  0  0  0  0  0  0  0  0  0  0  0
  158.6610  213.9760  153.1350 O   0  0  0  0  0  1  0  0  0  0  0  0
  161.7170  210.6340  151.2040 C   0  0  2  0  0  3  0  0  0  0  0  0
  160.0110  213.6740  149.7210 C   0  0  0  0  0  3  0  0  0  0  0  0
  160.0930  212.2680  152.1590 C   0  0  0  0  0  0  0  0  0  0  0  0
  161.0410  209.6060  152.0740 C   0  0  1  0  0  3  0  0  0  0  0  0
  162.7050  207.7250  149.6110 O   0  0  0  0  0  0  0  0  0  0  0  0
  161.8460  208.3280  151.8260 C   0  0  1  0  0  3  0  0  0  0  0  0
  161.3610  204.8250  152.6410 C   0  0  0  0  0  2  0  0  0  0  0  0
  161.8230  207.6700  155.2880 O   0  0  0  0  0  0  0  0  0  0  0  0
  160.7720  212.5090  149.8230 C   0  0  0  0  0  3  0  0  0  0  0  0
  160.8060  211.7990  151.0270 C   0  0  0  0  0  0  0  0  0  0  0  0
  160.9170  207.8200  154.4830 C   0  0  0  0  0  0  0  0  0  0  0  0
  157.7000  211.1410  155.9730 O   0  0  0  0  0  0  0  0  0  0  0  0
  155.6620  210.6980  155.0580 O   0  0  0  0  0  1  0  0  0  0  0  0
  156.8200  211.4650  154.9390 C   0  0  0  0  0  2  0  0  0  0  0  0
  1 19  1  6  0  0  0
  1  4  1  0  0  0  0
  1  5  1  0  0  0  0
  2 19  1  0  0  0  0
  2 16  1  0  0  0  0
  3 10  1  0  0  0  0
  3 17  1  0  0  0  0
  4 12  1  0  0  0  0
  5 11  1  0  0  0  0
  7 15  1  0  0  0  0
  7 27  1  0  0  0  0
  8  6  1  0  0  0  0
  9  7  1  0  0  0  0
 10 22  1  0  0  0  0
 11  8  1  0  0  0  0
 11 28  1  0  0  0  0
 12 27  1  0  0  0  0
 12  8  1  0  0  0  0
 13  2  2  0  0  0  0
 14  9  1  0  0  0  0
 14 23  1  0  0  0  0
 17 20  1  0  0  0  0
 18 25  2  0  0  0  0
 18 13  1  0  0  0  0
 20  4  1  0  0  0  0
 21 10  2  0  0  0  0
 22  9  1  0  0  0  0
 22 20  1  0  0  0  0
 23 15  1  0  0  0  0
 25 26  1  0  0  0  0
 26 17  1  0  0  0  0
 26 19  2  0  0  0  0
 27 24  2  0  0  0  0
 30 29  1  0  0  0  0
 30 28  1  0  0  0  0
M  END
>  <MODEL>
3

>  <REMARK>
 VINA RESULT:      -6.8      2.539      7.802
  Name = 
  2 active torsions:
  status: ('A' for Active; 'I' for Inactive)
    1  A    between atoms: C_11  and  O_28
    2  A    between atoms: O_28  and  C_30
                            x       y       z     vdW  Elec       q    Type
                         _______ _______ _______ _____ _____    ______ ____

>  <TORSDO>
F 2

$$$$
=
 OpenBabel11122412423D

 30 35  0  0  1  0  0  0  0  0999 V2000
  161.6660  208.6960  151.6270 C   0  0  2  0  0  3  0  0  0  0  0  0
  161.3120  211.1210  150.9140 C   0  0  0  0  0  0  0  0  0  0  0  0
  162.3510  207.7440  147.5290 O   0  0  0  0  0  0  0  0  0  0  0  0
  161.9760  207.2430  151.1160 C   0  0  1  0  0  3  0  0  0  0  0  0
  160.4740  208.7170  152.3800 O   0  0  0  0  0  0  0  0  0  0  0  0
  162.2410  206.1550  154.1710 C   0  0  0  0  0  1  0  0  0  0  0  0
  160.5720  204.2010  150.4140 C   0  0  1  0  0  3  0  0  0  0  0  0
  160.9960  206.5560  153.3940 C   0  0  1  0  0  3  0  0  0  0  0  0
  160.7670  204.8380  149.0230 C   0  0  2  0  0  3  0  0  0  0  0  0
  162.1450  206.3740  147.5210 C   0  0  0  0  0  0  0  0  0  0  0  0
  160.7650  208.0650  153.5950 C   0  0  2  0  0  3  0  0  0  0  0  0
  161.1220  206.2370  151.8940 C   0  0  2  0  0  3  0  0  0  0  0  0
  161.2760  212.1230  149.9390 C   0  0  0  0  0  3  0  0  0  0  0  0
  160.9520  203.6410  148.1310 C   0  0  0  0  0  2  0  0  0  0  0  0
  160.7880  202.8150  150.3290 O   0  0  0  0  0  0  0  0  0  0  0  0
  161.0230  211.4550  152.2320 O   0  0  0  0  0  1  0  0  0  0  0  0
  162.4640  208.1530  148.8760 C   0  0  2  0  0  3  0  0  0  0  0  0
  161.5860  211.8290  148.6110 C   0  0  0  0  0  3  0  0  0  0  0  0
  161.6400  209.7980  150.5600 C   0  0  0  0  0  0  0  0  0  0  0  0
  161.6580  207.1290  149.6320 C   0  0  1  0  0  3  0  0  0  0  0  0
  162.1760  205.6890  146.4650 O   0  0  0  0  0  0  0  0  0  0  0  0
  161.9560  205.8160  148.9020 C   0  0  1  0  0  3  0  0  0  0  0  0
  160.5290  202.4810  148.9930 C   0  0  0  0  0  2  0  0  0  0  0  0
  162.3310  204.2000  152.0110 O   0  0  0  0  0  0  0  0  0  0  0  0
  161.9400  210.5300  148.2470 C   0  0  0  0  0  3  0  0  0  0  0  0
  161.9570  209.5140  149.2070 C   0  0  0  0  0  0  0  0  0  0  0  0
  161.3940  204.8100  151.5190 C   0  0  0  0  0  0  0  0  0  0  0  0
  159.7200  208.2640  154.4970 O   0  0  0  0  0  0  0  0  0  0  0  0
  161.5030  209.3740  155.3780 O   0  0  0  0  0  1  0  0  0  0  0  0
  160.1140  209.3650  155.2590 C   0  0  0  0  0  2  0  0  0  0  0  0
  1 19  1  6  0  0  0
  1  5  1  0  0  0  0
  2 16  1  0  0  0  0
  3 17  1  0  0  0  0
  4  1  1  0  0  0  0
  4 12  1  0  0  0  0
  5 11  1  0  0  0  0
  7 27  1  0  0  0  0
  8 11  1  0  0  0  0
  8  6  1  0  0  0  0
  9  7  1  0  0  0  0
 10  3  1  0  0  0  0
 10 22  1  0  0  0  0
 11 28  1  0  0  0  0
 12  8  1  0  0  0  0
 13  2  2  0  0  0  0
 14 23  1  0  0  0  0
 14  9  1  0  0  0  0
 15  7  1  0  0  0  0
 17 26  1  0  0  0  0
 17 20  1  0  0  0  0
 18 13  1  0  0  0  0
 19  2  1  0  0  0  0
 20  4  1  0  0  0  0
 21 10  2  0  0  0  0
 22  9  1  0  0  0  0
 22 20  1  0  0  0  0
 23 15  1  0  0  0  0
 25 18  2  0  0  0  0
 25 26  1  0  0  0  0
 26 19  2  0  0  0  0
 27 12  1  0  0  0  0
 27 24  2  0  0  0  0
 28 30  1  0  0  0  0
 30 29  1  0  0  0  0
M  END
>  <MODEL>
4

>  <REMARK>
 VINA RESULT:      -6.7      1.604      7.074
  Name = 
  2 active torsions:
  status: ('A' for Active; 'I' for Inactive)
    1  A    between atoms: C_11  and  O_28
    2  A    between atoms: O_28  and  C_30
                            x       y       z     vdW  Elec       q    Type
                         _______ _______ _______ _____ _____    ______ ____

>  <TORSDO>
F 2

$$$$
