=
 OpenBabel11122414113D

 28 32  0  0  1  0  0  0  0  0999 V2000
  160.3410  209.4530  154.2400 C   0  0  2  0  0  3  0  0  0  0  0  0
  157.9480  210.6120  155.6490 O   0  0  0  0  0  0  0  0  0  0  0  0
  161.0480  213.1080  148.7890 O   0  0  0  0  0  0  0  0  0  0  0  0
  162.0310  210.5530  156.3820 C   0  0  0  0  0  2  0  0  0  0  0  0
  159.2580  213.3330  150.3210 N   0  0  0  0  0  0  0  0  0  0  0  0
  160.1470  208.8250  152.8540 C   0  0  0  0  0  2  0  0  0  0  0  0
  158.3720  212.9640  156.2470 O   0  0  0  0  0  0  0  0  0  0  0  0
  157.8640  212.0360  155.1810 S   0  0  0  0  0  0  0  0  0  0  0  0
  156.0620  213.4930  153.7450 C   0  0  0  0  0  0  0  0  0  0  0  0
  158.7600  212.2570  153.7230 N   0  0  0  0  0  0  0  0  0  0  0  0
  163.2370  210.0210  151.8310 O   0  0  0  0  0  0  0  0  0  0  0  0
  160.2480  212.2020  152.0720 C   0  0  0  0  0  0  0  0  0  0  0  0
  156.9910  213.5850  152.6540 N   0  0  0  0  0  2  0  0  0  0  0  0
  156.1670  212.4240  154.7970 C   0  0  0  0  0  2  0  0  0  0  0  0
  162.0880  209.7370  151.5320 C   0  0  0  0  0  0  0  0  0  0  0  0
  160.8870  210.8910  154.1730 C   0  0  2  0  0  3  0  0  0  0  0  0
  160.5470  212.8490  149.9150 C   0  0  0  0  0  0  0  0  0  0  0  0
  154.6900  214.3730  153.6790 S   0  0  0  0  0  0  0  0  0  0  0  0
  161.3430  210.5760  150.5390 C   0  0  0  0  0  2  0  0  0  0  0  0
  161.1350  211.4740  155.5640 C   0  0  0  0  0  2  0  0  0  0  0  0
  161.2100  208.5590  155.1290 C   0  0  0  0  0  2  0  0  0  0  0  0
  161.3860  209.1790  156.5100 C   0  0  0  0  0  2  0  0  0  0  0  0
  161.4560  208.5150  152.1220 C   0  0  0  0  0  2  0  0  0  0  0  0
  159.1960  212.9220  151.6670 C   0  0  0  0  0  0  0  0  0  0  0  0
  161.2560  212.0330  150.9840 C   0  0  2  0  0  3  0  0  0  0  0  0
  158.2700  212.9510  152.6740 C   0  0  0  0  0  0  0  0  0  0  0  0
  158.5170  214.4290  149.7230 C   0  0  0  0  0  1  0  0  0  0  0  0
  159.9940  211.7900  153.3680 C   0  0  0  0  0  0  0  0  0  0  0  0
  1  6  1  6  0  0  0
  1 21  1  0  0  0  0
  3 17  2  0  0  0  0
  4 22  1  0  0  0  0
  5 24  1  0  0  0  0
  8  2  2  0  0  0  0
  8  7  2  0  0  0  0
  9 14  1  0  0  0  0
 10  8  1  0  0  0  0
 12 28  2  0  0  0  0
 13 26  1  0  0  0  0
 13  9  1  0  0  0  0
 14  8  1  0  0  0  0
 15 11  2  0  0  0  0
 15 23  1  0  0  0  0
 16  1  1  0  0  0  0
 16 20  1  1  0  0  0
 17  5  1  0  0  0  0
 17 25  1  0  0  0  0
 18  9  2  0  0  0  0
 19 15  1  0  0  0  0
 20  4  1  0  0  0  0
 21 22  1  0  0  0  0
 23  6  1  0  0  0  0
 24 12  1  0  0  0  0
 24 26  2  0  0  0  0
 25 19  1  6  0  0  0
 25 12  1  0  0  0  0
 26 10  1  0  0  0  0
 27  5  1  0  0  0  0
 28 10  1  0  0  0  0
 28 16  1  0  0  0  0
M  END
>  <MODEL>
1

>  <REMARK>
 VINA RESULT:      -4.3      0.000      0.000
  Name = 
  0 active torsions:
  status: ('A' for Active; 'I' for Inactive)
                            x       y       z     vdW  Elec       q    Type
                         _______ _______ _______ _____ _____    ______ ____

>  <TORSDO>
F 0

$$$$
=
 OpenBabel11122414113D

 28 32  0  0  1  0  0  0  0  0999 V2000
  161.5800  208.8200  155.9180 C   0  0  2  0  0  3  0  0  0  0  0  0
  162.4260  207.0650  153.6250 O   0  0  0  0  0  0  0  0  0  0  0  0
  158.9400  214.1700  153.0930 O   0  0  0  0  0  0  0  0  0  0  0  0
  159.4540  206.8760  156.5130 C   0  0  0  0  0  2  0  0  0  0  0  0
  159.9800  212.4090  151.9000 N   0  0  0  0  0  0  0  0  0  0  0  0
  162.2470  210.1920  156.0810 C   0  0  0  0  0  2  0  0  0  0  0  0
  160.4660  206.4370  152.2700 O   0  0  0  0  0  0  0  0  0  0  0  0
  161.5440  207.4620  152.4760 S   0  0  0  0  0  0  0  0  0  0  0  0
  161.9520  208.5920  150.0290 C   0  0  0  0  0  0  0  0  0  0  0  0
  160.8430  209.0160  152.7490 N   0  0  0  0  0  0  0  0  0  0  0  0
  159.2570  211.5630  157.1780 O   0  0  0  0  0  0  0  0  0  0  0  0
  159.9150  210.8480  153.5990 C   0  0  0  0  0  0  0  0  0  0  0  0
  161.2910  209.7910  150.4600 N   0  0  0  0  0  2  0  0  0  0  0  0
  162.5360  207.6060  151.0020 C   0  0  0  0  0  2  0  0  0  0  0  0
  160.3050  211.7200  156.5730 C   0  0  0  0  0  0  0  0  0  0  0  0
  160.2050  208.9020  155.2330 C   0  0  2  0  0  3  0  0  0  0  0  0
  159.4040  212.9990  153.0760 C   0  0  0  0  0  0  0  0  0  0  0  0
  162.3500  208.4440  148.4530 S   0  0  0  0  0  0  0  0  0  0  0  0
  160.3400  212.5740  155.3410 C   0  0  0  0  0  2  0  0  0  0  0  0
  159.5290  207.5330  155.1410 C   0  0  0  0  0  2  0  0  0  0  0  0
  161.5010  208.0880  157.2610 C   0  0  0  0  0  2  0  0  0  0  0  0
  160.8540  206.7190  157.0910 C   0  0  0  0  0  2  0  0  0  0  0  0
  161.5610  211.1000  157.1040 C   0  0  0  0  0  2  0  0  0  0  0  0
  160.2130  211.0840  152.3170 C   0  0  0  0  0  0  0  0  0  0  0  0
  159.3740  212.0640  154.2750 C   0  0  2  0  0  3  0  0  0  0  0  0
  160.7960  209.9640  151.7890 C   0  0  0  0  0  0  0  0  0  0  0  0
  159.8080  212.8610  150.5310 C   0  0  0  0  0  1  0  0  0  0  0  0
  160.2930  209.5470  153.8800 C   0  0  0  0  0  0  0  0  0  0  0  0
  1  6  1  1  0  0  0
  1 21  1  0  0  0  0
  4 22  1  0  0  0  0
  5 24  1  0  0  0  0
  5 17  1  0  0  0  0
  6 23  1  0  0  0  0
  7  8  2  0  0  0  0
  8 10  1  0  0  0  0
  8  2  2  0  0  0  0
  9 13  1  0  0  0  0
  9 14  1  0  0  0  0
 10 28  1  0  0  0  0
 12 28  2  0  0  0  0
 12 25  1  0  0  0  0
 13 26  1  0  0  0  0
 14  8  1  0  0  0  0
 15 23  1  0  0  0  0
 15 11  2  0  0  0  0
 16 20  1  6  0  0  0
 16  1  1  0  0  0  0
 17  3  2  0  0  0  0
 17 25  1  0  0  0  0
 18  9  2  0  0  0  0
 19 15  1  0  0  0  0
 20  4  1  0  0  0  0
 22 21  1  0  0  0  0
 24 12  1  0  0  0  0
 25 19  1  1  0  0  0
 26 24  2  0  0  0  0
 26 10  1  0  0  0  0
 27  5  1  0  0  0  0
 28 16  1  0  0  0  0
M  END
>  <MODEL>
2

>  <REMARK>
 VINA RESULT:      -4.3      3.003      5.249
  Name = 
  0 active torsions:
  status: ('A' for Active; 'I' for Inactive)
                            x       y       z     vdW  Elec       q    Type
                         _______ _______ _______ _____ _____    ______ ____

>  <TORSDO>
F 0

$$$$
=
 OpenBabel11122414113D

 28 32  0  0  1  0  0  0  0  0999 V2000
  161.3100  210.4770  137.6810 C   0  0  2  0  0  3  0  0  0  0  0  0
  158.4010  210.0890  137.0150 O   0  0  0  0  0  0  0  0  0  0  0  0
  161.3400  214.3860  143.0000 O   0  0  0  0  0  0  0  0  0  0  0  0
  161.4040  207.6620  138.5330 C   0  0  0  0  0  2  0  0  0  0  0  0
  159.3900  213.7790  141.8030 N   0  0  0  0  0  0  0  0  0  0  0  0
  161.9020  211.8900  137.6020 C   0  0  0  0  0  2  0  0  0  0  0  0
  157.2410  208.9900  138.8900 O   0  0  0  0  0  0  0  0  0  0  0  0
  157.6670  210.3070  138.3070 S   0  0  0  0  0  0  0  0  0  0  0  0
  155.8510  212.1260  139.2130 C   0  0  0  0  0  0  0  0  0  0  0  0
  158.6500  211.1670  139.4350 N   0  0  0  0  0  0  0  0  0  0  0  0
  163.9210  211.2440  140.3460 O   0  0  0  0  0  0  0  0  0  0  0  0
  160.3020  211.9830  140.6770 C   0  0  0  0  0  0  0  0  0  0  0  0
  156.8280  212.6690  140.1140 N   0  0  0  0  0  2  0  0  0  0  0  0
  156.2370  211.3260  138.0000 C   0  0  0  0  0  2  0  0  0  0  0  0
  163.2720  212.0580  139.7100 C   0  0  0  0  0  0  0  0  0  0  0  0
  160.9460  210.0620  139.1170 C   0  0  2  0  0  3  0  0  0  0  0  0
  160.7790  213.6530  142.1430 C   0  0  0  0  0  0  0  0  0  0  0  0
  154.3070  212.6420  139.3330 S   0  0  0  0  0  0  0  0  0  0  0  0
  162.4990  213.1250  140.4250 C   0  0  0  0  0  2  0  0  0  0  0  0
  160.4200  208.6270  139.1820 C   0  0  0  0  0  2  0  0  0  0  0  0
  162.2380  209.4570  137.0150 C   0  0  0  0  0  2  0  0  0  0  0  0
  161.6380  208.0580  137.0800 C   0  0  0  0  0  2  0  0  0  0  0  0
  163.3000  212.0140  138.2130 C   0  0  0  0  0  2  0  0  0  0  0  0
  159.1940  212.6840  140.9380 C   0  0  0  0  0  0  0  0  0  0  0  0
  161.4880  212.5310  141.4010 C   0  0  2  0  0  3  0  0  0  0  0  0
  158.1740  212.1950  140.1680 C   0  0  0  0  0  0  0  0  0  0  0  0
  158.3650  214.4530  142.5810 C   0  0  0  0  0  1  0  0  0  0  0  0
  159.9720  211.0170  139.7440 C   0  0  0  0  0  0  0  0  0  0  0  0
  1 21  1  1  0  0  0
  1 16  1  0  0  0  0
  2  8  2  0  0  0  0
  4 20  1  0  0  0  0
  5 17  1  0  0  0  0
  5 27  1  0  0  0  0
  6  1  1  0  0  0  0
  6 23  1  0  0  0  0
  8  7  2  0  0  0  0
  8 10  1  0  0  0  0
  9 18  2  0  0  0  0
  9 13  1  0  0  0  0
 10 28  1  0  0  0  0
 10 26  1  0  0  0  0
 12 24  1  0  0  0  0
 12 25  1  0  0  0  0
 13 26  1  0  0  0  0
 14  8  1  0  0  0  0
 14  9  1  0  0  0  0
 15 11  2  0  0  0  0
 15 19  1  0  0  0  0
 16 20  1  6  0  0  0
 16 28  1  0  0  0  0
 17  3  2  0  0  0  0
 21 22  1  0  0  0  0
 22  4  1  0  0  0  0
 23 15  1  0  0  0  0
 24  5  1  0  0  0  0
 25 19  1  6  0  0  0
 25 17  1  0  0  0  0
 26 24  2  0  0  0  0
 28 12  2  0  0  0  0
M  END
>  <MODEL>
3

>  <REMARK>
 VINA RESULT:      -3.9     11.659     14.123
  Name = 
  0 active torsions:
  status: ('A' for Active; 'I' for Inactive)
                            x       y       z     vdW  Elec       q    Type
                         _______ _______ _______ _____ _____    ______ ____

>  <TORSDO>
F 0

$$$$
=
 OpenBabel11122414113D

 28 32  0  0  1  0  0  0  0  0999 V2000
  161.1590  210.4850  155.5400 C   0  0  2  0  0  3  0  0  0  0  0  0
  162.6010  209.9410  152.9540 O   0  0  0  0  0  0  0  0  0  0  0  0
  156.1470  214.4530  153.8980 O   0  0  0  0  0  0  0  0  0  0  0  0
  160.2420  207.6890  155.5190 C   0  0  0  0  0  2  0  0  0  0  0  0
  157.8250  213.7340  152.3910 N   0  0  0  0  0  0  0  0  0  0  0  0
  161.1060  211.9250  156.0650 C   0  0  0  0  0  2  0  0  0  0  0  0
  161.0970  208.8060  151.3670 O   0  0  0  0  0  0  0  0  0  0  0  0
  161.5720  210.1360  151.8780 S   0  0  0  0  0  0  0  0  0  0  0  0
  161.2570  211.8710  149.8000 C   0  0  0  0  0  0  0  0  0  0  0  0
  160.2370  211.0580  152.4660 N   0  0  0  0  0  0  0  0  0  0  0  0
  157.8910  211.4160  157.2610 O   0  0  0  0  0  0  0  0  0  0  0  0
  158.6030  211.9730  153.6640 C   0  0  0  0  0  0  0  0  0  0  0  0
  160.1330  212.4730  150.4590 N   0  0  0  0  0  2  0  0  0  0  0  0
  162.2920  211.0770  150.5470 C   0  0  0  0  0  2  0  0  0  0  0  0
  158.7040  212.1880  156.7790 C   0  0  0  0  0  0  0  0  0  0  0  0
  159.8720  210.0680  154.8060 C   0  0  2  0  0  3  0  0  0  0  0  0
  157.1070  213.6820  153.6340 C   0  0  0  0  0  0  0  0  0  0  0  0
  161.5860  212.3090  148.2630 S   0  0  0  0  0  0  0  0  0  0  0  0
  158.2610  213.2230  155.7890 C   0  0  0  0  0  2  0  0  0  0  0  0
  159.9200  208.6100  154.3500 C   0  0  0  0  0  2  0  0  0  0  0  0
  161.5120  209.5060  156.6630 C   0  0  0  0  0  2  0  0  0  0  0  0
  161.5810  208.0780  156.1330 C   0  0  0  0  0  2  0  0  0  0  0  0
  160.1320  212.1280  157.2280 C   0  0  0  0  0  2  0  0  0  0  0  0
  158.6810  212.6190  152.4970 C   0  0  0  0  0  0  0  0  0  0  0  0
  157.5910  212.5890  154.5730 C   0  0  2  0  0  3  0  0  0  0  0  0
  159.6920  212.0700  151.7570 C   0  0  0  0  0  0  0  0  0  0  0  0
  157.3810  214.3630  151.1600 C   0  0  0  0  0  1  0  0  0  0  0  0
  159.5670  210.9800  153.6530 C   0  0  0  0  0  0  0  0  0  0  0  0
  1  6  1  1  0  0  0
  1 21  1  0  0  0  0
  4 22  1  0  0  0  0
  5 24  1  0  0  0  0
  5 17  1  0  0  0  0
  6 23  1  0  0  0  0
  7  8  2  0  0  0  0
  8 10  1  0  0  0  0
  8  2  2  0  0  0  0
  9 13  1  0  0  0  0
  9 14  1  0  0  0  0
 10 28  1  0  0  0  0
 12 25  1  0  0  0  0
 13 26  1  0  0  0  0
 14  8  1  0  0  0  0
 15 23  1  0  0  0  0
 15 11  2  0  0  0  0
 16 20  1  6  0  0  0
 16  1  1  0  0  0  0
 17  3  2  0  0  0  0
 17 25  1  0  0  0  0
 18  9  2  0  0  0  0
 19 15  1  0  0  0  0
 20  4  1  0  0  0  0
 22 21  1  0  0  0  0
 24 12  1  0  0  0  0
 25 19  1  1  0  0  0
 26 10  1  0  0  0  0
 26 24  2  0  0  0  0
 27  5  1  0  0  0  0
 28 12  2  0  0  0  0
 28 16  1  0  0  0  0
M  END
>  <MODEL>
4

>  <REMARK>
 VINA RESULT:      -3.9      2.463      4.932
  Name = 
  0 active torsions:
  status: ('A' for Active; 'I' for Inactive)
                            x       y       z     vdW  Elec       q    Type
                         _______ _______ _______ _____ _____    ______ ____

>  <TORSDO>
F 0

$$$$
=
 OpenBabel11122414113D

 28 32  0  0  1  0  0  0  0  0999 V2000
  160.3100  207.8270  154.8530 C   0  0  2  0  0  3  0  0  0  0  0  0
  158.9150  210.4250  155.4540 O   0  0  0  0  0  0  0  0  0  0  0  0
  162.8970  208.6280  148.8330 O   0  0  0  0  0  0  0  0  0  0  0  0
  162.3190  208.5320  156.8840 C   0  0  0  0  0  2  0  0  0  0  0  0
  161.5050  210.2130  149.9070 N   0  0  0  0  0  0  0  0  0  0  0  0
  159.8130  206.9780  153.6760 C   0  0  0  0  0  2  0  0  0  0  0  0
  160.5390  212.2780  155.4610 O   0  0  0  0  0  0  0  0  0  0  0  0
  159.6140  211.4540  154.6120 S   0  0  0  0  0  0  0  0  0  0  0  0
  158.8890  213.0720  152.5420 C   0  0  0  0  0  0  0  0  0  0  0  0
  160.4930  210.7040  153.3300 N   0  0  0  0  0  0  0  0  0  0  0  0
  163.0640  206.0290  152.9310 O   0  0  0  0  0  0  0  0  0  0  0  0
  161.7220  209.3700  152.0440 C   0  0  0  0  0  0  0  0  0  0  0  0
  159.7240  212.3220  151.6480 N   0  0  0  0  0  2  0  0  0  0  0  0
  158.3960  212.5040  153.8440 C   0  0  0  0  0  2  0  0  0  0  0  0
  161.9440  206.2910  152.5220 C   0  0  0  0  0  0  0  0  0  0  0  0
  161.5450  208.6740  154.4990 C   0  0  2  0  0  3  0  0  0  0  0  0
  162.3310  209.0390  149.8810 C   0  0  0  0  0  0  0  0  0  0  0  0
  158.2080  214.4530  152.0000 S   0  0  0  0  0  0  0  0  0  0  0  0
  161.7730  207.0210  151.2240 C   0  0  0  0  0  2  0  0  0  0  0  0
  162.0640  209.4610  155.7030 C   0  0  0  0  0  2  0  0  0  0  0  0
  160.5560  206.9570  156.0890 C   0  0  0  0  0  2  0  0  0  0  0  0
  161.0330  207.8070  157.2610 C   0  0  0  0  0  2  0  0  0  0  0  0
  160.7500  205.8290  153.2980 C   0  0  0  0  0  2  0  0  0  0  0  0
  161.2270  210.3500  151.2820 C   0  0  0  0  0  0  0  0  0  0  0  0
  162.4840  208.3710  151.2380 C   0  0  2  0  0  3  0  0  0  0  0  0
  160.4580  211.1690  152.0630 C   0  0  0  0  0  0  0  0  0  0  0  0
  161.4750  211.2740  148.9150 C   0  0  0  0  0  1  0  0  0  0  0  0
  161.2810  209.5880  153.3370 C   0  0  0  0  0  0  0  0  0  0  0  0
  1  6  1  6  0  0  0
  1 21  1  0  0  0  0
  3 17  2  0  0  0  0
  4 22  1  0  0  0  0
  5 24  1  0  0  0  0
  8  2  2  0  0  0  0
  8  7  2  0  0  0  0
  9 14  1  0  0  0  0
 10 28  1  0  0  0  0
 10  8  1  0  0  0  0
 12 28  2  0  0  0  0
 13 26  1  0  0  0  0
 13  9  1  0  0  0  0
 14  8  1  0  0  0  0
 15 11  2  0  0  0  0
 15 23  1  0  0  0  0
 16  1  1  0  0  0  0
 16 20  1  1  0  0  0
 17  5  1  0  0  0  0
 17 25  1  0  0  0  0
 18  9  2  0  0  0  0
 19 15  1  0  0  0  0
 20  4  1  0  0  0  0
 21 22  1  0  0  0  0
 23  6  1  0  0  0  0
 24 12  1  0  0  0  0
 24 26  2  0  0  0  0
 25 19  1  6  0  0  0
 25 12  1  0  0  0  0
 26 10  1  0  0  0  0
 27  5  1  0  0  0  0
 28 16  1  0  0  0  0
M  END
>  <MODEL>
5

>  <REMARK>
 VINA RESULT:      -2.9      2.147      3.072
  Name = 
  0 active torsions:
  status: ('A' for Active; 'I' for Inactive)
                            x       y       z     vdW  Elec       q    Type
                         _______ _______ _______ _____ _____    ______ ____

>  <TORSDO>
F 0

$$$$
=
 OpenBabel11122414113D

 28 32  0  0  1  0  0  0  0  0999 V2000
  160.7960  206.0060  150.9780 C   0  0  2  0  0  3  0  0  0  0  0  0
  160.0590  206.9240  153.7470 O   0  0  0  0  0  0  0  0  0  0  0  0
  162.2820  211.5310  147.6860 O   0  0  0  0  0  0  0  0  0  0  0  0
  163.2540  204.8470  152.1070 C   0  0  0  0  0  2  0  0  0  0  0  0
  161.4470  211.4830  149.9000 N   0  0  0  0  0  0  0  0  0  0  0  0
  159.9310  206.4610  149.7960 C   0  0  0  0  0  2  0  0  0  0  0  0
  161.9740  208.0590  154.8030 O   0  0  0  0  0  0  0  0  0  0  0  0
  160.7640  208.2360  153.9310 S   0  0  0  0  0  0  0  0  0  0  0  0
  159.9740  210.8190  154.2990 C   0  0  0  0  0  0  0  0  0  0  0  0
  161.2230  208.9050  152.4070 N   0  0  0  0  0  0  0  0  0  0  0  0
  162.7390  206.6970  147.7750 O   0  0  0  0  0  0  0  0  0  0  0  0
  161.9080  209.2610  150.3220 C   0  0  0  0  0  0  0  0  0  0  0  0
  160.4650  211.1660  152.9960 N   0  0  0  0  0  2  0  0  0  0  0  0
  159.6420  209.4020  154.6780 C   0  0  0  0  0  2  0  0  0  0  0  0
  161.6320  207.1250  148.0600 C   0  0  0  0  0  0  0  0  0  0  0  0
  162.0780  206.8430  151.1370 C   0  0  2  0  0  3  0  0  0  0  0  0
  162.0160  210.8780  148.7290 C   0  0  0  0  0  0  0  0  0  0  0  0
  159.4740  212.0150  155.2900 S   0  0  0  0  0  0  0  0  0  0  0  0
  161.3550  208.5960  147.9880 C   0  0  0  0  0  2  0  0  0  0  0  0
  162.9570  206.3310  152.2790 C   0  0  0  0  0  2  0  0  0  0  0  0
  161.1070  204.5090  150.8840 C   0  0  0  0  0  2  0  0  0  0  0  0
  161.9520  204.0580  152.0690 C   0  0  0  0  0  2  0  0  0  0  0  0
  160.5440  206.1630  148.4250 C   0  0  0  0  0  2  0  0  0  0  0  0
  161.4690  210.4200  150.8240 C   0  0  0  0  0  0  0  0  0  0  0  0
  162.2980  209.3920  148.8870 C   0  0  2  0  0  3  0  0  0  0  0  0
  161.0340  210.2070  152.1040 C   0  0  0  0  0  0  0  0  0  0  0  0
  161.4280  212.8990  150.2200 C   0  0  0  0  0  1  0  0  0  0  0  0
  161.7720  208.3030  151.3100 C   0  0  0  0  0  0  0  0  0  0  0  0
  1  6  1  6  0  0  0
  1 16  1  0  0  0  0
  2  8  2  0  0  0  0
  3 17  2  0  0  0  0
  4 20  1  0  0  0  0
  5 27  1  0  0  0  0
  5 24  1  0  0  0  0
  8 14  1  0  0  0  0
  8  7  2  0  0  0  0
  9 14  1  0  0  0  0
  9 18  2  0  0  0  0
 10  8  1  0  0  0  0
 11 15  2  0  0  0  0
 12 24  1  0  0  0  0
 12 28  2  0  0  0  0
 13  9  1  0  0  0  0
 15 23  1  0  0  0  0
 16 28  1  0  0  0  0
 16 20  1  1  0  0  0
 17 25  1  0  0  0  0
 17  5  1  0  0  0  0
 19 15  1  0  0  0  0
 21  1  1  0  0  0  0
 21 22  1  0  0  0  0
 22  4  1  0  0  0  0
 23  6  1  0  0  0  0
 24 26  2  0  0  0  0
 25 19  1  6  0  0  0
 25 12  1  0  0  0  0
 26 10  1  0  0  0  0
 26 13  1  0  0  0  0
 28 10  1  0  0  0  0
M  END
>  <MODEL>
6

>  <REMARK>
 VINA RESULT:      -2.6      3.150      4.702
  Name = 
  0 active torsions:
  status: ('A' for Active; 'I' for Inactive)
                            x       y       z     vdW  Elec       q    Type
                         _______ _______ _______ _____ _____    ______ ____

>  <TORSDO>
F 0

$$$$
=
 OpenBabel11122414113D

 28 32  0  0  1  0  0  0  0  0999 V2000
  161.5890  209.5940  154.1240 C   0  0  2  0  0  3  0  0  0  0  0  0
  163.0370  209.7900  151.4920 O   0  0  0  0  0  0  0  0  0  0  0  0
  156.5150  213.7820  153.5990 O   0  0  0  0  0  0  0  0  0  0  0  0
  160.7160  206.8940  153.3470 C   0  0  0  0  0  2  0  0  0  0  0  0
  158.2020  213.5210  151.9590 N   0  0  0  0  0  0  0  0  0  0  0  0
  161.5140  210.8380  155.0180 C   0  0  0  0  0  2  0  0  0  0  0  0
  161.5490  209.1040  149.6530 O   0  0  0  0  0  0  0  0  0  0  0  0
  162.0040  210.2530  150.5060 S   0  0  0  0  0  0  0  0  0  0  0  0
  161.6590  212.4800  148.9720 C   0  0  0  0  0  0  0  0  0  0  0  0
  160.6550  210.9620  151.3160 N   0  0  0  0  0  0  0  0  0  0  0  0
  158.3090  209.9760  156.0220 O   0  0  0  0  0  0  0  0  0  0  0  0
  159.0090  211.4950  152.7120 C   0  0  0  0  0  0  0  0  0  0  0  0
  160.5270  212.8650  149.7660 N   0  0  0  0  0  2  0  0  0  0  0  0
  162.7080  211.5300  149.4810 C   0  0  0  0  0  2  0  0  0  0  0  0
  159.1100  210.8620  155.7690 C   0  0  0  0  0  0  0  0  0  0  0  0
  160.3080  209.3720  153.3010 C   0  0  2  0  0  3  0  0  0  0  0  0
  157.4860  213.1260  153.1390 C   0  0  0  0  0  0  0  0  0  0  0  0
  161.9810  213.3210  147.6110 S   0  0  0  0  0  0  0  0  0  0  0  0
  158.6500  212.1190  155.0940 C   0  0  0  0  0  2  0  0  0  0  0  0
  160.3780  208.0920  152.4680 C   0  0  0  0  0  2  0  0  0  0  0  0
  161.9590  208.3530  154.9420 C   0  0  0  0  0  2  0  0  0  0  0  0
  162.0490  207.1240  154.0460 C   0  0  0  0  0  2  0  0  0  0  0  0
  160.5380  210.7040  156.1900 C   0  0  0  0  0  2  0  0  0  0  0  0
  159.0750  212.4330  151.7620 C   0  0  0  0  0  0  0  0  0  0  0  0
  157.9890  211.8270  153.7500 C   0  0  2  0  0  3  0  0  0  0  0  0
  160.0940  212.1200  150.9050 C   0  0  0  0  0  0  0  0  0  0  0  0
  157.7480  214.4530  150.9420 C   0  0  0  0  0  1  0  0  0  0  0  0
  159.9870  210.5560  152.4360 C   0  0  0  0  0  0  0  0  0  0  0  0
  1 21  1  1  0  0  0
  1  6  1  0  0  0  0
  4 22  1  0  0  0  0
  5 17  1  0  0  0  0
  6 23  1  0  0  0  0
  7  8  2  0  0  0  0
  8 10  1  0  0  0  0
  8  2  2  0  0  0  0
  9 14  1  0  0  0  0
  9 13  1  0  0  0  0
 10 28  1  0  0  0  0
 12 25  1  0  0  0  0
 13 26  1  0  0  0  0
 14  8  1  0  0  0  0
 15 11  2  0  0  0  0
 15 23  1  0  0  0  0
 16 20  1  6  0  0  0
 16  1  1  0  0  0  0
 17  3  2  0  0  0  0
 17 25  1  0  0  0  0
 18  9  2  0  0  0  0
 19 15  1  0  0  0  0
 20  4  1  0  0  0  0
 22 21  1  0  0  0  0
 24  5  1  0  0  0  0
 24 12  1  0  0  0  0
 25 19  1  1  0  0  0
 26 10  1  0  0  0  0
 26 24  2  0  0  0  0
 27  5  1  0  0  0  0
 28 12  2  0  0  0  0
 28 16  1  0  0  0  0
M  END
>  <MODEL>
7

>  <REMARK>
 VINA RESULT:      -2.5      2.644      5.003
  Name = 
  0 active torsions:
  status: ('A' for Active; 'I' for Inactive)
                            x       y       z     vdW  Elec       q    Type
                         _______ _______ _______ _____ _____    ______ ____

>  <TORSDO>
F 0

$$$$
=
 OpenBabel11122414113D

 28 32  0  0  1  0  0  0  0  0999 V2000
  156.2380  212.4660  156.0170 C   0  0  2  0  0  3  0  0  0  0  0  0
  158.5920  211.0570  157.2560 O   0  0  0  0  0  0  0  0  0  0  0  0
  158.1530  213.9030  149.8660 O   0  0  0  0  0  0  0  0  0  0  0  0
  154.8040  209.8970  156.0210 C   0  0  0  0  0  2  0  0  0  0  0  0
  159.5560  212.9270  151.5040 N   0  0  0  0  0  0  0  0  0  0  0  0
  156.4020  213.9260  155.5770 C   0  0  0  0  0  2  0  0  0  0  0  0
  159.0940  208.9900  156.0120 O   0  0  0  0  0  0  0  0  0  0  0  0
  159.3520  210.4670  156.1030 S   0  0  0  0  0  0  0  0  0  0  0  0
  161.8300  210.8400  155.0310 C   0  0  0  0  0  0  0  0  0  0  0  0
  158.9170  211.2390  154.6220 N   0  0  0  0  0  0  0  0  0  0  0  0
  154.3490  213.3760  152.8370 O   0  0  0  0  0  0  0  0  0  0  0  0
  157.8770  212.2380  152.9300 C   0  0  0  0  0  0  0  0  0  0  0  0
  161.2450  211.4250  153.8570 N   0  0  0  0  0  2  0  0  0  0  0  0
  161.0930  210.7660  156.3390 C   0  0  0  0  0  2  0  0  0  0  0  0
  155.3050  213.9700  153.3090 C   0  0  0  0  0  0  0  0  0  0  0  0
  156.3710  211.4720  154.8490 C   0  0  2  0  0  3  0  0  0  0  0  0
  158.2820  213.3350  150.9820 C   0  0  0  0  0  0  0  0  0  0  0  0
  163.4310  210.5280  155.0320 S   0  0  0  0  0  0  0  0  0  0  0  0
  156.5040  214.2590  152.4570 C   0  0  0  0  0  2  0  0  0  0  0  0
  156.1380  210.0290  155.2980 C   0  0  0  0  0  2  0  0  0  0  0  0
  154.9270  212.2690  156.7820 C   0  0  0  0  0  2  0  0  0  0  0  0
  154.7770  210.8210  157.2320 C   0  0  0  0  0  2  0  0  0  0  0  0
  155.2440  214.4530  154.7250 C   0  0  0  0  0  2  0  0  0  0  0  0
  159.1890  212.2270  152.6700 C   0  0  0  0  0  0  0  0  0  0  0  0
  157.1110  212.9810  151.8860 C   0  0  2  0  0  3  0  0  0  0  0  0
  159.8380  211.6240  153.7130 C   0  0  0  0  0  0  0  0  0  0  0  0
  160.7850  212.7560  150.7510 C   0  0  0  0  0  1  0  0  0  0  0  0
  157.6910  211.6080  154.1480 C   0  0  0  0  0  0  0  0  0  0  0  0
  1  6  1  6  0  0  0
  1 21  1  0  0  0  0
  3 17  2  0  0  0  0
  4 22  1  0  0  0  0
  5 24  1  0  0  0  0
  7  8  2  0  0  0  0
  8 14  1  0  0  0  0
  8  2  2  0  0  0  0
  9 18  2  0  0  0  0
  9 14  1  0  0  0  0
 10  8  1  0  0  0  0
 11 15  2  0  0  0  0
 12 28  2  0  0  0  0
 13  9  1  0  0  0  0
 15 23  1  0  0  0  0
 16 20  1  1  0  0  0
 16  1  1  0  0  0  0
 17  5  1  0  0  0  0
 17 25  1  0  0  0  0
 19 15  1  0  0  0  0
 20  4  1  0  0  0  0
 21 22  1  0  0  0  0
 23  6  1  0  0  0  0
 24 12  1  0  0  0  0
 24 26  2  0  0  0  0
 25 19  1  1  0  0  0
 25 12  1  0  0  0  0
 26 13  1  0  0  0  0
 26 10  1  0  0  0  0
 27  5  1  0  0  0  0
 28 10  1  0  0  0  0
 28 16  1  0  0  0  0
M  END
>  <MODEL>
8

>  <REMARK>
 VINA RESULT:      -1.6      2.536      5.481
  Name = 
  0 active torsions:
  status: ('A' for Active; 'I' for Inactive)
                            x       y       z     vdW  Elec       q    Type
                         _______ _______ _______ _____ _____    ______ ____

>  <TORSDO>
F 0

$$$$
