=
 OpenBabel11122412493D

 32 37  0  0  1  0  0  0  0  0999 V2000
  159.2740  210.4700  156.1620 C   0  0  0  0  0  2  0  0  0  0  0  0
  161.6170  207.2990  152.4560 C   0  0  1  0  0  3  0  0  0  0  0  0
  161.9560  210.8240  148.9400 C   0  0  0  0  0  3  0  0  0  0  0  0
  161.9780  209.8500  147.9400 C   0  0  0  0  0  3  0  0  0  0  0  0
  161.0540  204.9360  151.6170 C   0  0  0  0  0  0  0  0  0  0  0  0
  160.9880  204.0150  150.4780 C   0  0  0  0  0  0  0  0  0  0  0  0
  161.0870  208.1860  154.7450 C   0  0  1  0  0  3  0  0  0  0  0  0
  162.2280  209.6590  153.0630 C   0  0  0  0  0  2  0  0  0  0  0  0
  161.1110  203.3300  148.3840 N   0  0  0  0  0  0  0  0  0  0  0  0
  161.6720  210.6370  155.2860 C   0  0  0  0  0  2  0  0  0  0  0  0
  161.9100  210.4470  150.2830 C   0  0  0  0  0  3  0  0  0  0  0  0
  161.8310  208.6980  152.0330 N   0  0  0  0  0  0  0  0  0  0  0  0
  161.8770  209.0890  150.6430 C   0  0  0  0  0  0  0  0  0  0  0  0
  161.9260  206.6650  150.0260 C   0  0  2  0  0  3  0  0  0  0  0  0
  160.8470  202.1690  149.0530 O   0  0  0  0  0  0  0  0  0  0  0  0
  158.9290  208.9960  155.8830 C   0  0  0  0  0  2  0  0  0  0  0  0
  161.2370  209.6270  154.2210 C   0  0  2  0  0  3  0  0  0  0  0  0
  160.8520  202.5350  150.4340 C   0  0  0  0  0  2  0  0  0  0  0  0
  160.1330  208.0450  155.9380 C   0  0  0  0  0  2  0  0  0  0  0  0
  160.7490  210.7130  156.5080 C   0  0  1  0  0  3  0  0  0  0  0  0
  161.9480  208.4980  148.2850 C   0  0  0  0  0  3  0  0  0  0  0  0
  161.8770  208.1090  149.6310 C   0  0  0  0  0  0  0  0  0  0  0  0
  161.5050  205.7690  148.9380 N   0  0  0  0  0  2  0  0  0  0  0  0
  160.6200  207.2740  153.6160 C   0  0  0  0  0  2  0  0  0  0  0  0
  161.0090  204.4990  152.7980 O   0  0  0  0  0  0  0  0  0  0  0  0
  161.8780  203.3240  147.1500 C   0  0  0  0  0  1  0  0  0  0  0  0
  161.0950  206.4230  151.3040 C   0  0  2  0  0  3  0  0  0  0  0  0
  161.1520  204.4210  149.2660 C   0  0  0  0  0  0  0  0  0  0  0  0
  160.9070  212.0100  157.1500 N   0  0  0  0  0  2  0  0  0  0  0  0
  160.3820  213.2140  156.5910 C   0  0  0  0  0  0  0  0  0  0  0  0
  159.7280  213.1920  155.5150 O   0  0  0  0  0  0  0  0  0  0  0  0
  160.5950  214.4520  157.2600 N   0  0  0  0  0  1  0  0  0  0  0  0
  1 20  1  0  0  0  0
  2 24  1  1  0  0  0
  3 11  1  0  0  0  0
  4 21  1  0  0  0  0
  4  3  2  0  0  0  0
  5 25  2  0  0  0  0
  6  5  1  0  0  0  0
  7 24  1  6  0  0  0
  7 19  1  0  0  0  0
  9 15  1  0  0  0  0
  9 28  1  0  0  0  0
 10 20  1  0  0  0  0
 11 13  2  0  0  0  0
 12  2  1  0  0  0  0
 12  8  1  0  0  0  0
 13 12  1  0  0  0  0
 14 23  1  6  0  0  0
 14 27  1  0  0  0  0
 15 18  1  0  0  0  0
 16 19  1  0  0  0  0
 16  1  1  0  0  0  0
 17  8  1  6  0  0  0
 17  7  1  0  0  0  0
 17 10  1  0  0  0  0
 18  6  1  0  0  0  0
 20 29  1  6  0  0  0
 21 22  2  0  0  0  0
 22 14  1  0  0  0  0
 22 13  1  0  0  0  0
 23 28  1  0  0  0  0
 26  9  1  0  0  0  0
 27  5  1  1  0  0  0
 27  2  1  0  0  0  0
 28  6  2  0  0  0  0
 30 29  1  0  0  0  0
 30 32  1  0  0  0  0
 31 30  2  0  0  0  0
M  END
>  <MODEL>
1

>  <REMARK>
 VINA RESULT:      -8.7      0.000      0.000
  Name = 
  1 active torsions:
  status: ('A' for Active; 'I' for Inactive)
    1  A    between atoms: C_20  and  N_29
                            x       y       z     vdW  Elec       q    Type
                         _______ _______ _______ _____ _____    ______ ____

>  <TORSDO>
F 1

$$$$
=
 OpenBabel11122412493D

 32 37  0  0  1  0  0  0  0  0999 V2000
  162.2450  201.7400  149.9390 C   0  0  0  0  0  2  0  0  0  0  0  0
  160.6210  206.3500  152.2610 C   0  0  1  0  0  3  0  0  0  0  0  0
  162.2350  209.3350  148.6040 C   0  0  0  0  0  3  0  0  0  0  0  0
  162.3320  210.4050  149.4950 C   0  0  0  0  0  3  0  0  0  0  0  0
  160.8990  207.2590  154.6490 C   0  0  0  0  0  0  0  0  0  0  0  0
  161.1340  208.4260  155.5050 C   0  0  0  0  0  0  0  0  0  0  0  0
  160.5470  203.9180  151.6390 C   0  0  1  0  0  3  0  0  0  0  0  0
  160.3740  205.6740  149.8540 C   0  0  0  0  0  2  0  0  0  0  0  0
  161.5610  210.5240  156.0420 N   0  0  0  0  0  0  0  0  0  0  0  0
  160.3670  203.2850  149.1470 C   0  0  0  0  0  2  0  0  0  0  0  0
  161.7530  208.1010  149.0420 C   0  0  0  0  0  3  0  0  0  0  0  0
  160.8680  206.6420  150.8350 N   0  0  0  0  0  0  0  0  0  0  0  0
  161.3680  207.9190  150.3810 C   0  0  0  0  0  0  0  0  0  0  0  0
  160.9980  208.8150  152.6880 C   0  0  2  0  0  3  0  0  0  0  0  0
  161.3290  209.9540  157.2610 O   0  0  0  0  0  0  0  0  0  0  0  0
  162.3320  202.0790  151.4380 C   0  0  0  0  0  2  0  0  0  0  0  0
  160.8960  204.2810  150.1830 C   0  0  2  0  0  3  0  0  0  0  0  0
  160.9510  208.6090  156.9690 C   0  0  0  0  0  2  0  0  0  0  0  0
  161.0010  202.5150  152.0650 C   0  0  0  0  0  2  0  0  0  0  0  0
  160.8280  201.8390  149.3570 C   0  0  1  0  0  3  0  0  0  0  0  0
  161.9510  210.2380  150.8280 C   0  0  0  0  0  3  0  0  0  0  0  0
  161.4880  208.9940  151.2830 C   0  0  0  0  0  0  0  0  0  0  0  0
  161.5480  209.8220  153.6090 N   0  0  0  0  0  2  0  0  0  0  0  0
  161.1500  204.9510  152.5850 C   0  0  0  0  0  2  0  0  0  0  0  0
  160.4560  206.1850  155.1370 O   0  0  0  0  0  0  0  0  0  0  0  0
  161.2610  211.9240  155.8010 C   0  0  0  0  0  1  0  0  0  0  0  0
  161.2890  207.3830  153.1850 C   0  0  2  0  0  3  0  0  0  0  0  0
  161.4700  209.5690  155.0150 C   0  0  0  0  0  0  0  0  0  0  0  0
  160.7550  201.1230  148.0920 N   0  0  0  0  0  2  0  0  0  0  0  0
  160.9420  201.7660  146.8310 C   0  0  0  0  0  0  0  0  0  0  0  0
  161.2060  202.9960  146.7690 O   0  0  0  0  0  0  0  0  0  0  0  0
  160.8320  201.0080  145.6320 N   0  0  0  0  0  1  0  0  0  0  0  0
  1 16  1  0  0  0  0
  2 24  1  1  0  0  0
  2 27  1  0  0  0  0
  3 11  2  0  0  0  0
  3  4  1  0  0  0  0
  4 21  2  0  0  0  0
  5 25  2  0  0  0  0
  5  6  1  0  0  0  0
  6 18  1  0  0  0  0
  7 19  1  1  0  0  0
  7 24  1  0  0  0  0
  8 17  1  0  0  0  0
  8 12  1  0  0  0  0
  9 15  1  0  0  0  0
 10 20  1  0  0  0  0
 11 13  1  0  0  0  0
 12  2  1  0  0  0  0
 13 12  1  0  0  0  0
 13 22  2  0  0  0  0
 14 22  1  6  0  0  0
 14 27  1  0  0  0  0
 14 23  1  0  0  0  0
 16 19  1  0  0  0  0
 17 10  1  6  0  0  0
 17  7  1  0  0  0  0
 18 15  1  0  0  0  0
 20 29  1  6  0  0  0
 20  1  1  0  0  0  0
 21 22  1  0  0  0  0
 23 28  1  0  0  0  0
 26  9  1  0  0  0  0
 27  5  1  1  0  0  0
 28  6  2  0  0  0  0
 28  9  1  0  0  0  0
 30 29  1  0  0  0  0
 31 30  2  0  0  0  0
 32 30  1  0  0  0  0
M  END
>  <MODEL>
2

>  <REMARK>
 VINA RESULT:      -7.5      1.804      8.281
  Name = 
  1 active torsions:
  status: ('A' for Active; 'I' for Inactive)
    1  A    between atoms: C_20  and  N_29
                            x       y       z     vdW  Elec       q    Type
                         _______ _______ _______ _____ _____    ______ ____

>  <TORSDO>
F 1

$$$$
=
 OpenBabel11122412493D

 32 37  0  0  1  0  0  0  0  0999 V2000
  163.0810  210.3090  153.5310 C   0  0  0  0  0  2  0  0  0  0  0  0
  160.8760  206.9470  149.9100 C   0  0  1  0  0  3  0  0  0  0  0  0
  161.2160  202.8660  152.7610 C   0  0  0  0  0  3  0  0  0  0  0  0
  161.2150  202.0520  151.6270 C   0  0  0  0  0  3  0  0  0  0  0  0
  161.3170  206.5970  147.4020 C   0  0  0  0  0  0  0  0  0  0  0  0
  161.4220  205.6480  146.2890 C   0  0  0  0  0  0  0  0  0  0  0  0
  161.2360  209.0980  151.1550 C   0  0  1  0  0  3  0  0  0  0  0  0
  160.4110  207.0660  152.3760 C   0  0  0  0  0  2  0  0  0  0  0  0
  161.4610  203.7020  145.2490 N   0  0  0  0  0  0  0  0  0  0  0  0
  160.8130  209.1390  153.6980 C   0  0  0  0  0  2  0  0  0  0  0  0
  161.0880  204.2500  152.6280 C   0  0  0  0  0  3  0  0  0  0  0  0
  160.8290  206.2690  151.2210 N   0  0  0  0  0  0  0  0  0  0  0  0
  160.9640  204.8370  151.3580 C   0  0  0  0  0  0  0  0  0  0  0  0
  160.7700  204.6420  148.8710 C   0  0  2  0  0  3  0  0  0  0  0  0
  161.5510  204.5870  144.2120 O   0  0  0  0  0  0  0  0  0  0  0  0
  163.3240  210.3290  152.0100 C   0  0  0  0  0  2  0  0  0  0  0  0
  161.2680  208.3210  152.4850 C   0  0  2  0  0  3  0  0  0  0  0  0
  161.4330  205.8740  144.8200 C   0  0  0  0  0  2  0  0  0  0  0  0
  162.0440  210.4020  151.1680 C   0  0  0  0  0  2  0  0  0  0  0  0
  161.6050  210.4310  153.9290 C   0  0  1  0  0  3  0  0  0  0  0  0
  161.0910  202.6230  150.3590 C   0  0  0  0  0  3  0  0  0  0  0  0
  160.9860  204.0150  150.2150 C   0  0  0  0  0  0  0  0  0  0  0  0
  161.2240  203.7810  147.7690 N   0  0  0  0  0  2  0  0  0  0  0  0
  161.7390  208.2040  150.0270 C   0  0  0  0  0  2  0  0  0  0  0  0
  161.1990  207.8320  147.1820 O   0  0  0  0  0  0  0  0  0  0  0  0
  160.8310  202.4060  145.0730 C   0  0  0  0  0  1  0  0  0  0  0  0
  161.4380  206.0320  148.8080 C   0  0  2  0  0  3  0  0  0  0  0  0
  161.4220  204.3740  146.4810 C   0  0  0  0  0  0  0  0  0  0  0  0
  161.4930  210.8180  155.3280 N   0  0  0  0  0  2  0  0  0  0  0  0
  160.5900  211.8280  155.7780 C   0  0  0  0  0  0  0  0  0  0  0  0
  159.8250  212.4140  154.9680 O   0  0  0  0  0  0  0  0  0  0  0  0
  160.5510  212.1720  157.1580 N   0  0  0  0  0  1  0  0  0  0  0  0
  1 20  1  0  0  0  0
  2 24  1  1  0  0  0
  2 12  1  0  0  0  0
  4  3  2  0  0  0  0
  6 28  2  0  0  0  0
  6  5  1  0  0  0  0
  7 24  1  6  0  0  0
  7 19  1  0  0  0  0
  7 17  1  0  0  0  0
  9 28  1  0  0  0  0
 10 20  1  0  0  0  0
 11  3  1  0  0  0  0
 12 13  1  0  0  0  0
 12  8  1  0  0  0  0
 13 11  2  0  0  0  0
 14 23  1  6  0  0  0
 14 22  1  0  0  0  0
 15 18  1  0  0  0  0
 15  9  1  0  0  0  0
 16  1  1  0  0  0  0
 17  8  1  6  0  0  0
 17 10  1  0  0  0  0
 18  6  1  0  0  0  0
 19 16  1  0  0  0  0
 20 29  1  1  0  0  0
 21  4  1  0  0  0  0
 22 21  2  0  0  0  0
 22 13  1  0  0  0  0
 25  5  2  0  0  0  0
 26  9  1  0  0  0  0
 27  5  1  6  0  0  0
 27 14  1  0  0  0  0
 27  2  1  0  0  0  0
 28 23  1  0  0  0  0
 29 30  1  0  0  0  0
 30 32  1  0  0  0  0
 31 30  2  0  0  0  0
M  END
>  <MODEL>
3

>  <REMARK>
 VINA RESULT:      -7.0      2.143      4.504
  Name = 
  1 active torsions:
  status: ('A' for Active; 'I' for Inactive)
    1  A    between atoms: C_20  and  N_29
                            x       y       z     vdW  Elec       q    Type
                         _______ _______ _______ _____ _____    ______ ____

>  <TORSDO>
F 1

$$$$
