=
 OpenBabel11122413193D

 31 35  0  0  0  0  0  0  0  0999 V2000
  161.0710  207.4260  154.1080 C   0  0  0  0  0  0  0  0  0  0  0  0
  161.3110  207.0070  150.3730 C   0  0  0  0  0  0  0  0  0  0  0  0
  161.2190  205.6070  150.0980 C   0  0  0  0  0  0  0  0  0  0  0  0
  161.7920  212.1740  149.4740 O   0  0  0  0  0  0  0  0  0  0  0  0
  161.8230  211.5680  148.3690 C   0  0  0  0  0  0  0  0  0  0  0  0
  160.9820  203.2770  150.8020 C   0  0  0  0  0  0  0  0  0  0  0  0
  161.2630  207.5850  151.6780 C   0  0  0  0  0  0  0  0  0  0  0  0
  161.1730  208.8110  154.2200 C   0  0  0  0  0  3  0  0  0  0  0  0
  161.0670  204.6380  151.1070 C   0  0  0  0  0  3  0  0  0  0  0  0
  161.5600  209.2680  149.4600 C   0  0  0  0  0  0  0  0  0  0  0  0
  160.9240  206.6470  155.2470 O   0  0  0  0  0  1  0  0  0  0  0  0
  161.4320  206.0700  147.7240 C   0  0  0  0  0  3  0  0  0  0  0  0
  160.8280  202.3240  151.8450 N   0  0  0  0  0  1  0  0  0  0  0  0
  161.5080  209.7760  150.7160 N   0  0  0  0  0  0  0  0  0  0  0  0
  161.4630  207.8840  149.2610 C   0  0  0  0  0  0  0  0  0  0  0  0
  161.7130  210.1370  148.3280 N   0  0  0  0  0  2  0  0  0  0  0  0
  161.1150  206.8220  152.8500 C   0  0  0  0  0  3  0  0  0  0  0  0
  161.0450  202.8550  149.4750 C   0  0  0  0  0  3  0  0  0  0  0  0
  161.3650  208.9920  151.8110 C   0  0  0  0  0  0  0  0  0  0  0  0
  161.3200  209.5920  153.0730 C   0  0  0  0  0  3  0  0  0  0  0  0
  161.5180  207.3930  147.9950 N   0  0  0  0  0  0  0  0  0  0  0  0
  161.2820  205.1540  148.7560 C   0  0  0  0  0  0  0  0  0  0  0  0
  161.1950  203.7920  148.4530 C   0  0  0  0  0  3  0  0  0  0  0  0
  162.3740  213.7500  144.7110 C   0  0  0  0  0  0  0  0  0  0  0  0
  163.2730  212.5890  146.6310 C   0  0  0  0  0  3  0  0  0  0  0  0
  159.5670  212.5540  146.7710 O   0  0  0  0  0  1  0  0  0  0  0  0
  162.5690  214.4530  143.5310 O   0  0  0  0  0  1  0  0  0  0  0  0
  163.4720  213.2970  145.4440 C   0  0  0  0  0  3  0  0  0  0  0  0
  160.8720  212.7870  146.3540 C   0  0  0  0  0  0  0  0  0  0  0  0
  161.9770  212.3230  147.1040 C   0  0  0  0  0  0  0  0  0  0  0  0
  161.0790  213.4940  145.1660 C   0  0  0  0  0  3  0  0  0  0  0  0
  1  8  1  0  0  0  0
  1 11  1  0  0  0  0
  2  7  1  0  0  0  0
  3  2  1  0  0  0  0
  3  9  1  0  0  0  0
  5  4  2  0  0  0  0
  6  9  2  0  0  0  0
  6 13  1  0  0  0  0
  7 19  2  0  0  0  0
  7 17  1  0  0  0  0
 10 14  2  0  0  0  0
 12 21  2  0  0  0  0
 12 22  1  0  0  0  0
 14 19  1  0  0  0  0
 15 10  1  0  0  0  0
 15  2  2  0  0  0  0
 16  5  1  0  0  0  0
 16 10  1  0  0  0  0
 17  1  2  0  0  0  0
 18  6  1  0  0  0  0
 19 20  1  0  0  0  0
 20  8  2  0  0  0  0
 21 15  1  0  0  0  0
 22  3  2  0  0  0  0
 23 22  1  0  0  0  0
 23 18  2  0  0  0  0
 24 31  2  0  0  0  0
 24 28  1  0  0  0  0
 25 30  1  0  0  0  0
 27 24  1  0  0  0  0
 28 25  2  0  0  0  0
 29 26  1  0  0  0  0
 29 30  2  0  0  0  0
 30  5  1  0  0  0  0
 31 29  1  0  0  0  0
M  END
>  <MODEL>
1

>  <REMARK>
 VINA RESULT:      -9.6      0.000      0.000
  Name = 
  1 active torsions:
  status: ('A' for Active; 'I' for Inactive)
    1  A    between atoms: C_5  and  C_30
                            x       y       z     vdW  Elec       q    Type
                         _______ _______ _______ _____ _____    ______ ____

>  <TORSDO>
F 1

$$$$
=
 OpenBabel11122413193D

 31 35  0  0  0  0  0  0  0  0999 V2000
  161.0570  201.6510  150.3090 C   0  0  0  0  0  0  0  0  0  0  0  0
  161.1920  205.3450  149.5930 C   0  0  0  0  0  0  0  0  0  0  0  0
  161.3090  205.4970  148.1760 C   0  0  0  0  0  0  0  0  0  0  0  0
  160.8100  206.6980  154.6680 O   0  0  0  0  0  0  0  0  0  0  0  0
  160.8880  207.7480  153.9760 C   0  0  0  0  0  0  0  0  0  0  0  0
  161.4740  204.5890  145.9120 C   0  0  0  0  0  0  0  0  0  0  0  0
  161.1110  204.0930  150.2730 C   0  0  0  0  0  0  0  0  0  0  0  0
  160.9440  201.6610  151.6980 C   0  0  0  0  0  3  0  0  0  0  0  0
  161.3580  204.4040  147.2910 C   0  0  0  0  0  3  0  0  0  0  0  0
  161.0390  206.4570  151.7720 C   0  0  0  0  0  0  0  0  0  0  0  0
  161.0860  200.4440  149.6240 O   0  0  0  0  0  1  0  0  0  0  0  0
  161.3390  207.9100  148.4470 C   0  0  0  0  0  3  0  0  0  0  0  0
  161.5200  203.4630  145.0460 N   0  0  0  0  0  1  0  0  0  0  0  0
  160.9650  205.2460  152.3790 N   0  0  0  0  0  0  0  0  0  0  0  0
  161.1540  206.5330  150.3780 C   0  0  0  0  0  0  0  0  0  0  0  0
  161.0020  207.6640  152.5480 N   0  0  0  0  0  2  0  0  0  0  0  0
  161.1380  202.8550  149.6070 C   0  0  0  0  0  3  0  0  0  0  0  0
  161.5440  205.8780  145.3850 C   0  0  0  0  0  3  0  0  0  0  0  0
  160.9960  204.0830  151.6850 C   0  0  0  0  0  0  0  0  0  0  0  0
  160.9140  202.8750  152.3850 C   0  0  0  0  0  3  0  0  0  0  0  0
  161.2280  207.7560  149.7870 N   0  0  0  0  0  0  0  0  0  0  0  0
  161.3820  206.7980  147.6180 C   0  0  0  0  0  0  0  0  0  0  0  0
  161.4980  206.9820  146.2370 C   0  0  0  0  0  3  0  0  0  0  0  0
  160.7650  211.6430  155.7830 C   0  0  0  0  0  0  0  0  0  0  0  0
  160.2350  210.1440  153.9630 C   0  0  0  0  0  3  0  0  0  0  0  0
  162.0830  208.3030  156.5990 O   0  0  0  0  0  1  0  0  0  0  0  0
  160.7160  212.9060  156.3540 O   0  0  0  0  0  1  0  0  0  0  0  0
  160.1850  211.4170  154.5340 C   0  0  0  0  0  3  0  0  0  0  0  0
  161.4480  209.3180  155.8930 C   0  0  0  0  0  0  0  0  0  0  0  0
  160.8640  209.0790  154.6280 C   0  0  0  0  0  0  0  0  0  0  0  0
  161.3940  210.5950  156.4590 C   0  0  0  0  0  3  0  0  0  0  0  0
  1  8  1  0  0  0  0
  2  7  1  0  0  0  0
  2 15  1  0  0  0  0
  3  2  2  0  0  0  0
  5 30  1  0  0  0  0
  5  4  2  0  0  0  0
  6  9  2  0  0  0  0
  7 19  2  0  0  0  0
  8 20  2  0  0  0  0
  9  3  1  0  0  0  0
 10 14  2  0  0  0  0
 10 16  1  0  0  0  0
 11  1  1  0  0  0  0
 12 21  1  0  0  0  0
 13  6  1  0  0  0  0
 15 10  1  0  0  0  0
 16  5  1  0  0  0  0
 17  7  1  0  0  0  0
 17  1  2  0  0  0  0
 18  6  1  0  0  0  0
 18 23  2  0  0  0  0
 19 14  1  0  0  0  0
 19 20  1  0  0  0  0
 21 15  2  0  0  0  0
 22  3  1  0  0  0  0
 22 12  2  0  0  0  0
 23 22  1  0  0  0  0
 24 27  1  0  0  0  0
 24 31  1  0  0  0  0
 25 28  1  0  0  0  0
 25 30  2  0  0  0  0
 28 24  2  0  0  0  0
 29 31  2  0  0  0  0
 29 26  1  0  0  0  0
 30 29  1  0  0  0  0
M  END
>  <MODEL>
2

>  <REMARK>
 VINA RESULT:      -9.4      4.343      6.952
  Name = 
  1 active torsions:
  status: ('A' for Active; 'I' for Inactive)
    1  A    between atoms: C_5  and  C_30
                            x       y       z     vdW  Elec       q    Type
                         _______ _______ _______ _____ _____    ______ ____

>  <TORSDO>
F 1

$$$$
=
 OpenBabel11122413193D

 31 35  0  0  0  0  0  0  0  0999 V2000
  161.1200  205.3670  153.3190 C   0  0  0  0  0  0  0  0  0  0  0  0
  161.2840  205.7420  149.5760 C   0  0  0  0  0  0  0  0  0  0  0  0
  161.2060  204.4280  149.0160 C   0  0  0  0  0  0  0  0  0  0  0  0
  161.6700  210.9910  149.7690 O   0  0  0  0  0  0  0  0  0  0  0  0
  161.6860  210.6290  148.5620 C   0  0  0  0  0  0  0  0  0  0  0  0
  161.0170  201.9990  149.2210 C   0  0  0  0  0  0  0  0  0  0  0  0
  161.2550  206.0330  150.9730 C   0  0  0  0  0  0  0  0  0  0  0  0
  161.2040  206.7000  153.7170 C   0  0  0  0  0  3  0  0  0  0  0  0
  161.0900  203.2670  149.8020 C   0  0  0  0  0  3  0  0  0  0  0  0
  161.4800  208.1480  149.1510 C   0  0  0  0  0  0  0  0  0  0  0  0
  161.0090  204.3640  154.2730 O   0  0  0  0  0  1  0  0  0  0  0  0
  161.3590  205.3820  146.7870 C   0  0  0  0  0  3  0  0  0  0  0  0
  160.9010  200.8470  150.0440 N   0  0  0  0  0  1  0  0  0  0  0  0
  161.4480  208.3810  150.4870 N   0  0  0  0  0  0  0  0  0  0  0  0
  161.3990  206.8350  148.6700 C   0  0  0  0  0  0  0  0  0  0  0  0
  161.5960  209.2370  148.2240 N   0  0  0  0  0  2  0  0  0  0  0  0
  161.1450  205.0390  151.9620 C   0  0  0  0  0  3  0  0  0  0  0  0
  161.0580  201.8650  147.8330 C   0  0  0  0  0  3  0  0  0  0  0  0
  161.3410  207.3830  151.3960 C   0  0  0  0  0  0  0  0  0  0  0  0
  161.3150  207.7050  152.7560 C   0  0  0  0  0  3  0  0  0  0  0  0
  161.4330  206.6200  147.3270 N   0  0  0  0  0  0  0  0  0  0  0  0
  161.2460  204.2680  147.6080 C   0  0  0  0  0  0  0  0  0  0  0  0
  161.1720  202.9980  147.0280 C   0  0  0  0  0  3  0  0  0  0  0  0
  161.9240  213.5220  145.3960 C   0  0  0  0  0  0  0  0  0  0  0  0
  160.7160  211.8160  146.6090 C   0  0  0  0  0  3  0  0  0  0  0  0
  164.0680  212.2880  148.1220 O   0  0  0  0  0  1  0  0  0  0  0  0
  161.9850  214.4530  144.3690 O   0  0  0  0  0  1  0  0  0  0  0  0
  160.7740  212.7520  145.5740 C   0  0  0  0  0  3  0  0  0  0  0  0
  162.9620  212.4210  147.2920 C   0  0  0  0  0  0  0  0  0  0  0  0
  161.8020  211.6350  147.4800 C   0  0  0  0  0  0  0  0  0  0  0  0
  163.0140  213.3560  146.2540 C   0  0  0  0  0  3  0  0  0  0  0  0
  1  8  1  0  0  0  0
  1 11  1  0  0  0  0
  2  7  1  0  0  0  0
  3  2  1  0  0  0  0
  3  9  1  0  0  0  0
  5  4  2  0  0  0  0
  6  9  2  0  0  0  0
  6 13  1  0  0  0  0
  7 19  2  0  0  0  0
  7 17  1  0  0  0  0
 10 14  2  0  0  0  0
 12 21  2  0  0  0  0
 12 22  1  0  0  0  0
 14 19  1  0  0  0  0
 15 10  1  0  0  0  0
 15  2  2  0  0  0  0
 16  5  1  0  0  0  0
 16 10  1  0  0  0  0
 17  1  2  0  0  0  0
 18  6  1  0  0  0  0
 19 20  1  0  0  0  0
 20  8  2  0  0  0  0
 21 15  1  0  0  0  0
 22  3  2  0  0  0  0
 23 22  1  0  0  0  0
 23 18  2  0  0  0  0
 24 28  2  0  0  0  0
 24 31  1  0  0  0  0
 25 30  2  0  0  0  0
 27 24  1  0  0  0  0
 28 25  1  0  0  0  0
 29 30  1  0  0  0  0
 29 26  1  0  0  0  0
 30  5  1  0  0  0  0
 31 29  2  0  0  0  0
M  END
>  <MODEL>
3

>  <REMARK>
 VINA RESULT:      -8.6      1.359      1.931
  Name = 
  1 active torsions:
  status: ('A' for Active; 'I' for Inactive)
    1  A    between atoms: C_5  and  C_30
                            x       y       z     vdW  Elec       q    Type
                         _______ _______ _______ _____ _____    ______ ____

>  <TORSDO>
F 1

$$$$
=
 OpenBabel11122413193D

 31 35  0  0  0  0  0  0  0  0999 V2000
  161.2080  205.4760  145.6410 C   0  0  0  0  0  0  0  0  0  0  0  0
  161.2060  204.4460  149.2630 C   0  0  0  0  0  0  0  0  0  0  0  0
  161.2060  203.0170  149.2960 C   0  0  0  0  0  0  0  0  0  0  0  0
  161.2030  209.4070  151.0340 O   0  0  0  0  0  0  0  0  0  0  0  0
  161.2040  208.6250  152.0230 C   0  0  0  0  0  0  0  0  0  0  0  0
  161.2060  200.8300  148.2030 C   0  0  0  0  0  0  0  0  0  0  0  0
  161.2060  205.2330  148.0720 C   0  0  0  0  0  0  0  0  0  0  0  0
  161.2080  206.8640  145.7670 C   0  0  0  0  0  3  0  0  0  0  0  0
  161.2070  202.2250  148.1340 C   0  0  0  0  0  3  0  0  0  0  0  0
  161.2040  206.5310  150.5530 C   0  0  0  0  0  0  0  0  0  0  0  0
  161.2090  204.8930  144.3810 O   0  0  0  0  0  1  0  0  0  0  0  0
  161.2030  203.0840  151.7240 C   0  0  0  0  0  3  0  0  0  0  0  0
  161.2070  200.0600  147.0090 N   0  0  0  0  0  1  0  0  0  0  0  0
  161.2050  207.2400  149.3960 N   0  0  0  0  0  0  0  0  0  0  0  0
  161.2040  205.1310  150.5130 C   0  0  0  0  0  0  0  0  0  0  0  0
  161.2030  207.2050  151.8200 N   0  0  0  0  0  2  0  0  0  0  0  0
  161.2070  204.6710  146.7820 C   0  0  0  0  0  3  0  0  0  0  0  0
  161.2050  200.1940  149.4440 C   0  0  0  0  0  3  0  0  0  0  0  0
  161.2060  206.6460  148.1790 C   0  0  0  0  0  0  0  0  0  0  0  0
  161.2070  207.4470  147.0340 C   0  0  0  0  0  3  0  0  0  0  0  0
  161.2030  204.4370  151.6820 N   0  0  0  0  0  0  0  0  0  0  0  0
  161.2040  202.3490  150.5470 C   0  0  0  0  0  0  0  0  0  0  0  0
  161.2040  200.9520  150.6150 C   0  0  0  0  0  3  0  0  0  0  0  0
  161.2240  210.2810  155.9860 C   0  0  0  0  0  0  0  0  0  0  0  0
  161.5190  210.5180  153.5990 C   0  0  0  0  0  3  0  0  0  0  0  0
  160.5700  207.0230  154.4010 O   0  0  0  0  0  1  0  0  0  0  0  0
  161.2340  210.8310  157.2600 O   0  0  0  0  0  1  0  0  0  0  0  0
  161.5310  211.0740  154.8800 C   0  0  0  0  0  3  0  0  0  0  0  0
  160.8920  208.3690  154.5310 C   0  0  0  0  0  0  0  0  0  0  0  0
  161.2020  209.1640  153.4040 C   0  0  0  0  0  0  0  0  0  0  0  0
  160.9060  208.9330  155.8100 C   0  0  0  0  0  3  0  0  0  0  0  0
  1  8  2  0  0  0  0
  1 17  1  0  0  0  0
  2  3  2  0  0  0  0
  2 15  1  0  0  0  0
  3 22  1  0  0  0  0
  4  5  2  0  0  0  0
  5 30  1  0  0  0  0
  6 18  1  0  0  0  0
  7 19  1  0  0  0  0
  7  2  1  0  0  0  0
  8 20  1  0  0  0  0
  9  6  2  0  0  0  0
  9  3  1  0  0  0  0
 10 16  1  0  0  0  0
 11  1  1  0  0  0  0
 13  6  1  0  0  0  0
 14 10  2  0  0  0  0
 15 10  1  0  0  0  0
 15 21  2  0  0  0  0
 16  5  1  0  0  0  0
 17  7  2  0  0  0  0
 18 23  2  0  0  0  0
 19 14  1  0  0  0  0
 20 19  2  0  0  0  0
 21 12  1  0  0  0  0
 22 23  1  0  0  0  0
 22 12  2  0  0  0  0
 24 27  1  0  0  0  0
 25 28  1  0  0  0  0
 26 29  1  0  0  0  0
 28 24  2  0  0  0  0
 29 31  2  0  0  0  0
 30 25  2  0  0  0  0
 30 29  1  0  0  0  0
 31 24  1  0  0  0  0
M  END
>  <MODEL>
4

>  <REMARK>
 VINA RESULT:      -8.6      3.608      6.909
  Name = 
  1 active torsions:
  status: ('A' for Active; 'I' for Inactive)
    1  A    between atoms: C_5  and  C_30
                            x       y       z     vdW  Elec       q    Type
                         _______ _______ _______ _____ _____    ______ ____

>  <TORSDO>
F 1

$$$$
=
 OpenBabel11122413193D

 31 35  0  0  0  0  0  0  0  0999 V2000
  161.8330  210.6750  149.9940 C   0  0  0  0  0  0  0  0  0  0  0  0
  161.3170  207.1880  151.3180 C   0  0  0  0  0  0  0  0  0  0  0  0
  161.1800  207.2910  152.7380 C   0  0  0  0  0  0  0  0  0  0  0  0
  161.5740  204.9640  146.5510 O   0  0  0  0  0  0  0  0  0  0  0  0
  161.3860  204.0590  147.4080 C   0  0  0  0  0  0  0  0  0  0  0  0
  161.1030  208.5810  154.8130 C   0  0  0  0  0  0  0  0  0  0  0  0
  161.5290  208.2920  150.4390 C   0  0  0  0  0  0  0  0  0  0  0  0
  161.9470  210.4190  148.6290 C   0  0  0  0  0  3  0  0  0  0  0  0
  161.2410  208.5170  153.4250 C   0  0  0  0  0  3  0  0  0  0  0  0
  161.3620  205.7140  149.3600 C   0  0  0  0  0  0  0  0  0  0  0  0
  161.9240  211.9770  150.4650 O   0  0  0  0  0  1  0  0  0  0  0  0
  160.9060  204.8820  152.8750 C   0  0  0  0  0  3  0  0  0  0  0  0
  161.1700  209.8360  155.4770 N   0  0  0  0  0  1  0  0  0  0  0  0
  161.5620  206.7910  148.5600 N   0  0  0  0  0  0  0  0  0  0  0  0
  161.2360  205.8860  150.7450 C   0  0  0  0  0  0  0  0  0  0  0  0
  161.2780  204.3950  148.7990 N   0  0  0  0  0  2  0  0  0  0  0  0
  161.6260  209.6220  150.8870 C   0  0  0  0  0  3  0  0  0  0  0  0
  160.9000  207.4130  155.5480 C   0  0  0  0  0  3  0  0  0  0  0  0
  161.6480  208.0520  149.0480 C   0  0  0  0  0  0  0  0  0  0  0  0
  161.8550  209.1090  148.1570 C   0  0  0  0  0  3  0  0  0  0  0  0
  161.0370  204.7950  151.5310 N   0  0  0  0  0  0  0  0  0  0  0  0
  160.9730  206.1170  153.5050 C   0  0  0  0  0  0  0  0  0  0  0  0
  160.8350  206.1820  154.8950 C   0  0  0  0  0  3  0  0  0  0  0  0
  161.1050  199.9220  146.2910 C   0  0  0  0  0  0  0  0  0  0  0  0
  161.6500  201.6400  147.9010 C   0  0  0  0  0  3  0  0  0  0  0  0
  160.4280  203.2050  144.7680 O   0  0  0  0  0  1  0  0  0  0  0  0
  161.0190  198.5810  145.9450 O   0  0  0  0  0  1  0  0  0  0  0  0
  161.5650  200.2900  147.5560 C   0  0  0  0  0  3  0  0  0  0  0  0
  160.8120  202.2590  145.7110 C   0  0  0  0  0  0  0  0  0  0  0  0
  161.2770  202.6420  146.9900 C   0  0  0  0  0  0  0  0  0  0  0  0
  160.7290  200.9050  145.3730 C   0  0  0  0  0  3  0  0  0  0  0  0
  1 11  1  0  0  0  0
  1 17  1  0  0  0  0
  2  3  1  0  0  0  0
  3  9  2  0  0  0  0
  3 22  1  0  0  0  0
  4  5  2  0  0  0  0
  5 16  1  0  0  0  0
  6 13  1  0  0  0  0
  6 18  2  0  0  0  0
  7 17  2  0  0  0  0
  7  2  1  0  0  0  0
  8  1  2  0  0  0  0
  9  6  1  0  0  0  0
 10 15  1  0  0  0  0
 12 22  1  0  0  0  0
 14 19  1  0  0  0  0
 14 10  2  0  0  0  0
 15  2  2  0  0  0  0
 15 21  1  0  0  0  0
 16 10  1  0  0  0  0
 19  7  1  0  0  0  0
 20  8  1  0  0  0  0
 20 19  2  0  0  0  0
 21 12  2  0  0  0  0
 22 23  2  0  0  0  0
 23 18  1  0  0  0  0
 24 28  1  0  0  0  0
 26 29  1  0  0  0  0
 27 24  1  0  0  0  0
 28 25  2  0  0  0  0
 29 30  2  0  0  0  0
 30  5  1  0  0  0  0
 30 25  1  0  0  0  0
 31 29  1  0  0  0  0
 31 24  2  0  0  0  0
M  END
>  <MODEL>
5

>  <REMARK>
 VINA RESULT:      -8.2      3.728      7.789
  Name = 
  1 active torsions:
  status: ('A' for Active; 'I' for Inactive)
    1  A    between atoms: C_5  and  C_30
                            x       y       z     vdW  Elec       q    Type
                         _______ _______ _______ _____ _____    ______ ____

>  <TORSDO>
F 1

$$$$
=
 OpenBabel11122413193D

 31 35  0  0  0  0  0  0  0  0999 V2000
  161.8360  210.6950  149.9900 C   0  0  0  0  0  0  0  0  0  0  0  0
  161.3250  207.2290  151.3700 C   0  0  0  0  0  0  0  0  0  0  0  0
  161.1950  207.3540  152.7890 C   0  0  0  0  0  0  0  0  0  0  0  0
  161.5560  204.9330  146.6360 O   0  0  0  0  0  0  0  0  0  0  0  0
  161.3720  204.0420  147.5080 C   0  0  0  0  0  0  0  0  0  0  0  0
  161.1300  208.6750  154.8450 C   0  0  0  0  0  0  0  0  0  0  0  0
  161.5330  208.3200  150.4730 C   0  0  0  0  0  0  0  0  0  0  0  0
  161.9430  210.4190  148.6290 C   0  0  0  0  0  3  0  0  0  0  0  0
  161.2600  208.5900  153.4570 C   0  0  0  0  0  3  0  0  0  0  0  0
  161.3590  205.7260  149.4340 C   0  0  0  0  0  0  0  0  0  0  0  0
  161.9300  212.0040  150.4420 O   0  0  0  0  0  1  0  0  0  0  0  0
  160.9200  204.9470  152.9640 C   0  0  0  0  0  3  0  0  0  0  0  0
  161.2010  209.9400  155.4890 N   0  0  0  0  0  1  0  0  0  0  0  0
  161.5550  206.7900  148.6170 N   0  0  0  0  0  0  0  0  0  0  0  0
  161.2400  205.9190  150.8170 C   0  0  0  0  0  0  0  0  0  0  0  0
  161.2720  204.3990  148.8940 N   0  0  0  0  0  2  0  0  0  0  0  0
  161.6330  209.6560  150.9010 C   0  0  0  0  0  3  0  0  0  0  0  0
  160.9300  207.5180  155.5980 C   0  0  0  0  0  3  0  0  0  0  0  0
  161.6440  208.0580  149.0850 C   0  0  0  0  0  0  0  0  0  0  0  0
  161.8470  209.1020  148.1780 C   0  0  0  0  0  3  0  0  0  0  0  0
  161.0440  204.8400  151.6210 N   0  0  0  0  0  0  0  0  0  0  0  0
  160.9920  206.1910  153.5750 C   0  0  0  0  0  0  0  0  0  0  0  0
  160.8610  206.2780  154.9640 C   0  0  0  0  0  3  0  0  0  0  0  0
  161.0290  199.9460  146.2610 C   0  0  0  0  0  0  0  0  0  0  0  0
  160.9860  202.3120  145.7690 C   0  0  0  0  0  3  0  0  0  0  0  0
  161.6900  201.7980  149.3740 O   0  0  0  0  0  1  0  0  0  0  0  0
  160.9170  198.6280  145.8420 O   0  0  0  0  0  1  0  0  0  0  0  0
  160.8720  200.9860  145.3450 C   0  0  0  0  0  3  0  0  0  0  0  0
  161.4180  201.5570  148.0330 C   0  0  0  0  0  0  0  0  0  0  0  0
  161.2600  202.6180  147.1120 C   0  0  0  0  0  0  0  0  0  0  0  0
  161.3020  200.2320  147.6010 C   0  0  0  0  0  3  0  0  0  0  0  0
  1 11  1  0  0  0  0
  1 17  1  0  0  0  0
  2  3  1  0  0  0  0
  3  9  2  0  0  0  0
  3 22  1  0  0  0  0
  4  5  2  0  0  0  0
  5 16  1  0  0  0  0
  6 13  1  0  0  0  0
  6 18  2  0  0  0  0
  7 17  2  0  0  0  0
  7  2  1  0  0  0  0
  8  1  2  0  0  0  0
  9  6  1  0  0  0  0
 10 15  1  0  0  0  0
 12 22  1  0  0  0  0
 14 19  1  0  0  0  0
 14 10  2  0  0  0  0
 15  2  2  0  0  0  0
 15 21  1  0  0  0  0
 16 10  1  0  0  0  0
 19  7  1  0  0  0  0
 20  8  1  0  0  0  0
 20 19  2  0  0  0  0
 21 12  2  0  0  0  0
 22 23  2  0  0  0  0
 23 18  1  0  0  0  0
 24 31  1  0  0  0  0
 25 30  2  0  0  0  0
 27 24  1  0  0  0  0
 28 25  1  0  0  0  0
 28 24  2  0  0  0  0
 29 26  1  0  0  0  0
 30  5  1  0  0  0  0
 30 29  1  0  0  0  0
 31 29  2  0  0  0  0
M  END
>  <MODEL>
6

>  <REMARK>
 VINA RESULT:      -7.6      3.580      7.896
  Name = 
  1 active torsions:
  status: ('A' for Active; 'I' for Inactive)
    1  A    between atoms: C_5  and  C_30
                            x       y       z     vdW  Elec       q    Type
                         _______ _______ _______ _____ _____    ______ ____

>  <TORSDO>
F 1

$$$$
