=
 OpenBabel11122414073D

 28 32  0  0  1  0  0  0  0  0999 V2000
  158.8620  213.3670  142.1910 C   0  0  0  0  0  0  0  0  0  0  0  0
  162.0400  214.4530  141.4950 O   0  0  0  0  0  0  0  0  0  0  0  0
  159.1420  209.1320  137.4350 O   0  0  0  0  0  0  0  0  0  0  0  0
  159.4750  212.1990  144.6650 C   0  0  0  0  0  3  0  0  0  0  0  0
  160.9970  209.1510  138.8760 N   0  0  0  0  0  0  0  0  0  0  0  0
  158.4840  213.9920  140.8850 C   0  0  0  0  0  2  0  0  0  0  0  0
  164.1610  213.2520  141.8240 O   0  0  0  0  0  0  0  0  0  0  0  0
  162.8950  213.3130  141.0180 S   0  0  0  0  0  0  0  0  0  0  0  0
  162.9110  212.5420  138.3920 C   0  0  0  0  0  0  0  0  0  0  0  0
  162.0300  211.7670  141.1650 C   0  0  2  0  0  3  0  0  0  0  0  0
  156.2870  211.6720  139.0820 O   0  0  0  0  0  0  0  0  0  0  0  0
  160.0680  210.4680  140.6420 C   0  0  2  0  0  3  0  0  0  0  0  0
  162.4950  211.3590  138.7390 N   0  0  0  0  0  0  0  0  0  0  0  0
  163.2800  213.5250  139.3550 N   0  0  0  0  0  2  0  0  0  0  0  0
  157.3590  212.2310  139.4340 C   0  0  0  0  0  0  0  0  0  0  0  0
  159.8370  212.3530  142.2670 C   0  0  0  0  0  0  0  0  0  0  0  0
  159.6880  209.5270  138.5000 C   0  0  0  0  0  0  0  0  0  0  0  0
  162.9520  212.8820  137.0120 N   0  0  0  0  0  1  0  0  0  0  0  0
  158.6560  211.7370  138.8780 C   0  0  0  0  0  2  0  0  0  0  0  0
  160.1310  211.7710  143.5090 C   0  0  0  0  0  3  0  0  0  0  0  0
  158.2050  213.7870  143.3540 C   0  0  0  0  0  3  0  0  0  0  0  0
  158.5140  213.2090  144.5870 C   0  0  0  0  0  3  0  0  0  0  0  0
  157.3040  213.3370  140.3400 N   0  0  0  0  0  2  0  0  0  0  0  0
  161.3320  209.7210  140.1700 C   0  0  2  0  0  3  0  0  0  0  0  0
  159.0210  210.3900  139.5000 C   0  0  2  0  0  3  0  0  0  0  0  0
  162.4470  210.7730  140.0920 C   0  0  2  0  0  3  0  0  0  0  0  0
  161.8280  208.1960  138.1610 C   0  0  0  0  0  1  0  0  0  0  0  0
  160.5240  211.8760  141.0200 C   0  0  1  0  0  3  0  0  0  0  0  0
  1 16  2  0  0  0  0
  1 21  1  0  0  0  0
  3 17  2  0  0  0  0
  5 24  1  0  0  0  0
  6  1  1  0  0  0  0
  8  2  2  0  0  0  0
  8  7  2  0  0  0  0
  9 13  2  0  0  0  0
  9 14  1  0  0  0  0
 10  8  1  6  0  0  0
 11 15  2  0  0  0  0
 12 28  1  0  0  0  0
 13 26  1  0  0  0  0
 14  8  1  0  0  0  0
 15 23  1  0  0  0  0
 16 20  1  0  0  0  0
 17  5  1  0  0  0  0
 17 25  1  0  0  0  0
 18  9  1  0  0  0  0
 19 15  1  0  0  0  0
 19 25  1  0  0  0  0
 20  4  2  0  0  0  0
 21 22  2  0  0  0  0
 22  4  1  0  0  0  0
 23  6  1  0  0  0  0
 24 12  1  0  0  0  0
 25 12  1  0  0  0  0
 26 24  1  0  0  0  0
 26 10  1  0  0  0  0
 27  5  1  0  0  0  0
 28 10  1  0  0  0  0
 28 16  1  0  0  0  0
M  END
>  <MODEL>
1

>  <REMARK>
 VINA RESULT:      -2.5      0.000      0.000
  Name = 
  0 active torsions:
  status: ('A' for Active; 'I' for Inactive)
                            x       y       z     vdW  Elec       q    Type
                         _______ _______ _______ _____ _____    ______ ____

>  <TORSDO>
F 0

$$$$
=
 OpenBabel11122414073D

 28 32  0  0  1  0  0  0  0  0999 V2000
  159.4780  212.6240  142.9370 C   0  0  0  0  0  0  0  0  0  0  0  0
  158.4930  210.4120  140.5080 O   0  0  0  0  0  0  0  0  0  0  0  0
  164.6590  214.1930  139.5700 O   0  0  0  0  0  0  0  0  0  0  0  0
  157.3890  214.4520  142.5480 C   0  0  0  0  0  3  0  0  0  0  0  0
  162.6400  214.1910  138.3680 N   0  0  0  0  0  0  0  0  0  0  0  0
  160.6010  211.6680  143.1920 C   0  0  0  0  0  2  0  0  0  0  0  0
  157.6650  210.9100  138.2450 O   0  0  0  0  0  0  0  0  0  0  0  0
  158.8690  210.9220  139.1450 S   0  0  0  0  0  0  0  0  0  0  0  0
  161.3610  210.4920  138.0970 C   0  0  0  0  0  0  0  0  0  0  0  0
  159.5130  212.5750  139.2430 C   0  0  2  0  0  3  0  0  0  0  0  0
  163.6990  213.5950  143.5750 O   0  0  0  0  0  0  0  0  0  0  0  0
  161.1230  214.0850  140.2130 C   0  0  2  0  0  3  0  0  0  0  0  0
  161.5490  211.7770  138.0230 N   0  0  0  0  0  0  0  0  0  0  0  0
  160.1030  209.9330  138.4700 N   0  0  0  0  0  2  0  0  0  0  0  0
  162.8030  212.9270  142.9960 C   0  0  0  0  0  0  0  0  0  0  0  0
  159.2890  213.2160  141.6730 C   0  0  0  0  0  0  0  0  0  0  0  0
  163.4010  214.1240  139.5580 C   0  0  0  0  0  0  0  0  0  0  0  0
  162.4540  209.6180  137.8480 N   0  0  0  0  0  1  0  0  0  0  0  0
  162.8920  212.7130  141.5180 C   0  0  0  0  0  2  0  0  0  0  0  0
  158.2440  214.1360  141.4910 C   0  0  0  0  0  3  0  0  0  0  0  0
  158.6190  212.9500  143.9930 C   0  0  0  0  0  3  0  0  0  0  0  0
  157.5750  213.8580  143.7980 C   0  0  0  0  0  3  0  0  0  0  0  0
  161.7360  212.3720  143.7710 N   0  0  0  0  0  2  0  0  0  0  0  0
  161.2210  214.1330  138.6750 C   0  0  2  0  0  3  0  0  0  0  0  0
  162.5670  214.0080  140.7740 C   0  0  2  0  0  3  0  0  0  0  0  0
  160.5480  212.8520  138.1620 C   0  0  2  0  0  3  0  0  0  0  0  0
  163.1830  214.4510  137.0460 C   0  0  0  0  0  1  0  0  0  0  0  0
  160.2250  212.8940  140.5440 C   0  0  1  0  0  3  0  0  0  0  0  0
  1  6  1  0  0  0  0
  1 21  1  0  0  0  0
  4 22  1  0  0  0  0
  5 24  1  0  0  0  0
  5 17  1  0  0  0  0
  6 23  1  0  0  0  0
  7  8  2  0  0  0  0
  8  2  2  0  0  0  0
  9 14  1  0  0  0  0
 10  8  1  1  0  0  0
 10 28  1  0  0  0  0
 12 28  1  0  0  0  0
 12 25  1  0  0  0  0
 13  9  2  0  0  0  0
 13 26  1  0  0  0  0
 14  8  1  0  0  0  0
 15 11  2  0  0  0  0
 15 23  1  0  0  0  0
 16  1  2  0  0  0  0
 17  3  2  0  0  0  0
 17 25  1  0  0  0  0
 18  9  1  0  0  0  0
 19 15  1  0  0  0  0
 20 16  1  0  0  0  0
 20  4  2  0  0  0  0
 22 21  2  0  0  0  0
 24 12  1  0  0  0  0
 25 19  1  0  0  0  0
 26 24  1  0  0  0  0
 26 10  1  0  0  0  0
 27  5  1  0  0  0  0
 28 16  1  0  0  0  0
M  END
>  <MODEL>
2

>  <REMARK>
 VINA RESULT:      -1.8      2.144      4.788
  Name = 
  0 active torsions:
  status: ('A' for Active; 'I' for Inactive)
                            x       y       z     vdW  Elec       q    Type
                         _______ _______ _______ _____ _____    ______ ____

>  <TORSDO>
F 0

$$$$
=
 OpenBabel11122414073D

 28 32  0  0  1  0  0  0  0  0999 V2000
  157.7740  212.8090  154.3970 C   0  0  0  0  0  0  0  0  0  0  0  0
  159.8190  211.5110  156.8240 O   0  0  0  0  0  0  0  0  0  0  0  0
  161.9230  211.1550  149.8490 O   0  0  0  0  0  0  0  0  0  0  0  0
  155.7270  210.9150  154.6790 C   0  0  0  0  0  3  0  0  0  0  0  0
  161.4100  209.4710  151.4050 N   0  0  0  0  0  0  0  0  0  0  0  0
  158.8320  213.8530  154.2220 C   0  0  0  0  0  2  0  0  0  0  0  0
  160.3470  209.1480  157.2610 O   0  0  0  0  0  0  0  0  0  0  0  0
  160.5420  210.2970  156.3120 S   0  0  0  0  0  0  0  0  0  0  0  0
  162.8730  210.5140  154.8930 C   0  0  0  0  0  0  0  0  0  0  0  0
  159.9450  209.8360  154.7020 C   0  0  2  0  0  3  0  0  0  0  0  0
  159.3830  214.3570  150.6310 O   0  0  0  0  0  0  0  0  0  0  0  0
  159.5040  210.4910  152.4250 C   0  0  2  0  0  3  0  0  0  0  0  0
  162.3080  209.9250  153.8800 N   0  0  0  0  0  0  0  0  0  0  0  0
  162.2210  210.6370  156.1550 N   0  0  0  0  0  2  0  0  0  0  0  0
  159.5550  213.8810  151.7840 C   0  0  0  0  0  0  0  0  0  0  0  0
  158.0560  211.4400  154.2280 C   0  0  0  0  0  0  0  0  0  0  0  0
  161.2180  210.7360  150.8060 C   0  0  0  0  0  0  0  0  0  0  0  0
  164.1580  211.0990  154.7240 N   0  0  0  0  0  1  0  0  0  0  0  0
  160.5770  212.8080  151.9850 C   0  0  0  0  0  2  0  0  0  0  0  0
  157.0220  210.5010  154.3650 C   0  0  0  0  0  3  0  0  0  0  0  0
  156.4710  213.2170  154.7080 C   0  0  0  0  0  3  0  0  0  0  0  0
  155.4520  212.2730  154.8530 C   0  0  0  0  0  3  0  0  0  0  0  0
  158.7830  214.3960  152.8730 N   0  0  0  0  0  2  0  0  0  0  0  0
  160.4190  209.2500  152.4440 C   0  0  2  0  0  3  0  0  0  0  0  0
  160.0860  211.4890  151.3900 C   0  0  2  0  0  3  0  0  0  0  0  0
  161.0290  209.1910  153.8520 C   0  0  2  0  0  3  0  0  0  0  0  0
  162.3500  208.4630  150.9400 C   0  0  0  0  0  1  0  0  0  0  0  0
  159.4440  210.9970  153.8650 C   0  0  1  0  0  3  0  0  0  0  0  0
  1 21  1  0  0  0  0
  3 17  2  0  0  0  0
  4 22  1  0  0  0  0
  5 24  1  0  0  0  0
  6  1  1  0  0  0  0
  8  2  2  0  0  0  0
  8  7  2  0  0  0  0
  9 14  1  0  0  0  0
 10  8  1  1  0  0  0
 11 15  2  0  0  0  0
 12 24  1  0  0  0  0
 12 28  1  0  0  0  0
 13  9  2  0  0  0  0
 14  8  1  0  0  0  0
 15 19  1  0  0  0  0
 15 23  1  0  0  0  0
 16 20  1  0  0  0  0
 16  1  2  0  0  0  0
 17 25  1  0  0  0  0
 17  5  1  0  0  0  0
 18  9  1  0  0  0  0
 20  4  2  0  0  0  0
 21 22  2  0  0  0  0
 23  6  1  0  0  0  0
 24 26  1  0  0  0  0
 25 19  1  0  0  0  0
 25 12  1  0  0  0  0
 26 13  1  0  0  0  0
 26 10  1  0  0  0  0
 27  5  1  0  0  0  0
 28 16  1  0  0  0  0
 28 10  1  0  0  0  0
M  END
>  <MODEL>
3

>  <REMARK>
 VINA RESULT:      -1.3     11.211     13.534
  Name = 
  0 active torsions:
  status: ('A' for Active; 'I' for Inactive)
                            x       y       z     vdW  Elec       q    Type
                         _______ _______ _______ _____ _____    ______ ____

>  <TORSDO>
F 0

$$$$
=
 OpenBabel11122414073D

 28 32  0  0  1  0  0  0  0  0999 V2000
  159.1110  213.0550  152.0550 C   0  0  0  0  0  0  0  0  0  0  0  0
  159.7060  214.4530  155.1300 O   0  0  0  0  0  0  0  0  0  0  0  0
  161.4950  207.4730  154.0020 O   0  0  0  0  0  0  0  0  0  0  0  0
  156.3140  213.1120  152.2320 C   0  0  0  0  0  3  0  0  0  0  0  0
  159.9340  208.4620  155.4530 N   0  0  0  0  0  0  0  0  0  0  0  0
  160.6000  213.0200  151.9080 C   0  0  0  0  0  2  0  0  0  0  0  0
  158.5730  213.9760  157.2610 O   0  0  0  0  0  0  0  0  0  0  0  0
  159.5130  213.4370  156.2190 S   0  0  0  0  0  0  0  0  0  0  0  0
  161.5200  211.7240  156.9480 C   0  0  0  0  0  0  0  0  0  0  0  0
  158.8540  211.9220  155.5620 C   0  0  2  0  0  3  0  0  0  0  0  0
  161.5530  209.7590  150.5260 O   0  0  0  0  0  0  0  0  0  0  0  0
  159.0670  210.1240  153.9710 C   0  0  2  0  0  3  0  0  0  0  0  0
  160.7690  210.7110  156.6270 N   0  0  0  0  0  0  0  0  0  0  0  0
  161.0250  213.0610  156.9460 N   0  0  0  0  0  2  0  0  0  0  0  0
  161.3140  210.6320  151.4010 C   0  0  0  0  0  0  0  0  0  0  0  0
  158.4610  212.3930  153.1150 C   0  0  0  0  0  0  0  0  0  0  0  0
  160.6320  208.3620  154.2280 C   0  0  0  0  0  0  0  0  0  0  0  0
  162.8890  211.4980  157.2610 N   0  0  0  0  0  1  0  0  0  0  0  0
  161.3980  210.2590  152.8460 C   0  0  0  0  0  2  0  0  0  0  0  0
  157.0590  212.4230  153.1900 C   0  0  0  0  0  3  0  0  0  0  0  0
  158.3560  213.7410  151.0960 C   0  0  0  0  0  3  0  0  0  0  0  0
  156.9620  213.7730  151.1870 C   0  0  0  0  0  3  0  0  0  0  0  0
  160.9880  211.9630  150.9870 N   0  0  0  0  0  2  0  0  0  0  0  0
  158.9730  209.5500  155.3990 C   0  0  2  0  0  3  0  0  0  0  0  0
  160.2120  209.3780  153.2370 C   0  0  2  0  0  3  0  0  0  0  0  0
  159.3210  210.7050  156.3480 C   0  0  2  0  0  3  0  0  0  0  0  0
  160.0360  207.5120  156.5490 C   0  0  0  0  0  1  0  0  0  0  0  0
  159.2610  211.6310  154.1310 C   0  0  1  0  0  3  0  0  0  0  0  0
  1 16  1  0  0  0  0
  2  8  2  0  0  0  0
  3 17  2  0  0  0  0
  4 20  1  0  0  0  0
  5 27  1  0  0  0  0
  6  1  1  0  0  0  0
  8 14  1  0  0  0  0
  8  7  2  0  0  0  0
  9 18  1  0  0  0  0
 10  8  1  1  0  0  0
 10 26  1  0  0  0  0
 11 15  2  0  0  0  0
 12 28  1  0  0  0  0
 12 24  1  0  0  0  0
 13  9  2  0  0  0  0
 14  9  1  0  0  0  0
 15 19  1  0  0  0  0
 16 20  2  0  0  0  0
 16 28  1  0  0  0  0
 17  5  1  0  0  0  0
 19 25  1  0  0  0  0
 21 22  1  0  0  0  0
 21  1  2  0  0  0  0
 22  4  2  0  0  0  0
 23 15  1  0  0  0  0
 23  6  1  0  0  0  0
 24  5  1  0  0  0  0
 24 26  1  0  0  0  0
 25 12  1  0  0  0  0
 25 17  1  0  0  0  0
 26 13  1  0  0  0  0
 28 10  1  0  0  0  0
M  END
>  <MODEL>
4

>  <REMARK>
 VINA RESULT:      -0.4     11.753     14.396
  Name = 
  0 active torsions:
  status: ('A' for Active; 'I' for Inactive)
                            x       y       z     vdW  Elec       q    Type
                         _______ _______ _______ _____ _____    ______ ____

>  <TORSDO>
F 0

$$$$
=
 OpenBabel11122414073D

 28 32  0  0  1  0  0  0  0  0999 V2000
  158.8360  213.5390  152.0520 C   0  0  0  0  0  0  0  0  0  0  0  0
  159.7040  213.8800  155.3530 O   0  0  0  0  0  0  0  0  0  0  0  0
  162.2420  208.1710  151.5910 O   0  0  0  0  0  0  0  0  0  0  0  0
  156.1200  213.0140  152.5050 C   0  0  0  0  0  3  0  0  0  0  0  0
  160.8050  208.2940  153.4450 N   0  0  0  0  0  0  0  0  0  0  0  0
  160.2740  213.8320  151.7610 C   0  0  0  0  0  2  0  0  0  0  0  0
  158.9930  212.4990  157.2610 O   0  0  0  0  0  0  0  0  0  0  0  0
  159.8240  212.5340  156.0100 S   0  0  0  0  0  0  0  0  0  0  0  0
  162.1380  211.0780  155.8680 C   0  0  0  0  0  0  0  0  0  0  0  0
  159.2870  211.2430  154.9120 C   0  0  2  0  0  3  0  0  0  0  0  0
  161.4420  211.4800  149.2000 O   0  0  0  0  0  0  0  0  0  0  0  0
  159.4960  210.1740  152.7620 C   0  0  2  0  0  3  0  0  0  0  0  0
  161.4940  210.1170  155.2730 N   0  0  0  0  0  0  0  0  0  0  0  0
  161.4690  212.2180  156.4010 N   0  0  0  0  0  2  0  0  0  0  0  0
  161.2230  211.9390  150.3510 C   0  0  0  0  0  0  0  0  0  0  0  0
  158.4560  212.4450  152.8550 C   0  0  0  0  0  0  0  0  0  0  0  0
  161.3100  208.7520  152.2080 C   0  0  0  0  0  0  0  0  0  0  0  0
  163.5570  211.0150  155.9440 N   0  0  0  0  0  1  0  0  0  0  0  0
  161.5830  211.1140  151.5460 C   0  0  0  0  0  2  0  0  0  0  0  0
  157.0930  212.1880  153.0690 C   0  0  0  0  0  3  0  0  0  0  0  0
  157.8540  214.3600  151.4870 C   0  0  0  0  0  3  0  0  0  0  0  0
  156.5000  214.1010  151.7160 C   0  0  0  0  0  3  0  0  0  0  0  0
  160.6570  213.2460  150.4850 N   0  0  0  0  0  2  0  0  0  0  0  0
  159.7060  209.1380  153.8840 C   0  0  2  0  0  3  0  0  0  0  0  0
  160.6050  209.9500  151.7000 C   0  0  2  0  0  3  0  0  0  0  0  0
  160.0340  209.9390  155.1510 C   0  0  2  0  0  3  0  0  0  0  0  0
  161.2060  207.0620  154.1040 C   0  0  0  0  0  1  0  0  0  0  0  0
  159.5030  211.5420  153.4410 C   0  0  1  0  0  3  0  0  0  0  0  0
  1 16  1  0  0  0  0
  2  8  2  0  0  0  0
  3 17  2  0  0  0  0
  4 20  1  0  0  0  0
  5 24  1  0  0  0  0
  5 27  1  0  0  0  0
  6  1  1  0  0  0  0
  8 14  1  0  0  0  0
  8  7  2  0  0  0  0
  9 18  1  0  0  0  0
  9 14  1  0  0  0  0
 10 26  1  0  0  0  0
 10  8  1  1  0  0  0
 11 15  2  0  0  0  0
 12 28  1  0  0  0  0
 12 24  1  0  0  0  0
 13  9  2  0  0  0  0
 15 23  1  0  0  0  0
 15 19  1  0  0  0  0
 16 20  2  0  0  0  0
 16 28  1  0  0  0  0
 17  5  1  0  0  0  0
 19 25  1  0  0  0  0
 21 22  1  0  0  0  0
 21  1  2  0  0  0  0
 22  4  2  0  0  0  0
 23  6  1  0  0  0  0
 24 26  1  0  0  0  0
 25 17  1  0  0  0  0
 25 12  1  0  0  0  0
 26 13  1  0  0  0  0
 28 10  1  0  0  0  0
M  END
>  <MODEL>
5

>  <REMARK>
 VINA RESULT:      -0.2     10.978     13.446
  Name = 
  0 active torsions:
  status: ('A' for Active; 'I' for Inactive)
                            x       y       z     vdW  Elec       q    Type
                         _______ _______ _______ _____ _____    ______ ____

>  <TORSDO>
F 0

$$$$
