=
 OpenBabel11122413003D

 32 37  0  0  1  0  0  0  0  0999 V2000
  161.0370  206.6820  151.4070 C   0  0  0  0  0  0  0  0  0  0  0  0
  162.1640  210.6730  148.6480 C   0  0  0  0  0  3  0  0  0  0  0  0
  162.1580  211.3840  149.7720 C   0  0  0  0  0  3  0  0  0  0  0  0
  160.8660  207.0030  153.9450 C   0  0  0  0  0  0  0  0  0  0  0  0
  160.7250  207.9510  155.1040 C   0  0  1  0  0  3  0  0  0  0  0  0
  160.7700  204.5150  150.3380 N   0  0  0  0  0  0  0  0  0  0  0  0
  161.2540  206.3860  148.9280 C   0  0  0  0  0  3  0  0  0  0  0  0
  161.3640  209.9540  155.8200 N   0  0  0  0  0  0  0  0  0  0  0  0
  161.8600  209.2010  148.6370 C   0  0  0  0  0  2  0  0  0  0  0  0
  161.2960  207.2460  150.1330 C   0  0  0  0  0  0  0  0  0  0  0  0
  161.5780  208.6180  150.0090 C   0  0  0  0  0  0  0  0  0  0  0  0
  161.2990  208.8790  152.4200 C   0  0  0  0  0  0  0  0  0  0  0  0
  162.1230  209.0290  156.5320 N   0  0  0  0  0  2  0  0  0  0  0  0
  161.0210  205.0760  149.0350 C   0  0  0  0  0  0  0  0  0  0  0  0
  161.8170  207.8510  156.1210 C   0  0  0  0  0  2  0  0  0  0  0  0
  161.8550  210.7460  151.0610 C   0  0  0  0  0  3  0  0  0  0  0  0
  161.5850  209.4360  151.1610 C   0  0  0  0  0  0  0  0  0  0  0  0
  161.3150  209.7020  153.5900 N   0  0  0  0  0  2  0  0  0  0  0  0
  160.7710  205.3680  151.4960 C   0  0  0  0  0  3  0  0  0  0  0  0
  160.8160  205.7660  154.1850 O   0  0  0  0  0  0  0  0  0  0  0  0
  161.4420  211.3840  156.0630 C   0  0  0  0  0  1  0  0  0  0  0  0
  161.0520  207.5090  152.5590 C   0  0  0  0  0  0  0  0  0  0  0  0
  160.6170  209.3900  154.7760 N   0  0  1  0  0  0  0  0  0  0  0  0
  162.1630  204.1650  147.0660 C   0  0  0  0  0  2  0  0  0  0  0  0
  160.8940  204.2400  147.7920 C   0  0  1  0  0  3  0  0  0  0  0  0
  161.7380  203.0380  147.9060 N   0  0  0  0  0  0  0  0  0  0  0  0
  161.1710  202.0470  147.0100 C   0  0  0  0  0  2  0  0  0  0  0  0
  161.3630  200.6860  147.5800 C   0  0  0  0  0  0  0  0  0  0  0  0
  161.3320  200.5140  148.8260 O   0  0  0  0  0  1  0  0  0  0  0  0
  161.5360  199.5980  146.7350 O   0  0  0  0  0  0  0  0  0  0  0  0
  161.1320  202.7370  151.5790 C   0  0  0  0  0  1  0  0  0  0  0  0
  160.4080  203.2130  150.4790 O   0  0  0  0  0  0  0  0  0  0  0  0
  1 19  2  0  0  0  0
  1 22  1  0  0  0  0
  2  3  2  0  0  0  0
  3 16  1  0  0  0  0
  4 20  2  0  0  0  0
  4  5  1  0  0  0  0
  5 15  1  1  0  0  0
  6 32  1  0  0  0  0
  6 19  1  0  0  0  0
  7 14  2  0  0  0  0
  7 10  1  0  0  0  0
  8 21  1  0  0  0  0
  8 13  1  0  0  0  0
  9  2  1  0  0  0  0
  9 11  1  0  0  0  0
 10  1  1  0  0  0  0
 11 10  2  0  0  0  0
 11 17  1  0  0  0  0
 12 22  2  0  0  0  0
 12 18  1  0  0  0  0
 14  6  1  0  0  0  0
 15 13  1  0  0  0  0
 16 17  2  0  0  0  0
 17 12  1  0  0  0  0
 22  4  1  0  0  0  0
 23 18  1  6  0  0  0
 23  5  1  0  0  0  0
 23  8  1  0  0  0  0
 24 25  1  0  0  0  0
 24 26  1  0  0  0  0
 25 26  1  0  0  0  0
 25 14  1  1  0  0  0
 27 28  1  0  0  0  0
 27 26  1  0  0  0  0
 28 29  1  0  0  0  0
 30 28  2  0  0  0  0
 32 31  1  0  0  0  0
M  END
>  <MODEL>
1

>  <REMARK>
 VINA RESULT:      -9.0      0.000      0.000
  Name = 
  4 active torsions:
  status: ('A' for Active; 'I' for Inactive)
    1  A    between atoms: N_7  and  O_19
    2  A    between atoms: C_10  and  C_17
    3  A    between atoms: N_20  and  C_29
    4  A    between atoms: C_29  and  C_30
                            x       y       z     vdW  Elec       q    Type
                         _______ _______ _______ _____ _____    ______ ____

>  <TORSDO>
F 4

$$$$
=
 OpenBabel11122413003D

 32 37  0  0  1  0  0  0  0  0999 V2000
  161.6190  207.2690  149.7370 C   0  0  0  0  0  0  0  0  0  0  0  0
  160.8610  203.6260  153.0490 C   0  0  0  0  0  3  0  0  0  0  0  0
  160.7540  202.7880  152.0210 C   0  0  0  0  0  3  0  0  0  0  0  0
  161.6920  206.6230  147.2570 C   0  0  0  0  0  0  0  0  0  0  0  0
  161.3810  205.6040  146.1940 C   0  0  1  0  0  3  0  0  0  0  0  0
  161.9990  209.5420  150.5110 N   0  0  0  0  0  0  0  0  0  0  0  0
  161.5870  207.8670  152.1700 C   0  0  0  0  0  3  0  0  0  0  0  0
  161.3550  203.4150  145.8160 N   0  0  0  0  0  0  0  0  0  0  0  0
  161.1030  205.0970  152.8530 C   0  0  0  0  0  3  0  0  0  0  0  0
  161.4830  206.8620  151.0870 C   0  0  0  0  0  0  0  0  0  0  0  0
  161.2370  205.5140  151.4010 C   0  0  0  0  0  0  0  0  0  0  0  0
  161.2150  204.9800  149.0190 C   0  0  0  0  0  0  0  0  0  0  0  0
  162.4840  203.9060  145.1650 N   0  0  0  0  0  2  0  0  0  0  0  0
  161.8540  209.1450  151.8890 C   0  0  0  0  0  0  0  0  0  0  0  0
  162.5650  205.1690  145.3910 C   0  0  0  0  0  2  0  0  0  0  0  0
  160.8770  203.2760  150.6400 C   0  0  0  0  0  3  0  0  0  0  0  0
  161.1090  204.5670  150.3590 C   0  0  2  0  0  3  0  0  0  0  0  0
  161.0960  204.0230  147.9620 N   0  0  0  0  0  2  0  0  0  0  0  0
  161.8540  208.5640  149.4670 C   0  0  0  0  0  3  0  0  0  0  0  0
  162.1190  207.7500  146.8870 O   0  0  0  0  0  0  0  0  0  0  0  0
  160.9500  202.0230  145.7390 C   0  0  0  0  0  1  0  0  0  0  0  0
  161.4950  206.3120  148.6980 C   0  0  0  0  0  0  0  0  0  0  0  0
  160.7240  204.3570  146.6430 N   0  0  1  0  0  0  0  0  0  0  0  0
  160.5130  210.6390  153.2970 C   0  0  0  0  0  2  0  0  0  0  0  0
  161.8650  210.1620  152.9960 C   0  0  1  0  0  3  0  0  0  0  0  0
  161.1410  209.6380  154.1680 N   0  0  0  0  0  0  0  0  0  0  0  0
  161.6480  210.3560  155.3230 C   0  0  0  0  0  2  0  0  0  0  0  0
  162.1210  209.3880  156.3490 C   0  0  0  0  0  0  0  0  0  0  0  0
  162.9010  209.7670  157.2610 O   0  0  0  0  0  1  0  0  0  0  0  0
  161.6710  208.0750  156.3250 O   0  0  0  0  0  0  0  0  0  0  0  0
  162.0950  210.8870  148.7760 C   0  0  0  0  0  1  0  0  0  0  0  0
  162.1480  210.8490  150.1750 O   0  0  0  0  0  0  0  0  0  0  0  0
  1 10  1  0  0  0  0
  3  2  1  0  0  0  0
  4 22  1  0  0  0  0
  5 15  1  1  0  0  0
  5 23  1  0  0  0  0
  5  4  1  0  0  0  0
  6 14  1  0  0  0  0
  8 23  1  0  0  0  0
  9  2  2  0  0  0  0
 10 11  2  0  0  0  0
 10  7  1  0  0  0  0
 11  9  1  0  0  0  0
 12 17  1  0  0  0  0
 13 15  1  0  0  0  0
 13  8  1  0  0  0  0
 14  7  2  0  0  0  0
 16  3  2  0  0  0  0
 17 16  1  6  0  0  0
 17 11  1  0  0  0  0
 18 12  1  0  0  0  0
 19  1  2  0  0  0  0
 19  6  1  0  0  0  0
 20  4  2  0  0  0  0
 21  8  1  0  0  0  0
 22 12  2  0  0  0  0
 22  1  1  0  0  0  0
 23 18  1  1  0  0  0
 24 26  1  0  0  0  0
 25 14  1  6  0  0  0
 25 24  1  0  0  0  0
 25 26  1  0  0  0  0
 26 27  1  0  0  0  0
 27 28  1  0  0  0  0
 28 29  1  0  0  0  0
 30 28  2  0  0  0  0
 31 32  1  0  0  0  0
 32  6  1  0  0  0  0
M  END
>  <MODEL>
2

>  <REMARK>
 VINA RESULT:      -8.8      2.651      8.570
  Name = 
  4 active torsions:
  status: ('A' for Active; 'I' for Inactive)
    1  A    between atoms: N_7  and  O_19
    2  A    between atoms: C_10  and  C_17
    3  A    between atoms: N_20  and  C_29
    4  A    between atoms: C_29  and  C_30
                            x       y       z     vdW  Elec       q    Type
                         _______ _______ _______ _____ _____    ______ ____

>  <TORSDO>
F 4

$$$$
=
 OpenBabel11122413003D

 32 37  0  0  1  0  0  0  0  0999 V2000
  161.3700  206.6630  151.3910 C   0  0  0  0  0  0  0  0  0  0  0  0
  162.1670  210.7540  148.6640 C   0  0  0  0  0  3  0  0  0  0  0  0
  161.9630  211.4650  149.7700 C   0  0  0  0  0  3  0  0  0  0  0  0
  160.9340  206.9730  153.8990 C   0  0  0  0  0  0  0  0  0  0  0  0
  160.5620  207.9000  155.0230 C   0  0  1  0  0  3  0  0  0  0  0  0
  161.5010  204.4720  150.3450 N   0  0  0  0  0  0  0  0  0  0  0  0
  161.8420  206.3840  148.9460 C   0  0  0  0  0  3  0  0  0  0  0  0
  160.8510  209.9780  155.7540 N   0  0  0  0  0  0  0  0  0  0  0  0
  162.0730  209.2540  148.6550 C   0  0  0  0  0  2  0  0  0  0  0  0
  161.6580  207.2490  150.1340 C   0  0  0  0  0  0  0  0  0  0  0  0
  161.7560  208.6460  150.0080 C   0  0  0  0  0  0  0  0  0  0  0  0
  161.2330  208.8810  152.3810 C   0  0  0  0  0  0  0  0  0  0  0  0
  161.6660  209.1740  156.5450 N   0  0  0  0  0  2  0  0  0  0  0  0
  161.7850  205.0550  149.0570 C   0  0  0  0  0  0  0  0  0  0  0  0
  161.5640  207.9610  156.1310 C   0  0  0  0  0  2  0  0  0  0  0  0
  161.6410  210.7990  151.0400 C   0  0  0  0  0  3  0  0  0  0  0  0
  161.5480  209.4650  151.1410 C   0  0  0  0  0  0  0  0  0  0  0  0
  161.0330  209.7060  153.5330 N   0  0  0  0  0  2  0  0  0  0  0  0
  161.2830  205.3260  151.4820 C   0  0  0  0  0  3  0  0  0  0  0  0
  161.0360  205.7430  154.1560 O   0  0  0  0  0  0  0  0  0  0  0  0
  160.7070  211.4070  155.9750 C   0  0  0  0  0  1  0  0  0  0  0  0
  161.1690  207.4920  152.5250 C   0  0  0  0  0  0  0  0  0  0  0  0
  160.2840  209.3070  154.6600 N   0  0  1  0  0  0  0  0  0  0  0  0
  160.7700  203.2570  147.7370 C   0  0  0  0  0  2  0  0  0  0  0  0
  161.8850  204.2010  147.8240 C   0  0  1  0  0  3  0  0  0  0  0  0
  160.7500  204.4810  146.9270 N   0  0  0  0  0  0  0  0  0  0  0  0
  161.1740  204.0990  145.5920 C   0  0  0  0  0  2  0  0  0  0  0  0
  160.9860  205.2420  144.6580 C   0  0  0  0  0  0  0  0  0  0  0  0
  161.5500  205.2360  143.5330 O   0  0  0  0  0  0  0  0  0  0  0  0
  160.1570  206.2970  145.0110 O   0  0  0  0  0  1  0  0  0  0  0  0
  161.1160  202.9160  151.8470 C   0  0  0  0  0  1  0  0  0  0  0  0
  161.3140  203.1340  150.4780 O   0  0  0  0  0  0  0  0  0  0  0  0
  1 19  2  0  0  0  0
  1 22  1  0  0  0  0
  2  3  2  0  0  0  0
  3 16  1  0  0  0  0
  4 20  2  0  0  0  0
  4  5  1  0  0  0  0
  5 15  1  1  0  0  0
  6 32  1  0  0  0  0
  6 19  1  0  0  0  0
  7 14  2  0  0  0  0
  7 10  1  0  0  0  0
  8 21  1  0  0  0  0
  8 13  1  0  0  0  0
  9  2  1  0  0  0  0
  9 11  1  0  0  0  0
 10  1  1  0  0  0  0
 11 10  2  0  0  0  0
 11 17  1  0  0  0  0
 12 22  2  0  0  0  0
 12 18  1  0  0  0  0
 14  6  1  0  0  0  0
 15 13  1  0  0  0  0
 16 17  2  0  0  0  0
 17 12  1  0  0  0  0
 22  4  1  0  0  0  0
 23 18  1  6  0  0  0
 23  5  1  0  0  0  0
 23  8  1  0  0  0  0
 24 25  1  0  0  0  0
 25 14  1  1  0  0  0
 26 24  1  0  0  0  0
 26 25  1  0  0  0  0
 27 26  1  0  0  0  0
 28 30  1  0  0  0  0
 28 27  1  0  0  0  0
 29 28  2  0  0  0  0
 32 31  1  0  0  0  0
M  END
>  <MODEL>
3

>  <REMARK>
 VINA RESULT:      -8.1      1.796      2.154
  Name = 
  4 active torsions:
  status: ('A' for Active; 'I' for Inactive)
    1  A    between atoms: N_7  and  O_19
    2  A    between atoms: C_10  and  C_17
    3  A    between atoms: N_20  and  C_29
    4  A    between atoms: C_29  and  C_30
                            x       y       z     vdW  Elec       q    Type
                         _______ _______ _______ _____ _____    ______ ____

>  <TORSDO>
F 4

$$$$
=
 OpenBabel11122413003D

 32 37  0  0  1  0  0  0  0  0999 V2000
  161.1610  206.2240  152.3180 C   0  0  0  0  0  0  0  0  0  0  0  0
  161.9790  209.4080  148.5760 C   0  0  0  0  0  3  0  0  0  0  0  0
  161.9500  208.3640  147.7530 C   0  0  0  0  0  3  0  0  0  0  0  0
  160.8440  203.7500  151.7240 C   0  0  0  0  0  0  0  0  0  0  0  0
  161.0050  202.6510  150.7100 C   0  0  1  0  0  3  0  0  0  0  0  0
  160.9810  207.0590  154.5940 N   0  0  0  0  0  0  0  0  0  0  0  0
  161.4310  208.6540  152.8680 C   0  0  0  0  0  3  0  0  0  0  0  0
  160.8710  202.2410  148.5300 N   0  0  0  0  0  0  0  0  0  0  0  0
  161.8080  209.2550  150.0610 C   0  0  0  0  0  3  0  0  0  0  0  0
  161.3860  207.5520  151.8790 C   0  0  0  0  0  0  0  0  0  0  0  0
  161.5780  207.8250  150.5130 C   0  0  0  0  0  0  0  0  0  0  0  0
  161.3700  205.4420  150.0230 C   0  0  0  0  0  0  0  0  0  0  0  0
  159.7230  201.6950  149.0970 N   0  0  0  0  0  2  0  0  0  0  0  0
  161.2170  208.4140  154.1630 C   0  0  0  0  0  0  0  0  0  0  0  0
  159.7350  201.9440  150.3580 C   0  0  0  0  0  2  0  0  0  0  0  0
  161.7410  207.0050  148.2730 C   0  0  0  0  0  3  0  0  0  0  0  0
  161.5630  206.7630  149.5800 C   0  0  2  0  0  3  0  0  0  0  0  0
  161.3430  204.3660  149.0810 N   0  0  0  0  0  2  0  0  0  0  0  0
  160.9810  205.9930  153.6290 C   0  0  0  0  0  3  0  0  0  0  0  0
  160.4540  203.4330  152.8800 O   0  0  0  0  0  0  0  0  0  0  0  0
  161.1860  202.1110  147.1180 C   0  0  0  0  0  1  0  0  0  0  0  0
  161.1420  205.1640  151.3750 C   0  0  0  0  0  0  0  0  0  0  0  0
  161.6230  203.0240  149.4180 N   0  0  1  0  0  0  0  0  0  0  0  0
  161.4100  210.8350  154.4950 C   0  0  0  0  0  2  0  0  0  0  0  0
  161.3590  209.5320  155.1590 C   0  0  1  0  0  3  0  0  0  0  0  0
  160.1610  210.3900  155.1230 N   0  0  0  0  0  0  0  0  0  0  0  0
  160.0890  211.0530  156.4130 C   0  0  0  0  0  2  0  0  0  0  0  0
  159.4700  212.3970  156.2530 C   0  0  0  0  0  0  0  0  0  0  0  0
  160.1350  213.4320  156.5150 O   0  0  0  0  0  1  0  0  0  0  0  0
  158.1720  212.5100  155.7760 O   0  0  0  0  0  0  0  0  0  0  0  0
  159.5320  206.9380  156.2410 C   0  0  0  0  0  1  0  0  0  0  0  0
  160.8810  206.7550  155.9140 O   0  0  0  0  0  0  0  0  0  0  0  0
  1 19  2  0  0  0  0
  2  9  2  0  0  0  0
  3 16  2  0  0  0  0
  3  2  1  0  0  0  0
  4 20  2  0  0  0  0
  5 15  1  6  0  0  0
  5  4  1  0  0  0  0
  6 32  1  0  0  0  0
  7 14  2  0  0  0  0
  8 13  1  0  0  0  0
  8 23  1  0  0  0  0
  9 11  1  0  0  0  0
 10  1  1  0  0  0  0
 10  7  1  0  0  0  0
 11 10  2  0  0  0  0
 12 22  2  0  0  0  0
 13 15  1  0  0  0  0
 14  6  1  0  0  0  0
 17 16  1  1  0  0  0
 17 12  1  0  0  0  0
 17 11  1  0  0  0  0
 18 12  1  0  0  0  0
 19  6  1  0  0  0  0
 21  8  1  0  0  0  0
 22  4  1  0  0  0  0
 22  1  1  0  0  0  0
 23 18  1  6  0  0  0
 23  5  1  0  0  0  0
 24 26  1  0  0  0  0
 24 25  1  0  0  0  0
 25 14  1  6  0  0  0
 26 25  1  0  0  0  0
 26 27  1  0  0  0  0
 28 27  1  0  0  0  0
 28 29  1  0  0  0  0
 30 28  2  0  0  0  0
 32 31  1  0  0  0  0
M  END
>  <MODEL>
4

>  <REMARK>
 VINA RESULT:      -7.6      2.386      8.044
  Name = 
  4 active torsions:
  status: ('A' for Active; 'I' for Inactive)
    1  A    between atoms: N_7  and  O_19
    2  A    between atoms: C_10  and  C_17
    3  A    between atoms: N_20  and  C_29
    4  A    between atoms: C_29  and  C_30
                            x       y       z     vdW  Elec       q    Type
                         _______ _______ _______ _____ _____    ______ ____

>  <TORSDO>
F 4

$$$$
=
 OpenBabel11122413003D

 32 37  0  0  1  0  0  0  0  0999 V2000
  161.2190  206.2970  151.9790 C   0  0  0  0  0  0  0  0  0  0  0  0
  162.1140  209.8800  148.6360 C   0  0  0  0  0  3  0  0  0  0  0  0
  161.9550  210.7620  149.6200 C   0  0  0  0  0  3  0  0  0  0  0  0
  160.8400  207.0100  154.4120 C   0  0  0  0  0  0  0  0  0  0  0  0
  160.5220  208.1140  155.3830 C   0  0  1  0  0  3  0  0  0  0  0  0
  161.2530  203.9670  151.2860 N   0  0  0  0  0  0  0  0  0  0  0  0
  161.6370  205.6220  149.6020 C   0  0  0  0  0  3  0  0  0  0  0  0
  160.8980  210.2680  155.7760 N   0  0  0  0  0  0  0  0  0  0  0  0
  161.9650  208.4020  148.8630 C   0  0  0  0  0  2  0  0  0  0  0  0
  161.5050  206.6680  150.6420 C   0  0  0  0  0  0  0  0  0  0  0  0
  161.6510  208.0240  150.2980 C   0  0  0  0  0  0  0  0  0  0  0  0
  161.1800  208.6460  152.6110 C   0  0  0  0  0  0  0  0  0  0  0  0
  161.6980  209.5660  156.6730 N   0  0  0  0  0  2  0  0  0  0  0  0
  161.5350  204.3300  149.9200 C   0  0  0  0  0  0  0  0  0  0  0  0
  161.5450  208.3090  156.4550 C   0  0  0  0  0  2  0  0  0  0  0  0
  161.6320  210.3140  150.9820 C   0  0  0  0  0  3  0  0  0  0  0  0
  161.4930  209.0170  151.2920 C   0  0  0  0  0  0  0  0  0  0  0  0
  161.0300  209.6470  153.6220 N   0  0  0  0  0  2  0  0  0  0  0  0
  161.0860  204.9940  152.2780 C   0  0  0  0  0  3  0  0  0  0  0  0
  160.9020  205.8320  154.8580 O   0  0  0  0  0  0  0  0  0  0  0  0
  160.8100  211.7180  155.7730 C   0  0  0  0  0  1  0  0  0  0  0  0
  161.0680  207.2990  152.9710 C   0  0  0  0  0  0  0  0  0  0  0  0
  160.2880  209.4570  154.8070 N   0  0  1  0  0  0  0  0  0  0  0  0
  160.2780  202.6500  148.6530 C   0  0  0  0  0  2  0  0  0  0  0  0
  161.5810  203.2920  148.8340 C   0  0  1  0  0  3  0  0  0  0  0  0
  160.7090  203.6940  147.7160 N   0  0  0  0  0  0  0  0  0  0  0  0
  161.2060  203.0110  146.5360 C   0  0  0  0  0  2  0  0  0  0  0  0
  161.6440  204.0090  145.5230 C   0  0  0  0  0  0  0  0  0  0  0  0
  162.7860  204.5310  145.6060 O   0  0  0  0  0  1  0  0  0  0  0  0
  160.8080  204.3350  144.4650 O   0  0  0  0  0  0  0  0  0  0  0  0
  162.2780  202.1230  151.9010 C   0  0  0  0  0  1  0  0  0  0  0  0
  161.0200  202.6740  151.6290 O   0  0  0  0  0  0  0  0  0  0  0  0
  1 19  2  0  0  0  0
  1 22  1  0  0  0  0
  2  9  1  0  0  0  0
  2  3  2  0  0  0  0
  3 16  1  0  0  0  0
  4 20  2  0  0  0  0
  4  5  1  0  0  0  0
  5 15  1  1  0  0  0
  6 32  1  0  0  0  0
  6 19  1  0  0  0  0
  7 14  2  0  0  0  0
  7 10  1  0  0  0  0
  8 13  1  0  0  0  0
  9 11  1  0  0  0  0
 10  1  1  0  0  0  0
 11 10  2  0  0  0  0
 11 17  1  0  0  0  0
 12 22  2  0  0  0  0
 12 18  1  0  0  0  0
 14  6  1  0  0  0  0
 15 13  1  0  0  0  0
 16 17  2  0  0  0  0
 17 12  1  0  0  0  0
 21  8  1  0  0  0  0
 22  4  1  0  0  0  0
 23 18  1  6  0  0  0
 23  5  1  0  0  0  0
 23  8  1  0  0  0  0
 24 25  1  0  0  0  0
 25 14  1  1  0  0  0
 26 24  1  0  0  0  0
 26 25  1  0  0  0  0
 27 26  1  0  0  0  0
 28 29  1  0  0  0  0
 28 27  1  0  0  0  0
 30 28  2  0  0  0  0
 32 31  1  0  0  0  0
M  END
>  <MODEL>
5

>  <REMARK>
 VINA RESULT:      -7.4      1.604      1.780
  Name = 
  4 active torsions:
  status: ('A' for Active; 'I' for Inactive)
    1  A    between atoms: N_7  and  O_19
    2  A    between atoms: C_10  and  C_17
    3  A    between atoms: N_20  and  C_29
    4  A    between atoms: C_29  and  C_30
                            x       y       z     vdW  Elec       q    Type
                         _______ _______ _______ _____ _____    ______ ____

>  <TORSDO>
F 4

$$$$
=
 OpenBabel11122413003D

 32 37  0  0  1  0  0  0  0  0999 V2000
  161.0710  206.7660  150.6840 C   0  0  0  0  0  0  0  0  0  0  0  0
  160.8250  202.0910  152.3860 C   0  0  0  0  0  3  0  0  0  0  0  0
  160.9100  201.6850  151.1220 C   0  0  0  0  0  3  0  0  0  0  0  0
  161.3600  207.0970  148.1580 C   0  0  0  0  0  0  0  0  0  0  0  0
  161.2780  206.5070  146.7770 C   0  0  1  0  0  3  0  0  0  0  0  0
  161.0140  208.6240  152.2510 N   0  0  0  0  0  0  0  0  0  0  0  0
  160.8330  206.4160  153.1540 C   0  0  0  0  0  3  0  0  0  0  0  0
  161.6520  204.6330  145.6440 N   0  0  0  0  0  0  0  0  0  0  0  0
  160.8140  203.5490  152.7530 C   0  0  0  0  0  3  0  0  0  0  0  0
  160.9520  205.8760  151.7800 C   0  0  0  0  0  0  0  0  0  0  0  0
  160.9330  204.4870  151.5660 C   0  0  0  0  0  0  0  0  0  0  0  0
  161.1050  204.8690  149.1610 C   0  0  0  0  0  0  0  0  0  0  0  0
  162.7030  205.4900  145.3300 N   0  0  0  0  0  2  0  0  0  0  0  0
  160.8830  207.7310  153.3750 C   0  0  0  0  0  0  0  0  0  0  0  0
  162.5530  206.5780  145.9980 C   0  0  0  0  0  2  0  0  0  0  0  0
  161.0040  202.6590  150.0260 C   0  0  0  0  0  3  0  0  0  0  0  0
  161.0170  203.9820  150.2480 C   0  0  2  0  0  3  0  0  0  0  0  0
  161.2010  204.3620  147.8260 N   0  0  0  0  0  2  0  0  0  0  0  0
  161.0860  208.0890  150.9180 C   0  0  0  0  0  3  0  0  0  0  0  0
  161.5990  208.3310  148.2600 O   0  0  0  0  0  0  0  0  0  0  0  0
  161.5010  203.3220  145.0350 C   0  0  0  0  0  1  0  0  0  0  0  0
  161.1600  206.2520  149.3650 C   0  0  0  0  0  0  0  0  0  0  0  0
  160.8310  205.0990  146.6810 N   0  0  1  0  0  0  0  0  0  0  0  0
  160.9030  207.2230  155.7730 C   0  0  0  0  0  2  0  0  0  0  0  0
  160.6680  208.2590  154.7660 C   0  0  1  0  0  3  0  0  0  0  0  0
  161.9370  208.2320  155.5140 N   0  0  0  0  0  0  0  0  0  0  0  0
  161.8180  209.2240  156.5670 C   0  0  0  0  0  2  0  0  0  0  0  0
  162.7320  210.3650  156.2890 C   0  0  0  0  0  0  0  0  0  0  0  0
  163.2540  211.0010  157.2410 O   0  0  0  0  0  1  0  0  0  0  0  0
  163.0410  210.7030  154.9790 O   0  0  0  0  0  0  0  0  0  0  0  0
  161.6690  210.5200  151.3530 C   0  0  0  0  0  1  0  0  0  0  0  0
  160.9460  209.9700  152.4190 O   0  0  0  0  0  0  0  0  0  0  0  0
  1 19  2  0  0  0  0
  1 10  1  0  0  0  0
  2  9  2  0  0  0  0
  3  2  1  0  0  0  0
  4 20  2  0  0  0  0
  4 22  1  0  0  0  0
  5 15  1  1  0  0  0
  5  4  1  0  0  0  0
  6 32  1  0  0  0  0
  6 14  1  0  0  0  0
  7 14  2  0  0  0  0
  8 23  1  0  0  0  0
 10  7  1  0  0  0  0
 11 10  2  0  0  0  0
 11  9  1  0  0  0  0
 12 22  2  0  0  0  0
 12 17  1  0  0  0  0
 13  8  1  0  0  0  0
 13 15  1  0  0  0  0
 16  3  2  0  0  0  0
 17 16  1  6  0  0  0
 17 11  1  0  0  0  0
 18 12  1  0  0  0  0
 19  6  1  0  0  0  0
 21  8  1  0  0  0  0
 22  1  1  0  0  0  0
 23  5  1  0  0  0  0
 23 18  1  1  0  0  0
 25 14  1  6  0  0  0
 25 26  1  0  0  0  0
 25 24  1  0  0  0  0
 26 24  1  0  0  0  0
 26 27  1  0  0  0  0
 28 27  1  0  0  0  0
 28 29  1  0  0  0  0
 30 28  2  0  0  0  0
 31 32  1  0  0  0  0
M  END
>  <MODEL>
6

>  <REMARK>
 VINA RESULT:      -7.3      2.888      8.598
  Name = 
  4 active torsions:
  status: ('A' for Active; 'I' for Inactive)
    1  A    between atoms: N_7  and  O_19
    2  A    between atoms: C_10  and  C_17
    3  A    between atoms: N_20  and  C_29
    4  A    between atoms: C_29  and  C_30
                            x       y       z     vdW  Elec       q    Type
                         _______ _______ _______ _____ _____    ______ ____

>  <TORSDO>
F 4

$$$$
=
 OpenBabel11122413003D

 32 37  0  0  1  0  0  0  0  0999 V2000
  160.7320  210.1810  152.1420 C   0  0  0  0  0  0  0  0  0  0  0  0
  160.4560  206.6060  155.5990 C   0  0  0  0  0  3  0  0  0  0  0  0
  159.9580  207.5210  156.4270 C   0  0  0  0  0  3  0  0  0  0  0  0
  159.8590  212.5090  152.7690 C   0  0  0  0  0  0  0  0  0  0  0  0
  159.4500  213.4690  153.8530 C   0  0  1  0  0  3  0  0  0  0  0  0
  161.5810  209.6530  149.9260 N   0  0  0  0  0  0  0  0  0  0  0  0
  161.5380  207.8870  151.5400 C   0  0  0  0  0  3  0  0  0  0  0  0
  158.4140  213.5620  155.8160 N   0  0  0  0  0  0  0  0  0  0  0  0
  160.8620  206.9450  154.1920 C   0  0  0  0  0  2  0  0  0  0  0  0
  160.9510  208.8330  152.5160 C   0  0  0  0  0  0  0  0  0  0  0  0
  160.6280  208.3950  153.8120 C   0  0  0  0  0  0  0  0  0  0  0  0
  159.9080  210.6570  154.3810 C   0  0  0  0  0  0  0  0  0  0  0  0
  157.5160  214.0700  154.8800 N   0  0  0  0  0  2  0  0  0  0  0  0
  161.8190  208.2800  150.2960 C   0  0  0  0  0  0  0  0  0  0  0  0
  158.0580  213.9970  153.7170 C   0  0  0  0  0  2  0  0  0  0  0  0
  159.7790  208.9110  155.9870 C   0  0  0  0  0  3  0  0  0  0  0  0
  160.0970  209.3130  154.7470 C   0  0  0  0  0  0  0  0  0  0  0  0
  159.3610  211.5870  155.3210 N   0  0  0  0  0  2  0  0  0  0  0  0
  161.0500  210.5720  150.8970 C   0  0  0  0  0  3  0  0  0  0  0  0
  159.9140  212.9430  151.5860 O   0  0  0  0  0  0  0  0  0  0  0  0
  158.1270  213.5260  157.2390 C   0  0  0  0  0  1  0  0  0  0  0  0
  160.1930  211.0950  153.0840 C   0  0  0  0  0  0  0  0  0  0  0  0
  159.5580  212.9820  155.2460 N   0  0  1  0  0  0  0  0  0  0  0  0
  161.9380  205.9790  149.4580 C   0  0  0  0  0  2  0  0  0  0  0  0
  162.4970  207.3280  149.3500 C   0  0  1  0  0  3  0  0  0  0  0  0
  161.5330  206.8460  148.3450 N   0  0  0  0  0  0  0  0  0  0  0  0
  162.3100  206.4280  147.1930 C   0  0  0  0  0  2  0  0  0  0  0  0
  161.4630  205.6070  146.2860 C   0  0  0  0  0  0  0  0  0  0  0  0
  161.6440  204.3640  146.2090 O   0  0  0  0  0  1  0  0  0  0  0  0
  160.4470  206.2060  145.5550 O   0  0  0  0  0  0  0  0  0  0  0  0
  161.9560  211.5200  148.8290 C   0  0  0  0  0  1  0  0  0  0  0  0
  161.9660  210.1240  148.7120 O   0  0  0  0  0  0  0  0  0  0  0  0
  1 10  1  0  0  0  0
  1 22  1  0  0  0  0
  2  3  2  0  0  0  0
  4 22  1  0  0  0  0
  4  5  1  0  0  0  0
  5 15  1  6  0  0  0
  5 23  1  0  0  0  0
  6 14  1  0  0  0  0
  6 19  1  0  0  0  0
  7 10  1  0  0  0  0
  8 21  1  0  0  0  0
  9  2  1  0  0  0  0
 10 11  2  0  0  0  0
 11  9  1  0  0  0  0
 11 17  1  0  0  0  0
 12 17  1  0  0  0  0
 12 18  1  0  0  0  0
 13  8  1  0  0  0  0
 14  7  2  0  0  0  0
 15 13  1  0  0  0  0
 16  3  1  0  0  0  0
 17 16  2  0  0  0  0
 19  1  2  0  0  0  0
 20  4  2  0  0  0  0
 22 12  2  0  0  0  0
 23 18  1  6  0  0  0
 23  8  1  0  0  0  0
 25 24  1  0  0  0  0
 25 14  1  1  0  0  0
 26 25  1  0  0  0  0
 26 24  1  0  0  0  0
 27 26  1  0  0  0  0
 28 27  1  0  0  0  0
 29 28  1  0  0  0  0
 30 28  2  0  0  0  0
 32 31  1  0  0  0  0
 32  6  1  0  0  0  0
M  END
>  <MODEL>
7

>  <REMARK>
 VINA RESULT:      -7.1      3.370      5.417
  Name = 
  4 active torsions:
  status: ('A' for Active; 'I' for Inactive)
    1  A    between atoms: N_7  and  O_19
    2  A    between atoms: C_10  and  C_17
    3  A    between atoms: N_20  and  C_29
    4  A    between atoms: C_29  and  C_30
                            x       y       z     vdW  Elec       q    Type
                         _______ _______ _______ _____ _____    ______ ____

>  <TORSDO>
F 4

$$$$
=
 OpenBabel11122413003D

 32 37  0  0  1  0  0  0  0  0999 V2000
  160.7040  208.9650  152.2960 C   0  0  0  0  0  0  0  0  0  0  0  0
  160.4110  206.7670  156.7560 C   0  0  0  0  0  3  0  0  0  0  0  0
  160.0860  207.9550  157.2590 C   0  0  0  0  0  3  0  0  0  0  0  0
  160.1270  211.4600  152.1610 C   0  0  0  0  0  0  0  0  0  0  0  0
  159.9200  212.7620  152.8850 C   0  0  1  0  0  3  0  0  0  0  0  0
  161.2820  207.6460  150.3370 N   0  0  0  0  0  0  0  0  0  0  0  0
  161.2200  206.5180  152.4470 C   0  0  0  0  0  3  0  0  0  0  0  0
  159.0900  213.6140  154.7620 N   0  0  0  0  0  0  0  0  0  0  0  0
  160.7120  206.5780  155.2950 C   0  0  0  0  0  3  0  0  0  0  0  0
  160.8250  207.7950  153.0840 C   0  0  0  0  0  0  0  0  0  0  0  0
  160.5850  207.8440  154.4690 C   0  0  0  0  0  0  0  0  0  0  0  0
  160.1480  210.2390  154.2930 C   0  0  0  0  0  0  0  0  0  0  0  0
  158.1610  213.8980  153.7650 N   0  0  0  0  0  2  0  0  0  0  0  0
  161.4180  206.4490  151.1280 C   0  0  0  0  0  0  0  0  0  0  0  0
  158.5790  213.3860  152.6630 C   0  0  0  0  0  2  0  0  0  0  0  0
  160.0040  209.1380  156.3930 C   0  0  0  0  0  3  0  0  0  0  0  0
  160.2390  209.0740  155.0740 C   0  0  2  0  0  3  0  0  0  0  0  0
  159.7870  211.4840  154.8990 N   0  0  0  0  0  2  0  0  0  0  0  0
  160.9390  208.8880  150.9750 C   0  0  0  0  0  3  0  0  0  0  0  0
  160.1110  211.4760  150.9010 O   0  0  0  0  0  0  0  0  0  0  0  0
  158.9380  214.0770  156.1300 C   0  0  0  0  0  1  0  0  0  0  0  0
  160.3500  210.1940  152.9090 C   0  0  0  0  0  0  0  0  0  0  0  0
  160.1110  212.7440  154.3520 N   0  0  1  0  0  0  0  0  0  0  0  0
  161.5790  204.0140  151.3590 C   0  0  0  0  0  2  0  0  0  0  0  0
  161.9060  205.1650  150.5160 C   0  0  1  0  0  3  0  0  0  0  0  0
  160.7600  204.3040  150.1760 N   0  0  0  0  0  0  0  0  0  0  0  0
  161.2140  203.4060  149.1300 C   0  0  0  0  0  2  0  0  0  0  0  0
  160.6670  202.0420  149.3650 C   0  0  0  0  0  0  0  0  0  0  0  0
  159.4220  201.8550  149.3720 O   0  0  0  0  0  0  0  0  0  0  0  0
  161.5290  200.9680  149.5360 O   0  0  0  0  0  1  0  0  0  0  0  0
  161.9560  208.9650  148.7140 C   0  0  0  0  0  1  0  0  0  0  0  0
  161.5930  207.6470  149.0150 O   0  0  0  0  0  0  0  0  0  0  0  0
  1 22  1  0  0  0  0
  1 10  1  0  0  0  0
  2  3  1  0  0  0  0
  4  5  1  0  0  0  0
  4 22  1  0  0  0  0
  5 15  1  1  0  0  0
  5 23  1  0  0  0  0
  6 19  1  0  0  0  0
  6 14  1  0  0  0  0
  7 10  1  0  0  0  0
  8 21  1  0  0  0  0
  9  2  2  0  0  0  0
 10 11  2  0  0  0  0
 11 17  1  0  0  0  0
 11  9  1  0  0  0  0
 12 18  1  0  0  0  0
 12 17  1  0  0  0  0
 13  8  1  0  0  0  0
 14  7  2  0  0  0  0
 15 13  1  0  0  0  0
 16  3  2  0  0  0  0
 17 16  1  1  0  0  0
 19  1  2  0  0  0  0
 20  4  2  0  0  0  0
 22 12  2  0  0  0  0
 23  8  1  0  0  0  0
 23 18  1  1  0  0  0
 25 14  1  1  0  0  0
 25 24  1  0  0  0  0
 26 25  1  0  0  0  0
 26 24  1  0  0  0  0
 27 28  1  0  0  0  0
 27 26  1  0  0  0  0
 28 29  2  0  0  0  0
 28 30  1  0  0  0  0
 31 32  1  0  0  0  0
 32  6  1  0  0  0  0
M  END
>  <MODEL>
8

>  <REMARK>
 VINA RESULT:      -7.0      2.707      4.795
  Name = 
  4 active torsions:
  status: ('A' for Active; 'I' for Inactive)
    1  A    between atoms: N_7  and  O_19
    2  A    between atoms: C_10  and  C_17
    3  A    between atoms: N_20  and  C_29
    4  A    between atoms: C_29  and  C_30
                            x       y       z     vdW  Elec       q    Type
                         _______ _______ _______ _____ _____    ______ ____

>  <TORSDO>
F 4

$$$$
=
 OpenBabel11122413003D

 32 37  0  0  1  0  0  0  0  0999 V2000
  161.4470  206.8620  149.1530 C   0  0  0  0  0  0  0  0  0  0  0  0
  160.7100  203.5080  152.7610 C   0  0  0  0  0  3  0  0  0  0  0  0
  160.8310  204.5030  153.6350 C   0  0  0  0  0  3  0  0  0  0  0  0
  161.7280  209.3140  149.8500 C   0  0  0  0  0  0  0  0  0  0  0  0
  162.0120  210.3030  150.9470 C   0  0  1  0  0  3  0  0  0  0  0  0
  161.4300  206.1550  146.8270 N   0  0  0  0  0  0  0  0  0  0  0  0
  161.1250  204.4660  148.4950 C   0  0  0  0  0  3  0  0  0  0  0  0
  161.6300  210.6940  153.1000 N   0  0  0  0  0  0  0  0  0  0  0  0
  160.8410  203.7310  151.2800 C   0  0  0  0  0  2  0  0  0  0  0  0
  161.2180  205.5170  149.5340 C   0  0  0  0  0  0  0  0  0  0  0  0
  161.0940  205.1760  150.8920 C   0  0  0  0  0  0  0  0  0  0  0  0
  161.4710  207.5110  151.4980 C   0  0  0  0  0  0  0  0  0  0  0  0
  160.7900  211.5530  152.3970 N   0  0  0  0  0  2  0  0  0  0  0  0
  161.2080  204.7800  147.2000 C   0  0  0  0  0  0  0  0  0  0  0  0
  160.9450  211.3340  151.1400 C   0  0  0  0  0  2  0  0  0  0  0  0
  161.0960  205.8740  153.1790 C   0  0  0  0  0  3  0  0  0  0  0  0
  161.2150  206.1810  151.8790 C   0  0  0  0  0  0  0  0  0  0  0  0
  161.5840  208.5330  152.4930 N   0  0  0  0  0  2  0  0  0  0  0  0
  161.5610  207.1590  147.8480 C   0  0  0  0  0  3  0  0  0  0  0  0
  161.6420  209.7490  148.6700 O   0  0  0  0  0  0  0  0  0  0  0  0
  161.7250  210.7030  154.5500 C   0  0  0  0  0  1  0  0  0  0  0  0
  161.5610  207.8670  150.1480 C   0  0  0  0  0  0  0  0  0  0  0  0
  162.2750  209.7460  152.2920 N   0  0  1  0  0  0  0  0  0  0  0  0
  162.4930  203.0010  146.1090 C   0  0  0  0  0  2  0  0  0  0  0  0
  161.2010  203.6870  146.1680 C   0  0  1  0  0  3  0  0  0  0  0  0
  161.3720  202.3780  146.8230 N   0  0  0  0  0  0  0  0  0  0  0  0
  160.8080  201.3890  145.9220 C   0  0  0  0  0  2  0  0  0  0  0  0
  161.2060  200.0240  146.3620 C   0  0  0  0  0  0  0  0  0  0  0  0
  161.5810  199.8280  147.5470 O   0  0  0  0  0  1  0  0  0  0  0  0
  161.1250  198.9580  145.4770 O   0  0  0  0  0  0  0  0  0  0  0  0
  160.4480  206.2050  144.8620 C   0  0  0  0  0  1  0  0  0  0  0  0
  161.6430  206.4990  145.5310 O   0  0  0  0  0  0  0  0  0  0  0  0
  1 10  1  0  0  0  0
  1 22  1  0  0  0  0
  2  3  2  0  0  0  0
  4 22  1  0  0  0  0
  4  5  1  0  0  0  0
  5 15  1  1  0  0  0
  5 23  1  0  0  0  0
  6 14  1  0  0  0  0
  6 19  1  0  0  0  0
  7 10  1  0  0  0  0
  8 21  1  0  0  0  0
  9  2  1  0  0  0  0
 10 11  2  0  0  0  0
 11  9  1  0  0  0  0
 11 17  1  0  0  0  0
 12 17  1  0  0  0  0
 12 18  1  0  0  0  0
 13  8  1  0  0  0  0
 14  7  2  0  0  0  0
 15 13  1  0  0  0  0
 16  3  1  0  0  0  0
 17 16  2  0  0  0  0
 19  1  2  0  0  0  0
 20  4  2  0  0  0  0
 22 12  2  0  0  0  0
 23 18  1  6  0  0  0
 23  8  1  0  0  0  0
 24 25  1  0  0  0  0
 24 26  1  0  0  0  0
 25 26  1  0  0  0  0
 25 14  1  1  0  0  0
 27 28  1  0  0  0  0
 27 26  1  0  0  0  0
 28 29  1  0  0  0  0
 30 28  2  0  0  0  0
 31 32  1  0  0  0  0
 32  6  1  0  0  0  0
M  END
>  <MODEL>
9

>  <REMARK>
 VINA RESULT:      -6.7      2.264      4.229
  Name = 
  4 active torsions:
  status: ('A' for Active; 'I' for Inactive)
    1  A    between atoms: N_7  and  O_19
    2  A    between atoms: C_10  and  C_17
    3  A    between atoms: N_20  and  C_29
    4  A    between atoms: C_29  and  C_30
                            x       y       z     vdW  Elec       q    Type
                         _______ _______ _______ _____ _____    ______ ____

>  <TORSDO>
F 4

$$$$
