=
 OpenBabel11122414093D

 28 32  0  0  1  0  0  0  0  0999 V2000
  161.1310  209.5360  156.5690 C   0  0  0  0  0  0  0  0  0  0  0  0
  157.1400  211.6900  154.0290 C   0  0  0  0  0  1  0  0  0  0  0  0
  161.9820  207.4060  152.5610 O   0  0  0  0  0  0  0  0  0  0  0  0
  163.4030  211.0710  156.0140 C   0  0  0  0  0  3  0  0  0  0  0  0
  161.2150  209.5860  151.8720 C   0  0  1  0  0  3  0  0  0  0  0  0
  160.0030  208.7470  156.8010 O   0  0  0  0  0  0  0  0  0  0  0  0
  158.1020  213.3860  155.5040 C   0  0  0  0  0  1  0  0  0  0  0  0
  158.2710  212.7190  154.1540 C   0  0  0  0  0  0  0  0  0  0  0  0
  158.2930  213.1520  151.8880 C   0  0  1  0  0  3  0  0  0  0  0  0
  159.6980  212.0950  154.1280 C   0  0  2  0  0  3  0  0  0  0  0  0
  161.8500  206.7520  155.3830 O   0  0  0  0  0  1  0  0  0  0  0  0
  159.5430  209.7030  153.6950 C   0  0  1  0  0  3  0  0  0  0  0  0
  159.7530  212.8080  151.6540 C   0  0  0  0  0  2  0  0  0  0  0  0
  158.1360  213.7260  153.1660 O   0  0  0  0  0  0  0  0  0  0  0  0
  160.4700  206.6910  155.5770 C   0  0  2  0  0  3  0  0  0  0  0  0
  161.0630  210.5470  155.5980 C   0  0  0  0  0  0  0  0  0  0  0  0
  161.2440  208.4070  152.7650 C   0  0  0  0  0  0  0  0  0  0  0  0
  157.8690  214.0570  150.9170 O   0  0  0  0  0  1  0  0  0  0  0  0
  159.6990  207.2550  154.3750 C   0  0  0  0  0  2  0  0  0  0  0  0
  162.2150  211.3040  155.3190 C   0  0  0  0  0  3  0  0  0  0  0  0
  162.3270  209.3010  157.2610 C   0  0  0  0  0  3  0  0  0  0  0  0
  163.4590  210.0700  156.9860 C   0  0  0  0  0  3  0  0  0  0  0  0
  160.0760  207.3320  156.9100 C   0  0  0  0  0  2  0  0  0  0  0  0
  159.9860  210.3730  152.3870 C   0  0  1  0  0  3  0  0  0  0  0  0
  160.3090  208.4690  153.8290 N   0  0  0  0  0  0  0  0  0  0  0  0
  160.2510  211.8400  152.7220 C   0  0  2  0  0  3  0  0  0  0  0  0
  162.5410  210.3330  151.9770 C   0  0  0  0  0  1  0  0  0  0  0  0
  159.7750  210.7330  154.8210 C   0  0  1  0  0  3  0  0  0  0  0  0
  1  6  1  0  0  0  0
  1 21  1  0  0  0  0
  2  8  1  0  0  0  0
  3 17  2  0  0  0  0
  4 22  1  0  0  0  0
  5 27  1  1  0  0  0
  5 24  1  0  0  0  0
  5 17  1  0  0  0  0
  6 23  1  0  0  0  0
  8  7  1  0  0  0  0
  9 18  1  6  0  0  0
  9 14  1  0  0  0  0
 10  8  1  6  0  0  0
 10 28  1  0  0  0  0
 12 25  1  1  0  0  0
 12 28  1  0  0  0  0
 13  9  1  0  0  0  0
 13 26  1  0  0  0  0
 14  8  1  0  0  0  0
 15 11  1  6  0  0  0
 15 23  1  0  0  0  0
 16  1  2  0  0  0  0
 17 25  1  0  0  0  0
 19 15  1  0  0  0  0
 20 16  1  0  0  0  0
 20  4  2  0  0  0  0
 22 21  2  0  0  0  0
 24 26  1  0  0  0  0
 24 12  1  0  0  0  0
 25 19  1  0  0  0  0
 26 10  1  0  0  0  0
 28 16  1  0  0  0  0
M  END
>  <MODEL>
1

>  <REMARK>
 VINA RESULT:      -2.1      0.000      0.000
  Name = 
  0 active torsions:
  status: ('A' for Active; 'I' for Inactive)
                            x       y       z     vdW  Elec       q    Type
                         _______ _______ _______ _____ _____    ______ ____

>  <TORSDO>
F 0

$$$$
=
 OpenBabel11122414093D

 28 32  0  0  1  0  0  0  0  0999 V2000
  160.2560  210.3820  156.1430 C   0  0  0  0  0  0  0  0  0  0  0  0
  155.2480  210.8500  154.8350 C   0  0  0  0  0  1  0  0  0  0  0  0
  161.0780  211.9550  151.8800 O   0  0  0  0  0  0  0  0  0  0  0  0
  161.1290  212.8890  157.0280 C   0  0  0  0  0  3  0  0  0  0  0  0
  159.1200  213.1910  152.5530 C   0  0  1  0  0  3  0  0  0  0  0  0
  159.8270  209.1480  155.6540 O   0  0  0  0  0  0  0  0  0  0  0  0
  155.4860  211.5270  157.1730 C   0  0  0  0  0  1  0  0  0  0  0  0
  155.6400  212.0190  155.7480 C   0  0  0  0  0  0  0  0  0  0  0  0
  154.8580  213.6020  154.2640 C   0  0  1  0  0  3  0  0  0  0  0  0
  157.1190  212.4800  155.5820 C   0  0  2  0  0  3  0  0  0  0  0  0
  162.0290  209.8570  153.6420 O   0  0  0  0  0  1  0  0  0  0  0  0
  158.1660  211.2490  153.7590 C   0  0  1  0  0  3  0  0  0  0  0  0
  156.1620  214.3660  154.1130 C   0  0  0  0  0  2  0  0  0  0  0  0
  154.7450  213.1040  155.5770 O   0  0  0  0  0  0  0  0  0  0  0  0
  160.9970  208.9260  153.5270 C   0  0  2  0  0  3  0  0  0  0  0  0
  159.4180  211.4970  155.9990 C   0  0  0  0  0  0  0  0  0  0  0  0
  159.9980  212.0010  152.5280 C   0  0  0  0  0  0  0  0  0  0  0  0
  153.7880  214.4530  153.9960 O   0  0  0  0  0  1  0  0  0  0  0  0
  159.7720  209.5160  152.8150 C   0  0  0  0  0  2  0  0  0  0  0  0
  159.8710  212.7550  156.4370 C   0  0  0  0  0  3  0  0  0  0  0  0
  161.5210  210.5220  156.7330 C   0  0  0  0  0  3  0  0  0  0  0  0
  161.9530  211.7730  157.1770 C   0  0  0  0  0  3  0  0  0  0  0  0
  160.6710  208.3000  154.8850 C   0  0  0  0  0  2  0  0  0  0  0  0
  157.8360  212.6530  153.2300 C   0  0  1  0  0  3  0  0  0  0  0  0
  159.4780  210.8870  153.2350 N   0  0  0  0  0  0  0  0  0  0  0  0
  157.3490  213.4630  154.4290 C   0  0  2  0  0  3  0  0  0  0  0  0
  159.8150  214.3180  153.3100 C   0  0  0  0  0  1  0  0  0  0  0  0
  158.0840  211.3270  155.2990 C   0  0  1  0  0  3  0  0  0  0  0  0
  1 21  1  0  0  0  0
  2  8  1  0  0  0  0
  3 17  2  0  0  0  0
  4 22  1  0  0  0  0
  5 24  1  0  0  0  0
  5 27  1  1  0  0  0
  6  1  1  0  0  0  0
  8  7  1  0  0  0  0
  9 18  1  1  0  0  0
  9 14  1  0  0  0  0
 10  8  1  6  0  0  0
 12 25  1  1  0  0  0
 12 28  1  0  0  0  0
 13  9  1  0  0  0  0
 13 26  1  0  0  0  0
 14  8  1  0  0  0  0
 15 11  1  1  0  0  0
 15 23  1  0  0  0  0
 16  1  2  0  0  0  0
 16 20  1  0  0  0  0
 17  5  1  0  0  0  0
 17 25  1  0  0  0  0
 19 25  1  0  0  0  0
 19 15  1  0  0  0  0
 20  4  2  0  0  0  0
 21 22  2  0  0  0  0
 23  6  1  0  0  0  0
 24 12  1  0  0  0  0
 24 26  1  0  0  0  0
 26 10  1  0  0  0  0
 28 10  1  0  0  0  0
 28 16  1  0  0  0  0
M  END
>  <MODEL>
2

>  <REMARK>
 VINA RESULT:      -1.6      2.259      3.309
  Name = 
  0 active torsions:
  status: ('A' for Active; 'I' for Inactive)
                            x       y       z     vdW  Elec       q    Type
                         _______ _______ _______ _____ _____    ______ ____

>  <TORSDO>
F 0

$$$$
=
 OpenBabel11122414093D

 28 32  0  0  1  0  0  0  0  0999 V2000
  157.2740  212.3440  153.1370 C   0  0  0  0  0  0  0  0  0  0  0  0
  159.8120  208.5680  155.6480 C   0  0  0  0  0  1  0  0  0  0  0  0
  157.2090  214.4520  157.2450 O   0  0  0  0  0  0  0  0  0  0  0  0
  159.1620  214.2720  152.3950 C   0  0  0  0  0  3  0  0  0  0  0  0
  159.3610  213.3640  157.2200 C   0  0  1  0  0  3  0  0  0  0  0  0
  156.3320  211.4030  153.5540 O   0  0  0  0  0  0  0  0  0  0  0  0
  160.8060  208.7990  153.4260 C   0  0  0  0  0  1  0  0  0  0  0  0
  160.8150  209.3850  154.8240 C   0  0  0  0  0  0  0  0  0  0  0  0
  162.1850  209.7660  156.6400 C   0  0  1  0  0  3  0  0  0  0  0  0
  160.4420  210.8910  154.6900 C   0  0  2  0  0  3  0  0  0  0  0  0
  155.3880  213.9030  155.0570 O   0  0  0  0  0  1  0  0  0  0  0  0
  158.4730  211.3760  156.0400 C   0  0  1  0  0  3  0  0  0  0  0  0
  162.1560  211.2820  156.5710 C   0  0  0  0  0  2  0  0  0  0  0  0
  162.1260  209.2270  155.3390 O   0  0  0  0  0  0  0  0  0  0  0  0
  155.0810  212.5640  155.2960 C   0  0  2  0  0  3  0  0  0  0  0  0
  158.5880  212.2470  153.6160 C   0  0  0  0  0  0  0  0  0  0  0  0
  157.9250  213.4800  156.8850 C   0  0  0  0  0  0  0  0  0  0  0  0
  163.3620  209.3520  157.2610 O   0  0  0  0  0  1  0  0  0  0  0  0
  156.0120  211.9440  156.3480 C   0  0  0  0  0  2  0  0  0  0  0  0
  159.5260  213.2280  153.2460 C   0  0  0  0  0  3  0  0  0  0  0  0
  156.9100  213.3980  152.2860 C   0  0  0  0  0  3  0  0  0  0  0  0
  157.8540  214.3570  151.9130 C   0  0  0  0  0  3  0  0  0  0  0  0
  155.0290  211.7730  153.9860 C   0  0  0  0  0  2  0  0  0  0  0  0
  159.6920  211.9100  156.8060 C   0  0  1  0  0  3  0  0  0  0  0  0
  157.4060  212.3590  156.1870 N   0  0  0  0  0  0  0  0  0  0  0  0
  160.8890  211.7610  155.8690 C   0  0  2  0  0  3  0  0  0  0  0  0
  160.1450  214.4350  156.4680 C   0  0  0  0  0  1  0  0  0  0  0  0
  158.9340  211.1340  154.5870 C   0  0  1  0  0  3  0  0  0  0  0  0
  1  6  1  0  0  0  0
  1 16  1  0  0  0  0
  4 20  1  0  0  0  0
  5 27  1  6  0  0  0
  6 23  1  0  0  0  0
  7  8  1  0  0  0  0
  8 14  1  0  0  0  0
  8  2  1  0  0  0  0
  9 18  1  6  0  0  0
 10  8  1  1  0  0  0
 10 26  1  0  0  0  0
 12 25  1  6  0  0  0
 12 24  1  0  0  0  0
 13  9  1  0  0  0  0
 14  9  1  0  0  0  0
 15 11  1  6  0  0  0
 15 19  1  0  0  0  0
 16 28  1  0  0  0  0
 17  5  1  0  0  0  0
 17  3  2  0  0  0  0
 20 16  2  0  0  0  0
 21  1  2  0  0  0  0
 22 21  1  0  0  0  0
 22  4  2  0  0  0  0
 23 15  1  0  0  0  0
 24  5  1  0  0  0  0
 25 19  1  0  0  0  0
 25 17  1  0  0  0  0
 26 13  1  0  0  0  0
 26 24  1  0  0  0  0
 28 10  1  0  0  0  0
 28 12  1  0  0  0  0
M  END
>  <MODEL>
3

>  <REMARK>
 VINA RESULT:      -1.0      2.280      6.346
  Name = 
  0 active torsions:
  status: ('A' for Active; 'I' for Inactive)
                            x       y       z     vdW  Elec       q    Type
                         _______ _______ _______ _____ _____    ______ ____

>  <TORSDO>
F 0

$$$$
=
 OpenBabel11122414093D

 28 32  0  0  1  0  0  0  0  0999 V2000
  160.0980  208.0250  153.6110 C   0  0  0  0  0  0  0  0  0  0  0  0
  157.2390  212.3610  153.8010 C   0  0  0  0  0  1  0  0  0  0  0  0
  163.6030  210.7910  154.7900 O   0  0  0  0  0  0  0  0  0  0  0  0
  160.2700  207.0200  156.2170 C   0  0  0  0  0  3  0  0  0  0  0  0
  161.7440  211.7030  156.0250 C   0  0  1  0  0  3  0  0  0  0  0  0
  160.0500  208.5590  152.3230 O   0  0  0  0  0  0  0  0  0  0  0  0
  155.8960  210.5290  154.7070 C   0  0  0  0  0  1  0  0  0  0  0  0
  156.9760  211.5300  155.0640 C   0  0  0  0  0  0  0  0  0  0  0  0
  157.4410  213.2970  156.4710 C   0  0  1  0  0  3  0  0  0  0  0  0
  158.2110  210.7150  155.5510 C   0  0  2  0  0  3  0  0  0  0  0  0
  163.0600  208.6580  152.9010 O   0  0  0  0  0  1  0  0  0  0  0  0
  160.1510  211.2620  154.1820 C   0  0  1  0  0  3  0  0  0  0  0  0
  158.5470  212.6140  157.2560 C   0  0  0  0  0  2  0  0  0  0  0  0
  156.4650  212.3510  156.1000 O   0  0  0  0  0  0  0  0  0  0  0  0
  162.3250  209.3430  151.9320 C   0  0  2  0  0  3  0  0  0  0  0  0
  159.6130  208.7900  154.6820 C   0  0  0  0  0  0  0  0  0  0  0  0
  162.3690  211.0300  154.8650 C   0  0  0  0  0  0  0  0  0  0  0  0
  156.8540  214.2840  157.2610 O   0  0  0  0  0  1  0  0  0  0  0  0
  161.9050  210.7390  152.4140 C   0  0  0  0  0  2  0  0  0  0  0  0
  159.7150  208.2810  155.9890 C   0  0  0  0  0  3  0  0  0  0  0  0
  160.6590  206.7620  153.8450 C   0  0  0  0  0  3  0  0  0  0  0  0
  160.7410  206.2590  155.1450 C   0  0  0  0  0  3  0  0  0  0  0  0
  161.1550  208.4930  151.4310 C   0  0  0  0  0  2  0  0  0  0  0  0
  160.3140  212.0020  155.5170 C   0  0  1  0  0  3  0  0  0  0  0  0
  161.4640  210.7480  153.8100 N   0  0  0  0  0  0  0  0  0  0  0  0
  159.1890  211.5090  156.4240 C   0  0  2  0  0  3  0  0  0  0  0  0
  161.8100  210.7840  157.2400 C   0  0  0  0  0  1  0  0  0  0  0  0
  159.0730  210.1800  154.4050 C   0  0  1  0  0  3  0  0  0  0  0  0
  1 21  2  0  0  0  0
  1 16  1  0  0  0  0
  2  8  1  0  0  0  0
  3 17  2  0  0  0  0
  5 27  1  1  0  0  0
  6  1  1  0  0  0  0
  7  8  1  0  0  0  0
  8 14  1  0  0  0  0
  9 13  1  0  0  0  0
  9 18  1  1  0  0  0
 10  8  1  6  0  0  0
 10 26  1  0  0  0  0
 12 25  1  1  0  0  0
 12 28  1  0  0  0  0
 12 24  1  0  0  0  0
 14  9  1  0  0  0  0
 15 19  1  0  0  0  0
 15 11  1  1  0  0  0
 16 20  2  0  0  0  0
 17  5  1  0  0  0  0
 19 25  1  0  0  0  0
 20  4  1  0  0  0  0
 21 22  1  0  0  0  0
 22  4  2  0  0  0  0
 23 15  1  0  0  0  0
 23  6  1  0  0  0  0
 24  5  1  0  0  0  0
 24 26  1  0  0  0  0
 25 17  1  0  0  0  0
 26 13  1  0  0  0  0
 28 16  1  0  0  0  0
 28 10  1  0  0  0  0
M  END
>  <MODEL>
4

>  <REMARK>
 VINA RESULT:       0.8      2.167      4.091
  Name = 
  0 active torsions:
  status: ('A' for Active; 'I' for Inactive)
                            x       y       z     vdW  Elec       q    Type
                         _______ _______ _______ _____ _____    ______ ____

>  <TORSDO>
F 0

$$$$
=
 OpenBabel11122414093D

 28 32  0  0  1  0  0  0  0  0999 V2000
  157.4630  211.6900  156.3980 C   0  0  0  0  0  0  0  0  0  0  0  0
  161.8660  208.9280  156.3710 C   0  0  0  0  0  1  0  0  0  0  0  0
  159.1570  213.6320  152.5660 O   0  0  0  0  0  0  0  0  0  0  0  0
  155.6500  210.3930  154.7060 C   0  0  0  0  0  3  0  0  0  0  0  0
  159.8750  211.3370  152.3820 C   0  0  1  0  0  3  0  0  0  0  0  0
  158.3890  212.3580  157.2000 O   0  0  0  0  0  0  0  0  0  0  0  0
  160.0530  207.4550  157.0960 C   0  0  0  0  0  1  0  0  0  0  0  0
  160.7160  208.0450  155.8670 C   0  0  0  0  0  0  0  0  0  0  0  0
  161.8400  207.4680  153.9380 C   0  0  1  0  0  3  0  0  0  0  0  0
  159.6170  208.8260  155.0860 C   0  0  2  0  0  3  0  0  0  0  0  0
  157.8590  214.4530  155.0250 O   0  0  0  0  0  1  0  0  0  0  0  0
  160.2940  211.1510  154.8160 C   0  0  1  0  0  3  0  0  0  0  0  0
  160.7870  207.9610  152.9620 C   0  0  0  0  0  2  0  0  0  0  0  0
  161.2190  206.9660  155.0990 O   0  0  0  0  0  0  0  0  0  0  0  0
  158.9200  214.3680  155.9270 C   0  0  2  0  0  3  0  0  0  0  0  0
  157.9000  210.6160  155.6080 C   0  0  0  0  0  0  0  0  0  0  0  0
  159.5350  212.5690  153.1270 C   0  0  0  0  0  0  0  0  0  0  0  0
  162.5910  206.4570  153.3390 O   0  0  0  0  0  1  0  0  0  0  0  0
  160.1280  213.6400  155.3200 C   0  0  0  0  0  2  0  0  0  0  0  0
  156.9830  209.9790  154.7530 C   0  0  0  0  0  3  0  0  0  0  0  0
  156.1260  212.1070  156.3440 C   0  0  0  0  0  3  0  0  0  0  0  0
  155.2210  211.4560  155.5030 C   0  0  0  0  0  3  0  0  0  0  0  0
  158.4580  213.7760  157.2610 C   0  0  0  0  0  2  0  0  0  0  0  0
  160.5270  210.4500  153.4700 C   0  0  1  0  0  3  0  0  0  0  0  0
  159.7460  212.4710  154.5260 N   0  0  0  0  0  0  0  0  0  0  0  0
  159.9330  209.0490  153.6040 C   0  0  2  0  0  3  0  0  0  0  0  0
  158.6110  210.7560  151.7590 C   0  0  0  0  0  1  0  0  0  0  0  0
  159.3660  210.2320  155.6380 C   0  0  1  0  0  3  0  0  0  0  0  0
  1  6  1  0  0  0  0
  3 17  2  0  0  0  0
  4 20  2  0  0  0  0
  4 22  1  0  0  0  0
  5 27  1  1  0  0  0
  5 17  1  0  0  0  0
  5 24  1  0  0  0  0
  6 23  1  0  0  0  0
  8  2  1  0  0  0  0
  8  7  1  0  0  0  0
  9 18  1  6  0  0  0
  9 14  1  0  0  0  0
 10 28  1  0  0  0  0
 10  8  1  1  0  0  0
 12 25  1  6  0  0  0
 12 28  1  0  0  0  0
 13 26  1  0  0  0  0
 13  9  1  0  0  0  0
 14  8  1  0  0  0  0
 15 11  1  6  0  0  0
 15 23  1  0  0  0  0
 16 28  1  0  0  0  0
 16  1  2  0  0  0  0
 17 25  1  0  0  0  0
 19 15  1  0  0  0  0
 20 16  1  0  0  0  0
 21  1  1  0  0  0  0
 22 21  2  0  0  0  0
 24 26  1  0  0  0  0
 24 12  1  0  0  0  0
 25 19  1  0  0  0  0
 26 10  1  0  0  0  0
M  END
>  <MODEL>
5

>  <REMARK>
 VINA RESULT:       0.8      1.836      5.785
  Name = 
  0 active torsions:
  status: ('A' for Active; 'I' for Inactive)
                            x       y       z     vdW  Elec       q    Type
                         _______ _______ _______ _____ _____    ______ ____

>  <TORSDO>
F 0

$$$$
