=
 OpenBabel11122414103D

 28 32  0  0  1  0  0  0  0  0999 V2000
  160.5420  210.6850  140.4240 C   0  0  0  0  0  0  0  0  0  0  0  0
  156.5280  209.3810  137.5320 F   0  0  0  0  0  0  0  0  0  0  0  0
  161.0670  213.8250  137.1240 O   0  0  0  0  0  0  0  0  0  0  0  0
  159.6700  212.8250  142.0040 C   0  0  0  0  0  3  0  0  0  0  0  0
  158.6730  213.6060  137.2880 C   0  0  1  0  0  3  0  0  0  0  0  0
  160.9850  209.6520  139.5970 O   0  0  0  0  0  0  0  0  0  0  0  0
  155.8780  208.9010  139.7450 C   0  0  0  0  0  1  0  0  0  0  0  0
  156.0150  209.9700  138.6790 C   0  0  1  0  0  0  0  0  0  0  0  0
  154.7500  211.6330  137.3650 C   0  0  1  0  0  3  0  0  0  0  0  0
  156.9470  211.0930  139.2060 C   0  0  2  0  0  3  0  0  0  0  0  0
  162.6740  211.9960  138.6530 F   0  0  0  0  0  0  0  0  0  0  0  0
  158.8000  211.1690  137.6840 C   0  0  1  0  0  3  0  0  0  0  0  0
  155.5210  212.7690  138.0140 C   0  0  0  0  0  2  0  0  0  0  0  0
  154.6300  210.5070  138.3680 C   0  0  0  0  0  2  0  0  0  0  0  0
  162.4290  210.7980  138.0060 C   0  0  2  0  0  3  0  0  0  0  0  0
  159.2630  211.2240  140.2170 C   0  0  0  0  0  0  0  0  0  0  0  0
  160.0590  213.1000  137.3350 C   0  0  0  0  0  0  0  0  0  0  0  0
  153.4790  212.0770  137.0110 O   0  0  0  0  0  1  0  0  0  0  0  0
  161.2470  210.9070  137.0350 C   0  0  0  0  0  2  0  0  0  0  0  0
  158.8410  212.3060  141.0080 C   0  0  0  0  0  3  0  0  0  0  0  0
  161.3760  211.2120  141.4210 C   0  0  0  0  0  3  0  0  0  0  0  0
  160.9380  212.2760  142.2120 C   0  0  0  0  0  3  0  0  0  0  0  0
  162.2790  209.6540  139.0080 C   0  0  0  0  0  2  0  0  0  0  0  0
  157.8280  212.3180  137.3770 C   0  0  1  0  0  3  0  0  0  0  0  0
  160.1520  211.7070  137.5800 N   0  0  0  0  0  0  0  0  0  0  0  0
  156.8580  212.3700  138.4730 N   0  0  2  0  0  0  0  0  0  0  0  0
  158.4540  214.4530  138.3790 O   0  0  0  0  0  1  0  0  0  0  0  0
  158.4090  210.6740  139.0890 C   0  0  1  0  0  3  0  0  0  0  0  0
  1 21  1  0  0  0  0
  2  8  1  0  0  0  0
  3 17  2  0  0  0  0
  4 22  1  0  0  0  0
  5 17  1  0  0  0  0
  5 24  1  0  0  0  0
  5 27  1  1  0  0  0
  6  1  1  0  0  0  0
  8 10  1  0  0  0  0
  8  7  1  1  0  0  0
  9 18  1  1  0  0  0
  9 13  1  0  0  0  0
  9 14  1  0  0  0  0
 12 28  1  0  0  0  0
 13 26  1  0  0  0  0
 14  8  1  0  0  0  0
 15 11  1  0  0  0  0
 15 23  1  0  0  0  0
 16  1  2  0  0  0  0
 16 20  1  0  0  0  0
 17 25  1  0  0  0  0
 19 25  1  0  0  0  0
 19 15  1  0  0  0  0
 20  4  2  0  0  0  0
 21 22  2  0  0  0  0
 23  6  1  0  0  0  0
 24 12  1  0  0  0  0
 24 26  1  0  0  0  0
 25 12  1  0  0  0  0
 26 10  1  0  0  0  0
 28 10  1  0  0  0  0
 28 16  1  0  0  0  0
M  END
>  <MODEL>
1

>  <REMARK>
 VINA RESULT:      -3.6      0.000      0.000
  Name = 
  0 active torsions:
  status: ('A' for Active; 'I' for Inactive)
                            x       y       z     vdW  Elec       q    Type
                         _______ _______ _______ _____ _____    ______ ____

>  <TORSDO>
F 0

$$$$
=
 OpenBabel11122414103D

 28 32  0  0  1  0  0  0  0  0999 V2000
  161.1300  209.4230  156.5300 C   0  0  0  0  0  0  0  0  0  0  0  0
  157.3750  211.4100  153.6780 F   0  0  0  0  0  0  0  0  0  0  0  0
  162.2630  207.4980  152.5250 O   0  0  0  0  0  0  0  0  0  0  0  0
  163.3530  211.0700  156.1050 C   0  0  0  0  0  3  0  0  0  0  0  0
  161.3910  209.6450  151.8660 C   0  0  1  0  0  3  0  0  0  0  0  0
  160.0330  208.5770  156.6970 O   0  0  0  0  0  0  0  0  0  0  0  0
  157.8440  213.0430  155.3100 C   0  0  0  0  0  1  0  0  0  0  0  0
  158.2430  212.4520  153.9730 C   0  0  1  0  0  0  0  0  0  0  0  0
  158.5540  212.9850  151.5830 C   0  0  1  0  0  3  0  0  0  0  0  0
  159.7130  211.9610  154.0560 C   0  0  2  0  0  3  0  0  0  0  0  0
  162.0320  206.7650  155.2960 F   0  0  0  0  0  0  0  0  0  0  0  0
  159.6390  209.6050  153.6110 C   0  0  1  0  0  3  0  0  0  0  0  0
  160.0410  212.6960  151.6860 C   0  0  0  0  0  2  0  0  0  0  0  0
  158.0830  213.5280  152.9140 C   0  0  0  0  0  2  0  0  0  0  0  0
  160.6650  206.5960  155.4280 C   0  0  2  0  0  3  0  0  0  0  0  0
  161.0550  210.4570  155.5860 C   0  0  0  0  0  0  0  0  0  0  0  0
  161.4480  208.4390  152.7170 C   0  0  0  0  0  0  0  0  0  0  0  0
  158.3340  213.9370  150.5900 O   0  0  0  0  0  1  0  0  0  0  0  0
  159.9030  207.1470  154.2170 C   0  0  0  0  0  2  0  0  0  0  0  0
  162.1810  211.2710  155.3720 C   0  0  0  0  0  3  0  0  0  0  0  0
  162.3090  209.2190  157.2610 C   0  0  0  0  0  3  0  0  0  0  0  0
  163.4160  210.0450  157.0520 C   0  0  0  0  0  3  0  0  0  0  0  0
  160.1680  207.1620  156.7590 C   0  0  0  0  0  2  0  0  0  0  0  0
  160.1110  210.3560  152.3570 C   0  0  1  0  0  3  0  0  0  0  0  0
  160.4630  208.4090  153.7350 N   0  0  0  0  0  0  0  0  0  0  0  0
  160.3700  211.7420  152.7530 N   0  0  2  0  0  0  0  0  0  0  0  0
  162.5360  210.4180  152.0830 O   0  0  0  0  0  1  0  0  0  0  0  0
  159.7880  210.6130  154.7650 C   0  0  1  0  0  3  0  0  0  0  0  0
  1  6  1  0  0  0  0
  1 21  1  0  0  0  0
  2  8  1  0  0  0  0
  3 17  2  0  0  0  0
  4 22  1  0  0  0  0
  5 27  1  1  0  0  0
  5 24  1  0  0  0  0
  5 17  1  0  0  0  0
  6 23  1  0  0  0  0
  8 10  1  0  0  0  0
  8  7  1  1  0  0  0
  9 18  1  6  0  0  0
  9 13  1  0  0  0  0
  9 14  1  0  0  0  0
 10 28  1  0  0  0  0
 11 15  1  0  0  0  0
 12 25  1  0  0  0  0
 12 28  1  0  0  0  0
 13 26  1  0  0  0  0
 14  8  1  0  0  0  0
 15 23  1  0  0  0  0
 16  1  2  0  0  0  0
 17 25  1  0  0  0  0
 19 15  1  0  0  0  0
 20 16  1  0  0  0  0
 20  4  2  0  0  0  0
 22 21  2  0  0  0  0
 24 26  1  0  0  0  0
 24 12  1  0  0  0  0
 25 19  1  0  0  0  0
 26 10  1  0  0  0  0
 28 16  1  0  0  0  0
M  END
>  <MODEL>
2

>  <REMARK>
 VINA RESULT:      -2.8     13.462     15.898
  Name = 
  0 active torsions:
  status: ('A' for Active; 'I' for Inactive)
                            x       y       z     vdW  Elec       q    Type
                         _______ _______ _______ _____ _____    ______ ____

>  <TORSDO>
F 0

$$$$
=
 OpenBabel11122414103D

 28 32  0  0  1  0  0  0  0  0999 V2000
  160.3340  210.0810  156.3380 C   0  0  0  0  0  0  0  0  0  0  0  0
  155.5910  210.7520  154.5400 F   0  0  0  0  0  0  0  0  0  0  0  0
  161.4160  211.0830  151.9970 O   0  0  0  0  0  0  0  0  0  0  0  0
  161.2880  212.6460  156.9270 C   0  0  0  0  0  3  0  0  0  0  0  0
  159.4710  212.4470  152.3980 C   0  0  1  0  0  3  0  0  0  0  0  0
  159.8710  208.8110  155.9950 O   0  0  0  0  0  0  0  0  0  0  0  0
  155.5060  211.4520  156.7890 C   0  0  0  0  0  1  0  0  0  0  0  0
  155.8590  211.8350  155.3650 C   0  0  1  0  0  0  0  0  0  0  0  0
  155.3550  213.4440  153.5620 C   0  0  1  0  0  3  0  0  0  0  0  0
  157.3570  212.2360  155.3070 C   0  0  2  0  0  3  0  0  0  0  0  0
  162.1660  209.2060  154.0410 F   0  0  0  0  0  0  0  0  0  0  0  0
  158.3830  210.7030  153.7730 C   0  0  1  0  0  3  0  0  0  0  0  0
  156.7710  213.9900  153.6200 C   0  0  0  0  0  2  0  0  0  0  0  0
  154.9650  212.9900  154.9510 C   0  0  0  0  0  2  0  0  0  0  0  0
  161.1300  208.2910  153.9750 C   0  0  2  0  0  3  0  0  0  0  0  0
  159.5560  211.2010  156.0110 C   0  0  0  0  0  0  0  0  0  0  0  0
  160.3000  211.2360  152.5600 C   0  0  0  0  0  0  0  0  0  0  0  0
  154.4870  214.4480  153.1410 O   0  0  0  0  0  1  0  0  0  0  0  0
  159.9620  208.8140  153.1310 C   0  0  0  0  0  2  0  0  0  0  0  0
  160.0500  212.4850  156.3000 C   0  0  0  0  0  3  0  0  0  0  0  0
  161.5780  210.2450  156.9630 C   0  0  0  0  0  3  0  0  0  0  0  0
  162.0510  211.5250  157.2610 C   0  0  0  0  0  3  0  0  0  0  0  0
  160.7060  207.8410  155.3740 C   0  0  0  0  0  2  0  0  0  0  0  0
  158.1420  212.0520  153.0780 C   0  0  1  0  0  3  0  0  0  0  0  0
  159.7000  210.2330  153.3620 N   0  0  0  0  0  0  0  0  0  0  0  0
  157.7480  213.0090  154.1130 N   0  0  2  0  0  0  0  0  0  0  0  0
  160.0910  213.5210  153.0450 O   0  0  0  0  0  1  0  0  0  0  0  0
  158.2430  210.9950  155.2780 C   0  0  1  0  0  3  0  0  0  0  0  0
  1 21  1  0  0  0  0
  2  8  1  0  0  0  0
  3 17  2  0  0  0  0
  4 22  1  0  0  0  0
  5 17  1  0  0  0  0
  5 27  1  1  0  0  0
  5 24  1  0  0  0  0
  6  1  1  0  0  0  0
  8  7  1  1  0  0  0
  9 18  1  1  0  0  0
  9 13  1  0  0  0  0
  9 14  1  0  0  0  0
 10  8  1  0  0  0  0
 12 28  1  0  0  0  0
 13 26  1  0  0  0  0
 14  8  1  0  0  0  0
 15 11  1  0  0  0  0
 15 23  1  0  0  0  0
 16 20  1  0  0  0  0
 16  1  2  0  0  0  0
 17 25  1  0  0  0  0
 19 25  1  0  0  0  0
 19 15  1  0  0  0  0
 20  4  2  0  0  0  0
 21 22  2  0  0  0  0
 23  6  1  0  0  0  0
 24 12  1  0  0  0  0
 24 26  1  0  0  0  0
 25 12  1  0  0  0  0
 26 10  1  0  0  0  0
 28 10  1  0  0  0  0
 28 16  1  0  0  0  0
M  END
>  <MODEL>
3

>  <REMARK>
 VINA RESULT:      -2.4     14.207     15.950
  Name = 
  0 active torsions:
  status: ('A' for Active; 'I' for Inactive)
                            x       y       z     vdW  Elec       q    Type
                         _______ _______ _______ _____ _____    ______ ____

>  <TORSDO>
F 0

$$$$
=
 OpenBabel11122414103D

 28 32  0  0  1  0  0  0  0  0999 V2000
  161.8200  211.0690  138.3490 C   0  0  0  0  0  0  0  0  0  0  0  0
  157.7010  213.9840  137.5040 F   0  0  0  0  0  0  0  0  0  0  0  0
  162.6450  214.2940  141.5020 O   0  0  0  0  0  0  0  0  0  0  0  0
  161.1560  209.4370  140.5240 C   0  0  0  0  0  3  0  0  0  0  0  0
  160.2410  214.1310  141.5100 C   0  0  1  0  0  3  0  0  0  0  0  0
  162.1620  211.9210  137.2990 O   0  0  0  0  0  0  0  0  0  0  0  0
  157.0080  211.7810  137.0370 C   0  0  0  0  0  1  0  0  0  0  0  0
  157.2460  212.8230  138.1120 C   0  0  1  0  0  0  0  0  0  0  0  0
  156.1480  214.0950  139.9200 C   0  0  1  0  0  3  0  0  0  0  0  0
  158.2820  212.2700  139.1280 C   0  0  2  0  0  3  0  0  0  0  0  0
  164.0690  212.8120  139.4920 F   0  0  0  0  0  0  0  0  0  0  0  0
  160.1340  213.7940  139.0630 C   0  0  1  0  0  3  0  0  0  0  0  0
  157.0230  213.4200  140.9610 C   0  0  0  0  0  2  0  0  0  0  0  0
  155.9200  213.1180  138.7870 C   0  0  0  0  0  2  0  0  0  0  0  0
  163.7110  213.4870  138.3390 C   0  0  2  0  0  3  0  0  0  0  0  0
  160.5990  211.2610  139.0120 C   0  0  0  0  0  0  0  0  0  0  0  0
  161.5720  214.0990  140.8720 C   0  0  0  0  0  0  0  0  0  0  0  0
  154.9240  214.4360  140.4920 O   0  0  0  0  0  1  0  0  0  0  0  0
  162.5450  214.4520  138.5830 C   0  0  0  0  0  2  0  0  0  0  0  0
  160.2820  210.4440  140.1110 C   0  0  0  0  0  3  0  0  0  0  0  0
  162.7000  210.0610  138.7700 C   0  0  0  0  0  3  0  0  0  0  0  0
  162.3650  209.2440  139.8520 C   0  0  0  0  0  3  0  0  0  0  0  0
  163.4510  212.5120  137.1900 C   0  0  0  0  0  2  0  0  0  0  0  0
  159.2760  214.0720  140.3060 C   0  0  1  0  0  3  0  0  0  0  0  0
  161.5310  213.8870  139.4720 N   0  0  0  0  0  0  0  0  0  0  0  0
  158.3160  212.9730  140.4250 N   0  0  2  0  0  0  0  0  0  0  0  0
  160.1040  213.0200  142.3480 O   0  0  0  0  0  1  0  0  0  0  0  0
  159.6970  212.4000  138.5740 C   0  0  1  0  0  3  0  0  0  0  0  0
  1 21  2  0  0  0  0
  1 16  1  0  0  0  0
  2  8  1  0  0  0  0
  5 27  1  1  0  0  0
  6  1  1  0  0  0  0
  8  7  1  6  0  0  0
  8 14  1  0  0  0  0
  8 10  1  0  0  0  0
  9 18  1  1  0  0  0
  9 13  1  0  0  0  0
 10 26  1  0  0  0  0
 12 25  1  0  0  0  0
 12 24  1  0  0  0  0
 14  9  1  0  0  0  0
 15 19  1  0  0  0  0
 15 11  1  0  0  0  0
 16 20  2  0  0  0  0
 17  3  2  0  0  0  0
 17  5  1  0  0  0  0
 19 25  1  0  0  0  0
 20  4  1  0  0  0  0
 21 22  1  0  0  0  0
 22  4  2  0  0  0  0
 23  6  1  0  0  0  0
 23 15  1  0  0  0  0
 24 26  1  0  0  0  0
 24  5  1  0  0  0  0
 25 17  1  0  0  0  0
 26 13  1  0  0  0  0
 28 16  1  0  0  0  0
 28 12  1  0  0  0  0
 28 10  1  0  0  0  0
M  END
>  <MODEL>
4

>  <REMARK>
 VINA RESULT:      -1.9      2.455      3.503
  Name = 
  0 active torsions:
  status: ('A' for Active; 'I' for Inactive)
                            x       y       z     vdW  Elec       q    Type
                         _______ _______ _______ _____ _____    ______ ____

>  <TORSDO>
F 0

$$$$
=
 OpenBabel11122414103D

 28 32  0  0  1  0  0  0  0  0999 V2000
  159.3690  212.7390  137.7230 C   0  0  0  0  0  0  0  0  0  0  0  0
  159.7360  207.8590  139.2160 F   0  0  0  0  0  0  0  0  0  0  0  0
  160.1470  213.4770  142.1810 O   0  0  0  0  0  0  0  0  0  0  0  0
  162.0020  213.6160  137.3540 C   0  0  0  0  0  3  0  0  0  0  0  0
  161.4520  211.5040  141.7230 C   0  0  1  0  0  3  0  0  0  0  0  0
  158.0630  212.3110  137.9590 O   0  0  0  0  0  0  0  0  0  0  0  0
  160.5690  207.8970  137.0120 C   0  0  0  0  0  1  0  0  0  0  0  0
  160.8780  208.1340  138.4770 C   0  0  1  0  0  0  0  0  0  0  0  0
  162.3510  207.4370  140.3310 C   0  0  1  0  0  3  0  0  0  0  0  0
  161.3360  209.6060  138.6640 C   0  0  2  0  0  3  0  0  0  0  0  0
  158.4300  214.4470  140.0900 F   0  0  0  0  0  0  0  0  0  0  0  0
  159.7540  210.5910  140.1760 C   0  0  1  0  0  3  0  0  0  0  0  0
  162.9570  208.8280  140.4060 C   0  0  0  0  0  2  0  0  0  0  0  0
  161.9680  207.1640  138.8930 C   0  0  0  0  0  2  0  0  0  0  0  0
  157.4720  213.4510  140.0280 C   0  0  2  0  0  3  0  0  0  0  0  0
  160.4350  211.8920  138.0600 C   0  0  0  0  0  0  0  0  0  0  0  0
  160.2880  212.3960  141.5500 C   0  0  0  0  0  0  0  0  0  0  0  0
  163.2920  206.4990  140.7470 O   0  0  0  0  0  1  0  0  0  0  0  0
  157.8940  212.2060  140.8160 C   0  0  0  0  0  2  0  0  0  0  0  0
  161.7530  212.3470  137.8820 C   0  0  0  0  0  3  0  0  0  0  0  0
  159.6220  214.0150  137.1990 C   0  0  0  0  0  3  0  0  0  0  0  0
  160.9360  214.4500  137.0110 C   0  0  0  0  0  3  0  0  0  0  0  0
  157.0920  213.1440  138.5790 C   0  0  0  0  0  2  0  0  0  0  0  0
  161.0460  210.2440  140.9300 C   0  0  1  0  0  3  0  0  0  0  0  0
  159.3140  211.8980  140.6510 N   0  0  0  0  0  0  0  0  0  0  0  0
  162.0490  209.8790  139.9270 N   0  0  2  0  0  0  0  0  0  0  0  0
  162.5880  212.1190  141.1860 O   0  0  0  0  0  1  0  0  0  0  0  0
  160.1310  210.5420  138.6840 C   0  0  1  0  0  3  0  0  0  0  0  0
  1  6  1  0  0  0  0
  1 16  1  0  0  0  0
  4 20  1  0  0  0  0
  5 27  1  6  0  0  0
  6 23  1  0  0  0  0
  8  7  1  6  0  0  0
  8 10  1  0  0  0  0
  8 14  1  0  0  0  0
  8  2  1  0  0  0  0
  9 13  1  0  0  0  0
  9 18  1  6  0  0  0
 10 28  1  0  0  0  0
 10 26  1  0  0  0  0
 12 25  1  0  0  0  0
 12 24  1  0  0  0  0
 14  9  1  0  0  0  0
 15 11  1  0  0  0  0
 15 19  1  0  0  0  0
 16 28  1  0  0  0  0
 17  5  1  0  0  0  0
 17  3  2  0  0  0  0
 20 16  2  0  0  0  0
 21  1  2  0  0  0  0
 22 21  1  0  0  0  0
 22  4  2  0  0  0  0
 23 15  1  0  0  0  0
 24  5  1  0  0  0  0
 25 19  1  0  0  0  0
 25 17  1  0  0  0  0
 26 13  1  0  0  0  0
 26 24  1  0  0  0  0
 28 12  1  0  0  0  0
M  END
>  <MODEL>
5

>  <REMARK>
 VINA RESULT:      -1.1      2.611      5.748
  Name = 
  0 active torsions:
  status: ('A' for Active; 'I' for Inactive)
                            x       y       z     vdW  Elec       q    Type
                         _______ _______ _______ _____ _____    ______ ____

>  <TORSDO>
F 0

$$$$
=
 OpenBabel11122414103D

 28 32  0  0  1  0  0  0  0  0999 V2000
  157.2610  212.2520  153.2450 C   0  0  0  0  0  0  0  0  0  0  0  0
  159.6740  208.5720  155.8550 F   0  0  0  0  0  0  0  0  0  0  0  0
  157.6330  214.4350  157.2600 O   0  0  0  0  0  0  0  0  0  0  0  0
  159.2680  213.9970  152.3710 C   0  0  0  0  0  3  0  0  0  0  0  0
  159.6580  213.1340  157.1620 C   0  0  1  0  0  3  0  0  0  0  0  0
  156.2620  211.4060  153.7270 O   0  0  0  0  0  0  0  0  0  0  0  0
  160.4180  208.3440  153.6310 C   0  0  0  0  0  1  0  0  0  0  0  0
  160.5910  209.0790  154.9450 C   0  0  1  0  0  0  0  0  0  0  0  0
  162.2140  209.5890  156.7340 C   0  0  1  0  0  3  0  0  0  0  0  0
  160.3750  210.5970  154.7070 C   0  0  2  0  0  3  0  0  0  0  0  0
  155.6730  213.9980  155.2020 F   0  0  0  0  0  0  0  0  0  0  0  0
  158.5180  211.2160  156.0950 C   0  0  1  0  0  3  0  0  0  0  0  0
  162.1670  211.0670  156.3900 C   0  0  0  0  0  2  0  0  0  0  0  0
  161.9900  208.7990  155.4630 C   0  0  0  0  0  2  0  0  0  0  0  0
  155.2330  212.7210  155.5010 C   0  0  2  0  0  3  0  0  0  0  0  0
  158.5860  212.0470  153.6580 C   0  0  0  0  0  0  0  0  0  0  0  0
  158.2250  213.3820  156.9060 C   0  0  0  0  0  0  0  0  0  0  0  0
  163.4650  209.2750  157.2610 O   0  0  0  0  0  1  0  0  0  0  0  0
  156.1440  212.0280  156.5210 C   0  0  0  0  0  2  0  0  0  0  0  0
  159.5830  212.9370  153.2230 C   0  0  0  0  0  3  0  0  0  0  0  0
  156.9460  213.3210  152.3940 C   0  0  0  0  0  3  0  0  0  0  0  0
  157.9480  214.1880  151.9550 C   0  0  0  0  0  3  0  0  0  0  0  0
  155.0260  211.9000  154.2270 C   0  0  0  0  0  2  0  0  0  0  0  0
  159.8320  211.6540  156.7590 C   0  0  1  0  0  3  0  0  0  0  0  0
  157.5600  212.3000  156.2770 N   0  0  0  0  0  0  0  0  0  0  0  0
  160.8980  211.4750  155.7710 N   0  0  2  0  0  0  0  0  0  0  0  0
  160.4240  213.9880  156.3630 O   0  0  0  0  0  1  0  0  0  0  0  0
  158.8860  210.9200  154.6290 C   0  0  1  0  0  3  0  0  0  0  0  0
  1 16  1  0  0  0  0
  1  6  1  0  0  0  0
  4 20  1  0  0  0  0
  5 27  1  6  0  0  0
  6 23  1  0  0  0  0
  8  7  1  6  0  0  0
  8 14  1  0  0  0  0
  8  2  1  0  0  0  0
  9 18  1  6  0  0  0
 10  8  1  0  0  0  0
 10 26  1  0  0  0  0
 11 15  1  0  0  0  0
 12 25  1  0  0  0  0
 12 24  1  0  0  0  0
 13  9  1  0  0  0  0
 14  9  1  0  0  0  0
 15 19  1  0  0  0  0
 16 28  1  0  0  0  0
 17  5  1  0  0  0  0
 17  3  2  0  0  0  0
 20 16  2  0  0  0  0
 21  1  2  0  0  0  0
 22  4  2  0  0  0  0
 22 21  1  0  0  0  0
 23 15  1  0  0  0  0
 24  5  1  0  0  0  0
 25 19  1  0  0  0  0
 25 17  1  0  0  0  0
 26 13  1  0  0  0  0
 26 24  1  0  0  0  0
 28 10  1  0  0  0  0
 28 12  1  0  0  0  0
M  END
>  <MODEL>
6

>  <REMARK>
 VINA RESULT:      -1.1     14.694     17.349
  Name = 
  0 active torsions:
  status: ('A' for Active; 'I' for Inactive)
                            x       y       z     vdW  Elec       q    Type
                         _______ _______ _______ _____ _____    ______ ____

>  <TORSDO>
F 0

$$$$
=
 OpenBabel11122414103D

 28 32  0  0  1  0  0  0  0  0999 V2000
  157.3420  211.5770  156.2400 C   0  0  0  0  0  0  0  0  0  0  0  0
  161.9310  209.5680  155.2000 F   0  0  0  0  0  0  0  0  0  0  0  0
  158.3420  214.1080  152.5500 O   0  0  0  0  0  0  0  0  0  0  0  0
  155.5390  210.2510  154.5580 C   0  0  0  0  0  3  0  0  0  0  0  0
  159.3460  211.9790  152.0350 C   0  0  1  0  0  3  0  0  0  0  0  0
  158.2530  212.2690  157.0380 O   0  0  0  0  0  0  0  0  0  0  0  0
  160.6780  207.8030  156.1290 C   0  0  0  0  0  1  0  0  0  0  0  0
  160.9930  208.5990  154.8780 C   0  0  1  0  0  0  0  0  0  0  0  0
  161.8490  208.4110  152.5710 C   0  0  1  0  0  3  0  0  0  0  0  0
  159.6820  209.2330  154.3420 C   0  0  2  0  0  3  0  0  0  0  0  0
  157.2400  214.4530  155.1820 F   0  0  0  0  0  0  0  0  0  0  0  0
  160.0440  211.6050  154.3770 C   0  0  1  0  0  3  0  0  0  0  0  0
  160.5070  208.8460  152.0100 C   0  0  0  0  0  2  0  0  0  0  0  0
  161.6030  207.6550  153.8590 C   0  0  0  0  0  2  0  0  0  0  0  0
  158.3800  214.4530  155.9660 C   0  0  2  0  0  3  0  0  0  0  0  0
  157.8240  210.6690  155.2860 C   0  0  0  0  0  0  0  0  0  0  0  0
  158.9300  213.0660  152.9430 C   0  0  0  0  0  0  0  0  0  0  0  0
  162.4850  207.5750  151.6560 O   0  0  0  0  0  1  0  0  0  0  0  0
  159.6090  213.9790  155.1820 C   0  0  0  0  0  2  0  0  0  0  0  0
  156.9110  210.0180  154.4390 C   0  0  0  0  0  3  0  0  0  0  0  0
  155.9650  211.8140  156.3550 C   0  0  0  0  0  3  0  0  0  0  0  0
  155.0660  211.1480  155.5180 C   0  0  0  0  0  3  0  0  0  0  0  0
  158.1550  213.6700  157.2610 C   0  0  0  0  0  2  0  0  0  0  0  0
  160.2060  211.0750  152.9440 C   0  0  1  0  0  3  0  0  0  0  0  0
  159.3050  212.8590  154.2940 N   0  0  0  0  0  0  0  0  0  0  0  0
  159.7400  209.6870  152.9390 N   0  0  2  0  0  0  0  0  0  0  0  0
  158.2110  211.3150  151.5580 O   0  0  0  0  0  1  0  0  0  0  0  0
  159.3240  210.4800  155.1430 C   0  0  1  0  0  3  0  0  0  0  0  0
  1 21  1  0  0  0  0
  1  6  1  0  0  0  0
  3 17  2  0  0  0  0
  4 22  1  0  0  0  0
  5 27  1  1  0  0  0
  5 17  1  0  0  0  0
  5 24  1  0  0  0  0
  6 23  1  0  0  0  0
  8  2  1  0  0  0  0
  8  7  1  1  0  0  0
  9 18  1  6  0  0  0
  9 14  1  0  0  0  0
 10  8  1  0  0  0  0
 10 28  1  0  0  0  0
 11 15  1  0  0  0  0
 12 28  1  0  0  0  0
 13  9  1  0  0  0  0
 13 26  1  0  0  0  0
 14  8  1  0  0  0  0
 15 23  1  0  0  0  0
 16  1  2  0  0  0  0
 17 25  1  0  0  0  0
 19 15  1  0  0  0  0
 20  4  2  0  0  0  0
 20 16  1  0  0  0  0
 22 21  2  0  0  0  0
 24 12  1  0  0  0  0
 25 12  1  0  0  0  0
 25 19  1  0  0  0  0
 26 24  1  0  0  0  0
 26 10  1  0  0  0  0
 28 16  1  0  0  0  0
M  END
>  <MODEL>
7

>  <REMARK>
 VINA RESULT:      -0.8     13.923     16.374
  Name = 
  0 active torsions:
  status: ('A' for Active; 'I' for Inactive)
                            x       y       z     vdW  Elec       q    Type
                         _______ _______ _______ _____ _____    ______ ____

>  <TORSDO>
F 0

$$$$
