=
 OpenBabel11122413523D

 37 44  0  0  1  0  0  0  0  0999 V2000
  161.5820  207.9490  154.3220 C   0  0  0  0  0  2  0  0  0  0  0  0
  161.0040  203.6420  151.8750 C   0  0  0  0  0  0  0  0  0  0  0  0
  162.3620  207.1540  149.6960 C   0  0  1  0  0  3  0  0  0  0  0  0
  160.7520  207.9240  155.6100 C   0  0  2  0  0  3  0  0  0  0  0  0
  161.0460  210.5190  151.3550 O   0  0  0  0  0  0  0  0  0  0  0  0
  160.8710  205.0710  149.7660 C   0  0  1  0  0  3  0  0  0  0  0  0
  161.7310  208.1330  150.6660 C   0  0  0  0  0  0  0  0  0  0  0  0
  160.0980  210.2600  154.9590 C   0  0  0  0  0  0  0  0  0  0  0  0
  162.1420  205.7590  150.2950 C   0  0  2  0  0  3  0  0  0  0  0  0
  161.6290  209.6510  150.4130 C   0  0  0  0  0  0  0  0  0  0  0  0
  160.8080  205.0560  148.2560 C   0  0  0  0  0  2  0  0  0  0  0  0
  159.6700  209.0080  155.6610 C   0  0  0  0  0  2  0  0  0  0  0  0
  161.9440  206.0400  151.7820 C   0  0  2  0  0  3  0  0  0  0  0  0
  162.3380  202.9710  152.1470 C   0  0  0  0  0  1  0  0  0  0  0  0
  162.0630  208.5900  147.5320 C   0  0  0  0  0  2  0  0  0  0  0  0
  160.7340  206.4970  147.7900 C   0  0  0  0  0  2  0  0  0  0  0  0
  160.9930  205.0500  152.4960 C   0  0  0  0  0  2  0  0  0  0  0  0
  159.8310  210.4280  153.4920 C   0  0  1  0  0  3  0  0  0  0  0  0
  161.0030  210.1360  152.6970 C   0  0  1  0  0  3  0  0  0  0  0  0
  162.0140  207.2200  148.1820 C   0  0  2  0  0  3  0  0  0  0  0  0
  161.4430  207.4510  151.8160 C   0  0  0  0  0  0  0  0  0  0  0  0
  160.7490  203.6680  150.3570 C   0  0  0  0  0  2  0  0  0  0  0  0
  162.1430  210.2530  149.3070 C   0  0  0  0  0  0  0  0  0  0  0  0
  159.9150  202.8200  152.5320 C   0  0  0  0  0  1  0  0  0  0  0  0
  159.9220  209.1450  152.7460 N   0  0  1  0  0  0  0  0  0  0  0  0
  160.6710  211.1410  155.5800 O   0  0  0  0  0  0  0  0  0  0  0  0
  160.7010  207.9410  153.0550 C   0  0  2  0  0  3  0  0  0  0  0  0
  162.9680  209.5170  148.3030 C   0  0  0  0  0  2  0  0  0  0  0  0
  162.8710  212.4030  148.2490 C   0  0  0  0  0  3  0  0  0  0  0  0
  161.9500  211.7030  149.0440 C   0  0  0  0  0  0  0  0  0  0  0  0
  160.8220  212.3850  149.5340 C   0  0  0  0  0  3  0  0  0  0  0  0
  159.4430  214.4520  149.7860 C   0  0  0  0  0  1  0  0  0  0  0  0
  161.5670  214.4290  148.4720 C   0  0  0  0  0  3  0  0  0  0  0  0
  160.6360  213.7430  149.2540 C   0  0  0  0  0  0  0  0  0  0  0  0
  162.6840  213.7590  147.9680 C   0  0  0  0  0  3  0  0  0  0  0  0
  162.5560  209.2700  156.6860 C   0  0  0  0  0  1  0  0  0  0  0  0
  161.6610  208.0520  156.8210 C   0  0  0  0  0  2  0  0  0  0  0  0
  1  4  1  0  0  0  0
  2 14  1  0  0  0  0
  2 17  1  0  0  0  0
  2 24  1  0  0  0  0
  3  9  1  0  0  0  0
  3  7  1  1  0  0  0
  4 12  1  0  0  0  0
  4 37  1  1  0  0  0
  5 19  1  0  0  0  0
  6 11  1  6  0  0  0
  6  9  1  0  0  0  0
  6 22  1  0  0  0  0
  7 21  2  0  0  0  0
  8 26  2  0  0  0  0
  8 12  1  0  0  0  0
  9 13  1  0  0  0  0
 10  7  1  0  0  0  0
 10  5  1  0  0  0  0
 13 21  1  0  0  0  0
 13 17  1  0  0  0  0
 15 20  1  0  0  0  0
 15 28  1  0  0  0  0
 16 20  1  0  0  0  0
 16 11  1  0  0  0  0
 18  8  1  0  0  0  0
 19 25  1  0  0  0  0
 19 18  1  0  0  0  0
 20  3  1  0  0  0  0
 21 27  1  0  0  0  0
 22  2  1  0  0  0  0
 23 10  2  0  0  0  0
 25 27  1  0  0  0  0
 25 18  1  0  0  0  0
 27  1  1  0  0  0  0
 28 23  1  0  0  0  0
 29 30  1  0  0  0  0
 30 23  1  0  0  0  0
 30 31  2  0  0  0  0
 33 34  2  0  0  0  0
 34 31  1  0  0  0  0
 34 32  1  0  0  0  0
 35 29  2  0  0  0  0
 35 33  1  0  0  0  0
 36 37  1  0  0  0  0
M  END
>  <MODEL>
1

>  <REMARK>
 VINA RESULT:      -5.9      0.000      0.000
  Name = 
  2 active torsions:
  status: ('A' for Active; 'I' for Inactive)
    1  A    between atoms: C_4  and  C_37
    2  A    between atoms: C_23  and  C_30
                            x       y       z     vdW  Elec       q    Type
                         _______ _______ _______ _____ _____    ______ ____

>  <TORSDO>
F 2

$$$$
=
 OpenBabel11122413523D

 37 44  0  0  1  0  0  0  0  0999 V2000
  160.8750  207.0070  151.6540 C   0  0  0  0  0  2  0  0  0  0  0  0
  160.6550  207.9870  156.5390 C   0  0  0  0  0  0  0  0  0  0  0  0
  159.2440  210.9760  153.7100 C   0  0  1  0  0  3  0  0  0  0  0  0
  161.9090  205.9060  151.3970 C   0  0  2  0  0  3  0  0  0  0  0  0
  161.1060  210.6880  150.2100 O   0  0  0  0  0  0  0  0  0  0  0  0
  160.5420  210.4410  155.8540 C   0  0  1  0  0  3  0  0  0  0  0  0
  160.1130  210.4700  152.5770 C   0  0  0  0  0  0  0  0  0  0  0  0
  162.6370  207.3600  149.4820 C   0  0  0  0  0  0  0  0  0  0  0  0
  159.4440  209.9940  154.8720 C   0  0  2  0  0  3  0  0  0  0  0  0
  160.2980  211.2110  151.2360 C   0  0  0  0  0  0  0  0  0  0  0  0
  160.3410  211.8600  156.3380 C   0  0  0  0  0  2  0  0  0  0  0  0
  163.0710  206.3560  150.5060 C   0  0  0  0  0  2  0  0  0  0  0  0
  159.9190  208.7200  154.1800 C   0  0  2  0  0  3  0  0  0  0  0  0
  159.3350  207.3340  156.9080 C   0  0  0  0  0  1  0  0  0  0  0  0
  159.2850  213.5070  153.0570 C   0  0  0  0  0  2  0  0  0  0  0  0
  160.4560  212.7720  155.1320 C   0  0  0  0  0  2  0  0  0  0  0  0
  160.8910  207.8620  155.0240 C   0  0  0  0  0  2  0  0  0  0  0  0
  162.6600  208.8240  149.8070 C   0  0  1  0  0  3  0  0  0  0  0  0
  161.3480  209.3140  150.1670 C   0  0  1  0  0  3  0  0  0  0  0  0
  159.3290  212.4630  154.1570 C   0  0  2  0  0  3  0  0  0  0  0  0
  160.5370  209.2120  152.9070 C   0  0  0  0  0  0  0  0  0  0  0  0
  160.6450  209.4520  157.0120 C   0  0  0  0  0  2  0  0  0  0  0  0
  159.6540  212.3710  150.9370 C   0  0  0  0  0  0  0  0  0  0  0  0
  161.7660  207.2550  157.2610 C   0  0  0  0  0  1  0  0  0  0  0  0
  162.3330  209.0960  151.2330 N   0  0  1  0  0  0  0  0  0  0  0  0
  162.2570  206.9830  148.3850 O   0  0  0  0  0  0  0  0  0  0  0  0
  161.5190  208.3110  152.1670 C   0  0  2  0  0  3  0  0  0  0  0  0
  158.6090  212.9600  151.8250 C   0  0  0  0  0  2  0  0  0  0  0  0
  161.2210  213.5590  149.3870 C   0  0  0  0  0  3  0  0  0  0  0  0
  159.9220  213.1110  149.6760 C   0  0  0  0  0  0  0  0  0  0  0  0
  158.9040  213.3270  148.7310 C   0  0  0  0  0  3  0  0  0  0  0  0
  158.0870  214.2260  146.5490 C   0  0  0  0  0  1  0  0  0  0  0  0
  160.4690  214.4480  147.2650 C   0  0  0  0  0  3  0  0  0  0  0  0
  159.1750  213.9980  147.5350 C   0  0  0  0  0  0  0  0  0  0  0  0
  161.4920  214.2280  148.1890 C   0  0  0  0  0  3  0  0  0  0  0  0
  160.8280  203.7070  151.8660 C   0  0  0  0  0  1  0  0  0  0  0  0
  161.2370  204.6890  150.7840 C   0  0  0  0  0  2  0  0  0  0  0  0
  1 27  1  0  0  0  0
  2 14  1  0  0  0  0
  2 22  1  0  0  0  0
  2 24  1  0  0  0  0
  3  7  1  6  0  0  0
  3 20  1  0  0  0  0
  3  9  1  0  0  0  0
  4 37  1  6  0  0  0
  4  1  1  0  0  0  0
  5 10  1  0  0  0  0
  6 11  1  1  0  0  0
  6 22  1  0  0  0  0
  7 21  2  0  0  0  0
  8 18  1  0  0  0  0
  8 12  1  0  0  0  0
  9  6  1  0  0  0  0
 10  7  1  0  0  0  0
 12  4  1  0  0  0  0
 13  9  1  0  0  0  0
 13 17  1  0  0  0  0
 15 20  1  0  0  0  0
 16 11  1  0  0  0  0
 17  2  1  0  0  0  0
 18 19  1  0  0  0  0
 18 25  1  0  0  0  0
 19  5  1  0  0  0  0
 19 25  1  0  0  0  0
 20 16  1  0  0  0  0
 21 13  1  0  0  0  0
 23 10  2  0  0  0  0
 23 28  1  0  0  0  0
 25 27  1  0  0  0  0
 26  8  2  0  0  0  0
 27 21  1  0  0  0  0
 28 15  1  0  0  0  0
 29 30  1  0  0  0  0
 30 23  1  0  0  0  0
 31 30  2  0  0  0  0
 32 34  1  0  0  0  0
 33 34  2  0  0  0  0
 33 35  1  0  0  0  0
 34 31  1  0  0  0  0
 35 29  2  0  0  0  0
 37 36  1  0  0  0  0
M  END
>  <MODEL>
2

>  <REMARK>
 VINA RESULT:      -3.6      1.794      5.682
  Name = 
  2 active torsions:
  status: ('A' for Active; 'I' for Inactive)
    1  A    between atoms: C_4  and  C_37
    2  A    between atoms: C_23  and  C_30
                            x       y       z     vdW  Elec       q    Type
                         _______ _______ _______ _____ _____    ______ ____

>  <TORSDO>
F 2

$$$$
