=
 OpenBabel11122414173D

 34 40  0  0  1  0  0  0  0  0999 V2000
  161.6810  208.4080  149.7810 C   0  0  0  0  0  0  0  0  0  0  0  0
  161.5970  206.8400  147.7570 C   0  0  0  0  0  2  0  0  0  0  0  0
  160.7380  210.2700  156.1110 C   0  0  0  0  0  0  0  0  0  0  0  0
  161.3370  209.8740  151.6710 C   0  0  0  0  0  0  0  0  0  0  0  0
  160.6890  208.8790  153.9750 C   0  0  2  0  0  3  0  0  0  0  0  0
  162.1080  208.1950  155.9770 C   0  0  0  0  0  1  0  0  0  0  0  0
  161.2570  210.4930  157.2370 O   0  0  0  0  0  0  0  0  0  0  0  0
  158.9380  211.0100  154.4350 C   0  0  0  0  0  2  0  0  0  0  0  0
  160.7600  206.1250  149.8470 C   0  0  2  0  0  3  0  0  0  0  0  0
  160.7870  202.9820  150.6200 C   0  0  0  0  0  2  0  0  0  0  0  0
  161.2200  207.5710  153.3680 C   0  0  0  0  0  2  0  0  0  0  0  0
  159.7670  211.1070  153.1570 C   0  0  0  0  0  2  0  0  0  0  0  0
  161.0160  206.0500  151.3530 C   0  0  1  0  0  3  0  0  0  0  0  0
  161.2720  205.3550  147.6160 C   0  0  0  0  0  2  0  0  0  0  0  0
  160.9510  210.1350  153.1080 C   0  0  2  0  0  3  0  0  0  0  0  0
  159.7640  211.2020  155.6190 N   0  0  0  0  0  2  0  0  0  0  0  0
  161.5980  203.7230  149.5610 C   0  0  2  0  0  3  0  0  0  0  0  0
  161.2690  208.5860  151.1190 C   0  0  0  0  0  0  0  0  0  0  0  0
  161.1530  209.1090  155.3530 N   0  0  0  0  0  0  0  0  0  0  0  0
  160.7110  207.4390  151.9430 C   0  0  2  0  0  3  0  0  0  0  0  0
  162.1950  210.7100  149.6250 C   0  0  0  0  0  3  0  0  0  0  0  0
  160.8690  203.6500  151.9860 C   0  0  0  0  0  2  0  0  0  0  0  0
  161.7970  210.9030  150.9090 N   0  0  0  0  0  0  0  0  0  0  0  0
  160.1470  204.9880  152.0080 C   0  0  0  0  0  2  0  0  0  0  0  0
  160.7520  204.8680  148.9800 C   0  0  1  0  0  3  0  0  0  0  0  0
  162.1510  209.4680  149.0750 N   0  0  0  0  0  0  0  0  0  0  0  0
  161.8030  207.0150  149.2390 C   0  0  2  0  0  3  0  0  0  0  0  0
  161.9620  202.7750  148.5190 N   0  0  0  0  0  2  0  0  0  0  0  0
  161.4740  201.4730  148.9450 C   0  0  0  0  0  2  0  0  0  0  0  0
  160.5790  201.1540  145.4380 N   0  0  0  0  0  2  0  0  0  0  0  0
  161.5260  199.7580  147.1480 C   0  0  0  0  0  2  0  0  0  0  0  0
  160.6980  200.8160  147.8190 C   0  0  2  0  0  3  0  0  0  0  0  0
  161.0860  199.8140  145.7070 C   0  0  0  0  0  2  0  0  0  0  0  0
  160.4210  201.8210  146.7270 C   0  0  0  0  0  2  0  0  0  0  0  0
  1 18  1  0  0  0  0
  2 27  1  0  0  0  0
  3  7  2  0  0  0  0
  4 15  1  0  0  0  0
  5 11  1  6  0  0  0
  5 19  1  0  0  0  0
  8 16  1  0  0  0  0
  9 13  1  0  0  0  0
 10 22  1  0  0  0  0
 12  8  1  0  0  0  0
 13 20  1  0  0  0  0
 13 24  1  0  0  0  0
 14  2  1  0  0  0  0
 14 25  1  0  0  0  0
 15 12  1  0  0  0  0
 15  5  1  0  0  0  0
 16  3  1  0  0  0  0
 17 10  1  0  0  0  0
 18  4  2  0  0  0  0
 18 20  1  0  0  0  0
 19  6  1  0  0  0  0
 19  3  1  0  0  0  0
 20 11  1  0  0  0  0
 21 23  2  0  0  0  0
 22 24  1  0  0  0  0
 23  4  1  0  0  0  0
 25 17  1  0  0  0  0
 25  9  1  0  0  0  0
 26 21  1  0  0  0  0
 26  1  2  0  0  0  0
 27  1  1  0  0  0  0
 27  9  1  0  0  0  0
 28 29  1  0  0  0  0
 28 17  1  0  0  0  0
 30 33  1  0  0  0  0
 30 34  1  0  0  0  0
 31 32  1  0  0  0  0
 32 29  1  0  0  0  0
 33 31  1  0  0  0  0
 34 32  1  0  0  0  0
M  END
>  <MODEL>
1

>  <REMARK>
 VINA RESULT:      -8.4      0.000      0.000
  Name = 
  3 active torsions:
  status: ('A' for Active; 'I' for Inactive)
    1  A    between atoms: C_17  and  N_28
    2  A    between atoms: N_28  and  C_29
    3  A    between atoms: C_29  and  C_32
                            x       y       z     vdW  Elec       q    Type
                         _______ _______ _______ _____ _____    ______ ____

>  <TORSDO>
F 3

$$$$
=
 OpenBabel11122414173D

 34 40  0  0  1  0  0  0  0  0999 V2000
  160.7890  207.7440  154.0220 C   0  0  0  0  0  0  0  0  0  0  0  0
  162.0990  206.1220  152.5350 C   0  0  0  0  0  2  0  0  0  0  0  0
  158.3880  213.6400  155.9970 C   0  0  0  0  0  0  0  0  0  0  0  0
  159.9320  209.4440  155.5110 C   0  0  0  0  0  0  0  0  0  0  0  0
  159.6800  211.8840  154.6750 C   0  0  2  0  0  3  0  0  0  0  0  0
  157.6990  213.1230  153.6610 C   0  0  0  0  0  1  0  0  0  0  0  0
  157.3870  214.4000  156.0830 O   0  0  0  0  0  0  0  0  0  0  0  0
  160.5430  212.8530  157.1520 C   0  0  0  0  0  2  0  0  0  0  0  0
  162.0460  208.4260  152.0170 C   0  0  2  0  0  3  0  0  0  0  0  0
  162.3470  209.4080  148.9480 C   0  0  0  0  0  2  0  0  0  0  0  0
  159.7670  211.2360  153.2840 C   0  0  0  0  0  2  0  0  0  0  0  0
  160.3720  211.3380  157.0640 C   0  0  0  0  0  2  0  0  0  0  0  0
  161.1680  209.6680  151.8710 C   0  0  1  0  0  3  0  0  0  0  0  0
  162.7600  206.2800  151.1680 C   0  0  0  0  0  2  0  0  0  0  0  0
  159.5710  210.8730  155.8430 C   0  0  2  0  0  3  0  0  0  0  0  0
  159.2560  213.5340  157.1350 N   0  0  0  0  0  2  0  0  0  0  0  0
  161.9560  208.0360  149.4880 C   0  0  2  0  0  3  0  0  0  0  0  0
  160.5120  209.1040  154.2800 C   0  0  0  0  0  0  0  0  0  0  0  0
  158.6120  212.8930  154.7790 N   0  0  0  0  0  0  0  0  0  0  0  0
  160.8740  210.1950  153.2880 C   0  0  2  0  0  3  0  0  0  0  0  0
  159.9220  207.1580  156.1420 C   0  0  0  0  0  3  0  0  0  0  0  0
  161.5230  210.5310  149.5660 C   0  0  0  0  0  2  0  0  0  0  0  0
  159.6540  208.4620  156.4110 N   0  0  0  0  0  0  0  0  0  0  0  0
  161.8570  210.7360  151.0360 C   0  0  0  0  0  2  0  0  0  0  0  0
  162.7080  207.7740  150.8050 C   0  0  1  0  0  3  0  0  0  0  0  0
  160.4700  206.8050  154.9490 N   0  0  0  0  0  0  0  0  0  0  0  0
  161.2210  207.3400  152.6440 C   0  0  2  0  0  3  0  0  0  0  0  0
  162.3070  207.0370  148.4900 N   0  0  0  0  0  2  0  0  0  0  0  0
  161.1440  206.8690  147.6350 C   0  0  0  0  0  2  0  0  0  0  0  0
  161.7430  203.2890  147.8030 N   0  0  0  0  0  2  0  0  0  0  0  0
  160.6140  204.9500  149.1220 C   0  0  0  0  0  2  0  0  0  0  0  0
  160.6540  205.4350  147.7010 C   0  0  2  0  0  3  0  0  0  0  0  0
  160.9550  203.4850  149.0140 C   0  0  0  0  0  2  0  0  0  0  0  0
  161.6450  204.5190  147.0220 C   0  0  0  0  0  2  0  0  0  0  0  0
  1 18  2  0  0  0  0
  1 26  1  0  0  0  0
  2 27  1  0  0  0  0
  3  7  2  0  0  0  0
  3 16  1  0  0  0  0
  4 15  1  0  0  0  0
  4 23  2  0  0  0  0
  5 11  1  6  0  0  0
  5 19  1  0  0  0  0
  5 15  1  0  0  0  0
  6 19  1  0  0  0  0
  9 27  1  0  0  0  0
 10 17  1  0  0  0  0
 10 22  1  0  0  0  0
 11 20  1  0  0  0  0
 12  8  1  0  0  0  0
 13  9  1  0  0  0  0
 13 20  1  0  0  0  0
 14  2  1  0  0  0  0
 15 12  1  0  0  0  0
 16  8  1  0  0  0  0
 17 25  1  0  0  0  0
 18  4  1  0  0  0  0
 19  3  1  0  0  0  0
 20 18  1  0  0  0  0
 21 23  1  0  0  0  0
 22 24  1  0  0  0  0
 24 13  1  0  0  0  0
 25 14  1  0  0  0  0
 25  9  1  0  0  0  0
 26 21  2  0  0  0  0
 27  1  1  0  0  0  0
 28 17  1  0  0  0  0
 29 32  1  0  0  0  0
 29 28  1  0  0  0  0
 30 33  1  0  0  0  0
 32 31  1  0  0  0  0
 33 31  1  0  0  0  0
 34 32  1  0  0  0  0
 34 30  1  0  0  0  0
M  END
>  <MODEL>
2

>  <REMARK>
 VINA RESULT:      -8.2      2.294      4.815
  Name = 
  3 active torsions:
  status: ('A' for Active; 'I' for Inactive)
    1  A    between atoms: C_17  and  N_28
    2  A    between atoms: N_28  and  C_29
    3  A    between atoms: C_29  and  C_32
                            x       y       z     vdW  Elec       q    Type
                         _______ _______ _______ _____ _____    ______ ____

>  <TORSDO>
F 3

$$$$
=
 OpenBabel11122414173D

 34 40  0  0  1  0  0  0  0  0999 V2000
  160.7310  207.2560  154.2640 C   0  0  0  0  0  0  0  0  0  0  0  0
  161.6210  205.3930  152.7470 C   0  0  0  0  0  2  0  0  0  0  0  0
  159.5480  213.5270  156.1860 C   0  0  0  0  0  0  0  0  0  0  0  0
  160.3010  209.1150  155.7470 C   0  0  0  0  0  0  0  0  0  0  0  0
  160.4100  211.5410  154.8400 C   0  0  2  0  0  3  0  0  0  0  0  0
  158.6000  213.0830  153.9270 C   0  0  0  0  0  1  0  0  0  0  0  0
  158.7040  214.4530  156.3160 O   0  0  0  0  0  0  0  0  0  0  0  0
  161.6180  212.4030  157.2100 C   0  0  0  0  0  2  0  0  0  0  0  0
  161.9270  207.6570  152.1490 C   0  0  2  0  0  3  0  0  0  0  0  0
  162.1520  208.4970  149.0320 C   0  0  0  0  0  2  0  0  0  0  0  0
  160.2750  210.8540  153.4720 C   0  0  0  0  0  2  0  0  0  0  0  0
  161.1810  210.9400  157.1910 C   0  0  0  0  0  2  0  0  0  0  0  0
  161.2680  209.0310  152.0200 C   0  0  1  0  0  3  0  0  0  0  0  0
  162.1910  205.4000  151.3310 C   0  0  0  0  0  2  0  0  0  0  0  0
  160.2190  210.5930  156.0500 C   0  0  2  0  0  3  0  0  0  0  0  0
  160.4710  213.2990  157.2610 N   0  0  0  0  0  2  0  0  0  0  0  0
  161.5740  207.2280  149.6500 C   0  0  2  0  0  3  0  0  0  0  0  0
  160.7150  208.6490  154.4910 C   0  0  0  0  0  0  0  0  0  0  0  0
  159.5440  212.7230  154.9830 N   0  0  0  0  0  0  0  0  0  0  0  0
  161.1810  209.6350  153.4340 C   0  0  2  0  0  3  0  0  0  0  0  0
  159.9450  206.8820  156.4620 C   0  0  0  0  0  3  0  0  0  0  0  0
  161.5860  209.7610  149.6650 C   0  0  0  0  0  2  0  0  0  0  0  0
  159.9280  208.2190  156.7010 N   0  0  0  0  0  0  0  0  0  0  0  0
  162.0640  209.9400  151.0980 C   0  0  0  0  0  2  0  0  0  0  0  0
  162.3690  206.8710  150.9170 C   0  0  1  0  0  3  0  0  0  0  0  0
  160.3280  206.4100  155.2470 N   0  0  0  0  0  0  0  0  0  0  0  0
  160.9780  206.7490  152.8750 C   0  0  2  0  0  3  0  0  0  0  0  0
  161.6670  206.1590  148.6670 N   0  0  0  0  0  2  0  0  0  0  0  0
  161.2290  206.7140  147.3970 C   0  0  0  0  0  2  0  0  0  0  0  0
  161.3470  203.5520  145.6110 N   0  0  0  0  0  2  0  0  0  0  0  0
  160.7130  205.8210  145.1370 C   0  0  0  0  0  2  0  0  0  0  0  0
  161.7160  205.8430  146.2550 C   0  0  2  0  0  3  0  0  0  0  0  0
  160.8400  204.4320  144.5640 C   0  0  0  0  0  2  0  0  0  0  0  0
  161.8060  204.4040  146.7040 C   0  0  0  0  0  2  0  0  0  0  0  0
  1 18  2  0  0  0  0
  1 26  1  0  0  0  0
  2 27  1  0  0  0  0
  3  7  2  0  0  0  0
  3 16  1  0  0  0  0
  4 15  1  0  0  0  0
  4 23  2  0  0  0  0
  5 11  1  6  0  0  0
  5 19  1  0  0  0  0
  5 15  1  0  0  0  0
  6 19  1  0  0  0  0
  8 16  1  0  0  0  0
  9 27  1  0  0  0  0
 10 17  1  0  0  0  0
 10 22  1  0  0  0  0
 12  8  1  0  0  0  0
 13  9  1  0  0  0  0
 13 20  1  0  0  0  0
 14  2  1  0  0  0  0
 15 12  1  0  0  0  0
 17 25  1  0  0  0  0
 18  4  1  0  0  0  0
 19  3  1  0  0  0  0
 20 11  1  0  0  0  0
 20 18  1  0  0  0  0
 21 23  1  0  0  0  0
 22 24  1  0  0  0  0
 24 13  1  0  0  0  0
 25 14  1  0  0  0  0
 25  9  1  0  0  0  0
 26 21  2  0  0  0  0
 27  1  1  0  0  0  0
 28 17  1  0  0  0  0
 29 28  1  0  0  0  0
 30 34  1  0  0  0  0
 31 32  1  0  0  0  0
 32 34  1  0  0  0  0
 32 29  1  0  0  0  0
 33 31  1  0  0  0  0
 33 30  1  0  0  0  0
M  END
>  <MODEL>
3

>  <REMARK>
 VINA RESULT:      -7.5      2.502      4.656
  Name = 
  3 active torsions:
  status: ('A' for Active; 'I' for Inactive)
    1  A    between atoms: C_17  and  N_28
    2  A    between atoms: N_28  and  C_29
    3  A    between atoms: C_29  and  C_32
                            x       y       z     vdW  Elec       q    Type
                         _______ _______ _______ _____ _____    ______ ____

>  <TORSDO>
F 3

$$$$
=
 OpenBabel11122414173D

 34 40  0  0  1  0  0  0  0  0999 V2000
  159.6810  210.9610  139.4370 C   0  0  0  0  0  0  0  0  0  0  0  0
  158.1390  210.7970  137.3980 C   0  0  0  0  0  2  0  0  0  0  0  0
  162.0730  213.5450  145.0960 C   0  0  0  0  0  0  0  0  0  0  0  0
  161.2700  211.4780  141.1840 C   0  0  0  0  0  0  0  0  0  0  0  0
  160.6790  213.2480  142.9830 C   0  0  2  0  0  3  0  0  0  0  0  0
  159.6480  213.0180  145.3000 C   0  0  0  0  0  1  0  0  0  0  0  0
  162.1590  213.4500  146.3500 O   0  0  0  0  0  0  0  0  0  0  0  0
  163.3050  214.2070  142.9420 C   0  0  0  0  0  2  0  0  0  0  0  0
  157.8650  212.5530  138.9540 C   0  0  2  0  0  3  0  0  0  0  0  0
  154.9510  213.8870  139.4010 C   0  0  0  0  0  2  0  0  0  0  0  0
  159.2390  213.0030  142.5050 C   0  0  0  0  0  2  0  0  0  0  0  0
  163.0430  212.9750  142.0790 C   0  0  0  0  0  2  0  0  0  0  0  0
  157.7820  212.9300  140.4330 C   0  0  1  0  0  3  0  0  0  0  0  0
  156.8530  211.5260  137.0160 C   0  0  0  0  0  2  0  0  0  0  0  0
  161.7210  212.2670  142.3900 C   0  0  2  0  0  3  0  0  0  0  0  0
  163.2580  213.8810  144.3610 N   0  0  0  0  0  2  0  0  0  0  0  0
  155.3110  212.5360  138.7910 C   0  0  2  0  0  3  0  0  0  0  0  0
  160.0590  211.7630  140.5350 C   0  0  0  0  0  0  0  0  0  0  0  0
  160.8040  213.2930  144.4490 N   0  0  0  0  0  0  0  0  0  0  0  0
  159.2200  212.9450  140.9870 C   0  0  2  0  0  3  0  0  0  0  0  0
  161.6520  209.6790  139.6860 C   0  0  0  0  0  3  0  0  0  0  0  0
  155.6180  214.1090  140.7530 C   0  0  0  0  0  2  0  0  0  0  0  0
  162.0360  210.4440  140.7410 N   0  0  0  0  0  0  0  0  0  0  0  0
  157.1220  214.2860  140.6210 C   0  0  0  0  0  2  0  0  0  0  0  0
  156.6470  212.6560  138.0390 C   0  0  1  0  0  3  0  0  0  0  0  0
  160.4760  209.9290  139.0530 N   0  0  0  0  0  0  0  0  0  0  0  0
  158.3070  211.1220  138.8590 C   0  0  2  0  0  3  0  0  0  0  0  0
  154.2440  212.1490  137.8810 N   0  0  0  0  0  2  0  0  0  0  0  0
  153.2540  211.4360  138.6710 C   0  0  0  0  0  2  0  0  0  0  0  0
  154.7420  208.5660  137.0120 N   0  0  0  0  0  2  0  0  0  0  0  0
  154.6130  209.4380  139.2470 C   0  0  0  0  0  2  0  0  0  0  0  0
  153.4210  209.9390  138.4840 C   0  0  2  0  0  3  0  0  0  0  0  0
  155.1450  208.3160  138.3910 C   0  0  0  0  0  2  0  0  0  0  0  0
  153.7450  209.6320  137.0420 C   0  0  0  0  0  2  0  0  0  0  0  0
  1 18  1  0  0  0  0
  2 27  1  0  0  0  0
  3  7  2  0  0  0  0
  4 15  1  0  0  0  0
  5 11  1  1  0  0  0
  5 19  1  0  0  0  0
  8 16  1  0  0  0  0
  9 13  1  0  0  0  0
 10 22  1  0  0  0  0
 12 15  1  0  0  0  0
 12  8  1  0  0  0  0
 13 24  1  0  0  0  0
 13 20  1  0  0  0  0
 14  2  1  0  0  0  0
 14 25  1  0  0  0  0
 15  5  1  0  0  0  0
 16  3  1  0  0  0  0
 17 10  1  0  0  0  0
 18 20  1  0  0  0  0
 18  4  2  0  0  0  0
 19  3  1  0  0  0  0
 19  6  1  0  0  0  0
 20 11  1  0  0  0  0
 21 23  2  0  0  0  0
 23  4  1  0  0  0  0
 24 22  1  0  0  0  0
 25 17  1  0  0  0  0
 25  9  1  0  0  0  0
 26  1  2  0  0  0  0
 26 21  1  0  0  0  0
 27  9  1  0  0  0  0
 27  1  1  0  0  0  0
 28 29  1  0  0  0  0
 28 17  1  0  0  0  0
 30 34  1  0  0  0  0
 30 33  1  0  0  0  0
 32 29  1  0  0  0  0
 32 31  1  0  0  0  0
 33 31  1  0  0  0  0
 34 32  1  0  0  0  0
M  END
>  <MODEL>
4

>  <REMARK>
 VINA RESULT:      -5.5     10.317     12.921
  Name = 
  3 active torsions:
  status: ('A' for Active; 'I' for Inactive)
    1  A    between atoms: C_17  and  N_28
    2  A    between atoms: N_28  and  C_29
    3  A    between atoms: C_29  and  C_32
                            x       y       z     vdW  Elec       q    Type
                         _______ _______ _______ _____ _____    ______ ____

>  <TORSDO>
F 3

$$$$
