=
 OpenBabel11122413173D

 31 35  0  0  1  0  0  0  0  0999 V2000
  160.9300  206.5890  146.6990 C   0  0  0  0  0  0  0  0  0  0  0  0
  160.3080  205.0870  150.1400 C   0  0  2  0  0  3  0  0  0  0  0  0
  160.7600  203.6330  150.0610 C   0  0  0  0  0  0  0  0  0  0  0  0
  161.2050  201.6470  148.7210 C   0  0  0  0  0  0  0  0  0  0  0  0
  160.8860  205.9570  149.0450 C   0  0  0  0  0  0  0  0  0  0  0  0
  161.9740  207.4820  146.9540 C   0  0  0  0  0  3  0  0  0  0  0  0
  160.8730  203.0000  148.8120 C   0  0  0  0  0  3  0  0  0  0  0  0
  162.0120  206.0940  151.7090 C   0  0  2  0  0  3  0  0  0  0  0  0
  160.4470  206.4550  145.4410 F   0  0  0  0  0  0  0  0  0  0  0  0
  160.8460  203.4570  152.6050 C   0  0  0  0  0  2  0  0  0  0  0  0
  161.3350  201.0020  147.3890 C   0  0  0  0  0  1  0  0  0  0  0  0
  162.4040  207.1670  150.6960 C   0  0  0  0  0  2  0  0  0  0  0  0
  160.5360  205.7110  151.5290 C   0  0  2  0  0  3  0  0  0  0  0  0
  160.3880  205.8340  147.7410 C   0  0  0  0  0  3  0  0  0  0  0  0
  161.4110  200.9000  149.8810 C   0  0  0  0  0  3  0  0  0  0  0  0
  161.9370  206.8680  149.3010 C   0  0  0  0  0  0  0  0  0  0  0  0
  162.4670  207.6270  148.2530 C   0  0  0  0  0  3  0  0  0  0  0  0
  160.0430  204.7540  152.6160 C   0  0  0  0  0  2  0  0  0  0  0  0
  160.9330  202.8570  151.2330 C   0  0  0  0  0  0  0  0  0  0  0  0
  161.2770  201.5050  151.1320 C   0  0  0  0  0  3  0  0  0  0  0  0
  160.5710  208.2160  152.9700 O   0  0  0  0  0  0  0  0  0  0  0  0
  161.4890  207.6620  153.6300 C   0  0  0  0  0  0  0  0  0  0  0  0
  162.2450  206.5930  153.0570 N   0  0  0  0  0  2  0  0  0  0  0  0
  159.3610  209.5600  155.6640 C   0  0  0  0  0  0  0  0  0  0  0  0
  160.8650  207.5810  156.0620 C   0  0  0  0  0  2  0  0  0  0  0  0
  162.7030  210.3710  154.0950 C   0  0  0  0  0  1  0  0  0  0  0  0
  158.2760  210.1680  155.8540 O   0  0  0  0  0  0  0  0  0  0  0  0
  159.4260  208.0780  155.8990 C   0  0  0  0  0  2  0  0  0  0  0  0
  161.8270  209.7000  155.1390 C   0  0  2  0  0  3  0  0  0  0  0  0
  161.8070  208.1690  155.0090 C   0  0  2  0  0  3  0  0  0  0  0  0
  160.4820  210.2650  155.1250 N   0  0  0  0  0  2  0  0  0  0  0  0
  1  6  2  0  0  0  0
  1 14  1  0  0  0  0
  2  5  1  6  0  0  0
  2 13  1  0  0  0  0
  3  2  1  0  0  0  0
  3 19  1  0  0  0  0
  4  7  1  0  0  0  0
  4 15  2  0  0  0  0
  5 16  1  0  0  0  0
  6 17  1  0  0  0  0
  7  3  2  0  0  0  0
  8 23  1  1  0  0  0
  9  1  1  0  0  0  0
 10 18  1  0  0  0  0
 11  4  1  0  0  0  0
 12  8  1  0  0  0  0
 13  8  1  0  0  0  0
 13 18  1  1  0  0  0
 14  5  2  0  0  0  0
 15 20  1  0  0  0  0
 16 12  1  0  0  0  0
 17 16  2  0  0  0  0
 19 10  1  0  0  0  0
 20 19  2  0  0  0  0
 21 22  2  0  0  0  0
 23 22  1  0  0  0  0
 24 27  2  0  0  0  0
 24 28  1  0  0  0  0
 28 25  1  0  0  0  0
 29 26  1  6  0  0  0
 30 22  1  6  0  0  0
 30 29  1  0  0  0  0
 30 25  1  0  0  0  0
 31 29  1  0  0  0  0
 31 24  1  0  0  0  0
M  END
>  <MODEL>
1

>  <REMARK>
 VINA RESULT:      -7.5      0.000      0.000
  Name = 
  2 active torsions:
  status: ('A' for Active; 'I' for Inactive)
    1  A    between atoms: C_5  and  C_30
    2  A    between atoms: C_10  and  N_16
                            x       y       z     vdW  Elec       q    Type
                         _______ _______ _______ _____ _____    ______ ____

>  <TORSDO>
F 2

$$$$
=
 OpenBabel11122413173D

 31 35  0  0  1  0  0  0  0  0999 V2000
  160.9930  204.5760  144.9870 C   0  0  0  0  0  0  0  0  0  0  0  0
  160.5060  205.1110  148.7240 C   0  0  2  0  0  3  0  0  0  0  0  0
  160.9280  203.8120  149.4010 C   0  0  0  0  0  0  0  0  0  0  0  0
  161.2760  201.4040  149.2820 C   0  0  0  0  0  0  0  0  0  0  0  0
  161.0470  205.2600  147.3180 C   0  0  0  0  0  0  0  0  0  0  0  0
  162.0620  205.4290  144.7070 C   0  0  0  0  0  3  0  0  0  0  0  0
  160.9710  202.6180  148.6640 C   0  0  0  0  0  3  0  0  0  0  0  0
  162.2980  206.7200  149.4820 C   0  0  2  0  0  3  0  0  0  0  0  0
  160.4480  203.8250  144.0000 F   0  0  0  0  0  0  0  0  0  0  0  0
  161.1290  204.9840  151.6590 C   0  0  0  0  0  2  0  0  0  0  0  0
  161.3310  200.1550  148.4790 C   0  0  0  0  0  1  0  0  0  0  0  0
  162.6610  207.0930  148.0470 C   0  0  0  0  0  2  0  0  0  0  0  0
  160.8090  206.3580  149.5750 C   0  0  2  0  0  3  0  0  0  0  0  0
  160.4860  204.4950  146.2860 C   0  0  0  0  0  3  0  0  0  0  0  0
  161.5220  201.3630  150.6550 C   0  0  0  0  0  3  0  0  0  0  0  0
  162.1240  206.1290  147.0280 C   0  0  0  0  0  0  0  0  0  0  0  0
  162.6170  206.2100  145.7220 C   0  0  0  0  0  3  0  0  0  0  0  0
  160.3500  206.1280  151.0160 C   0  0  0  0  0  2  0  0  0  0  0  0
  161.1420  203.7540  150.8010 C   0  0  0  0  0  0  0  0  0  0  0  0
  161.4570  202.5360  151.4090 C   0  0  0  0  0  3  0  0  0  0  0  0
  161.2960  209.3820  149.1990 O   0  0  0  0  0  0  0  0  0  0  0  0
  162.0690  209.1500  150.1660 C   0  0  0  0  0  0  0  0  0  0  0  0
  162.6020  207.8390  150.3640 N   0  0  0  0  0  2  0  0  0  0  0  0
  159.9280  210.8600  152.3480 C   0  0  0  0  0  0  0  0  0  0  0  0
  162.2520  209.9150  152.5520 C   0  0  0  0  0  2  0  0  0  0  0  0
  161.8730  212.0270  149.3230 C   0  0  0  0  0  1  0  0  0  0  0  0
  158.7830  211.0670  152.8250 O   0  0  0  0  0  0  0  0  0  0  0  0
  160.7730  209.7540  152.9100 C   0  0  0  0  0  2  0  0  0  0  0  0
  161.7590  211.6140  150.7800 C   0  0  2  0  0  3  0  0  0  0  0  0
  162.4580  210.2790  151.0790 C   0  0  2  0  0  3  0  0  0  0  0  0
  160.3640  211.6060  151.2080 N   0  0  0  0  0  2  0  0  0  0  0  0
  1 14  1  0  0  0  0
  2  5  1  6  0  0  0
  2  3  1  0  0  0  0
  2 13  1  0  0  0  0
  3 19  1  0  0  0  0
  4 15  2  0  0  0  0
  6  1  2  0  0  0  0
  6 17  1  0  0  0  0
  7  4  1  0  0  0  0
  7  3  2  0  0  0  0
  8 13  1  0  0  0  0
  8 23  1  1  0  0  0
  9  1  1  0  0  0  0
 11  4  1  0  0  0  0
 12  8  1  0  0  0  0
 13 18  1  1  0  0  0
 14  5  2  0  0  0  0
 15 20  1  0  0  0  0
 16  5  1  0  0  0  0
 16 12  1  0  0  0  0
 17 16  2  0  0  0  0
 18 10  1  0  0  0  0
 19 20  2  0  0  0  0
 19 10  1  0  0  0  0
 21 22  2  0  0  0  0
 22 23  1  0  0  0  0
 24 27  2  0  0  0  0
 24 28  1  0  0  0  0
 25 28  1  0  0  0  0
 29 26  1  6  0  0  0
 29 30  1  0  0  0  0
 29 31  1  0  0  0  0
 30 22  1  6  0  0  0
 30 25  1  0  0  0  0
 31 24  1  0  0  0  0
M  END
>  <MODEL>
2

>  <REMARK>
 VINA RESULT:      -7.3      2.271      2.907
  Name = 
  2 active torsions:
  status: ('A' for Active; 'I' for Inactive)
    1  A    between atoms: C_5  and  C_30
    2  A    between atoms: C_10  and  N_16
                            x       y       z     vdW  Elec       q    Type
                         _______ _______ _______ _____ _____    ______ ____

>  <TORSDO>
F 2

$$$$
=
 OpenBabel11122413173D

 31 35  0  0  1  0  0  0  0  0999 V2000
  161.1840  203.9150  145.5680 C   0  0  0  0  0  0  0  0  0  0  0  0
  160.5290  205.7600  148.8320 C   0  0  2  0  0  3  0  0  0  0  0  0
  160.8930  204.7910  149.9520 C   0  0  0  0  0  0  0  0  0  0  0  0
  161.1970  202.5010  150.7250 C   0  0  0  0  0  0  0  0  0  0  0  0
  161.1400  205.3920  147.4970 C   0  0  0  0  0  0  0  0  0  0  0  0
  162.2820  204.6080  145.0560 C   0  0  0  0  0  3  0  0  0  0  0  0
  160.9470  203.4110  149.6960 C   0  0  0  0  0  3  0  0  0  0  0  0
  162.3160  207.5310  149.0540 C   0  0  2  0  0  3  0  0  0  0  0  0
  160.6720  202.8600  144.8900 F   0  0  0  0  0  0  0  0  0  0  0  0
  161.0090  206.6970  151.6450 C   0  0  0  0  0  2  0  0  0  0  0  0
  161.2650  201.0460  150.4280 C   0  0  0  0  0  1  0  0  0  0  0  0
  162.7550  207.3620  147.6010 C   0  0  0  0  0  2  0  0  0  0  0  0
  160.8170  207.2290  149.1930 C   0  0  2  0  0  3  0  0  0  0  0  0
  160.6140  204.3080  146.7810 C   0  0  0  0  0  3  0  0  0  0  0  0
  161.3760  202.9560  152.0310 C   0  0  0  0  0  3  0  0  0  0  0  0
  162.2470  206.0970  146.9710 C   0  0  0  0  0  0  0  0  0  0  0  0
  162.8040  205.7010  145.7510 C   0  0  0  0  0  3  0  0  0  0  0  0
  160.2850  207.5340  150.5940 C   0  0  0  0  0  2  0  0  0  0  0  0
  161.0380  205.2410  151.2880 C   0  0  0  0  0  0  0  0  0  0  0  0
  161.2990  204.3220  152.3090 C   0  0  0  0  0  3  0  0  0  0  0  0
  161.3040  209.9130  147.8390 O   0  0  0  0  0  0  0  0  0  0  0  0
  162.0630  210.0440  148.8350 C   0  0  0  0  0  0  0  0  0  0  0  0
  162.6000  208.8910  149.4890 N   0  0  0  0  0  2  0  0  0  0  0  0
  160.6930  213.0420  147.6490 C   0  0  0  0  0  0  0  0  0  0  0  0
  161.2420  212.1470  149.9380 C   0  0  0  0  0  2  0  0  0  0  0  0
  164.2090  211.6600  147.4890 C   0  0  0  0  0  1  0  0  0  0  0  0
  159.9280  213.6680  146.8720 O   0  0  0  0  0  0  0  0  0  0  0  0
  160.1420  212.4680  148.9220 C   0  0  0  0  0  2  0  0  0  0  0  0
  163.0480  212.3210  148.2120 C   0  0  2  0  0  3  0  0  0  0  0  0
  162.4310  211.4260  149.2980 C   0  0  2  0  0  3  0  0  0  0  0  0
  162.0470  212.7900  147.2600 N   0  0  0  0  0  2  0  0  0  0  0  0
  1 14  1  0  0  0  0
  2  5  1  6  0  0  0
  2 13  1  0  0  0  0
  2  3  1  0  0  0  0
  3 19  1  0  0  0  0
  4 15  2  0  0  0  0
  6  1  2  0  0  0  0
  6 17  1  0  0  0  0
  7  3  2  0  0  0  0
  7  4  1  0  0  0  0
  8 13  1  0  0  0  0
  8 23  1  6  0  0  0
  9  1  1  0  0  0  0
 11  4  1  0  0  0  0
 12  8  1  0  0  0  0
 13 18  1  1  0  0  0
 14  5  2  0  0  0  0
 15 20  1  0  0  0  0
 16  5  1  0  0  0  0
 16 12  1  0  0  0  0
 17 16  2  0  0  0  0
 18 10  1  0  0  0  0
 19 10  1  0  0  0  0
 19 20  2  0  0  0  0
 21 22  2  0  0  0  0
 22 23  1  0  0  0  0
 24 28  1  0  0  0  0
 27 24  2  0  0  0  0
 28 25  1  0  0  0  0
 29 26  1  6  0  0  0
 29 30  1  0  0  0  0
 30 22  1  6  0  0  0
 30 25  1  0  0  0  0
 31 24  1  0  0  0  0
 31 29  1  0  0  0  0
M  END
>  <MODEL>
3

>  <REMARK>
 VINA RESULT:      -6.8      3.540      4.900
  Name = 
  2 active torsions:
  status: ('A' for Active; 'I' for Inactive)
    1  A    between atoms: C_5  and  C_30
    2  A    between atoms: C_10  and  N_16
                            x       y       z     vdW  Elec       q    Type
                         _______ _______ _______ _____ _____    ______ ____

>  <TORSDO>
F 2

$$$$
=
 OpenBabel11122413173D

 31 35  0  0  1  0  0  0  0  0999 V2000
  161.9910  206.5960  147.4990 C   0  0  0  0  0  0  0  0  0  0  0  0
  162.3590  209.2470  150.2050 C   0  0  2  0  0  3  0  0  0  0  0  0
  161.7050  210.5110  149.6580 C   0  0  0  0  0  0  0  0  0  0  0  0
  160.9960  211.8440  147.7450 C   0  0  0  0  0  0  0  0  0  0  0  0
  161.9220  207.9860  149.4900 C   0  0  0  0  0  0  0  0  0  0  0  0
  161.0830  205.7090  148.0800 C   0  0  0  0  0  3  0  0  0  0  0  0
  161.5170  210.6620  148.2740 C   0  0  0  0  0  3  0  0  0  0  0  0
  160.8000  208.6080  152.0860 C   0  0  2  0  0  3  0  0  0  0  0  0
  162.4640  206.3610  146.2510 F   0  0  0  0  0  0  0  0  0  0  0  0
  161.5700  211.5260  151.9950 C   0  0  0  0  0  2  0  0  0  0  0  0
  160.7890  211.9750  146.2800 C   0  0  0  0  0  1  0  0  0  0  0  0
  160.5750  207.2120  151.5110 C   0  0  0  0  0  2  0  0  0  0  0  0
  162.2080  209.1060  151.7300 C   0  0  2  0  0  3  0  0  0  0  0  0
  162.4110  207.7270  148.2020 C   0  0  0  0  0  3  0  0  0  0  0  0
  160.6750  212.9050  148.5930 C   0  0  0  0  0  3  0  0  0  0  0  0
  161.0090  207.0810  150.0790 C   0  0  0  0  0  0  0  0  0  0  0  0
  160.6030  205.9470  149.3690 C   0  0  0  0  0  3  0  0  0  0  0  0
  162.5500  210.4330  152.4120 C   0  0  0  0  0  2  0  0  0  0  0  0
  161.4120  211.6080  150.5060 C   0  0  0  0  0  0  0  0  0  0  0  0
  160.8810  212.7840  149.9680 C   0  0  0  0  0  3  0  0  0  0  0  0
  159.1970  210.4110  153.6200 O   0  0  0  0  0  0  0  0  0  0  0  0
  159.8110  209.5030  154.2410 C   0  0  0  0  0  0  0  0  0  0  0  0
  160.6270  208.5690  153.5310 N   0  0  0  0  0  2  0  0  0  0  0  0
  162.3620  210.2990  156.5060 C   0  0  0  0  0  0  0  0  0  0  0  0
  159.9040  210.8240  156.3760 C   0  0  0  0  0  2  0  0  0  0  0  0
  160.5660  207.0480  155.8000 C   0  0  0  0  0  1  0  0  0  0  0  0
  163.5460  210.6470  156.7500 O   0  0  0  0  0  0  0  0  0  0  0  0
  161.3320  211.3480  156.2050 C   0  0  0  0  0  2  0  0  0  0  0  0
  160.6580  208.4370  156.4070 C   0  0  2  0  0  3  0  0  0  0  0  0
  159.7100  209.4460  155.7400 C   0  0  2  0  0  3  0  0  0  0  0  0
  162.0390  208.9080  156.4110 N   0  0  0  0  0  2  0  0  0  0  0  0
  1  6  2  0  0  0  0
  1 14  1  0  0  0  0
  2  5  1  6  0  0  0
  2 13  1  0  0  0  0
  3  2  1  0  0  0  0
  3 19  1  0  0  0  0
  4  7  1  0  0  0  0
  4 15  2  0  0  0  0
  5 16  1  0  0  0  0
  6 17  1  0  0  0  0
  7  3  2  0  0  0  0
  8 23  1  1  0  0  0
  9  1  1  0  0  0  0
 10 18  1  0  0  0  0
 11  4  1  0  0  0  0
 12  8  1  0  0  0  0
 13  8  1  0  0  0  0
 13 18  1  1  0  0  0
 14  5  2  0  0  0  0
 15 20  1  0  0  0  0
 16 12  1  0  0  0  0
 17 16  2  0  0  0  0
 19 10  1  0  0  0  0
 20 19  2  0  0  0  0
 21 22  2  0  0  0  0
 23 22  1  0  0  0  0
 24 27  2  0  0  0  0
 28 25  1  0  0  0  0
 28 24  1  0  0  0  0
 29 26  1  6  0  0  0
 29 31  1  0  0  0  0
 30 22  1  6  0  0  0
 30 25  1  0  0  0  0
 30 29  1  0  0  0  0
 31 24  1  0  0  0  0
M  END
>  <MODEL>
4

>  <REMARK>
 VINA RESULT:      -5.6      2.725      5.664
  Name = 
  2 active torsions:
  status: ('A' for Active; 'I' for Inactive)
    1  A    between atoms: C_5  and  C_30
    2  A    between atoms: C_10  and  N_16
                            x       y       z     vdW  Elec       q    Type
                         _______ _______ _______ _____ _____    ______ ____

>  <TORSDO>
F 2

$$$$
=
 OpenBabel11122413173D

 31 35  0  0  1  0  0  0  0  0999 V2000
  161.9860  213.1180  147.8690 C   0  0  0  0  0  0  0  0  0  0  0  0
  159.6390  214.0040  150.7310 C   0  0  2  0  0  3  0  0  0  0  0  0
  158.2340  214.0330  150.1390 C   0  0  0  0  0  0  0  0  0  0  0  0
  156.7820  214.2990  148.2000 C   0  0  0  0  0  0  0  0  0  0  0  0
  160.6330  213.2390  149.8830 C   0  0  0  0  0  0  0  0  0  0  0  0
  162.4120  211.8360  148.2260 C   0  0  0  0  0  3  0  0  0  0  0  0
  158.0590  214.1880  148.7540 C   0  0  0  0  0  3  0  0  0  0  0  0
  159.5370  211.9940  152.2560 C   0  0  2  0  0  3  0  0  0  0  0  0
  162.4280  213.6820  146.7200 F   0  0  0  0  0  0  0  0  0  0  0  0
  157.1870  213.8790  152.4610 C   0  0  0  0  0  2  0  0  0  0  0  0
  156.6200  214.4460  146.7310 C   0  0  0  0  0  1  0  0  0  0  0  0
  160.7370  211.3370  151.5770 C   0  0  0  0  0  2  0  0  0  0  0  0
  159.6640  213.5220  152.1930 C   0  0  2  0  0  3  0  0  0  0  0  0
  161.1040  213.8160  148.6960 C   0  0  0  0  0  3  0  0  0  0  0  0
  155.6590  214.2790  149.0280 C   0  0  0  0  0  3  0  0  0  0  0  0
  161.0720  211.9450  150.2460 C   0  0  0  0  0  0  0  0  0  0  0  0
  161.9630  211.2580  149.4150 C   0  0  0  0  0  3  0  0  0  0  0  0
  158.5720  214.2340  152.9930 C   0  0  0  0  0  2  0  0  0  0  0  0
  157.0900  214.0530  150.9740 C   0  0  0  0  0  0  0  0  0  0  0  0
  155.8150  214.1550  150.4100 C   0  0  0  0  0  3  0  0  0  0  0  0
  160.2720  209.4020  153.2130 O   0  0  0  0  0  0  0  0  0  0  0  0
  159.8430  210.2350  154.0560 C   0  0  0  0  0  0  0  0  0  0  0  0
  159.4620  211.5490  153.6400 N   0  0  0  0  0  2  0  0  0  0  0  0
  162.3180  210.4570  156.5250 C   0  0  0  0  0  0  0  0  0  0  0  0
  159.8600  210.9980  156.4490 C   0  0  0  0  0  2  0  0  0  0  0  0
  160.5700  207.4750  154.9940 C   0  0  0  0  0  1  0  0  0  0  0  0
  163.4910  210.7360  156.8820 O   0  0  0  0  0  0  0  0  0  0  0  0
  161.2890  211.5480  156.4560 C   0  0  0  0  0  2  0  0  0  0  0  0
  160.6320  208.6750  155.9230 C   0  0  2  0  0  3  0  0  0  0  0  0
  159.6970  209.8150  155.4910 C   0  0  2  0  0  3  0  0  0  0  0  0
  162.0090  209.1310  156.0850 N   0  0  0  0  0  2  0  0  0  0  0  0
  1  6  2  0  0  0  0
  1 14  1  0  0  0  0
  2  5  1  6  0  0  0
  2 13  1  0  0  0  0
  3  2  1  0  0  0  0
  3 19  1  0  0  0  0
  4  7  1  0  0  0  0
  4 15  2  0  0  0  0
  5 16  1  0  0  0  0
  6 17  1  0  0  0  0
  7  3  2  0  0  0  0
  8 23  1  1  0  0  0
  9  1  1  0  0  0  0
 10 18  1  0  0  0  0
 11  4  1  0  0  0  0
 12  8  1  0  0  0  0
 13  8  1  0  0  0  0
 13 18  1  1  0  0  0
 14  5  2  0  0  0  0
 15 20  1  0  0  0  0
 16 12  1  0  0  0  0
 17 16  2  0  0  0  0
 19 10  1  0  0  0  0
 20 19  2  0  0  0  0
 21 22  2  0  0  0  0
 23 22  1  0  0  0  0
 24 27  2  0  0  0  0
 25 28  1  0  0  0  0
 28 24  1  0  0  0  0
 29 26  1  6  0  0  0
 29 31  1  0  0  0  0
 30 22  1  6  0  0  0
 30 29  1  0  0  0  0
 30 25  1  0  0  0  0
 31 24  1  0  0  0  0
M  END
>  <MODEL>
5

>  <REMARK>
 VINA RESULT:      -5.5      5.291      8.068
  Name = 
  2 active torsions:
  status: ('A' for Active; 'I' for Inactive)
    1  A    between atoms: C_5  and  C_30
    2  A    between atoms: C_10  and  N_16
                            x       y       z     vdW  Elec       q    Type
                         _______ _______ _______ _____ _____    ______ ____

>  <TORSDO>
F 2

$$$$
=
 OpenBabel11122413173D

 31 35  0  0  1  0  0  0  0  0999 V2000
  160.6850  201.6010  148.7510 C   0  0  0  0  0  0  0  0  0  0  0  0
  162.2270  204.8730  149.9330 C   0  0  2  0  0  3  0  0  0  0  0  0
  161.7190  205.9530  148.9850 C   0  0  0  0  0  0  0  0  0  0  0  0
  160.8310  206.5780  146.8040 C   0  0  0  0  0  0  0  0  0  0  0  0
  161.3870  203.6140  149.9160 C   0  0  0  0  0  0  0  0  0  0  0  0
  159.7940  201.3060  149.7850 C   0  0  0  0  0  3  0  0  0  0  0  0
  161.2250  205.6000  147.7180 C   0  0  0  0  0  3  0  0  0  0  0  0
  161.0910  205.4870  152.1040 C   0  0  2  0  0  3  0  0  0  0  0  0
  160.7760  200.7750  147.6810 F   0  0  0  0  0  0  0  0  0  0  0  0
  162.3720  207.7910  150.6310 C   0  0  0  0  0  2  0  0  0  0  0  0
  160.2960  206.1810  145.4760 C   0  0  0  0  0  1  0  0  0  0  0  0
  160.4600  204.1030  152.2390 C   0  0  0  0  0  2  0  0  0  0  0  0
  162.4360  205.3860  151.3700 C   0  0  2  0  0  3  0  0  0  0  0  0
  161.4790  202.7470  148.8180 C   0  0  0  0  0  3  0  0  0  0  0  0
  160.9450  207.9290  147.1350 C   0  0  0  0  0  3  0  0  0  0  0  0
  160.4910  203.3080  150.9660 C   0  0  0  0  0  0  0  0  0  0  0  0
  159.7060  202.1530  150.8920 C   0  0  0  0  0  3  0  0  0  0  0  0
  163.1890  206.7170  151.3420 C   0  0  0  0  0  2  0  0  0  0  0  0
  161.8670  207.3280  149.2970 C   0  0  0  0  0  0  0  0  0  0  0  0
  161.4600  208.3000  148.3780 C   0  0  0  0  0  3  0  0  0  0  0  0
  160.4560  208.1710  152.8540 O   0  0  0  0  0  0  0  0  0  0  0  0
  160.9430  207.4180  153.7390 C   0  0  0  0  0  0  0  0  0  0  0  0
  161.2790  206.0640  153.4270 N   0  0  0  0  0  2  0  0  0  0  0  0
  158.9410  209.7390  155.4340 C   0  0  0  0  0  0  0  0  0  0  0  0
  160.0960  207.6030  156.0970 C   0  0  0  0  0  2  0  0  0  0  0  0
  162.4950  209.9550  154.1620 C   0  0  0  0  0  1  0  0  0  0  0  0
  157.9450  210.5060  155.4780 O   0  0  0  0  0  0  0  0  0  0  0  0
  158.7670  208.2850  155.7610 C   0  0  0  0  0  2  0  0  0  0  0  0
  161.4390  209.4920  155.1510 C   0  0  2  0  0  3  0  0  0  0  0  0
  161.2060  207.9740  155.1100 C   0  0  2  0  0  3  0  0  0  0  0  0
  160.1980  210.2390  154.9690 N   0  0  0  0  0  2  0  0  0  0  0  0
  1 14  2  0  0  0  0
  1  6  1  0  0  0  0
  2  3  1  6  0  0  0
  2 13  1  0  0  0  0
  3 19  1  0  0  0  0
  4 15  2  0  0  0  0
  4  7  1  0  0  0  0
  5  2  1  0  0  0  0
  5 16  2  0  0  0  0
  6 17  2  0  0  0  0
  7  3  2  0  0  0  0
  8 12  1  0  0  0  0
  8 23  1  1  0  0  0
  9  1  1  0  0  0  0
 10 18  1  0  0  0  0
 11  4  1  0  0  0  0
 13 18  1  6  0  0  0
 13  8  1  0  0  0  0
 14  5  1  0  0  0  0
 15 20  1  0  0  0  0
 16 12  1  0  0  0  0
 17 16  1  0  0  0  0
 19 10  1  0  0  0  0
 20 19  2  0  0  0  0
 21 22  2  0  0  0  0
 23 22  1  0  0  0  0
 24 27  2  0  0  0  0
 24 28  1  0  0  0  0
 28 25  1  0  0  0  0
 29 26  1  6  0  0  0
 30 22  1  6  0  0  0
 30 29  1  0  0  0  0
 30 25  1  0  0  0  0
 31 29  1  0  0  0  0
 31 24  1  0  0  0  0
M  END
>  <MODEL>
6

>  <REMARK>
 VINA RESULT:      -5.2      1.419      3.926
  Name = 
  2 active torsions:
  status: ('A' for Active; 'I' for Inactive)
    1  A    between atoms: C_5  and  C_30
    2  A    between atoms: C_10  and  N_16
                            x       y       z     vdW  Elec       q    Type
                         _______ _______ _______ _____ _____    ______ ____

>  <TORSDO>
F 2

$$$$
=
 OpenBabel11122413173D

 31 35  0  0  1  0  0  0  0  0999 V2000
  161.7960  203.0290  151.8880 C   0  0  0  0  0  0  0  0  0  0  0  0
  162.3980  206.5440  150.5590 C   0  0  2  0  0  3  0  0  0  0  0  0
  161.8360  206.5680  149.1420 C   0  0  0  0  0  0  0  0  0  0  0  0
  161.2050  205.3680  147.1170 C   0  0  0  0  0  0  0  0  0  0  0  0
  161.8570  205.4090  151.4010 C   0  0  0  0  0  0  0  0  0  0  0  0
  160.8310  203.2500  152.8730 C   0  0  0  0  0  3  0  0  0  0  0  0
  161.6420  205.3650  148.4430 C   0  0  0  0  0  3  0  0  0  0  0  0
  160.8190  208.0830  151.7890 C   0  0  2  0  0  3  0  0  0  0  0  0
  162.2340  201.7720  151.6390 F   0  0  0  0  0  0  0  0  0  0  0  0
  161.8080  209.1200  149.1310 C   0  0  0  0  0  2  0  0  0  0  0  0
  160.9910  204.0830  146.4020 C   0  0  0  0  0  1  0  0  0  0  0  0
  160.4810  207.0140  152.8250 C   0  0  0  0  0  2  0  0  0  0  0  0
  162.2560  207.8950  151.2830 C   0  0  2  0  0  3  0  0  0  0  0  0
  162.3090  204.1040  151.1590 C   0  0  0  0  0  3  0  0  0  0  0  0
  160.9760  206.5780  146.4610 C   0  0  0  0  0  3  0  0  0  0  0  0
  160.8860  205.6300  152.4050 C   0  0  0  0  0  0  0  0  0  0  0  0
  160.3860  204.5480  153.1350 C   0  0  0  0  0  3  0  0  0  0  0  0
  162.7060  209.0290  150.3610 C   0  0  0  0  0  2  0  0  0  0  0  0
  161.6370  207.7920  148.4550 C   0  0  0  0  0  0  0  0  0  0  0  0
  161.1900  207.7840  147.1300 C   0  0  0  0  0  3  0  0  0  0  0  0
  161.5810  208.8060  154.4480 O   0  0  0  0  0  0  0  0  0  0  0  0
  161.0620  209.6990  153.7270 C   0  0  0  0  0  0  0  0  0  0  0  0
  160.6620  209.4020  152.3870 N   0  0  0  0  0  2  0  0  0  0  0  0
  158.0400  210.8860  155.0420 C   0  0  0  0  0  0  0  0  0  0  0  0
  160.4420  210.9950  155.7870 C   0  0  0  0  0  2  0  0  0  0  0  0
  160.0810  211.9990  152.0600 C   0  0  0  0  0  1  0  0  0  0  0  0
  156.8180  210.7330  155.2980 O   0  0  0  0  0  0  0  0  0  0  0  0
  159.0670  210.3550  155.9990 C   0  0  0  0  0  2  0  0  0  0  0  0
  159.7990  211.9160  153.5500 C   0  0  2  0  0  3  0  0  0  0  0  0
  160.8290  211.0650  154.3080 C   0  0  2  0  0  3  0  0  0  0  0  0
  158.4330  211.4630  153.7930 N   0  0  0  0  0  2  0  0  0  0  0  0
  1  6  1  0  0  0  0
  2  3  1  6  0  0  0
  2 13  1  0  0  0  0
  2  5  1  0  0  0  0
  4  7  1  0  0  0  0
  5 16  2  0  0  0  0
  6 17  2  0  0  0  0
  7  3  2  0  0  0  0
  8 23  1  1  0  0  0
  8 12  1  0  0  0  0
  9  1  1  0  0  0  0
 10 18  1  0  0  0  0
 11  4  1  0  0  0  0
 13 18  1  6  0  0  0
 13  8  1  0  0  0  0
 14  5  1  0  0  0  0
 14  1  2  0  0  0  0
 15  4  2  0  0  0  0
 15 20  1  0  0  0  0
 16 12  1  0  0  0  0
 16 17  1  0  0  0  0
 19 10  1  0  0  0  0
 19  3  1  0  0  0  0
 20 19  2  0  0  0  0
 22 21  2  0  0  0  0
 23 22  1  0  0  0  0
 24 27  2  0  0  0  0
 24 28  1  0  0  0  0
 25 28  1  0  0  0  0
 29 26  1  6  0  0  0
 29 31  1  0  0  0  0
 29 30  1  0  0  0  0
 30 22  1  6  0  0  0
 30 25  1  0  0  0  0
 31 24  1  0  0  0  0
M  END
>  <MODEL>
7

>  <REMARK>
 VINA RESULT:      -4.9      2.360      4.392
  Name = 
  2 active torsions:
  status: ('A' for Active; 'I' for Inactive)
    1  A    between atoms: C_5  and  C_30
    2  A    between atoms: C_10  and  N_16
                            x       y       z     vdW  Elec       q    Type
                         _______ _______ _______ _____ _____    ______ ____

>  <TORSDO>
F 2

$$$$
=
 OpenBabel11122413173D

 31 35  0  0  1  0  0  0  0  0999 V2000
  162.4230  207.8680  139.7060 C   0  0  0  0  0  0  0  0  0  0  0  0
  160.4750  211.1360  139.6230 C   0  0  2  0  0  3  0  0  0  0  0  0
  161.4420  212.1990  139.1150 C   0  0  0  0  0  0  0  0  0  0  0  0
  163.7320  212.9750  138.8100 C   0  0  0  0  0  0  0  0  0  0  0  0
  160.9080  209.7230  139.2970 C   0  0  0  0  0  0  0  0  0  0  0  0
  161.8140  207.1380  138.6840 C   0  0  0  0  0  3  0  0  0  0  0  0
  162.8280  211.9820  139.1930 C   0  0  0  0  0  3  0  0  0  0  0  0
  158.8200  210.9650  137.7240 C   0  0  2  0  0  3  0  0  0  0  0  0
  163.4560  207.3310  140.3990 F   0  0  0  0  0  0  0  0  0  0  0  0
  159.5140  213.7790  138.5680 C   0  0  0  0  0  2  0  0  0  0  0  0
  165.1930  212.7170  138.8860 C   0  0  0  0  0  1  0  0  0  0  0  0
  159.0460  209.4620  137.5760 C   0  0  0  0  0  2  0  0  0  0  0  0
  159.0210  211.3900  139.1850 C   0  0  2  0  0  3  0  0  0  0  0  0
  161.9700  209.1530  140.0130 C   0  0  0  0  0  3  0  0  0  0  0  0
  163.2630  214.2090  138.3610 C   0  0  0  0  0  3  0  0  0  0  0  0
  160.2870  208.9780  138.2690 C   0  0  0  0  0  0  0  0  0  0  0  0
  160.7430  207.6880  137.9760 C   0  0  0  0  0  3  0  0  0  0  0  0
  158.6540  212.8560  139.4250 C   0  0  0  0  0  2  0  0  0  0  0  0
  160.9770  213.4700  138.6940 C   0  0  0  0  0  0  0  0  0  0  0  0
  161.8900  214.4530  138.3020 C   0  0  0  0  0  3  0  0  0  0  0  0
  156.4010  209.9100  138.8230 O   0  0  0  0  0  0  0  0  0  0  0  0
  156.3000  210.7310  137.8730 C   0  0  0  0  0  0  0  0  0  0  0  0
  157.4720  211.2960  137.2810 N   0  0  0  0  0  2  0  0  0  0  0  0
  153.3670  211.0130  139.7670 C   0  0  0  0  0  0  0  0  0  0  0  0
  154.4080  212.3820  137.9290 C   0  0  0  0  0  2  0  0  0  0  0  0
  154.3470  208.6150  137.0140 C   0  0  0  0  0  1  0  0  0  0  0  0
  152.7560  210.9340  140.8640 O   0  0  0  0  0  0  0  0  0  0  0  0
  154.1120  212.2710  139.4270 C   0  0  0  0  0  2  0  0  0  0  0  0
  153.8830  209.9670  137.5270 C   0  0  2  0  0  3  0  0  0  0  0  0
  154.9360  211.0710  137.3410 C   0  0  2  0  0  3  0  0  0  0  0  0
  153.4370  209.8680  138.9120 N   0  0  0  0  0  2  0  0  0  0  0  0
  1 14  1  0  0  0  0
  1  9  1  0  0  0  0
  2  3  1  6  0  0  0
  3  7  1  0  0  0  0
  4 11  1  0  0  0  0
  4  7  2  0  0  0  0
  5  2  1  0  0  0  0
  5 14  2  0  0  0  0
  6  1  2  0  0  0  0
  8 23  1  1  0  0  0
  8 13  1  0  0  0  0
 10 19  1  0  0  0  0
 10 18  1  0  0  0  0
 12  8  1  0  0  0  0
 12 16  1  0  0  0  0
 13 18  1  6  0  0  0
 13  2  1  0  0  0  0
 15  4  1  0  0  0  0
 16  5  1  0  0  0  0
 17 16  2  0  0  0  0
 17  6  1  0  0  0  0
 19  3  2  0  0  0  0
 20 15  2  0  0  0  0
 20 19  1  0  0  0  0
 22 21  2  0  0  0  0
 23 22  1  0  0  0  0
 24 27  2  0  0  0  0
 25 28  1  0  0  0  0
 28 24  1  0  0  0  0
 29 26  1  1  0  0  0
 29 31  1  0  0  0  0
 30 29  1  0  0  0  0
 30 22  1  1  0  0  0
 30 25  1  0  0  0  0
 31 24  1  0  0  0  0
M  END
>  <MODEL>
8

>  <REMARK>
 VINA RESULT:      -4.8     12.710     15.127
  Name = 
  2 active torsions:
  status: ('A' for Active; 'I' for Inactive)
    1  A    between atoms: C_5  and  C_30
    2  A    between atoms: C_10  and  N_16
                            x       y       z     vdW  Elec       q    Type
                         _______ _______ _______ _____ _____    ______ ____

>  <TORSDO>
F 2

$$$$
