=
 OpenBabel11122412403D

 30 35  0  0  1  0  0  0  0  0999 V2000
  161.4060  208.6290  151.7750 C   0  0  0  0  0  0  0  0  0  0  0  0
  161.0880  209.6310  154.0230 C   0  0  0  0  0  0  0  0  0  0  0  0
  160.9320  204.8210  153.2570 N   0  0  0  0  0  2  0  0  0  0  0  0
  161.4360  207.4840  150.9370 C   0  0  0  0  0  0  0  0  0  0  0  0
  161.5970  209.8940  151.2080 O   0  0  0  0  0  0  0  0  0  0  0  0
  161.9560  209.1430  147.7400 O   0  0  0  0  0  0  0  0  0  0  0  0
  162.0720  205.4760  148.6100 C   0  0  1  0  0  3  0  0  0  0  0  0
  161.8550  208.9680  148.9850 C   0  0  0  0  0  0  0  0  0  0  0  0
  161.8470  204.4660  149.7250 C   0  0  2  0  0  3  0  0  0  0  0  0
  161.1400  204.1640  152.0960 C   0  0  0  0  0  0  0  0  0  0  0  0
  162.1950  210.0890  149.9290 C   0  0  1  0  0  3  0  0  0  0  0  0
  161.5010  207.6780  149.5100 N   0  0  0  0  0  0  0  0  0  0  0  0
  160.8360  209.4640  155.3870 C   0  0  0  0  0  3  0  0  0  0  0  0
  160.9500  203.4000  149.1320 C   0  0  0  0  0  2  0  0  0  0  0  0
  161.9570  204.6800  147.3190 C   0  0  0  0  0  2  0  0  0  0  0  0
  161.2650  210.8910  153.5530 F   0  0  0  0  0  0  0  0  0  0  0  0
  161.0370  206.1090  152.8910 C   0  0  0  0  0  0  0  0  0  0  0  0
  160.6470  208.1900  155.9250 C   0  0  0  0  0  3  0  0  0  0  0  0
  161.1530  208.5060  153.1690 C   0  0  0  0  0  0  0  0  0  0  0  0
  161.2860  206.2180  151.5440 C   0  0  0  0  0  0  0  0  0  0  0  0
  161.1730  202.9060  152.0360 O   0  0  0  0  0  0  0  0  0  0  0  0
  161.3480  204.9680  151.0190 N   0  0  0  0  0  0  0  0  0  0  0  0
  161.3340  203.3370  147.6690 C   0  0  0  0  0  2  0  0  0  0  0  0
  159.6210  206.2820  148.7210 C   0  0  0  0  0  1  0  0  0  0  0  0
  160.7090  207.0680  155.0990 C   0  0  0  0  0  3  0  0  0  0  0  0
  160.9570  207.2160  153.7300 C   0  0  0  0  0  0  0  0  0  0  0  0
  161.0960  206.6440  148.5720 C   0  0  2  0  0  3  0  0  0  0  0  0
  161.8260  211.4660  149.3770 C   0  0  0  0  0  2  0  0  0  0  0  0
  162.5360  212.8700  147.5030 C   0  0  0  0  0  2  0  0  0  0  0  0
  162.8670  211.9840  148.4370 C   0  0  0  0  0  3  0  0  0  0  0  0
  1 19  1  0  0  0  0
  2 13  1  0  0  0  0
  4 20  1  0  0  0  0
  4  1  2  0  0  0  0
  5  1  1  0  0  0  0
  6  8  2  0  0  0  0
  7 15  1  6  0  0  0
  7  9  1  0  0  0  0
  8 12  1  0  0  0  0
  8 11  1  0  0  0  0
  9 14  1  6  0  0  0
  9 22  1  0  0  0  0
 10  3  1  0  0  0  0
 11 28  1  6  0  0  0
 11  5  1  0  0  0  0
 12  4  1  0  0  0  0
 13 18  2  0  0  0  0
 15 23  1  0  0  0  0
 16  2  1  0  0  0  0
 17  3  1  0  0  0  0
 17 26  1  0  0  0  0
 19 26  1  0  0  0  0
 19  2  2  0  0  0  0
 20 17  2  0  0  0  0
 21 10  2  0  0  0  0
 22 20  1  0  0  0  0
 22 10  1  0  0  0  0
 23 14  1  0  0  0  0
 25 18  1  0  0  0  0
 26 25  2  0  0  0  0
 27  7  1  0  0  0  0
 27 24  1  1  0  0  0
 27 12  1  0  0  0  0
 29 30  2  0  0  0  0
 30 28  1  0  0  0  0
M  END
>  <MODEL>
1

>  <REMARK>
 VINA RESULT:      -8.0      0.000      0.000
  Name = 
  2 active torsions:
  status: ('A' for Active; 'I' for Inactive)
    1  A    between atoms: C_11  and  C_28
    2  A    between atoms: C_28  and  C_30
                            x       y       z     vdW  Elec       q    Type
                         _______ _______ _______ _____ _____    ______ ____

>  <TORSDO>
F 2

$$$$
=
 OpenBabel11122412403D

 30 35  0  0  1  0  0  0  0  0999 V2000
  161.0120  204.8650  149.0690 C   0  0  0  0  0  0  0  0  0  0  0  0
  160.9740  202.4200  148.6510 C   0  0  0  0  0  0  0  0  0  0  0  0
  161.0550  204.3040  153.1440 N   0  0  0  0  0  2  0  0  0  0  0  0
  161.0810  205.9520  149.9790 C   0  0  0  0  0  0  0  0  0  0  0  0
  160.9780  205.1280  147.6950 O   0  0  0  0  0  0  0  0  0  0  0  0
  161.2010  208.6860  147.5810 O   0  0  0  0  0  0  0  0  0  0  0  0
  160.7770  208.7700  151.3260 C   0  0  1  0  0  3  0  0  0  0  0  0
  161.0740  207.5220  148.0500 C   0  0  0  0  0  0  0  0  0  0  0  0
  160.7600  207.9150  152.5850 C   0  0  2  0  0  3  0  0  0  0  0  0
  161.0270  205.6090  153.4910 C   0  0  0  0  0  0  0  0  0  0  0  0
  160.6230  206.4000  147.1570 C   0  0  1  0  0  3  0  0  0  0  0  0
  161.2750  207.2790  149.4520 N   0  0  0  0  0  0  0  0  0  0  0  0
  160.9760  201.1150  149.1530 C   0  0  0  0  0  3  0  0  0  0  0  0
  161.7010  208.6000  153.5540 C   0  0  0  0  0  2  0  0  0  0  0  0
  161.0820  210.1810  151.8050 C   0  0  0  0  0  2  0  0  0  0  0  0
  160.9360  202.5890  147.3060 F   0  0  0  0  0  0  0  0  0  0  0  0
  161.0720  204.3560  151.8020 C   0  0  0  0  0  0  0  0  0  0  0  0
  161.0130  200.8830  150.5280 C   0  0  0  0  0  3  0  0  0  0  0  0
  161.0120  203.5220  149.5360 C   0  0  0  0  0  0  0  0  0  0  0  0
  161.0680  205.6570  151.3600 C   0  0  0  0  0  0  0  0  0  0  0  0
  160.9510  205.9800  154.6930 O   0  0  0  0  0  0  0  0  0  0  0  0
  161.0450  206.4750  152.4430 N   0  0  0  0  0  0  0  0  0  0  0  0
  161.5770  210.0760  153.2400 C   0  0  0  0  0  2  0  0  0  0  0  0
  163.2030  208.0750  150.7770 C   0  0  0  0  0  1  0  0  0  0  0  0
  161.0490  201.9570  151.4170 C   0  0  0  0  0  3  0  0  0  0  0  0
  161.0510  203.2700  150.9320 C   0  0  0  0  0  0  0  0  0  0  0  0
  161.7940  208.3650  150.2680 C   0  0  2  0  0  3  0  0  0  0  0  0
  161.1410  206.5310  145.7250 C   0  0  0  0  0  2  0  0  0  0  0  0
  160.7440  204.4520  144.4960 C   0  0  0  0  0  2  0  0  0  0  0  0
  161.5930  205.2160  145.1750 C   0  0  0  0  0  3  0  0  0  0  0  0
  1 19  2  0  0  0  0
  1  4  1  0  0  0  0
  2 13  2  0  0  0  0
  2 19  1  0  0  0  0
  3 10  1  0  0  0  0
  4 20  2  0  0  0  0
  5  1  1  0  0  0  0
  6  8  2  0  0  0  0
  7 15  1  1  0  0  0
  7  9  1  0  0  0  0
  8 12  1  0  0  0  0
  9 14  1  1  0  0  0
 10 21  2  0  0  0  0
 11 28  1  6  0  0  0
 11  5  1  0  0  0  0
 11  8  1  0  0  0  0
 12  4  1  0  0  0  0
 12 27  1  0  0  0  0
 13 18  1  0  0  0  0
 15 23  1  0  0  0  0
 16  2  1  0  0  0  0
 17  3  1  0  0  0  0
 18 25  2  0  0  0  0
 19 26  1  0  0  0  0
 20 17  1  0  0  0  0
 20 22  1  0  0  0  0
 22  9  1  0  0  0  0
 22 10  1  0  0  0  0
 23 14  1  0  0  0  0
 26 25  1  0  0  0  0
 26 17  2  0  0  0  0
 27 24  1  1  0  0  0
 27  7  1  0  0  0  0
 29 30  2  0  0  0  0
 30 28  1  0  0  0  0
M  END
>  <MODEL>
2

>  <REMARK>
 VINA RESULT:      -7.7      2.832      5.837
  Name = 
  2 active torsions:
  status: ('A' for Active; 'I' for Inactive)
    1  A    between atoms: C_11  and  C_28
    2  A    between atoms: C_28  and  C_30
                            x       y       z     vdW  Elec       q    Type
                         _______ _______ _______ _____ _____    ______ ____

>  <TORSDO>
F 2

$$$$
=
 OpenBabel11122412403D

 30 35  0  0  1  0  0  0  0  0999 V2000
  161.3190  208.7610  151.6130 C   0  0  0  0  0  0  0  0  0  0  0  0
  161.7130  211.0410  150.7190 C   0  0  0  0  0  0  0  0  0  0  0  0
  161.5910  207.0950  147.8620 N   0  0  0  0  0  2  0  0  0  0  0  0
  161.2170  207.3610  151.4000 C   0  0  0  0  0  0  0  0  0  0  0  0
  161.1950  209.2630  152.9130 O   0  0  0  0  0  0  0  0  0  0  0  0
  160.7620  206.2990  154.8510 O   0  0  0  0  0  0  0  0  0  0  0  0
  160.4470  204.3290  151.6520 C   0  0  1  0  0  3  0  0  0  0  0  0
  160.8640  207.0510  153.8430 C   0  0  0  0  0  0  0  0  0  0  0  0
  160.6260  204.3920  150.1420 C   0  0  2  0  0  3  0  0  0  0  0  0
  161.3370  205.8210  148.2270 C   0  0  0  0  0  0  0  0  0  0  0  0
  160.5970  208.5240  153.9770 C   0  0  1  0  0  3  0  0  0  0  0  0
  161.1500  206.4940  152.5490 N   0  0  0  0  0  0  0  0  0  0  0  0
  161.9680  211.8750  149.6270 C   0  0  0  0  0  3  0  0  0  0  0  0
  161.4560  203.1790  149.7800 C   0  0  0  0  0  2  0  0  0  0  0  0
  160.5060  202.8490  152.0000 C   0  0  0  0  0  2  0  0  0  0  0  0
  161.6030  211.6080  151.9460 F   0  0  0  0  0  0  0  0  0  0  0  0
  161.5560  207.7510  149.0340 C   0  0  0  0  0  0  0  0  0  0  0  0
  162.0900  211.3460  148.3410 C   0  0  0  0  0  3  0  0  0  0  0  0
  161.5770  209.6460  150.5310 C   0  0  0  0  0  0  0  0  0  0  0  0
  161.3010  206.8890  150.0720 C   0  0  0  0  0  0  0  0  0  0  0  0
  161.2320  204.8910  147.3830 O   0  0  0  0  0  0  0  0  0  0  0  0
  161.1640  205.6380  149.5640 N   0  0  0  0  0  0  0  0  0  0  0  0
  161.0560  202.1190  150.7840 C   0  0  0  0  0  2  0  0  0  0  0  0
  162.9420  204.8630  152.0600 C   0  0  0  0  0  1  0  0  0  0  0  0
  161.9570  209.9730  148.1360 C   0  0  0  0  0  3  0  0  0  0  0  0
  161.7050  209.1230  149.2180 C   0  0  0  0  0  0  0  0  0  0  0  0
  161.4880  205.0810  152.4700 C   0  0  2  0  0  3  0  0  0  0  0  0
  161.0370  209.0900  155.3260 C   0  0  0  0  0  2  0  0  0  0  0  0
  162.7750  210.6600  156.0390 C   0  0  0  0  0  2  0  0  0  0  0  0
  161.8160  210.3570  155.1700 C   0  0  0  0  0  3  0  0  0  0  0  0
  1  5  1  0  0  0  0
  2 16  1  0  0  0  0
  3 10  1  0  0  0  0
  3 17  1  0  0  0  0
  4  1  1  0  0  0  0
  4 12  1  0  0  0  0
  5 11  1  0  0  0  0
  7 15  1  1  0  0  0
  7 27  1  0  0  0  0
  8 11  1  0  0  0  0
  8  6  2  0  0  0  0
  9 14  1  1  0  0  0
  9  7  1  0  0  0  0
 10 22  1  0  0  0  0
 11 28  1  1  0  0  0
 12  8  1  0  0  0  0
 13  2  2  0  0  0  0
 14 23  1  0  0  0  0
 17 26  2  0  0  0  0
 17 20  1  0  0  0  0
 18 13  1  0  0  0  0
 19  2  1  0  0  0  0
 19  1  2  0  0  0  0
 20  4  2  0  0  0  0
 21 10  2  0  0  0  0
 22 20  1  0  0  0  0
 22  9  1  0  0  0  0
 23 15  1  0  0  0  0
 25 18  2  0  0  0  0
 25 26  1  0  0  0  0
 26 19  1  0  0  0  0
 27 24  1  6  0  0  0
 27 12  1  0  0  0  0
 30 28  1  0  0  0  0
 30 29  2  0  0  0  0
M  END
>  <MODEL>
3

>  <REMARK>
 VINA RESULT:      -6.9      1.700      4.858
  Name = 
  2 active torsions:
  status: ('A' for Active; 'I' for Inactive)
    1  A    between atoms: C_11  and  C_28
    2  A    between atoms: C_28  and  C_30
                            x       y       z     vdW  Elec       q    Type
                         _______ _______ _______ _____ _____    ______ ____

>  <TORSDO>
F 2

$$$$
=
 OpenBabel11122412403D

 30 35  0  0  1  0  0  0  0  0999 V2000
  161.4010  207.7950  151.2060 C   0  0  0  0  0  0  0  0  0  0  0  0
  161.6230  205.5830  150.1050 C   0  0  0  0  0  0  0  0  0  0  0  0
  160.4560  206.0580  154.8120 N   0  0  0  0  0  2  0  0  0  0  0  0
  161.1700  208.5640  152.3760 C   0  0  0  0  0  0  0  0  0  0  0  0
  161.6960  208.4520  150.0060 O   0  0  0  0  0  0  0  0  0  0  0  0
  161.7140  211.8830  150.9840 O   0  0  0  0  0  0  0  0  0  0  0  0
  160.3610  210.8640  154.3520 C   0  0  1  0  0  3  0  0  0  0  0  0
  161.5480  210.6340  151.0480 C   0  0  0  0  0  0  0  0  0  0  0  0
  160.0830  209.6770  155.2620 C   0  0  2  0  0  3  0  0  0  0  0  0
  160.2590  207.2020  155.5020 C   0  0  0  0  0  0  0  0  0  0  0  0
  161.4070  209.8310  149.7840 C   0  0  1  0  0  3  0  0  0  0  0  0
  161.4060  209.9850  152.3230 N   0  0  0  0  0  0  0  0  0  0  0  0
  161.5810  204.1890  150.1930 C   0  0  0  0  0  3  0  0  0  0  0  0
  160.7050  210.0320  156.5950 C   0  0  0  0  0  2  0  0  0  0  0  0
  160.4460  212.0670  155.2790 C   0  0  0  0  0  2  0  0  0  0  0  0
  161.9130  206.1420  148.9040 F   0  0  0  0  0  0  0  0  0  0  0  0
  160.8060  206.5030  153.5940 C   0  0  0  0  0  0  0  0  0  0  0  0
  161.2870  203.5610  151.4030 C   0  0  0  0  0  3  0  0  0  0  0  0
  161.3680  206.3740  151.2480 C   0  0  0  0  0  0  0  0  0  0  0  0
  160.8300  207.8760  153.5610 C   0  0  0  0  0  0  0  0  0  0  0  0
  159.8610  207.2030  156.6970 O   0  0  0  0  0  0  0  0  0  0  0  0
  160.4850  208.3390  154.7890 N   0  0  0  0  0  0  0  0  0  0  0  0
  160.5710  211.5370  156.7000 C   0  0  0  0  0  2  0  0  0  0  0  0
  162.8860  210.3280  154.2720 C   0  0  0  0  0  1  0  0  0  0  0  0
  161.0310  204.3240  152.5420 C   0  0  0  0  0  3  0  0  0  0  0  0
  161.0710  205.7210  152.4740 C   0  0  0  0  0  0  0  0  0  0  0  0
  161.6340  210.7750  153.5220 C   0  0  2  0  0  3  0  0  0  0  0  0
  162.2580  210.3710  148.6360 C   0  0  0  0  0  2  0  0  0  0  0  0
  162.2610  212.5780  147.5780 C   0  0  0  0  0  2  0  0  0  0  0  0
  161.5760  211.4910  147.9180 C   0  0  0  0  0  3  0  0  0  0  0  0
  1 19  2  0  0  0  0
  1  4  1  0  0  0  0
  2 13  2  0  0  0  0
  2 19  1  0  0  0  0
  3 10  1  0  0  0  0
  4 20  2  0  0  0  0
  5  1  1  0  0  0  0
  6  8  2  0  0  0  0
  7  9  1  0  0  0  0
  7 15  1  1  0  0  0
  8 12  1  0  0  0  0
  9 14  1  1  0  0  0
 10 21  2  0  0  0  0
 11 28  1  6  0  0  0
 11  5  1  0  0  0  0
 11  8  1  0  0  0  0
 12  4  1  0  0  0  0
 12 27  1  0  0  0  0
 13 18  1  0  0  0  0
 14 23  1  0  0  0  0
 15 23  1  0  0  0  0
 16  2  1  0  0  0  0
 17  3  1  0  0  0  0
 18 25  2  0  0  0  0
 19 26  1  0  0  0  0
 20 17  1  0  0  0  0
 20 22  1  0  0  0  0
 22  9  1  0  0  0  0
 22 10  1  0  0  0  0
 26 25  1  0  0  0  0
 26 17  2  0  0  0  0
 27 24  1  1  0  0  0
 27  7  1  0  0  0  0
 29 30  2  0  0  0  0
 30 28  1  0  0  0  0
M  END
>  <MODEL>
4

>  <REMARK>
 VINA RESULT:      -5.9      2.353      5.623
  Name = 
  2 active torsions:
  status: ('A' for Active; 'I' for Inactive)
    1  A    between atoms: C_11  and  C_28
    2  A    between atoms: C_28  and  C_30
                            x       y       z     vdW  Elec       q    Type
                         _______ _______ _______ _____ _____    ______ ____

>  <TORSDO>
F 2

$$$$
=
 OpenBabel11122412403D

 30 35  0  0  1  0  0  0  0  0999 V2000
  161.7440  206.6730  148.3590 C   0  0  0  0  0  0  0  0  0  0  0  0
  161.9310  205.6100  146.1250 C   0  0  0  0  0  0  0  0  0  0  0  0
  160.7850  203.0890  150.1340 N   0  0  0  0  0  2  0  0  0  0  0  0
  161.5280  206.5580  149.7570 C   0  0  0  0  0  0  0  0  0  0  0  0
  162.0450  207.9280  147.8170 O   0  0  0  0  0  0  0  0  0  0  0  0
  162.1160  210.0220  150.7040 O   0  0  0  0  0  0  0  0  0  0  0  0
  160.7580  207.1550  152.7410 C   0  0  1  0  0  3  0  0  0  0  0  0
  161.9320  209.0020  149.9850 C   0  0  0  0  0  0  0  0  0  0  0  0
  160.4650  205.6620  152.7260 C   0  0  2  0  0  3  0  0  0  0  0  0
  160.6070  203.5650  151.3850 C   0  0  0  0  0  0  0  0  0  0  0  0
  161.7760  209.1520  148.4970 C   0  0  1  0  0  3  0  0  0  0  0  0
  161.7840  207.7060  150.5890 N   0  0  0  0  0  0  0  0  0  0  0  0
  161.8690  204.4600  145.3340 C   0  0  0  0  0  3  0  0  0  0  0  0
  161.0970  205.1110  153.9870 C   0  0  0  0  0  2  0  0  0  0  0  0
  160.8640  207.5280  154.2110 C   0  0  0  0  0  2  0  0  0  0  0  0
  162.2260  206.7890  145.5210 F   0  0  0  0  0  0  0  0  0  0  0  0
  161.1380  204.1880  149.4470 C   0  0  0  0  0  0  0  0  0  0  0  0
  161.5700  203.2210  145.9010 C   0  0  0  0  0  3  0  0  0  0  0  0
  161.6910  205.5290  147.5160 C   0  0  0  0  0  0  0  0  0  0  0  0
  161.1810  205.2880  150.2680 C   0  0  0  0  0  0  0  0  0  0  0  0
  160.2130  202.8320  152.3310 O   0  0  0  0  0  0  0  0  0  0  0  0
  160.8470  204.8970  151.5240 N   0  0  0  0  0  0  0  0  0  0  0  0
  160.9850  206.2320  155.0000 C   0  0  0  0  0  2  0  0  0  0  0  0
  163.2750  206.7580  152.3180 C   0  0  0  0  0  1  0  0  0  0  0  0
  161.3280  203.1210  147.2720 C   0  0  0  0  0  3  0  0  0  0  0  0
  161.3890  204.2620  148.0800 C   0  0  0  0  0  0  0  0  0  0  0  0
  162.0270  207.5850  152.0180 C   0  0  2  0  0  3  0  0  0  0  0  0
  162.6310  210.2780  147.9180 C   0  0  0  0  0  2  0  0  0  0  0  0
  162.6600  212.7240  148.0050 C   0  0  0  0  0  2  0  0  0  0  0  0
  161.9450  211.6030  148.0150 C   0  0  0  0  0  3  0  0  0  0  0  0
  1  4  1  0  0  0  0
  2 19  1  0  0  0  0
  3 10  1  0  0  0  0
  4 20  2  0  0  0  0
  4 12  1  0  0  0  0
  5  1  1  0  0  0  0
  5 11  1  0  0  0  0
  7 15  1  1  0  0  0
  8 12  1  0  0  0  0
  8  6  2  0  0  0  0
  9  7  1  0  0  0  0
  9 14  1  1  0  0  0
 10 22  1  0  0  0  0
 10 21  2  0  0  0  0
 11 28  1  6  0  0  0
 11  8  1  0  0  0  0
 12 27  1  0  0  0  0
 13 18  1  0  0  0  0
 13  2  2  0  0  0  0
 14 23  1  0  0  0  0
 15 23  1  0  0  0  0
 16  2  1  0  0  0  0
 17  3  1  0  0  0  0
 17 20  1  0  0  0  0
 18 25  2  0  0  0  0
 19 26  1  0  0  0  0
 19  1  2  0  0  0  0
 20 22  1  0  0  0  0
 22  9  1  0  0  0  0
 25 26  1  0  0  0  0
 26 17  2  0  0  0  0
 27 24  1  6  0  0  0
 27  7  1  0  0  0  0
 28 30  1  0  0  0  0
 29 30  2  0  0  0  0
M  END
>  <MODEL>
5

>  <REMARK>
 VINA RESULT:      -5.6      2.058      5.419
  Name = 
  2 active torsions:
  status: ('A' for Active; 'I' for Inactive)
    1  A    between atoms: C_11  and  C_28
    2  A    between atoms: C_28  and  C_30
                            x       y       z     vdW  Elec       q    Type
                         _______ _______ _______ _____ _____    ______ ____

>  <TORSDO>
F 2

$$$$
=
 OpenBabel11122412403D

 30 35  0  0  1  0  0  0  0  0999 V2000
  161.2780  203.8480  147.6310 C   0  0  0  0  0  0  0  0  0  0  0  0
  161.1110  204.0440  145.1640 C   0  0  0  0  0  0  0  0  0  0  0  0
  161.3390  207.9360  148.0870 N   0  0  0  0  0  2  0  0  0  0  0  0
  161.3270  204.4640  148.9090 C   0  0  0  0  0  0  0  0  0  0  0  0
  161.2820  202.4510  147.5470 O   0  0  0  0  0  0  0  0  0  0  0  0
  161.3340  201.4690  150.9760 O   0  0  0  0  0  0  0  0  0  0  0  0
  161.8980  205.0710  151.9350 C   0  0  1  0  0  3  0  0  0  0  0  0
  161.3860  202.2070  149.9550 C   0  0  0  0  0  0  0  0  0  0  0  0
  161.8940  206.5010  151.4150 C   0  0  2  0  0  3  0  0  0  0  0  0
  161.4810  207.9510  149.4300 C   0  0  0  0  0  0  0  0  0  0  0  0
  161.7160  201.6110  148.6150 C   0  0  1  0  0  3  0  0  0  0  0  0
  161.2180  203.6290  150.0790 N   0  0  0  0  0  0  0  0  0  0  0  0
  161.0260  204.8520  144.0260 C   0  0  0  0  0  3  0  0  0  0  0  0
  161.0450  207.2870  152.3910 C   0  0  0  0  0  2  0  0  0  0  0  0
  161.7210  205.1930  153.4410 C   0  0  0  0  0  2  0  0  0  0  0  0
  161.1120  202.6980  144.9960 F   0  0  0  0  0  0  0  0  0  0  0  0
  161.2780  206.6220  147.8110 C   0  0  0  0  0  0  0  0  0  0  0  0
  161.0200  206.2420  144.1400 C   0  0  0  0  0  3  0  0  0  0  0  0
  161.1910  204.6310  146.4470 C   0  0  0  0  0  0  0  0  0  0  0  0
  161.3670  205.8740  148.9600 C   0  0  0  0  0  0  0  0  0  0  0  0
  161.6290  209.0240  150.0750 O   0  0  0  0  0  0  0  0  0  0  0  0
  161.4930  206.7220  150.0130 N   0  0  0  0  0  0  0  0  0  0  0  0
  161.2720  206.6170  153.7310 C   0  0  0  0  0  2  0  0  0  0  0  0
  159.4070  204.7490  151.3340 C   0  0  0  0  0  1  0  0  0  0  0  0
  161.1000  206.8400  145.3980 C   0  0  0  0  0  3  0  0  0  0  0  0
  161.1830  206.0470  146.5480 C   0  0  0  0  0  0  0  0  0  0  0  0
  160.8150  204.1610  151.3710 C   0  0  2  0  0  3  0  0  0  0  0  0
  161.1580  200.2000  148.4360 C   0  0  0  0  0  2  0  0  0  0  0  0
  161.0270  199.6090  146.0640 C   0  0  0  0  0  2  0  0  0  0  0  0
  161.7000  199.5400  147.2090 C   0  0  0  0  0  3  0  0  0  0  0  0
  1  4  1  0  0  0  0
  2 19  1  0  0  0  0
  3 10  1  0  0  0  0
  4 20  2  0  0  0  0
  4 12  1  0  0  0  0
  5  1  1  0  0  0  0
  5 11  1  0  0  0  0
  7 15  1  1  0  0  0
  8 12  1  0  0  0  0
  8  6  2  0  0  0  0
  9  7  1  0  0  0  0
  9 14  1  1  0  0  0
 10 22  1  0  0  0  0
 10 21  2  0  0  0  0
 11 28  1  6  0  0  0
 11  8  1  0  0  0  0
 12 27  1  0  0  0  0
 13 18  1  0  0  0  0
 13  2  2  0  0  0  0
 14 23  1  0  0  0  0
 15 23  1  0  0  0  0
 16  2  1  0  0  0  0
 17  3  1  0  0  0  0
 17 20  1  0  0  0  0
 18 25  2  0  0  0  0
 19 26  1  0  0  0  0
 19  1  2  0  0  0  0
 20 22  1  0  0  0  0
 22  9  1  0  0  0  0
 25 26  1  0  0  0  0
 26 17  2  0  0  0  0
 27 24  1  6  0  0  0
 27  7  1  0  0  0  0
 29 30  2  0  0  0  0
 30 28  1  0  0  0  0
M  END
>  <MODEL>
6

>  <REMARK>
 VINA RESULT:      -5.5      3.056      7.822
  Name = 
  2 active torsions:
  status: ('A' for Active; 'I' for Inactive)
    1  A    between atoms: C_11  and  C_28
    2  A    between atoms: C_28  and  C_30
                            x       y       z     vdW  Elec       q    Type
                         _______ _______ _______ _____ _____    ______ ____

>  <TORSDO>
F 2

$$$$
=
 OpenBabel11122412403D

 30 35  0  0  1  0  0  0  0  0999 V2000
  160.8300  210.7840  151.6750 C   0  0  0  0  0  0  0  0  0  0  0  0
  159.8440  212.8690  152.5900 C   0  0  0  0  0  0  0  0  0  0  0  0
  159.9600  208.7040  155.1170 N   0  0  0  0  0  2  0  0  0  0  0  0
  161.1180  209.4010  151.8150 C   0  0  0  0  0  0  0  0  0  0  0  0
  161.1730  211.4350  150.4860 O   0  0  0  0  0  0  0  0  0  0  0  0
  162.5630  208.7950  148.5300 O   0  0  0  0  0  0  0  0  0  0  0  0
  162.4380  206.5640  151.5660 C   0  0  1  0  0  3  0  0  0  0  0  0
  162.0940  209.4110  149.5260 C   0  0  0  0  0  0  0  0  0  0  0  0
  161.8960  206.4380  152.9820 C   0  0  2  0  0  3  0  0  0  0  0  0
  160.5110  207.5290  154.7440 C   0  0  0  0  0  0  0  0  0  0  0  0
  162.1260  210.9130  149.5620 C   0  0  1  0  0  3  0  0  0  0  0  0
  161.6080  208.6820  150.6660 N   0  0  0  0  0  0  0  0  0  0  0  0
  159.1950  213.5330  153.6340 C   0  0  0  0  0  3  0  0  0  0  0  0
  161.2250  205.0810  153.0410 C   0  0  0  0  0  2  0  0  0  0  0  0
  162.7220  205.1390  151.1180 C   0  0  0  0  0  2  0  0  0  0  0  0
  160.1450  213.5740  151.4700 F   0  0  0  0  0  0  0  0  0  0  0  0
  160.1600  209.4790  154.0380 C   0  0  0  0  0  0  0  0  0  0  0  0
  158.8630  212.8580  154.8080 C   0  0  0  0  0  3  0  0  0  0  0  0
  160.1710  211.4990  152.7130 C   0  0  0  0  0  0  0  0  0  0  0  0
  160.8020  208.7820  153.0440 C   0  0  0  0  0  0  0  0  0  0  0  0
  160.5690  206.5410  155.5240 O   0  0  0  0  0  0  0  0  0  0  0  0
  161.0280  207.5190  153.4850 N   0  0  0  0  0  0  0  0  0  0  0  0
  162.0320  204.2070  152.1030 C   0  0  0  0  0  2  0  0  0  0  0  0
  160.0610  206.7560  150.5750 C   0  0  0  0  0  1  0  0  0  0  0  0
  159.1770  211.5060  154.9500 C   0  0  0  0  0  3  0  0  0  0  0  0
  159.8250  210.8240  153.9130 C   0  0  0  0  0  0  0  0  0  0  0  0
  161.5100  207.2340  150.5620 C   0  0  2  0  0  3  0  0  0  0  0  0
  161.9310  211.5480  148.1860 C   0  0  0  0  0  2  0  0  0  0  0  0
  162.6260  213.8780  147.9050 C   0  0  0  0  0  2  0  0  0  0  0  0
  161.6840  213.0190  148.2820 C   0  0  0  0  0  3  0  0  0  0  0  0
  1  4  2  0  0  0  0
  1 19  1  0  0  0  0
  2 19  2  0  0  0  0
  2 13  1  0  0  0  0
  4 20  1  0  0  0  0
  5  1  1  0  0  0  0
  6  8  2  0  0  0  0
  7 15  1  6  0  0  0
  7  9  1  0  0  0  0
  8 11  1  0  0  0  0
  8 12  1  0  0  0  0
  9 14  1  6  0  0  0
  9 22  1  0  0  0  0
 10  3  1  0  0  0  0
 10 21  2  0  0  0  0
 11 28  1  6  0  0  0
 11  5  1  0  0  0  0
 12  4  1  0  0  0  0
 13 18  2  0  0  0  0
 15 23  1  0  0  0  0
 16  2  1  0  0  0  0
 17  3  1  0  0  0  0
 18 25  1  0  0  0  0
 19 26  1  0  0  0  0
 20 22  1  0  0  0  0
 20 17  2  0  0  0  0
 22 10  1  0  0  0  0
 23 14  1  0  0  0  0
 26 17  1  0  0  0  0
 26 25  2  0  0  0  0
 27 24  1  1  0  0  0
 27 12  1  0  0  0  0
 27  7  1  0  0  0  0
 28 30  1  0  0  0  0
 29 30  2  0  0  0  0
M  END
>  <MODEL>
7

>  <REMARK>
 VINA RESULT:      -5.5      2.301      3.321
  Name = 
  2 active torsions:
  status: ('A' for Active; 'I' for Inactive)
    1  A    between atoms: C_11  and  C_28
    2  A    between atoms: C_28  and  C_30
                            x       y       z     vdW  Elec       q    Type
                         _______ _______ _______ _____ _____    ______ ____

>  <TORSDO>
F 2

$$$$
