=
 OpenBabel11122414263D

 34 41  0  0  1  0  0  0  0  0999 V2000
  159.8230  209.9330  154.8340 C   0  0  0  0  0  0  0  0  0  0  0  0
  160.5170  207.5510  155.3720 C   0  0  0  0  0  2  0  0  0  0  0  0
  158.4270  214.2720  150.1410 C   0  0  1  0  0  3  0  0  0  0  0  0
  159.0330  212.1670  154.1780 C   0  0  2  0  0  3  0  0  0  0  0  0
  159.8650  212.9100  151.9560 C   0  0  2  0  0  3  0  0  0  0  0  0
  160.9730  214.4530  150.1670 C   0  0  0  0  0  1  0  0  0  0  0  0
  159.0530  213.1050  149.6460 O   0  0  0  0  0  0  0  0  0  0  0  0
  157.0380  214.3790  152.3010 C   0  0  0  0  0  2  0  0  0  0  0  0
  161.3820  208.6110  153.3630 C   0  0  2  0  0  3  0  0  0  0  0  0
  161.8040  206.5580  150.9460 C   0  0  0  0  0  2  0  0  0  0  0  0
  160.5320  211.6140  151.7020 N   0  0  0  0  0  2  0  0  0  0  0  0
  158.1800  214.1680  153.1060 O   0  0  0  0  0  0  0  0  0  0  0  0
  160.5770  209.1250  152.1470 C   0  0  1  0  0  3  0  0  0  0  0  0
  161.4150  206.5440  154.6800 C   0  0  0  0  0  2  0  0  0  0  0  0
  158.6330  212.8610  152.8830 C   0  0  2  0  0  3  0  0  0  0  0  0
  157.1480  213.8450  150.8580 C   0  0  0  0  0  2  0  0  0  0  0  0
  161.0510  206.4270  152.2040 N   0  0  0  0  0  0  0  0  0  0  0  0
  159.6170  210.8190  153.8480 C   0  0  0  0  0  0  0  0  0  0  0  0
  159.7260  213.7680  150.6860 C   0  0  2  0  0  0  0  0  0  0  0  0
  159.8860  210.4880  152.3930 C   0  0  1  0  0  3  0  0  0  0  0  0
  158.3490  211.1770  156.3450 C   0  0  0  0  0  3  0  0  0  0  0  0
  162.3580  207.9650  150.6900 C   0  0  0  0  0  2  0  0  0  0  0  0
  157.8810  212.0030  155.1720 C   0  0  0  0  0  2  0  0  0  0  0  0
  161.2980  209.0590  150.7900 C   0  0  0  0  0  2  0  0  0  0  0  0
  161.7650  207.1180  153.2980 C   0  0  1  0  0  3  0  0  0  0  0  0
  159.2400  210.1890  156.1730 C   0  0  0  0  0  3  0  0  0  0  0  0
  160.5790  208.7480  154.5640 N   0  0  0  0  0  0  0  0  0  0  0  0
  161.0060  205.0970  152.4710 O   0  0  0  0  0  0  0  0  0  0  0  0
  161.6410  204.4890  151.3800 C   0  0  0  0  0  2  0  0  0  0  0  0
  161.1470  202.3010  148.6060 C   0  0  0  0  0  2  0  0  0  0  0  0
  160.9130  202.1190  150.9910 C   0  0  0  0  0  2  0  0  0  0  0  0
  160.6820  203.5740  150.6300 C   0  0  0  0  0  3  0  0  0  0  0  0
  160.7200  201.3520  149.7040 C   0  0  0  0  0  2  0  0  0  0  0  0
  160.8580  203.6970  149.1240 C   0  0  0  0  0  2  0  0  0  0  0  0
  1 26  1  0  0  0  0
  3 19  1  0  0  0  0
  3 16  1  1  0  0  0
  4 23  1  1  0  0  0
  5 11  1  6  0  0  0
  5 15  1  0  0  0  0
  7  3  1  0  0  0  0
  7 19  1  0  0  0  0
  8 12  1  0  0  0  0
  9 27  1  1  0  0  0
 10 17  1  0  0  0  0
 13 24  1  6  0  0  0
 13 20  1  0  0  0  0
 13  9  1  0  0  0  0
 14  2  1  0  0  0  0
 15 12  1  1  0  0  0
 15  4  1  0  0  0  0
 16  8  1  0  0  0  0
 17 28  1  0  0  0  0
 17 25  1  0  0  0  0
 18  4  1  0  0  0  0
 18  1  2  0  0  0  0
 19  6  1  6  0  0  0
 19  5  1  0  0  0  0
 20 11  1  1  0  0  0
 20 18  1  0  0  0  0
 22 24  1  0  0  0  0
 22 10  1  0  0  0  0
 23 21  1  0  0  0  0
 25  9  1  0  0  0  0
 25 14  1  1  0  0  0
 26 21  2  0  0  0  0
 27  1  1  0  0  0  0
 27  2  1  0  0  0  0
 29 28  1  0  0  0  0
 30 34  1  0  0  0  0
 30 33  1  0  0  0  0
 32 31  1  0  0  0  0
 32 29  1  0  0  0  0
 33 31  1  0  0  0  0
 34 32  1  0  0  0  0
M  END
>  <MODEL>
1

>  <REMARK>
 VINA RESULT:      -8.7      0.000      0.000
  Name = 
  3 active torsions:
  status: ('A' for Active; 'I' for Inactive)
    1  A    between atoms: N_17  and  O_28
    2  A    between atoms: O_28  and  C_29
    3  A    between atoms: C_29  and  C_32
                            x       y       z     vdW  Elec       q    Type
                         _______ _______ _______ _____ _____    ______ ____

>  <TORSDO>
F 3

$$$$
=
 OpenBabel11122414263D

 34 41  0  0  1  0  0  0  0  0999 V2000
  161.2830  207.9580  152.2670 C   0  0  0  0  0  0  0  0  0  0  0  0
  161.2230  205.4230  152.3920 C   0  0  0  0  0  2  0  0  0  0  0  0
  160.7310  213.2380  148.4430 C   0  0  1  0  0  3  0  0  0  0  0  0
  161.1860  210.4040  152.0290 C   0  0  2  0  0  3  0  0  0  0  0  0
  161.8870  211.2190  149.7870 C   0  0  2  0  0  3  0  0  0  0  0  0
  163.1710  212.6270  148.0050 C   0  0  0  0  0  1  0  0  0  0  0  0
  160.8610  212.0360  147.7100 O   0  0  0  0  0  0  0  0  0  0  0  0
  159.7820  213.4000  150.8260 C   0  0  0  0  0  2  0  0  0  0  0  0
  162.0910  206.4900  150.3870 C   0  0  2  0  0  3  0  0  0  0  0  0
  161.4600  204.8420  147.7190 C   0  0  0  0  0  2  0  0  0  0  0  0
  162.0460  209.8430  149.2660 N   0  0  0  0  0  2  0  0  0  0  0  0
  160.8950  212.7190  151.3710 O   0  0  0  0  0  0  0  0  0  0  0  0
  161.3330  207.4210  149.4120 C   0  0  1  0  0  3  0  0  0  0  0  0
  161.6310  204.3210  151.4330 C   0  0  0  0  0  2  0  0  0  0  0  0
  160.8550  211.3930  150.9200 C   0  0  2  0  0  3  0  0  0  0  0  0
  159.5010  213.1070  149.3380 C   0  0  0  0  0  2  0  0  0  0  0  0
  160.8960  204.7380  149.0740 N   0  0  0  0  0  0  0  0  0  0  0  0
  161.2400  209.0170  151.4440 C   0  0  0  0  0  0  0  0  0  0  0  0
  161.8570  212.2780  148.6710 C   0  0  2  0  0  0  0  0  0  0  0  0
  161.1720  208.8680  149.9370 C   0  0  1  0  0  3  0  0  0  0  0  0
  160.5340  209.3200  154.1610 C   0  0  0  0  0  3  0  0  0  0  0  0
  162.4030  206.0340  147.5210 C   0  0  0  0  0  2  0  0  0  0  0  0
  160.2000  210.4340  153.1990 C   0  0  0  0  0  2  0  0  0  0  0  0
  161.7890  207.3660  147.9440 C   0  0  0  0  0  2  0  0  0  0  0  0
  161.9480  204.9840  150.0830 C   0  0  1  0  0  3  0  0  0  0  0  0
  161.0160  208.1510  153.7120 C   0  0  0  0  0  3  0  0  0  0  0  0
  161.5590  206.6620  151.7270 N   0  0  0  0  0  0  0  0  0  0  0  0
  160.4550  203.4600  149.1930 O   0  0  0  0  0  0  0  0  0  0  0  0
  161.3520  202.6960  148.4360 C   0  0  0  0  0  2  0  0  0  0  0  0
  160.8120  200.6570  145.5580 C   0  0  0  0  0  2  0  0  0  0  0  0
  161.6140  200.2850  147.7920 C   0  0  0  0  0  2  0  0  0  0  0  0
  160.6670  201.4680  147.8500 C   0  0  0  0  0  3  0  0  0  0  0  0
  161.2880  199.5740  146.5000 C   0  0  0  0  0  2  0  0  0  0  0  0
  160.1800  201.7240  146.4330 C   0  0  0  0  0  2  0  0  0  0  0  0
  1 26  1  0  0  0  0
  3 19  1  0  0  0  0
  3 16  1  1  0  0  0
  4 23  1  1  0  0  0
  5 11  1  6  0  0  0
  5 15  1  0  0  0  0
  7  3  1  0  0  0  0
  7 19  1  0  0  0  0
  8 12  1  0  0  0  0
  9 27  1  1  0  0  0
 10 17  1  0  0  0  0
 13 24  1  6  0  0  0
 13 20  1  0  0  0  0
 13  9  1  0  0  0  0
 14  2  1  0  0  0  0
 15 12  1  1  0  0  0
 15  4  1  0  0  0  0
 16  8  1  0  0  0  0
 17 28  1  0  0  0  0
 17 25  1  0  0  0  0
 18  4  1  0  0  0  0
 18  1  2  0  0  0  0
 19  6  1  6  0  0  0
 19  5  1  0  0  0  0
 20 11  1  6  0  0  0
 20 18  1  0  0  0  0
 22 10  1  0  0  0  0
 22 24  1  0  0  0  0
 23 21  1  0  0  0  0
 25  9  1  0  0  0  0
 25 14  1  1  0  0  0
 26 21  2  0  0  0  0
 27  1  1  0  0  0  0
 27  2  1  0  0  0  0
 29 28  1  0  0  0  0
 30 34  1  0  0  0  0
 30 33  1  0  0  0  0
 31 32  1  0  0  0  0
 32 29  1  0  0  0  0
 33 31  1  0  0  0  0
 34 32  1  0  0  0  0
M  END
>  <MODEL>
2

>  <REMARK>
 VINA RESULT:      -7.8      2.197      3.493
  Name = 
  3 active torsions:
  status: ('A' for Active; 'I' for Inactive)
    1  A    between atoms: N_17  and  O_28
    2  A    between atoms: O_28  and  C_29
    3  A    between atoms: C_29  and  C_32
                            x       y       z     vdW  Elec       q    Type
                         _______ _______ _______ _____ _____    ______ ____

>  <TORSDO>
F 3

$$$$
=
 OpenBabel11122414263D

 34 41  0  0  1  0  0  0  0  0999 V2000
  161.0240  209.5140  152.9930 C   0  0  0  0  0  0  0  0  0  0  0  0
  161.4630  207.0300  153.2810 C   0  0  0  0  0  2  0  0  0  0  0  0
  159.6390  214.3520  148.8130 C   0  0  1  0  0  3  0  0  0  0  0  0
  160.4570  211.8730  152.5910 C   0  0  2  0  0  3  0  0  0  0  0  0
  161.1000  212.6860  150.3320 C   0  0  2  0  0  3  0  0  0  0  0  0
  162.1710  214.2210  148.5140 C   0  0  0  0  0  1  0  0  0  0  0  0
  160.0430  213.1620  148.1660 O   0  0  0  0  0  0  0  0  0  0  0  0
  158.5520  214.4530  151.1390 C   0  0  0  0  0  2  0  0  0  0  0  0
  162.2060  208.1360  151.2480 C   0  0  2  0  0  3  0  0  0  0  0  0
  162.0570  206.2470  148.6700 C   0  0  0  0  0  2  0  0  0  0  0  0
  161.5560  211.3430  149.9090 N   0  0  0  0  0  2  0  0  0  0  0  0
  159.7470  214.0410  151.7720 O   0  0  0  0  0  0  0  0  0  0  0  0
  161.3310  208.8390  150.1840 C   0  0  1  0  0  3  0  0  0  0  0  0
  162.1310  205.9810  152.4140 C   0  0  0  0  0  2  0  0  0  0  0  0
  159.9950  212.7110  151.4070 C   0  0  2  0  0  3  0  0  0  0  0  0
  158.4140  214.0260  149.6630 C   0  0  0  0  0  2  0  0  0  0  0  0
  161.4540  206.1080  150.0040 N   0  0  0  0  0  0  0  0  0  0  0  0
  160.8160  210.4950  152.1020 C   0  0  0  0  0  0  0  0  0  0  0  0
  160.9190  213.6530  149.1490 C   0  0  2  0  0  0  0  0  0  0  0  0
  160.8590  210.2510  150.6060 C   0  0  1  0  0  3  0  0  0  0  0  0
  159.9210  210.8020  154.7620 C   0  0  0  0  0  3  0  0  0  0  0  0
  162.7540  207.5930  148.4330 C   0  0  0  0  0  2  0  0  0  0  0  0
  159.4240  211.7690  153.7160 C   0  0  0  0  0  2  0  0  0  0  0  0
  161.8660  208.7950  148.7420 C   0  0  0  0  0  2  0  0  0  0  0  0
  162.3810  206.6180  151.0370 C   0  0  1  0  0  3  0  0  0  0  0  0
  160.6480  209.7300  154.4100 C   0  0  0  0  0  3  0  0  0  0  0  0
  161.5800  208.2720  152.5510 N   0  0  0  0  0  0  0  0  0  0  0  0
  161.2690  204.7760  150.1890 O   0  0  0  0  0  0  0  0  0  0  0  0
  161.1480  204.2470  148.8990 C   0  0  0  0  0  2  0  0  0  0  0  0
  161.4850  200.7200  148.4770 C   0  0  0  0  0  2  0  0  0  0  0  0
  160.7240  202.1670  150.2380 C   0  0  0  0  0  2  0  0  0  0  0  0
  160.4650  202.8850  148.9270 C   0  0  0  0  0  3  0  0  0  0  0  0
  160.8960  200.7120  149.8700 C   0  0  0  0  0  2  0  0  0  0  0  0
  160.9710  201.9840  147.8130 C   0  0  0  0  0  2  0  0  0  0  0  0
  1 26  1  0  0  0  0
  3 19  1  0  0  0  0
  3 16  1  1  0  0  0
  4 23  1  1  0  0  0
  5 11  1  6  0  0  0
  5 15  1  0  0  0  0
  7  3  1  0  0  0  0
  7 19  1  0  0  0  0
  8 12  1  0  0  0  0
  9 27  1  1  0  0  0
 10 17  1  0  0  0  0
 13 24  1  6  0  0  0
 13 20  1  0  0  0  0
 13  9  1  0  0  0  0
 14  2  1  0  0  0  0
 15 12  1  1  0  0  0
 15  4  1  0  0  0  0
 16  8  1  0  0  0  0
 17 28  1  0  0  0  0
 17 25  1  0  0  0  0
 18  4  1  0  0  0  0
 18  1  2  0  0  0  0
 19  6  1  6  0  0  0
 19  5  1  0  0  0  0
 20 11  1  6  0  0  0
 20 18  1  0  0  0  0
 22 10  1  0  0  0  0
 22 24  1  0  0  0  0
 23 21  1  0  0  0  0
 25  9  1  0  0  0  0
 25 14  1  1  0  0  0
 26 21  2  0  0  0  0
 27  1  1  0  0  0  0
 27  2  1  0  0  0  0
 29 32  1  0  0  0  0
 29 28  1  0  0  0  0
 30 33  1  0  0  0  0
 32 31  1  0  0  0  0
 33 31  1  0  0  0  0
 34 30  1  0  0  0  0
 34 32  1  0  0  0  0
M  END
>  <MODEL>
3

>  <REMARK>
 VINA RESULT:      -7.7      1.471      2.085
  Name = 
  3 active torsions:
  status: ('A' for Active; 'I' for Inactive)
    1  A    between atoms: N_17  and  O_28
    2  A    between atoms: O_28  and  C_29
    3  A    between atoms: C_29  and  C_32
                            x       y       z     vdW  Elec       q    Type
                         _______ _______ _______ _____ _____    ______ ____

>  <TORSDO>
F 3

$$$$
=
 OpenBabel11122414263D

 34 41  0  0  1  0  0  0  0  0999 V2000
  161.7050  207.9820  150.0040 C   0  0  0  0  0  0  0  0  0  0  0  0
  161.4300  210.2840  151.0380 C   0  0  0  0  0  2  0  0  0  0  0  0
  160.6050  201.5630  150.6270 C   0  0  1  0  0  3  0  0  0  0  0  0
  161.7910  205.7140  149.0580 C   0  0  2  0  0  3  0  0  0  0  0  0
  161.8910  203.9170  150.7740 C   0  0  2  0  0  3  0  0  0  0  0  0
  162.7390  201.7830  152.0110 C   0  0  0  0  0  1  0  0  0  0  0  0
  160.3960  202.2790  151.8280 O   0  0  0  0  0  0  0  0  0  0  0  0
  160.4070  202.5720  148.2720 C   0  0  0  0  0  2  0  0  0  0  0  0
  161.7830  208.3680  152.4910 C   0  0  2  0  0  3  0  0  0  0  0  0
  160.2450  208.6150  155.2850 C   0  0  0  0  0  2  0  0  0  0  0  0
  161.7530  204.8840  151.8860 N   0  0  0  0  0  2  0  0  0  0  0  0
  161.5550  203.3750  148.4640 O   0  0  0  0  0  0  0  0  0  0  0  0
  160.8730  207.1280  152.6530 C   0  0  1  0  0  3  0  0  0  0  0  0
  161.4300  210.7930  152.4660 C   0  0  0  0  0  2  0  0  0  0  0  0
  161.2530  204.3400  149.4340 C   0  0  2  0  0  3  0  0  0  0  0  0
  159.6800  202.1540  149.5660 C   0  0  0  0  0  2  0  0  0  0  0  0
  160.0890  209.3630  154.0280 N   0  0  0  0  0  0  0  0  0  0  0  0
  161.5330  206.6650  150.1960 C   0  0  0  0  0  0  0  0  0  0  0  0
  161.6460  202.4640  151.2150 C   0  0  2  0  0  0  0  0  0  0  0  0
  161.0170  206.1000  151.5050 C   0  0  1  0  0  3  0  0  0  0  0  0
  161.6780  207.6930  147.5700 C   0  0  0  0  0  3  0  0  0  0  0  0
  161.2050  207.4240  155.1910 C   0  0  0  0  0  2  0  0  0  0  0  0
  161.1930  206.2780  147.7670 C   0  0  0  0  0  2  0  0  0  0  0  0
  160.8770  206.4710  154.0440 C   0  0  0  0  0  2  0  0  0  0  0  0
  161.4070  209.5640  153.3890 C   0  0  1  0  0  3  0  0  0  0  0  0
  161.8880  208.4960  148.6250 C   0  0  0  0  0  3  0  0  0  0  0  0
  161.6810  208.8640  151.1310 N   0  0  0  0  0  0  0  0  0  0  0  0
  159.5750  210.5700  154.3780 O   0  0  0  0  0  0  0  0  0  0  0  0
  158.9380  210.3480  155.6050 C   0  0  0  0  0  2  0  0  0  0  0  0
  157.0740  213.1040  154.3150 C   0  0  0  0  0  2  0  0  0  0  0  0
  156.5280  210.9860  155.3100 C   0  0  0  0  0  2  0  0  0  0  0  0
  157.8740  211.4070  155.8680 C   0  0  0  0  0  3  0  0  0  0  0  0
  155.9080  212.2500  154.7630 C   0  0  0  0  0  2  0  0  0  0  0  0
  158.2350  212.7330  155.2190 C   0  0  0  0  0  2  0  0  0  0  0  0
  1 18  2  0  0  0  0
  1 27  1  0  0  0  0
  2 27  1  0  0  0  0
  2 14  1  0  0  0  0
  3 16  1  6  0  0  0
  3 19  1  0  0  0  0
  3  7  1  0  0  0  0
  4 23  1  6  0  0  0
  4 15  1  0  0  0  0
  4 18  1  0  0  0  0
  5 19  1  0  0  0  0
  5 11  1  1  0  0  0
  8 12  1  0  0  0  0
  8 16  1  0  0  0  0
  9 27  1  6  0  0  0
  9 13  1  0  0  0  0
  9 25  1  0  0  0  0
 13 24  1  1  0  0  0
 15 12  1  6  0  0  0
 15  5  1  0  0  0  0
 17 28  1  0  0  0  0
 17 10  1  0  0  0  0
 19  7  1  0  0  0  0
 19  6  1  1  0  0  0
 20 18  1  6  0  0  0
 20 11  1  0  0  0  0
 20 13  1  0  0  0  0
 21 23  1  0  0  0  0
 21 26  2  0  0  0  0
 22 10  1  0  0  0  0
 24 22  1  0  0  0  0
 25 14  1  6  0  0  0
 25 17  1  0  0  0  0
 26  1  1  0  0  0  0
 28 29  1  0  0  0  0
 29 32  1  0  0  0  0
 30 33  1  0  0  0  0
 30 34  1  0  0  0  0
 31 32  1  0  0  0  0
 33 31  1  0  0  0  0
 34 32  1  0  0  0  0
M  END
>  <MODEL>
4

>  <REMARK>
 VINA RESULT:      -7.2      2.278      8.781
  Name = 
  3 active torsions:
  status: ('A' for Active; 'I' for Inactive)
    1  A    between atoms: N_17  and  O_28
    2  A    between atoms: O_28  and  C_29
    3  A    between atoms: C_29  and  C_32
                            x       y       z     vdW  Elec       q    Type
                         _______ _______ _______ _____ _____    ______ ____

>  <TORSDO>
F 3

$$$$
=
 OpenBabel11122414263D

 34 41  0  0  1  0  0  0  0  0999 V2000
  160.8910  204.8930  151.7020 C   0  0  0  0  0  0  0  0  0  0  0  0
  161.0080  206.0380  153.9650 C   0  0  0  0  0  2  0  0  0  0  0  0
  162.2800  205.2820  145.3210 C   0  0  1  0  0  3  0  0  0  0  0  0
  160.9580  203.8450  149.4780 C   0  0  2  0  0  3  0  0  0  0  0  0
  160.8740  205.4740  147.6020 C   0  0  2  0  0  3  0  0  0  0  0  0
  160.0810  206.5780  145.3750 C   0  0  0  0  0  1  0  0  0  0  0  0
  162.4030  206.5210  145.9900 O   0  0  0  0  0  0  0  0  0  0  0  0
  162.5270  202.9840  146.4450 C   0  0  0  0  0  2  0  0  0  0  0  0
  160.6890  207.3890  151.9690 C   0  0  2  0  0  3  0  0  0  0  0  0
  162.0940  210.2560  152.1600 C   0  0  0  0  0  2  0  0  0  0  0  0
  160.9170  206.6330  148.5220 N   0  0  0  0  0  2  0  0  0  0  0  0
  161.3330  203.1600  147.1830 O   0  0  0  0  0  0  0  0  0  0  0  0
  161.6520  207.5360  150.7670 C   0  0  1  0  0  3  0  0  0  0  0  0
  160.9230  207.4860  154.4070 C   0  0  0  0  0  2  0  0  0  0  0  0
  161.5460  204.1840  148.1150 C   0  0  2  0  0  3  0  0  0  0  0  0
  163.2190  204.2900  146.0030 C   0  0  0  0  0  2  0  0  0  0  0  0
  162.2660  209.0420  152.9720 N   0  0  0  0  0  0  0  0  0  0  0  0
  161.1200  205.0340  150.3880 C   0  0  0  0  0  0  0  0  0  0  0  0
  161.1720  205.8620  146.1430 C   0  0  2  0  0  0  0  0  0  0  0  0
  161.6070  206.3390  149.7880 C   0  0  1  0  0  3  0  0  0  0  0  0
  161.0360  202.4530  151.5270 C   0  0  0  0  0  3  0  0  0  0  0  0
  161.1990  210.0680  150.9300 C   0  0  0  0  0  2  0  0  0  0  0  0
  161.5810  202.6080  150.1290 C   0  0  0  0  0  2  0  0  0  0  0  0
  161.6220  208.8960  150.0480 C   0  0  0  0  0  2  0  0  0  0  0  0
  160.9670  208.3540  153.1390 C   0  0  1  0  0  3  0  0  0  0  0  0
  160.7410  203.5310  152.2690 C   0  0  0  0  0  3  0  0  0  0  0  0
  160.8240  206.0570  152.5310 N   0  0  0  0  0  0  0  0  0  0  0  0
  162.7040  209.4660  154.1840 O   0  0  0  0  0  0  0  0  0  0  0  0
  162.2970  210.8040  154.2660 C   0  0  0  0  0  2  0  0  0  0  0  0
  159.3850  210.2780  156.2600 C   0  0  0  0  0  2  0  0  0  0  0  0
  161.7430  209.9190  156.5490 C   0  0  0  0  0  2  0  0  0  0  0  0
  161.5840  211.0780  155.5840 C   0  0  0  0  0  3  0  0  0  0  0  0
  160.4150  209.8040  157.2610 C   0  0  0  0  0  2  0  0  0  0  0  0
  160.0920  211.2890  155.3780 C   0  0  0  0  0  2  0  0  0  0  0  0
  1 26  1  0  0  0  0
  1 27  1  0  0  0  0
  2 14  1  0  0  0  0
  3  7  1  0  0  0  0
  3 16  1  1  0  0  0
  3 19  1  0  0  0  0
  4 23  1  1  0  0  0
  4 18  1  0  0  0  0
  5 15  1  0  0  0  0
  5 11  1  1  0  0  0
  7 19  1  0  0  0  0
  8 12  1  0  0  0  0
  9 27  1  1  0  0  0
  9 25  1  0  0  0  0
 10 17  1  0  0  0  0
 13 24  1  6  0  0  0
 13  9  1  0  0  0  0
 15 12  1  6  0  0  0
 15  4  1  0  0  0  0
 16  8  1  0  0  0  0
 17 25  1  0  0  0  0
 17 28  1  0  0  0  0
 18  1  2  0  0  0  0
 19  6  1  6  0  0  0
 19  5  1  0  0  0  0
 20 11  1  6  0  0  0
 20 18  1  0  0  0  0
 20 13  1  0  0  0  0
 21 26  2  0  0  0  0
 22 10  1  0  0  0  0
 23 21  1  0  0  0  0
 24 22  1  0  0  0  0
 25 14  1  1  0  0  0
 27  2  1  0  0  0  0
 28 29  1  0  0  0  0
 29 32  1  0  0  0  0
 30 33  1  0  0  0  0
 31 33  1  0  0  0  0
 32 31  1  0  0  0  0
 34 32  1  0  0  0  0
 34 30  1  0  0  0  0
M  END
>  <MODEL>
5

>  <REMARK>
 VINA RESULT:      -7.2      3.027      8.130
  Name = 
  3 active torsions:
  status: ('A' for Active; 'I' for Inactive)
    1  A    between atoms: N_17  and  O_28
    2  A    between atoms: O_28  and  C_29
    3  A    between atoms: C_29  and  C_32
                            x       y       z     vdW  Elec       q    Type
                         _______ _______ _______ _____ _____    ______ ____

>  <TORSDO>
F 3

$$$$
=
 OpenBabel11122414263D

 34 41  0  0  1  0  0  0  0  0999 V2000
  160.9500  207.9620  154.1330 C   0  0  0  0  0  0  0  0  0  0  0  0
  162.1430  206.3790  152.5460 C   0  0  0  0  0  2  0  0  0  0  0  0
  157.3680  213.4030  154.7280 C   0  0  1  0  0  3  0  0  0  0  0  0
  159.6490  209.5010  155.5420 C   0  0  2  0  0  3  0  0  0  0  0  0
  159.5360  211.8190  154.6510 C   0  0  2  0  0  3  0  0  0  0  0  0
  159.7060  214.4230  154.6200 C   0  0  0  0  0  1  0  0  0  0  0  0
  157.9560  213.2660  153.4500 O   0  0  0  0  0  0  0  0  0  0  0  0
  156.8130  211.4460  156.2990 C   0  0  0  0  0  2  0  0  0  0  0  0
  162.0870  208.7540  152.0300 C   0  0  2  0  0  3  0  0  0  0  0  0
  161.9550  209.3500  148.8900 C   0  0  0  0  0  2  0  0  0  0  0  0
  160.2640  211.4480  153.4170 N   0  0  0  0  0  2  0  0  0  0  0  0
  158.1820  211.1670  156.5170 O   0  0  0  0  0  0  0  0  0  0  0  0
  160.8420  209.6290  151.7570 C   0  0  1  0  0  3  0  0  0  0  0  0
  162.8900  206.5770  151.2410 C   0  0  0  0  0  2  0  0  0  0  0  0
  158.7240  210.6890  155.3160 C   0  0  2  0  0  3  0  0  0  0  0  0
  156.4980  212.1730  154.9760 C   0  0  0  0  0  2  0  0  0  0  0  0
  161.7140  208.1130  149.6480 N   0  0  0  0  0  0  0  0  0  0  0  0
  160.2820  209.1210  154.2290 C   0  0  0  0  0  0  0  0  0  0  0  0
  158.8360  213.1850  154.5410 C   0  0  2  0  0  0  0  0  0  0  0  0
  160.0780  210.0380  153.0390 C   0  0  1  0  0  3  0  0  0  0  0  0
  159.9170  207.1240  156.1910 C   0  0  0  0  0  3  0  0  0  0  0  0
  162.1640  210.5920  149.7650 C   0  0  0  0  0  2  0  0  0  0  0  0
  158.9510  208.2830  156.1510 C   0  0  0  0  0  2  0  0  0  0  0  0
  161.0500  210.8060  150.7870 C   0  0  0  0  0  2  0  0  0  0  0  0
  162.6480  208.0270  150.7910 C   0  0  1  0  0  3  0  0  0  0  0  0
  160.8340  206.9650  155.2240 C   0  0  0  0  0  3  0  0  0  0  0  0
  161.7380  207.7010  152.9670 N   0  0  0  0  0  0  0  0  0  0  0  0
  161.9680  207.0960  148.7870 O   0  0  0  0  0  0  0  0  0  0  0  0
  160.7100  206.5710  148.4670 C   0  0  0  0  0  2  0  0  0  0  0  0
  162.0950  205.7220  145.2910 C   0  0  0  0  0  2  0  0  0  0  0  0
  162.0910  204.7240  147.4760 C   0  0  0  0  0  2  0  0  0  0  0  0
  160.8150  205.5360  147.3540 C   0  0  0  0  0  3  0  0  0  0  0  0
  162.5640  204.5060  146.0580 C   0  0  0  0  0  2  0  0  0  0  0  0
  160.8290  206.1920  145.9820 C   0  0  0  0  0  2  0  0  0  0  0  0
  1 18  2  0  0  0  0
  1 26  1  0  0  0  0
  2 27  1  0  0  0  0
  3 16  1  1  0  0  0
  4 23  1  6  0  0  0
  5 11  1  6  0  0  0
  5 15  1  0  0  0  0
  7 19  1  0  0  0  0
  7  3  1  0  0  0  0
  8 12  1  0  0  0  0
  9 27  1  1  0  0  0
 10 17  1  0  0  0  0
 10 22  1  0  0  0  0
 13 24  1  1  0  0  0
 13  9  1  0  0  0  0
 13 20  1  0  0  0  0
 14  2  1  0  0  0  0
 15  4  1  0  0  0  0
 15 12  1  1  0  0  0
 16  8  1  0  0  0  0
 17 25  1  0  0  0  0
 18  4  1  0  0  0  0
 19  6  1  1  0  0  0
 19  5  1  0  0  0  0
 19  3  1  0  0  0  0
 20 11  1  1  0  0  0
 20 18  1  0  0  0  0
 22 24  1  0  0  0  0
 23 21  1  0  0  0  0
 25 14  1  1  0  0  0
 25  9  1  0  0  0  0
 26 21  2  0  0  0  0
 27  1  1  0  0  0  0
 28 17  1  0  0  0  0
 29 28  1  0  0  0  0
 30 34  1  0  0  0  0
 30 33  1  0  0  0  0
 32 31  1  0  0  0  0
 32 29  1  0  0  0  0
 33 31  1  0  0  0  0
 34 32  1  0  0  0  0
M  END
>  <MODEL>
6

>  <REMARK>
 VINA RESULT:      -7.1      2.468      3.596
  Name = 
  3 active torsions:
  status: ('A' for Active; 'I' for Inactive)
    1  A    between atoms: N_17  and  O_28
    2  A    between atoms: O_28  and  C_29
    3  A    between atoms: C_29  and  C_32
                            x       y       z     vdW  Elec       q    Type
                         _______ _______ _______ _____ _____    ______ ____

>  <TORSDO>
F 3

$$$$
=
 OpenBabel11122414263D

 34 41  0  0  1  0  0  0  0  0999 V2000
  161.9360  207.2250  148.9480 C   0  0  0  0  0  0  0  0  0  0  0  0
  161.8850  209.6730  149.6210 C   0  0  0  0  0  2  0  0  0  0  0  0
  160.2200  201.1090  150.5090 C   0  0  1  0  0  3  0  0  0  0  0  0
  161.8020  204.8430  148.3540 C   0  0  2  0  0  3  0  0  0  0  0  0
  161.7280  203.3240  150.3200 C   0  0  2  0  0  3  0  0  0  0  0  0
  162.3650  201.3280  151.8760 C   0  0  0  0  0  1  0  0  0  0  0  0
  160.0800  202.0140  151.5860 O   0  0  0  0  0  0  0  0  0  0  0  0
  160.1210  201.7660  148.0270 C   0  0  0  0  0  2  0  0  0  0  0  0
  162.0510  207.9720  151.3500 C   0  0  2  0  0  3  0  0  0  0  0  0
  160.5430  208.7830  154.0520 C   0  0  0  0  0  2  0  0  0  0  0  0
  161.6840  204.4550  151.2730 N   0  0  0  0  0  2  0  0  0  0  0  0
  161.3410  202.4740  148.1130 O   0  0  0  0  0  0  0  0  0  0  0  0
  161.0250  206.8630  151.6820 C   0  0  1  0  0  3  0  0  0  0  0  0
  161.9340  210.3880  150.9570 C   0  0  0  0  0  2  0  0  0  0  0  0
  161.1340  203.5990  148.9230 C   0  0  2  0  0  3  0  0  0  0  0  0
  159.3560  201.6180  149.3580 C   0  0  0  0  0  2  0  0  0  0  0  0
  160.4610  209.3450  152.6960 N   0  0  0  0  0  0  0  0  0  0  0  0
  161.6370  205.9750  149.3320 C   0  0  0  0  0  0  0  0  0  0  0  0
  161.3430  201.9830  150.9710 C   0  0  2  0  0  0  0  0  0  0  0  0
  161.0690  205.6650  150.7040 C   0  0  1  0  0  3  0  0  0  0  0  0
  161.8810  206.5780  146.5850 C   0  0  0  0  0  3  0  0  0  0  0  0
  161.3840  207.5040  154.1530 C   0  0  0  0  0  2  0  0  0  0  0  0
  161.2620  205.2610  146.9840 C   0  0  0  0  0  2  0  0  0  0  0  0
  160.9650  206.4260  153.1560 C   0  0  0  0  0  2  0  0  0  0  0  0
  161.7930  209.3200  152.0530 C   0  0  1  0  0  3  0  0  0  0  0  0
  162.1690  207.5060  147.5110 C   0  0  0  0  0  3  0  0  0  0  0  0
  161.9980  208.2650  149.9290 N   0  0  0  0  0  0  0  0  0  0  0  0
  160.0660  210.6340  152.8530 O   0  0  0  0  0  0  0  0  0  0  0  0
  160.2770  210.9120  154.2090 C   0  0  0  0  0  2  0  0  0  0  0  0
  156.7840  211.5040  154.6350 C   0  0  0  0  0  2  0  0  0  0  0  0
  158.6850  211.3560  156.0980 C   0  0  0  0  0  2  0  0  0  0  0  0
  159.1950  211.8360  154.7530 C   0  0  0  0  0  3  0  0  0  0  0  0
  157.1990  211.6290  156.0850 C   0  0  0  0  0  2  0  0  0  0  0  0
  157.9980  211.9040  153.8170 C   0  0  0  0  0  2  0  0  0  0  0  0
  1 18  2  0  0  0  0
  1 27  1  0  0  0  0
  2 27  1  0  0  0  0
  2 14  1  0  0  0  0
  3 16  1  6  0  0  0
  3 19  1  0  0  0  0
  3  7  1  0  0  0  0
  4 23  1  6  0  0  0
  4 15  1  0  0  0  0
  4 18  1  0  0  0  0
  5 19  1  0  0  0  0
  5 11  1  1  0  0  0
  8 12  1  0  0  0  0
  8 16  1  0  0  0  0
  9 27  1  6  0  0  0
  9 13  1  0  0  0  0
  9 25  1  0  0  0  0
 10 22  1  0  0  0  0
 13 24  1  1  0  0  0
 15 12  1  6  0  0  0
 15  5  1  0  0  0  0
 17 28  1  0  0  0  0
 17 10  1  0  0  0  0
 19  7  1  0  0  0  0
 19  6  1  1  0  0  0
 20 18  1  6  0  0  0
 20 11  1  0  0  0  0
 20 13  1  0  0  0  0
 21 23  1  0  0  0  0
 21 26  2  0  0  0  0
 24 22  1  0  0  0  0
 25 14  1  6  0  0  0
 25 17  1  0  0  0  0
 26  1  1  0  0  0  0
 28 29  1  0  0  0  0
 29 32  1  0  0  0  0
 30 33  1  0  0  0  0
 32 31  1  0  0  0  0
 33 31  1  0  0  0  0
 34 30  1  0  0  0  0
 34 32  1  0  0  0  0
M  END
>  <MODEL>
7

>  <REMARK>
 VINA RESULT:      -7.0      2.256      9.076
  Name = 
  3 active torsions:
  status: ('A' for Active; 'I' for Inactive)
    1  A    between atoms: N_17  and  O_28
    2  A    between atoms: O_28  and  C_29
    3  A    between atoms: C_29  and  C_32
                            x       y       z     vdW  Elec       q    Type
                         _______ _______ _______ _____ _____    ______ ____

>  <TORSDO>
F 3

$$$$
=
 OpenBabel11122414263D

 34 41  0  0  1  0  0  0  0  0999 V2000
  161.0370  208.0300  154.2290 C   0  0  0  0  0  0  0  0  0  0  0  0
  161.9100  205.7790  153.4410 C   0  0  0  0  0  2  0  0  0  0  0  0
  158.0550  213.6070  152.5540 C   0  0  1  0  0  3  0  0  0  0  0  0
  160.0350  210.1780  154.8820 C   0  0  2  0  0  3  0  0  0  0  0  0
  160.0480  211.8800  153.0700 C   0  0  2  0  0  3  0  0  0  0  0  0
  160.4550  214.1710  151.8890 C   0  0  0  0  0  1  0  0  0  0  0  0
  158.4940  212.8580  151.4380 O   0  0  0  0  0  0  0  0  0  0  0  0
  157.4850  212.6060  154.8510 C   0  0  0  0  0  2  0  0  0  0  0  0
  162.0220  207.6860  151.9370 C   0  0  2  0  0  3  0  0  0  0  0  0
  161.6260  206.8830  148.8660 C   0  0  0  0  0  2  0  0  0  0  0  0
  160.6080  210.9240  152.0890 N   0  0  0  0  0  2  0  0  0  0  0  0
  158.8370  212.2750  155.1000 O   0  0  0  0  0  0  0  0  0  0  0  0
  160.8420  208.5100  151.3710 C   0  0  1  0  0  3  0  0  0  0  0  0
  162.5340  205.2990  152.1460 C   0  0  0  0  0  2  0  0  0  0  0  0
  159.2060  211.2610  154.2050 C   0  0  2  0  0  3  0  0  0  0  0  0
  157.1050  212.7250  153.3610 C   0  0  0  0  0  2  0  0  0  0  0  0
  161.3490  206.1360  150.1020 N   0  0  0  0  0  0  0  0  0  0  0  0
  160.4930  209.1930  153.8400 C   0  0  0  0  0  0  0  0  0  0  0  0
  159.4700  213.1430  152.4070 C   0  0  2  0  0  0  0  0  0  0  0  0
  160.2550  209.5260  152.3800 C   0  0  1  0  0  3  0  0  0  0  0  0
  160.1470  208.3000  156.4960 C   0  0  0  0  0  3  0  0  0  0  0  0
  162.0370  208.3430  149.0940 C   0  0  0  0  0  2  0  0  0  0  0  0
  159.2930  209.4420  156.0000 C   0  0  0  0  0  2  0  0  0  0  0  0
  161.0580  209.1160  149.9730 C   0  0  0  0  0  2  0  0  0  0  0  0
  162.3830  206.4310  151.1170 C   0  0  1  0  0  3  0  0  0  0  0  0
  160.9410  207.6240  155.6520 C   0  0  0  0  0  3  0  0  0  0  0  0
  161.6740  207.1940  153.2580 N   0  0  0  0  0  0  0  0  0  0  0  0
  161.4190  204.8230  149.7640 O   0  0  0  0  0  0  0  0  0  0  0  0
  161.4310  204.8120  148.3640 C   0  0  0  0  0  2  0  0  0  0  0  0
  160.5710  201.3640  148.0450 C   0  0  0  0  0  2  0  0  0  0  0  0
  161.1250  203.1370  146.5200 C   0  0  0  0  0  2  0  0  0  0  0  0
  161.8260  203.4410  147.8300 C   0  0  0  0  0  3  0  0  0  0  0  0
  160.7870  201.6660  146.5780 C   0  0  0  0  0  2  0  0  0  0  0  0
  161.4540  202.3350  148.8060 C   0  0  0  0  0  2  0  0  0  0  0  0
  1 26  1  0  0  0  0
  3 16  1  1  0  0  0
  4 23  1  1  0  0  0
  5 11  1  6  0  0  0
  5 15  1  0  0  0  0
  7 19  1  0  0  0  0
  7  3  1  0  0  0  0
  8 12  1  0  0  0  0
  9 27  1  1  0  0  0
 10 22  1  0  0  0  0
 10 17  1  0  0  0  0
 13 24  1  6  0  0  0
 13  9  1  0  0  0  0
 13 20  1  0  0  0  0
 14  2  1  0  0  0  0
 15  4  1  0  0  0  0
 15 12  1  1  0  0  0
 16  8  1  0  0  0  0
 17 25  1  0  0  0  0
 18  1  2  0  0  0  0
 18  4  1  0  0  0  0
 19  6  1  6  0  0  0
 19  3  1  0  0  0  0
 19  5  1  0  0  0  0
 20 11  1  6  0  0  0
 20 18  1  0  0  0  0
 22 24  1  0  0  0  0
 23 21  1  0  0  0  0
 25  9  1  0  0  0  0
 25 14  1  1  0  0  0
 26 21  2  0  0  0  0
 27  2  1  0  0  0  0
 27  1  1  0  0  0  0
 28 17  1  0  0  0  0
 29 28  1  0  0  0  0
 30 34  1  0  0  0  0
 31 33  1  0  0  0  0
 31 32  1  0  0  0  0
 32 29  1  0  0  0  0
 32 34  1  0  0  0  0
 33 30  1  0  0  0  0
M  END
>  <MODEL>
8

>  <REMARK>
 VINA RESULT:      -6.8      1.498      2.439
  Name = 
  3 active torsions:
  status: ('A' for Active; 'I' for Inactive)
    1  A    between atoms: N_17  and  O_28
    2  A    between atoms: O_28  and  C_29
    3  A    between atoms: C_29  and  C_32
                            x       y       z     vdW  Elec       q    Type
                         _______ _______ _______ _____ _____    ______ ____

>  <TORSDO>
F 3

$$$$
=
 OpenBabel11122414263D

 34 41  0  0  1  0  0  0  0  0999 V2000
  158.7370  213.9180  141.8690 C   0  0  0  0  0  0  0  0  0  0  0  0
  157.8510  214.2520  144.2250 C   0  0  0  0  0  2  0  0  0  0  0  0
  163.4710  211.3740  138.1400 C   0  0  1  0  0  3  0  0  0  0  0  0
  159.6380  213.4130  139.6380 C   0  0  2  0  0  3  0  0  0  0  0  0
  162.1130  213.1850  139.5870 C   0  0  2  0  0  3  0  0  0  0  0  0
  164.5750  213.5750  138.8150 C   0  0  0  0  0  1  0  0  0  0  0  0
  163.8070  211.4080  139.5120 O   0  0  0  0  0  0  0  0  0  0  0  0
  161.0710  211.2860  137.2250 C   0  0  0  0  0  2  0  0  0  0  0  0
  160.2540  214.2260  143.8560 C   0  0  2  0  0  3  0  0  0  0  0  0
  161.8810  212.9500  146.2970 C   0  0  0  0  0  2  0  0  0  0  0  0
  162.2210  213.3420  141.0540 N   0  0  0  0  0  2  0  0  0  0  0  0
  160.7980  212.6000  137.6710 O   0  0  0  0  0  0  0  0  0  0  0  0
  161.1100  213.0600  143.3090 C   0  0  1  0  0  3  0  0  0  0  0  0
  158.5180  214.4530  145.5720 C   0  0  0  0  0  2  0  0  0  0  0  0
  160.7870  212.5890  139.0720 C   0  0  2  0  0  3  0  0  0  0  0  0
  162.1910  210.5550  137.9940 C   0  0  0  0  0  2  0  0  0  0  0  0
  160.4490  212.9050  145.9630 N   0  0  0  0  0  0  0  0  0  0  0  0
  159.7600  213.4520  141.1380 C   0  0  0  0  0  0  0  0  0  0  0  0
  163.4000  212.6290  138.9510 C   0  0  2  0  0  0  0  0  0  0  0  0
  161.0190  212.8930  141.7730 C   0  0  1  0  0  3  0  0  0  0  0  0
  157.1970  213.6850  139.9770 C   0  0  0  0  0  3  0  0  0  0  0  0
  162.7570  213.5970  145.2170 C   0  0  0  0  0  2  0  0  0  0  0  0
  158.2530  212.8920  139.2450 C   0  0  0  0  0  2  0  0  0  0  0  0
  162.5550  212.9880  143.8310 C   0  0  0  0  0  2  0  0  0  0  0  0
  160.0210  214.1940  145.3810 C   0  0  1  0  0  3  0  0  0  0  0  0
  157.4230  214.1380  141.2200 C   0  0  0  0  0  3  0  0  0  0  0  0
  158.9290  214.1670  143.2660 N   0  0  0  0  0  0  0  0  0  0  0  0
  159.8010  212.7100  147.1400 O   0  0  0  0  0  0  0  0  0  0  0  0
  160.6790  213.1940  148.1180 C   0  0  0  0  0  2  0  0  0  0  0  0
  157.7240  213.3330  150.1140 C   0  0  0  0  0  2  0  0  0  0  0  0
  160.0820  213.1930  150.5560 C   0  0  0  0  0  2  0  0  0  0  0  0
  159.9190  213.9090  149.2280 C   0  0  0  0  0  3  0  0  0  0  0  0
  158.7380  213.3000  151.2360 C   0  0  0  0  0  2  0  0  0  0  0  0
  158.4290  213.9730  148.9330 C   0  0  0  0  0  2  0  0  0  0  0  0
  1 27  1  0  0  0  0
  2 14  1  0  0  0  0
  3 16  1  1  0  0  0
  3 19  1  0  0  0  0
  3  7  1  0  0  0  0
  4 23  1  1  0  0  0
  4 18  1  0  0  0  0
  5 11  1  1  0  0  0
  8 12  1  0  0  0  0
  8 16  1  0  0  0  0
  9 27  1  6  0  0  0
  9 25  1  0  0  0  0
 13 24  1  6  0  0  0
 13  9  1  0  0  0  0
 15 12  1  6  0  0  0
 15  5  1  0  0  0  0
 15  4  1  0  0  0  0
 17 10  1  0  0  0  0
 17 28  1  0  0  0  0
 18 20  1  0  0  0  0
 18  1  2  0  0  0  0
 19  6  1  6  0  0  0
 19  7  1  0  0  0  0
 19  5  1  0  0  0  0
 20 11  1  6  0  0  0
 20 13  1  0  0  0  0
 21 26  2  0  0  0  0
 22 10  1  0  0  0  0
 23 21  1  0  0  0  0
 24 22  1  0  0  0  0
 25 14  1  6  0  0  0
 25 17  1  0  0  0  0
 26  1  1  0  0  0  0
 27  2  1  0  0  0  0
 28 29  1  0  0  0  0
 29 32  1  0  0  0  0
 30 33  1  0  0  0  0
 31 33  1  0  0  0  0
 32 31  1  0  0  0  0
 34 32  1  0  0  0  0
 34 30  1  0  0  0  0
M  END
>  <MODEL>
9

>  <REMARK>
 VINA RESULT:      -5.7      8.498     12.288
  Name = 
  3 active torsions:
  status: ('A' for Active; 'I' for Inactive)
    1  A    between atoms: N_17  and  O_28
    2  A    between atoms: O_28  and  C_29
    3  A    between atoms: C_29  and  C_32
                            x       y       z     vdW  Elec       q    Type
                         _______ _______ _______ _____ _____    ______ ____

>  <TORSDO>
F 3

$$$$
