=
 OpenBabel11122414133D

 28 32  0  0  1  0  0  0  0  0999 V2000
  160.9230  209.2980  155.2210 C   0  0  0  0  0  0  0  0  0  0  0  0
  157.7500  210.6630  155.2380 F   0  0  0  0  0  0  0  0  0  0  0  0
  160.9240  212.3700  150.0360 O   0  0  0  0  0  0  0  0  0  0  0  0
  162.4700  210.4760  157.2450 C   0  0  0  0  0  3  0  0  0  0  0  0
  159.1240  212.8570  151.4790 N   0  0  0  0  0  0  0  0  0  0  0  0
  160.1770  208.5850  154.1340 C   0  0  0  0  0  2  0  0  0  0  0  0
  158.6570  211.4740  157.2600 C   0  0  0  0  0  1  0  0  0  0  0  0
  158.1250  211.8290  155.8850 C   0  0  1  0  0  0  0  0  0  0  0  0
  156.4990  213.5540  155.0420 C   0  0  0  0  0  0  0  0  0  0  0  0
  159.2020  212.5980  155.0730 C   0  0  2  0  0  3  0  0  0  0  0  0
  161.7800  208.0270  150.6980 C   0  0  0  0  0  1  0  0  0  0  0  0
  159.6680  211.2020  153.1190 C   0  0  1  0  0  3  0  0  0  0  0  0
  157.2650  213.8460  154.0380 N   0  0  0  0  0  0  0  0  0  0  0  0
  156.9440  212.6610  156.0610 N   0  0  0  0  0  2  0  0  0  0  0  0
  161.0570  208.8130  151.7720 C   0  0  2  0  0  3  0  0  0  0  0  0
  160.9840  210.7140  155.3290 C   0  0  0  0  0  0  0  0  0  0  0  0
  160.3000  212.1700  151.1110 C   0  0  0  0  0  0  0  0  0  0  0  0
  155.1740  214.2140  155.1720 C   0  0  0  0  0  1  0  0  0  0  0  0
  161.7010  210.1870  151.8950 C   0  0  0  0  0  2  0  0  0  0  0  0
  161.7750  211.2790  156.3410 C   0  0  0  0  0  3  0  0  0  0  0  0
  161.6220  208.5050  156.1400 C   0  0  0  0  0  3  0  0  0  0  0  0
  162.3890  209.0880  157.1490 C   0  0  0  0  0  3  0  0  0  0  0  0
  161.1490  208.0480  153.0870 C   0  0  0  0  0  2  0  0  0  0  0  0
  158.6170  212.2610  152.7100 C   0  0  1  0  0  3  0  0  0  0  0  0
  160.6790  211.2090  152.0710 N   0  0  0  0  0  0  0  0  0  0  0  0
  158.6030  213.2860  153.8370 C   0  0  2  0  0  3  0  0  0  0  0  0
  158.3390  213.6940  150.5880 C   0  0  0  0  0  1  0  0  0  0  0  0
  160.2590  211.6960  154.4300 C   0  0  2  0  0  3  0  0  0  0  0  0
  1 16  2  0  0  0  0
  1 21  1  0  0  0  0
  2  8  1  0  0  0  0
  3 17  2  0  0  0  0
  5 24  1  0  0  0  0
  6  1  1  0  0  0  0
  8 14  1  0  0  0  0
  8  7  1  1  0  0  0
  9 18  1  0  0  0  0
  9 14  1  0  0  0  0
 10  8  1  0  0  0  0
 11 15  1  0  0  0  0
 12 28  1  0  0  0  0
 13  9  2  0  0  0  0
 15 19  1  0  0  0  0
 15 23  1  0  0  0  0
 16 20  1  0  0  0  0
 17  5  1  0  0  0  0
 17 25  1  0  0  0  0
 19 25  1  0  0  0  0
 20  4  2  0  0  0  0
 21 22  2  0  0  0  0
 22  4  1  0  0  0  0
 23  6  1  0  0  0  0
 24 12  1  0  0  0  0
 24 26  1  0  0  0  0
 25 12  1  0  0  0  0
 26 13  1  0  0  0  0
 26 10  1  0  0  0  0
 27  5  1  0  0  0  0
 28 10  1  0  0  0  0
 28 16  1  0  0  0  0
M  END
>  <MODEL>
1

>  <REMARK>
 VINA RESULT:      -6.2      0.000      0.000
  Name = 
  0 active torsions:
  status: ('A' for Active; 'I' for Inactive)
                            x       y       z     vdW  Elec       q    Type
                         _______ _______ _______ _____ _____    ______ ____

>  <TORSDO>
F 0

$$$$
=
 OpenBabel11122414133D

 28 32  0  0  1  0  0  0  0  0999 V2000
  160.0400  210.2110  154.9430 C   0  0  0  0  0  0  0  0  0  0  0  0
  156.7990  211.2120  154.2870 F   0  0  0  0  0  0  0  0  0  0  0  0
  160.7860  213.4270  149.9000 O   0  0  0  0  0  0  0  0  0  0  0  0
  160.9740  211.4910  157.2600 C   0  0  0  0  0  3  0  0  0  0  0  0
  158.6760  213.6630  150.9260 N   0  0  0  0  0  0  0  0  0  0  0  0
  159.6300  209.4540  153.7160 C   0  0  0  0  0  2  0  0  0  0  0  0
  157.1550  212.0550  156.4620 C   0  0  0  0  0  1  0  0  0  0  0  0
  156.8900  212.3910  155.0080 C   0  0  1  0  0  0  0  0  0  0  0  0
  155.2910  213.9490  153.8470 C   0  0  0  0  0  0  0  0  0  0  0  0
  158.0180  213.3010  154.4510 C   0  0  2  0  0  3  0  0  0  0  0  0
  161.9800  209.1880  150.7010 C   0  0  0  0  0  1  0  0  0  0  0  0
  159.0480  212.0280  152.6340 C   0  0  1  0  0  3  0  0  0  0  0  0
  156.2140  214.3560  153.0330 N   0  0  0  0  0  0  0  0  0  0  0  0
  155.6100  213.0800  154.9320 N   0  0  0  0  0  2  0  0  0  0  0  0
  160.9590  209.8530  151.6000 C   0  0  2  0  0  3  0  0  0  0  0  0
  159.9110  211.6220  155.0710 C   0  0  0  0  0  0  0  0  0  0  0  0
  159.9760  213.1230  150.8150 C   0  0  0  0  0  0  0  0  0  0  0  0
  153.9010  214.4520  153.6930 C   0  0  0  0  0  1  0  0  0  0  0  0
  161.3990  211.2870  151.8680 C   0  0  0  0  0  2  0  0  0  0  0  0
  160.3980  212.2390  156.2330 C   0  0  0  0  0  3  0  0  0  0  0  0
  160.6150  209.4730  155.9860 C   0  0  0  0  0  3  0  0  0  0  0  0
  161.0760  210.1070  157.1400 C   0  0  0  0  0  3  0  0  0  0  0  0
  160.8580  209.0630  152.9000 C   0  0  0  0  0  2  0  0  0  0  0  0
  157.9920  212.9750  152.0150 C   0  0  1  0  0  3  0  0  0  0  0  0
  160.2500  212.1810  151.8280 N   0  0  0  0  0  0  0  0  0  0  0  0
  157.6200  213.9570  153.1200 C   0  0  2  0  0  3  0  0  0  0  0  0
  158.0070  214.4350  149.8930 C   0  0  0  0  0  1  0  0  0  0  0  0
  159.2850  212.5440  154.0440 C   0  0  2  0  0  3  0  0  0  0  0  0
  1 16  2  0  0  0  0
  1 21  1  0  0  0  0
  2  8  1  0  0  0  0
  3 17  2  0  0  0  0
  5 24  1  0  0  0  0
  6  1  1  0  0  0  0
  8  7  1  1  0  0  0
  9 14  1  0  0  0  0
 10  8  1  0  0  0  0
 11 15  1  0  0  0  0
 12 28  1  0  0  0  0
 13 26  1  0  0  0  0
 13  9  2  0  0  0  0
 14  8  1  0  0  0  0
 15 19  1  0  0  0  0
 15 23  1  0  0  0  0
 16 20  1  0  0  0  0
 17  5  1  0  0  0  0
 17 25  1  0  0  0  0
 18  9  1  0  0  0  0
 20  4  2  0  0  0  0
 21 22  2  0  0  0  0
 22  4  1  0  0  0  0
 23  6  1  0  0  0  0
 24 12  1  0  0  0  0
 24 26  1  0  0  0  0
 25 19  1  0  0  0  0
 25 12  1  0  0  0  0
 26 10  1  0  0  0  0
 27  5  1  0  0  0  0
 28 10  1  0  0  0  0
 28 16  1  0  0  0  0
M  END
>  <MODEL>
2

>  <REMARK>
 VINA RESULT:      -4.5      1.227      1.410
  Name = 
  0 active torsions:
  status: ('A' for Active; 'I' for Inactive)
                            x       y       z     vdW  Elec       q    Type
                         _______ _______ _______ _____ _____    ______ ____

>  <TORSDO>
F 0

$$$$
=
 OpenBabel11122414133D

 28 32  0  0  1  0  0  0  0  0999 V2000
  160.9650  208.5000  155.0500 C   0  0  0  0  0  0  0  0  0  0  0  0
  159.0280  210.6970  153.2190 F   0  0  0  0  0  0  0  0  0  0  0  0
  163.1340  207.6470  149.4920 O   0  0  0  0  0  0  0  0  0  0  0  0
  162.6870  209.9380  156.7380 C   0  0  0  0  0  3  0  0  0  0  0  0
  161.7360  209.5300  149.7350 N   0  0  0  0  0  0  0  0  0  0  0  0
  160.0700  207.6390  154.2130 C   0  0  0  0  0  2  0  0  0  0  0  0
  160.0170  212.1170  154.8240 C   0  0  0  0  0  1  0  0  0  0  0  0
  159.8990  211.7660  153.3540 C   0  0  1  0  0  0  0  0  0  0  0  0
  159.5410  213.1240  151.2660 C   0  0  0  0  0  0  0  0  0  0  0  0
  161.2970  211.4260  152.7690 C   0  0  2  0  0  3  0  0  0  0  0  0
  161.4670  204.6110  152.3260 C   0  0  0  0  0  1  0  0  0  0  0  0
  161.1420  209.1050  152.0140 C   0  0  1  0  0  3  0  0  0  0  0  0
  160.4420  212.4490  150.6240 N   0  0  0  0  0  0  0  0  0  0  0  0
  159.3340  212.9150  152.6620 N   0  0  0  0  0  2  0  0  0  0  0  0
  161.1700  206.0780  152.5530 C   0  0  2  0  0  3  0  0  0  0  0  0
  161.7610  209.5510  154.5170 C   0  0  0  0  0  0  0  0  0  0  0  0
  162.3940  208.3740  150.2060 C   0  0  0  0  0  0  0  0  0  0  0  0
  158.7680  214.1770  150.5590 C   0  0  0  0  0  1  0  0  0  0  0  0
  162.4320  206.8840  152.2760 C   0  0  0  0  0  2  0  0  0  0  0  0
  162.6230  210.2460  155.3790 C   0  0  0  0  0  3  0  0  0  0  0  0
  161.0350  208.2070  156.4190 C   0  0  0  0  0  3  0  0  0  0  0  0
  161.8870  208.9230  157.2600 C   0  0  0  0  0  3  0  0  0  0  0  0
  160.7050  206.2700  153.9920 C   0  0  0  0  0  2  0  0  0  0  0  0
  160.8660  210.0210  150.7980 C   0  0  1  0  0  3  0  0  0  0  0  0
  162.1010  208.1080  151.5590 N   0  0  0  0  0  0  0  0  0  0  0  0
  161.2870  211.4200  151.2330 C   0  0  2  0  0  3  0  0  0  0  0  0
  161.6140  209.9050  148.3360 C   0  0  0  0  0  1  0  0  0  0  0  0
  161.7680  210.0010  153.0700 C   0  0  2  0  0  3  0  0  0  0  0  0
  1 21  1  0  0  0  0
  2  8  1  0  0  0  0
  3 17  2  0  0  0  0
  4 22  1  0  0  0  0
  5 17  1  0  0  0  0
  5 24  1  0  0  0  0
  6  1  1  0  0  0  0
  8  7  1  1  0  0  0
  9 14  1  0  0  0  0
 10 28  1  0  0  0  0
 10  8  1  0  0  0  0
 11 15  1  0  0  0  0
 12 28  1  0  0  0  0
 13 26  1  0  0  0  0
 13  9  2  0  0  0  0
 14  8  1  0  0  0  0
 15 23  1  0  0  0  0
 16  1  2  0  0  0  0
 16 20  1  0  0  0  0
 17 25  1  0  0  0  0
 18  9  1  0  0  0  0
 19 15  1  0  0  0  0
 20  4  2  0  0  0  0
 21 22  2  0  0  0  0
 23  6  1  0  0  0  0
 24 26  1  0  0  0  0
 24 12  1  0  0  0  0
 25 12  1  0  0  0  0
 25 19  1  0  0  0  0
 26 10  1  0  0  0  0
 27  5  1  0  0  0  0
 28 16  1  0  0  0  0
M  END
>  <MODEL>
3

>  <REMARK>
 VINA RESULT:      -3.7      2.246      3.465
  Name = 
  0 active torsions:
  status: ('A' for Active; 'I' for Inactive)
                            x       y       z     vdW  Elec       q    Type
                         _______ _______ _______ _____ _____    ______ ____

>  <TORSDO>
F 0

$$$$
