=
 OpenBabel11122412313D

 30 35  0  0  1  0  0  0  0  0999 V2000
  161.0750  205.7910  149.9640 C   0  0  0  0  0  0  0  0  0  0  0  0
  161.0310  203.2830  149.8160 C   0  0  0  0  0  0  0  0  0  0  0  0
  161.0510  205.6280  154.1690 N   0  0  0  0  0  0  0  0  0  0  0  0
  161.1400  206.9670  150.7650 C   0  0  0  0  0  0  0  0  0  0  0  0
  160.9100  205.9610  148.4790 C   0  0  0  0  0  2  0  0  0  0  0  0
  161.5950  209.4460  148.1220 O   0  0  0  0  0  0  0  0  0  0  0  0
  160.5070  209.7830  151.9120 C   0  0  1  0  0  3  0  0  0  0  0  0
  161.5460  208.3260  148.7050 C   0  0  0  0  0  0  0  0  0  0  0  0
  160.7300  209.0690  153.1870 C   0  0  1  0  0  3  0  0  0  0  0  0
  161.0130  206.9890  154.4870 N   0  0  0  0  0  0  0  0  0  0  0  0
  161.8000  207.0610  147.9360 C   0  0  2  0  0  3  0  0  0  0  0  0
  161.3380  208.2630  150.1290 N   0  0  0  0  0  0  0  0  0  0  0  0
  161.0200  202.0470  150.4680 C   0  0  0  0  0  3  0  0  0  0  0  0
  160.6320  209.9960  154.3270 C   0  0  0  0  0  2  0  0  0  0  0  0
  160.4780  211.2060  152.2330 N   0  0  0  0  0  2  0  0  0  0  0  0
  161.0280  203.2770  148.4250 O   0  0  0  0  0  1  0  0  0  0  0  0
  161.0710  205.5540  152.7450 C   0  0  0  0  0  0  0  0  0  0  0  0
  161.0360  201.9730  151.8590 C   0  0  0  0  0  3  0  0  0  0  0  0
  161.0550  204.4910  150.5670 C   0  0  0  0  0  0  0  0  0  0  0  0
  161.0640  206.8040  152.1620 C   0  0  0  0  0  0  0  0  0  0  0  0
  160.9200  207.4710  155.8550 C   0  0  0  0  0  1  0  0  0  0  0  0
  160.9720  207.7550  153.2770 C   0  0  0  0  0  0  0  0  0  0  0  0
  160.2420  211.3090  153.6750 C   0  0  0  0  0  2  0  0  0  0  0  0
  163.0180  209.5620  151.4020 C   0  0  0  0  0  1  0  0  0  0  0  0
  161.0610  203.1410  152.6150 C   0  0  0  0  0  3  0  0  0  0  0  0
  161.0720  204.3900  151.9870 C   0  0  0  0  0  0  0  0  0  0  0  0
  161.5870  209.5010  150.8730 C   0  0  2  0  0  3  0  0  0  0  0  0
  161.5300  207.2160  146.4460 C   0  0  0  0  0  2  0  0  0  0  0  0
  160.8360  205.7810  144.9210 C   0  0  0  0  0  1  0  0  0  0  0  0
  160.4280  206.4450  146.0770 O   0  0  0  0  0  0  0  0  0  0  0  0
  1 19  1  0  0  0  0
  1  4  2  0  0  0  0
  2 13  2  0  0  0  0
  2 19  1  0  0  0  0
  3 10  1  0  0  0  0
  4 20  1  0  0  0  0
  5  1  1  0  0  0  0
  6  8  2  0  0  0  0
  7 15  1  1  0  0  0
  7  9  1  0  0  0  0
  8 12  1  0  0  0  0
  9 22  1  0  0  0  0
  9 14  1  1  0  0  0
 10 21  1  0  0  0  0
 11 28  1  6  0  0  0
 11  5  1  0  0  0  0
 11  8  1  0  0  0  0
 12  4  1  0  0  0  0
 12 27  1  0  0  0  0
 13 18  1  0  0  0  0
 15 23  1  0  0  0  0
 16  2  1  0  0  0  0
 17  3  2  0  0  0  0
 18 25  2  0  0  0  0
 19 26  2  0  0  0  0
 20 17  1  0  0  0  0
 20 22  2  0  0  0  0
 22 10  1  0  0  0  0
 23 14  1  0  0  0  0
 26 25  1  0  0  0  0
 26 17  1  0  0  0  0
 27 24  1  1  0  0  0
 27  7  1  0  0  0  0
 29 30  1  0  0  0  0
 30 28  1  0  0  0  0
M  END
>  <MODEL>
1

>  <REMARK>
 VINA RESULT:      -8.1      0.000      0.000
  Name = 
  2 active torsions:
  status: ('A' for Active; 'I' for Inactive)
    1  A    between atoms: C_11  and  C_28
    2  A    between atoms: C_28  and  O_30
                            x       y       z     vdW  Elec       q    Type
                         _______ _______ _______ _____ _____    ______ ____

>  <TORSDO>
F 2

$$$$
=
 OpenBabel11122412313D

 30 35  0  0  1  0  0  0  0  0999 V2000
  161.2560  207.9310  151.4430 C   0  0  0  0  0  0  0  0  0  0  0  0
  161.6170  210.3540  150.8840 C   0  0  0  0  0  0  0  0  0  0  0  0
  162.0300  206.8080  147.4630 N   0  0  0  0  0  0  0  0  0  0  0  0
  161.2630  206.5680  151.0320 C   0  0  0  0  0  0  0  0  0  0  0  0
  160.7950  208.2410  152.8410 C   0  0  0  0  0  2  0  0  0  0  0  0
  160.7930  204.9770  154.2860 O   0  0  0  0  0  0  0  0  0  0  0  0
  160.3750  203.6250  150.5900 C   0  0  1  0  0  3  0  0  0  0  0  0
  161.0450  205.8640  153.4220 C   0  0  0  0  0  0  0  0  0  0  0  0
  160.9470  203.8870  149.2520 C   0  0  1  0  0  3  0  0  0  0  0  0
  161.8160  205.4290  147.5300 N   0  0  0  0  0  0  0  0  0  0  0  0
  161.3680  207.2670  153.8510 C   0  0  2  0  0  3  0  0  0  0  0  0
  161.1150  205.5130  152.0270 N   0  0  0  0  0  0  0  0  0  0  0  0
  161.9390  211.3260  149.9330 C   0  0  0  0  0  3  0  0  0  0  0  0
  160.9010  202.6740  148.4190 C   0  0  0  0  0  2  0  0  0  0  0  0
  160.1610  202.1840  150.6730 N   0  0  0  0  0  2  0  0  0  0  0  0
  161.3620  210.7830  152.1820 O   0  0  0  0  0  1  0  0  0  0  0  0
  161.8010  207.3100  148.7780 C   0  0  0  0  0  0  0  0  0  0  0  0
  162.2210  210.9710  148.6160 C   0  0  0  0  0  3  0  0  0  0  0  0
  161.5700  208.9810  150.5190 C   0  0  0  0  0  0  0  0  0  0  0  0
  161.4730  206.3060  149.6650 C   0  0  0  0  0  0  0  0  0  0  0  0
  161.8940  204.5670  146.3620 C   0  0  0  0  0  1  0  0  0  0  0  0
  161.4240  205.0770  148.8620 C   0  0  0  0  0  0  0  0  0  0  0  0
  160.1790  201.6740  149.3010 C   0  0  0  0  0  2  0  0  0  0  0  0
  162.7510  203.7110  151.5720 C   0  0  0  0  0  1  0  0  0  0  0  0
  162.1830  209.6330  148.2350 C   0  0  0  0  0  3  0  0  0  0  0  0
  161.8630  208.6420  149.1680 C   0  0  0  0  0  0  0  0  0  0  0  0
  161.2800  204.0890  151.7270 C   0  0  2  0  0  3  0  0  0  0  0  0
  160.8080  207.6040  155.2260 C   0  0  0  0  0  2  0  0  0  0  0  0
  161.9160  208.6340  156.8320 C   0  0  0  0  0  1  0  0  0  0  0  0
  161.2520  208.8640  155.6280 O   0  0  0  0  0  0  0  0  0  0  0  0
  1  5  1  0  0  0  0
  2 16  1  0  0  0  0
  3 10  1  0  0  0  0
  3 17  2  0  0  0  0
  4  1  2  0  0  0  0
  4 12  1  0  0  0  0
  5 11  1  0  0  0  0
  7 15  1  1  0  0  0
  7 27  1  0  0  0  0
  8 11  1  0  0  0  0
  8  6  2  0  0  0  0
  9 14  1  6  0  0  0
  9  7  1  0  0  0  0
 10 22  1  0  0  0  0
 11 28  1  1  0  0  0
 12  8  1  0  0  0  0
 13  2  2  0  0  0  0
 14 23  1  0  0  0  0
 17 26  1  0  0  0  0
 17 20  1  0  0  0  0
 18 13  1  0  0  0  0
 19  2  1  0  0  0  0
 19  1  1  0  0  0  0
 20  4  1  0  0  0  0
 21 10  1  0  0  0  0
 22  9  1  0  0  0  0
 22 20  2  0  0  0  0
 23 15  1  0  0  0  0
 25 18  2  0  0  0  0
 25 26  1  0  0  0  0
 26 19  2  0  0  0  0
 27 24  1  6  0  0  0
 27 12  1  0  0  0  0
 28 30  1  0  0  0  0
 30 29  1  0  0  0  0
M  END
>  <MODEL>
2

>  <REMARK>
 VINA RESULT:      -7.6      2.690      7.270
  Name = 
  2 active torsions:
  status: ('A' for Active; 'I' for Inactive)
    1  A    between atoms: C_11  and  C_28
    2  A    between atoms: C_28  and  O_30
                            x       y       z     vdW  Elec       q    Type
                         _______ _______ _______ _____ _____    ______ ____

>  <TORSDO>
F 2

$$$$
=
 OpenBabel11122412313D

 30 35  0  0  1  0  0  0  0  0999 V2000
  161.6500  208.2750  151.5170 C   0  0  0  0  0  0  0  0  0  0  0  0
  161.3770  208.7850  153.9630 C   0  0  0  0  0  0  0  0  0  0  0  0
  160.6510  204.2380  152.1590 N   0  0  0  0  0  0  0  0  0  0  0  0
  161.5620  207.3400  150.4460 C   0  0  0  0  0  0  0  0  0  0  0  0
  162.1850  209.6460  151.2100 C   0  0  0  0  0  2  0  0  0  0  0  0
  162.1000  209.6170  147.6420 O   0  0  0  0  0  0  0  0  0  0  0  0
  162.2930  205.6740  147.9290 C   0  0  1  0  0  3  0  0  0  0  0  0
  161.8520  209.2110  148.8120 C   0  0  0  0  0  0  0  0  0  0  0  0
  161.6760  204.5990  148.7350 C   0  0  1  0  0  3  0  0  0  0  0  0
  160.8040  203.7190  150.8710 N   0  0  0  0  0  0  0  0  0  0  0  0
  161.6130  210.1980  149.9200 C   0  0  2  0  0  3  0  0  0  0  0  0
  161.7040  207.8020  149.0720 N   0  0  0  0  0  0  0  0  0  0  0  0
  161.0580  208.3390  155.2480 C   0  0  0  0  0  3  0  0  0  0  0  0
  161.6290  203.3390  147.9740 C   0  0  0  0  0  2  0  0  0  0  0  0
  162.4440  205.1440  146.5780 N   0  0  0  0  0  2  0  0  0  0  0  0
  161.7080  210.1270  153.8100 O   0  0  0  0  0  1  0  0  0  0  0  0
  160.9610  205.6270  152.0670 C   0  0  0  0  0  0  0  0  0  0  0  0
  160.7030  207.0110  155.4760 C   0  0  0  0  0  3  0  0  0  0  0  0
  161.3450  207.8850  152.8620 C   0  0  0  0  0  0  0  0  0  0  0  0
  161.2800  206.0010  150.7780 C   0  0  0  0  0  0  0  0  0  0  0  0
  160.6350  202.3060  150.5710 C   0  0  0  0  0  1  0  0  0  0  0  0
  161.2370  204.7620  149.9910 C   0  0  0  0  0  0  0  0  0  0  0  0
  162.3430  203.6870  146.6820 C   0  0  0  0  0  2  0  0  0  0  0  0
  159.9690  206.7430  147.6590 C   0  0  0  0  0  1  0  0  0  0  0  0
  160.6630  206.1120  154.4150 C   0  0  0  0  0  3  0  0  0  0  0  0
  160.9770  206.5340  153.1200 C   0  0  0  0  0  0  0  0  0  0  0  0
  161.4620  206.9530  147.9030 C   0  0  2  0  0  3  0  0  0  0  0  0
  162.2480  211.5540  149.6440 C   0  0  0  0  0  2  0  0  0  0  0  0
  161.9450  213.2060  148.2140 C   0  0  0  0  0  1  0  0  0  0  0  0
  161.2830  212.4480  149.1790 O   0  0  0  0  0  0  0  0  0  0  0  0
  1 19  1  0  0  0  0
  2 13  1  0  0  0  0
  4 20  1  0  0  0  0
  4  1  2  0  0  0  0
  5  1  1  0  0  0  0
  6  8  2  0  0  0  0
  7 15  1  6  0  0  0
  7  9  1  0  0  0  0
  8 12  1  0  0  0  0
  8 11  1  0  0  0  0
  9 14  1  1  0  0  0
  9 22  1  0  0  0  0
 10  3  1  0  0  0  0
 11 28  1  6  0  0  0
 11  5  1  0  0  0  0
 12  4  1  0  0  0  0
 13 18  2  0  0  0  0
 15 23  1  0  0  0  0
 16  2  1  0  0  0  0
 17  3  2  0  0  0  0
 17 26  1  0  0  0  0
 19 26  1  0  0  0  0
 19  2  2  0  0  0  0
 20 17  1  0  0  0  0
 21 10  1  0  0  0  0
 22 20  2  0  0  0  0
 22 10  1  0  0  0  0
 23 14  1  0  0  0  0
 25 18  1  0  0  0  0
 26 25  2  0  0  0  0
 27 24  1  1  0  0  0
 27  7  1  0  0  0  0
 27 12  1  0  0  0  0
 29 30  1  0  0  0  0
 30 28  1  0  0  0  0
M  END
>  <MODEL>
3

>  <REMARK>
 VINA RESULT:      -7.1      2.245      5.634
  Name = 
  2 active torsions:
  status: ('A' for Active; 'I' for Inactive)
    1  A    between atoms: C_11  and  C_28
    2  A    between atoms: C_28  and  O_30
                            x       y       z     vdW  Elec       q    Type
                         _______ _______ _______ _____ _____    ______ ____

>  <TORSDO>
F 2

$$$$
=
 OpenBabel11122412313D

 30 35  0  0  1  0  0  0  0  0999 V2000
  160.9610  209.3570  151.6810 C   0  0  0  0  0  0  0  0  0  0  0  0
  161.0710  211.7550  150.9390 C   0  0  0  0  0  0  0  0  0  0  0  0
  162.0720  208.0290  147.8460 N   0  0  0  0  0  0  0  0  0  0  0  0
  161.1470  207.9760  151.3850 C   0  0  0  0  0  0  0  0  0  0  0  0
  160.3930  209.7170  153.0260 C   0  0  0  0  0  2  0  0  0  0  0  0
  160.6890  206.5970  154.7360 O   0  0  0  0  0  0  0  0  0  0  0  0
  160.6280  204.9230  151.1500 C   0  0  1  0  0  3  0  0  0  0  0  0
  160.8830  207.4380  153.8130 C   0  0  0  0  0  0  0  0  0  0  0  0
  161.2370  205.1470  149.8210 C   0  0  1  0  0  3  0  0  0  0  0  0
  162.0150  206.6430  148.0180 N   0  0  0  0  0  0  0  0  0  0  0  0
  161.0200  208.8990  154.1380 C   0  0  2  0  0  3  0  0  0  0  0  0
  161.0680  206.9910  152.4570 N   0  0  0  0  0  0  0  0  0  0  0  0
  161.3300  212.6810  149.9250 C   0  0  0  0  0  3  0  0  0  0  0  0
  161.3760  203.8760  149.0910 C   0  0  0  0  0  2  0  0  0  0  0  0
  160.5770  203.4770  151.3430 N   0  0  0  0  0  2  0  0  0  0  0  0
  160.6990  212.2500  152.1830 O   0  0  0  0  0  1  0  0  0  0  0  0
  161.7160  208.6000  149.1030 C   0  0  0  0  0  0  0  0  0  0  0  0
  161.7210  212.2610  148.6560 C   0  0  0  0  0  3  0  0  0  0  0  0
  161.2020  210.3610  150.6870 C   0  0  0  0  0  0  0  0  0  0  0  0
  161.4590  207.6360  150.0550 C   0  0  0  0  0  0  0  0  0  0  0  0
  162.2540  205.7090  146.9300 C   0  0  0  0  0  1  0  0  0  0  0  0
  161.5950  206.3510  149.3560 C   0  0  0  0  0  0  0  0  0  0  0  0
  160.7270  202.8690  150.0200 C   0  0  0  0  0  2  0  0  0  0  0  0
  162.9220  205.3670  152.2260 C   0  0  0  0  0  1  0  0  0  0  0  0
  161.8570  210.9030  148.3860 C   0  0  0  0  0  3  0  0  0  0  0  0
  161.6040  209.9560  149.3830 C   0  0  0  0  0  0  0  0  0  0  0  0
  161.4110  205.5770  152.2840 C   0  0  2  0  0  3  0  0  0  0  0  0
  160.3510  209.2720  155.4540 C   0  0  0  0  0  2  0  0  0  0  0  0
  160.5160  211.1350  156.6230 C   0  0  0  0  0  1  0  0  0  0  0  0
  161.2350  210.0010  156.2500 O   0  0  0  0  0  0  0  0  0  0  0  0
  1  5  1  0  0  0  0
  2 16  1  0  0  0  0
  3 10  1  0  0  0  0
  3 17  2  0  0  0  0
  4  1  2  0  0  0  0
  4 12  1  0  0  0  0
  5 11  1  0  0  0  0
  7 15  1  1  0  0  0
  7 27  1  0  0  0  0
  8 11  1  0  0  0  0
  8  6  2  0  0  0  0
  9 14  1  6  0  0  0
  9  7  1  0  0  0  0
 10 22  1  0  0  0  0
 11 28  1  1  0  0  0
 12  8  1  0  0  0  0
 13  2  2  0  0  0  0
 14 23  1  0  0  0  0
 17 26  1  0  0  0  0
 17 20  1  0  0  0  0
 18 13  1  0  0  0  0
 19  2  1  0  0  0  0
 19  1  1  0  0  0  0
 20  4  1  0  0  0  0
 21 10  1  0  0  0  0
 22  9  1  0  0  0  0
 22 20  2  0  0  0  0
 23 15  1  0  0  0  0
 25 18  2  0  0  0  0
 25 26  1  0  0  0  0
 26 19  2  0  0  0  0
 27 24  1  6  0  0  0
 27 12  1  0  0  0  0
 28 30  1  0  0  0  0
 30 29  1  0  0  0  0
M  END
>  <MODEL>
4

>  <REMARK>
 VINA RESULT:      -6.8      2.805      7.344
  Name = 
  2 active torsions:
  status: ('A' for Active; 'I' for Inactive)
    1  A    between atoms: C_11  and  C_28
    2  A    between atoms: C_28  and  O_30
                            x       y       z     vdW  Elec       q    Type
                         _______ _______ _______ _____ _____    ______ ____

>  <TORSDO>
F 2

$$$$
=
 OpenBabel11122412313D

 30 35  0  0  1  0  0  0  0  0999 V2000
  161.2010  207.7110  150.9740 C   0  0  0  0  0  0  0  0  0  0  0  0
  161.4240  205.4600  149.8810 C   0  0  0  0  0  0  0  0  0  0  0  0
  160.6690  205.9220  154.7450 N   0  0  0  0  0  0  0  0  0  0  0  0
  161.0490  208.4840  152.1610 C   0  0  0  0  0  0  0  0  0  0  0  0
  161.2060  208.4390  149.6590 C   0  0  0  0  0  2  0  0  0  0  0  0
  161.5810  211.8140  150.7590 O   0  0  0  0  0  0  0  0  0  0  0  0
  160.0010  210.6000  154.1790 C   0  0  1  0  0  3  0  0  0  0  0  0
  161.5710  210.5540  150.8600 C   0  0  0  0  0  0  0  0  0  0  0  0
  160.1330  209.4550  155.1060 C   0  0  1  0  0  3  0  0  0  0  0  0
  160.4560  207.0480  155.5460 N   0  0  0  0  0  0  0  0  0  0  0  0
  162.0440  209.7010  149.7170 C   0  0  2  0  0  3  0  0  0  0  0  0
  161.1950  209.9320  152.1030 N   0  0  0  0  0  0  0  0  0  0  0  0
  161.4550  204.0680  150.0060 C   0  0  0  0  0  3  0  0  0  0  0  0
  159.8020  209.8600  156.4830 C   0  0  0  0  0  2  0  0  0  0  0  0
  159.7910  211.7820  155.0080 N   0  0  0  0  0  2  0  0  0  0  0  0
  161.5960  205.9960  148.6090 O   0  0  0  0  0  1  0  0  0  0  0  0
  160.8730  206.4090  153.4210 C   0  0  0  0  0  0  0  0  0  0  0  0
  161.3040  203.4590  151.2490 C   0  0  0  0  0  3  0  0  0  0  0  0
  161.2340  206.2790  151.0280 C   0  0  0  0  0  0  0  0  0  0  0  0
  160.8160  207.7860  153.3620 C   0  0  0  0  0  0  0  0  0  0  0  0
  160.1460  206.9530  156.9630 C   0  0  0  0  0  1  0  0  0  0  0  0
  160.4910  208.2220  154.7260 C   0  0  0  0  0  0  0  0  0  0  0  0
  159.3680  211.3050  156.3250 C   0  0  0  0  0  2  0  0  0  0  0  0
  162.5660  210.7030  154.0150 C   0  0  0  0  0  1  0  0  0  0  0  0
  161.1190  204.2390  152.3860 C   0  0  0  0  0  3  0  0  0  0  0  0
  161.0840  205.6330  152.2880 C   0  0  0  0  0  0  0  0  0  0  0  0
  161.2250  210.7910  153.2890 C   0  0  2  0  0  3  0  0  0  0  0  0
  161.9480  210.4130  148.3740 C   0  0  0  0  0  2  0  0  0  0  0  0
  162.3940  212.4060  147.5420 C   0  0  0  0  0  1  0  0  0  0  0  0
  162.9670  211.3580  148.2610 O   0  0  0  0  0  0  0  0  0  0  0  0
  1 19  1  0  0  0  0
  1  4  2  0  0  0  0
  2 13  2  0  0  0  0
  2 19  1  0  0  0  0
  3 10  1  0  0  0  0
  4 20  1  0  0  0  0
  5 11  1  0  0  0  0
  5  1  1  0  0  0  0
  6  8  2  0  0  0  0
  7 15  1  1  0  0  0
  7  9  1  0  0  0  0
  8 12  1  0  0  0  0
  9 14  1  6  0  0  0
 10 21  1  0  0  0  0
 11 28  1  6  0  0  0
 11  8  1  0  0  0  0
 12  4  1  0  0  0  0
 12 27  1  0  0  0  0
 13 18  1  0  0  0  0
 15 23  1  0  0  0  0
 16  2  1  0  0  0  0
 17  3  2  0  0  0  0
 18 25  2  0  0  0  0
 19 26  2  0  0  0  0
 20 17  1  0  0  0  0
 20 22  2  0  0  0  0
 22  9  1  0  0  0  0
 22 10  1  0  0  0  0
 23 14  1  0  0  0  0
 26 25  1  0  0  0  0
 26 17  1  0  0  0  0
 27 24  1  1  0  0  0
 27  7  1  0  0  0  0
 29 30  1  0  0  0  0
 30 28  1  0  0  0  0
M  END
>  <MODEL>
5

>  <REMARK>
 VINA RESULT:      -6.7      1.826      2.844
  Name = 
  2 active torsions:
  status: ('A' for Active; 'I' for Inactive)
    1  A    between atoms: C_11  and  C_28
    2  A    between atoms: C_28  and  O_30
                            x       y       z     vdW  Elec       q    Type
                         _______ _______ _______ _____ _____    ______ ____

>  <TORSDO>
F 2

$$$$
=
 OpenBabel11122412313D

 30 35  0  0  1  0  0  0  0  0999 V2000
  161.7160  207.3700  150.7990 C   0  0  0  0  0  0  0  0  0  0  0  0
  161.4490  207.5220  153.2930 C   0  0  0  0  0  0  0  0  0  0  0  0
  160.5880  203.3170  150.8390 N   0  0  0  0  0  0  0  0  0  0  0  0
  161.6030  206.6070  149.6020 C   0  0  0  0  0  0  0  0  0  0  0  0
  162.2950  208.7540  150.6980 C   0  0  0  0  0  2  0  0  0  0  0  0
  162.2240  209.2550  147.1640 O   0  0  0  0  0  0  0  0  0  0  0  0
  162.2920  205.3090  146.8660 C   0  0  1  0  0  3  0  0  0  0  0  0
  161.9580  208.6890  148.2620 C   0  0  0  0  0  0  0  0  0  0  0  0
  161.6380  204.1460  147.5050 C   0  0  1  0  0  3  0  0  0  0  0  0
  160.7300  202.9890  149.4870 N   0  0  0  0  0  0  0  0  0  0  0  0
  161.7460  209.5080  149.5030 C   0  0  2  0  0  3  0  0  0  0  0  0
  161.7660  207.2620  148.3100 N   0  0  0  0  0  0  0  0  0  0  0  0
  161.1110  206.9010  154.4990 C   0  0  0  0  0  3  0  0  0  0  0  0
  161.5550  203.0150  146.5660 C   0  0  0  0  0  2  0  0  0  0  0  0
  162.4320  204.9790  145.4510 N   0  0  0  0  0  2  0  0  0  0  0  0
  161.8230  208.8600  153.3410 O   0  0  0  0  0  1  0  0  0  0  0  0
  160.9410  204.6930  150.9520 C   0  0  0  0  0  0  0  0  0  0  0  0
  160.7130  205.5660  154.5290 C   0  0  0  0  0  3  0  0  0  0  0  0
  161.3930  206.7960  152.0720 C   0  0  0  0  0  0  0  0  0  0  0  0
  161.2780  205.2430  149.7330 C   0  0  0  0  0  0  0  0  0  0  0  0
  160.5180  201.6420  148.9820 C   0  0  0  0  0  1  0  0  0  0  0  0
  161.1990  204.1360  148.7710 C   0  0  0  0  0  0  0  0  0  0  0  0
  162.2840  203.5270  145.3390 C   0  0  0  0  0  2  0  0  0  0  0  0
  160.0040  206.4790  146.7580 C   0  0  0  0  0  1  0  0  0  0  0  0
  160.6490  204.8350  153.3460 C   0  0  0  0  0  3  0  0  0  0  0  0
  160.9820  205.4340  152.1270 C   0  0  0  0  0  0  0  0  0  0  0  0
  161.5010  206.6030  147.0290 C   0  0  2  0  0  3  0  0  0  0  0  0
  162.4240  210.8690  149.4310 C   0  0  0  0  0  2  0  0  0  0  0  0
  162.5280  212.7020  148.2070 C   0  0  0  0  0  1  0  0  0  0  0  0
  161.6300  211.7610  148.7100 O   0  0  0  0  0  0  0  0  0  0  0  0
  1 19  1  0  0  0  0
  2 16  1  0  0  0  0
  2 13  1  0  0  0  0
  3 17  2  0  0  0  0
  4 20  1  0  0  0  0
  4  1  2  0  0  0  0
  5  1  1  0  0  0  0
  6  8  2  0  0  0  0
  7 15  1  6  0  0  0
  7 27  1  0  0  0  0
  7  9  1  0  0  0  0
  8 12  1  0  0  0  0
  8 11  1  0  0  0  0
  9 14  1  1  0  0  0
  9 22  1  0  0  0  0
 10  3  1  0  0  0  0
 11 28  1  6  0  0  0
 11  5  1  0  0  0  0
 12  4  1  0  0  0  0
 13 18  2  0  0  0  0
 17 26  1  0  0  0  0
 19 26  1  0  0  0  0
 19  2  2  0  0  0  0
 20 17  1  0  0  0  0
 21 10  1  0  0  0  0
 22 10  1  0  0  0  0
 22 20  2  0  0  0  0
 23 15  1  0  0  0  0
 23 14  1  0  0  0  0
 25 18  1  0  0  0  0
 26 25  2  0  0  0  0
 27 24  1  1  0  0  0
 27 12  1  0  0  0  0
 29 30  1  0  0  0  0
 30 28  1  0  0  0  0
M  END
>  <MODEL>
6

>  <REMARK>
 VINA RESULT:      -5.6      2.575      5.778
  Name = 
  2 active torsions:
  status: ('A' for Active; 'I' for Inactive)
    1  A    between atoms: C_11  and  C_28
    2  A    between atoms: C_28  and  O_30
                            x       y       z     vdW  Elec       q    Type
                         _______ _______ _______ _____ _____    ______ ____

>  <TORSDO>
F 2

$$$$
