=
 OpenBabel11122413263D

 31 35  0  0  1  0  0  0  0  0999 V2000
  160.9390  206.5770  146.6720 C   0  0  0  0  0  0  0  0  0  0  0  0
  160.4300  204.9680  150.0840 C   0  0  2  0  0  3  0  0  0  0  0  0
  161.1410  203.5890  150.0370 C   0  0  2  0  0  3  0  0  0  0  0  0
  161.1780  201.4340  148.6890 C   0  0  0  0  0  0  0  0  0  0  0  0
  160.9300  205.9080  149.0080 C   0  0  0  0  0  0  0  0  0  0  0  0
  161.8910  207.5590  146.9510 C   0  0  0  0  0  3  0  0  0  0  0  0
  160.8660  202.9060  148.6850 C   0  0  0  0  0  2  0  0  0  0  0  0
  161.9850  206.1280  151.6960 C   0  0  2  0  0  3  0  0  0  0  0  0
  160.4680  206.4140  145.3770 O   0  0  0  0  0  1  0  0  0  0  0  0
  160.9370  203.3450  152.4230 C   0  0  0  0  0  2  0  0  0  0  0  0
  161.0720  200.6690  147.4160 C   0  0  0  0  0  1  0  0  0  0  0  0
  162.3160  207.2300  150.6910 C   0  0  0  0  0  2  0  0  0  0  0  0
  160.5530  205.6160  151.4730 C   0  0  2  0  0  3  0  0  0  0  0  0
  160.4590  205.7580  147.6970 C   0  0  0  0  0  3  0  0  0  0  0  0
  161.4090  200.7740  149.8290 C   0  0  0  0  0  3  0  0  0  0  0  0
  161.8900  206.9080  149.2880 C   0  0  0  0  0  0  0  0  0  0  0  0
  162.3560  207.7290  148.2560 C   0  0  0  0  0  3  0  0  0  0  0  0
  160.1260  204.6250  152.5520 C   0  0  0  0  0  2  0  0  0  0  0  0
  160.6830  202.7100  151.1330 N   0  0  2  0  0  0  0  0  0  0  0  0
  161.5240  201.5130  151.1300 C   0  0  0  0  0  2  0  0  0  0  0  0
  160.5460  208.3390  152.7790 O   0  0  0  0  0  0  0  0  0  0  0  0
  161.3780  207.7590  153.5310 C   0  0  0  0  0  0  0  0  0  0  0  0
  162.1350  206.6490  153.0490 N   0  0  0  0  0  2  0  0  0  0  0  0
  159.3250  209.8370  155.9340 C   0  0  1  0  0  3  0  0  0  0  0  0
  160.5610  207.6500  155.9060 C   0  0  0  0  0  2  0  0  0  0  0  0
  162.6810  210.3850  154.1290 C   0  0  0  0  0  1  0  0  0  0  0  0
  158.0750  210.4310  155.7700 O   0  0  0  0  0  1  0  0  0  0  0  0
  159.1980  208.3270  155.7470 C   0  0  0  0  0  2  0  0  0  0  0  0
  161.6720  209.7660  155.0810 C   0  0  2  0  0  3  0  0  0  0  0  0
  161.5970  208.2350  154.9390 C   0  0  2  0  0  3  0  0  0  0  0  0
  160.3020  210.4190  154.9160 C   0  0  0  0  0  2  0  0  0  0  0  0
  1  6  2  0  0  0  0
  1 14  1  0  0  0  0
  2  5  1  6  0  0  0
  2 13  1  0  0  0  0
  3  7  1  6  0  0  0
  3  2  1  0  0  0  0
  3 19  1  0  0  0  0
  4 15  2  0  0  0  0
  5 16  1  0  0  0  0
  6 17  1  0  0  0  0
  7  4  1  0  0  0  0
  8 23  1  1  0  0  0
  9  1  1  0  0  0  0
 10 18  1  0  0  0  0
 11  4  1  0  0  0  0
 12  8  1  0  0  0  0
 13  8  1  0  0  0  0
 13 18  1  1  0  0  0
 14  5  2  0  0  0  0
 15 20  1  0  0  0  0
 16 12  1  0  0  0  0
 17 16  2  0  0  0  0
 19 20  1  1  0  0  0
 19 10  1  0  0  0  0
 21 22  2  0  0  0  0
 23 22  1  0  0  0  0
 24 27  1  6  0  0  0
 28 25  1  0  0  0  0
 28 24  1  0  0  0  0
 29 26  1  6  0  0  0
 30 22  1  6  0  0  0
 30 29  1  0  0  0  0
 30 25  1  0  0  0  0
 31 29  1  0  0  0  0
 31 24  1  0  0  0  0
M  END
>  <MODEL>
1

>  <REMARK>
 VINA RESULT:      -7.2      0.000      0.000
  Name = 
  2 active torsions:
  status: ('A' for Active; 'I' for Inactive)
    1  A    between atoms: C_5  and  C_30
    2  A    between atoms: C_10  and  N_16
                            x       y       z     vdW  Elec       q    Type
                         _______ _______ _______ _____ _____    ______ ____

>  <TORSDO>
F 2

$$$$
=
 OpenBabel11122413263D

 31 35  0  0  1  0  0  0  0  0999 V2000
  161.1040  203.9970  145.5550 C   0  0  0  0  0  0  0  0  0  0  0  0
  160.6340  205.7450  148.9040 C   0  0  2  0  0  3  0  0  0  0  0  0
  161.2670  204.8240  149.9800 C   0  0  2  0  0  3  0  0  0  0  0  0
  161.1380  202.4430  150.8620 C   0  0  0  0  0  0  0  0  0  0  0  0
  161.1460  205.4360  147.5120 C   0  0  0  0  0  0  0  0  0  0  0  0
  162.1180  204.7560  144.9680 C   0  0  0  0  0  3  0  0  0  0  0  0
  160.9060  203.3560  149.6880 C   0  0  0  0  0  2  0  0  0  0  0  0
  162.3080  207.6300  149.0040 C   0  0  2  0  0  3  0  0  0  0  0  0
  160.5790  202.9030  144.8830 O   0  0  0  0  0  1  0  0  0  0  0  0
  161.1380  206.5740  151.6280 C   0  0  0  0  0  2  0  0  0  0  0  0
  160.9430  200.9770  150.6870 C   0  0  0  0  0  1  0  0  0  0  0  0
  162.6620  207.4860  147.5240 C   0  0  0  0  0  2  0  0  0  0  0  0
  160.8440  207.2310  149.2430 C   0  0  2  0  0  3  0  0  0  0  0  0
  160.6190  204.3380  146.8200 C   0  0  0  0  0  3  0  0  0  0  0  0
  161.3750  202.9270  152.0850 C   0  0  0  0  0  3  0  0  0  0  0  0
  162.1680  206.2070  146.9120 C   0  0  0  0  0  0  0  0  0  0  0  0
  162.6400  205.8630  145.6410 C   0  0  0  0  0  3  0  0  0  0  0  0
  160.4030  207.5070  150.6770 C   0  0  0  0  0  2  0  0  0  0  0  0
  160.8030  205.1830  151.3370 N   0  0  2  0  0  0  0  0  0  0  0  0
  161.5770  204.3990  152.2990 C   0  0  0  0  0  2  0  0  0  0  0  0
  161.2350  209.9390  147.7210 O   0  0  0  0  0  0  0  0  0  0  0  0
  161.9630  210.1200  148.7360 C   0  0  0  0  0  0  0  0  0  0  0  0
  162.5360  209.0070  149.4210 N   0  0  0  0  0  2  0  0  0  0  0  0
  160.8250  213.5650  147.6640 C   0  0  1  0  0  3  0  0  0  0  0  0
  160.9900  212.1970  149.7650 C   0  0  0  0  0  2  0  0  0  0  0  0
  164.2210  211.7520  147.6450 C   0  0  0  0  0  1  0  0  0  0  0  0
  159.9730  213.9510  146.6310 O   0  0  0  0  0  1  0  0  0  0  0  0
  160.0720  212.6500  148.6280 C   0  0  0  0  0  2  0  0  0  0  0  0
  162.9700  212.4060  148.2080 C   0  0  2  0  0  3  0  0  0  0  0  0
  162.2510  211.5090  149.2320 C   0  0  2  0  0  3  0  0  0  0  0  0
  162.0360  212.8420  147.0820 C   0  0  0  0  0  2  0  0  0  0  0  0
  1 14  1  0  0  0  0
  2  5  1  6  0  0  0
  2 13  1  0  0  0  0
  2  3  1  0  0  0  0
  3  7  1  6  0  0  0
  3 19  1  0  0  0  0
  4 15  2  0  0  0  0
  6  1  2  0  0  0  0
  6 17  1  0  0  0  0
  7  4  1  0  0  0  0
  8 13  1  0  0  0  0
  8 23  1  6  0  0  0
  9  1  1  0  0  0  0
 11  4  1  0  0  0  0
 12  8  1  0  0  0  0
 13 18  1  1  0  0  0
 14  5  2  0  0  0  0
 15 20  1  0  0  0  0
 16  5  1  0  0  0  0
 16 12  1  0  0  0  0
 17 16  2  0  0  0  0
 18 10  1  0  0  0  0
 19 10  1  1  0  0  0
 19 20  1  0  0  0  0
 21 22  2  0  0  0  0
 22 23  1  0  0  0  0
 24 27  1  6  0  0  0
 24 28  1  0  0  0  0
 28 25  1  0  0  0  0
 29 26  1  6  0  0  0
 29 30  1  0  0  0  0
 30 22  1  6  0  0  0
 30 25  1  0  0  0  0
 31 24  1  0  0  0  0
 31 29  1  0  0  0  0
M  END
>  <MODEL>
2

>  <REMARK>
 VINA RESULT:      -6.2      3.281      4.942
  Name = 
  2 active torsions:
  status: ('A' for Active; 'I' for Inactive)
    1  A    between atoms: C_5  and  C_30
    2  A    between atoms: C_10  and  N_16
                            x       y       z     vdW  Elec       q    Type
                         _______ _______ _______ _____ _____    ______ ____

>  <TORSDO>
F 2

$$$$
=
 OpenBabel11122413263D

 31 35  0  0  1  0  0  0  0  0999 V2000
  160.5230  208.7290  155.0360 C   0  0  0  0  0  0  0  0  0  0  0  0
  161.8990  209.3700  151.5450 C   0  0  2  0  0  3  0  0  0  0  0  0
  161.2330  208.3310  150.6060 C   0  0  2  0  0  3  0  0  0  0  0  0
  160.9170  205.8210  150.3490 C   0  0  0  0  0  0  0  0  0  0  0  0
  161.1250  209.5580  152.8330 C   0  0  0  0  0  0  0  0  0  0  0  0
  159.6450  209.8000  155.2060 C   0  0  0  0  0  3  0  0  0  0  0  0
  161.1820  206.9580  151.3000 C   0  0  0  0  0  2  0  0  0  0  0  0
  160.7630  211.4430  150.6640 C   0  0  2  0  0  3  0  0  0  0  0  0
  160.6620  207.7790  156.0390 O   0  0  0  0  0  1  0  0  0  0  0  0
  162.0260  209.5050  148.6600 C   0  0  0  0  0  2  0  0  0  0  0  0
  160.7250  204.4500  150.8970 C   0  0  0  0  0  1  0  0  0  0  0  0
  160.1660  211.7800  152.0290 C   0  0  0  0  0  2  0  0  0  0  0  0
  162.1070  210.7180  150.8340 C   0  0  2  0  0  3  0  0  0  0  0  0
  161.2610  208.6110  153.8560 C   0  0  0  0  0  3  0  0  0  0  0  0
  160.9920  205.9900  149.0240 C   0  0  0  0  0  3  0  0  0  0  0  0
  160.2400  210.6470  153.0120 C   0  0  0  0  0  0  0  0  0  0  0  0
  159.5120  210.7610  154.2010 C   0  0  0  0  0  3  0  0  0  0  0  0
  162.8120  210.5010  149.4990 C   0  0  0  0  0  2  0  0  0  0  0  0
  161.9690  208.2090  149.3300 N   0  0  2  0  0  0  0  0  0  0  0  0
  161.1840  207.3570  148.4370 C   0  0  0  0  0  2  0  0  0  0  0  0
  159.7920  211.8910  148.0210 O   0  0  0  0  0  0  0  0  0  0  0  0
  160.4210  212.8320  148.5790 C   0  0  0  0  0  0  0  0  0  0  0  0
  160.9390  212.6710  149.9000 N   0  0  0  0  0  2  0  0  0  0  0  0
  160.9450  213.7490  144.9470 C   0  0  1  0  0  3  0  0  0  0  0  0
  159.5100  214.4520  146.8860 C   0  0  0  0  0  2  0  0  0  0  0  0
  163.1700  213.9030  148.0840 C   0  0  0  0  0  1  0  0  0  0  0  0
  160.9950  212.9420  143.8120 O   0  0  0  0  0  1  0  0  0  0  0  0
  159.5870  213.5870  145.6260 C   0  0  0  0  0  2  0  0  0  0  0  0
  162.0140  214.2270  147.1530 C   0  0  2  0  0  3  0  0  0  0  0  0
  160.6490  214.1320  147.8590 C   0  0  2  0  0  3  0  0  0  0  0  0
  162.0670  213.3540  145.9020 C   0  0  0  0  0  2  0  0  0  0  0  0
  1  6  1  0  0  0  0
  1  9  1  0  0  0  0
  2  5  1  1  0  0  0
  3  7  1  1  0  0  0
  3  2  1  0  0  0  0
  4 11  1  0  0  0  0
  4  7  1  0  0  0  0
  5 16  2  0  0  0  0
  5 14  1  0  0  0  0
  8 23  1  6  0  0  0
  8 13  1  0  0  0  0
  8 12  1  0  0  0  0
 10 19  1  0  0  0  0
 10 18  1  0  0  0  0
 12 16  1  0  0  0  0
 13 18  1  6  0  0  0
 13  2  1  0  0  0  0
 14  1  2  0  0  0  0
 15  4  2  0  0  0  0
 16 17  1  0  0  0  0
 17  6  2  0  0  0  0
 19 20  1  6  0  0  0
 19  3  1  0  0  0  0
 20 15  1  0  0  0  0
 21 22  2  0  0  0  0
 22 23  1  0  0  0  0
 24 27  1  6  0  0  0
 24 28  1  0  0  0  0
 24 31  1  0  0  0  0
 25 30  1  0  0  0  0
 28 25  1  0  0  0  0
 29 30  1  0  0  0  0
 29 26  1  1  0  0  0
 30 22  1  6  0  0  0
 31 29  1  0  0  0  0
M  END
>  <MODEL>
3

>  <REMARK>
 VINA RESULT:      -6.2      4.260      7.708
  Name = 
  2 active torsions:
  status: ('A' for Active; 'I' for Inactive)
    1  A    between atoms: C_5  and  C_30
    2  A    between atoms: C_10  and  N_16
                            x       y       z     vdW  Elec       q    Type
                         _______ _______ _______ _____ _____    ______ ____

>  <TORSDO>
F 2

$$$$
=
 OpenBabel11122413263D

 31 35  0  0  1  0  0  0  0  0999 V2000
  160.9100  201.4110  149.1480 C   0  0  0  0  0  0  0  0  0  0  0  0
  162.1750  204.9270  149.8740 C   0  0  2  0  0  3  0  0  0  0  0  0
  161.3770  205.8870  148.9530 C   0  0  2  0  0  3  0  0  0  0  0  0
  160.8310  206.2640  146.4990 C   0  0  0  0  0  0  0  0  0  0  0  0
  161.4800  203.5930  150.0510 C   0  0  0  0  0  0  0  0  0  0  0  0
  160.1380  201.1380  150.2780 C   0  0  0  0  0  3  0  0  0  0  0  0
  161.2380  205.2680  147.5500 C   0  0  0  0  0  2  0  0  0  0  0  0
  161.1850  205.6340  152.0840 C   0  0  2  0  0  3  0  0  0  0  0  0
  161.0110  200.4700  148.1320 O   0  0  0  0  0  1  0  0  0  0  0  0
  162.1800  207.8040  150.1670 C   0  0  0  0  0  2  0  0  0  0  0  0
  160.5440  205.7830  145.1180 C   0  0  0  0  0  1  0  0  0  0  0  0
  160.6840  204.2240  152.3900 C   0  0  0  0  0  2  0  0  0  0  0  0
  162.4670  205.5730  151.2390 C   0  0  2  0  0  3  0  0  0  0  0  0
  161.5800  202.6320  149.0370 C   0  0  0  0  0  3  0  0  0  0  0  0
  160.8580  207.5800  146.7380 C   0  0  0  0  0  3  0  0  0  0  0  0
  160.7030  203.3100  151.1990 C   0  0  0  0  0  0  0  0  0  0  0  0
  160.0440  202.0810  151.3040 C   0  0  0  0  0  3  0  0  0  0  0  0
  163.0880  206.9530  151.0420 C   0  0  0  0  0  2  0  0  0  0  0  0
  162.0400  207.2030  148.8440 N   0  0  2  0  0  0  0  0  0  0  0  0
  161.1430  208.1000  148.1160 C   0  0  0  0  0  2  0  0  0  0  0  0
  160.3720  208.3060  152.6600 O   0  0  0  0  0  0  0  0  0  0  0  0
  160.9920  207.6780  153.5610 C   0  0  0  0  0  0  0  0  0  0  0  0
  161.4320  206.3390  153.3360 N   0  0  0  0  0  2  0  0  0  0  0  0
  159.1010  210.1060  155.7610 C   0  0  1  0  0  3  0  0  0  0  0  0
  160.2960  207.9050  155.9660 C   0  0  0  0  0  2  0  0  0  0  0  0
  162.3700  210.3280  153.7380 C   0  0  0  0  0  1  0  0  0  0  0  0
  157.8560  210.7040  155.5800 O   0  0  0  0  0  1  0  0  0  0  0  0
  158.9390  208.5880  155.7840 C   0  0  0  0  0  2  0  0  0  0  0  0
  161.4000  209.8650  154.8130 C   0  0  2  0  0  3  0  0  0  0  0  0
  161.2910  208.3310  154.8820 C   0  0  2  0  0  3  0  0  0  0  0  0
  160.0350  210.5230  154.6280 C   0  0  0  0  0  2  0  0  0  0  0  0
  1  6  1  0  0  0  0
  2  5  1  1  0  0  0
  2 13  1  0  0  0  0
  3  7  1  6  0  0  0
  3  2  1  0  0  0  0
  4 15  2  0  0  0  0
  4  7  1  0  0  0  0
  5 16  2  0  0  0  0
  6 17  2  0  0  0  0
  8 12  1  0  0  0  0
  8 23  1  1  0  0  0
  9  1  1  0  0  0  0
 10 18  1  0  0  0  0
 11  4  1  0  0  0  0
 13 18  1  6  0  0  0
 13  8  1  0  0  0  0
 14  1  2  0  0  0  0
 14  5  1  0  0  0  0
 15 20  1  0  0  0  0
 16 17  1  0  0  0  0
 16 12  1  0  0  0  0
 19 20  1  6  0  0  0
 19  3  1  0  0  0  0
 19 10  1  0  0  0  0
 21 22  2  0  0  0  0
 23 22  1  0  0  0  0
 24 27  1  6  0  0  0
 24 28  1  0  0  0  0
 28 25  1  0  0  0  0
 29 26  1  6  0  0  0
 29 30  1  0  0  0  0
 30 22  1  6  0  0  0
 30 25  1  0  0  0  0
 31 29  1  0  0  0  0
 31 24  1  0  0  0  0
M  END
>  <MODEL>
4

>  <REMARK>
 VINA RESULT:      -5.5      1.647      3.986
  Name = 
  2 active torsions:
  status: ('A' for Active; 'I' for Inactive)
    1  A    between atoms: C_5  and  C_30
    2  A    between atoms: C_10  and  N_16
                            x       y       z     vdW  Elec       q    Type
                         _______ _______ _______ _____ _____    ______ ____

>  <TORSDO>
F 2

$$$$
=
 OpenBabel11122413263D

 31 35  0  0  1  0  0  0  0  0999 V2000
  161.0110  204.4590  145.2640 C   0  0  0  0  0  0  0  0  0  0  0  0
  160.6120  205.2490  148.9660 C   0  0  2  0  0  3  0  0  0  0  0  0
  161.2340  204.0610  149.7450 C   0  0  2  0  0  3  0  0  0  0  0  0
  161.0600  201.5330  149.9550 C   0  0  0  0  0  0  0  0  0  0  0  0
  161.1030  205.3170  147.5350 C   0  0  0  0  0  0  0  0  0  0  0  0
  162.0350  205.3290  144.8870 C   0  0  0  0  0  3  0  0  0  0  0  0
  160.8370  202.7330  149.0740 C   0  0  0  0  0  2  0  0  0  0  0  0
  162.3280  207.0050  149.5430 C   0  0  2  0  0  3  0  0  0  0  0  0
  160.4540  203.5960  144.3290 O   0  0  0  0  0  1  0  0  0  0  0  0
  161.1600  205.3040  151.8040 C   0  0  0  0  0  2  0  0  0  0  0  0
  160.8310  200.1720  149.3950 C   0  0  0  0  0  1  0  0  0  0  0  0
  162.6640  207.2590  148.0750 C   0  0  0  0  0  2  0  0  0  0  0  0
  160.8580  206.5850  149.6880 C   0  0  2  0  0  3  0  0  0  0  0  0
  160.5450  204.4560  146.5800 C   0  0  0  0  0  3  0  0  0  0  0  0
  161.3190  201.6660  151.2600 C   0  0  0  0  0  3  0  0  0  0  0  0
  162.1360  206.2020  147.1480 C   0  0  0  0  0  0  0  0  0  0  0  0
  162.5880  206.2030  145.8250 C   0  0  0  0  0  3  0  0  0  0  0  0
  160.4370  206.4730  151.1510 C   0  0  0  0  0  2  0  0  0  0  0  0
  160.7910  204.0500  151.1550 N   0  0  2  0  0  0  0  0  0  0  0  0
  161.5560  203.0220  151.8580 C   0  0  0  0  0  2  0  0  0  0  0  0
  161.5430  209.6400  148.7890 O   0  0  0  0  0  0  0  0  0  0  0  0
  162.1640  209.5070  149.8790 C   0  0  0  0  0  0  0  0  0  0  0  0
  162.5910  208.2150  150.3130 N   0  0  0  0  0  2  0  0  0  0  0  0
  160.2100  211.4540  152.4660 C   0  0  1  0  0  3  0  0  0  0  0  0
  162.4580  210.3580  152.2260 C   0  0  0  0  0  2  0  0  0  0  0  0
  161.5810  212.2960  148.9680 C   0  0  0  0  0  1  0  0  0  0  0  0
  158.9100  211.2760  152.9350 O   0  0  0  0  0  1  0  0  0  0  0  0
  161.0280  210.1960  152.7460 C   0  0  0  0  0  2  0  0  0  0  0  0
  161.5960  211.9300  150.4430 C   0  0  2  0  0  3  0  0  0  0  0  0
  162.4790  210.7030  150.7330 C   0  0  2  0  0  3  0  0  0  0  0  0
  160.1750  211.7440  150.9680 C   0  0  0  0  0  2  0  0  0  0  0  0
  1 14  1  0  0  0  0
  2  5  1  6  0  0  0
  2 13  1  0  0  0  0
  2  3  1  0  0  0  0
  3  7  1  6  0  0  0
  3 19  1  0  0  0  0
  4 15  2  0  0  0  0
  6  1  2  0  0  0  0
  6 17  1  0  0  0  0
  7  4  1  0  0  0  0
  8 13  1  0  0  0  0
  8 23  1  1  0  0  0
  9  1  1  0  0  0  0
 11  4  1  0  0  0  0
 12  8  1  0  0  0  0
 13 18  1  1  0  0  0
 14  5  2  0  0  0  0
 15 20  1  0  0  0  0
 16  5  1  0  0  0  0
 16 12  1  0  0  0  0
 17 16  2  0  0  0  0
 18 10  1  0  0  0  0
 19 10  1  1  0  0  0
 19 20  1  0  0  0  0
 21 22  2  0  0  0  0
 22 23  1  0  0  0  0
 24 28  1  0  0  0  0
 24 27  1  6  0  0  0
 25 28  1  0  0  0  0
 29 26  1  6  0  0  0
 29 30  1  0  0  0  0
 29 31  1  0  0  0  0
 30 22  1  6  0  0  0
 30 25  1  0  0  0  0
 31 24  1  0  0  0  0
M  END
>  <MODEL>
5

>  <REMARK>
 VINA RESULT:      -5.4      2.316      3.089
  Name = 
  2 active torsions:
  status: ('A' for Active; 'I' for Inactive)
    1  A    between atoms: C_5  and  C_30
    2  A    between atoms: C_10  and  N_16
                            x       y       z     vdW  Elec       q    Type
                         _______ _______ _______ _____ _____    ______ ____

>  <TORSDO>
F 2

$$$$
=
 OpenBabel11122413263D

 31 35  0  0  1  0  0  0  0  0999 V2000
  161.2080  202.2220  150.8900 C   0  0  0  0  0  0  0  0  0  0  0  0
  162.1510  205.5690  149.3410 C   0  0  2  0  0  3  0  0  0  0  0  0
  161.2690  205.7380  148.0760 C   0  0  2  0  0  3  0  0  0  0  0  0
  160.6880  204.5530  145.9030 C   0  0  0  0  0  0  0  0  0  0  0  0
  161.5800  204.5510  150.3060 C   0  0  0  0  0  0  0  0  0  0  0  0
  160.4650  202.6140  152.0050 C   0  0  0  0  0  3  0  0  0  0  0  0
  161.1850  204.4020  147.3160 C   0  0  0  0  0  2  0  0  0  0  0  0
  161.1040  207.3710  150.7620 C   0  0  2  0  0  3  0  0  0  0  0  0
  161.3930  200.8730  150.6190 O   0  0  0  0  0  1  0  0  0  0  0  0
  161.8960  208.0540  147.8850 C   0  0  0  0  0  2  0  0  0  0  0  0
  160.4440  203.3300  145.0880 C   0  0  0  0  0  1  0  0  0  0  0  0
  160.7330  206.3810  151.8650 C   0  0  0  0  0  2  0  0  0  0  0  0
  162.3850  206.9150  150.0460 C   0  0  2  0  0  3  0  0  0  0  0  0
  161.7650  203.1860  150.0470 C   0  0  0  0  0  3  0  0  0  0  0  0
  160.5970  205.7530  145.3210 C   0  0  0  0  0  3  0  0  0  0  0  0
  160.8330  204.9450  151.4400 C   0  0  0  0  0  0  0  0  0  0  0  0
  160.2880  203.9710  152.2830 C   0  0  0  0  0  3  0  0  0  0  0  0
  162.8790  207.9530  149.0420 C   0  0  0  0  0  2  0  0  0  0  0  0
  161.8100  206.7800  147.1780 N   0  0  2  0  0  0  0  0  0  0  0  0
  160.8340  207.0060  146.1120 C   0  0  0  0  0  2  0  0  0  0  0  0
  160.7400  208.0240  153.5130 O   0  0  0  0  0  0  0  0  0  0  0  0
  161.0940  208.9530  152.7350 C   0  0  0  0  0  0  0  0  0  0  0  0
  161.2880  208.6940  151.3440 N   0  0  0  0  0  2  0  0  0  0  0  0
  160.4820  210.6160  156.0760 C   0  0  1  0  0  3  0  0  0  0  0  0
  162.3300  210.3850  154.3900 C   0  0  0  0  0  2  0  0  0  0  0  0
  158.9560  211.0390  152.5670 C   0  0  0  0  0  1  0  0  0  0  0  0
  159.9600  210.0970  157.2590 O   0  0  0  0  0  1  0  0  0  0  0  0
  161.7440  209.8450  155.6960 C   0  0  0  0  0  2  0  0  0  0  0  0
  160.0060  211.0660  153.6660 C   0  0  2  0  0  3  0  0  0  0  0  0
  161.3030  210.3480  153.2530 C   0  0  2  0  0  3  0  0  0  0  0  0
  159.4380  210.5080  154.9690 C   0  0  0  0  0  2  0  0  0  0  0  0
  1  6  1  0  0  0  0
  2 13  1  0  0  0  0
  2  5  1  1  0  0  0
  3  7  1  6  0  0  0
  3  2  1  0  0  0  0
  4  7  1  0  0  0  0
  5 16  2  0  0  0  0
  6 17  2  0  0  0  0
  8 23  1  1  0  0  0
  8 12  1  0  0  0  0
  9  1  1  0  0  0  0
 10 18  1  0  0  0  0
 11  4  1  0  0  0  0
 13 18  1  6  0  0  0
 13  8  1  0  0  0  0
 14  5  1  0  0  0  0
 14  1  2  0  0  0  0
 15  4  2  0  0  0  0
 15 20  1  0  0  0  0
 16 12  1  0  0  0  0
 16 17  1  0  0  0  0
 19 20  1  6  0  0  0
 19 10  1  0  0  0  0
 19  3  1  0  0  0  0
 22 21  2  0  0  0  0
 23 22  1  0  0  0  0
 24 27  1  1  0  0  0
 25 28  1  0  0  0  0
 28 24  1  0  0  0  0
 29 26  1  6  0  0  0
 29 31  1  0  0  0  0
 30 22  1  1  0  0  0
 30 29  1  0  0  0  0
 30 25  1  0  0  0  0
 31 24  1  0  0  0  0
M  END
>  <MODEL>
6

>  <REMARK>
 VINA RESULT:      -5.3      2.288      4.224
  Name = 
  2 active torsions:
  status: ('A' for Active; 'I' for Inactive)
    1  A    between atoms: C_5  and  C_30
    2  A    between atoms: C_10  and  N_16
                            x       y       z     vdW  Elec       q    Type
                         _______ _______ _______ _____ _____    ______ ____

>  <TORSDO>
F 2

$$$$
=
 OpenBabel11122413263D

 31 35  0  0  1  0  0  0  0  0999 V2000
  161.9580  212.6290  147.8550 C   0  0  0  0  0  0  0  0  0  0  0  0
  159.5000  213.8760  150.4800 C   0  0  2  0  0  3  0  0  0  0  0  0
  158.0780  213.6430  149.9060 C   0  0  2  0  0  3  0  0  0  0  0  0
  156.6570  214.2000  147.8730 C   0  0  0  0  0  0  0  0  0  0  0  0
  160.5440  213.0220  149.7910 C   0  0  0  0  0  0  0  0  0  0  0  0
  162.4100  211.4350  148.4200 C   0  0  0  0  0  3  0  0  0  0  0  0
  158.0500  214.0230  148.4140 C   0  0  0  0  0  2  0  0  0  0  0  0
  159.4370  212.1530  152.3220 C   0  0  2  0  0  3  0  0  0  0  0  0
  162.4290  213.0300  146.6130 O   0  0  0  0  0  1  0  0  0  0  0  0
  157.0820  214.0890  152.0510 C   0  0  0  0  0  2  0  0  0  0  0  0
  156.4740  214.4530  146.4160 C   0  0  0  0  0  1  0  0  0  0  0  0
  160.6530  211.4130  151.7660 C   0  0  0  0  0  2  0  0  0  0  0  0
  159.5340  213.6530  152.0020 C   0  0  2  0  0  3  0  0  0  0  0  0
  161.0320  213.4190  148.5400 C   0  0  0  0  0  3  0  0  0  0  0  0
  155.5980  214.2770  148.6860 C   0  0  0  0  0  3  0  0  0  0  0  0
  161.0090  211.8160  150.3640 C   0  0  0  0  0  0  0  0  0  0  0  0
  161.9430  211.0360  149.6750 C   0  0  0  0  0  3  0  0  0  0  0  0
  158.4210  214.4530  152.6720 C   0  0  0  0  0  2  0  0  0  0  0  0
  157.0660  214.4380  150.6330 N   0  0  2  0  0  0  0  0  0  0  0  0
  155.7450  214.0270  150.1580 C   0  0  0  0  0  2  0  0  0  0  0  0
  157.1960  211.0760  153.7180 O   0  0  0  0  0  0  0  0  0  0  0  0
  158.2100  211.3930  154.3990 C   0  0  0  0  0  0  0  0  0  0  0  0
  159.3640  211.9430  153.7620 N   0  0  0  0  0  2  0  0  0  0  0  0
  160.0760  213.0790  157.2240 C   0  0  1  0  0  3  0  0  0  0  0  0
  157.7170  212.4640  156.6200 C   0  0  0  0  0  2  0  0  0  0  0  0
  160.1100  209.5210  155.7540 C   0  0  0  0  0  1  0  0  0  0  0  0
  161.0200  214.1040  157.1960 O   0  0  0  0  0  1  0  0  0  0  0  0
  158.7680  213.5760  156.6150 C   0  0  0  0  0  2  0  0  0  0  0  0
  159.5730  210.7540  156.4610 C   0  0  2  0  0  3  0  0  0  0  0  0
  158.2180  211.2120  155.8910 C   0  0  2  0  0  3  0  0  0  0  0  0
  160.6050  211.8790  156.4430 C   0  0  0  0  0  2  0  0  0  0  0  0
  1  6  2  0  0  0  0
  1 14  1  0  0  0  0
  2  5  1  6  0  0  0
  2 13  1  0  0  0  0
  3  7  1  6  0  0  0
  3  2  1  0  0  0  0
  3 19  1  0  0  0  0
  4  7  1  0  0  0  0
  4 15  2  0  0  0  0
  5 16  1  0  0  0  0
  6 17  1  0  0  0  0
  8 23  1  1  0  0  0
  9  1  1  0  0  0  0
 10 18  1  0  0  0  0
 11  4  1  0  0  0  0
 12  8  1  0  0  0  0
 13  8  1  0  0  0  0
 13 18  1  1  0  0  0
 14  5  2  0  0  0  0
 15 20  1  0  0  0  0
 16 12  1  0  0  0  0
 17 16  2  0  0  0  0
 19 20  1  6  0  0  0
 19 10  1  0  0  0  0
 21 22  2  0  0  0  0
 23 22  1  0  0  0  0
 24 27  1  6  0  0  0
 28 25  1  0  0  0  0
 28 24  1  0  0  0  0
 29 26  1  6  0  0  0
 30 22  1  6  0  0  0
 30 29  1  0  0  0  0
 30 25  1  0  0  0  0
 31 29  1  0  0  0  0
 31 24  1  0  0  0  0
M  END
>  <MODEL>
7

>  <REMARK>
 VINA RESULT:      -5.1      5.967      8.259
  Name = 
  2 active torsions:
  status: ('A' for Active; 'I' for Inactive)
    1  A    between atoms: C_5  and  C_30
    2  A    between atoms: C_10  and  N_16
                            x       y       z     vdW  Elec       q    Type
                         _______ _______ _______ _____ _____    ______ ____

>  <TORSDO>
F 2

$$$$
=
 OpenBabel11122413263D

 31 35  0  0  1  0  0  0  0  0999 V2000
  161.9900  206.5080  147.6390 C   0  0  0  0  0  0  0  0  0  0  0  0
  162.2110  209.2470  150.2730 C   0  0  2  0  0  3  0  0  0  0  0  0
  161.3640  210.4370  149.7510 C   0  0  2  0  0  3  0  0  0  0  0  0
  161.1520  211.9730  147.7360 C   0  0  0  0  0  0  0  0  0  0  0  0
  161.8480  207.9430  149.5940 C   0  0  0  0  0  0  0  0  0  0  0  0
  161.1350  205.5870  148.2450 C   0  0  0  0  0  3  0  0  0  0  0  0
  161.6150  210.6340  148.2450 C   0  0  0  0  0  2  0  0  0  0  0  0
  160.7280  208.5560  152.1940 C   0  0  2  0  0  3  0  0  0  0  0  0
  162.4860  206.2620  146.3660 O   0  0  0  0  0  1  0  0  0  0  0  0
  161.4580  211.5140  151.9010 C   0  0  0  0  0  2  0  0  0  0  0  0
  161.2240  212.2560  146.2750 C   0  0  0  0  0  1  0  0  0  0  0  0
  160.5480  207.1450  151.6370 C   0  0  0  0  0  2  0  0  0  0  0  0
  162.1060  209.1110  151.8020 C   0  0  2  0  0  3  0  0  0  0  0  0
  162.3470  207.6790  148.3120 C   0  0  0  0  0  3  0  0  0  0  0  0
  160.8150  212.9580  148.5750 C   0  0  0  0  0  3  0  0  0  0  0  0
  160.9870  207.0040  150.2080 C   0  0  0  0  0  0  0  0  0  0  0  0
  160.6440  205.8300  149.5290 C   0  0  0  0  0  3  0  0  0  0  0  0
  162.3910  210.4550  152.4660 C   0  0  0  0  0  2  0  0  0  0  0  0
  161.6900  211.6860  150.4700 N   0  0  2  0  0  0  0  0  0  0  0  0
  160.7310  212.7080  150.0530 C   0  0  0  0  0  2  0  0  0  0  0  0
  159.2150  210.4120  153.7410 O   0  0  0  0  0  0  0  0  0  0  0  0
  159.8060  209.4830  154.3580 C   0  0  0  0  0  0  0  0  0  0  0  0
  160.5850  208.5240  153.6430 N   0  0  0  0  0  2  0  0  0  0  0  0
  162.2540  210.0960  157.1760 C   0  0  1  0  0  3  0  0  0  0  0  0
  159.9100  210.7360  156.5350 C   0  0  0  0  0  2  0  0  0  0  0  0
  160.4900  206.9580  155.8100 C   0  0  0  0  0  1  0  0  0  0  0  0
  163.5870  210.5020  157.1390 O   0  0  0  0  0  1  0  0  0  0  0  0
  161.3800  211.1640  156.5220 C   0  0  0  0  0  2  0  0  0  0  0  0
  160.6470  208.3190  156.4690 C   0  0  2  0  0  3  0  0  0  0  0  0
  159.7130  209.3770  155.8550 C   0  0  2  0  0  3  0  0  0  0  0  0
  162.1070  208.7660  156.4420 C   0  0  0  0  0  2  0  0  0  0  0  0
  1  6  2  0  0  0  0
  1 14  1  0  0  0  0
  2  5  1  6  0  0  0
  2 13  1  0  0  0  0
  3  7  1  6  0  0  0
  3  2  1  0  0  0  0
  3 19  1  0  0  0  0
  4  7  1  0  0  0  0
  4 15  2  0  0  0  0
  5 16  1  0  0  0  0
  6 17  1  0  0  0  0
  8 23  1  1  0  0  0
  9  1  1  0  0  0  0
 10 18  1  0  0  0  0
 11  4  1  0  0  0  0
 12  8  1  0  0  0  0
 13  8  1  0  0  0  0
 13 18  1  1  0  0  0
 14  5  2  0  0  0  0
 15 20  1  0  0  0  0
 16 12  1  0  0  0  0
 17 16  2  0  0  0  0
 19 20  1  6  0  0  0
 19 10  1  0  0  0  0
 21 22  2  0  0  0  0
 23 22  1  0  0  0  0
 24 27  1  6  0  0  0
 28 25  1  0  0  0  0
 28 24  1  0  0  0  0
 29 26  1  6  0  0  0
 30 22  1  6  0  0  0
 30 29  1  0  0  0  0
 30 25  1  0  0  0  0
 31 29  1  0  0  0  0
 31 24  1  0  0  0  0
M  END
>  <MODEL>
8

>  <REMARK>
 VINA RESULT:      -4.9      2.816      5.762
  Name = 
  2 active torsions:
  status: ('A' for Active; 'I' for Inactive)
    1  A    between atoms: C_5  and  C_30
    2  A    between atoms: C_10  and  N_16
                            x       y       z     vdW  Elec       q    Type
                         _______ _______ _______ _____ _____    ______ ____

>  <TORSDO>
F 2

$$$$
=
 OpenBabel11122413263D

 31 35  0  0  1  0  0  0  0  0999 V2000
  162.0640  212.5470  147.7070 C   0  0  0  0  0  0  0  0  0  0  0  0
  159.6570  213.8470  150.3540 C   0  0  2  0  0  3  0  0  0  0  0  0
  158.2250  213.6340  149.7970 C   0  0  2  0  0  3  0  0  0  0  0  0
  156.7890  214.2050  147.7780 C   0  0  0  0  0  0  0  0  0  0  0  0
  160.6790  212.9730  149.6570 C   0  0  0  0  0  0  0  0  0  0  0  0
  162.5030  211.3490  148.2720 C   0  0  0  0  0  3  0  0  0  0  0  0
  158.1860  214.0070  148.3040 C   0  0  0  0  0  2  0  0  0  0  0  0
  159.5890  212.1350  152.2050 C   0  0  2  0  0  3  0  0  0  0  0  0
  162.5260  212.9350  146.4570 O   0  0  0  0  0  1  0  0  0  0  0  0
  157.2610  214.1070  151.9510 C   0  0  0  0  0  2  0  0  0  0  0  0
  156.5930  214.4530  146.3220 C   0  0  0  0  0  1  0  0  0  0  0  0
  160.7850  211.3730  151.6390 C   0  0  0  0  0  2  0  0  0  0  0  0
  159.7060  213.6310  151.8760 C   0  0  2  0  0  3  0  0  0  0  0  0
  161.1590  213.3560  148.3980 C   0  0  0  0  0  3  0  0  0  0  0  0
  155.7420  214.3030  148.6030 C   0  0  0  0  0  3  0  0  0  0  0  0
  161.1310  211.7620  150.2300 C   0  0  0  0  0  0  0  0  0  0  0  0
  162.0450  210.9640  149.5350 C   0  0  0  0  0  3  0  0  0  0  0  0
  158.6140  214.4530  152.5550 C   0  0  0  0  0  2  0  0  0  0  0  0
  157.2350  214.4500  150.5320 N   0  0  2  0  0  0  0  0  0  0  0  0
  155.9020  214.0580  150.0750 C   0  0  0  0  0  2  0  0  0  0  0  0
  161.6810  211.0410  153.8030 O   0  0  0  0  0  0  0  0  0  0  0  0
  160.6180  211.3840  154.3900 C   0  0  0  0  0  0  0  0  0  0  0  0
  159.5290  211.9340  153.6470 N   0  0  0  0  0  2  0  0  0  0  0  0
  160.4990  208.3610  156.6610 C   0  0  1  0  0  3  0  0  0  0  0  0
  161.7120  210.5560  156.4960 C   0  0  0  0  0  2  0  0  0  0  0  0
  157.9410  211.0700  155.6890 C   0  0  0  0  0  1  0  0  0  0  0  0
  160.5730  207.0030  156.3580 O   0  0  0  0  0  1  0  0  0  0  0  0
  161.7730  209.0580  156.1890 C   0  0  0  0  0  2  0  0  0  0  0  0
  159.1930  210.4600  156.2960 C   0  0  2  0  0  3  0  0  0  0  0  0
  160.4710  211.2080  155.8750 C   0  0  2  0  0  3  0  0  0  0  0  0
  159.2770  208.9690  155.9780 C   0  0  0  0  0  2  0  0  0  0  0  0
  1  6  2  0  0  0  0
  1 14  1  0  0  0  0
  2  5  1  6  0  0  0
  2 13  1  0  0  0  0
  3  7  1  6  0  0  0
  3  2  1  0  0  0  0
  3 19  1  0  0  0  0
  4  7  1  0  0  0  0
  4 15  2  0  0  0  0
  5 16  1  0  0  0  0
  6 17  1  0  0  0  0
  8 23  1  1  0  0  0
  9  1  1  0  0  0  0
 10 18  1  0  0  0  0
 11  4  1  0  0  0  0
 12  8  1  0  0  0  0
 13  8  1  0  0  0  0
 13 18  1  1  0  0  0
 14  5  2  0  0  0  0
 15 20  1  0  0  0  0
 16 12  1  0  0  0  0
 17 16  2  0  0  0  0
 19 20  1  6  0  0  0
 19 10  1  0  0  0  0
 21 22  2  0  0  0  0
 23 22  1  0  0  0  0
 24 27  1  6  0  0  0
 28 25  1  0  0  0  0
 28 24  1  0  0  0  0
 29 26  1  6  0  0  0
 30 22  1  6  0  0  0
 30 29  1  0  0  0  0
 30 25  1  0  0  0  0
 31 29  1  0  0  0  0
 31 24  1  0  0  0  0
M  END
>  <MODEL>
9

>  <REMARK>
 VINA RESULT:      -4.5      5.837      8.079
  Name = 
  2 active torsions:
  status: ('A' for Active; 'I' for Inactive)
    1  A    between atoms: C_5  and  C_30
    2  A    between atoms: C_10  and  N_16
                            x       y       z     vdW  Elec       q    Type
                         _______ _______ _______ _____ _____    ______ ____

>  <TORSDO>
F 2

$$$$
