=
 OpenBabel11122414163D

 34 42  0  0  1  0  0  0  0  0999 V2000
  161.9940  208.8440  150.6920 C   0  0  1  0  0  3  0  0  0  0  0  0
  161.7050  210.7790  152.4300 C   0  0  0  0  0  3  0  0  0  0  0  0
  160.6170  202.3930  149.0820 C   0  0  2  0  0  0  0  0  0  0  0  0
  161.5770  206.9800  149.1340 N   0  0  0  0  0  0  0  0  0  0  0  0
  160.7150  204.7980  150.0470 C   0  0  0  0  0  0  0  0  0  0  0  0
  160.6340  202.4050  150.6020 C   0  0  2  0  0  3  0  0  0  0  0  0
  160.5700  201.0930  149.8520 C   0  0  0  0  0  2  0  0  0  0  0  0
  161.7610  203.5450  147.4460 C   0  0  0  0  0  2  0  0  0  0  0  0
  161.1140  208.6180  153.0460 C   0  0  0  0  0  0  0  0  0  0  0  0
  160.4180  207.7230  155.8880 C   0  0  0  0  0  3  0  0  0  0  0  0
  160.6560  205.3410  151.2300 N   0  0  0  0  0  0  0  0  0  0  0  0
  161.8430  204.9910  147.8150 C   0  0  0  0  0  3  0  0  0  0  0  0
  160.7810  207.1570  152.8940 C   0  0  1  0  0  3  0  0  0  0  0  0
  161.2010  210.7390  153.8000 N   0  0  0  0  0  0  0  0  0  0  0  0
  161.3650  205.5640  148.9330 C   0  0  0  0  0  0  0  0  0  0  0  0
  161.9550  202.7070  148.6160 N   0  0  0  0  0  2  0  0  0  0  0  0
  160.2550  208.9500  155.3760 C   0  0  0  0  0  0  0  0  0  0  0  0
  161.1650  207.5910  150.4050 C   0  0  1  0  0  3  0  0  0  0  0  0
  159.9330  203.5240  149.8470 C   0  0  2  0  0  3  0  0  0  0  0  0
  161.3200  206.5990  151.5630 C   0  0  2  0  0  3  0  0  0  0  0  0
  162.1940  209.1470  148.2370 C   0  0  0  0  0  3  0  0  0  0  0  0
  161.1640  206.5900  155.3090 C   0  0  0  0  0  3  0  0  0  0  0  0
  162.0530  207.8270  148.0660 C   0  0  0  0  0  3  0  0  0  0  0  0
  161.3630  206.3520  154.0120 C   0  0  0  0  0  3  0  0  0  0  0  0
  160.8710  209.3840  154.0960 C   0  0  0  0  0  0  0  0  0  0  0  0
  161.8130  209.8150  149.5290 C   0  0  0  0  0  2  0  0  0  0  0  0
  161.5450  209.4150  151.9550 N   0  0  0  0  0  0  0  0  0  0  0  0
  159.4840  209.8720  156.1560 N   0  0  0  0  0  2  0  0  0  0  0  0
  158.2110  210.2260  155.8480 O   0  0  0  0  0  0  0  0  0  0  0  0
  156.4010  212.2830  154.3530 O   0  0  0  0  0  0  0  0  0  0  0  0
  157.2570  212.2750  156.5550 C   0  0  0  0  0  2  0  0  0  0  0  0
  158.2580  211.6110  155.6530 C   0  0  2  0  0  3  0  0  0  0  0  0
  156.2580  212.8940  155.6060 C   0  0  0  0  0  2  0  0  0  0  0  0
  157.7580  211.9420  154.2660 C   0  0  0  0  0  2  0  0  0  0  0  0
  1 26  1  6  0  0  0
  1 27  1  0  0  0  0
  2 14  2  0  0  0  0
  3 19  1  0  0  0  0
  3  7  1  6  0  0  0
  3  6  1  0  0  0  0
  5 11  2  0  0  0  0
  6  7  1  1  0  0  0
  8 12  1  0  0  0  0
  8 16  1  0  0  0  0
  9 25  2  0  0  0  0
 12 15  2  0  0  0  0
 13  9  1  0  0  0  0
 13 24  1  1  0  0  0
 14 25  1  0  0  0  0
 15  4  1  0  0  0  0
 15  5  1  0  0  0  0
 16  3  1  0  0  0  0
 17 10  2  0  0  0  0
 17 28  1  0  0  0  0
 18  4  1  6  0  0  0
 18  1  1  0  0  0  0
 18 20  1  0  0  0  0
 19  5  1  6  0  0  0
 19  6  1  0  0  0  0
 20 11  1  6  0  0  0
 20 13  1  0  0  0  0
 21 26  1  0  0  0  0
 22 10  1  0  0  0  0
 23 21  2  0  0  0  0
 23  4  1  0  0  0  0
 24 22  2  0  0  0  0
 25 17  1  0  0  0  0
 27  2  1  0  0  0  0
 27  9  1  0  0  0  0
 29 28  1  0  0  0  0
 30 33  1  0  0  0  0
 32 29  1  1  0  0  0
 32 31  1  0  0  0  0
 33 31  1  0  0  0  0
 34 30  1  0  0  0  0
 34 32  1  0  0  0  0
M  END
>  <MODEL>
1

>  <REMARK>
 VINA RESULT:      -8.0      0.000      0.000
  Name = 
  3 active torsions:
  status: ('A' for Active; 'I' for Inactive)
    1  A    between atoms: C_17  and  N_28
    2  A    between atoms: N_28  and  O_29
    3  A    between atoms: O_29  and  C_32
                            x       y       z     vdW  Elec       q    Type
                         _______ _______ _______ _____ _____    ______ ____

>  <TORSDO>
F 3

$$$$
=
 OpenBabel11122414163D

 34 42  0  0  1  0  0  0  0  0999 V2000
  161.9720  208.8830  150.7790 C   0  0  1  0  0  3  0  0  0  0  0  0
  161.6700  210.7640  152.5730 C   0  0  0  0  0  3  0  0  0  0  0  0
  160.6710  202.4590  149.0010 C   0  0  2  0  0  0  0  0  0  0  0  0
  161.5670  207.0570  149.1730 N   0  0  0  0  0  0  0  0  0  0  0  0
  160.7440  204.8380  150.0320 C   0  0  0  0  0  0  0  0  0  0  0  0
  160.7020  202.4290  150.5200 C   0  0  2  0  0  3  0  0  0  0  0  0
  160.6500  201.1380  149.7340 C   0  0  0  0  0  2  0  0  0  0  0  0
  161.7850  203.6730  147.3880 C   0  0  0  0  0  2  0  0  0  0  0  0
  161.1150  208.5790  153.1330 C   0  0  0  0  0  0  0  0  0  0  0  0
  160.4580  207.5950  155.9540 C   0  0  0  0  0  3  0  0  0  0  0  0
  160.6880  205.3470  151.2300 N   0  0  0  0  0  0  0  0  0  0  0  0
  161.8500  205.1090  147.7960 C   0  0  0  0  0  3  0  0  0  0  0  0
  160.8020  207.1180  152.9430 C   0  0  1  0  0  3  0  0  0  0  0  0
  161.1790  210.6790  153.9450 N   0  0  0  0  0  0  0  0  0  0  0  0
  161.3730  205.6440  148.9340 C   0  0  0  0  0  0  0  0  0  0  0  0
  162.0010  202.8060  148.5320 N   0  0  0  0  0  2  0  0  0  0  0  0
  160.2720  208.8330  155.4780 C   0  0  0  0  0  0  0  0  0  0  0  0
  161.1570  207.6270  150.4640 C   0  0  1  0  0  3  0  0  0  0  0  0
  159.9790  203.5580  149.8030 C   0  0  2  0  0  3  0  0  0  0  0  0
  161.3370  206.6050  151.5920 C   0  0  2  0  0  3  0  0  0  0  0  0
  162.1450  209.2560  148.3320 C   0  0  0  0  0  3  0  0  0  0  0  0
  161.2150  206.4890  155.3380 C   0  0  0  0  0  3  0  0  0  0  0  0
  162.0210  207.9400  148.1250 C   0  0  0  0  0  3  0  0  0  0  0  0
  161.4060  206.2900  154.0330 C   0  0  0  0  0  3  0  0  0  0  0  0
  160.8710  209.3110  154.2050 C   0  0  0  0  0  0  0  0  0  0  0  0
  161.7660  209.8830  149.6450 C   0  0  0  0  0  2  0  0  0  0  0  0
  161.5250  209.4110  152.0610 N   0  0  0  0  0  0  0  0  0  0  0  0
  159.4960  209.7210  156.2900 N   0  0  0  0  0  2  0  0  0  0  0  0
  160.0460  210.6480  157.1160 O   0  0  0  0  0  0  0  0  0  0  0  0
  159.7380  213.3950  155.6680 O   0  0  0  0  0  0  0  0  0  0  0  0
  158.2140  211.6150  155.9680 C   0  0  0  0  0  2  0  0  0  0  0  0
  159.1080  211.6840  157.1730 C   0  0  2  0  0  3  0  0  0  0  0  0
  158.5140  212.8880  155.2120 C   0  0  0  0  0  2  0  0  0  0  0  0
  159.8130  213.0110  157.0140 C   0  0  0  0  0  2  0  0  0  0  0  0
  1 26  1  6  0  0  0
  1 27  1  0  0  0  0
  2 14  2  0  0  0  0
  3  7  1  6  0  0  0
  3 19  1  0  0  0  0
  3  6  1  0  0  0  0
  5 11  2  0  0  0  0
  6  7  1  1  0  0  0
  8 12  1  0  0  0  0
  8 16  1  0  0  0  0
  9 25  2  0  0  0  0
 12 15  2  0  0  0  0
 13  9  1  0  0  0  0
 13 24  1  1  0  0  0
 14 25  1  0  0  0  0
 15  4  1  0  0  0  0
 15  5  1  0  0  0  0
 16  3  1  0  0  0  0
 17 10  2  0  0  0  0
 17 28  1  0  0  0  0
 18  4  1  6  0  0  0
 18  1  1  0  0  0  0
 18 20  1  0  0  0  0
 19  5  1  6  0  0  0
 19  6  1  0  0  0  0
 20 11  1  6  0  0  0
 20 13  1  0  0  0  0
 21 26  1  0  0  0  0
 22 10  1  0  0  0  0
 23 21  2  0  0  0  0
 23  4  1  0  0  0  0
 24 22  2  0  0  0  0
 25 17  1  0  0  0  0
 27  2  1  0  0  0  0
 27  9  1  0  0  0  0
 28 29  1  0  0  0  0
 30 34  1  0  0  0  0
 31 32  1  0  0  0  0
 32 29  1  6  0  0  0
 33 30  1  0  0  0  0
 33 31  1  0  0  0  0
 34 32  1  0  0  0  0
M  END
>  <MODEL>
2

>  <REMARK>
 VINA RESULT:      -8.0      0.927      1.119
  Name = 
  3 active torsions:
  status: ('A' for Active; 'I' for Inactive)
    1  A    between atoms: C_17  and  N_28
    2  A    between atoms: N_28  and  O_29
    3  A    between atoms: O_29  and  C_32
                            x       y       z     vdW  Elec       q    Type
                         _______ _______ _______ _____ _____    ______ ____

>  <TORSDO>
F 3

$$$$
=
 OpenBabel11122414163D

 34 42  0  0  1  0  0  0  0  0999 V2000
  161.1960  207.0220  154.3270 C   0  0  1  0  0  3  0  0  0  0  0  0
  161.8140  204.8680  152.9760 C   0  0  0  0  0  3  0  0  0  0  0  0
  158.5710  213.2830  154.1590 C   0  0  2  0  0  0  0  0  0  0  0  0
  160.0050  208.9630  155.2740 N   0  0  0  0  0  0  0  0  0  0  0  0
  159.3060  210.8310  153.7390 C   0  0  0  0  0  0  0  0  0  0  0  0
  159.1640  213.0880  152.7730 C   0  0  2  0  0  3  0  0  0  0  0  0
  158.6680  214.4500  153.2040 C   0  0  0  0  0  2  0  0  0  0  0  0
  159.1360  212.5580  156.2730 C   0  0  0  0  0  2  0  0  0  0  0  0
  161.2530  206.8000  151.8140 C   0  0  0  0  0  0  0  0  0  0  0  0
  161.5870  207.2040  148.8000 C   0  0  0  0  0  2  0  0  0  0  0  0
  159.7630  210.1450  152.7300 N   0  0  0  0  0  0  0  0  0  0  0  0
  159.5190  211.1140  156.2230 C   0  0  0  0  0  3  0  0  0  0  0  0
  160.7200  208.1880  151.5740 C   0  0  1  0  0  3  0  0  0  0  0  0
  161.8660  204.6510  151.5330 N   0  0  0  0  0  0  0  0  0  0  0  0
  159.5700  210.3330  155.1290 C   0  0  0  0  0  0  0  0  0  0  0  0
  159.6600  213.2670  155.1190 N   0  0  0  0  0  2  0  0  0  0  0  0
  161.3860  206.0400  149.4310 C   0  0  0  0  0  0  0  0  0  0  0  0
  160.1800  208.1370  154.0710 C   0  0  1  0  0  3  0  0  0  0  0  0
  158.3640  211.9650  153.4170 C   0  0  2  0  0  3  0  0  0  0  0  0
  160.6450  208.9910  152.8860 C   0  0  2  0  0  3  0  0  0  0  0  0
  160.4840  207.0640  156.7040 C   0  0  0  0  0  3  0  0  0  0  0  0
  161.9210  208.5120  149.3940 C   0  0  0  0  0  3  0  0  0  0  0  0
  160.1360  208.3490  156.5740 C   0  0  0  0  0  3  0  0  0  0  0  0
  161.5840  208.9390  150.6110 C   0  0  0  0  0  3  0  0  0  0  0  0
  161.5170  205.8810  150.9020 C   0  0  0  0  0  0  0  0  0  0  0  0
  160.7020  206.1850  155.5040 C   0  0  0  0  0  2  0  0  0  0  0  0
  161.3280  206.2320  153.1100 N   0  0  0  0  0  0  0  0  0  0  0  0
  161.0810  204.9090  148.6060 N   0  0  0  0  0  0  0  0  0  0  0  0
  161.1150  204.9450  147.2500 O   0  0  0  0  0  0  0  0  0  0  0  0
  160.4240  201.9030  147.1390 O   0  0  0  0  0  0  0  0  0  0  0  0
  161.3560  203.3470  145.5180 C   0  0  0  0  0  2  0  0  0  0  0  0
  161.8180  203.7950  146.8750 C   0  0  2  0  0  3  0  0  0  0  0  0
  160.7100  202.0050  145.7720 C   0  0  0  0  0  2  0  0  0  0  0  0
  161.4260  202.6480  147.7780 C   0  0  0  0  0  2  0  0  0  0  0  0
  1 26  1  1  0  0  0
  2 27  1  0  0  0  0
  3  7  1  1  0  0  0
  3 16  1  0  0  0  0
  4 23  1  0  0  0  0
  5 15  1  0  0  0  0
  6  7  1  6  0  0  0
  6 19  1  0  0  0  0
  6  3  1  0  0  0  0
  9 27  1  0  0  0  0
 10 22  1  0  0  0  0
 10 17  1  0  0  0  0
 11  5  2  0  0  0  0
 12  8  1  0  0  0  0
 13 24  1  6  0  0  0
 13  9  1  0  0  0  0
 13 20  1  0  0  0  0
 14  2  2  0  0  0  0
 15  4  1  0  0  0  0
 15 12  2  0  0  0  0
 16  8  1  0  0  0  0
 17 25  1  0  0  0  0
 18  1  1  0  0  0  0
 18  4  1  1  0  0  0
 19  5  1  1  0  0  0
 19  3  1  0  0  0  0
 20 11  1  6  0  0  0
 20 18  1  0  0  0  0
 22 24  2  0  0  0  0
 23 21  2  0  0  0  0
 25 14  1  0  0  0  0
 25  9  2  0  0  0  0
 26 21  1  0  0  0  0
 27  1  1  0  0  0  0
 28 17  2  0  0  0  0
 29 28  1  0  0  0  0
 30 34  1  0  0  0  0
 31 33  1  0  0  0  0
 31 32  1  0  0  0  0
 32 29  1  1  0  0  0
 32 34  1  0  0  0  0
 33 30  1  0  0  0  0
M  END
>  <MODEL>
3

>  <REMARK>
 VINA RESULT:      -7.7      3.175      9.092
  Name = 
  3 active torsions:
  status: ('A' for Active; 'I' for Inactive)
    1  A    between atoms: C_17  and  N_28
    2  A    between atoms: N_28  and  O_29
    3  A    between atoms: O_29  and  C_32
                            x       y       z     vdW  Elec       q    Type
                         _______ _______ _______ _____ _____    ______ ____

>  <TORSDO>
F 3

$$$$
=
 OpenBabel11122414163D

 34 42  0  0  1  0  0  0  0  0999 V2000
  160.7330  204.3590  151.5450 C   0  0  1  0  0  3  0  0  0  0  0  0
  160.9470  205.6400  153.8170 C   0  0  0  0  0  3  0  0  0  0  0  0
  161.9030  204.4110  144.8560 C   0  0  2  0  0  0  0  0  0  0  0  0
  161.2060  203.3190  149.3600 N   0  0  0  0  0  0  0  0  0  0  0  0
  161.8410  204.7930  147.4210 C   0  0  0  0  0  0  0  0  0  0  0  0
  161.7260  205.8760  145.2170 C   0  0  2  0  0  3  0  0  0  0  0  0
  161.7940  205.4530  143.7670 C   0  0  0  0  0  2  0  0  0  0  0  0
  161.0050  202.4360  145.6370 C   0  0  0  0  0  2  0  0  0  0  0  0
  161.3460  206.7890  151.8380 C   0  0  0  0  0  0  0  0  0  0  0  0
  161.6850  209.8210  151.5970 C   0  0  0  0  0  3  0  0  0  0  0  0
  161.8050  205.8220  148.2180 N   0  0  0  0  0  0  0  0  0  0  0  0
  160.9670  202.4580  147.1310 C   0  0  0  0  0  3  0  0  0  0  0  0
  161.6090  207.0090  150.3710 C   0  0  1  0  0  3  0  0  0  0  0  0
  161.3000  207.0330  154.0770 N   0  0  0  0  0  0  0  0  0  0  0  0
  161.3560  203.4670  147.9300 C   0  0  0  0  0  0  0  0  0  0  0  0
  160.6410  203.7340  145.0970 N   0  0  0  0  0  2  0  0  0  0  0  0
  161.9710  209.0690  152.6680 C   0  0  0  0  0  0  0  0  0  0  0  0
  161.5160  204.4590  150.2340 C   0  0  1  0  0  3  0  0  0  0  0  0
  162.5650  204.9760  146.1100 C   0  0  2  0  0  3  0  0  0  0  0  0
  161.1830  205.7840  149.5390 C   0  0  2  0  0  3  0  0  0  0  0  0
  160.8120  201.8930  151.2810 C   0  0  0  0  0  3  0  0  0  0  0  0
  160.9410  209.4280  150.3860 C   0  0  0  0  0  3  0  0  0  0  0  0
  160.8950  202.0400  149.9540 C   0  0  0  0  0  3  0  0  0  0  0  0
  160.8670  208.2040  149.8630 C   0  0  0  0  0  3  0  0  0  0  0  0
  161.5200  207.6610  152.8150 C   0  0  0  0  0  0  0  0  0  0  0  0
  161.0910  203.0360  152.2160 C   0  0  0  0  0  2  0  0  0  0  0  0
  161.0790  205.5050  152.3750 N   0  0  0  0  0  0  0  0  0  0  0  0
  162.7060  209.7050  153.7200 N   0  0  0  0  0  2  0  0  0  0  0  0
  162.1970  210.7040  154.4860 O   0  0  0  0  0  0  0  0  0  0  0  0
  161.2170  211.7610  157.2540 O   0  0  0  0  0  0  0  0  0  0  0  0
  160.4080  210.0190  155.8780 C   0  0  0  0  0  2  0  0  0  0  0  0
  161.8990  210.1020  155.7130 C   0  0  2  0  0  3  0  0  0  0  0  0
  160.1170  210.9160  157.0580 C   0  0  0  0  0  2  0  0  0  0  0  0
  162.3290  211.0140  156.8380 C   0  0  0  0  0  2  0  0  0  0  0  0
  1 26  1  1  0  0  0
  1 27  1  0  0  0  0
  2 14  2  0  0  0  0
  3  7  1  6  0  0  0
  3 16  1  0  0  0  0
  3  6  1  0  0  0  0
  3 19  1  0  0  0  0
  4 23  1  0  0  0  0
  5 15  1  0  0  0  0
  5 11  2  0  0  0  0
  6  7  1  6  0  0  0
  6 19  1  0  0  0  0
  8 12  1  0  0  0  0
  9 27  1  0  0  0  0
  9 25  2  0  0  0  0
 10 17  2  0  0  0  0
 12 15  2  0  0  0  0
 13 24  1  6  0  0  0
 13  9  1  0  0  0  0
 15  4  1  0  0  0  0
 16  8  1  0  0  0  0
 17 25  1  0  0  0  0
 17 28  1  0  0  0  0
 18  4  1  6  0  0  0
 18  1  1  0  0  0  0
 19  5  1  1  0  0  0
 20 11  1  6  0  0  0
 20 18  1  0  0  0  0
 20 13  1  0  0  0  0
 21 26  1  0  0  0  0
 22 10  1  0  0  0  0
 23 21  2  0  0  0  0
 24 22  2  0  0  0  0
 25 14  1  0  0  0  0
 27  2  1  0  0  0  0
 28 29  1  0  0  0  0
 31 33  1  0  0  0  0
 32 29  1  6  0  0  0
 32 31  1  0  0  0  0
 32 34  1  0  0  0  0
 33 30  1  0  0  0  0
 34 30  1  0  0  0  0
M  END
>  <MODEL>
4

>  <REMARK>
 VINA RESULT:      -6.9      2.192      4.585
  Name = 
  3 active torsions:
  status: ('A' for Active; 'I' for Inactive)
    1  A    between atoms: C_17  and  N_28
    2  A    between atoms: N_28  and  O_29
    3  A    between atoms: O_29  and  C_32
                            x       y       z     vdW  Elec       q    Type
                         _______ _______ _______ _____ _____    ______ ____

>  <TORSDO>
F 3

$$$$
=
 OpenBabel11122414163D

 34 42  0  0  1  0  0  0  0  0999 V2000
  161.3120  208.4900  149.3920 C   0  0  1  0  0  3  0  0  0  0  0  0
  161.6930  207.1320  147.1880 C   0  0  0  0  0  3  0  0  0  0  0  0
  160.9080  208.3350  156.1690 C   0  0  2  0  0  0  0  0  0  0  0  0
  161.5350  209.4370  151.6570 N   0  0  0  0  0  0  0  0  0  0  0  0
  161.3230  207.9070  153.6450 C   0  0  0  0  0  0  0  0  0  0  0  0
  160.4470  206.9530  155.7340 C   0  0  2  0  0  3  0  0  0  0  0  0
  160.2960  207.3870  157.1750 C   0  0  0  0  0  2  0  0  0  0  0  0
  160.7410  210.4490  155.2670 C   0  0  0  0  0  2  0  0  0  0  0  0
  161.3330  205.9770  149.1710 C   0  0  0  0  0  0  0  0  0  0  0  0
  160.8260  202.9670  149.3900 C   0  0  0  0  0  3  0  0  0  0  0  0
  161.2050  206.8990  152.8290 N   0  0  0  0  0  0  0  0  0  0  0  0
  161.0330  210.3940  153.8020 C   0  0  0  0  0  3  0  0  0  0  0  0
  161.1980  205.7390  150.6520 C   0  0  1  0  0  3  0  0  0  0  0  0
  161.7280  205.6890  146.9720 N   0  0  0  0  0  0  0  0  0  0  0  0
  161.3200  209.2970  153.0790 C   0  0  0  0  0  0  0  0  0  0  0  0
  159.9470  209.3040  155.6730 N   0  0  0  0  0  2  0  0  0  0  0  0
  161.5250  203.5900  148.4330 C   0  0  0  0  0  0  0  0  0  0  0  0
  161.7300  208.2320  150.8410 C   0  0  1  0  0  3  0  0  0  0  0  0
  161.6660  207.5830  155.0780 C   0  0  2  0  0  3  0  0  0  0  0  0
  160.9240  207.0560  151.4040 C   0  0  2  0  0  3  0  0  0  0  0  0
  161.9560  210.8610  149.7400 C   0  0  0  0  0  3  0  0  0  0  0  0
  159.9550  203.5710  150.4170 C   0  0  0  0  0  3  0  0  0  0  0  0
  161.7000  210.7360  151.0470 C   0  0  0  0  0  3  0  0  0  0  0  0
  160.0810  204.7880  150.9460 C   0  0  0  0  0  3  0  0  0  0  0  0
  161.4920  205.0610  148.2310 C   0  0  0  0  0  0  0  0  0  0  0  0
  162.1360  209.6580  148.8570 C   0  0  0  0  0  2  0  0  0  0  0  0
  161.5300  207.2700  148.6260 N   0  0  0  0  0  0  0  0  0  0  0  0
  162.2890  202.7570  147.5530 N   0  0  0  0  0  2  0  0  0  0  0  0
  161.8660  202.3960  146.3150 O   0  0  0  0  0  0  0  0  0  0  0  0
  160.4560  200.1960  144.6080 O   0  0  0  0  0  0  0  0  0  0  0  0
  161.3330  200.1410  146.8010 C   0  0  0  0  0  2  0  0  0  0  0  0
  160.7990  201.5200  146.5380 C   0  0  2  0  0  3  0  0  0  0  0  0
  160.8310  199.3210  145.6360 C   0  0  0  0  0  2  0  0  0  0  0  0
  160.0080  201.3540  145.2610 C   0  0  0  0  0  2  0  0  0  0  0  0
  1 26  1  6  0  0  0
  1 18  1  0  0  0  0
  2 27  1  0  0  0  0
  3  7  1  1  0  0  0
  4 15  1  0  0  0  0
  6  3  1  0  0  0  0
  6  7  1  1  0  0  0
  8 16  1  0  0  0  0
  9 13  1  0  0  0  0
 10 22  1  0  0  0  0
 11  5  2  0  0  0  0
 12  8  1  0  0  0  0
 13 24  1  6  0  0  0
 13 20  1  0  0  0  0
 14  2  2  0  0  0  0
 14 25  1  0  0  0  0
 15  5  1  0  0  0  0
 15 12  2  0  0  0  0
 16  3  1  0  0  0  0
 17 10  2  0  0  0  0
 18 20  1  0  0  0  0
 18  4  1  1  0  0  0
 19  5  1  6  0  0  0
 19  6  1  0  0  0  0
 19  3  1  0  0  0  0
 20 11  1  1  0  0  0
 21 23  2  0  0  0  0
 22 24  2  0  0  0  0
 23  4  1  0  0  0  0
 25 17  1  0  0  0  0
 25  9  2  0  0  0  0
 26 21  1  0  0  0  0
 27  9  1  0  0  0  0
 27  1  1  0  0  0  0
 28 17  1  0  0  0  0
 29 28  1  0  0  0  0
 30 34  1  0  0  0  0
 30 33  1  0  0  0  0
 32 29  1  6  0  0  0
 32 31  1  0  0  0  0
 33 31  1  0  0  0  0
 34 32  1  0  0  0  0
M  END
>  <MODEL>
5

>  <REMARK>
 VINA RESULT:      -6.8      3.773      8.671
  Name = 
  3 active torsions:
  status: ('A' for Active; 'I' for Inactive)
    1  A    between atoms: C_17  and  N_28
    2  A    between atoms: N_28  and  O_29
    3  A    between atoms: O_29  and  C_32
                            x       y       z     vdW  Elec       q    Type
                         _______ _______ _______ _____ _____    ______ ____

>  <TORSDO>
F 3

$$$$
=
 OpenBabel11122414163D

 34 42  0  0  1  0  0  0  0  0999 V2000
  162.1520  213.3380  145.7720 C   0  0  1  0  0  3  0  0  0  0  0  0
  163.0350  213.0040  143.3320 C   0  0  0  0  0  3  0  0  0  0  0  0
  156.7660  213.4260  149.9080 C   0  0  2  0  0  0  0  0  0  0  0  0
  161.0000  213.0490  147.9330 N   0  0  0  0  0  0  0  0  0  0  0  0
  158.4840  213.1090  147.9900 C   0  0  0  0  0  0  0  0  0  0  0  0
  156.2100  213.8510  148.5590 C   0  0  2  0  0  3  0  0  0  0  0  0
  155.3540  213.9530  149.8010 C   0  0  0  0  0  2  0  0  0  0  0  0
  158.7830  213.7170  150.9860 C   0  0  0  0  0  2  0  0  0  0  0  0
  160.7490  213.2280  143.6780 C   0  0  0  0  0  0  0  0  0  0  0  0
  158.6610  213.6060  141.4730 C   0  0  0  0  0  3  0  0  0  0  0  0
  158.4780  213.2250  146.6930 N   0  0  0  0  0  0  0  0  0  0  0  0
  159.9040  213.4900  150.0240 C   0  0  0  0  0  3  0  0  0  0  0  0
  159.4420  213.2860  144.4230 C   0  0  1  0  0  3  0  0  0  0  0  0
  162.3000  212.9230  142.0730 N   0  0  0  0  0  0  0  0  0  0  0  0
  159.7940  213.1930  148.7170 C   0  0  0  0  0  0  0  0  0  0  0  0
  157.7010  214.4460  150.3490 N   0  0  0  0  0  2  0  0  0  0  0  0
  159.8370  212.9760  141.3580 C   0  0  0  0  0  0  0  0  0  0  0  0
  160.8890  212.8440  146.4820 C   0  0  1  0  0  3  0  0  0  0  0  0
  157.1880  212.6890  148.6400 C   0  0  2  0  0  3  0  0  0  0  0  0
  159.6660  213.5770  145.9200 C   0  0  2  0  0  3  0  0  0  0  0  0
  163.4070  212.7710  147.8370 C   0  0  0  0  0  3  0  0  0  0  0  0
  158.1900  214.4520  142.5860 C   0  0  0  0  0  3  0  0  0  0  0  0
  162.2980  212.9620  148.5600 C   0  0  0  0  0  3  0  0  0  0  0  0
  158.5490  214.3500  143.8660 C   0  0  0  0  0  3  0  0  0  0  0  0
  160.9140  213.0750  142.3760 C   0  0  0  0  0  0  0  0  0  0  0  0
  163.3490  212.5850  146.3460 C   0  0  0  0  0  2  0  0  0  0  0  0
  161.9950  213.1070  144.3420 N   0  0  0  0  0  0  0  0  0  0  0  0
  160.0440  212.2210  140.1580 N   0  0  0  0  0  2  0  0  0  0  0  0
  159.8000  210.8890  140.0640 O   0  0  0  0  0  0  0  0  0  0  0  0
  161.0000  208.1610  139.1370 O   0  0  0  0  0  0  0  0  0  0  0  0
  159.6070  209.7090  138.0200 C   0  0  0  0  0  2  0  0  0  0  0  0
  160.5190  210.4680  138.9410 C   0  0  2  0  0  3  0  0  0  0  0  0
  160.1680  208.3060  138.0200 C   0  0  0  0  0  2  0  0  0  0  0  0
  161.5420  209.4360  139.3560 C   0  0  0  0  0  2  0  0  0  0  0  0
  1 26  1  1  0  0  0
  1 18  1  0  0  0  0
  2 27  1  0  0  0  0
  3  7  1  1  0  0  0
  3 16  1  0  0  0  0
  4 23  1  0  0  0  0
  4 15  1  0  0  0  0
  5 15  1  0  0  0  0
  6 19  1  0  0  0  0
  6  7  1  1  0  0  0
  6  3  1  0  0  0  0
  9 27  1  0  0  0  0
  9 13  1  0  0  0  0
 10 22  1  0  0  0  0
 11  5  2  0  0  0  0
 12  8  1  0  0  0  0
 13 24  1  6  0  0  0
 13 20  1  0  0  0  0
 14 25  1  0  0  0  0
 14  2  2  0  0  0  0
 15 12  2  0  0  0  0
 16  8  1  0  0  0  0
 17 10  2  0  0  0  0
 17 25  1  0  0  0  0
 18  4  1  1  0  0  0
 19  5  1  6  0  0  0
 19  3  1  0  0  0  0
 20 18  1  0  0  0  0
 20 11  1  1  0  0  0
 21 23  2  0  0  0  0
 22 24  2  0  0  0  0
 25  9  2  0  0  0  0
 26 21  1  0  0  0  0
 27  1  1  0  0  0  0
 28 17  1  0  0  0  0
 29 28  1  0  0  0  0
 30 34  1  0  0  0  0
 31 32  1  0  0  0  0
 32 34  1  0  0  0  0
 32 29  1  1  0  0  0
 33 31  1  0  0  0  0
 33 30  1  0  0  0  0
M  END
>  <MODEL>
6

>  <REMARK>
 VINA RESULT:      -5.5      8.054     12.120
  Name = 
  3 active torsions:
  status: ('A' for Active; 'I' for Inactive)
    1  A    between atoms: C_17  and  N_28
    2  A    between atoms: N_28  and  O_29
    3  A    between atoms: O_29  and  C_32
                            x       y       z     vdW  Elec       q    Type
                         _______ _______ _______ _____ _____    ______ ____

>  <TORSDO>
F 3

$$$$
