=
 OpenBabel11122413233D

 31 35  0  0  1  0  0  0  0  0999 V2000
  162.6240  207.3920  139.5800 C   0  0  0  0  0  0  0  0  0  0  0  0
  161.0380  210.7090  140.5520 C   0  0  2  0  0  3  0  0  0  0  0  0
  161.7710  211.9160  140.0030 C   0  0  0  0  0  0  0  0  0  0  0  0
  163.7580  212.9310  139.0400 C   0  0  0  0  0  0  0  0  0  0  0  0
  161.3530  209.4410  139.8090 C   0  0  0  0  0  0  0  0  0  0  0  0
  161.9350  207.0970  138.3990 C   0  0  0  0  0  3  0  0  0  0  0  0
  163.0820  211.8040  139.5130 C   0  0  0  0  0  3  0  0  0  0  0  0
  158.7680  210.6850  139.2320 C   0  0  1  0  0  3  0  0  0  0  0  0
  163.5740  206.5440  140.0410 F   0  0  0  0  0  0  0  0  0  0  0  0
  159.8710  213.3370  140.5740 O   0  0  0  0  0  0  0  0  0  0  0  0
  165.1400  212.7980  138.5110 C   0  0  0  0  0  1  0  0  0  0  0  0
  159.6450  210.1050  138.1090 C   0  0  0  0  0  2  0  0  0  0  0  0
  159.5100  210.9340  140.5840 C   0  0  2  0  0  3  0  0  0  0  0  0
  162.3350  208.5650  140.2840 C   0  0  0  0  0  3  0  0  0  0  0  0
  163.1360  214.1820  139.0650 C   0  0  0  0  0  3  0  0  0  0  0  0
  160.6560  209.1380  138.6320 C   0  0  0  0  0  0  0  0  0  0  0  0
  160.9540  207.9720  137.9220 C   0  0  0  0  0  3  0  0  0  0  0  0
  159.1990  212.2770  141.2510 C   0  0  0  0  0  2  0  0  0  0  0  0
  161.1620  213.1880  140.0570 C   0  0  0  0  0  0  0  0  0  0  0  0
  161.8420  214.3100  139.5750 C   0  0  0  0  0  3  0  0  0  0  0  0
  155.9270  211.0670  139.1160 O   0  0  0  0  0  0  0  0  0  0  0  0
  156.6610  211.9970  138.6890 C   0  0  0  0  0  0  0  0  0  0  0  0
  158.0840  211.8790  138.7480 N   0  0  0  0  0  2  0  0  0  0  0  0
  153.8710  214.3070  139.8200 C   0  0  1  0  0  3  0  0  0  0  0  0
  156.2400  214.4520  139.0080 C   0  0  0  0  0  2  0  0  0  0  0  0
  154.3340  211.8920  137.0110 O   0  0  0  0  0  1  0  0  0  0  0  0
  152.9920  214.2780  141.0510 C   0  0  0  0  0  1  0  0  0  0  0  0
  155.3330  214.4180  140.2400 C   0  0  0  0  0  2  0  0  0  0  0  0
  154.5370  213.0520  137.7610 C   0  0  2  0  0  3  0  0  0  0  0  0
  156.0240  213.2280  138.1120 C   0  0  2  0  0  3  0  0  0  0  0  0
  153.6530  213.0350  139.0060 C   0  0  0  0  0  2  0  0  0  0  0  0
  1  9  1  0  0  0  0
  1 14  1  0  0  0  0
  2  5  1  6  0  0  0
  2 13  1  0  0  0  0
  3 19  1  0  0  0  0
  3  2  1  0  0  0  0
  4 15  2  0  0  0  0
  4  7  1  0  0  0  0
  5 14  2  0  0  0  0
  6  1  2  0  0  0  0
  7  3  2  0  0  0  0
  8 23  1  6  0  0  0
  8 13  1  0  0  0  0
 10 18  1  0  0  0  0
 11  4  1  0  0  0  0
 12 16  1  0  0  0  0
 12  8  1  0  0  0  0
 13 18  1  6  0  0  0
 15 20  1  0  0  0  0
 16  5  1  0  0  0  0
 17  6  1  0  0  0  0
 17 16  2  0  0  0  0
 19 10  1  0  0  0  0
 20 19  2  0  0  0  0
 22 23  1  0  0  0  0
 22 21  2  0  0  0  0
 24 28  1  0  0  0  0
 24 27  1  1  0  0  0
 25 28  1  0  0  0  0
 29 26  1  1  0  0  0
 29 30  1  0  0  0  0
 29 31  1  0  0  0  0
 30 22  1  1  0  0  0
 30 25  1  0  0  0  0
 31 24  1  0  0  0  0
M  END
>  <MODEL>
1

>  <REMARK>
 VINA RESULT:      -3.8      0.000      0.000
  Name = 
  2 active torsions:
  status: ('A' for Active; 'I' for Inactive)
    1  A    between atoms: C_5  and  C_30
    2  A    between atoms: C_10  and  N_16
                            x       y       z     vdW  Elec       q    Type
                         _______ _______ _______ _____ _____    ______ ____

>  <TORSDO>
F 2

$$$$
=
 OpenBabel11122413233D

 31 35  0  0  1  0  0  0  0  0999 V2000
  162.1740  206.2010  146.7930 C   0  0  0  0  0  0  0  0  0  0  0  0
  162.6180  208.6670  149.6530 C   0  0  2  0  0  3  0  0  0  0  0  0
  161.9280  209.9970  149.4200 C   0  0  0  0  0  0  0  0  0  0  0  0
  160.8970  211.6160  147.9310 C   0  0  0  0  0  0  0  0  0  0  0  0
  162.0710  207.5630  148.7930 C   0  0  0  0  0  0  0  0  0  0  0  0
  161.0240  205.5150  147.2010 C   0  0  0  0  0  3  0  0  0  0  0  0
  161.5010  210.3740  148.1370 C   0  0  0  0  0  3  0  0  0  0  0  0
  161.2430  207.5660  151.5990 C   0  0  1  0  0  3  0  0  0  0  0  0
  162.7790  205.8740  145.6270 F   0  0  0  0  0  0  0  0  0  0  0  0
  162.2320  210.5730  151.7720 O   0  0  0  0  0  0  0  0  0  0  0  0
  160.4350  211.9990  146.5710 C   0  0  0  0  0  1  0  0  0  0  0  0
  160.2410  207.2690  150.4700 C   0  0  0  0  0  2  0  0  0  0  0  0
  162.5690  208.2510  151.1390 C   0  0  2  0  0  3  0  0  0  0  0  0
  162.6960  207.2260  147.5870 C   0  0  0  0  0  3  0  0  0  0  0  0
  160.7250  212.4980  149.0010 C   0  0  0  0  0  3  0  0  0  0  0  0
  160.9270  206.8670  149.2060 C   0  0  0  0  0  0  0  0  0  0  0  0
  160.3980  205.8510  148.4050 C   0  0  0  0  0  3  0  0  0  0  0  0
  163.0310  209.4170  152.0190 C   0  0  0  0  0  2  0  0  0  0  0  0
  161.7830  210.9050  150.4890 C   0  0  0  0  0  0  0  0  0  0  0  0
  161.1700  212.1440  150.2760 C   0  0  0  0  0  3  0  0  0  0  0  0
  161.4810  207.0700  154.4150 O   0  0  0  0  0  0  0  0  0  0  0  0
  160.7120  207.9970  154.0470 C   0  0  0  0  0  0  0  0  0  0  0  0
  160.5730  208.3120  152.6590 N   0  0  0  0  0  2  0  0  0  0  0  0
  161.6660  210.4110  156.8140 C   0  0  1  0  0  3  0  0  0  0  0  0
  160.0700  210.2760  154.8840 C   0  0  0  0  0  2  0  0  0  0  0  0
  160.2210  206.9710  156.6830 O   0  0  0  0  0  1  0  0  0  0  0  0
  163.0160  210.9300  157.2610 C   0  0  0  0  0  1  0  0  0  0  0  0
  161.4320  210.7890  155.3550 C   0  0  0  0  0  2  0  0  0  0  0  0
  160.2660  208.3580  156.5280 C   0  0  2  0  0  3  0  0  0  0  0  0
  159.9370  208.7620  155.0810 C   0  0  2  0  0  3  0  0  0  0  0  0
  161.6230  208.8950  156.9770 C   0  0  0  0  0  2  0  0  0  0  0  0
  1  6  2  0  0  0  0
  1 14  1  0  0  0  0
  2  5  1  6  0  0  0
  2 13  1  0  0  0  0
  3  2  1  0  0  0  0
  3 19  1  0  0  0  0
  4  7  1  0  0  0  0
  4 15  2  0  0  0  0
  5 16  1  0  0  0  0
  6 17  1  0  0  0  0
  7  3  2  0  0  0  0
  8 23  1  1  0  0  0
  9  1  1  0  0  0  0
 10 18  1  0  0  0  0
 11  4  1  0  0  0  0
 12  8  1  0  0  0  0
 13  8  1  0  0  0  0
 13 18  1  1  0  0  0
 14  5  2  0  0  0  0
 15 20  1  0  0  0  0
 16 12  1  0  0  0  0
 17 16  2  0  0  0  0
 19 10  1  0  0  0  0
 20 19  2  0  0  0  0
 22 21  2  0  0  0  0
 23 22  1  0  0  0  0
 24 31  1  0  0  0  0
 24 27  1  6  0  0  0
 25 30  1  0  0  0  0
 25 28  1  0  0  0  0
 28 24  1  0  0  0  0
 29 26  1  6  0  0  0
 29 31  1  0  0  0  0
 30 22  1  6  0  0  0
 30 29  1  0  0  0  0
M  END
>  <MODEL>
2

>  <REMARK>
 VINA RESULT:      -3.7     11.607     13.556
  Name = 
  2 active torsions:
  status: ('A' for Active; 'I' for Inactive)
    1  A    between atoms: C_5  and  C_30
    2  A    between atoms: C_10  and  N_16
                            x       y       z     vdW  Elec       q    Type
                         _______ _______ _______ _____ _____    ______ ____

>  <TORSDO>
F 2

$$$$
=
 OpenBabel11122413233D

 31 35  0  0  1  0  0  0  0  0999 V2000
  161.2340  201.2830  149.2350 C   0  0  0  0  0  0  0  0  0  0  0  0
  162.2910  204.8720  149.9090 C   0  0  2  0  0  3  0  0  0  0  0  0
  161.7660  205.8620  148.8880 C   0  0  0  0  0  0  0  0  0  0  0  0
  160.8170  206.3500  146.7050 C   0  0  0  0  0  0  0  0  0  0  0  0
  161.5180  203.5850  149.9320 C   0  0  0  0  0  0  0  0  0  0  0  0
  160.0500  201.2040  149.9750 C   0  0  0  0  0  3  0  0  0  0  0  0
  161.2670  205.4260  147.6500 C   0  0  0  0  0  3  0  0  0  0  0  0
  160.9840  205.4680  152.1060 C   0  0  1  0  0  3  0  0  0  0  0  0
  161.6700  200.2070  148.5370 F   0  0  0  0  0  0  0  0  0  0  0  0
  162.3800  207.7120  150.3560 O   0  0  0  0  0  0  0  0  0  0  0  0
  160.2770  205.8770  145.4040 C   0  0  0  0  0  1  0  0  0  0  0  0
  159.8430  204.7080  151.4090 C   0  0  0  0  0  2  0  0  0  0  0  0
  162.3370  205.4850  151.3270 C   0  0  2  0  0  3  0  0  0  0  0  0
  161.9670  202.4730  149.2100 C   0  0  0  0  0  3  0  0  0  0  0  0
  160.8740  207.7190  146.9820 C   0  0  0  0  0  3  0  0  0  0  0  0
  160.3370  203.5000  150.6830 C   0  0  0  0  0  0  0  0  0  0  0  0
  159.5990  202.3140  150.6960 C   0  0  0  0  0  3  0  0  0  0  0  0
  163.0370  206.8460  151.2800 C   0  0  0  0  0  2  0  0  0  0  0  0
  161.8530  207.2460  149.1470 C   0  0  0  0  0  0  0  0  0  0  0  0
  161.3940  208.1650  148.1990 C   0  0  0  0  0  3  0  0  0  0  0  0
  161.5610  206.8540  154.5510 O   0  0  0  0  0  0  0  0  0  0  0  0
  160.8300  207.4360  153.7070 C   0  0  0  0  0  0  0  0  0  0  0  0
  160.5310  206.8100  152.4570 N   0  0  0  0  0  2  0  0  0  0  0  0
  162.1350  210.4460  155.6120 C   0  0  1  0  0  3  0  0  0  0  0  0
  161.0970  209.9140  153.3930 C   0  0  0  0  0  2  0  0  0  0  0  0
  159.3860  207.9750  156.1300 O   0  0  0  0  0  1  0  0  0  0  0  0
  163.4450  210.6760  156.3350 C   0  0  0  0  0  1  0  0  0  0  0  0
  162.4100  210.1460  154.1420 C   0  0  0  0  0  2  0  0  0  0  0  0
  160.0700  209.0370  155.5360 C   0  0  2  0  0  3  0  0  0  0  0  0
  160.2710  208.7920  154.0310 C   0  0  2  0  0  3  0  0  0  0  0  0
  161.3940  209.2800  156.2580 C   0  0  0  0  0  2  0  0  0  0  0  0
  1  6  1  0  0  0  0
  2  3  1  6  0  0  0
  2  5  1  0  0  0  0
  2 13  1  0  0  0  0
  3 19  1  0  0  0  0
  4 15  2  0  0  0  0
  4  7  1  0  0  0  0
  5 16  2  0  0  0  0
  6 17  2  0  0  0  0
  7  3  2  0  0  0  0
  8 23  1  6  0  0  0
  9  1  1  0  0  0  0
 10 18  1  0  0  0  0
 11  4  1  0  0  0  0
 12  8  1  0  0  0  0
 13 18  1  6  0  0  0
 13  8  1  0  0  0  0
 14  1  2  0  0  0  0
 14  5  1  0  0  0  0
 15 20  1  0  0  0  0
 16 17  1  0  0  0  0
 16 12  1  0  0  0  0
 19 10  1  0  0  0  0
 20 19  2  0  0  0  0
 22 21  2  0  0  0  0
 23 22  1  0  0  0  0
 24 31  1  0  0  0  0
 24 27  1  1  0  0  0
 25 30  1  0  0  0  0
 25 28  1  0  0  0  0
 28 24  1  0  0  0  0
 29 26  1  1  0  0  0
 29 31  1  0  0  0  0
 30 22  1  1  0  0  0
 30 29  1  0  0  0  0
M  END
>  <MODEL>
3

>  <REMARK>
 VINA RESULT:      -3.5     12.039     14.150
  Name = 
  2 active torsions:
  status: ('A' for Active; 'I' for Inactive)
    1  A    between atoms: C_5  and  C_30
    2  A    between atoms: C_10  and  N_16
                            x       y       z     vdW  Elec       q    Type
                         _______ _______ _______ _____ _____    ______ ____

>  <TORSDO>
F 2

$$$$
=
 OpenBabel11122413233D

 31 35  0  0  1  0  0  0  0  0999 V2000
  161.2540  204.9960  144.4850 C   0  0  0  0  0  0  0  0  0  0  0  0
  160.2860  205.0470  148.1620 C   0  0  2  0  0  3  0  0  0  0  0  0
  160.6940  203.7960  148.9150 C   0  0  0  0  0  0  0  0  0  0  0  0
  161.3930  201.4690  148.9350 C   0  0  0  0  0  0  0  0  0  0  0  0
  161.0540  205.2430  146.8860 C   0  0  0  0  0  0  0  0  0  0  0  0
  162.5140  205.6030  144.5270 C   0  0  0  0  0  3  0  0  0  0  0  0
  161.0500  202.6240  148.2290 C   0  0  0  0  0  3  0  0  0  0  0  0
  161.8320  206.9230  149.1520 C   0  0  1  0  0  3  0  0  0  0  0  0
  160.7410  204.5800  143.3030 F   0  0  0  0  0  0  0  0  0  0  0  0
  160.2520  204.9210  151.0350 O   0  0  0  0  0  0  0  0  0  0  0  0
  161.7830  200.2390  148.1990 C   0  0  0  0  0  1  0  0  0  0  0  0
  162.8860  206.2720  148.2400 C   0  0  0  0  0  2  0  0  0  0  0  0
  160.4000  206.3090  149.0450 C   0  0  2  0  0  3  0  0  0  0  0  0
  160.5250  204.8130  145.6640 C   0  0  0  0  0  3  0  0  0  0  0  0
  161.3700  201.4700  150.3320 C   0  0  0  0  0  3  0  0  0  0  0  0
  162.3120  205.8620  146.9240 C   0  0  0  0  0  0  0  0  0  0  0  0
  163.0450  206.0320  145.7470 C   0  0  0  0  0  3  0  0  0  0  0  0
  159.7020  206.0670  150.3870 C   0  0  0  0  0  2  0  0  0  0  0  0
  160.6390  203.7800  150.3240 C   0  0  0  0  0  0  0  0  0  0  0  0
  160.9910  202.6220  151.0240 C   0  0  0  0  0  3  0  0  0  0  0  0
  160.9490  208.6960  151.2270 O   0  0  0  0  0  0  0  0  0  0  0  0
  161.8620  207.8750  151.5080 C   0  0  0  0  0  0  0  0  0  0  0  0
  162.3240  206.9460  150.5250 N   0  0  0  0  0  2  0  0  0  0  0  0
  160.4450  207.5820  155.0150 C   0  0  1  0  0  3  0  0  0  0  0  0
  162.2500  206.5560  153.6090 C   0  0  0  0  0  2  0  0  0  0  0  0
  162.1270  210.2790  153.0560 O   0  0  0  0  0  1  0  0  0  0  0  0
  159.0220  207.4180  155.5040 C   0  0  0  0  0  1  0  0  0  0  0  0
  160.8130  206.4100  154.1110 C   0  0  0  0  0  2  0  0  0  0  0  0
  162.0050  209.0730  153.7500 C   0  0  2  0  0  3  0  0  0  0  0  0
  162.4640  207.8890  152.8830 C   0  0  2  0  0  3  0  0  0  0  0  0
  160.5730  208.8960  154.2500 C   0  0  0  0  0  2  0  0  0  0  0  0
  1  6  2  0  0  0  0
  1 14  1  0  0  0  0
  2  5  1  6  0  0  0
  2  3  1  0  0  0  0
  2 13  1  0  0  0  0
  3 19  1  0  0  0  0
  4 15  2  0  0  0  0
  5 16  1  0  0  0  0
  6 17  1  0  0  0  0
  7  3  2  0  0  0  0
  7  4  1  0  0  0  0
  8 23  1  1  0  0  0
  9  1  1  0  0  0  0
 11  4  1  0  0  0  0
 12  8  1  0  0  0  0
 13  8  1  0  0  0  0
 13 18  1  1  0  0  0
 14  5  2  0  0  0  0
 15 20  1  0  0  0  0
 16 12  1  0  0  0  0
 17 16  2  0  0  0  0
 18 10  1  0  0  0  0
 19 20  2  0  0  0  0
 19 10  1  0  0  0  0
 21 22  2  0  0  0  0
 23 22  1  0  0  0  0
 24 27  1  6  0  0  0
 25 28  1  0  0  0  0
 28 24  1  0  0  0  0
 29 26  1  6  0  0  0
 29 31  1  0  0  0  0
 30 22  1  6  0  0  0
 30 25  1  0  0  0  0
 30 29  1  0  0  0  0
 31 24  1  0  0  0  0
M  END
>  <MODEL>
4

>  <REMARK>
 VINA RESULT:      -3.1     10.944     13.524
  Name = 
  2 active torsions:
  status: ('A' for Active; 'I' for Inactive)
    1  A    between atoms: C_5  and  C_30
    2  A    between atoms: C_10  and  N_16
                            x       y       z     vdW  Elec       q    Type
                         _______ _______ _______ _____ _____    ______ ____

>  <TORSDO>
F 2

$$$$
=
 OpenBabel11122413233D

 31 35  0  0  1  0  0  0  0  0999 V2000
  162.2570  208.0980  150.9500 C   0  0  0  0  0  0  0  0  0  0  0  0
  161.5040  210.8470  153.4670 C   0  0  2  0  0  3  0  0  0  0  0  0
  160.4790  211.8520  152.9790 C   0  0  0  0  0  0  0  0  0  0  0  0
  159.2260  212.8950  151.1770 C   0  0  0  0  0  0  0  0  0  0  0  0
  161.4530  209.5450  152.7180 C   0  0  0  0  0  0  0  0  0  0  0  0
  161.3280  207.1220  151.3270 C   0  0  0  0  0  3  0  0  0  0  0  0
  160.1470  211.9420  151.6180 C   0  0  0  0  0  3  0  0  0  0  0  0
  160.2680  209.5600  155.3930 C   0  0  1  0  0  3  0  0  0  0  0  0
  163.0950  207.8700  149.9110 F   0  0  0  0  0  0  0  0  0  0  0  0
  160.2490  212.7260  155.2460 O   0  0  0  0  0  0  0  0  0  0  0  0
  158.8710  212.9720  149.7370 C   0  0  0  0  0  1  0  0  0  0  0  0
  159.5810  208.8450  154.2170 C   0  0  0  0  0  2  0  0  0  0  0  0
  161.3720  210.5870  154.9840 C   0  0  2  0  0  3  0  0  0  0  0  0
  162.3190  209.3110  151.6430 C   0  0  0  0  0  3  0  0  0  0  0  0
  158.6390  213.7760  152.0900 C   0  0  0  0  0  3  0  0  0  0  0  0
  160.5310  208.5620  153.1010 C   0  0  0  0  0  0  0  0  0  0  0  0
  160.4620  207.3550  152.3990 C   0  0  0  0  0  3  0  0  0  0  0  0
  161.3200  211.9210  155.7350 C   0  0  0  0  0  2  0  0  0  0  0  0
  159.9090  212.7670  153.8890 C   0  0  0  0  0  0  0  0  0  0  0  0
  158.9830  213.7130  153.4420 C   0  0  0  0  0  3  0  0  0  0  0  0
  157.7690  210.6850  154.5440 O   0  0  0  0  0  0  0  0  0  0  0  0
  158.0400  210.7210  155.7730 C   0  0  0  0  0  0  0  0  0  0  0  0
  159.2560  210.1500  156.2610 N   0  0  0  0  0  2  0  0  0  0  0  0
  155.4730  213.4930  155.4250 C   0  0  1  0  0  3  0  0  0  0  0  0
  155.6200  211.1450  156.2940 C   0  0  0  0  0  2  0  0  0  0  0  0
  158.6980  213.0870  157.2600 O   0  0  0  0  0  1  0  0  0  0  0  0
  155.0800  214.3430  154.2360 C   0  0  0  0  0  1  0  0  0  0  0  0
  155.2320  212.0220  155.1020 C   0  0  0  0  0  2  0  0  0  0  0  0
  157.3540  212.8710  156.9530 C   0  0  2  0  0  3  0  0  0  0  0  0
  157.0750  211.3770  156.7180 C   0  0  2  0  0  3  0  0  0  0  0  0
  156.9440  213.7250  155.7540 C   0  0  0  0  0  2  0  0  0  0  0  0
  1  6  2  0  0  0  0
  1 14  1  0  0  0  0
  2  5  1  6  0  0  0
  2 13  1  0  0  0  0
  3  2  1  0  0  0  0
  3 19  1  0  0  0  0
  4  7  1  0  0  0  0
  4 15  2  0  0  0  0
  5 16  1  0  0  0  0
  6 17  1  0  0  0  0
  7  3  2  0  0  0  0
  8 23  1  6  0  0  0
  9  1  1  0  0  0  0
 10 18  1  0  0  0  0
 11  4  1  0  0  0  0
 12  8  1  0  0  0  0
 13  8  1  0  0  0  0
 13 18  1  1  0  0  0
 14  5  2  0  0  0  0
 15 20  1  0  0  0  0
 16 12  1  0  0  0  0
 17 16  2  0  0  0  0
 19 10  1  0  0  0  0
 20 19  2  0  0  0  0
 21 22  2  0  0  0  0
 22 23  1  0  0  0  0
 24 27  1  6  0  0  0
 24 31  1  0  0  0  0
 25 30  1  0  0  0  0
 28 24  1  0  0  0  0
 28 25  1  0  0  0  0
 29 26  1  6  0  0  0
 30 22  1  6  0  0  0
 30 29  1  0  0  0  0
 31 29  1  0  0  0  0
M  END
>  <MODEL>
5

>  <REMARK>
 VINA RESULT:      -1.2     13.321     14.971
  Name = 
  2 active torsions:
  status: ('A' for Active; 'I' for Inactive)
    1  A    between atoms: C_5  and  C_30
    2  A    between atoms: C_10  and  N_16
                            x       y       z     vdW  Elec       q    Type
                         _______ _______ _______ _____ _____    ______ ____

>  <TORSDO>
F 2

$$$$
=
 OpenBabel11122413233D

 31 35  0  0  1  0  0  0  0  0999 V2000
  161.5530  202.9620  145.6350 C   0  0  0  0  0  0  0  0  0  0  0  0
  160.4540  205.1750  148.5240 C   0  0  2  0  0  3  0  0  0  0  0  0
  160.9350  204.6900  149.8780 C   0  0  0  0  0  0  0  0  0  0  0  0
  161.8180  202.9360  151.3080 C   0  0  0  0  0  0  0  0  0  0  0  0
  161.2490  204.6120  147.3810 C   0  0  0  0  0  0  0  0  0  0  0  0
  162.7570  203.5720  145.2680 C   0  0  0  0  0  3  0  0  0  0  0  0
  161.4090  203.3800  150.0490 C   0  0  0  0  0  3  0  0  0  0  0  0
  161.8080  207.3880  148.1190 C   0  0  1  0  0  3  0  0  0  0  0  0
  161.1180  201.8660  144.9680 F   0  0  0  0  0  0  0  0  0  0  0  0
  160.3280  206.8370  150.8690 O   0  0  0  0  0  0  0  0  0  0  0  0
  162.3320  201.5520  151.4740 C   0  0  0  0  0  1  0  0  0  0  0  0
  162.9420  206.4070  147.7780 C   0  0  0  0  0  2  0  0  0  0  0  0
  160.4340  206.7180  148.4440 C   0  0  2  0  0  3  0  0  0  0  0  0
  160.8000  203.4800  146.6930 C   0  0  0  0  0  3  0  0  0  0  0  0
  161.7450  203.7920  152.4100 C   0  0  0  0  0  3  0  0  0  0  0  0
  162.4500  205.2290  147.0040 C   0  0  0  0  0  0  0  0  0  0  0  0
  163.2080  204.7030  145.9550 C   0  0  0  0  0  3  0  0  0  0  0  0
  159.7110  207.2910  149.6650 C   0  0  0  0  0  2  0  0  0  0  0  0
  160.8310  205.5380  151.0000 C   0  0  0  0  0  0  0  0  0  0  0  0
  161.2510  205.0890  152.2560 C   0  0  0  0  0  3  0  0  0  0  0  0
  161.2450  210.1970  148.2780 O   0  0  0  0  0  0  0  0  0  0  0  0
  161.9570  209.6900  149.1850 C   0  0  0  0  0  0  0  0  0  0  0  0
  162.2470  208.2900  149.1780 N   0  0  0  0  0  2  0  0  0  0  0  0
  160.4440  211.3730  152.2300 C   0  0  1  0  0  3  0  0  0  0  0  0
  162.3960  209.9100  151.6480 C   0  0  0  0  0  2  0  0  0  0  0  0
  161.9180  212.5550  149.0110 O   0  0  0  0  0  1  0  0  0  0  0  0
  159.0280  211.3810  152.7640 C   0  0  0  0  0  1  0  0  0  0  0  0
  160.9630  209.9390  152.1820 C   0  0  0  0  0  2  0  0  0  0  0  0
  161.8930  211.9860  150.2850 C   0  0  2  0  0  3  0  0  0  0  0  0
  162.5020  210.5730  150.2700 C   0  0  2  0  0  3  0  0  0  0  0  0
  160.4680  211.9890  150.8350 C   0  0  0  0  0  2  0  0  0  0  0  0
  1 14  1  0  0  0  0
  2  5  1  6  0  0  0
  2  3  1  0  0  0  0
  3  7  2  0  0  0  0
  3 19  1  0  0  0  0
  4 11  1  0  0  0  0
  4 15  2  0  0  0  0
  6  1  2  0  0  0  0
  6 17  1  0  0  0  0
  7  4  1  0  0  0  0
  8 13  1  0  0  0  0
  8 23  1  1  0  0  0
  9  1  1  0  0  0  0
 10 19  1  0  0  0  0
 12  8  1  0  0  0  0
 13  2  1  0  0  0  0
 13 18  1  1  0  0  0
 14  5  2  0  0  0  0
 16  5  1  0  0  0  0
 16 12  1  0  0  0  0
 17 16  2  0  0  0  0
 18 10  1  0  0  0  0
 19 20  2  0  0  0  0
 20 15  1  0  0  0  0
 21 22  2  0  0  0  0
 23 22  1  0  0  0  0
 24 27  1  6  0  0  0
 25 28  1  0  0  0  0
 28 24  1  0  0  0  0
 29 26  1  6  0  0  0
 29 31  1  0  0  0  0
 30 22  1  6  0  0  0
 30 29  1  0  0  0  0
 30 25  1  0  0  0  0
 31 24  1  0  0  0  0
M  END
>  <MODEL>
6

>  <REMARK>
 VINA RESULT:      -1.2     10.477     12.344
  Name = 
  2 active torsions:
  status: ('A' for Active; 'I' for Inactive)
    1  A    between atoms: C_5  and  C_30
    2  A    between atoms: C_10  and  N_16
                            x       y       z     vdW  Elec       q    Type
                         _______ _______ _______ _____ _____    ______ ____

>  <TORSDO>
F 2

$$$$
