=
 OpenBabel11122413103D

 31 35  0  0  1  0  0  0  0  0999 V2000
  160.6000  207.9810  156.2990 C   0  0  0  0  0  0  0  0  0  0  0  0
  161.4440  208.9900  152.7780 N   0  0  0  0  0  0  0  0  0  0  0  0
  161.3850  207.8290  151.9130 C   0  0  0  0  0  0  0  0  0  0  0  0
  161.0050  205.4520  151.5520 C   0  0  0  0  0  0  0  0  0  0  0  0
  160.8630  208.9660  154.0980 C   0  0  0  0  0  0  0  0  0  0  0  0
  159.7080  208.9980  156.6520 C   0  0  0  0  0  3  0  0  0  0  0  0
  161.1310  206.5430  152.4160 C   0  0  0  0  0  3  0  0  0  0  0  0
  160.2340  211.0230  152.1720 C   0  0  2  0  0  3  0  0  0  0  0  0
  160.9200  206.9610  157.2370 N   0  0  0  0  0  1  0  0  0  0  0  0
  161.7600  209.2680  150.0020 O   0  0  0  0  0  0  0  0  0  0  0  0
  160.6910  203.8570  152.1980 Cl  0  0  0  0  0  0  0  0  0  0  0  0
  159.6760  211.0400  153.5250 N   0  0  0  0  0  2  0  0  0  0  0  0
  161.6010  210.3330  152.1940 C   0  0  2  0  0  3  0  0  0  0  0  0
  161.1800  207.9660  155.0270 C   0  0  0  0  0  3  0  0  0  0  0  0
  161.1120  205.6390  150.1710 C   0  0  0  0  0  3  0  0  0  0  0  0
  159.9670  209.9920  154.4600 C   0  0  0  0  0  0  0  0  0  0  0  0
  159.3930  210.0050  155.7340 C   0  0  0  0  0  3  0  0  0  0  0  0
  162.2920  210.2990  150.8250 C   0  0  0  0  0  2  0  0  0  0  0  0
  161.5080  208.0010  150.5220 C   0  0  0  0  0  0  0  0  0  0  0  0
  161.3610  206.9130  149.6570 C   0  0  0  0  0  3  0  0  0  0  0  0
  160.3220  212.4430  151.6370 C   0  0  0  0  0  2  0  0  0  0  0  0
  158.6080  214.0550  152.0850 O   0  0  0  0  0  1  0  0  0  0  0  0
  158.9290  212.9540  151.2900 C   0  0  1  0  0  3  0  0  0  0  0  0
  158.7830  214.0480  147.2000 C   0  0  0  0  0  0  0  0  0  0  0  0
  160.0020  213.4920  149.1980 C   0  0  0  0  0  3  0  0  0  0  0  0
  156.5400  213.3050  149.8520 O   0  0  0  0  0  0  0  0  0  0  0  0
  158.7590  214.4530  145.7700 C   0  0  0  0  0  1  0  0  0  0  0  0
  160.0000  213.8680  147.8550 C   0  0  0  0  0  3  0  0  0  0  0  0
  157.6260  213.4730  149.2350 C   0  0  0  0  0  0  0  0  0  0  0  0
  158.8310  213.2980  149.8690 N   0  0  0  0  0  0  0  0  0  0  0  0
  157.5900  213.8490  147.8900 C   0  0  0  0  0  3  0  0  0  0  0  0
  1  6  1  0  0  0  0
  1  9  1  0  0  0  0
  2  5  1  0  0  0  0
  3  7  1  0  0  0  0
  3  2  1  0  0  0  0
  4 11  1  0  0  0  0
  4  7  2  0  0  0  0
  5 16  2  0  0  0  0
  5 14  1  0  0  0  0
  8 21  1  1  0  0  0
  8 13  1  0  0  0  0
  8 12  1  0  0  0  0
 10 19  1  0  0  0  0
 10 18  1  0  0  0  0
 12 16  1  0  0  0  0
 13 18  1  6  0  0  0
 13  2  1  0  0  0  0
 14  1  2  0  0  0  0
 15  4  1  0  0  0  0
 16 17  1  0  0  0  0
 17  6  2  0  0  0  0
 19  3  2  0  0  0  0
 20 15  2  0  0  0  0
 20 19  1  0  0  0  0
 23 21  1  0  0  0  0
 23 22  1  1  0  0  0
 24 28  1  0  0  0  0
 24 31  2  0  0  0  0
 25 30  1  0  0  0  0
 27 24  1  0  0  0  0
 28 25  2  0  0  0  0
 29 26  2  0  0  0  0
 29 30  1  0  0  0  0
 30 23  1  0  0  0  0
 31 29  1  0  0  0  0
M  END
>  <MODEL>
1

>  <REMARK>
 VINA RESULT:      -7.2      0.000      0.000
  Name = 
  3 active torsions:
  status: ('A' for Active; 'I' for Inactive)
    1  A    between atoms: C_5  and  C_16
    2  A    between atoms: C_5  and  N_30
    3  A    between atoms: C_10  and  C_16
                            x       y       z     vdW  Elec       q    Type
                         _______ _______ _______ _____ _____    ______ ____

>  <TORSDO>
F 3

$$$$
=
 OpenBabel11122413103D

 31 35  0  0  1  0  0  0  0  0999 V2000
  162.1440  211.8180  148.8840 C   0  0  0  0  0  0  0  0  0  0  0  0
  161.1340  210.3830  152.2080 N   0  0  0  0  0  0  0  0  0  0  0  0
  160.0480  211.1640  152.7640 C   0  0  0  0  0  0  0  0  0  0  0  0
  158.4690  213.0120  152.6480 C   0  0  0  0  0  0  0  0  0  0  0  0
  161.5030  210.5020  150.8190 C   0  0  0  0  0  0  0  0  0  0  0  0
  162.2330  210.6520  148.1170 C   0  0  0  0  0  3  0  0  0  0  0  0
  159.5670  212.3200  152.1290 C   0  0  0  0  0  3  0  0  0  0  0  0
  160.9320  207.9540  152.0500 C   0  0  2  0  0  3  0  0  0  0  0  0
  162.4220  213.0800  148.2920 N   0  0  0  0  0  1  0  0  0  0  0  0
  159.8630  209.5670  154.5750 O   0  0  0  0  0  0  0  0  0  0  0  0
  157.8860  214.4530  151.8440 Cl  0  0  0  0  0  0  0  0  0  0  0  0
  161.3550  208.0550  150.6530 N   0  0  0  0  0  2  0  0  0  0  0  0
  161.5300  209.1170  152.8480 C   0  0  2  0  0  3  0  0  0  0  0  0
  161.7840  211.7440  150.2330 C   0  0  0  0  0  3  0  0  0  0  0  0
  157.8260  212.5440  153.7960 C   0  0  0  0  0  3  0  0  0  0  0  0
  161.5990  209.3300  150.0420 C   0  0  0  0  0  0  0  0  0  0  0  0
  161.9630  209.4090  148.6960 C   0  0  0  0  0  3  0  0  0  0  0  0
  161.1790  209.0800  154.3410 C   0  0  0  0  0  2  0  0  0  0  0  0
  159.4020  210.7120  153.9300 C   0  0  0  0  0  0  0  0  0  0  0  0
  158.2910  211.3930  154.4360 C   0  0  0  0  0  3  0  0  0  0  0  0
  161.3470  206.6050  152.6140 C   0  0  0  0  0  2  0  0  0  0  0  0
  163.4820  205.5560  152.3280 O   0  0  0  0  0  1  0  0  0  0  0  0
  162.3120  205.9170  151.6560 C   0  0  1  0  0  3  0  0  0  0  0  0
  160.6120  202.4260  149.9600 C   0  0  0  0  0  0  0  0  0  0  0  0
  161.4640  203.6660  151.8380 C   0  0  0  0  0  3  0  0  0  0  0  0
  161.6120  205.6800  148.9450 O   0  0  0  0  0  0  0  0  0  0  0  0
  160.0370  201.1820  149.3860 C   0  0  0  0  0  1  0  0  0  0  0  0
  160.9200  202.4910  151.3180 C   0  0  0  0  0  3  0  0  0  0  0  0
  161.3940  204.6910  149.6950 C   0  0  0  0  0  0  0  0  0  0  0  0
  161.6920  204.7430  151.0340 N   0  0  0  0  0  0  0  0  0  0  0  0
  160.8480  203.5290  149.1430 C   0  0  0  0  0  3  0  0  0  0  0  0
  1 14  1  0  0  0  0
  2  3  1  0  0  0  0
  2 13  1  0  0  0  0
  3 19  1  0  0  0  0
  4 15  2  0  0  0  0
  5  2  1  0  0  0  0
  6 17  1  0  0  0  0
  6  1  2  0  0  0  0
  7  4  1  0  0  0  0
  7  3  2  0  0  0  0
  8 21  1  1  0  0  0
  8 13  1  0  0  0  0
  9  1  1  0  0  0  0
 11  4  1  0  0  0  0
 12  8  1  0  0  0  0
 13 18  1  1  0  0  0
 14  5  2  0  0  0  0
 15 20  1  0  0  0  0
 16 12  1  0  0  0  0
 16  5  1  0  0  0  0
 17 16  2  0  0  0  0
 18 10  1  0  0  0  0
 19 20  2  0  0  0  0
 19 10  1  0  0  0  0
 23 22  1  1  0  0  0
 23 21  1  0  0  0  0
 24 28  1  0  0  0  0
 26 29  2  0  0  0  0
 27 24  1  0  0  0  0
 28 25  2  0  0  0  0
 29 30  1  0  0  0  0
 30 23  1  0  0  0  0
 30 25  1  0  0  0  0
 31 29  1  0  0  0  0
 31 24  2  0  0  0  0
M  END
>  <MODEL>
2

>  <REMARK>
 VINA RESULT:      -7.1      3.615      8.063
  Name = 
  3 active torsions:
  status: ('A' for Active; 'I' for Inactive)
    1  A    between atoms: C_5  and  C_16
    2  A    between atoms: C_5  and  N_30
    3  A    between atoms: C_10  and  C_16
                            x       y       z     vdW  Elec       q    Type
                         _______ _______ _______ _____ _____    ______ ____

>  <TORSDO>
F 3

$$$$
=
 OpenBabel11122413103D

 31 35  0  0  1  0  0  0  0  0999 V2000
  162.2370  209.9070  149.2760 C   0  0  0  0  0  0  0  0  0  0  0  0
  161.5530  207.6670  152.2160 N   0  0  0  0  0  0  0  0  0  0  0  0
  160.9820  208.4450  153.2960 C   0  0  0  0  0  0  0  0  0  0  0  0
  160.2030  210.5530  154.2300 C   0  0  0  0  0  0  0  0  0  0  0  0
  161.6160  208.1900  150.8730 C   0  0  0  0  0  0  0  0  0  0  0  0
  161.7190  209.1300  148.2350 C   0  0  0  0  0  3  0  0  0  0  0  0
  160.8250  209.8370  153.2040 C   0  0  0  0  0  3  0  0  0  0  0  0
  160.4500  205.6180  151.4740 C   0  0  2  0  0  3  0  0  0  0  0  0
  162.8150  211.1760  148.9960 N   0  0  0  0  0  1  0  0  0  0  0  0
  160.6420  206.4020  154.5520 O   0  0  0  0  0  0  0  0  0  0  0  0
  160.0200  212.2880  154.0980 Cl  0  0  0  0  0  0  0  0  0  0  0  0
  160.5530  206.1140  150.1010 N   0  0  0  0  0  2  0  0  0  0  0  0
  161.5940  206.1980  152.3120 C   0  0  2  0  0  3  0  0  0  0  0  0
  162.1900  209.4370  150.5920 C   0  0  0  0  0  3  0  0  0  0  0  0
  159.7110  209.8820  155.3520 C   0  0  0  0  0  3  0  0  0  0  0  0
  161.1000  207.4090  149.8190 C   0  0  0  0  0  0  0  0  0  0  0  0
  161.1540  207.8810  148.5060 C   0  0  0  0  0  3  0  0  0  0  0  0
  161.6010  205.7050  153.7640 C   0  0  0  0  0  2  0  0  0  0  0  0
  160.4970  207.7820  154.4400 C   0  0  0  0  0  0  0  0  0  0  0  0
  159.8560  208.4970  155.4560 C   0  0  0  0  0  3  0  0  0  0  0  0
  160.4600  204.0980  151.4720 C   0  0  0  0  0  2  0  0  0  0  0  0
  162.3600  202.6420  151.5830 O   0  0  0  0  0  1  0  0  0  0  0  0
  161.7200  203.5890  150.7820 C   0  0  1  0  0  3  0  0  0  0  0  0
  160.7780  202.1070  146.9250 C   0  0  0  0  0  0  0  0  0  0  0  0
  161.6790  203.8000  148.3790 C   0  0  0  0  0  3  0  0  0  0  0  0
  160.5610  201.0710  150.3160 O   0  0  0  0  0  0  0  0  0  0  0  0
  160.4370  201.6200  145.5630 C   0  0  0  0  0  1  0  0  0  0  0  0
  161.3710  203.3570  147.0920 C   0  0  0  0  0  3  0  0  0  0  0  0
  160.8240  201.7890  149.3140 C   0  0  0  0  0  0  0  0  0  0  0  0
  161.4080  203.0230  149.4660 N   0  0  0  0  0  0  0  0  0  0  0  0
  160.5030  201.3180  148.0390 C   0  0  0  0  0  3  0  0  0  0  0  0
  1 14  1  0  0  0  0
  2 13  1  0  0  0  0
  2  3  1  0  0  0  0
  3 19  1  0  0  0  0
  4 15  2  0  0  0  0
  5  2  1  0  0  0  0
  6 17  1  0  0  0  0
  6  1  2  0  0  0  0
  7  3  2  0  0  0  0
  7  4  1  0  0  0  0
  8 21  1  6  0  0  0
  8 13  1  0  0  0  0
  9  1  1  0  0  0  0
 11  4  1  0  0  0  0
 12  8  1  0  0  0  0
 13 18  1  1  0  0  0
 14  5  2  0  0  0  0
 15 20  1  0  0  0  0
 16 12  1  0  0  0  0
 16  5  1  0  0  0  0
 17 16  2  0  0  0  0
 18 10  1  0  0  0  0
 19 10  1  0  0  0  0
 19 20  2  0  0  0  0
 23 21  1  0  0  0  0
 23 22  1  1  0  0  0
 24 28  1  0  0  0  0
 24 31  2  0  0  0  0
 25 30  1  0  0  0  0
 27 24  1  0  0  0  0
 28 25  2  0  0  0  0
 29 30  1  0  0  0  0
 29 26  2  0  0  0  0
 30 23  1  0  0  0  0
 31 29  1  0  0  0  0
M  END
>  <MODEL>
3

>  <REMARK>
 VINA RESULT:      -7.0      4.243      8.308
  Name = 
  3 active torsions:
  status: ('A' for Active; 'I' for Inactive)
    1  A    between atoms: C_5  and  C_16
    2  A    between atoms: C_5  and  N_30
    3  A    between atoms: C_10  and  C_16
                            x       y       z     vdW  Elec       q    Type
                         _______ _______ _______ _____ _____    ______ ____

>  <TORSDO>
F 3

$$$$
=
 OpenBabel11122413103D

 31 35  0  0  1  0  0  0  0  0999 V2000
  160.6830  208.4890  155.0370 C   0  0  0  0  0  0  0  0  0  0  0  0
  161.6130  209.4410  151.5210 N   0  0  0  0  0  0  0  0  0  0  0  0
  161.4810  208.2870  150.6550 C   0  0  0  0  0  0  0  0  0  0  0  0
  160.9440  205.9420  150.2890 C   0  0  0  0  0  0  0  0  0  0  0  0
  161.0250  209.4560  152.8380 C   0  0  0  0  0  0  0  0  0  0  0  0
  159.8590  209.5650  155.3850 C   0  0  0  0  0  3  0  0  0  0  0  0
  161.1380  207.0210  151.1550 C   0  0  0  0  0  3  0  0  0  0  0  0
  160.5470  211.5520  150.9100 C   0  0  2  0  0  3  0  0  0  0  0  0
  160.9280  207.4500  155.9750 N   0  0  0  0  0  1  0  0  0  0  0  0
  161.9640  209.6980  148.7470 O   0  0  0  0  0  0  0  0  0  0  0  0
  160.5190  204.3710  150.9320 Cl  0  0  0  0  0  0  0  0  0  0  0  0
  159.9840  211.6050  152.2600 N   0  0  0  0  0  2  0  0  0  0  0  0
  161.8640  210.7710  150.9390 C   0  0  2  0  0  3  0  0  0  0  0  0
  161.2680  208.4360  153.7680 C   0  0  0  0  0  3  0  0  0  0  0  0
  161.0710  206.1210  148.9090 C   0  0  0  0  0  3  0  0  0  0  0  0
  160.1980  210.5400  153.1950 C   0  0  0  0  0  0  0  0  0  0  0  0
  159.6190  210.5910  154.4660 C   0  0  0  0  0  3  0  0  0  0  0  0
  162.5590  210.6910  149.5740 C   0  0  0  0  0  2  0  0  0  0  0  0
  161.6240  208.4510  149.2640 C   0  0  0  0  0  0  0  0  0  0  0  0
  161.4090  207.3760  148.3970 C   0  0  0  0  0  3  0  0  0  0  0  0
  160.7340  212.9630  150.3770 C   0  0  0  0  0  2  0  0  0  0  0  0
  159.1320  214.4240  149.3570 O   0  0  0  0  0  1  0  0  0  0  0  0
  159.7900  213.2030  149.2040 C   0  0  1  0  0  3  0  0  0  0  0  0
  161.9580  213.2320  145.5640 C   0  0  0  0  0  0  0  0  0  0  0  0
  161.8000  213.6130  147.9340 C   0  0  0  0  0  3  0  0  0  0  0  0
  158.7310  212.3380  146.7490 O   0  0  0  0  0  0  0  0  0  0  0  0
  162.7330  213.2730  144.2960 C   0  0  0  0  0  1  0  0  0  0  0  0
  162.5450  213.6540  146.7550 C   0  0  0  0  0  3  0  0  0  0  0  0
  159.9240  212.7450  146.7620 C   0  0  0  0  0  0  0  0  0  0  0  0
  160.5130  213.1640  147.9290 N   0  0  0  0  0  0  0  0  0  0  0  0
  160.6430  212.7740  145.5640 C   0  0  0  0  0  3  0  0  0  0  0  0
  1  6  1  0  0  0  0
  1  9  1  0  0  0  0
  2  5  1  0  0  0  0
  3  7  1  0  0  0  0
  3  2  1  0  0  0  0
  4 11  1  0  0  0  0
  4  7  2  0  0  0  0
  5 16  2  0  0  0  0
  5 14  1  0  0  0  0
  8 21  1  1  0  0  0
  8 13  1  0  0  0  0
  8 12  1  0  0  0  0
 10 19  1  0  0  0  0
 10 18  1  0  0  0  0
 12 16  1  0  0  0  0
 13 18  1  6  0  0  0
 13  2  1  0  0  0  0
 14  1  2  0  0  0  0
 15  4  1  0  0  0  0
 16 17  1  0  0  0  0
 17  6  2  0  0  0  0
 19  3  2  0  0  0  0
 20 15  2  0  0  0  0
 20 19  1  0  0  0  0
 23 22  1  1  0  0  0
 23 21  1  0  0  0  0
 24 28  1  0  0  0  0
 26 29  2  0  0  0  0
 27 24  1  0  0  0  0
 28 25  2  0  0  0  0
 29 30  1  0  0  0  0
 30 25  1  0  0  0  0
 30 23  1  0  0  0  0
 31 24  2  0  0  0  0
 31 29  1  0  0  0  0
M  END
>  <MODEL>
4

>  <REMARK>
 VINA RESULT:      -7.0      1.840      2.181
  Name = 
  3 active torsions:
  status: ('A' for Active; 'I' for Inactive)
    1  A    between atoms: C_5  and  C_16
    2  A    between atoms: C_5  and  N_30
    3  A    between atoms: C_10  and  C_16
                            x       y       z     vdW  Elec       q    Type
                         _______ _______ _______ _____ _____    ______ ____

>  <TORSDO>
F 3

$$$$
=
 OpenBabel11122413103D

 31 35  0  0  1  0  0  0  0  0999 V2000
  160.8970  206.6320  146.7940 C   0  0  0  0  0  0  0  0  0  0  0  0
  160.7470  204.7370  150.0370 N   0  0  0  0  0  0  0  0  0  0  0  0
  160.8660  203.3170  149.7750 C   0  0  0  0  0  0  0  0  0  0  0  0
  161.1220  201.4410  148.2450 C   0  0  0  0  0  0  0  0  0  0  0  0
  161.0900  205.7120  149.0310 C   0  0  0  0  0  0  0  0  0  0  0  0
  161.7900  207.6530  147.1340 C   0  0  0  0  0  3  0  0  0  0  0  0
  160.9330  202.8080  148.4680 C   0  0  0  0  0  3  0  0  0  0  0  0
  162.1930  205.7940  151.6980 C   0  0  2  0  0  3  0  0  0  0  0  0
  160.3460  206.5780  145.4850 N   0  0  0  0  0  1  0  0  0  0  0  0
  160.9330  202.9100  152.1610 O   0  0  0  0  0  0  0  0  0  0  0  0
  161.1990  200.8260  146.6090 Cl  0  0  0  0  0  0  0  0  0  0  0  0
  162.5100  206.8190  150.7020 N   0  0  0  0  0  2  0  0  0  0  0  0
  160.7940  205.2330  151.4230 C   0  0  2  0  0  3  0  0  0  0  0  0
  160.5440  205.6650  147.7410 C   0  0  0  0  0  3  0  0  0  0  0  0
  161.2670  200.5700  149.3270 C   0  0  0  0  0  3  0  0  0  0  0  0
  161.9860  206.7450  149.3690 C   0  0  0  0  0  0  0  0  0  0  0  0
  162.3320  207.7120  148.4210 C   0  0  0  0  0  3  0  0  0  0  0  0
  160.3470  204.1760  152.4400 C   0  0  0  0  0  2  0  0  0  0  0  0
  160.9960  202.4260  150.8570 C   0  0  0  0  0  0  0  0  0  0  0  0
  161.2060  201.0630  150.6330 C   0  0  0  0  0  3  0  0  0  0  0  0
  162.3050  206.3840  153.0940 C   0  0  0  0  0  2  0  0  0  0  0  0
  160.6070  205.9310  154.7220 O   0  0  0  0  0  1  0  0  0  0  0  0
  160.9190  206.7320  153.6220 C   0  0  1  0  0  3  0  0  0  0  0  0
  160.5890  210.7900  154.7960 C   0  0  0  0  0  0  0  0  0  0  0  0
  160.9570  208.4660  155.2990 C   0  0  0  0  0  3  0  0  0  0  0  0
  160.4560  208.8440  151.8270 O   0  0  0  0  0  0  0  0  0  0  0  0
  160.4560  212.2030  155.2360 C   0  0  0  0  0  1  0  0  0  0  0  0
  160.8400  209.7880  155.7310 C   0  0  0  0  0  3  0  0  0  0  0  0
  160.5840  209.1300  153.0480 C   0  0  0  0  0  0  0  0  0  0  0  0
  160.8310  208.1520  153.9790 N   0  0  0  0  0  0  0  0  0  0  0  0
  160.4610  210.4630  153.4480 C   0  0  0  0  0  3  0  0  0  0  0  0
  1  6  2  0  0  0  0
  1 14  1  0  0  0  0
  2 13  1  0  0  0  0
  3  2  1  0  0  0  0
  3 19  1  0  0  0  0
  4  7  1  0  0  0  0
  4 15  2  0  0  0  0
  5 16  1  0  0  0  0
  5  2  1  0  0  0  0
  6 17  1  0  0  0  0
  7  3  2  0  0  0  0
  8 21  1  1  0  0  0
  9  1  1  0  0  0  0
 10 18  1  0  0  0  0
 11  4  1  0  0  0  0
 12  8  1  0  0  0  0
 13  8  1  0  0  0  0
 13 18  1  1  0  0  0
 14  5  2  0  0  0  0
 15 20  1  0  0  0  0
 16 12  1  0  0  0  0
 17 16  2  0  0  0  0
 19 10  1  0  0  0  0
 20 19  2  0  0  0  0
 21 23  1  0  0  0  0
 23 30  1  0  0  0  0
 23 22  1  1  0  0  0
 24 27  1  0  0  0  0
 24 28  1  0  0  0  0
 25 28  2  0  0  0  0
 26 29  2  0  0  0  0
 29 31  1  0  0  0  0
 29 30  1  0  0  0  0
 30 25  1  0  0  0  0
 31 24  2  0  0  0  0
M  END
>  <MODEL>
5

>  <REMARK>
 VINA RESULT:      -6.8      4.031      7.214
  Name = 
  3 active torsions:
  status: ('A' for Active; 'I' for Inactive)
    1  A    between atoms: C_5  and  C_16
    2  A    between atoms: C_5  and  N_30
    3  A    between atoms: C_10  and  C_16
                            x       y       z     vdW  Elec       q    Type
                         _______ _______ _______ _____ _____    ______ ____

>  <TORSDO>
F 3

$$$$
=
 OpenBabel11122413103D

 31 35  0  0  1  0  0  0  0  0999 V2000
  162.2420  210.2710  149.3990 C   0  0  0  0  0  0  0  0  0  0  0  0
  161.9200  207.0840  151.3660 N   0  0  0  0  0  0  0  0  0  0  0  0
  161.4000  207.3790  152.6860 C   0  0  0  0  0  0  0  0  0  0  0  0
  160.5920  208.9480  154.3610 C   0  0  0  0  0  0  0  0  0  0  0  0
  161.8450  208.0540  150.3010 C   0  0  0  0  0  0  0  0  0  0  0  0
  161.6820  209.8790  148.1790 C   0  0  0  0  0  3  0  0  0  0  0  0
  161.1640  208.6960  153.1120 C   0  0  0  0  0  3  0  0  0  0  0  0
  160.8680  205.3550  149.9990 C   0  0  2  0  0  3  0  0  0  0  0  0
  162.7280  211.5970  149.5630 N   0  0  0  0  0  1  0  0  0  0  0  0
  161.2710  205.0030  153.1360 O   0  0  0  0  0  0  0  0  0  0  0  0
  160.3090  210.5960  154.8750 Cl  0  0  0  0  0  0  0  0  0  0  0  0
  160.8310  206.3140  148.8950 N   0  0  0  0  0  2  0  0  0  0  0  0
  162.0450  205.6850  150.9220 C   0  0  2  0  0  3  0  0  0  0  0  0
  162.3280  209.3610  150.4570 C   0  0  0  0  0  3  0  0  0  0  0  0
  160.2290  207.8850  155.1920 C   0  0  0  0  0  3  0  0  0  0  0  0
  161.2850  207.6630  149.0690 C   0  0  0  0  0  0  0  0  0  0  0  0
  161.2060  208.5750  148.0130 C   0  0  0  0  0  3  0  0  0  0  0  0
  162.1970  204.7100  152.0960 C   0  0  0  0  0  2  0  0  0  0  0  0
  161.0460  206.3160  153.5390 C   0  0  0  0  0  0  0  0  0  0  0  0
  160.4550  206.5690  154.7800 C   0  0  0  0  0  3  0  0  0  0  0  0
  160.9560  203.9410  149.4480 C   0  0  0  0  0  2  0  0  0  0  0  0
  162.4370  204.5880  147.6790 O   0  0  0  0  0  1  0  0  0  0  0  0
  161.2060  203.9850  147.9460 C   0  0  1  0  0  3  0  0  0  0  0  0
  161.1850  200.0590  146.3530 C   0  0  0  0  0  0  0  0  0  0  0  0
  161.4890  201.6010  148.1750 C   0  0  0  0  0  3  0  0  0  0  0  0
  160.5300  203.3830  145.2850 O   0  0  0  0  0  0  0  0  0  0  0  0
  161.2060  198.6750  145.8140 C   0  0  0  0  0  1  0  0  0  0  0  0
  161.5100  200.2940  147.6880 C   0  0  0  0  0  3  0  0  0  0  0  0
  160.8310  202.4240  146.0450 C   0  0  0  0  0  0  0  0  0  0  0  0
  161.1530  202.6420  147.3620 N   0  0  0  0  0  0  0  0  0  0  0  0
  160.8430  201.1260  145.5260 C   0  0  0  0  0  3  0  0  0  0  0  0
  1  9  1  0  0  0  0
  1 14  1  0  0  0  0
  2  3  1  0  0  0  0
  3  7  2  0  0  0  0
  3 19  1  0  0  0  0
  4 11  1  0  0  0  0
  4 15  2  0  0  0  0
  5 14  2  0  0  0  0
  5  2  1  0  0  0  0
  6  1  2  0  0  0  0
  7  4  1  0  0  0  0
  8 21  1  6  0  0  0
  8 13  1  0  0  0  0
 10 19  1  0  0  0  0
 12 16  1  0  0  0  0
 12  8  1  0  0  0  0
 13  2  1  0  0  0  0
 13 18  1  1  0  0  0
 16  5  1  0  0  0  0
 17  6  1  0  0  0  0
 17 16  2  0  0  0  0
 18 10  1  0  0  0  0
 19 20  2  0  0  0  0
 20 15  1  0  0  0  0
 23 22  1  1  0  0  0
 23 21  1  0  0  0  0
 24 28  1  0  0  0  0
 26 29  2  0  0  0  0
 27 24  1  0  0  0  0
 28 25  2  0  0  0  0
 29 30  1  0  0  0  0
 30 23  1  0  0  0  0
 30 25  1  0  0  0  0
 31 29  1  0  0  0  0
 31 24  2  0  0  0  0
M  END
>  <MODEL>
6

>  <REMARK>
 VINA RESULT:      -6.5      4.327      8.700
  Name = 
  3 active torsions:
  status: ('A' for Active; 'I' for Inactive)
    1  A    between atoms: C_5  and  C_16
    2  A    between atoms: C_5  and  N_30
    3  A    between atoms: C_10  and  C_16
                            x       y       z     vdW  Elec       q    Type
                         _______ _______ _______ _____ _____    ______ ____

>  <TORSDO>
F 3

$$$$
=
 OpenBabel11122413103D

 31 35  0  0  1  0  0  0  0  0999 V2000
  161.2050  201.9230  150.5830 C   0  0  0  0  0  0  0  0  0  0  0  0
  161.7240  205.0360  148.5400 N   0  0  0  0  0  0  0  0  0  0  0  0
  161.3640  204.7760  147.1610 C   0  0  0  0  0  0  0  0  0  0  0  0
  160.5600  203.2940  145.4060 C   0  0  0  0  0  0  0  0  0  0  0  0
  161.3280  204.1360  149.5950 C   0  0  0  0  0  0  0  0  0  0  0  0
  160.5440  202.4530  151.6950 C   0  0  0  0  0  3  0  0  0  0  0  0
  160.9740  203.5000  146.7240 C   0  0  0  0  0  3  0  0  0  0  0  0
  160.7890  206.9700  149.7010 C   0  0  2  0  0  3  0  0  0  0  0  0
  161.4780  200.5290  150.5170 N   0  0  0  0  0  1  0  0  0  0  0  0
  161.7090  207.1200  146.6580 O   0  0  0  0  0  0  0  0  0  0  0  0
  160.0810  201.6950  144.8800 Cl  0  0  0  0  0  0  0  0  0  0  0  0
  160.4270  206.0770  150.8020 N   0  0  0  0  0  2  0  0  0  0  0  0
  162.0170  206.4120  148.9750 C   0  0  2  0  0  3  0  0  0  0  0  0
  161.6000  202.7620  149.5360 C   0  0  0  0  0  3  0  0  0  0  0  0
  160.5110  204.3670  144.5130 C   0  0  0  0  0  3  0  0  0  0  0  0
  160.6660  204.6650  150.7210 C   0  0  0  0  0  0  0  0  0  0  0  0
  160.2770  203.8240  151.7660 C   0  0  0  0  0  3  0  0  0  0  0  0
  162.5050  207.2990  147.8230 C   0  0  0  0  0  2  0  0  0  0  0  0
  161.3260  205.8460  146.2460 C   0  0  0  0  0  0  0  0  0  0  0  0
  160.8920  205.6430  144.9340 C   0  0  0  0  0  3  0  0  0  0  0  0
  161.0330  208.3710  150.2370 C   0  0  0  0  0  2  0  0  0  0  0  0
  163.0810  209.0770  151.2610 O   0  0  0  0  0  1  0  0  0  0  0  0
  161.9340  208.3070  151.4640 C   0  0  1  0  0  3  0  0  0  0  0  0
  159.9350  209.7470  154.9110 C   0  0  0  0  0  0  0  0  0  0  0  0
  160.7140  210.0160  152.6500 C   0  0  0  0  0  3  0  0  0  0  0  0
  161.5810  206.7980  153.8080 O   0  0  0  0  0  0  0  0  0  0  0  0
  159.2480  210.2830  156.1150 C   0  0  0  0  0  1  0  0  0  0  0  0
  160.0610  210.5360  153.7690 C   0  0  0  0  0  3  0  0  0  0  0  0
  161.1040  207.9650  153.7850 C   0  0  0  0  0  0  0  0  0  0  0  0
  161.2220  208.7520  152.6660 N   0  0  0  0  0  0  0  0  0  0  0  0
  160.4570  208.4550  154.9210 C   0  0  0  0  0  3  0  0  0  0  0  0
  1  6  1  0  0  0  0
  2 13  1  0  0  0  0
  2  5  1  0  0  0  0
  3  2  1  0  0  0  0
  4  7  2  0  0  0  0
  5 16  2  0  0  0  0
  6 17  2  0  0  0  0
  7  3  1  0  0  0  0
  8 21  1  1  0  0  0
  8 12  1  0  0  0  0
  9  1  1  0  0  0  0
 10 18  1  0  0  0  0
 11  4  1  0  0  0  0
 13 18  1  6  0  0  0
 13  8  1  0  0  0  0
 14  5  1  0  0  0  0
 14  1  2  0  0  0  0
 15 20  2  0  0  0  0
 15  4  1  0  0  0  0
 16 12  1  0  0  0  0
 16 17  1  0  0  0  0
 19 10  1  0  0  0  0
 19  3  2  0  0  0  0
 20 19  1  0  0  0  0
 21 23  1  0  0  0  0
 23 22  1  6  0  0  0
 23 30  1  0  0  0  0
 24 31  2  0  0  0  0
 24 27  1  0  0  0  0
 25 30  1  0  0  0  0
 25 28  2  0  0  0  0
 28 24  1  0  0  0  0
 29 26  2  0  0  0  0
 29 31  1  0  0  0  0
 30 29  1  0  0  0  0
M  END
>  <MODEL>
7

>  <REMARK>
 VINA RESULT:      -6.4      4.134      6.876
  Name = 
  3 active torsions:
  status: ('A' for Active; 'I' for Inactive)
    1  A    between atoms: C_5  and  C_16
    2  A    between atoms: C_5  and  N_30
    3  A    between atoms: C_10  and  C_16
                            x       y       z     vdW  Elec       q    Type
                         _______ _______ _______ _____ _____    ______ ____

>  <TORSDO>
F 3

$$$$
=
 OpenBabel11122413103D

 31 35  0  0  1  0  0  0  0  0999 V2000
  160.9680  201.7340  149.1220 C   0  0  0  0  0  0  0  0  0  0  0  0
  161.9460  205.1770  150.2710 N   0  0  0  0  0  0  0  0  0  0  0  0
  161.6850  206.1330  149.2150 C   0  0  0  0  0  0  0  0  0  0  0  0
  160.9030  206.6830  146.9770 C   0  0  0  0  0  0  0  0  0  0  0  0
  161.3790  203.8510  150.2330 C   0  0  0  0  0  0  0  0  0  0  0  0
  160.2640  201.2790  150.2420 C   0  0  0  0  0  3  0  0  0  0  0  0
  161.2180  205.7340  147.9530 C   0  0  0  0  0  3  0  0  0  0  0  0
  161.0960  205.5850  152.5240 C   0  0  2  0  0  3  0  0  0  0  0  0
  161.1160  200.8910  147.9860 N   0  0  0  0  0  1  0  0  0  0  0  0
  162.2860  207.9260  150.7280 O   0  0  0  0  0  0  0  0  0  0  0  0
  160.3270  206.1650  145.4080 Cl  0  0  0  0  0  0  0  0  0  0  0  0
  160.5580  204.2240  152.5190 N   0  0  0  0  0  2  0  0  0  0  0  0
  162.3250  205.6510  151.6130 C   0  0  2  0  0  3  0  0  0  0  0  0
  161.5280  203.0150  149.1180 C   0  0  0  0  0  3  0  0  0  0  0  0
  161.0310  208.0450  147.2600 C   0  0  0  0  0  3  0  0  0  0  0  0
  160.6730  203.3860  151.3610 C   0  0  0  0  0  0  0  0  0  0  0  0
  160.1190  202.1040  151.3620 C   0  0  0  0  0  3  0  0  0  0  0  0
  162.9910  207.0320  151.5800 C   0  0  0  0  0  2  0  0  0  0  0  0
  161.8250  207.5080  149.4820 C   0  0  0  0  0  0  0  0  0  0  0  0
  161.4900  208.4570  148.5130 C   0  0  0  0  0  3  0  0  0  0  0  0
  161.4200  206.0030  153.9490 C   0  0  0  0  0  2  0  0  0  0  0  0
  159.4970  206.6140  155.2400 O   0  0  0  0  0  1  0  0  0  0  0  0
  160.4810  207.1190  154.3890 C   0  0  1  0  0  3  0  0  0  0  0  0
  162.5470  210.2080  156.4260 C   0  0  0  0  0  0  0  0  0  0  0  0
  161.6470  207.9780  156.3180 C   0  0  0  0  0  3  0  0  0  0  0  0
  161.0390  209.6330  153.2620 O   0  0  0  0  0  0  0  0  0  0  0  0
  163.2540  211.2820  157.1700 C   0  0  0  0  0  1  0  0  0  0  0  0
  162.3170  208.9730  157.0310 C   0  0  0  0  0  3  0  0  0  0  0  0
  161.4400  209.4150  154.4360 C   0  0  0  0  0  0  0  0  0  0  0  0
  161.2200  208.2030  155.0430 N   0  0  0  0  0  0  0  0  0  0  0  0
  162.1080  210.4320  155.1230 C   0  0  0  0  0  3  0  0  0  0  0  0
  1  6  1  0  0  0  0
  2 13  1  0  0  0  0
  3 19  1  0  0  0  0
  3  2  1  0  0  0  0
  4 15  2  0  0  0  0
  4  7  1  0  0  0  0
  5  2  1  0  0  0  0
  5 16  2  0  0  0  0
  6 17  2  0  0  0  0
  7  3  2  0  0  0  0
  8 21  1  1  0  0  0
  9  1  1  0  0  0  0
 10 18  1  0  0  0  0
 11  4  1  0  0  0  0
 12  8  1  0  0  0  0
 13 18  1  6  0  0  0
 13  8  1  0  0  0  0
 14  1  2  0  0  0  0
 14  5  1  0  0  0  0
 15 20  1  0  0  0  0
 16 17  1  0  0  0  0
 16 12  1  0  0  0  0
 19 10  1  0  0  0  0
 20 19  2  0  0  0  0
 21 23  1  0  0  0  0
 23 30  1  0  0  0  0
 23 22  1  1  0  0  0
 24 28  1  0  0  0  0
 24 27  1  0  0  0  0
 25 28  2  0  0  0  0
 26 29  2  0  0  0  0
 29 30  1  0  0  0  0
 29 31  1  0  0  0  0
 30 25  1  0  0  0  0
 31 24  2  0  0  0  0
M  END
>  <MODEL>
8

>  <REMARK>
 VINA RESULT:      -6.0      4.177      7.384
  Name = 
  3 active torsions:
  status: ('A' for Active; 'I' for Inactive)
    1  A    between atoms: C_5  and  C_16
    2  A    between atoms: C_5  and  N_30
    3  A    between atoms: C_10  and  C_16
                            x       y       z     vdW  Elec       q    Type
                         _______ _______ _______ _____ _____    ______ ____

>  <TORSDO>
F 3

$$$$
=
 OpenBabel11122413103D

 31 35  0  0  1  0  0  0  0  0999 V2000
  161.2790  213.0840  149.0730 C   0  0  0  0  0  0  0  0  0  0  0  0
  161.9670  209.7090  150.5770 N   0  0  0  0  0  0  0  0  0  0  0  0
  161.2890  209.5990  151.8530 C   0  0  0  0  0  0  0  0  0  0  0  0
  159.8710  210.5190  153.6040 C   0  0  0  0  0  0  0  0  0  0  0  0
  161.6270  210.7510  149.6400 C   0  0  0  0  0  0  0  0  0  0  0  0
  160.9750  212.7220  147.7570 C   0  0  0  0  0  3  0  0  0  0  0  0
  160.5770  210.6740  152.4090 C   0  0  0  0  0  3  0  0  0  0  0  0
  161.6830  207.9630  148.8930 C   0  0  2  0  0  3  0  0  0  0  0  0
  161.2560  214.4530  149.4560 N   0  0  0  0  0  1  0  0  0  0  0  0
  161.9740  207.2800  151.9870 O   0  0  0  0  0  0  0  0  0  0  0  0
  158.9930  211.8720  154.2820 Cl  0  0  0  0  0  0  0  0  0  0  0  0
  161.3860  209.0140  147.9190 N   0  0  0  0  0  2  0  0  0  0  0  0
  162.6040  208.5230  149.9810 C   0  0  2  0  0  3  0  0  0  0  0  0
  161.6080  212.1020  150.0120 C   0  0  0  0  0  3  0  0  0  0  0  0
  159.8500  209.2790  154.2480 C   0  0  0  0  0  3  0  0  0  0  0  0
  161.3240  210.3920  148.3120 C   0  0  0  0  0  0  0  0  0  0  0  0
  161.0000  211.3770  147.3750 C   0  0  0  0  0  3  0  0  0  0  0  0
  163.0110  207.4840  151.0350 C   0  0  0  0  0  2  0  0  0  0  0  0
  161.2750  208.3600  152.5210 C   0  0  0  0  0  0  0  0  0  0  0  0
  160.5510  208.2000  153.7050 C   0  0  0  0  0  3  0  0  0  0  0  0
  162.3000  206.7680  148.1850 C   0  0  0  0  0  2  0  0  0  0  0  0
  161.4200  205.8060  146.1750 O   0  0  0  0  0  1  0  0  0  0  0  0
  161.2050  205.9200  147.5500 C   0  0  1  0  0  3  0  0  0  0  0  0
  160.9520  202.0270  149.2020 C   0  0  0  0  0  0  0  0  0  0  0  0
  161.4410  203.5250  147.3840 C   0  0  0  0  0  3  0  0  0  0  0  0
  160.4430  205.3960  150.2040 O   0  0  0  0  0  0  0  0  0  0  0  0
  160.8500  200.6490  149.7500 C   0  0  0  0  0  1  0  0  0  0  0  0
  161.3560  202.2250  147.8830 C   0  0  0  0  0  3  0  0  0  0  0  0
  160.7360  204.4120  149.4730 C   0  0  0  0  0  0  0  0  0  0  0  0
  161.1360  204.5940  148.1720 N   0  0  0  0  0  0  0  0  0  0  0  0
  160.6410  203.1230  150.0030 C   0  0  0  0  0  3  0  0  0  0  0  0
  1  9  1  0  0  0  0
  1 14  1  0  0  0  0
  2  3  1  0  0  0  0
  3  7  2  0  0  0  0
  3 19  1  0  0  0  0
  4 15  2  0  0  0  0
  4 11  1  0  0  0  0
  5 14  2  0  0  0  0
  5  2  1  0  0  0  0
  6  1  2  0  0  0  0
  7  4  1  0  0  0  0
  8 21  1  6  0  0  0
  8 13  1  0  0  0  0
 10 19  1  0  0  0  0
 12 16  1  0  0  0  0
 12  8  1  0  0  0  0
 13  2  1  0  0  0  0
 13 18  1  1  0  0  0
 16  5  1  0  0  0  0
 17  6  1  0  0  0  0
 17 16  2  0  0  0  0
 18 10  1  0  0  0  0
 19 20  2  0  0  0  0
 20 15  1  0  0  0  0
 23 22  1  6  0  0  0
 23 30  1  0  0  0  0
 23 21  1  0  0  0  0
 24 27  1  0  0  0  0
 24 31  2  0  0  0  0
 25 28  2  0  0  0  0
 25 30  1  0  0  0  0
 28 24  1  0  0  0  0
 29 31  1  0  0  0  0
 29 26  2  0  0  0  0
 30 29  1  0  0  0  0
M  END
>  <MODEL>
9

>  <REMARK>
 VINA RESULT:      -5.7      3.537      7.943
  Name = 
  3 active torsions:
  status: ('A' for Active; 'I' for Inactive)
    1  A    between atoms: C_5  and  C_16
    2  A    between atoms: C_5  and  N_30
    3  A    between atoms: C_10  and  C_16
                            x       y       z     vdW  Elec       q    Type
                         _______ _______ _______ _____ _____    ______ ____

>  <TORSDO>
F 3

$$$$
