=
 OpenBabel11122413513D

 37 42  0  0  1  0  0  0  0  0999 V2000
  161.0080  205.4220  150.3530 S   0  0  0  0  0  0  0  0  0  0  0  0
  160.8290  208.7520  153.1650 C   0  0  0  0  0  0  0  0  0  0  0  0
  160.1210  212.4440  151.8170 C   0  0  0  0  0  2  0  0  0  0  0  0
  161.4630  206.4240  152.8390 C   0  0  0  0  0  0  0  0  0  0  0  0
  160.3380  209.8890  152.2990 C   0  0  1  0  0  3  0  0  0  0  0  0
  161.0680  207.6760  152.3400 C   0  0  0  0  0  0  0  0  0  0  0  0
  160.6590  211.3300  152.7470 C   0  0  2  0  0  3  0  0  0  0  0  0
  161.6250  206.2900  154.2210 C   0  0  0  0  0  3  0  0  0  0  0  0
  160.8800  208.0030  150.9700 N   0  0  0  0  0  0  0  0  0  0  0  0
  159.5530  205.0660  150.4630 O   0  0  0  0  0  0  0  0  0  0  0  0
  160.6300  209.6790  155.5720 C   0  0  0  0  0  2  0  0  0  0  0  0
  161.3710  207.3730  155.0760 C   0  0  0  0  0  3  0  0  0  0  0  0
  161.1780  207.1190  149.8480 C   0  0  0  0  0  2  0  0  0  0  0  0
  161.3620  212.3680  149.9270 C   0  0  1  0  0  3  0  0  0  0  0  0
  160.1030  212.0590  150.4670 O   0  0  0  0  0  0  0  0  0  0  0  0
  160.9700  208.6190  154.5680 C   0  0  0  0  0  0  0  0  0  0  0  0
  160.7860  209.4530  150.8650 C   0  0  2  0  0  3  0  0  0  0  0  0
  161.7940  205.2660  151.9450 C   0  0  0  0  0  2  0  0  0  0  0  0
  160.2060  211.5530  154.1170 N   0  0  0  0  0  0  0  0  0  0  0  0
  161.6780  204.5190  149.3560 O   0  0  0  0  0  0  0  0  0  0  0  0
  162.4660  211.4590  150.4850 C   0  0  0  0  0  2  0  0  0  0  0  0
  162.1770  209.9580  150.4040 C   0  0  0  0  0  2  0  0  0  0  0  0
  161.0920  211.0640  155.1580 C   0  0  0  0  0  2  0  0  0  0  0  0
  158.5240  213.2310  154.7940 C   0  0  0  0  0  3  0  0  0  0  0  0
  158.8450  211.9070  154.4570 C   0  0  0  0  0  0  0  0  0  0  0  0
  157.8310  210.9340  154.4890 C   0  0  0  0  0  3  0  0  0  0  0  0
  155.4610  210.2440  154.8620 C   0  0  0  0  0  1  0  0  0  0  0  0
  156.2160  212.6060  155.1640 C   0  0  0  0  0  3  0  0  0  0  0  0
  156.5230  211.2830  154.8370 C   0  0  0  0  0  0  0  0  0  0  0  0
  157.2160  213.5800  155.1440 C   0  0  0  0  0  3  0  0  0  0  0  0
  160.8480  212.3170  145.5660 O   0  0  0  0  0  0  0  0  0  0  0  0
  159.8820  212.5130  146.3490 C   0  0  0  0  0  0  0  0  0  0  0  0
  161.3180  212.3060  148.4360 C   0  0  0  0  0  0  0  0  0  0  0  0
  160.0710  212.5250  147.7680 N   0  0  0  0  0  2  0  0  0  0  0  0
  162.3740  212.0900  147.7810 O   0  0  0  0  0  0  0  0  0  0  0  0
  157.5580  212.3290  146.6880 O   0  0  0  0  0  1  0  0  0  0  0  0
  158.5280  212.7730  145.7910 C   0  0  0  0  0  2  0  0  0  0  0  0
  1 10  2  0  0  0  0
  1 18  1  0  0  0  0
  2 16  1  0  0  0  0
  4  8  2  0  0  0  0
  5  7  1  0  0  0  0
  5  2  1  1  0  0  0
  6  4  1  0  0  0  0
  6  2  2  0  0  0  0
  7  3  1  6  0  0  0
  7 19  1  0  0  0  0
  8 12  1  0  0  0  0
  9  6  1  0  0  0  0
 13  1  1  0  0  0  0
 13  9  1  0  0  0  0
 14 33  1  6  0  0  0
 14 15  1  0  0  0  0
 14 21  1  0  0  0  0
 15  3  1  0  0  0  0
 16 12  2  0  0  0  0
 16 11  1  0  0  0  0
 17 22  1  1  0  0  0
 17  9  1  0  0  0  0
 17  5  1  0  0  0  0
 18  4  1  0  0  0  0
 19 25  1  0  0  0  0
 19 23  1  0  0  0  0
 20  1  2  0  0  0  0
 22 21  1  0  0  0  0
 23 11  1  0  0  0  0
 24 30  1  0  0  0  0
 25 26  1  0  0  0  0
 25 24  2  0  0  0  0
 26 29  2  0  0  0  0
 29 27  1  0  0  0  0
 29 28  1  0  0  0  0
 30 28  2  0  0  0  0
 31 32  2  0  0  0  0
 32 34  1  0  0  0  0
 34 33  1  0  0  0  0
 35 33  2  0  0  0  0
 37 32  1  0  0  0  0
 37 36  1  0  0  0  0
M  END
>  <MODEL>
1

>  <REMARK>
 VINA RESULT:      -4.8      0.000      0.000
  Name = 
  3 active torsions:
  status: ('A' for Active; 'I' for Inactive)
    1  A    between atoms: C_4  and  C_37
    2  A    between atoms: C_8  and  C_18
    3  A    between atoms: N_23  and  C_30
                            x       y       z     vdW  Elec       q    Type
                         _______ _______ _______ _____ _____    ______ ____

>  <TORSDO>
F 3

$$$$
=
 OpenBabel11122413513D

 37 42  0  0  1  0  0  0  0  0999 V2000
  160.9490  205.2330  150.0520 S   0  0  0  0  0  0  0  0  0  0  0  0
  160.8840  208.4010  153.0500 C   0  0  0  0  0  0  0  0  0  0  0  0
  160.3160  212.1880  151.9150 C   0  0  0  0  0  2  0  0  0  0  0  0
  161.4320  206.0740  152.5920 C   0  0  0  0  0  0  0  0  0  0  0  0
  160.4380  209.6030  152.2490 C   0  0  1  0  0  3  0  0  0  0  0  0
  161.0860  207.3660  152.1650 C   0  0  0  0  0  0  0  0  0  0  0  0
  160.8100  211.0030  152.7800 C   0  0  2  0  0  3  0  0  0  0  0  0
  161.5840  205.8540  153.9650 C   0  0  0  0  0  3  0  0  0  0  0  0
  160.9140  207.7770  150.8160 N   0  0  0  0  0  0  0  0  0  0  0  0
  159.4820  204.9240  150.1400 O   0  0  0  0  0  0  0  0  0  0  0  0
  160.7100  209.1960  155.5060 C   0  0  0  0  0  2  0  0  0  0  0  0
  161.3670  206.8960  154.8800 C   0  0  0  0  0  3  0  0  0  0  0  0
  161.1840  206.9490  149.6450 C   0  0  0  0  0  2  0  0  0  0  0  0
  161.5600  212.1730  150.0250 C   0  0  1  0  0  3  0  0  0  0  0  0
  160.2880  211.8810  150.5450 O   0  0  0  0  0  0  0  0  0  0  0  0
  161.0140  208.1830  154.4440 C   0  0  0  0  0  0  0  0  0  0  0  0
  160.8740  209.2330  150.7930 C   0  0  2  0  0  3  0  0  0  0  0  0
  161.7230  204.9570  151.6340 C   0  0  0  0  0  2  0  0  0  0  0  0
  160.3600  211.1640  154.1600 N   0  0  0  0  0  0  0  0  0  0  0  0
  161.5880  204.3630  149.0070 O   0  0  0  0  0  0  0  0  0  0  0  0
  162.6280  211.1940  150.5310 C   0  0  0  0  0  2  0  0  0  0  0  0
  162.2840  209.7120  150.3650 C   0  0  0  0  0  2  0  0  0  0  0  0
  161.2240  210.5840  155.1720 C   0  0  0  0  0  2  0  0  0  0  0  0
  157.9340  210.7020  154.2130 C   0  0  0  0  0  3  0  0  0  0  0  0
  159.0120  211.5480  154.5180 C   0  0  0  0  0  0  0  0  0  0  0  0
  158.7530  212.7800  155.1430 C   0  0  0  0  0  3  0  0  0  0  0  0
  157.1850  214.4530  156.1320 C   0  0  0  0  0  1  0  0  0  0  0  0
  156.3810  212.2960  155.1640 C   0  0  0  0  0  3  0  0  0  0  0  0
  157.4440  213.1490  155.4670 C   0  0  0  0  0  0  0  0  0  0  0  0
  156.6250  211.0730  154.5350 C   0  0  0  0  0  3  0  0  0  0  0  0
  161.0560  212.3790  145.6670 O   0  0  0  0  0  0  0  0  0  0  0  0
  160.0890  212.5360  146.4580 C   0  0  0  0  0  0  0  0  0  0  0  0
  161.5190  212.1990  148.5330 C   0  0  0  0  0  0  0  0  0  0  0  0
  160.2750  212.4640  147.8760 N   0  0  0  0  0  2  0  0  0  0  0  0
  162.5750  212.0140  147.8680 O   0  0  0  0  0  0  0  0  0  0  0  0
  157.7710  212.5460  146.8740 O   0  0  0  0  0  1  0  0  0  0  0  0
  158.7390  212.8370  145.9130 C   0  0  0  0  0  2  0  0  0  0  0  0
  1 10  2  0  0  0  0
  1 18  1  0  0  0  0
  2 16  1  0  0  0  0
  4  8  2  0  0  0  0
  5  7  1  0  0  0  0
  5  2  1  1  0  0  0
  6  4  1  0  0  0  0
  6  2  2  0  0  0  0
  7  3  1  6  0  0  0
  7 19  1  0  0  0  0
  8 12  1  0  0  0  0
  9  6  1  0  0  0  0
 13  1  1  0  0  0  0
 13  9  1  0  0  0  0
 14 33  1  6  0  0  0
 14 21  1  0  0  0  0
 14 15  1  0  0  0  0
 15  3  1  0  0  0  0
 16 12  2  0  0  0  0
 16 11  1  0  0  0  0
 17 22  1  1  0  0  0
 17  9  1  0  0  0  0
 17  5  1  0  0  0  0
 18  4  1  0  0  0  0
 19 25  1  0  0  0  0
 19 23  1  0  0  0  0
 20  1  2  0  0  0  0
 22 21  1  0  0  0  0
 23 11  1  0  0  0  0
 24 25  2  0  0  0  0
 24 30  1  0  0  0  0
 25 26  1  0  0  0  0
 26 29  2  0  0  0  0
 28 29  1  0  0  0  0
 29 27  1  0  0  0  0
 30 28  2  0  0  0  0
 31 32  2  0  0  0  0
 32 34  1  0  0  0  0
 34 33  1  0  0  0  0
 35 33  2  0  0  0  0
 37 32  1  0  0  0  0
 37 36  1  0  0  0  0
M  END
>  <MODEL>
2

>  <REMARK>
 VINA RESULT:      -4.4      0.443      1.161
  Name = 
  3 active torsions:
  status: ('A' for Active; 'I' for Inactive)
    1  A    between atoms: C_4  and  C_37
    2  A    between atoms: C_8  and  C_18
    3  A    between atoms: N_23  and  C_30
                            x       y       z     vdW  Elec       q    Type
                         _______ _______ _______ _____ _____    ______ ____

>  <TORSDO>
F 3

$$$$
=
 OpenBabel11122413513D

 37 42  0  0  1  0  0  0  0  0999 V2000
  161.4690  208.0780  152.5000 S   0  0  0  0  0  0  0  0  0  0  0  0
  159.9180  211.4400  154.8080 C   0  0  0  0  0  0  0  0  0  0  0  0
  157.2170  213.8840  153.1710 C   0  0  0  0  0  2  0  0  0  0  0  0
  161.6330  209.7170  154.6630 C   0  0  0  0  0  0  0  0  0  0  0  0
  158.8010  211.9540  153.9290 C   0  0  1  0  0  3  0  0  0  0  0  0
  160.5820  210.4610  154.1020 C   0  0  0  0  0  0  0  0  0  0  0  0
  158.3700  213.4260  154.0960 C   0  0  2  0  0  3  0  0  0  0  0  0
  162.0100  210.0030  155.9790 C   0  0  0  0  0  3  0  0  0  0  0  0
  160.0830  210.3270  152.7790 N   0  0  0  0  0  0  0  0  0  0  0  0
  160.4450  207.0910  152.9820 O   0  0  0  0  0  0  0  0  0  0  0  0
  159.5600  212.6770  157.0510 C   0  0  0  0  0  2  0  0  0  0  0  0
  161.3330  210.9870  156.7160 C   0  0  0  0  0  3  0  0  0  0  0  0
  160.6600  209.4710  151.7470 C   0  0  0  0  0  2  0  0  0  0  0  0
  158.0710  213.9910  151.0780 C   0  0  1  0  0  3  0  0  0  0  0  0
  157.2380  213.2400  151.9230 O   0  0  0  0  0  0  0  0  0  0  0  0
  160.2790  211.7210  156.1480 C   0  0  0  0  0  0  0  0  0  0  0  0
  159.2300  211.4760  152.5030 C   0  0  2  0  0  3  0  0  0  0  0  0
  162.4090  208.7000  153.8820 C   0  0  0  0  0  2  0  0  0  0  0  0
  158.0400  213.7080  155.4910 N   0  0  0  0  0  0  0  0  0  0  0  0
  162.3850  207.4160  151.5100 O   0  0  0  0  0  0  0  0  0  0  0  0
  159.5460  213.8980  151.4900 C   0  0  0  0  0  2  0  0  0  0  0  0
  160.0800  212.4750  151.6790 C   0  0  0  0  0  2  0  0  0  0  0  0
  159.1710  213.9720  156.3620 C   0  0  0  0  0  2  0  0  0  0  0  0
  155.9790  214.4510  156.6320 C   0  0  0  0  0  3  0  0  0  0  0  0
  156.7500  213.4170  156.0770 C   0  0  0  0  0  0  0  0  0  0  0  0
  156.2610  212.1010  156.1320 C   0  0  0  0  0  3  0  0  0  0  0  0
  154.5150  210.4320  156.7660 C   0  0  0  0  0  1  0  0  0  0  0  0
  154.2610  212.8670  157.2610 C   0  0  0  0  0  3  0  0  0  0  0  0
  155.0220  211.8280  156.7190 C   0  0  0  0  0  0  0  0  0  0  0  0
  154.7400  214.1780  157.2190 C   0  0  0  0  0  3  0  0  0  0  0  0
  157.9070  212.8570  146.8380 O   0  0  0  0  0  0  0  0  0  0  0  0
  158.9100  213.4330  147.3360 C   0  0  0  0  0  0  0  0  0  0  0  0
  157.8820  213.5740  149.6570 C   0  0  0  0  0  0  0  0  0  0  0  0
  158.9420  213.7950  148.7210 N   0  0  0  0  0  2  0  0  0  0  0  0
  156.8110  213.0120  149.3000 O   0  0  0  0  0  0  0  0  0  0  0  0
  161.0350  212.6930  146.6410 O   0  0  0  0  0  1  0  0  0  0  0  0
  160.0950  213.7100  146.4810 C   0  0  0  0  0  2  0  0  0  0  0  0
  1 10  2  0  0  0  0
  1 18  1  0  0  0  0
  2 16  1  0  0  0  0
  4  8  2  0  0  0  0
  5  7  1  0  0  0  0
  5  2  1  1  0  0  0
  6  4  1  0  0  0  0
  6  2  2  0  0  0  0
  7  3  1  6  0  0  0
  7 19  1  0  0  0  0
  8 12  1  0  0  0  0
  9  6  1  0  0  0  0
 13  1  1  0  0  0  0
 13  9  1  0  0  0  0
 14 33  1  6  0  0  0
 14 21  1  0  0  0  0
 14 15  1  0  0  0  0
 15  3  1  0  0  0  0
 16 12  2  0  0  0  0
 16 11  1  0  0  0  0
 17 22  1  1  0  0  0
 17  9  1  0  0  0  0
 17  5  1  0  0  0  0
 18  4  1  0  0  0  0
 19 25  1  0  0  0  0
 19 23  1  0  0  0  0
 20  1  2  0  0  0  0
 21 22  1  0  0  0  0
 23 11  1  0  0  0  0
 24 30  1  0  0  0  0
 25 26  1  0  0  0  0
 25 24  2  0  0  0  0
 26 29  2  0  0  0  0
 29 27  1  0  0  0  0
 29 28  1  0  0  0  0
 30 28  2  0  0  0  0
 31 32  2  0  0  0  0
 32 34  1  0  0  0  0
 34 33  1  0  0  0  0
 35 33  2  0  0  0  0
 37 36  1  0  0  0  0
 37 32  1  0  0  0  0
M  END
>  <MODEL>
3

>  <REMARK>
 VINA RESULT:      -4.3      2.141      3.391
  Name = 
  3 active torsions:
  status: ('A' for Active; 'I' for Inactive)
    1  A    between atoms: C_4  and  C_37
    2  A    between atoms: C_8  and  C_18
    3  A    between atoms: N_23  and  C_30
                            x       y       z     vdW  Elec       q    Type
                         _______ _______ _______ _____ _____    ______ ____

>  <TORSDO>
F 3

$$$$
=
 OpenBabel11122413513D

 37 42  0  0  1  0  0  0  0  0999 V2000
  161.2110  206.2450  151.2480 S   0  0  0  0  0  0  0  0  0  0  0  0
  160.4470  209.3170  154.2490 C   0  0  0  0  0  0  0  0  0  0  0  0
  158.7930  212.7840  153.1540 C   0  0  0  0  0  2  0  0  0  0  0  0
  161.5890  207.2240  153.7550 C   0  0  0  0  0  0  0  0  0  0  0  0
  159.6420  210.3380  153.4770 C   0  0  1  0  0  3  0  0  0  0  0  0
  160.8750  208.3640  153.3520 C   0  0  0  0  0  0  0  0  0  0  0  0
  159.6440  211.7940  153.9870 C   0  0  2  0  0  3  0  0  0  0  0  0
  161.8750  207.0760  155.1160 C   0  0  0  0  0  3  0  0  0  0  0  0
  160.5190  208.6920  152.0160 N   0  0  0  0  0  0  0  0  0  0  0  0
  159.8930  205.5450  151.4220 O   0  0  0  0  0  0  0  0  0  0  0  0
  160.2030  210.0710  156.7110 C   0  0  0  0  0  2  0  0  0  0  0  0
  161.4320  208.0320  156.0440 C   0  0  0  0  0  3  0  0  0  0  0  0
  160.9390  207.9520  150.8300 C   0  0  0  0  0  2  0  0  0  0  0  0
  159.8820  213.0840  151.1940 C   0  0  1  0  0  3  0  0  0  0  0  0
  158.7720  212.4610  151.7880 O   0  0  0  0  0  0  0  0  0  0  0  0
  160.7130  209.1650  155.6320 C   0  0  0  0  0  0  0  0  0  0  0  0
  160.0780  210.0810  151.9980 C   0  0  2  0  0  3  0  0  0  0  0  0
  162.1210  206.2160  152.7810 C   0  0  0  0  0  2  0  0  0  0  0  0
  159.2470  211.8460  155.3920 N   0  0  0  0  0  0  0  0  0  0  0  0
  162.0040  205.5690  150.1650 O   0  0  0  0  0  0  0  0  0  0  0  0
  161.2060  212.4450  151.6340 C   0  0  0  0  0  2  0  0  0  0  0  0
  161.2740  210.9220  151.4860 C   0  0  0  0  0  2  0  0  0  0  0  0
  160.2950  211.5420  156.3500 C   0  0  0  0  0  2  0  0  0  0  0  0
  157.4140  212.8360  156.7180 C   0  0  0  0  0  3  0  0  0  0  0  0
  157.8690  211.8490  155.8290 C   0  0  0  0  0  0  0  0  0  0  0  0
  156.9720  210.8540  155.4030 C   0  0  0  0  0  3  0  0  0  0  0  0
  154.7090  209.7990  155.3850 C   0  0  0  0  0  1  0  0  0  0  0  0
  155.2050  211.8460  156.7270 C   0  0  0  0  0  3  0  0  0  0  0  0
  155.6470  210.8550  155.8480 C   0  0  0  0  0  0  0  0  0  0  0  0
  156.0880  212.8360  157.1640 C   0  0  0  0  0  3  0  0  0  0  0  0
  159.8940  212.9960  146.8020 O   0  0  0  0  0  0  0  0  0  0  0  0
  160.9600  213.0070  147.4720 C   0  0  0  0  0  0  0  0  0  0  0  0
  159.7490  213.0750  149.7070 C   0  0  0  0  0  0  0  0  0  0  0  0
  160.9340  213.0370  148.9030 N   0  0  0  0  0  2  0  0  0  0  0  0
  158.6060  213.0750  149.1740 O   0  0  0  0  0  0  0  0  0  0  0  0
  163.2370  212.4250  147.6190 O   0  0  0  0  0  1  0  0  0  0  0  0
  162.2680  212.9520  146.7670 C   0  0  0  0  0  2  0  0  0  0  0  0
  1 10  2  0  0  0  0
  1 18  1  0  0  0  0
  2 16  1  0  0  0  0
  4  8  2  0  0  0  0
  5  7  1  0  0  0  0
  5  2  1  1  0  0  0
  6  4  1  0  0  0  0
  6  2  2  0  0  0  0
  7  3  1  6  0  0  0
  7 19  1  0  0  0  0
  8 12  1  0  0  0  0
  9  6  1  0  0  0  0
 13  1  1  0  0  0  0
 13  9  1  0  0  0  0
 14 33  1  6  0  0  0
 14 21  1  0  0  0  0
 14 15  1  0  0  0  0
 15  3  1  0  0  0  0
 16 12  2  0  0  0  0
 16 11  1  0  0  0  0
 17 22  1  1  0  0  0
 17  9  1  0  0  0  0
 17  5  1  0  0  0  0
 18  4  1  0  0  0  0
 19 25  1  0  0  0  0
 19 23  1  0  0  0  0
 20  1  2  0  0  0  0
 22 21  1  0  0  0  0
 23 11  1  0  0  0  0
 24 30  1  0  0  0  0
 25 24  2  0  0  0  0
 26 25  1  0  0  0  0
 26 29  2  0  0  0  0
 27 29  1  0  0  0  0
 28 30  2  0  0  0  0
 29 28  1  0  0  0  0
 31 32  2  0  0  0  0
 32 34  1  0  0  0  0
 34 33  1  0  0  0  0
 35 33  2  0  0  0  0
 37 32  1  0  0  0  0
 37 36  1  0  0  0  0
M  END
>  <MODEL>
4

>  <REMARK>
 VINA RESULT:      -3.2      1.433      2.020
  Name = 
  3 active torsions:
  status: ('A' for Active; 'I' for Inactive)
    1  A    between atoms: C_4  and  C_37
    2  A    between atoms: C_8  and  C_18
    3  A    between atoms: N_23  and  C_30
                            x       y       z     vdW  Elec       q    Type
                         _______ _______ _______ _____ _____    ______ ____

>  <TORSDO>
F 3

$$$$
=
 OpenBabel11122413513D

 37 42  0  0  1  0  0  0  0  0999 V2000
  157.6760  213.3000  148.3800 S   0  0  0  0  0  0  0  0  0  0  0  0
  160.5200  211.4610  151.1300 C   0  0  0  0  0  0  0  0  0  0  0  0
  159.4730  210.8350  154.9330 C   0  0  0  0  0  2  0  0  0  0  0  0
  160.2140  212.5160  148.9570 C   0  0  0  0  0  0  0  0  0  0  0  0
  159.6760  211.2130  152.3590 C   0  0  1  0  0  3  0  0  0  0  0  0
  159.7550  212.1830  150.2420 C   0  0  0  0  0  0  0  0  0  0  0  0
  160.3960  211.0960  153.7190 C   0  0  2  0  0  3  0  0  0  0  0  0
  161.5000  212.1030  148.5920 C   0  0  0  0  0  3  0  0  0  0  0  0
  158.4930  212.5380  150.7900 N   0  0  0  0  0  0  0  0  0  0  0  0
  157.0930  212.0050  147.8920 O   0  0  0  0  0  0  0  0  0  0  0  0
  162.6920  210.1360  151.5940 C   0  0  0  0  0  2  0  0  0  0  0  0
  162.2860  211.3540  149.4820 C   0  0  0  0  0  3  0  0  0  0  0  0
  157.5140  213.4090  150.1490 C   0  0  0  0  0  2  0  0  0  0  0  0
  158.3240  212.7500  155.2960 C   0  0  1  0  0  3  0  0  0  0  0  0
  158.2150  211.4420  154.7940 O   0  0  0  0  0  0  0  0  0  0  0  0
  161.8140  211.0200  150.7610 C   0  0  0  0  0  0  0  0  0  0  0  0
  158.5410  212.2800  152.2240 C   0  0  2  0  0  3  0  0  0  0  0  0
  159.4180  213.3610  148.0080 C   0  0  0  0  0  2  0  0  0  0  0  0
  161.4470  210.0830  153.6560 N   0  0  0  0  0  0  0  0  0  0  0  0
  156.9680  214.4530  147.7260 O   0  0  0  0  0  0  0  0  0  0  0  0
  159.1890  213.6420  154.3960 C   0  0  0  0  0  2  0  0  0  0  0  0
  158.8020  213.6420  152.9140 C   0  0  0  0  0  2  0  0  0  0  0  0
  162.7000  210.5140  153.0630 C   0  0  0  0  0  2  0  0  0  0  0  0
  160.9130  208.1560  155.1070 C   0  0  0  0  0  3  0  0  0  0  0  0
  161.1980  208.6690  153.8310 C   0  0  0  0  0  0  0  0  0  0  0  0
  161.2690  207.7810  152.7440 C   0  0  0  0  0  3  0  0  0  0  0  0
  161.1210  205.4880  151.7670 C   0  0  0  0  0  1  0  0  0  0  0  0
  160.7570  205.9180  154.2000 C   0  0  0  0  0  3  0  0  0  0  0  0
  161.0470  206.4140  152.9280 C   0  0  0  0  0  0  0  0  0  0  0  0
  160.6920  206.7880  155.2900 C   0  0  0  0  0  3  0  0  0  0  0  0
  154.2800  214.4530  155.4900 O   0  0  0  0  0  0  0  0  0  0  0  0
  154.8460  214.2030  154.3940 C   0  0  0  0  0  0  0  0  0  0  0  0
  156.9690  213.3440  155.4980 C   0  0  0  0  0  0  0  0  0  0  0  0
  156.1650  213.6480  154.3530 N   0  0  0  0  0  2  0  0  0  0  0  0
  156.5360  213.5490  156.6650 O   0  0  0  0  0  0  0  0  0  0  0  0
  154.7630  213.7900  152.0770 O   0  0  0  0  0  1  0  0  0  0  0  0
  154.1190  214.4520  153.1210 C   0  0  0  0  0  2  0  0  0  0  0  0
  1 13  1  0  0  0  0
  4  6  1  0  0  0  0
  5  2  1  6  0  0  0
  5  7  1  0  0  0  0
  6  9  1  0  0  0  0
  6  2  2  0  0  0  0
  7  3  1  1  0  0  0
  8  4  2  0  0  0  0
  8 12  1  0  0  0  0
  9 17  1  0  0  0  0
 10  1  2  0  0  0  0
 11 23  1  0  0  0  0
 12 16  2  0  0  0  0
 13  9  1  0  0  0  0
 14 33  1  6  0  0  0
 15  3  1  0  0  0  0
 15 14  1  0  0  0  0
 16  2  1  0  0  0  0
 16 11  1  0  0  0  0
 17  5  1  0  0  0  0
 17 22  1  1  0  0  0
 18  1  1  0  0  0  0
 18  4  1  0  0  0  0
 19  7  1  0  0  0  0
 19 25  1  0  0  0  0
 20  1  2  0  0  0  0
 21 14  1  0  0  0  0
 22 21  1  0  0  0  0
 23 19  1  0  0  0  0
 24 30  1  0  0  0  0
 25 24  2  0  0  0  0
 26 29  2  0  0  0  0
 26 25  1  0  0  0  0
 27 29  1  0  0  0  0
 28 30  2  0  0  0  0
 29 28  1  0  0  0  0
 32 31  2  0  0  0  0
 33 35  2  0  0  0  0
 34 32  1  0  0  0  0
 34 33  1  0  0  0  0
 36 37  1  0  0  0  0
 37 32  1  0  0  0  0
M  END
>  <MODEL>
5

>  <REMARK>
 VINA RESULT:      -2.5      3.165      6.872
  Name = 
  3 active torsions:
  status: ('A' for Active; 'I' for Inactive)
    1  A    between atoms: C_4  and  C_37
    2  A    between atoms: C_8  and  C_18
    3  A    between atoms: N_23  and  C_30
                            x       y       z     vdW  Elec       q    Type
                         _______ _______ _______ _____ _____    ______ ____

>  <TORSDO>
F 3

$$$$
