=
 OpenBabel11122412303D

 30 35  0  0  1  0  0  0  0  0999 V2000
  161.2150  210.6880  150.9730 C   0  0  0  0  0  0  0  0  0  0  0  0
  161.5680  212.2250  149.0200 C   0  0  0  0  0  0  0  0  0  0  0  0
  159.0060  213.6320  153.0140 N   0  0  0  0  0  2  0  0  0  0  0  0
  160.6220  210.4700  152.2390 C   0  0  0  0  0  0  0  0  0  0  0  0
  162.1570  209.6400  150.4410 C   0  0  0  0  0  2  0  0  0  0  0  0
  161.0600  206.8260  152.4910 O   0  0  0  0  0  0  0  0  0  0  0  0
  161.6740  210.4940  154.9490 C   0  0  1  0  0  3  0  0  0  0  0  0
  161.1820  208.0140  152.0860 C   0  0  0  0  0  0  0  0  0  0  0  0
  160.5520  211.4960  155.2230 C   0  0  2  0  0  3  0  0  0  0  0  0
  158.7780  212.9050  154.2210 C   0  0  0  0  0  0  0  0  0  0  0  0
  161.7390  208.2820  150.7900 N   0  0  0  0  0  0  0  0  0  0  0  0
  160.6750  209.1370  152.9420 C   0  0  1  0  0  3  0  0  0  0  0  0
  161.3530  213.4720  148.4260 C   0  0  0  0  0  3  0  0  0  0  0  0
  160.1170  211.3100  156.5410 O   0  0  0  0  0  0  0  0  0  0  0  0
  162.2840  210.3290  156.3120 C   0  0  0  0  0  2  0  0  0  0  0  0
  162.3120  211.2900  148.3100 O   0  0  0  0  0  1  0  0  0  0  0  0
  159.7250  212.7110  152.2090 C   0  0  0  0  0  0  0  0  0  0  0  0
  160.6050  214.4530  149.0720 C   0  0  0  0  0  3  0  0  0  0  0  0
  161.0260  211.9410  150.3020 C   0  0  0  0  0  0  0  0  0  0  0  0
  159.9100  211.5060  152.8340 C   0  0  0  0  0  0  0  0  0  0  0  0
  158.1260  213.3870  155.1830 O   0  0  0  0  0  0  0  0  0  0  0  0
  159.3820  211.5310  154.2300 C   0  0  1  0  0  3  0  0  0  0  0  0
  161.2820  210.9760  157.2550 C   0  0  0  0  0  2  0  0  0  0  0  0
  160.2810  208.3670  155.2870 C   0  0  0  0  0  1  0  0  0  0  0  0
  160.0590  214.1980  150.3280 C   0  0  0  0  0  3  0  0  0  0  0  0
  160.2570  212.9590  150.9440 C   0  0  0  0  0  0  0  0  0  0  0  0
  161.2420  209.1210  154.3750 C   0  0  2  0  0  3  0  0  0  0  0  0
  162.0400  207.1610  149.8980 C   0  0  0  0  0  2  0  0  0  0  0  0
  160.4090  206.2040  148.7590 C   0  0  0  0  0  1  0  0  0  0  0  0
  161.3220  207.2560  148.7020 O   0  0  0  0  0  0  0  0  0  0  0  0
  1  4  1  0  0  0  0
  2 19  1  0  0  0  0
  3 10  1  0  0  0  0
  4 20  2  0  0  0  0
  4 12  1  0  0  0  0
  5 11  1  0  0  0  0
  5  1  1  0  0  0  0
  7  9  1  0  0  0  0
  7 15  1  1  0  0  0
  8  6  2  0  0  0  0
  9 14  1  1  0  0  0
 10 22  1  0  0  0  0
 10 21  2  0  0  0  0
 11  8  1  0  0  0  0
 12  8  1  6  0  0  0
 12 27  1  0  0  0  0
 13  2  2  0  0  0  0
 13 18  1  0  0  0  0
 14 23  1  0  0  0  0
 15 23  1  0  0  0  0
 16  2  1  0  0  0  0
 17 20  1  0  0  0  0
 17  3  1  0  0  0  0
 18 25  2  0  0  0  0
 19 26  1  0  0  0  0
 19  1  2  0  0  0  0
 22 20  1  6  0  0  0
 22  9  1  0  0  0  0
 25 26  1  0  0  0  0
 26 17  2  0  0  0  0
 27  7  1  0  0  0  0
 27 24  1  1  0  0  0
 28 11  1  0  0  0  0
 30 29  1  0  0  0  0
 30 28  1  0  0  0  0
M  END
>  <MODEL>
1

>  <REMARK>
 VINA RESULT:      -6.9      0.000      0.000
  Name = 
  2 active torsions:
  status: ('A' for Active; 'I' for Inactive)
    1  A    between atoms: N_11  and  C_28
    2  A    between atoms: C_28  and  O_30
                            x       y       z     vdW  Elec       q    Type
                         _______ _______ _______ _____ _____    ______ ____

>  <TORSDO>
F 2

$$$$
=
 OpenBabel11122412303D

 30 35  0  0  1  0  0  0  0  0999 V2000
  161.4790  209.5780  151.2310 C   0  0  0  0  0  0  0  0  0  0  0  0
  162.0070  210.5410  148.9740 C   0  0  0  0  0  0  0  0  0  0  0  0
  159.6840  213.1830  152.4560 N   0  0  0  0  0  2  0  0  0  0  0  0
  160.8750  209.7490  152.4990 C   0  0  0  0  0  0  0  0  0  0  0  0
  162.2740  208.3230  150.9870 C   0  0  0  0  0  2  0  0  0  0  0  0
  160.8460  206.2480  153.6290 O   0  0  0  0  0  0  0  0  0  0  0  0
  161.9470  210.2930  155.1460 C   0  0  1  0  0  3  0  0  0  0  0  0
  161.1150  207.2780  152.9530 C   0  0  0  0  0  0  0  0  0  0  0  0
  160.9660  211.4650  155.1470 C   0  0  2  0  0  3  0  0  0  0  0  0
  159.3760  212.8030  153.7970 C   0  0  0  0  0  0  0  0  0  0  0  0
  161.6890  207.1530  151.6430 N   0  0  0  0  0  0  0  0  0  0  0  0
  160.7640  208.6290  153.5030 C   0  0  1  0  0  3  0  0  0  0  0  0
  161.9470  211.6250  148.0930 C   0  0  0  0  0  3  0  0  0  0  0  0
  160.5230  211.6590  156.4610 O   0  0  0  0  0  0  0  0  0  0  0  0
  162.5450  210.3860  156.5220 C   0  0  0  0  0  2  0  0  0  0  0  0
  162.6180  209.3760  148.5260 O   0  0  0  0  0  1  0  0  0  0  0  0
  160.2720  212.0110  151.9120 C   0  0  0  0  0  0  0  0  0  0  0  0
  161.3370  212.8200  148.4680 C   0  0  0  0  0  3  0  0  0  0  0  0
  161.4450  210.6460  150.2750 C   0  0  0  0  0  0  0  0  0  0  0  0
  160.3070  210.9790  152.8130 C   0  0  0  0  0  0  0  0  0  0  0  0
  158.8010  213.5810  154.6010 O   0  0  0  0  0  0  0  0  0  0  0  0
  159.8000  211.4070  154.1490 C   0  0  1  0  0  3  0  0  0  0  0  0
  161.6420  211.3630  157.2600 C   0  0  0  0  0  2  0  0  0  0  0  0
  160.2970  208.5040  155.9560 C   0  0  0  0  0  1  0  0  0  0  0  0
  160.7740  212.9460  149.7360 C   0  0  0  0  0  3  0  0  0  0  0  0
  160.8180  211.8780  150.6360 C   0  0  0  0  0  0  0  0  0  0  0  0
  161.3380  208.8880  154.9090 C   0  0  2  0  0  3  0  0  0  0  0  0
  161.8360  205.8220  151.0540 C   0  0  0  0  0  2  0  0  0  0  0  0
  160.7700  205.4470  149.1580 C   0  0  0  0  0  1  0  0  0  0  0  0
  160.6220  205.3560  150.5400 O   0  0  0  0  0  0  0  0  0  0  0  0
  1  4  1  0  0  0  0
  2 19  1  0  0  0  0
  3 10  1  0  0  0  0
  4 20  2  0  0  0  0
  5  1  1  0  0  0  0
  5 11  1  0  0  0  0
  7  9  1  0  0  0  0
  7 15  1  1  0  0  0
  8 12  1  0  0  0  0
  8  6  2  0  0  0  0
  9 14  1  1  0  0  0
 10 22  1  0  0  0  0
 10 21  2  0  0  0  0
 11  8  1  0  0  0  0
 12  4  1  6  0  0  0
 12 27  1  0  0  0  0
 13 18  1  0  0  0  0
 13  2  2  0  0  0  0
 14 23  1  0  0  0  0
 15 23  1  0  0  0  0
 16  2  1  0  0  0  0
 17  3  1  0  0  0  0
 17 20  1  0  0  0  0
 18 25  2  0  0  0  0
 19 26  1  0  0  0  0
 19  1  2  0  0  0  0
 22 20  1  6  0  0  0
 22  9  1  0  0  0  0
 25 26  1  0  0  0  0
 26 17  2  0  0  0  0
 27  7  1  0  0  0  0
 27 24  1  1  0  0  0
 28 11  1  0  0  0  0
 29 30  1  0  0  0  0
 30 28  1  0  0  0  0
M  END
>  <MODEL>
2

>  <REMARK>
 VINA RESULT:      -6.8      1.093      1.251
  Name = 
  2 active torsions:
  status: ('A' for Active; 'I' for Inactive)
    1  A    between atoms: N_11  and  C_28
    2  A    between atoms: C_28  and  O_30
                            x       y       z     vdW  Elec       q    Type
                         _______ _______ _______ _____ _____    ______ ____

>  <TORSDO>
F 2

$$$$
=
 OpenBabel11122412303D

 30 35  0  0  1  0  0  0  0  0999 V2000
  160.1040  209.7430  153.2490 C   0  0  0  0  0  0  0  0  0  0  0  0
  158.7240  211.7220  153.9410 C   0  0  0  0  0  0  0  0  0  0  0  0
  161.5510  211.8100  149.8800 N   0  0  0  0  0  2  0  0  0  0  0  0
  161.0430  209.1900  152.3480 C   0  0  0  0  0  0  0  0  0  0  0  0
  159.5000  208.8380  154.2890 C   0  0  0  0  0  2  0  0  0  0  0  0
  162.0330  206.2090  154.2630 O   0  0  0  0  0  0  0  0  0  0  0  0
  160.8000  207.3280  150.1280 C   0  0  1  0  0  3  0  0  0  0  0  0
  161.3890  207.2310  153.9010 C   0  0  0  0  0  0  0  0  0  0  0  0
  161.5140  208.4150  149.3240 C   0  0  2  0  0  3  0  0  0  0  0  0
  162.3320  210.7540  149.3220 C   0  0  0  0  0  0  0  0  0  0  0  0
  160.4560  207.8520  154.7970 N   0  0  0  0  0  0  0  0  0  0  0  0
  161.6610  207.8290  152.5520 C   0  0  1  0  0  3  0  0  0  0  0  0
  158.3110  213.0360  153.6990 C   0  0  0  0  0  3  0  0  0  0  0  0
  162.3140  207.7880  148.3620 O   0  0  0  0  0  0  0  0  0  0  0  0
  160.6680  206.2270  149.1140 C   0  0  0  0  0  2  0  0  0  0  0  0
  158.2100  211.0800  155.0610 O   0  0  0  0  0  1  0  0  0  0  0  0
  161.0290  211.2370  151.0690 C   0  0  0  0  0  0  0  0  0  0  0  0
  158.7950  213.7470  152.6030 C   0  0  0  0  0  3  0  0  0  0  0  0
  159.6450  211.0890  153.0650 C   0  0  0  0  0  0  0  0  0  0  0  0
  161.4630  209.9520  151.2620 C   0  0  0  0  0  0  0  0  0  0  0  0
  162.9930  210.8940  148.2610 O   0  0  0  0  0  0  0  0  0  0  0  0
  162.2900  209.4790  150.1140 C   0  0  1  0  0  3  0  0  0  0  0  0
  161.5780  206.6540  147.9730 C   0  0  0  0  0  2  0  0  0  0  0  0
  162.9030  206.2230  151.0940 C   0  0  0  0  0  1  0  0  0  0  0  0
  159.7040  213.1510  151.7320 C   0  0  0  0  0  3  0  0  0  0  0  0
  160.1350  211.8400  151.9520 C   0  0  0  0  0  0  0  0  0  0  0  0
  161.5330  206.8190  151.3950 C   0  0  2  0  0  3  0  0  0  0  0  0
  160.3580  207.3670  156.1740 C   0  0  0  0  0  2  0  0  0  0  0  0
  161.7500  208.7190  157.2260 C   0  0  0  0  0  1  0  0  0  0  0  0
  160.3950  208.4220  157.0900 O   0  0  0  0  0  0  0  0  0  0  0  0
  1  5  1  0  0  0  0
  2 16  1  0  0  0  0
  3 17  1  0  0  0  0
  4  1  2  0  0  0  0
  5 11  1  0  0  0  0
  7 15  1  6  0  0  0
  7 27  1  0  0  0  0
  8  6  2  0  0  0  0
  8 11  1  0  0  0  0
  9 14  1  6  0  0  0
  9 22  1  0  0  0  0
  9  7  1  0  0  0  0
 10  3  1  0  0  0  0
 11 28  1  0  0  0  0
 12  4  1  6  0  0  0
 12  8  1  0  0  0  0
 13  2  1  0  0  0  0
 17 20  2  0  0  0  0
 17 26  1  0  0  0  0
 18 13  2  0  0  0  0
 19  1  1  0  0  0  0
 19  2  2  0  0  0  0
 20  4  1  0  0  0  0
 21 10  2  0  0  0  0
 22 10  1  6  0  0  0
 22 20  1  0  0  0  0
 23 14  1  0  0  0  0
 23 15  1  0  0  0  0
 25 26  2  0  0  0  0
 25 18  1  0  0  0  0
 26 19  1  0  0  0  0
 27 24  1  6  0  0  0
 27 12  1  0  0  0  0
 28 30  1  0  0  0  0
 30 29  1  0  0  0  0
M  END
>  <MODEL>
3

>  <REMARK>
 VINA RESULT:      -5.2      1.907      5.725
  Name = 
  2 active torsions:
  status: ('A' for Active; 'I' for Inactive)
    1  A    between atoms: N_11  and  C_28
    2  A    between atoms: C_28  and  O_30
                            x       y       z     vdW  Elec       q    Type
                         _______ _______ _______ _____ _____    ______ ____

>  <TORSDO>
F 2

$$$$
=
 OpenBabel11122412303D

 30 35  0  0  1  0  0  0  0  0999 V2000
  161.1150  208.0170  151.3610 C   0  0  0  0  0  0  0  0  0  0  0  0
  161.3250  205.6530  150.5410 C   0  0  0  0  0  0  0  0  0  0  0  0
  160.7210  206.7020  155.3400 N   0  0  0  0  0  2  0  0  0  0  0  0
  160.9890  208.9010  152.4580 C   0  0  0  0  0  0  0  0  0  0  0  0
  161.0340  208.5920  149.9720 C   0  0  0  0  0  2  0  0  0  0  0  0
  161.8010  212.0700  150.7740 O   0  0  0  0  0  0  0  0  0  0  0  0
  158.7440  210.3900  153.5500 C   0  0  1  0  0  3  0  0  0  0  0  0
  161.4990  210.8580  150.9480 C   0  0  0  0  0  0  0  0  0  0  0  0
  159.1160  209.7090  154.8670 C   0  0  2  0  0  3  0  0  0  0  0  0
  160.5210  207.9770  155.9490 C   0  0  0  0  0  0  0  0  0  0  0  0
  161.6530  209.9150  149.8760 N   0  0  0  0  0  0  0  0  0  0  0  0
  161.0480  210.4000  152.3040 C   0  0  1  0  0  3  0  0  0  0  0  0
  161.3640  204.2860  150.8310 C   0  0  0  0  0  3  0  0  0  0  0  0
  158.8280  210.5950  155.9120 O   0  0  0  0  0  0  0  0  0  0  0  0
  157.6140  211.2860  153.9730 C   0  0  0  0  0  2  0  0  0  0  0  0
  161.4500  206.0360  149.2110 O   0  0  0  0  0  1  0  0  0  0  0  0
  160.9100  207.0210  153.9700 C   0  0  0  0  0  0  0  0  0  0  0  0
  161.2590  203.8290  152.1420 C   0  0  0  0  0  3  0  0  0  0  0  0
  161.1720  206.6020  151.5870 C   0  0  0  0  0  0  0  0  0  0  0  0
  160.8630  208.3700  153.7380 C   0  0  0  0  0  0  0  0  0  0  0  0
  160.3520  208.1120  157.1890 O   0  0  0  0  0  0  0  0  0  0  0  0
  160.5320  209.1250  154.9820 C   0  0  1  0  0  3  0  0  0  0  0  0
  157.6680  211.2720  155.4930 C   0  0  0  0  0  2  0  0  0  0  0  0
  160.3950  212.3440  153.7330 C   0  0  0  0  0  1  0  0  0  0  0  0
  161.1140  204.7390  153.1870 C   0  0  0  0  0  3  0  0  0  0  0  0
  161.0740  206.1120  152.9260 C   0  0  0  0  0  0  0  0  0  0  0  0
  159.8630  211.2110  152.8620 C   0  0  2  0  0  3  0  0  0  0  0  0
  162.2830  210.3500  148.6290 C   0  0  0  0  0  2  0  0  0  0  0  0
  162.2020  212.2700  147.5440 C   0  0  0  0  0  1  0  0  0  0  0  0
  161.4260  211.1640  147.8830 O   0  0  0  0  0  0  0  0  0  0  0  0
  1 19  2  0  0  0  0
  1  4  1  0  0  0  0
  2 13  2  0  0  0  0
  2 19  1  0  0  0  0
  3 10  1  0  0  0  0
  4 20  2  0  0  0  0
  5  1  1  0  0  0  0
  6  8  2  0  0  0  0
  7 15  1  1  0  0  0
  7  9  1  0  0  0  0
  9 22  1  0  0  0  0
  9 14  1  1  0  0  0
 10 21  2  0  0  0  0
 11  5  1  0  0  0  0
 11  8  1  0  0  0  0
 12  8  1  6  0  0  0
 12  4  1  0  0  0  0
 12 27  1  0  0  0  0
 13 18  1  0  0  0  0
 15 23  1  0  0  0  0
 16  2  1  0  0  0  0
 17  3  1  0  0  0  0
 18 25  2  0  0  0  0
 19 26  1  0  0  0  0
 20 17  1  0  0  0  0
 22 20  1  6  0  0  0
 22 10  1  0  0  0  0
 23 14  1  0  0  0  0
 26 25  1  0  0  0  0
 26 17  2  0  0  0  0
 27  7  1  0  0  0  0
 27 24  1  1  0  0  0
 28 11  1  0  0  0  0
 29 30  1  0  0  0  0
 30 28  1  0  0  0  0
M  END
>  <MODEL>
4

>  <REMARK>
 VINA RESULT:      -5.1      2.146      5.371
  Name = 
  2 active torsions:
  status: ('A' for Active; 'I' for Inactive)
    1  A    between atoms: N_11  and  C_28
    2  A    between atoms: C_28  and  O_30
                            x       y       z     vdW  Elec       q    Type
                         _______ _______ _______ _____ _____    ______ ____

>  <TORSDO>
F 2

$$$$
=
 OpenBabel11122412303D

 30 35  0  0  1  0  0  0  0  0999 V2000
  161.1190  206.3770  150.4950 C   0  0  0  0  0  0  0  0  0  0  0  0
  160.6490  203.9160  150.3370 C   0  0  0  0  0  0  0  0  0  0  0  0
  161.4170  206.1470  154.6880 N   0  0  0  0  0  2  0  0  0  0  0  0
  161.4350  207.4890  151.3090 C   0  0  0  0  0  0  0  0  0  0  0  0
  160.8290  206.6220  149.0380 C   0  0  0  0  0  2  0  0  0  0  0  0
  162.4480  209.8770  148.7000 O   0  0  0  0  0  0  0  0  0  0  0  0
  159.8580  209.7110  152.3250 C   0  0  1  0  0  3  0  0  0  0  0  0
  161.9580  208.8540  149.2520 C   0  0  0  0  0  0  0  0  0  0  0  0
  160.3850  209.2750  153.6920 C   0  0  2  0  0  3  0  0  0  0  0  0
  161.6270  207.5350  154.9460 C   0  0  0  0  0  0  0  0  0  0  0  0
  161.6620  207.6850  148.4730 N   0  0  0  0  0  0  0  0  0  0  0  0
  161.7570  208.8480  150.7390 C   0  0  1  0  0  3  0  0  0  0  0  0
  160.4790  202.6870  150.9820 C   0  0  0  0  0  3  0  0  0  0  0  0
  160.5360  210.4190  154.4840 O   0  0  0  0  0  0  0  0  0  0  0  0
  159.0630  210.9380  152.6750 C   0  0  0  0  0  2  0  0  0  0  0  0
  160.5310  203.9410  148.9520 O   0  0  0  0  0  1  0  0  0  0  0  0
  161.3380  206.0870  153.2720 C   0  0  0  0  0  0  0  0  0  0  0  0
  160.5960  202.5830  152.3660 C   0  0  0  0  0  3  0  0  0  0  0  0
  160.9410  205.0840  151.0900 C   0  0  0  0  0  0  0  0  0  0  0  0
  161.5110  207.3140  152.6870 C   0  0  0  0  0  0  0  0  0  0  0  0
  161.7860  207.9870  156.1090 O   0  0  0  0  0  0  0  0  0  0  0  0
  161.6410  208.3910  153.7120 C   0  0  1  0  0  3  0  0  0  0  0  0
  159.4710  211.2560  154.1050 C   0  0  0  0  0  2  0  0  0  0  0  0
  161.8640  211.1660  151.6670 C   0  0  0  0  0  1  0  0  0  0  0  0
  160.8880  203.7130  153.1270 C   0  0  0  0  0  3  0  0  0  0  0  0
  161.0650  204.9530  152.5080 C   0  0  0  0  0  0  0  0  0  0  0  0
  160.9250  210.0400  151.2510 C   0  0  2  0  0  3  0  0  0  0  0  0
  162.0540  207.6500  147.0640 C   0  0  0  0  0  2  0  0  0  0  0  0
  162.3600  205.8180  145.8710 C   0  0  0  0  0  1  0  0  0  0  0  0
  161.3620  206.6540  146.3680 O   0  0  0  0  0  0  0  0  0  0  0  0
  1 19  2  0  0  0  0
  1  4  1  0  0  0  0
  2 13  2  0  0  0  0
  2 19  1  0  0  0  0
  3 10  1  0  0  0  0
  4 20  2  0  0  0  0
  5  1  1  0  0  0  0
  6  8  2  0  0  0  0
  7 15  1  1  0  0  0
  7  9  1  0  0  0  0
  9 22  1  0  0  0  0
  9 14  1  1  0  0  0
 10 21  2  0  0  0  0
 11  5  1  0  0  0  0
 11  8  1  0  0  0  0
 12  8  1  6  0  0  0
 12 27  1  0  0  0  0
 12  4  1  0  0  0  0
 13 18  1  0  0  0  0
 15 23  1  0  0  0  0
 16  2  1  0  0  0  0
 17  3  1  0  0  0  0
 18 25  2  0  0  0  0
 19 26  1  0  0  0  0
 20 17  1  0  0  0  0
 22 20  1  6  0  0  0
 22 10  1  0  0  0  0
 23 14  1  0  0  0  0
 26 25  1  0  0  0  0
 26 17  2  0  0  0  0
 27 24  1  1  0  0  0
 27  7  1  0  0  0  0
 28 11  1  0  0  0  0
 29 30  1  0  0  0  0
 30 28  1  0  0  0  0
M  END
>  <MODEL>
5

>  <REMARK>
 VINA RESULT:      -5.0      2.758      5.990
  Name = 
  2 active torsions:
  status: ('A' for Active; 'I' for Inactive)
    1  A    between atoms: N_11  and  C_28
    2  A    between atoms: C_28  and  O_30
                            x       y       z     vdW  Elec       q    Type
                         _______ _______ _______ _____ _____    ______ ____

>  <TORSDO>
F 2

$$$$
=
 OpenBabel11122412303D

 30 35  0  0  1  0  0  0  0  0999 V2000
  160.8770  210.3550  151.4950 C   0  0  0  0  0  0  0  0  0  0  0  0
  161.8540  208.2710  150.4930 C   0  0  0  0  0  0  0  0  0  0  0  0
  160.8240  208.6050  155.3230 N   0  0  0  0  0  2  0  0  0  0  0  0
  160.4450  211.0430  152.6530 C   0  0  0  0  0  0  0  0  0  0  0  0
  160.6500  211.0060  150.1570 C   0  0  0  0  0  2  0  0  0  0  0  0
  160.2400  214.4530  151.2880 O   0  0  0  0  0  0  0  0  0  0  0  0
  157.8140  211.6300  153.7410 C   0  0  1  0  0  3  0  0  0  0  0  0
  160.3390  213.1970  151.3420 C   0  0  0  0  0  0  0  0  0  0  0  0
  158.3520  210.9780  155.0150 C   0  0  2  0  0  3  0  0  0  0  0  0
  160.2100  209.6860  156.0240 C   0  0  0  0  0  0  0  0  0  0  0  0
  160.8140  212.4600  150.2060 N   0  0  0  0  0  0  0  0  0  0  0  0
  160.0240  212.4910  152.6280 C   0  0  1  0  0  3  0  0  0  0  0  0
  162.3220  206.9660  150.6700 C   0  0  0  0  0  3  0  0  0  0  0  0
  157.7680  211.6230  156.1130 O   0  0  0  0  0  0  0  0  0  0  0  0
  156.4460  212.0770  154.1750 C   0  0  0  0  0  2  0  0  0  0  0  0
  161.8830  208.8010  149.2080 O   0  0  0  0  0  1  0  0  0  0  0  0
  160.9350  209.0980  153.9960 C   0  0  0  0  0  0  0  0  0  0  0  0
  162.3360  206.3740  151.9310 C   0  0  0  0  0  3  0  0  0  0  0  0
  161.3780  209.0170  151.6050 C   0  0  0  0  0  0  0  0  0  0  0  0
  160.4640  210.3790  153.8760 C   0  0  0  0  0  0  0  0  0  0  0  0
  159.9750  209.6400  157.2600 O   0  0  0  0  0  0  0  0  0  0  0  0
  159.8770  210.8660  155.1580 C   0  0  1  0  0  3  0  0  0  0  0  0
  156.4630  211.9340  155.6890 C   0  0  0  0  0  2  0  0  0  0  0  0
  158.7460  213.9800  154.1770 C   0  0  0  0  0  1  0  0  0  0  0  0
  161.8800  207.0860  153.0380 C   0  0  0  0  0  3  0  0  0  0  0  0
  161.4090  208.3940  152.8910 C   0  0  0  0  0  0  0  0  0  0  0  0
  158.6280  212.8270  153.1870 C   0  0  2  0  0  3  0  0  0  0  0  0
  161.3020  213.1900  149.0360 C   0  0  0  0  0  2  0  0  0  0  0  0
  163.0710  212.5310  147.8920 C   0  0  0  0  0  1  0  0  0  0  0  0
  161.7000  212.3170  148.0190 O   0  0  0  0  0  0  0  0  0  0  0  0
  1 19  2  0  0  0  0
  1  4  1  0  0  0  0
  2 13  2  0  0  0  0
  2 19  1  0  0  0  0
  3 10  1  0  0  0  0
  4 20  2  0  0  0  0
  5 11  1  0  0  0  0
  5  1  1  0  0  0  0
  6  8  2  0  0  0  0
  7 15  1  1  0  0  0
  7  9  1  0  0  0  0
  9 22  1  0  0  0  0
  9 14  1  1  0  0  0
 10 21  2  0  0  0  0
 11  8  1  0  0  0  0
 12  8  1  6  0  0  0
 12  4  1  0  0  0  0
 12 27  1  0  0  0  0
 13 18  1  0  0  0  0
 15 23  1  0  0  0  0
 16  2  1  0  0  0  0
 17  3  1  0  0  0  0
 18 25  2  0  0  0  0
 19 26  1  0  0  0  0
 20 17  1  0  0  0  0
 22 20  1  6  0  0  0
 22 10  1  0  0  0  0
 23 14  1  0  0  0  0
 26 25  1  0  0  0  0
 26 17  2  0  0  0  0
 27  7  1  0  0  0  0
 27 24  1  1  0  0  0
 28 11  1  0  0  0  0
 29 30  1  0  0  0  0
 30 28  1  0  0  0  0
M  END
>  <MODEL>
6

>  <REMARK>
 VINA RESULT:      -4.7      1.928      4.934
  Name = 
  2 active torsions:
  status: ('A' for Active; 'I' for Inactive)
    1  A    between atoms: N_11  and  C_28
    2  A    between atoms: C_28  and  O_30
                            x       y       z     vdW  Elec       q    Type
                         _______ _______ _______ _____ _____    ______ ____

>  <TORSDO>
F 2

$$$$
=
 OpenBabel11122412303D

 30 35  0  0  1  0  0  0  0  0999 V2000
  160.2810  210.5330  152.8970 C   0  0  0  0  0  0  0  0  0  0  0  0
  159.2670  212.8290  152.8170 C   0  0  0  0  0  0  0  0  0  0  0  0
  161.9120  211.0160  149.0470 N   0  0  0  0  0  2  0  0  0  0  0  0
  161.0840  209.5520  152.2690 C   0  0  0  0  0  0  0  0  0  0  0  0
  159.5800  210.1650  154.1770 C   0  0  0  0  0  2  0  0  0  0  0  0
  161.6510  207.3150  155.1340 O   0  0  0  0  0  0  0  0  0  0  0  0
  160.4560  207.0970  150.8450 C   0  0  1  0  0  3  0  0  0  0  0  0
  161.1680  208.2350  154.4200 C   0  0  0  0  0  0  0  0  0  0  0  0
  161.3050  207.6980  149.7240 C   0  0  2  0  0  3  0  0  0  0  0  0
  162.4900  209.7170  148.9140 C   0  0  0  0  0  0  0  0  0  0  0  0
  160.3830  209.2770  155.0200 N   0  0  0  0  0  0  0  0  0  0  0  0
  161.4800  208.2680  152.9530 C   0  0  1  0  0  3  0  0  0  0  0  0
  159.0640  214.0220  152.1180 C   0  0  0  0  0  3  0  0  0  0  0  0
  161.9550  206.6490  149.0620 O   0  0  0  0  0  0  0  0  0  0  0  0
  160.1090  205.7470  150.2820 C   0  0  0  0  0  2  0  0  0  0  0  0
  158.7000  212.7150  154.0810 O   0  0  0  0  0  1  0  0  0  0  0  0
  161.3510  210.9920  150.3500 C   0  0  0  0  0  0  0  0  0  0  0  0
  159.6130  214.2130  150.8520 C   0  0  0  0  0  3  0  0  0  0  0  0
  160.0400  211.7850  152.2400 C   0  0  0  0  0  0  0  0  0  0  0  0
  161.5780  209.8040  150.9930 C   0  0  0  0  0  0  0  0  0  0  0  0
  163.1230  209.3640  147.8860 O   0  0  0  0  0  0  0  0  0  0  0  0
  162.2730  208.8280  150.1040 C   0  0  1  0  0  3  0  0  0  0  0  0
  161.0310  205.5890  149.0830 C   0  0  0  0  0  2  0  0  0  0  0  0
  162.3890  206.0710  152.1830 C   0  0  0  0  0  1  0  0  0  0  0  0
  160.3790  213.2080  150.2670 C   0  0  0  0  0  3  0  0  0  0  0  0
  160.6010  212.0050  150.9450 C   0  0  0  0  0  0  0  0  0  0  0  0
  161.1460  206.9520  152.2250 C   0  0  2  0  0  3  0  0  0  0  0  0
  160.2620  209.3300  156.4770 C   0  0  0  0  0  2  0  0  0  0  0  0
  161.9900  210.5000  157.1920 C   0  0  0  0  0  1  0  0  0  0  0  0
  160.6170  210.5870  156.9730 O   0  0  0  0  0  0  0  0  0  0  0  0
  1  5  1  0  0  0  0
  2 16  1  0  0  0  0
  3 17  1  0  0  0  0
  4  1  1  0  0  0  0
  5 11  1  0  0  0  0
  7 15  1  6  0  0  0
  7 27  1  0  0  0  0
  8 11  1  0  0  0  0
  8  6  2  0  0  0  0
  9 14  1  1  0  0  0
  9 22  1  0  0  0  0
  9  7  1  0  0  0  0
 10  3  1  0  0  0  0
 11 28  1  0  0  0  0
 12  4  1  6  0  0  0
 12  8  1  0  0  0  0
 13  2  2  0  0  0  0
 14 23  1  0  0  0  0
 17 26  2  0  0  0  0
 17 20  1  0  0  0  0
 18 13  1  0  0  0  0
 19  2  1  0  0  0  0
 19  1  2  0  0  0  0
 20  4  2  0  0  0  0
 21 10  2  0  0  0  0
 22 10  1  6  0  0  0
 22 20  1  0  0  0  0
 23 15  1  0  0  0  0
 25 18  2  0  0  0  0
 25 26  1  0  0  0  0
 26 19  1  0  0  0  0
 27 24  1  6  0  0  0
 27 12  1  0  0  0  0
 28 30  1  0  0  0  0
 30 29  1  0  0  0  0
M  END
>  <MODEL>
7

>  <REMARK>
 VINA RESULT:      -4.5      1.703      5.642
  Name = 
  2 active torsions:
  status: ('A' for Active; 'I' for Inactive)
    1  A    between atoms: N_11  and  C_28
    2  A    between atoms: C_28  and  O_30
                            x       y       z     vdW  Elec       q    Type
                         _______ _______ _______ _____ _____    ______ ____

>  <TORSDO>
F 2

$$$$
=
 OpenBabel11122412303D

 30 35  0  0  1  0  0  0  0  0999 V2000
  157.8400  212.9320  152.7170 C   0  0  0  0  0  0  0  0  0  0  0  0
  155.8940  213.9660  151.5140 C   0  0  0  0  0  0  0  0  0  0  0  0
  160.1030  212.8340  149.1700 N   0  0  0  0  0  2  0  0  0  0  0  0
  159.1740  212.4650  152.6650 C   0  0  0  0  0  0  0  0  0  0  0  0
  157.0630  212.7210  153.9890 C   0  0  0  0  0  2  0  0  0  0  0  0
  159.8720  212.2270  156.2690 O   0  0  0  0  0  0  0  0  0  0  0  0
  160.3370  209.8030  152.5570 C   0  0  1  0  0  3  0  0  0  0  0  0
  159.2390  212.3480  155.1850 C   0  0  0  0  0  0  0  0  0  0  0  0
  161.0680  210.3270  151.3200 C   0  0  2  0  0  3  0  0  0  0  0  0
  161.2630  212.1870  149.6940 C   0  0  0  0  0  0  0  0  0  0  0  0
  157.8970  212.8580  155.1840 N   0  0  0  0  0  0  0  0  0  0  0  0
  159.9280  212.0200  153.8930 C   0  0  1  0  0  3  0  0  0  0  0  0
  155.3460  214.4530  150.3240 C   0  0  0  0  0  3  0  0  0  0  0  0
  162.3230  209.7100  151.2630 O   0  0  0  0  0  0  0  0  0  0  0  0
  160.9070  208.4190  152.6910 C   0  0  0  0  0  2  0  0  0  0  0  0
  155.1030  214.0110  152.6560 O   0  0  0  0  0  1  0  0  0  0  0  0
  159.2600  212.9630  150.3040 C   0  0  0  0  0  0  0  0  0  0  0  0
  156.0850  214.4520  149.1430 C   0  0  0  0  0  3  0  0  0  0  0  0
  157.2200  213.4550  151.5350 C   0  0  0  0  0  0  0  0  0  0  0  0
  159.8410  212.4720  151.4440 C   0  0  0  0  0  0  0  0  0  0  0  0
  162.2690  211.9290  148.9840 O   0  0  0  0  0  0  0  0  0  0  0  0
  161.1660  211.8500  151.1540 C   0  0  1  0  0  3  0  0  0  0  0  0
  162.1010  208.4090  151.7490 C   0  0  0  0  0  2  0  0  0  0  0  0
  162.0020  210.6850  154.2980 C   0  0  0  0  0  1  0  0  0  0  0  0
  157.3890  213.9620  149.1380 C   0  0  0  0  0  3  0  0  0  0  0  0
  157.9620  213.4710  150.3140 C   0  0  0  0  0  0  0  0  0  0  0  0
  160.5420  210.6070  153.8660 C   0  0  2  0  0  3  0  0  0  0  0  0
  157.3240  213.3570  156.4350 C   0  0  0  0  0  2  0  0  0  0  0  0
  155.5950  212.2610  157.2600 C   0  0  0  0  0  1  0  0  0  0  0  0
  155.9270  213.3120  156.4080 O   0  0  0  0  0  0  0  0  0  0  0  0
  1  5  1  0  0  0  0
  2 19  1  0  0  0  0
  2 16  1  0  0  0  0
  3 10  1  0  0  0  0
  3 17  1  0  0  0  0
  4  1  1  0  0  0  0
  5 11  1  0  0  0  0
  7 15  1  1  0  0  0
  7 27  1  0  0  0  0
  8  6  2  0  0  0  0
  9 14  1  1  0  0  0
  9  7  1  0  0  0  0
 11  8  1  0  0  0  0
 11 28  1  0  0  0  0
 12  4  1  6  0  0  0
 12  8  1  0  0  0  0
 13  2  2  0  0  0  0
 14 23  1  0  0  0  0
 17 26  2  0  0  0  0
 17 20  1  0  0  0  0
 18 13  1  0  0  0  0
 19  1  2  0  0  0  0
 20  4  2  0  0  0  0
 21 10  2  0  0  0  0
 22 10  1  6  0  0  0
 22  9  1  0  0  0  0
 22 20  1  0  0  0  0
 23 15  1  0  0  0  0
 25 18  2  0  0  0  0
 25 26  1  0  0  0  0
 26 19  1  0  0  0  0
 27 12  1  0  0  0  0
 27 24  1  6  0  0  0
 30 28  1  0  0  0  0
 30 29  1  0  0  0  0
M  END
>  <MODEL>
8

>  <REMARK>
 VINA RESULT:      -4.3      2.451      5.886
  Name = 
  2 active torsions:
  status: ('A' for Active; 'I' for Inactive)
    1  A    between atoms: N_11  and  C_28
    2  A    between atoms: C_28  and  O_30
                            x       y       z     vdW  Elec       q    Type
                         _______ _______ _______ _____ _____    ______ ____

>  <TORSDO>
F 2

$$$$
=
 OpenBabel11122412303D

 30 35  0  0  1  0  0  0  0  0999 V2000
  159.5460  212.5850  154.0710 C   0  0  0  0  0  0  0  0  0  0  0  0
  160.4750  212.0870  156.3500 C   0  0  0  0  0  0  0  0  0  0  0  0
  162.1360  209.7810  152.2980 N   0  0  0  0  0  2  0  0  0  0  0  0
  159.5380  212.2930  152.6880 C   0  0  0  0  0  0  0  0  0  0  0  0
  158.7290  213.7530  154.5550 C   0  0  0  0  0  2  0  0  0  0  0  0
  156.4430  214.0340  151.7220 O   0  0  0  0  0  0  0  0  0  0  0  0
  160.6740  213.6380  150.3740 C   0  0  1  0  0  3  0  0  0  0  0  0
  157.4390  213.6660  152.4040 C   0  0  0  0  0  0  0  0  0  0  0  0
  161.3200  212.2830  150.0820 C   0  0  2  0  0  3  0  0  0  0  0  0
  161.7610  210.0000  150.9380 C   0  0  0  0  0  0  0  0  0  0  0  0
  157.4720  213.9010  153.8190 N   0  0  0  0  0  0  0  0  0  0  0  0
  158.5520  212.9170  151.7310 C   0  0  1  0  0  3  0  0  0  0  0  0
  161.3650  211.3600  157.1450 C   0  0  0  0  0  3  0  0  0  0  0  0
  161.4040  212.1330  148.6920 O   0  0  0  0  0  0  0  0  0  0  0  0
  161.1100  214.4520  149.1890 C   0  0  0  0  0  2  0  0  0  0  0  0
  159.6470  213.0080  156.9820 O   0  0  0  0  0  1  0  0  0  0  0  0
  161.2860  210.6610  153.0170 C   0  0  0  0  0  0  0  0  0  0  0  0
  162.2150  210.4100  156.5830 C   0  0  0  0  0  3  0  0  0  0  0  0
  160.4270  211.8690  154.9470 C   0  0  0  0  0  0  0  0  0  0  0  0
  160.4330  211.3490  152.1940 C   0  0  0  0  0  0  0  0  0  0  0  0
  162.2800  209.3620  149.9860 O   0  0  0  0  0  0  0  0  0  0  0  0
  160.7030  211.0500  150.7580 C   0  0  1  0  0  3  0  0  0  0  0  0
  161.6670  213.4280  148.2110 C   0  0  0  0  0  2  0  0  0  0  0  0
  158.4200  213.1580  149.2470 C   0  0  0  0  0  1  0  0  0  0  0  0
  162.1840  210.1730  155.2110 C   0  0  0  0  0  3  0  0  0  0  0  0
  161.3020  210.8850  154.3930 C   0  0  0  0  0  0  0  0  0  0  0  0
  159.1300  213.6480  150.5050 C   0  0  2  0  0  3  0  0  0  0  0  0
  156.2880  214.4530  154.4780 C   0  0  0  0  0  2  0  0  0  0  0  0
  155.4370  213.5530  156.3050 C   0  0  0  0  0  1  0  0  0  0  0  0
  155.4300  213.4400  154.9160 O   0  0  0  0  0  0  0  0  0  0  0  0
  1  5  1  0  0  0  0
  1 19  1  0  0  0  0
  2 16  1  0  0  0  0
  2 13  1  0  0  0  0
  3 17  1  0  0  0  0
  4  1  2  0  0  0  0
  6  8  2  0  0  0  0
  7 15  1  6  0  0  0
  7 27  1  0  0  0  0
  8 11  1  0  0  0  0
  9 14  1  6  0  0  0
  9  7  1  0  0  0  0
  9 22  1  0  0  0  0
 10  3  1  0  0  0  0
 11 28  1  0  0  0  0
 11  5  1  0  0  0  0
 12  8  1  1  0  0  0
 12  4  1  0  0  0  0
 17 26  1  0  0  0  0
 18 13  2  0  0  0  0
 19  2  2  0  0  0  0
 20  4  1  0  0  0  0
 20 17  2  0  0  0  0
 21 10  2  0  0  0  0
 22 10  1  1  0  0  0
 22 20  1  0  0  0  0
 23 14  1  0  0  0  0
 23 15  1  0  0  0  0
 25 18  1  0  0  0  0
 26 19  1  0  0  0  0
 26 25  2  0  0  0  0
 27 24  1  6  0  0  0
 27 12  1  0  0  0  0
 28 30  1  0  0  0  0
 30 29  1  0  0  0  0
M  END
>  <MODEL>
9

>  <REMARK>
 VINA RESULT:      -4.0      1.798      7.115
  Name = 
  2 active torsions:
  status: ('A' for Active; 'I' for Inactive)
    1  A    between atoms: N_11  and  C_28
    2  A    between atoms: C_28  and  O_30
                            x       y       z     vdW  Elec       q    Type
                         _______ _______ _______ _____ _____    ______ ____

>  <TORSDO>
F 2

$$$$
