=
 OpenBabel11122412593D

 32 37  0  0  1  0  0  0  0  0999 V2000
  160.7060  202.2360  147.0300 C   0  0  0  0  0  2  0  0  0  0  0  0
  161.4070  206.2080  150.8250 C   0  0  0  0  0  0  0  0  0  0  0  0
  162.2920  210.4740  148.6660 C   0  0  0  0  0  3  0  0  0  0  0  0
  162.0850  211.0880  149.8260 O   0  0  0  0  0  0  0  0  0  0  0  0
  160.8260  206.2160  153.2640 C   0  0  0  0  0  0  0  0  0  0  0  0
  160.6370  206.9870  154.4040 C   0  0  0  0  0  0  0  0  0  0  0  0
  161.2030  204.1110  149.3920 C   0  0  1  0  0  3  0  0  0  0  0  0
  161.8870  206.2520  148.3210 C   0  0  0  0  0  2  0  0  0  0  0  0
  160.5170  208.7630  155.6450 C   0  0  0  0  0  0  0  0  0  0  0  0
  162.1150  204.1940  146.9880 C   0  0  0  0  0  2  0  0  0  0  0  0
  162.1890  209.0860  148.5720 C   0  0  0  0  0  3  0  0  0  0  0  0
  161.7530  206.9400  149.6600 C   0  0  0  0  0  0  0  0  0  0  0  0
  161.8630  208.3420  149.7150 C   0  0  0  0  0  0  0  0  0  0  0  0
  161.3080  208.3230  152.0880 C   0  0  0  0  0  0  0  0  0  0  0  0
  160.2300  207.6800  156.4060 N   0  0  0  0  0  0  0  0  0  0  0  0
  161.5790  201.8120  148.2220 C   0  0  0  0  0  2  0  0  0  0  0  0
  162.1940  204.7640  148.4100 C   0  0  2  0  0  3  0  0  0  0  0  0
  160.3020  206.5880  155.6450 N   0  0  0  0  0  0  0  0  0  0  0  0
  161.2910  202.5810  149.5130 C   0  0  0  0  0  2  0  0  0  0  0  0
  160.7780  203.6690  146.7120 N   0  0  0  0  0  0  0  0  0  0  0  0
  161.7720  210.4240  150.9330 C   0  0  0  0  0  3  0  0  0  0  0  0
  161.6480  209.0260  150.9250 C   0  0  0  0  0  0  0  0  0  0  0  0
  161.1020  209.0120  153.2550 N   0  0  0  0  0  0  0  0  0  0  0  0
  161.4130  204.6980  150.7790 C   0  0  0  0  0  2  0  0  0  0  0  0
  160.6550  204.8380  153.3450 O   0  0  0  0  0  1  0  0  0  0  0  0
  160.5360  210.1660  156.1390 C   0  0  0  0  0  1  0  0  0  0  0  0
  161.1810  206.8900  152.0530 C   0  0  0  0  0  0  0  0  0  0  0  0
  160.7760  208.3310  154.3730 C   0  0  0  0  0  0  0  0  0  0  0  0
  160.5570  203.7930  145.2820 C   0  0  0  0  0  2  0  0  0  0  0  0
  161.0900  205.1260  144.7850 C   0  0  2  0  0  3  0  0  0  0  0  0
  160.1390  206.2300  145.1960 C   0  0  0  0  0  1  0  0  0  0  0  0
  161.2010  205.1050  143.3950 O   0  0  0  0  0  1  0  0  0  0  0  0
  1 16  1  0  0  0  0
  2 27  2  0  0  0  0
  3  4  1  0  0  0  0
  4 21  1  0  0  0  0
  5 25  1  0  0  0  0
  5  6  2  0  0  0  0
  6 18  1  0  0  0  0
  7 19  1  1  0  0  0
  7 24  1  0  0  0  0
  8 17  1  0  0  0  0
  8 12  1  0  0  0  0
  9 26  1  0  0  0  0
  9 15  1  0  0  0  0
 11  3  2  0  0  0  0
 11 13  1  0  0  0  0
 12 13  2  0  0  0  0
 12  2  1  0  0  0  0
 13 22  1  0  0  0  0
 14 23  2  0  0  0  0
 16 19  1  0  0  0  0
 17 10  1  6  0  0  0
 17  7  1  0  0  0  0
 18 15  2  0  0  0  0
 20 10  1  0  0  0  0
 20  1  1  0  0  0  0
 22 21  2  0  0  0  0
 22 14  1  0  0  0  0
 23 28  1  0  0  0  0
 24  2  1  0  0  0  0
 27 14  1  0  0  0  0
 27  5  1  0  0  0  0
 28  6  1  0  0  0  0
 28  9  2  0  0  0  0
 29 20  1  0  0  0  0
 30 31  1  6  0  0  0
 30 29  1  0  0  0  0
 32 30  1  0  0  0  0
M  END
>  <MODEL>
1

>  <REMARK>
 VINA RESULT:      -9.2      0.000      0.000
  Name = 
  2 active torsions:
  status: ('A' for Active; 'I' for Inactive)
    1  A    between atoms: N_20  and  C_29
    2  A    between atoms: C_29  and  C_30
                            x       y       z     vdW  Elec       q    Type
                         _______ _______ _______ _____ _____    ______ ____

>  <TORSDO>
F 2

$$$$
=
 OpenBabel11122412593D

 32 37  0  0  1  0  0  0  0  0999 V2000
  161.2820  208.3670  157.2610 C   0  0  0  0  0  2  0  0  0  0  0  0
  161.0850  207.3140  151.8270 C   0  0  0  0  0  0  0  0  0  0  0  0
  162.1790  211.3130  149.2870 C   0  0  0  0  0  3  0  0  0  0  0  0
  162.3070  210.5680  148.1950 O   0  0  0  0  0  0  0  0  0  0  0  0
  161.0610  205.1160  150.6190 C   0  0  0  0  0  0  0  0  0  0  0  0
  161.2280  204.4650  149.4040 C   0  0  0  0  0  0  0  0  0  0  0  0
  160.9060  207.4660  154.3640 C   0  0  1  0  0  3  0  0  0  0  0  0
  161.2330  209.5510  153.0430 C   0  0  0  0  0  2  0  0  0  0  0  0
  161.6410  204.2070  147.2900 C   0  0  0  0  0  0  0  0  0  0  0  0
  160.6490  209.7970  155.4220 C   0  0  0  0  0  2  0  0  0  0  0  0
  161.8370  210.7290  150.5060 C   0  0  0  0  0  3  0  0  0  0  0  0
  161.2760  208.7190  151.7820 C   0  0  0  0  0  0  0  0  0  0  0  0
  161.6270  209.3440  150.5700 C   0  0  0  0  0  0  0  0  0  0  0  0
  161.5850  207.1980  149.4160 C   0  0  0  0  0  0  0  0  0  0  0  0
  161.3710  202.9950  147.8310 N   0  0  0  0  0  0  0  0  0  0  0  0
  160.0690  207.5250  156.8320 C   0  0  0  0  0  2  0  0  0  0  0  0
  160.4390  208.9220  154.1790 C   0  0  2  0  0  3  0  0  0  0  0  0
  161.1180  203.1510  149.1310 N   0  0  0  0  0  0  0  0  0  0  0  0
  160.2910  206.7120  155.5550 C   0  0  0  0  0  2  0  0  0  0  0  0
  161.7620  209.2960  156.2280 N   0  0  0  0  0  0  0  0  0  0  0  0
  162.1200  209.2520  148.2090 C   0  0  0  0  0  3  0  0  0  0  0  0
  161.7730  208.5860  149.3940 C   0  0  0  0  0  0  0  0  0  0  0  0
  161.7340  206.4810  148.2570 N   0  0  0  0  0  0  0  0  0  0  0  0
  160.5900  206.6760  153.1040 C   0  0  0  0  0  2  0  0  0  0  0  0
  160.7420  204.3690  151.7480 O   0  0  0  0  0  1  0  0  0  0  0  0
  161.9750  204.4410  145.8590 C   0  0  0  0  0  1  0  0  0  0  0  0
  161.2360  206.5370  150.6450 C   0  0  0  0  0  0  0  0  0  0  0  0
  161.5520  205.1440  148.2820 C   0  0  0  0  0  0  0  0  0  0  0  0
  162.3330  210.4370  156.9230 C   0  0  0  0  0  2  0  0  0  0  0  0
  163.7540  210.6820  156.4450 C   0  0  2  0  0  3  0  0  0  0  0  0
  164.3710  211.7980  157.2600 C   0  0  0  0  0  1  0  0  0  0  0  0
  163.7460  211.0440  155.0980 O   0  0  0  0  0  1  0  0  0  0  0  0
  2 24  1  0  0  0  0
  3 11  2  0  0  0  0
  4 21  1  0  0  0  0
  4  3  1  0  0  0  0
  5 27  1  0  0  0  0
  5 25  1  0  0  0  0
  6  5  2  0  0  0  0
  7 24  1  6  0  0  0
  7 19  1  0  0  0  0
  9 15  1  0  0  0  0
  9 28  2  0  0  0  0
 10 20  1  0  0  0  0
 11 13  1  0  0  0  0
 12  2  1  0  0  0  0
 12  8  1  0  0  0  0
 13 12  2  0  0  0  0
 14 27  1  0  0  0  0
 15 18  2  0  0  0  0
 16  1  1  0  0  0  0
 17  8  1  6  0  0  0
 17  7  1  0  0  0  0
 17 10  1  0  0  0  0
 18  6  1  0  0  0  0
 19 16  1  0  0  0  0
 20 29  1  0  0  0  0
 20  1  1  0  0  0  0
 21 22  2  0  0  0  0
 22 14  1  0  0  0  0
 22 13  1  0  0  0  0
 23 28  1  0  0  0  0
 23 14  2  0  0  0  0
 26  9  1  0  0  0  0
 27  2  2  0  0  0  0
 28  6  1  0  0  0  0
 30 29  1  0  0  0  0
 30 31  1  1  0  0  0
 32 30  1  0  0  0  0
M  END
>  <MODEL>
2

>  <REMARK>
 VINA RESULT:      -9.1      1.949      7.803
  Name = 
  2 active torsions:
  status: ('A' for Active; 'I' for Inactive)
    1  A    between atoms: N_20  and  C_29
    2  A    between atoms: C_29  and  C_30
                            x       y       z     vdW  Elec       q    Type
                         _______ _______ _______ _____ _____    ______ ____

>  <TORSDO>
F 2

$$$$
=
 OpenBabel11122412593D

 32 37  0  0  1  0  0  0  0  0999 V2000
  161.0390  212.4210  149.7990 C   0  0  0  0  0  2  0  0  0  0  0  0
  161.5410  206.9370  149.2180 C   0  0  0  0  0  0  0  0  0  0  0  0
  161.0010  204.7230  153.5140 C   0  0  0  0  0  3  0  0  0  0  0  0
  160.8880  203.5590  152.8840 O   0  0  0  0  0  0  0  0  0  0  0  0
  161.4570  205.5290  147.1440 C   0  0  0  0  0  0  0  0  0  0  0  0
  161.3220  204.2490  146.6230 C   0  0  0  0  0  0  0  0  0  0  0  0
  161.5450  209.4830  149.1270 C   0  0  1  0  0  3  0  0  0  0  0  0
  161.5050  208.3480  151.3420 C   0  0  0  0  0  2  0  0  0  0  0  0
  161.0450  202.0970  146.5940 C   0  0  0  0  0  0  0  0  0  0  0  0
  161.9310  210.7730  151.3190 C   0  0  0  0  0  2  0  0  0  0  0  0
  161.1990  205.9010  152.7940 C   0  0  0  0  0  3  0  0  0  0  0  0
  161.4800  207.0130  150.6330 C   0  0  0  0  0  0  0  0  0  0  0  0
  161.2780  205.8460  151.3950 C   0  0  0  0  0  0  0  0  0  0  0  0
  161.2120  204.4980  149.3650 C   0  0  0  0  0  0  0  0  0  0  0  0
  161.1640  202.5370  145.3180 N   0  0  0  0  0  0  0  0  0  0  0  0
  162.1990  211.9950  148.8860 C   0  0  0  0  0  2  0  0  0  0  0  0
  162.1530  209.4690  150.5420 C   0  0  2  0  0  3  0  0  0  0  0  0
  161.3340  203.8600  145.3340 N   0  0  0  0  0  0  0  0  0  0  0  0
  162.0000  210.6340  148.2140 C   0  0  0  0  0  2  0  0  0  0  0  0
  160.7210  211.4530  150.8580 N   0  0  0  0  0  0  0  0  0  0  0  0
  160.9540  203.4600  151.5610 C   0  0  0  0  0  3  0  0  0  0  0  0
  161.1510  204.5960  150.7620 C   0  0  0  0  0  0  0  0  0  0  0  0
  161.0850  203.2680  148.7710 N   0  0  0  0  0  0  0  0  0  0  0  0
  161.8810  208.1760  148.4240 C   0  0  0  0  0  2  0  0  0  0  0  0
  161.6220  206.6000  146.2730 O   0  0  0  0  0  1  0  0  0  0  0  0
  160.8400  200.6770  146.9860 C   0  0  0  0  0  1  0  0  0  0  0  0
  161.4080  205.6780  148.5670 C   0  0  0  0  0  0  0  0  0  0  0  0
  161.1440  203.1780  147.4270 C   0  0  0  0  0  0  0  0  0  0  0  0
  160.2050  212.2140  151.9820 C   0  0  0  0  0  2  0  0  0  0  0  0
  159.8450  211.2800  153.1240 C   0  0  2  0  0  3  0  0  0  0  0  0
  158.3610  211.3820  153.4060 C   0  0  0  0  0  1  0  0  0  0  0  0
  160.5580  211.6330  154.2700 O   0  0  0  0  0  1  0  0  0  0  0  0
  1 20  1  0  0  0  0
  2 12  1  0  0  0  0
  4  3  1  0  0  0  0
  5 27  1  0  0  0  0
  6  5  2  0  0  0  0
  6 28  1  0  0  0  0
  7 19  1  6  0  0  0
  7 17  1  0  0  0  0
  9 26  1  0  0  0  0
  9 28  2  0  0  0  0
 11  3  2  0  0  0  0
 12  8  1  0  0  0  0
 12 13  2  0  0  0  0
 13 11  1  0  0  0  0
 14 22  1  0  0  0  0
 15 18  2  0  0  0  0
 15  9  1  0  0  0  0
 16  1  1  0  0  0  0
 17 10  1  1  0  0  0
 17  8  1  0  0  0  0
 18  6  1  0  0  0  0
 19 16  1  0  0  0  0
 20 10  1  0  0  0  0
 20 29  1  0  0  0  0
 21  4  1  0  0  0  0
 22 13  1  0  0  0  0
 22 21  2  0  0  0  0
 23 14  2  0  0  0  0
 24  7  1  0  0  0  0
 24  2  1  0  0  0  0
 25  5  1  0  0  0  0
 27  2  2  0  0  0  0
 27 14  1  0  0  0  0
 28 23  1  0  0  0  0
 29 30  1  0  0  0  0
 30 31  1  1  0  0  0
 30 32  1  0  0  0  0
M  END
>  <MODEL>
3

>  <REMARK>
 VINA RESULT:      -8.8      2.546      8.142
  Name = 
  2 active torsions:
  status: ('A' for Active; 'I' for Inactive)
    1  A    between atoms: N_20  and  C_29
    2  A    between atoms: C_29  and  C_30
                            x       y       z     vdW  Elec       q    Type
                         _______ _______ _______ _____ _____    ______ ____

>  <TORSDO>
F 2

$$$$
=
 OpenBabel11122412593D

 32 37  0  0  1  0  0  0  0  0999 V2000
  160.1310  201.4520  149.4590 C   0  0  0  0  0  2  0  0  0  0  0  0
  161.2520  206.3130  151.8640 C   0  0  0  0  0  0  0  0  0  0  0  0
  162.0460  209.7270  148.4930 C   0  0  0  0  0  3  0  0  0  0  0  0
  161.9540  210.6580  149.4350 O   0  0  0  0  0  0  0  0  0  0  0  0
  160.8860  207.0530  154.2320 C   0  0  0  0  0  0  0  0  0  0  0  0
  160.8150  208.1290  155.1070 C   0  0  0  0  0  0  0  0  0  0  0  0
  160.8750  203.9040  151.1250 C   0  0  1  0  0  3  0  0  0  0  0  0
  161.5130  205.6090  149.4270 C   0  0  0  0  0  2  0  0  0  0  0  0
  160.8450  210.1910  155.7820 C   0  0  0  0  0  0  0  0  0  0  0  0
  161.5770  203.2450  148.7390 C   0  0  0  0  0  2  0  0  0  0  0  0
  161.9020  208.3770  148.8160 C   0  0  0  0  0  3  0  0  0  0  0  0
  161.5130  206.6600  150.5140 C   0  0  0  0  0  0  0  0  0  0  0  0
  161.6600  208.0120  150.1480 C   0  0  0  0  0  0  0  0  0  0  0  0
  161.3130  208.7050  152.4590 C   0  0  0  0  0  0  0  0  0  0  0  0
  160.6000  209.3890  156.8460 N   0  0  0  0  0  0  0  0  0  0  0  0
  161.0950  201.3500  150.6520 C   0  0  0  0  0  2  0  0  0  0  0  0
  161.7920  204.1970  149.9230 C   0  0  2  0  0  3  0  0  0  0  0  0
  160.5800  208.1220  156.4330 N   0  0  0  0  0  0  0  0  0  0  0  0
  160.9380  202.4720  151.6810 C   0  0  0  0  0  2  0  0  0  0  0  0
  160.2090  202.7270  148.7320 N   0  0  0  0  0  0  0  0  0  0  0  0
  161.7240  210.3580  150.7090 C   0  0  0  0  0  3  0  0  0  0  0  0
  161.5670  209.0250  151.1190 C   0  0  0  0  0  0  0  0  0  0  0  0
  161.2260  209.7110  153.3860 N   0  0  0  0  0  0  0  0  0  0  0  0
  161.2190  204.8560  152.2610 C   0  0  0  0  0  2  0  0  0  0  0  0
  160.6910  205.7670  154.7240 O   0  0  0  0  0  1  0  0  0  0  0  0
  160.9390  211.6750  155.8410 C   0  0  0  0  0  1  0  0  0  0  0  0
  161.1500  207.3310  152.8530 C   0  0  0  0  0  0  0  0  0  0  0  0
  160.9820  209.3980  154.6750 C   0  0  0  0  0  0  0  0  0  0  0  0
  159.8680  202.4430  147.3490 C   0  0  0  0  0  2  0  0  0  0  0  0
  161.1250  202.1420  146.5520 C   0  0  2  0  0  3  0  0  0  0  0  0
  161.2120  203.0900  145.3750 C   0  0  0  0  0  1  0  0  0  0  0  0
  161.0880  200.8280  146.0850 O   0  0  0  0  0  1  0  0  0  0  0  0
  1 16  1  0  0  0  0
  2 24  1  0  0  0  0
  2 27  2  0  0  0  0
  3 11  2  0  0  0  0
  3  4  1  0  0  0  0
  4 21  1  0  0  0  0
  5 25  1  0  0  0  0
  5  6  2  0  0  0  0
  6 18  1  0  0  0  0
  7 19  1  1  0  0  0
  7 24  1  0  0  0  0
  8 17  1  0  0  0  0
  8 12  1  0  0  0  0
  9 26  1  0  0  0  0
  9 15  1  0  0  0  0
 11 13  1  0  0  0  0
 12  2  1  0  0  0  0
 13 12  2  0  0  0  0
 13 22  1  0  0  0  0
 14 27  1  0  0  0  0
 14 23  2  0  0  0  0
 16 19  1  0  0  0  0
 17 10  1  6  0  0  0
 17  7  1  0  0  0  0
 18 15  2  0  0  0  0
 20 10  1  0  0  0  0
 20  1  1  0  0  0  0
 21 22  2  0  0  0  0
 22 14  1  0  0  0  0
 23 28  1  0  0  0  0
 27  5  1  0  0  0  0
 28  6  1  0  0  0  0
 28  9  2  0  0  0  0
 29 20  1  0  0  0  0
 30 31  1  6  0  0  0
 30 29  1  0  0  0  0
 32 30  1  0  0  0  0
M  END
>  <MODEL>
4

>  <REMARK>
 VINA RESULT:      -8.7      1.528      1.912
  Name = 
  2 active torsions:
  status: ('A' for Active; 'I' for Inactive)
    1  A    between atoms: N_20  and  C_29
    2  A    between atoms: C_29  and  C_30
                            x       y       z     vdW  Elec       q    Type
                         _______ _______ _______ _____ _____    ______ ____

>  <TORSDO>
F 2

$$$$
=
 OpenBabel11122412593D

 32 37  0  0  1  0  0  0  0  0999 V2000
  160.6950  210.4350  153.7730 C   0  0  0  0  0  2  0  0  0  0  0  0
  161.2640  206.3970  150.0260 C   0  0  0  0  0  0  0  0  0  0  0  0
  160.8840  202.0430  152.1580 C   0  0  0  0  0  3  0  0  0  0  0  0
  160.7700  201.4820  150.9590 O   0  0  0  0  0  0  0  0  0  0  0  0
  161.1420  206.5020  147.5240 C   0  0  0  0  0  0  0  0  0  0  0  0
  161.0110  205.7830  146.3430 C   0  0  0  0  0  0  0  0  0  0  0  0
  161.2260  208.4940  151.4730 C   0  0  1  0  0  3  0  0  0  0  0  0
  161.2680  206.2610  152.5730 C   0  0  0  0  0  2  0  0  0  0  0  0
  160.7670  204.0650  145.0390 C   0  0  0  0  0  0  0  0  0  0  0  0
  161.6560  208.2330  153.9950 C   0  0  0  0  0  2  0  0  0  0  0  0
  161.0420  203.4230  152.2810 C   0  0  0  0  0  3  0  0  0  0  0  0
  161.2440  205.6120  151.2070 C   0  0  0  0  0  0  0  0  0  0  0  0
  161.0810  204.2160  151.1250 C   0  0  0  0  0  0  0  0  0  0  0  0
  160.9770  204.3430  148.6930 C   0  0  0  0  0  0  0  0  0  0  0  0
  160.8420  205.1830  144.2770 N   0  0  0  0  0  0  0  0  0  0  0  0
  161.8340  210.6720  152.7700 C   0  0  0  0  0  2  0  0  0  0  0  0
  161.8750  207.6560  152.5910 C   0  0  2  0  0  3  0  0  0  0  0  0
  160.9910  206.2390  145.0760 N   0  0  0  0  0  0  0  0  0  0  0  0
  161.6370  209.9750  151.4210 C   0  0  0  0  0  2  0  0  0  0  0  0
  160.4230  209.0170  154.0490 N   0  0  0  0  0  0  0  0  0  0  0  0
  160.8000  202.1930  149.8370 C   0  0  0  0  0  3  0  0  0  0  0  0
  160.9560  203.5880  149.8720 C   0  0  0  0  0  0  0  0  0  0  0  0
  160.8520  203.7070  147.4840 N   0  0  0  0  0  0  0  0  0  0  0  0
  161.5620  207.8750  150.1240 C   0  0  0  0  0  2  0  0  0  0  0  0
  161.2650  207.8860  147.4610 O   0  0  0  0  0  1  0  0  0  0  0  0
  160.5950  202.6860  144.5080 C   0  0  0  0  0  1  0  0  0  0  0  0
  161.1320  205.7720  148.7540 C   0  0  0  0  0  0  0  0  0  0  0  0
  160.8740  204.4390  146.3510 C   0  0  0  0  0  0  0  0  0  0  0  0
  159.9290  208.9420  155.4130 C   0  0  0  0  0  2  0  0  0  0  0  0
  160.8760  208.1170  156.2670 C   0  0  2  0  0  3  0  0  0  0  0  0
  160.1100  206.9820  156.9120 C   0  0  0  0  0  1  0  0  0  0  0  0
  161.4380  208.9180  157.2610 O   0  0  0  0  0  1  0  0  0  0  0  0
  1 20  1  0  0  0  0
  2 24  1  0  0  0  0
  2 12  1  0  0  0  0
  3 11  2  0  0  0  0
  4  3  1  0  0  0  0
  5 27  1  0  0  0  0
  6 28  1  0  0  0  0
  6  5  2  0  0  0  0
  7 24  1  6  0  0  0
  7 17  1  0  0  0  0
  9 28  2  0  0  0  0
 10 20  1  0  0  0  0
 12  8  1  0  0  0  0
 13 12  2  0  0  0  0
 13 11  1  0  0  0  0
 14 27  1  0  0  0  0
 14 22  1  0  0  0  0
 15  9  1  0  0  0  0
 15 18  2  0  0  0  0
 16  1  1  0  0  0  0
 17  8  1  1  0  0  0
 17 10  1  0  0  0  0
 18  6  1  0  0  0  0
 19  7  1  0  0  0  0
 19 16  1  0  0  0  0
 20 29  1  0  0  0  0
 21 22  2  0  0  0  0
 21  4  1  0  0  0  0
 22 13  1  0  0  0  0
 23 14  2  0  0  0  0
 25  5  1  0  0  0  0
 26  9  1  0  0  0  0
 27  2  2  0  0  0  0
 28 23  1  0  0  0  0
 29 30  1  0  0  0  0
 30 31  1  1  0  0  0
 30 32  1  0  0  0  0
M  END
>  <MODEL>
5

>  <REMARK>
 VINA RESULT:      -8.1      1.991      8.628
  Name = 
  2 active torsions:
  status: ('A' for Active; 'I' for Inactive)
    1  A    between atoms: N_20  and  C_29
    2  A    between atoms: C_29  and  C_30
                            x       y       z     vdW  Elec       q    Type
                         _______ _______ _______ _____ _____    ______ ____

>  <TORSDO>
F 2

$$$$
=
 OpenBabel11122412593D

 32 37  0  0  1  0  0  0  0  0999 V2000
  161.6530  208.4710  157.2610 C   0  0  0  0  0  2  0  0  0  0  0  0
  161.0140  206.5100  152.1210 C   0  0  0  0  0  0  0  0  0  0  0  0
  161.9160  209.9980  148.8540 C   0  0  0  0  0  3  0  0  0  0  0  0
  161.9520  209.0750  147.9000 O   0  0  0  0  0  0  0  0  0  0  0  0
  160.8840  204.1400  151.3130 C   0  0  0  0  0  0  0  0  0  0  0  0
  160.9510  203.2880  150.2180 C   0  0  0  0  0  0  0  0  0  0  0  0
  161.0420  207.0960  154.6000 C   0  0  1  0  0  3  0  0  0  0  0  0
  161.2690  208.9190  152.9200 C   0  0  0  0  0  2  0  0  0  0  0  0
  161.1910  202.6650  148.1530 C   0  0  0  0  0  0  0  0  0  0  0  0
  160.8790  209.5770  155.2600 C   0  0  0  0  0  2  0  0  0  0  0  0
  161.6700  209.6360  150.1790 C   0  0  0  0  0  3  0  0  0  0  0  0
  161.2070  207.8830  151.8200 C   0  0  0  0  0  0  0  0  0  0  0  0
  161.4610  208.2870  150.4950 C   0  0  0  0  0  0  0  0  0  0  0  0
  161.3180  205.9760  149.7330 C   0  0  0  0  0  0  0  0  0  0  0  0
  160.9610  201.5690  148.9140 N   0  0  0  0  0  0  0  0  0  0  0  0
  160.4070  207.5900  157.0800 C   0  0  0  0  0  2  0  0  0  0  0  0
  160.5670  208.5070  154.2060 C   0  0  2  0  0  3  0  0  0  0  0  0
  160.8140  201.9490  150.1830 N   0  0  0  0  0  0  0  0  0  0  0  0
  160.5220  206.5670  155.9470 C   0  0  0  0  0  2  0  0  0  0  0  0
  162.0520  209.2020  156.0500 N   0  0  0  0  0  0  0  0  0  0  0  0
  161.7620  207.7850  148.1530 C   0  0  0  0  0  3  0  0  0  0  0  0
  161.5090  207.3370  149.4590 C   0  0  0  0  0  0  0  0  0  0  0  0
  161.3710  205.0690  148.7060 N   0  0  0  0  0  0  0  0  0  0  0  0
  160.6210  206.1080  153.5230 C   0  0  0  0  0  2  0  0  0  0  0  0
  160.6560  203.6020  152.5750 O   0  0  0  0  0  1  0  0  0  0  0  0
  161.4090  202.6470  146.6820 C   0  0  0  0  0  1  0  0  0  0  0  0
  161.0670  205.5400  151.0810 C   0  0  0  0  0  0  0  0  0  0  0  0
  161.1850  203.7600  148.9740 C   0  0  0  0  0  0  0  0  0  0  0  0
  162.6810  210.4340  156.4910 C   0  0  0  0  0  2  0  0  0  0  0  0
  161.7080  211.5930  156.3620 C   0  0  2  0  0  3  0  0  0  0  0  0
  160.5130  211.3450  157.2590 C   0  0  0  0  0  1  0  0  0  0  0  0
  161.2770  211.7060  155.0400 O   0  0  0  0  0  1  0  0  0  0  0  0
  2 24  1  0  0  0  0
  3 11  2  0  0  0  0
  4 21  1  0  0  0  0
  4  3  1  0  0  0  0
  5 25  1  0  0  0  0
  6  5  2  0  0  0  0
  7 24  1  6  0  0  0
  7 19  1  0  0  0  0
  9 15  1  0  0  0  0
  9 28  2  0  0  0  0
 10 20  1  0  0  0  0
 11 13  1  0  0  0  0
 12  2  1  0  0  0  0
 12  8  1  0  0  0  0
 13 12  2  0  0  0  0
 14 27  1  0  0  0  0
 15 18  2  0  0  0  0
 16  1  1  0  0  0  0
 17  8  1  6  0  0  0
 17  7  1  0  0  0  0
 17 10  1  0  0  0  0
 18  6  1  0  0  0  0
 19 16  1  0  0  0  0
 20 29  1  0  0  0  0
 20  1  1  0  0  0  0
 21 22  2  0  0  0  0
 22 14  1  0  0  0  0
 22 13  1  0  0  0  0
 23 28  1  0  0  0  0
 23 14  2  0  0  0  0
 26  9  1  0  0  0  0
 27  5  1  0  0  0  0
 27  2  2  0  0  0  0
 28  6  1  0  0  0  0
 30 29  1  0  0  0  0
 30 31  1  1  0  0  0
 32 30  1  0  0  0  0
M  END
>  <MODEL>
6

>  <REMARK>
 VINA RESULT:      -7.1      1.975      7.762
  Name = 
  2 active torsions:
  status: ('A' for Active; 'I' for Inactive)
    1  A    between atoms: N_20  and  C_29
    2  A    between atoms: C_29  and  C_30
                            x       y       z     vdW  Elec       q    Type
                         _______ _______ _______ _____ _____    ______ ____

>  <TORSDO>
F 2

$$$$
=
 OpenBabel11122412593D

 32 37  0  0  1  0  0  0  0  0999 V2000
  161.2060  204.1510  150.3520 C   0  0  0  0  0  2  0  0  0  0  0  0
  160.7590  209.1940  152.5960 C   0  0  0  0  0  0  0  0  0  0  0  0
  161.2900  212.6180  149.1840 C   0  0  0  0  0  3  0  0  0  0  0  0
  160.8310  213.5230  150.0400 O   0  0  0  0  0  0  0  0  0  0  0  0
  159.8450  209.8820  154.8270 C   0  0  0  0  0  0  0  0  0  0  0  0
  159.3830  210.9300  155.6120 C   0  0  0  0  0  0  0  0  0  0  0  0
  161.0770  206.7480  151.9580 C   0  0  1  0  0  3  0  0  0  0  0  0
  161.5760  208.5150  150.2770 C   0  0  0  0  0  2  0  0  0  0  0  0
  158.8240  212.9560  156.1540 C   0  0  0  0  0  0  0  0  0  0  0  0
  162.2970  206.2190  149.7560 C   0  0  0  0  0  2  0  0  0  0  0  0
  161.4100  211.2820  149.5630 C   0  0  0  0  0  3  0  0  0  0  0  0
  161.1530  209.5620  151.2830 C   0  0  0  0  0  0  0  0  0  0  0  0
  161.0420  210.9000  150.8610 C   0  0  0  0  0  0  0  0  0  0  0  0
  160.1660  211.5460  153.0430 C   0  0  0  0  0  0  0  0  0  0  0  0
  158.5980  212.1440  157.2140 N   0  0  0  0  0  0  0  0  0  0  0  0
  161.9560  204.3090  151.6840 C   0  0  0  0  0  2  0  0  0  0  0  0
  162.0870  207.2230  150.8970 C   0  0  2  0  0  3  0  0  0  0  0  0
  158.9400  210.8990  156.8840 N   0  0  0  0  0  0  0  0  0  0  0  0
  161.3760  205.3860  152.6050 C   0  0  0  0  0  2  0  0  0  0  0  0
  161.1060  205.3900  149.5680 N   0  0  0  0  0  0  0  0  0  0  0  0
  160.4680  213.2070  151.2790 C   0  0  0  0  0  3  0  0  0  0  0  0
  160.5580  211.8850  151.7410 C   0  0  0  0  0  0  0  0  0  0  0  0
  159.6970  212.5240  153.8810 N   0  0  0  0  0  0  0  0  0  0  0  0
  160.9990  207.7810  153.0720 C   0  0  0  0  0  2  0  0  0  0  0  0
  159.8730  208.5990  155.3620 O   0  0  0  0  0  1  0  0  0  0  0  0
  158.5610  214.4200  156.1350 C   0  0  0  0  0  1  0  0  0  0  0  0
  160.2620  210.1820  153.4910 C   0  0  0  0  0  0  0  0  0  0  0  0
  159.3220  212.1920  155.1340 C   0  0  0  0  0  0  0  0  0  0  0  0
  161.0740  205.0010  148.1700 C   0  0  0  0  0  2  0  0  0  0  0  0
  161.0350  206.2350  147.2850 C   0  0  2  0  0  3  0  0  0  0  0  0
  160.4600  205.8650  145.9340 C   0  0  0  0  0  1  0  0  0  0  0  0
  162.3250  206.7380  147.1160 O   0  0  0  0  0  1  0  0  0  0  0  0
  1 16  1  0  0  0  0
  2 24  1  0  0  0  0
  2 27  2  0  0  0  0
  3 11  2  0  0  0  0
  3  4  1  0  0  0  0
  4 21  1  0  0  0  0
  5 25  1  0  0  0  0
  5  6  2  0  0  0  0
  6 18  1  0  0  0  0
  7 19  1  1  0  0  0
  7 24  1  0  0  0  0
  8 17  1  0  0  0  0
  8 12  1  0  0  0  0
  9 15  1  0  0  0  0
 11 13  1  0  0  0  0
 12  2  1  0  0  0  0
 13 12  2  0  0  0  0
 13 22  1  0  0  0  0
 14 27  1  0  0  0  0
 14 23  2  0  0  0  0
 16 19  1  0  0  0  0
 17 10  1  6  0  0  0
 17  7  1  0  0  0  0
 18 15  2  0  0  0  0
 20 10  1  0  0  0  0
 20  1  1  0  0  0  0
 21 22  2  0  0  0  0
 22 14  1  0  0  0  0
 23 28  1  0  0  0  0
 26  9  1  0  0  0  0
 27  5  1  0  0  0  0
 28  6  1  0  0  0  0
 28  9  2  0  0  0  0
 29 20  1  0  0  0  0
 30 31  1  6  0  0  0
 30 29  1  0  0  0  0
 32 30  1  0  0  0  0
M  END
>  <MODEL>
7

>  <REMARK>
 VINA RESULT:      -6.4      2.488      3.669
  Name = 
  2 active torsions:
  status: ('A' for Active; 'I' for Inactive)
    1  A    between atoms: N_20  and  C_29
    2  A    between atoms: C_29  and  C_30
                            x       y       z     vdW  Elec       q    Type
                         _______ _______ _______ _____ _____    ______ ____

>  <TORSDO>
F 2

$$$$
