=
 OpenBabel11122412503D

 32 37  0  0  1  0  0  0  0  0999 V2000
  162.2610  209.6710  154.0460 O   0  0  0  0  0  0  0  0  0  0  0  0
  161.0430  206.5460  150.1840 N   0  0  1  0  0  0  0  0  0  0  0  0
  161.1300  201.9460  152.0050 C   0  0  0  0  0  3  0  0  0  0  0  0
  160.9800  201.4460  150.7100 C   0  0  0  0  0  3  0  0  0  0  0  0
  161.5940  206.8180  147.7230 C   0  0  0  0  0  0  0  0  0  0  0  0
  161.2450  206.1880  146.3900 C   0  0  1  0  0  3  0  0  0  0  0  0
  160.8250  208.5030  151.6250 C   0  0  1  0  0  3  0  0  0  0  0  0
  160.6000  206.2010  152.5910 C   0  0  0  0  0  2  0  0  0  0  0  0
  161.1600  204.1520  145.2420 C   0  0  2  0  0  3  0  0  0  0  0  0
  160.3530  208.1970  154.1250 C   0  0  0  0  0  2  0  0  0  0  0  0
  161.2330  203.3240  152.2140 C   0  0  0  0  0  3  0  0  0  0  0  0
  161.3730  205.7030  151.3620 C   0  0  1  0  0  3  0  0  0  0  0  0
  161.1700  204.2160  151.1320 C   0  0  0  0  0  0  0  0  0  0  0  0
  160.9580  204.6530  148.6780 C   0  0  2  0  0  3  0  0  0  0  0  0
  162.0880  205.0820  144.4780 C   0  0  0  0  0  2  0  0  0  0  0  0
  162.3020  210.3290  152.7890 C   0  0  0  0  0  2  0  0  0  0  0  0
  161.0270  207.6340  152.8740 C   0  0  2  0  0  3  0  0  0  0  0  0
  162.4090  206.2030  145.4320 C   0  0  0  0  0  2  0  0  0  0  0  0
  161.1610  209.9930  151.7970 C   0  0  0  0  0  2  0  0  0  0  0  0
  160.9260  209.5720  154.4880 C   0  0  1  0  0  3  0  0  0  0  0  0
  160.9440  202.3220  149.6220 C   0  0  0  0  0  3  0  0  0  0  0  0
  161.0710  203.7020  149.8250 C   0  0  0  0  0  0  0  0  0  0  0  0
  161.4640  204.1350  147.4800 O   0  0  0  0  0  0  0  0  0  0  0  0
  161.5900  207.8810  150.4610 C   0  0  0  0  0  2  0  0  0  0  0  0
  161.8980  208.0000  147.7490 O   0  0  0  0  0  0  0  0  0  0  0  0
  159.9240  203.8670  144.4120 C   0  0  0  0  0  1  0  0  0  0  0  0
  161.6710  205.9640  148.9830 C   0  0  2  0  0  3  0  0  0  0  0  0
  160.7780  204.7910  146.4980 N   0  0  1  0  0  0  0  0  0  0  0  0
  160.8520  209.7720  155.9920 C   0  0  0  0  0  2  0  0  0  0  0  0
  162.1030  209.2930  156.6450 C   0  0  0  0  0  0  0  0  0  0  0  0
  163.0860  210.2010  157.0140 O   0  0  0  0  0  1  0  0  0  0  0  0
  162.2540  208.0680  156.8920 O   0  0  0  0  0  0  0  0  0  0  0  0
  1 20  1  0  0  0  0
  2 24  1  1  0  0  0
  2 12  1  0  0  0  0
  3 11  1  0  0  0  0
  4  3  2  0  0  0  0
  5 25  2  0  0  0  0
  6 18  1  6  0  0  0
  6 28  1  0  0  0  0
  6  5  1  0  0  0  0
  7 24  1  6  0  0  0
  7 19  1  0  0  0  0
  7 17  1  0  0  0  0
  9 26  1  6  0  0  0
  9 28  1  0  0  0  0
 10 20  1  0  0  0  0
 12  8  1  1  0  0  0
 13 12  1  0  0  0  0
 13 11  2  0  0  0  0
 14 23  1  6  0  0  0
 14 27  1  0  0  0  0
 14 22  1  0  0  0  0
 15  9  1  0  0  0  0
 15 18  1  0  0  0  0
 16  1  1  0  0  0  0
 17  8  1  6  0  0  0
 17 10  1  0  0  0  0
 19 16  1  0  0  0  0
 20 29  1  1  0  0  0
 21 22  2  0  0  0  0
 21  4  1  0  0  0  0
 22 13  1  0  0  0  0
 27  5  1  6  0  0  0
 27  2  1  0  0  0  0
 28 23  1  1  0  0  0
 29 30  1  0  0  0  0
 30 32  2  0  0  0  0
 30 31  1  0  0  0  0
M  END
>  <MODEL>
1

>  <REMARK>
 VINA RESULT:      -8.7      0.000      0.000
  Name = 
  2 active torsions:
  status: ('A' for Active; 'I' for Inactive)
    1  A    between atoms: C_20  and  C_29
    2  A    between atoms: C_29  and  C_30
                            x       y       z     vdW  Elec       q    Type
                         _______ _______ _______ _____ _____    ______ ____

>  <TORSDO>
F 2

$$$$
=
 OpenBabel11122412503D

 32 37  0  0  1  0  0  0  0  0999 V2000
  162.0170  201.8810  148.9180 O   0  0  0  0  0  0  0  0  0  0  0  0
  160.9310  206.1990  151.4340 N   0  0  1  0  0  0  0  0  0  0  0  0
  162.3220  209.9340  148.5030 C   0  0  0  0  0  3  0  0  0  0  0  0
  162.0840  210.8270  149.5500 C   0  0  0  0  0  3  0  0  0  0  0  0
  161.0140  206.6110  153.9360 C   0  0  0  0  0  0  0  0  0  0  0  0
  160.6070  207.6700  154.9420 C   0  0  1  0  0  3  0  0  0  0  0  0
  160.5140  203.9580  150.5640 C   0  0  1  0  0  3  0  0  0  0  0  0
  160.9600  205.8560  148.9880 C   0  0  0  0  0  2  0  0  0  0  0  0
  160.7970  209.9440  155.4510 C   0  0  2  0  0  3  0  0  0  0  0  0
  160.5210  203.5540  148.0330 C   0  0  0  0  0  2  0  0  0  0  0  0
  162.1480  208.5620  148.7000 C   0  0  0  0  0  3  0  0  0  0  0  0
  161.6210  206.5720  150.1730 C   0  0  1  0  0  3  0  0  0  0  0  0
  161.7190  208.0700  149.9430 C   0  0  0  0  0  0  0  0  0  0  0  0
  161.0320  208.4510  152.3190 C   0  0  2  0  0  3  0  0  0  0  0  0
  161.3630  209.1540  156.6190 C   0  0  0  0  0  2  0  0  0  0  0  0
  161.7130  201.6450  150.2840 C   0  0  0  0  0  2  0  0  0  0  0  0
  161.0970  204.3550  149.2010 C   0  0  2  0  0  3  0  0  0  0  0  0
  161.5730  207.7570  156.0960 C   0  0  0  0  0  2  0  0  0  0  0  0
  160.5330  202.4540  150.8770 C   0  0  0  0  0  2  0  0  0  0  0  0
  160.8240  202.0600  148.1880 C   0  0  1  0  0  3  0  0  0  0  0  0
  161.6850  210.3460  150.8000 C   0  0  0  0  0  3  0  0  0  0  0  0
  161.5320  208.9700  151.0090 C   0  0  0  0  0  0  0  0  0  0  0  0
  161.4450  209.2210  153.4120 O   0  0  0  0  0  0  0  0  0  0  0  0
  161.2040  204.7730  151.6530 C   0  0  0  0  0  2  0  0  0  0  0  0
  161.0480  205.4450  154.2970 O   0  0  0  0  0  0  0  0  0  0  0  0
  159.5400  210.6720  155.8860 C   0  0  0  0  0  1  0  0  0  0  0  0
  161.4750  207.0100  152.5400 C   0  0  2  0  0  3  0  0  0  0  0  0
  160.4850  209.0220  154.3620 N   0  0  1  0  0  0  0  0  0  0  0  0
  160.9450  201.4210  146.8150 C   0  0  0  0  0  2  0  0  0  0  0  0
  160.9270  202.4640  145.7510 C   0  0  0  0  0  0  0  0  0  0  0  0
  161.9370  203.4150  145.6930 O   0  0  0  0  0  1  0  0  0  0  0  0
  160.0150  202.4630  144.8830 O   0  0  0  0  0  0  0  0  0  0  0  0
  1 16  1  0  0  0  0
  2 24  1  1  0  0  0
  2 27  1  0  0  0  0
  3 11  2  0  0  0  0
  3  4  1  0  0  0  0
  4 21  2  0  0  0  0
  5 25  2  0  0  0  0
  5  6  1  0  0  0  0
  6 18  1  1  0  0  0
  7 19  1  1  0  0  0
  7 24  1  0  0  0  0
  8 17  1  0  0  0  0
  9 26  1  1  0  0  0
  9 15  1  0  0  0  0
 10 20  1  0  0  0  0
 11 13  1  0  0  0  0
 12  8  1  6  0  0  0
 12  2  1  0  0  0  0
 13 12  1  0  0  0  0
 13 22  2  0  0  0  0
 14 22  1  6  0  0  0
 14 27  1  0  0  0  0
 14 23  1  0  0  0  0
 16 19  1  0  0  0  0
 17 10  1  6  0  0  0
 17  7  1  0  0  0  0
 18 15  1  0  0  0  0
 20 29  1  6  0  0  0
 20  1  1  0  0  0  0
 21 22  1  0  0  0  0
 27  5  1  1  0  0  0
 28 23  1  6  0  0  0
 28  6  1  0  0  0  0
 28  9  1  0  0  0  0
 30 29  1  0  0  0  0
 31 30  1  0  0  0  0
 32 30  2  0  0  0  0
M  END
>  <MODEL>
2

>  <REMARK>
 VINA RESULT:      -8.7      2.188      8.658
  Name = 
  2 active torsions:
  status: ('A' for Active; 'I' for Inactive)
    1  A    between atoms: C_20  and  C_29
    2  A    between atoms: C_29  and  C_30
                            x       y       z     vdW  Elec       q    Type
                         _______ _______ _______ _____ _____    ______ ____

>  <TORSDO>
F 2

$$$$
=
 OpenBabel11122412503D

 32 37  0  0  1  0  0  0  0  0999 V2000
  162.6300  209.8820  153.6580 O   0  0  0  0  0  0  0  0  0  0  0  0
  161.1650  206.6210  150.0000 N   0  0  1  0  0  0  0  0  0  0  0  0
  161.0900  202.1230  152.0600 C   0  0  0  0  0  3  0  0  0  0  0  0
  160.8810  201.5640  150.7980 C   0  0  0  0  0  3  0  0  0  0  0  0
  161.6610  206.7380  147.5150 C   0  0  0  0  0  0  0  0  0  0  0  0
  161.2460  206.0560  146.2260 C   0  0  1  0  0  3  0  0  0  0  0  0
  161.0770  208.6590  151.3390 C   0  0  1  0  0  3  0  0  0  0  0  0
  160.7730  206.4230  152.4320 C   0  0  0  0  0  2  0  0  0  0  0  0
  161.0360  203.9700  145.1910 C   0  0  2  0  0  3  0  0  0  0  0  0
  160.6600  208.5060  153.8630 C   0  0  0  0  0  2  0  0  0  0  0  0
  161.2610  203.5030  152.1940 C   0  0  0  0  0  3  0  0  0  0  0  0
  161.4880  205.8260  151.2120 C   0  0  1  0  0  3  0  0  0  0  0  0
  161.2100  204.3400  151.0680 C   0  0  0  0  0  0  0  0  0  0  0  0
  160.9520  204.6580  148.5990 C   0  0  2  0  0  3  0  0  0  0  0  0
  161.9850  204.8140  144.3560 C   0  0  0  0  0  2  0  0  0  0  0  0
  162.6680  210.4700  152.3670 C   0  0  0  0  0  2  0  0  0  0  0  0
  161.2720  207.8470  152.6280 C   0  0  2  0  0  3  0  0  0  0  0  0
  162.3830  205.9660  145.2400 C   0  0  0  0  0  2  0  0  0  0  0  0
  161.4850  210.1380  151.4240 C   0  0  0  0  0  2  0  0  0  0  0  0
  161.3050  209.8690  154.1370 C   0  0  1  0  0  3  0  0  0  0  0  0
  160.8560  202.3830  149.6660 C   0  0  0  0  0  3  0  0  0  0  0  0
  161.0520  203.7640  149.7920 C   0  0  0  0  0  0  0  0  0  0  0  0
  161.4000  204.0550  147.4180 O   0  0  0  0  0  0  0  0  0  0  0  0
  161.7800  207.9410  150.1920 C   0  0  0  0  0  2  0  0  0  0  0  0
  162.0190  207.9040  147.4700 O   0  0  0  0  0  0  0  0  0  0  0  0
  159.7660  203.7010  144.4080 C   0  0  0  0  0  1  0  0  0  0  0  0
  161.7320  205.9480  148.8160 C   0  0  2  0  0  3  0  0  0  0  0  0
  160.7180  204.6910  146.4200 N   0  0  1  0  0  0  0  0  0  0  0  0
  161.2810  210.1510  155.6300 C   0  0  0  0  0  2  0  0  0  0  0  0
  159.8950  210.4670  156.0800 C   0  0  0  0  0  0  0  0  0  0  0  0
  159.2690  211.6250  155.6400 O   0  0  0  0  0  0  0  0  0  0  0  0
  159.2800  209.6670  156.8320 O   0  0  0  0  0  1  0  0  0  0  0  0
  1 20  1  0  0  0  0
  2 24  1  1  0  0  0
  2 12  1  0  0  0  0
  3 11  1  0  0  0  0
  4  3  2  0  0  0  0
  6 18  1  6  0  0  0
  6 28  1  0  0  0  0
  6  5  1  0  0  0  0
  7 24  1  6  0  0  0
  7 19  1  0  0  0  0
  7 17  1  0  0  0  0
  9 26  1  6  0  0  0
  9 28  1  0  0  0  0
 10 20  1  0  0  0  0
 12  8  1  1  0  0  0
 13 12  1  0  0  0  0
 13 11  2  0  0  0  0
 14 23  1  6  0  0  0
 14 27  1  0  0  0  0
 14 22  1  0  0  0  0
 15  9  1  0  0  0  0
 15 18  1  0  0  0  0
 16  1  1  0  0  0  0
 17  8  1  6  0  0  0
 17 10  1  0  0  0  0
 19 16  1  0  0  0  0
 20 29  1  1  0  0  0
 21 22  2  0  0  0  0
 21  4  1  0  0  0  0
 22 13  1  0  0  0  0
 25  5  2  0  0  0  0
 27  5  1  6  0  0  0
 27  2  1  0  0  0  0
 28 23  1  1  0  0  0
 29 30  1  0  0  0  0
 30 32  1  0  0  0  0
 31 30  2  0  0  0  0
M  END
>  <MODEL>
3

>  <REMARK>
 VINA RESULT:      -8.1      0.992      1.116
  Name = 
  2 active torsions:
  status: ('A' for Active; 'I' for Inactive)
    1  A    between atoms: C_20  and  C_29
    2  A    between atoms: C_29  and  C_30
                            x       y       z     vdW  Elec       q    Type
                         _______ _______ _______ _____ _____    ______ ____

>  <TORSDO>
F 2

$$$$
=
 OpenBabel11122412503D

 32 37  0  0  1  0  0  0  0  0999 V2000
  162.1060  202.8240  148.2680 O   0  0  0  0  0  0  0  0  0  0  0  0
  160.9630  206.8510  151.2070 N   0  0  1  0  0  0  0  0  0  0  0  0
  162.2690  210.8830  148.6530 C   0  0  0  0  0  3  0  0  0  0  0  0
  162.0230  211.6630  149.7850 C   0  0  0  0  0  3  0  0  0  0  0  0
  161.0570  207.0140  153.7370 C   0  0  0  0  0  0  0  0  0  0  0  0
  160.6400  207.9610  154.8450 C   0  0  1  0  0  3  0  0  0  0  0  0
  160.5790  204.7010  150.1210 C   0  0  1  0  0  3  0  0  0  0  0  0
  160.9810  206.7530  148.7380 C   0  0  0  0  0  2  0  0  0  0  0  0
  160.7930  210.1770  155.5760 C   0  0  2  0  0  3  0  0  0  0  0  0
  160.5750  204.5490  147.5620 C   0  0  0  0  0  2  0  0  0  0  0  0
  162.1200  209.4950  148.7140 C   0  0  0  0  0  3  0  0  0  0  0  0
  161.6380  207.3600  149.9850 C   0  0  1  0  0  3  0  0  0  0  0  0
  161.7090  208.8740  149.9040 C   0  0  0  0  0  0  0  0  0  0  0  0
  161.0320  209.0050  152.3100 C   0  0  2  0  0  3  0  0  0  0  0  0
  161.3820  209.2840  156.6560 C   0  0  0  0  0  2  0  0  0  0  0  0
  161.8160  202.4490  149.6060 C   0  0  0  0  0  2  0  0  0  0  0  0
  161.1450  205.2410  148.8000 C   0  0  2  0  0  3  0  0  0  0  0  0
  161.6120  207.9510  155.9970 C   0  0  0  0  0  2  0  0  0  0  0  0
  160.6270  203.1730  150.2830 C   0  0  0  0  0  2  0  0  0  0  0  0
  160.9050  203.0530  147.5670 C   0  0  1  0  0  3  0  0  0  0  0  0
  161.6410  211.0540  150.9830 C   0  0  0  0  0  3  0  0  0  0  0  0
  161.5140  209.6610  151.0560 C   0  0  0  0  0  0  0  0  0  0  0  0
  161.4390  209.6710  153.4720 O   0  0  0  0  0  0  0  0  0  0  0  0
  161.2630  205.4150  151.2810 C   0  0  0  0  0  2  0  0  0  0  0  0
  161.1140  205.8190  153.9800 O   0  0  0  0  0  0  0  0  0  0  0  0
  159.5270  210.8350  156.0880 C   0  0  0  0  0  1  0  0  0  0  0  0
  161.5010  207.5580  152.3850 C   0  0  2  0  0  3  0  0  0  0  0  0
  160.4900  209.3620  154.4030 N   0  0  1  0  0  0  0  0  0  0  0  0
  161.0270  202.5550  146.1360 C   0  0  0  0  0  2  0  0  0  0  0  0
  161.5340  203.6400  145.2480 C   0  0  0  0  0  0  0  0  0  0  0  0
  160.6600  204.3110  144.4030 O   0  0  0  0  0  0  0  0  0  0  0  0
  162.7480  203.9700  145.2870 O   0  0  0  0  0  1  0  0  0  0  0  0
  1 16  1  0  0  0  0
  2 24  1  1  0  0  0
  2 27  1  0  0  0  0
  3 11  2  0  0  0  0
  3  4  1  0  0  0  0
  4 21  2  0  0  0  0
  5 25  2  0  0  0  0
  5  6  1  0  0  0  0
  6 18  1  1  0  0  0
  7 19  1  1  0  0  0
  7 24  1  0  0  0  0
  8 17  1  0  0  0  0
  9 26  1  1  0  0  0
  9 15  1  0  0  0  0
 10 20  1  0  0  0  0
 11 13  1  0  0  0  0
 12  8  1  6  0  0  0
 12  2  1  0  0  0  0
 13 12  1  0  0  0  0
 13 22  2  0  0  0  0
 14 22  1  6  0  0  0
 14 27  1  0  0  0  0
 14 23  1  0  0  0  0
 16 19  1  0  0  0  0
 17 10  1  6  0  0  0
 17  7  1  0  0  0  0
 18 15  1  0  0  0  0
 20 29  1  6  0  0  0
 20  1  1  0  0  0  0
 21 22  1  0  0  0  0
 27  5  1  1  0  0  0
 28 23  1  6  0  0  0
 28  6  1  0  0  0  0
 28  9  1  0  0  0  0
 30 32  1  0  0  0  0
 30 29  1  0  0  0  0
 31 30  2  0  0  0  0
M  END
>  <MODEL>
4

>  <REMARK>
 VINA RESULT:      -8.0      2.033      8.714
  Name = 
  2 active torsions:
  status: ('A' for Active; 'I' for Inactive)
    1  A    between atoms: C_20  and  C_29
    2  A    between atoms: C_29  and  C_30
                            x       y       z     vdW  Elec       q    Type
                         _______ _______ _______ _____ _____    ______ ____

>  <TORSDO>
F 2

$$$$
=
 OpenBabel11122412503D

 32 37  0  0  1  0  0  0  0  0999 V2000
  160.9590  213.2420  146.0000 O   0  0  0  0  0  0  0  0  0  0  0  0
  160.9610  211.7460  150.8910 N   0  0  1  0  0  0  0  0  0  0  0  0
  162.2670  206.9730  150.9110 C   0  0  0  0  0  3  0  0  0  0  0  0
  161.9560  206.9080  152.2710 C   0  0  0  0  0  3  0  0  0  0  0  0
  159.4380  212.5280  152.7630 C   0  0  0  0  0  0  0  0  0  0  0  0
  159.3110  212.4060  154.2680 C   0  0  1  0  0  3  0  0  0  0  0  0
  161.4560  213.2140  149.0060 C   0  0  1  0  0  3  0  0  0  0  0  0
  162.3750  210.8820  149.0570 C   0  0  0  0  0  2  0  0  0  0  0  0
  159.2180  210.8660  156.0250 C   0  0  2  0  0  3  0  0  0  0  0  0
  162.9280  212.3680  147.0860 C   0  0  0  0  0  2  0  0  0  0  0  0
  162.0620  208.1600  150.2030 C   0  0  0  0  0  3  0  0  0  0  0  0
  161.2540  210.5550  150.0540 C   0  0  1  0  0  3  0  0  0  0  0  0
  161.5590  209.2990  150.8510 C   0  0  0  0  0  0  0  0  0  0  0  0
  160.7050  210.4360  152.9110 C   0  0  2  0  0  3  0  0  0  0  0  0
  157.9390  211.6870  156.0540 C   0  0  0  0  0  2  0  0  0  0  0  0
  160.3250  214.1840  146.8510 C   0  0  0  0  0  2  0  0  0  0  0  0
  161.8980  212.0140  148.1580 C   0  0  2  0  0  3  0  0  0  0  0  0
  157.8710  212.3730  154.7160 C   0  0  0  0  0  2  0  0  0  0  0  0
  161.0090  214.4530  148.2140 C   0  0  0  0  0  2  0  0  0  0  0  0
  162.3590  213.3850  146.0900 C   0  0  1  0  0  3  0  0  0  0  0  0
  161.4280  208.0270  152.9210 C   0  0  0  0  0  3  0  0  0  0  0  0
  161.1980  209.2110  152.2090 C   0  0  0  0  0  0  0  0  0  0  0  0
  159.8420  210.1520  153.9750 O   0  0  0  0  0  0  0  0  0  0  0  0
  160.3870  212.7560  149.9920 C   0  0  0  0  0  2  0  0  0  0  0  0
  159.0050  213.5310  152.2180 O   0  0  0  0  0  0  0  0  0  0  0  0
  160.0450  211.1620  157.2610 C   0  0  0  0  0  1  0  0  0  0  0  0
  159.9950  211.3720  151.9410 C   0  0  2  0  0  3  0  0  0  0  0  0
  159.9760  211.2120  154.8260 N   0  0  1  0  0  0  0  0  0  0  0  0
  163.0000  213.1760  144.7290 C   0  0  0  0  0  2  0  0  0  0  0  0
  161.9840  213.3100  143.6470 C   0  0  0  0  0  0  0  0  0  0  0  0
  161.4790  212.1780  143.0230 O   0  0  0  0  0  0  0  0  0  0  0  0
  161.5580  214.4500  143.3210 O   0  0  0  0  0  1  0  0  0  0  0  0
  1 20  1  0  0  0  0
  1 16  1  0  0  0  0
  2 24  1  6  0  0  0
  2 27  1  0  0  0  0
  3  4  1  0  0  0  0
  4 21  2  0  0  0  0
  5  6  1  0  0  0  0
  6 18  1  6  0  0  0
  6 28  1  0  0  0  0
  7 19  1  6  0  0  0
  7 24  1  0  0  0  0
  9 15  1  0  0  0  0
  9 26  1  1  0  0  0
 11 13  1  0  0  0  0
 11  3  2  0  0  0  0
 12  8  1  1  0  0  0
 12 13  1  0  0  0  0
 12  2  1  0  0  0  0
 13 22  2  0  0  0  0
 14 22  1  6  0  0  0
 14 23  1  0  0  0  0
 16 19  1  0  0  0  0
 17 10  1  6  0  0  0
 17  7  1  0  0  0  0
 17  8  1  0  0  0  0
 18 15  1  0  0  0  0
 20 29  1  6  0  0  0
 20 10  1  0  0  0  0
 22 21  1  0  0  0  0
 25  5  2  0  0  0  0
 27  5  1  1  0  0  0
 27 14  1  0  0  0  0
 28 23  1  6  0  0  0
 28  9  1  0  0  0  0
 30 29  1  0  0  0  0
 31 30  2  0  0  0  0
 32 30  1  0  0  0  0
M  END
>  <MODEL>
5

>  <REMARK>
 VINA RESULT:      -5.8      4.420      9.183
  Name = 
  2 active torsions:
  status: ('A' for Active; 'I' for Inactive)
    1  A    between atoms: C_20  and  C_29
    2  A    between atoms: C_29  and  C_30
                            x       y       z     vdW  Elec       q    Type
                         _______ _______ _______ _____ _____    ______ ____

>  <TORSDO>
F 2

$$$$
