=
 OpenBabel11122413343D

 37 44  0  0  1  0  0  0  0  0999 V2000
  160.6980  206.2930  151.7460 C   0  0  0  0  0  2  0  0  0  0  0  0
  160.4570  208.0750  156.0470 C   0  0  0  0  0  0  0  0  0  0  0  0
  160.3150  210.8330  152.9220 C   0  0  0  0  0  0  0  0  0  0  0  0
  161.1770  205.2370  150.8690 N   0  0  0  0  0  0  0  0  0  0  0  0
  162.1180  209.5180  149.7640 C   0  0  0  0  0  2  0  0  0  0  0  0
  159.6720  210.3400  155.2010 C   0  0  0  0  0  0  0  0  0  0  0  0
  160.8490  210.1010  151.8840 C   0  0  0  0  0  0  0  0  0  0  0  0
  160.6890  206.2840  148.6820 C   0  0  2  0  0  3  0  0  0  0  0  0
  160.1820  209.9680  153.9720 C   0  0  0  0  0  0  0  0  0  0  0  0
  161.3000  210.5280  150.5470 C   0  0  0  0  0  0  0  0  0  0  0  0
  159.2430  211.6680  155.3510 C   0  0  0  0  0  3  0  0  0  0  0  0
  160.5760  205.0370  149.5570 C   0  0  0  0  0  2  0  0  0  0  0  0
  160.5930  208.7380  153.6640 N   0  0  0  0  0  0  0  0  0  0  0  0
  159.9760  206.9300  156.9130 C   0  0  0  0  0  1  0  0  0  0  0  0
  159.9130  213.0890  151.9060 C   0  0  0  0  0  3  0  0  0  0  0  0
  159.3570  212.5700  154.2640 C   0  0  0  0  0  3  0  0  0  0  0  0
  160.4840  207.5990  154.5750 C   0  0  0  0  0  2  0  0  0  0  0  0
  161.9770  207.0660  148.9390 C   0  0  0  0  0  2  0  0  0  0  0  0
  161.8830  208.0420  150.1150 C   0  0  1  0  0  0  0  0  0  0  0  0
  159.8990  212.1530  153.0270 C   0  0  0  0  0  0  0  0  0  0  0  0
  160.9760  208.7980  152.3660 C   0  0  0  0  0  0  0  0  0  0  0  0
  159.5160  209.2880  156.2650 C   0  0  0  0  0  2  0  0  0  0  0  0
  161.1140  211.7740  150.0320 C   0  0  0  0  0  0  0  0  0  0  0  0
  161.8650  208.4410  156.4820 C   0  0  0  0  0  1  0  0  0  0  0  0
  162.8830  207.6110  151.1930 C   0  0  0  0  0  2  0  0  0  0  0  0
  159.5600  207.0940  148.8290 O   0  0  0  0  0  1  0  0  0  0  0  0
  161.4080  207.6400  151.5230 C   0  0  1  0  0  0  0  0  0  0  0  0
  160.4090  212.9110  150.6800 C   0  0  0  0  0  3  0  0  0  0  0  0
  163.0100  212.2300  148.4740 C   0  0  0  0  0  3  0  0  0  0  0  0
  161.6290  212.1090  148.6860 C   0  0  0  0  0  0  0  0  0  0  0  0
  160.7520  212.2590  147.5990 C   0  0  0  0  0  3  0  0  0  0  0  0
  160.3970  212.6980  145.2840 F   0  0  0  0  0  0  0  0  0  0  0  0
  162.6260  212.6790  146.1260 C   0  0  0  0  0  3  0  0  0  0  0  0
  161.2500  212.5480  146.3260 C   0  0  0  0  0  0  0  0  0  0  0  0
  163.5070  212.5180  147.2000 C   0  0  0  0  0  3  0  0  0  0  0  0
  162.8410  203.5120  151.7610 N   0  0  0  0  0  0  0  0  0  0  0  0
  162.0890  204.2920  151.3570 C   0  0  0  0  0  0  0  0  0  0  0  0
  2 22  1  0  0  0  0
  2 24  1  0  0  0  0
  2 14  1  0  0  0  0
  3 20  2  0  0  0  0
  3  9  1  0  0  0  0
  4 37  1  0  0  0  0
  4  1  1  0  0  0  0
  5 19  1  0  0  0  0
  5 10  1  0  0  0  0
  6 11  1  0  0  0  0
  6 22  1  0  0  0  0
  7 21  2  0  0  0  0
  7  3  1  0  0  0  0
  8 26  1  1  0  0  0
  8 18  1  0  0  0  0
  8 12  1  0  0  0  0
  9  6  2  0  0  0  0
 10  7  1  0  0  0  0
 12  4  1  0  0  0  0
 13  9  1  0  0  0  0
 13 17  1  0  0  0  0
 15 20  1  0  0  0  0
 16 11  2  0  0  0  0
 17  2  1  0  0  0  0
 19 18  1  6  0  0  0
 19 25  1  0  0  0  0
 19 27  1  0  0  0  0
 20 16  1  0  0  0  0
 21 13  1  0  0  0  0
 23 10  2  0  0  0  0
 23 28  1  0  0  0  0
 27 25  1  1  0  0  0
 27  1  1  0  0  0  0
 27 21  1  0  0  0  0
 28 15  2  0  0  0  0
 29 30  1  0  0  0  0
 30 23  1  0  0  0  0
 31 30  2  0  0  0  0
 32 34  1  0  0  0  0
 33 34  2  0  0  0  0
 33 35  1  0  0  0  0
 34 31  1  0  0  0  0
 35 29  2  0  0  0  0
 37 36  3  0  0  0  0
M  END
>  <MODEL>
1

>  <REMARK>
 VINA RESULT:      -4.2      0.000      0.000
  Name = 
  2 active torsions:
  status: ('A' for Active; 'I' for Inactive)
    1  A    between atoms: N_4  and  C_37
    2  A    between atoms: C_23  and  C_30
                            x       y       z     vdW  Elec       q    Type
                         _______ _______ _______ _____ _____    ______ ____

>  <TORSDO>
F 2

$$$$
=
 OpenBabel11122413343D

 37 44  0  0  1  0  0  0  0  0999 V2000
  160.8570  210.6140  148.5370 C   0  0  0  0  0  2  0  0  0  0  0  0
  161.9550  206.2350  147.3790 C   0  0  0  0  0  0  0  0  0  0  0  0
  161.1710  206.9080  151.4180 C   0  0  0  0  0  0  0  0  0  0  0  0
  160.9900  212.0370  148.2670 N   0  0  0  0  0  0  0  0  0  0  0  0
  161.9230  210.5630  152.4370 C   0  0  0  0  0  2  0  0  0  0  0  0
  161.1470  205.3100  149.6040 C   0  0  0  0  0  0  0  0  0  0  0  0
  161.3380  208.2730  151.5080 C   0  0  0  0  0  0  0  0  0  0  0  0
  160.0010  212.9330  150.3490 C   0  0  2  0  0  3  0  0  0  0  0  0
  161.2670  206.5970  150.0920 C   0  0  0  0  0  0  0  0  0  0  0  0
  161.4350  209.1490  152.6910 C   0  0  0  0  0  0  0  0  0  0  0  0
  160.8810  204.2870  150.5290 C   0  0  0  0  0  3  0  0  0  0  0  0
  160.0360  212.9870  148.8230 C   0  0  0  0  0  2  0  0  0  0  0  0
  161.4780  207.6750  149.3370 N   0  0  0  0  0  0  0  0  0  0  0  0
  161.6430  206.1370  145.9000 C   0  0  0  0  0  1  0  0  0  0  0  0
  160.6820  206.2190  153.7790 C   0  0  0  0  0  3  0  0  0  0  0  0
  160.7600  204.5990  151.9050 C   0  0  0  0  0  3  0  0  0  0  0  0
  161.5360  207.6390  147.8760 C   0  0  0  0  0  2  0  0  0  0  0  0
  161.3660  212.6150  150.9570 C   0  0  0  0  0  2  0  0  0  0  0  0
  161.6780  211.1170  151.0270 C   0  0  1  0  0  0  0  0  0  0  0  0
  160.9050  205.9280  152.3660 C   0  0  0  0  0  0  0  0  0  0  0  0
  161.4910  208.7220  150.1960 C   0  0  0  0  0  0  0  0  0  0  0  0
  161.2090  205.0930  148.1160 C   0  0  0  0  0  2  0  0  0  0  0  0
  161.2120  208.7420  153.9700 C   0  0  0  0  0  0  0  0  0  0  0  0
  163.4520  206.0620  147.5620 C   0  0  0  0  0  1  0  0  0  0  0  0
  162.9000  210.8270  150.1480 C   0  0  0  0  0  2  0  0  0  0  0  0
  159.0230  212.0360  150.7880 O   0  0  0  0  0  1  0  0  0  0  0  0
  161.5810  210.1670  149.8190 C   0  0  1  0  0  0  0  0  0  0  0  0
  160.8050  207.3840  154.4180 C   0  0  0  0  0  3  0  0  0  0  0  0
  160.2240  210.3140  155.6400 C   0  0  0  0  0  3  0  0  0  0  0  0
  161.3590  209.6970  155.0920 C   0  0  0  0  0  0  0  0  0  0  0  0
  162.6190  209.9560  155.6530 C   0  0  0  0  0  3  0  0  0  0  0  0
  163.9660  211.0880  157.2610 F   0  0  0  0  0  0  0  0  0  0  0  0
  161.6120  211.4580  157.2610 C   0  0  0  0  0  3  0  0  0  0  0  0
  162.7450  210.8380  156.7300 C   0  0  0  0  0  0  0  0  0  0  0  0
  160.3510  211.1950  156.7170 C   0  0  0  0  0  3  0  0  0  0  0  0
  162.6960  212.8410  146.5390 N   0  0  0  0  0  0  0  0  0  0  0  0
  161.9250  212.4770  147.3200 C   0  0  0  0  0  0  0  0  0  0  0  0
  2 24  1  0  0  0  0
  2 17  1  0  0  0  0
  2 22  1  0  0  0  0
  3  7  1  0  0  0  0
  3 20  1  0  0  0  0
  4  1  1  0  0  0  0
  4 12  1  0  0  0  0
  5 10  1  0  0  0  0
  6  9  1  0  0  0  0
  6 11  2  0  0  0  0
  7 10  1  0  0  0  0
  8 26  1  6  0  0  0
  8 18  1  0  0  0  0
  9  3  2  0  0  0  0
 10 23  2  0  0  0  0
 11 16  1  0  0  0  0
 12  8  1  0  0  0  0
 13  9  1  0  0  0  0
 13 21  1  0  0  0  0
 14  2  1  0  0  0  0
 15 28  2  0  0  0  0
 16 20  2  0  0  0  0
 17 13  1  0  0  0  0
 18 19  1  0  0  0  0
 19 25  1  6  0  0  0
 19  5  1  0  0  0  0
 20 15  1  0  0  0  0
 21  7  2  0  0  0  0
 22  6  1  0  0  0  0
 23 28  1  0  0  0  0
 23 30  1  0  0  0  0
 27  1  1  6  0  0  0
 27 25  1  0  0  0  0
 27 21  1  0  0  0  0
 27 19  1  0  0  0  0
 29 35  1  0  0  0  0
 30 29  2  0  0  0  0
 30 31  1  0  0  0  0
 31 34  2  0  0  0  0
 34 32  1  0  0  0  0
 34 33  1  0  0  0  0
 35 33  2  0  0  0  0
 36 37  3  0  0  0  0
 37  4  1  0  0  0  0
M  END
>  <MODEL>
2

>  <REMARK>
 VINA RESULT:      -2.9      3.213      7.457
  Name = 
  2 active torsions:
  status: ('A' for Active; 'I' for Inactive)
    1  A    between atoms: N_4  and  C_37
    2  A    between atoms: C_23  and  C_30
                            x       y       z     vdW  Elec       q    Type
                         _______ _______ _______ _____ _____    ______ ____

>  <TORSDO>
F 2

$$$$
