=
 OpenBabel11122413053D

 32 36  0  0  1  0  0  0  0  0999 V2000
  159.9590  210.3780  154.0410 C   0  0  1  0  0  3  0  0  0  0  0  0
  160.2330  213.0730  149.7720 C   0  0  0  0  0  2  0  0  0  0  0  0
  160.0030  214.3370  150.5790 C   0  0  0  0  0  2  0  0  0  0  0  0
  159.1070  211.5130  156.1520 C   0  0  2  0  0  3  0  0  0  0  0  0
  157.8570  212.2800  156.3160 N   0  0  2  0  0  0  0  0  0  0  0  0
  160.4580  208.1820  154.1580 C   0  0  2  0  0  3  0  0  0  0  0  0
  160.8240  209.3550  151.9660 C   0  0  0  0  0  2  0  0  0  0  0  0
  156.3740  213.7490  155.1040 C   0  0  2  0  0  3  0  0  0  0  0  0
  160.9850  212.0660  150.6330 C   0  0  0  0  0  2  0  0  0  0  0  0
  160.8000  210.6420  152.7860 C   0  0  1  0  0  3  0  0  0  0  0  0
  160.3310  211.8420  151.9790 C   0  0  1  0  0  3  0  0  0  0  0  0
  158.9630  212.6080  153.9220 C   0  0  2  0  0  3  0  0  0  0  0  0
  155.8770  212.3400  154.9160 C   0  0  0  0  0  2  0  0  0  0  0  0
  161.2680  208.1800  152.8450 C   0  0  2  0  0  3  0  0  0  0  0  0
  156.7410  211.4760  155.8200 C   0  0  0  0  0  2  0  0  0  0  0  0
  159.1000  214.0150  151.7620 C   0  0  0  0  0  2  0  0  0  0  0  0
  159.5890  212.8290  152.5630 C   0  0  2  0  0  3  0  0  0  0  0  0
  158.7770  213.8050  154.6240 O   0  0  0  0  0  0  0  0  0  0  0  0
  160.6110  209.4140  154.8280 O   0  0  0  0  0  0  0  0  0  0  0  0
  160.0780  211.8680  157.2600 C   0  0  0  0  0  1  0  0  0  0  0  0
  156.3330  214.4460  153.8940 O   0  0  0  0  0  1  0  0  0  0  0  0
  159.7890  211.6870  154.7910 C   0  0  2  0  0  3  0  0  0  0  0  0
  157.7920  213.5940  155.6300 C   0  0  2  0  0  3  0  0  0  0  0  0
  160.1720  207.1070  156.3850 C   0  0  0  0  0  1  0  0  0  0  0  0
  160.9220  207.0590  155.0680 C   0  0  0  0  0  2  0  0  0  0  0  0
  161.0620  206.9830  152.1460 O   0  0  0  0  0  0  0  0  0  0  0  0
  160.3130  206.2470  150.0030 C   0  0  0  0  0  1  0  0  0  0  0  0
  161.0060  207.3410  150.7930 C   0  0  2  0  0  3  0  0  0  0  0  0
  162.4130  207.5160  150.2420 C   0  0  0  0  0  2  0  0  0  0  0  0
  162.3830  208.0050  148.8350 C   0  0  0  0  0  0  0  0  0  0  0  0
  162.1320  209.2140  148.5900 O   0  0  0  0  0  1  0  0  0  0  0  0
  162.6450  207.1280  147.7920 O   0  0  0  0  0  0  0  0  0  0  0  0
  1 22  1  0  0  0  0
  1 19  1  1  0  0  0
  2  3  1  0  0  0  0
  2  9  1  0  0  0  0
  3 16  1  0  0  0  0
  4  5  1  0  0  0  0
  4 20  1  1  0  0  0
  5 15  1  6  0  0  0
  6 19  1  0  0  0  0
  6 25  1  1  0  0  0
  7 14  1  0  0  0  0
  8 21  1  6  0  0  0
  8 23  1  0  0  0  0
 10  7  1  6  0  0  0
 10  1  1  0  0  0  0
 11  9  1  1  0  0  0
 11 17  1  0  0  0  0
 11 10  1  0  0  0  0
 12 18  1  1  0  0  0
 12 22  1  0  0  0  0
 13  8  1  0  0  0  0
 13 15  1  0  0  0  0
 14 26  1  6  0  0  0
 14  6  1  0  0  0  0
 17 16  1  6  0  0  0
 17 12  1  0  0  0  0
 18 23  1  0  0  0  0
 22  4  1  0  0  0  0
 23  5  1  0  0  0  0
 25 24  1  0  0  0  0
 27 28  1  0  0  0  0
 28 26  1  0  0  0  0
 29 28  1  0  0  0  0
 30 29  1  0  0  0  0
 31 30  1  0  0  0  0
 32 30  2  0  0  0  0
M  END
>  <MODEL>
1

>  <REMARK>
 VINA RESULT:      -6.3      0.000      0.000
  Name = 
  5 active torsions:
  status: ('A' for Active; 'I' for Inactive)
    1  A    between atoms: C_7  and  C_19
    2  A    between atoms: O_10  and  C_17
    3  A    between atoms: O_10  and  C_20
    4  A    between atoms: C_20  and  C_29
    5  A    between atoms: C_29  and  C_30
                            x       y       z     vdW  Elec       q    Type
                         _______ _______ _______ _____ _____    ______ ____

>  <TORSDO>
F 5

$$$$
=
 OpenBabel11122413053D

 32 36  0  0  1  0  0  0  0  0999 V2000
  159.8330  210.3520  154.0160 C   0  0  1  0  0  3  0  0  0  0  0  0
  160.1640  213.1030  149.7870 C   0  0  0  0  0  2  0  0  0  0  0  0
  159.9380  214.3580  150.6090 C   0  0  0  0  0  2  0  0  0  0  0  0
  158.9720  211.4660  156.1360 C   0  0  2  0  0  3  0  0  0  0  0  0
  157.7280  212.2410  156.3000 N   0  0  2  0  0  0  0  0  0  0  0  0
  160.3130  208.1510  154.1070 C   0  0  2  0  0  3  0  0  0  0  0  0
  160.7070  209.3500  151.9350 C   0  0  0  0  0  2  0  0  0  0  0  0
  156.2670  213.7390  155.0960 C   0  0  2  0  0  3  0  0  0  0  0  0
  160.9010  212.0780  150.6400 C   0  0  0  0  0  2  0  0  0  0  0  0
  160.6870  210.6270  152.7720 C   0  0  1  0  0  3  0  0  0  0  0  0
  160.2340  211.8410  151.9780 C   0  0  1  0  0  3  0  0  0  0  0  0
  158.8570  212.5920  153.9190 C   0  0  2  0  0  3  0  0  0  0  0  0
  155.7600  212.3360  154.8840 C   0  0  0  0  0  2  0  0  0  0  0  0
  161.1330  208.1600  152.8010 C   0  0  2  0  0  3  0  0  0  0  0  0
  156.6090  211.4530  155.7840 C   0  0  0  0  0  2  0  0  0  0  0  0
  159.0230  214.0270  151.7810 C   0  0  0  0  0  2  0  0  0  0  0  0
  159.4950  212.8260  152.5690 C   0  0  2  0  0  3  0  0  0  0  0  0
  158.6750  213.7810  154.6370 O   0  0  0  0  0  0  0  0  0  0  0  0
  160.4710  209.3720  154.7950 O   0  0  0  0  0  0  0  0  0  0  0  0
  159.9380  211.7970  157.2560 C   0  0  0  0  0  1  0  0  0  0  0  0
  156.2420  214.4520  153.8950 O   0  0  0  0  0  1  0  0  0  0  0  0
  159.6670  211.6520  154.7830 C   0  0  2  0  0  3  0  0  0  0  0  0
  157.6790  213.5650  155.6310 C   0  0  2  0  0  3  0  0  0  0  0  0
  160.2500  207.2250  156.4170 C   0  0  0  0  0  1  0  0  0  0  0  0
  160.7600  207.0110  155.0060 C   0  0  0  0  0  2  0  0  0  0  0  0
  160.9240  206.9740  152.0840 O   0  0  0  0  0  0  0  0  0  0  0  0
  162.3610  207.0620  150.1820 C   0  0  0  0  0  1  0  0  0  0  0  0
  162.1860  206.5900  151.6130 C   0  0  2  0  0  3  0  0  0  0  0  0
  162.3130  205.0750  151.6410 C   0  0  0  0  0  2  0  0  0  0  0  0
  161.0270  204.4200  151.2710 C   0  0  0  0  0  0  0  0  0  0  0  0
  160.4180  203.7040  152.1080 O   0  0  0  0  0  1  0  0  0  0  0  0
  160.4930  204.6100  150.0040 O   0  0  0  0  0  0  0  0  0  0  0  0
  1 22  1  0  0  0  0
  1 19  1  1  0  0  0
  2  3  1  0  0  0  0
  2  9  1  0  0  0  0
  3 16  1  0  0  0  0
  4  5  1  0  0  0  0
  4 20  1  1  0  0  0
  5 15  1  6  0  0  0
  6 19  1  0  0  0  0
  6 25  1  1  0  0  0
  7 14  1  0  0  0  0
  8 21  1  6  0  0  0
  8 23  1  0  0  0  0
 10  7  1  6  0  0  0
 10  1  1  0  0  0  0
 11  9  1  1  0  0  0
 11 17  1  0  0  0  0
 11 10  1  0  0  0  0
 12 18  1  1  0  0  0
 12 22  1  0  0  0  0
 13  8  1  0  0  0  0
 13 15  1  0  0  0  0
 14 26  1  6  0  0  0
 14  6  1  0  0  0  0
 17 16  1  6  0  0  0
 17 12  1  0  0  0  0
 18 23  1  0  0  0  0
 22  4  1  0  0  0  0
 23  5  1  0  0  0  0
 25 24  1  0  0  0  0
 27 28  1  0  0  0  0
 28 29  1  0  0  0  0
 28 26  1  0  0  0  0
 30 29  1  0  0  0  0
 30 31  1  0  0  0  0
 32 30  2  0  0  0  0
M  END
>  <MODEL>
2

>  <REMARK>
 VINA RESULT:      -6.0      1.186      1.750
  Name = 
  5 active torsions:
  status: ('A' for Active; 'I' for Inactive)
    1  A    between atoms: C_7  and  C_19
    2  A    between atoms: O_10  and  C_17
    3  A    between atoms: O_10  and  C_20
    4  A    between atoms: C_20  and  C_29
    5  A    between atoms: C_29  and  C_30
                            x       y       z     vdW  Elec       q    Type
                         _______ _______ _______ _____ _____    ______ ____

>  <TORSDO>
F 5

$$$$
=
 OpenBabel11122413053D

 32 36  0  0  1  0  0  0  0  0999 V2000
  160.9840  209.7370  152.6290 C   0  0  1  0  0  3  0  0  0  0  0  0
  160.8390  212.8850  148.6760 C   0  0  0  0  0  2  0  0  0  0  0  0
  160.6860  214.0510  149.6350 C   0  0  0  0  0  2  0  0  0  0  0  0
  160.3380  210.6250  154.9250 C   0  0  2  0  0  3  0  0  0  0  0  0
  159.1090  211.3540  155.2910 N   0  0  2  0  0  0  0  0  0  0  0  0
  161.4970  207.5490  152.4560 C   0  0  2  0  0  3  0  0  0  0  0  0
  161.6470  208.9580  150.3820 C   0  0  0  0  0  2  0  0  0  0  0  0
  157.5120  212.9270  154.3960 C   0  0  2  0  0  3  0  0  0  0  0  0
  161.6720  211.7990  149.3450 C   0  0  0  0  0  2  0  0  0  0  0  0
  161.7000  210.1480  151.3360 C   0  0  1  0  0  3  0  0  0  0  0  0
  161.1520  211.4220  150.7150 C   0  0  1  0  0  3  0  0  0  0  0  0
  159.9780  211.9550  152.8520 C   0  0  2  0  0  3  0  0  0  0  0  0
  157.0020  211.5410  154.1020 C   0  0  0  0  0  2  0  0  0  0  0  0
  162.1760  207.6990  151.0800 C   0  0  2  0  0  3  0  0  0  0  0  0
  157.9510  210.5950  154.8190 C   0  0  0  0  0  2  0  0  0  0  0  0
  159.9020  213.5900  150.8570 C   0  0  0  0  0  2  0  0  0  0  0  0
  160.4680  212.3300  151.4720 C   0  0  2  0  0  3  0  0  0  0  0  0
  159.8580  213.0650  153.6960 O   0  0  0  0  0  0  0  0  0  0  0  0
  161.7120  208.7010  153.2400 O   0  0  0  0  0  0  0  0  0  0  0  0
  161.4120  210.8690  155.9670 C   0  0  0  0  0  1  0  0  0  0  0  0
  157.3540  213.7510  153.2790 O   0  0  0  0  0  1  0  0  0  0  0  0
  160.8850  210.9540  153.5320 C   0  0  2  0  0  3  0  0  0  0  0  0
  158.9750  212.7340  154.7620 C   0  0  2  0  0  3  0  0  0  0  0  0
  161.1950  205.1190  152.9050 C   0  0  0  0  0  1  0  0  0  0  0  0
  162.0490  206.3380  153.1890 C   0  0  0  0  0  2  0  0  0  0  0  0
  161.9060  206.5830  150.2770 O   0  0  0  0  0  0  0  0  0  0  0  0
  160.1420  206.3160  148.6920 C   0  0  0  0  0  1  0  0  0  0  0  0
  161.3840  207.0960  149.0820 C   0  0  2  0  0  3  0  0  0  0  0  0
  162.4080  206.9610  147.9660 C   0  0  0  0  0  2  0  0  0  0  0  0
  162.0310  205.8750  147.0170 C   0  0  0  0  0  0  0  0  0  0  0  0
  161.4440  206.1530  145.9390 O   0  0  0  0  0  0  0  0  0  0  0  0
  162.3400  204.5560  147.3180 O   0  0  0  0  0  1  0  0  0  0  0  0
  1 19  1  1  0  0  0
  1 22  1  0  0  0  0
  2  9  1  0  0  0  0
  2  3  1  0  0  0  0
  3 16  1  0  0  0  0
  4  5  1  0  0  0  0
  4 20  1  1  0  0  0
  5 15  1  6  0  0  0
  6 25  1  1  0  0  0
  6 19  1  0  0  0  0
  7 14  1  0  0  0  0
  8 21  1  6  0  0  0
  8 23  1  0  0  0  0
 10  7  1  6  0  0  0
 10  1  1  0  0  0  0
 11  9  1  1  0  0  0
 11 10  1  0  0  0  0
 11 17  1  0  0  0  0
 12 22  1  0  0  0  0
 12 18  1  1  0  0  0
 13  8  1  0  0  0  0
 13 15  1  0  0  0  0
 14 26  1  6  0  0  0
 14  6  1  0  0  0  0
 17 16  1  6  0  0  0
 17 12  1  0  0  0  0
 18 23  1  0  0  0  0
 22  4  1  0  0  0  0
 23  5  1  0  0  0  0
 24 25  1  0  0  0  0
 27 28  1  0  0  0  0
 28 26  1  0  0  0  0
 29 28  1  0  0  0  0
 30 32  1  0  0  0  0
 30 29  1  0  0  0  0
 31 30  2  0  0  0  0
M  END
>  <MODEL>
3

>  <REMARK>
 VINA RESULT:      -5.9      1.683      2.066
  Name = 
  5 active torsions:
  status: ('A' for Active; 'I' for Inactive)
    1  A    between atoms: C_7  and  C_19
    2  A    between atoms: O_10  and  C_17
    3  A    between atoms: O_10  and  C_20
    4  A    between atoms: C_20  and  C_29
    5  A    between atoms: C_29  and  C_30
                            x       y       z     vdW  Elec       q    Type
                         _______ _______ _______ _____ _____    ______ ____

>  <TORSDO>
F 5

$$$$
=
 OpenBabel11122413053D

 32 36  0  0  1  0  0  0  0  0999 V2000
  160.3160  211.1640  152.7260 C   0  0  1  0  0  3  0  0  0  0  0  0
  162.3300  206.7870  151.1960 C   0  0  0  0  0  2  0  0  0  0  0  0
  161.6720  206.0940  152.3750 C   0  0  0  0  0  2  0  0  0  0  0  0
  159.2680  211.2860  155.0420 C   0  0  2  0  0  3  0  0  0  0  0  0
  159.8770  210.8830  156.3240 N   0  0  2  0  0  0  0  0  0  0  0  0
  160.3820  213.0570  151.5030 C   0  0  2  0  0  3  0  0  0  0  0  0
  161.3040  210.9590  150.4720 C   0  0  0  0  0  2  0  0  0  0  0  0
  161.4040  209.2650  157.2610 C   0  0  2  0  0  3  0  0  0  0  0  0
  161.4530  207.9510  150.7520 C   0  0  0  0  0  2  0  0  0  0  0  0
  160.4850  210.2210  151.5280 C   0  0  1  0  0  3  0  0  0  0  0  0
  161.0800  208.8710  151.8940 C   0  0  1  0  0  3  0  0  0  0  0  0
  160.5970  209.3150  154.3020 C   0  0  2  0  0  3  0  0  0  0  0  0
  162.2050  210.4820  156.8790 C   0  0  0  0  0  2  0  0  0  0  0  0
  160.6730  212.3250  150.1770 C   0  0  2  0  0  3  0  0  0  0  0  0
  161.1860  211.5240  156.4470 C   0  0  0  0  0  2  0  0  0  0  0  0
  161.6080  207.0640  153.5480 C   0  0  0  0  0  2  0  0  0  0  0  0
  160.9990  208.3960  153.1710 C   0  0  2  0  0  3  0  0  0  0  0  0
  159.9920  208.6270  155.3600 O   0  0  0  0  0  0  0  0  0  0  0  0
  159.5480  212.2710  152.3260 O   0  0  0  0  0  0  0  0  0  0  0  0
  157.7600  211.3430  155.1830 C   0  0  0  0  0  1  0  0  0  0  0  0
  162.0750  208.1010  156.8780 O   0  0  0  0  0  1  0  0  0  0  0  0
  159.6420  210.3970  153.8500 C   0  0  2  0  0  3  0  0  0  0  0  0
  160.0780  209.4280  156.5340 C   0  0  2  0  0  3  0  0  0  0  0  0
  158.3470  214.1680  150.5980 C   0  0  0  0  0  1  0  0  0  0  0  0
  159.7040  214.3890  151.2350 C   0  0  0  0  0  2  0  0  0  0  0  0
  161.5550  213.0750  149.3880 O   0  0  0  0  0  0  0  0  0  0  0  0
  162.7300  212.5800  147.3710 C   0  0  0  0  0  1  0  0  0  0  0  0
  161.3890  212.5990  148.0810 C   0  0  2  0  0  3  0  0  0  0  0  0
  160.4490  213.5130  147.3100 C   0  0  0  0  0  2  0  0  0  0  0  0
  159.3590  212.7340  146.6560 C   0  0  0  0  0  0  0  0  0  0  0  0
  159.5470  212.2070  145.5290 O   0  0  0  0  0  0  0  0  0  0  0  0
  158.1390  212.5800  147.2980 O   0  0  0  0  0  1  0  0  0  0  0  0
  1 19  1  6  0  0  0
  1 22  1  0  0  0  0
  2  3  1  0  0  0  0
  3 16  1  0  0  0  0
  4 20  1  1  0  0  0
  4  5  1  0  0  0  0
  5 15  1  6  0  0  0
  5 23  1  0  0  0  0
  6 25  1  6  0  0  0
  6 19  1  0  0  0  0
  8 21  1  6  0  0  0
  9  2  1  0  0  0  0
 10  7  1  6  0  0  0
 10 11  1  0  0  0  0
 10  1  1  0  0  0  0
 11  9  1  6  0  0  0
 11 17  1  0  0  0  0
 12 18  1  1  0  0  0
 13  8  1  0  0  0  0
 14 26  1  6  0  0  0
 14  7  1  0  0  0  0
 14  6  1  0  0  0  0
 15 13  1  0  0  0  0
 17 16  1  1  0  0  0
 17 12  1  0  0  0  0
 18 23  1  0  0  0  0
 22 12  1  0  0  0  0
 22  4  1  0  0  0  0
 23  8  1  0  0  0  0
 24 25  1  0  0  0  0
 27 28  1  0  0  0  0
 28 26  1  0  0  0  0
 29 28  1  0  0  0  0
 30 32  1  0  0  0  0
 30 29  1  0  0  0  0
 31 30  2  0  0  0  0
M  END
>  <MODEL>
4

>  <REMARK>
 VINA RESULT:      -5.9      2.290      5.705
  Name = 
  5 active torsions:
  status: ('A' for Active; 'I' for Inactive)
    1  A    between atoms: C_7  and  C_19
    2  A    between atoms: O_10  and  C_17
    3  A    between atoms: O_10  and  C_20
    4  A    between atoms: C_20  and  C_29
    5  A    between atoms: C_29  and  C_30
                            x       y       z     vdW  Elec       q    Type
                         _______ _______ _______ _____ _____    ______ ____

>  <TORSDO>
F 5

$$$$
=
 OpenBabel11122413053D

 32 36  0  0  1  0  0  0  0  0999 V2000
  161.3930  205.7390  148.6040 C   0  0  1  0  0  3  0  0  0  0  0  0
  160.2890  201.2670  150.6870 C   0  0  0  0  0  2  0  0  0  0  0  0
  160.8320  200.5780  149.4490 C   0  0  0  0  0  2  0  0  0  0  0  0
  162.0140  205.8210  146.1380 C   0  0  2  0  0  3  0  0  0  0  0  0
  161.2630  205.2490  145.0050 N   0  0  2  0  0  0  0  0  0  0  0  0
  161.2680  207.6940  149.7200 C   0  0  2  0  0  3  0  0  0  0  0  0
  160.8310  205.5790  151.0030 C   0  0  0  0  0  2  0  0  0  0  0  0
  159.8430  203.3820  144.4340 C   0  0  2  0  0  3  0  0  0  0  0  0
  161.0570  202.5640  150.9100 C   0  0  0  0  0  2  0  0  0  0  0  0
  161.5580  204.8750  149.8610 C   0  0  1  0  0  3  0  0  0  0  0  0
  161.1030  203.4360  149.6750 C   0  0  1  0  0  3  0  0  0  0  0  0
  161.1140  203.7570  147.2000 C   0  0  2  0  0  3  0  0  0  0  0  0
  158.9550  204.5120  144.8860 C   0  0  0  0  0  2  0  0  0  0  0  0
  161.3050  207.0330  151.1130 C   0  0  2  0  0  3  0  0  0  0  0  0
  159.8760  205.7050  145.0790 C   0  0  0  0  0  2  0  0  0  0  0  0
  160.5660  201.4570  148.2340 C   0  0  0  0  0  2  0  0  0  0  0  0
  161.0370  202.8810  148.4290 C   0  0  2  0  0  3  0  0  0  0  0  0
  161.6250  203.0750  146.0890 O   0  0  0  0  0  0  0  0  0  0  0  0
  162.0540  206.9630  148.8060 O   0  0  0  0  0  0  0  0  0  0  0  0
  163.4550  206.0600  145.7330 C   0  0  0  0  0  1  0  0  0  0  0  0
  159.4130  202.1740  144.9870 O   0  0  0  0  0  1  0  0  0  0  0  0
  161.9700  204.9830  147.4210 C   0  0  2  0  0  3  0  0  0  0  0  0
  161.2340  203.7680  144.9090 C   0  0  2  0  0  3  0  0  0  0  0  0
  161.9690  209.6860  148.4030 C   0  0  0  0  0  1  0  0  0  0  0  0
  161.7880  209.1190  149.7970 C   0  0  0  0  0  2  0  0  0  0  0  0
  160.4700  207.7200  152.0040 O   0  0  0  0  0  0  0  0  0  0  0  0
  160.8430  206.6070  154.0810 C   0  0  0  0  0  1  0  0  0  0  0  0
  161.1850  207.7980  153.2060 C   0  0  2  0  0  3  0  0  0  0  0  0
  160.8110  209.0690  153.9530 C   0  0  0  0  0  2  0  0  0  0  0  0
  161.3190  210.2780  153.2460 C   0  0  0  0  0  0  0  0  0  0  0  0
  162.5140  210.3270  152.8560 O   0  0  0  0  0  0  0  0  0  0  0  0
  160.4670  211.3480  153.0070 O   0  0  0  0  0  1  0  0  0  0  0  0
  1 19  1  1  0  0  0
  1 10  1  0  0  0  0
  2  9  1  0  0  0  0
  3  2  1  0  0  0  0
  4 20  1  6  0  0  0
  4 22  1  0  0  0  0
  5 15  1  1  0  0  0
  5  4  1  0  0  0  0
  6 25  1  1  0  0  0
  6 14  1  0  0  0  0
  7 14  1  0  0  0  0
  8 13  1  0  0  0  0
  8 23  1  0  0  0  0
  8 21  1  1  0  0  0
 10  7  1  1  0  0  0
 11 10  1  0  0  0  0
 11  9  1  1  0  0  0
 12 18  1  6  0  0  0
 12 22  1  0  0  0  0
 12 17  1  0  0  0  0
 13 15  1  0  0  0  0
 14 26  1  1  0  0  0
 16  3  1  0  0  0  0
 17 16  1  1  0  0  0
 17 11  1  0  0  0  0
 19  6  1  0  0  0  0
 22  1  1  0  0  0  0
 23  5  1  0  0  0  0
 23 18  1  0  0  0  0
 24 25  1  0  0  0  0
 26 28  1  0  0  0  0
 28 29  1  0  0  0  0
 28 27  1  0  0  0  0
 30 29  1  0  0  0  0
 31 30  2  0  0  0  0
 32 30  1  0  0  0  0
M  END
>  <MODEL>
5

>  <REMARK>
 VINA RESULT:      -5.9      4.300      9.962
  Name = 
  5 active torsions:
  status: ('A' for Active; 'I' for Inactive)
    1  A    between atoms: C_7  and  C_19
    2  A    between atoms: O_10  and  C_17
    3  A    between atoms: O_10  and  C_20
    4  A    between atoms: C_20  and  C_29
    5  A    between atoms: C_29  and  C_30
                            x       y       z     vdW  Elec       q    Type
                         _______ _______ _______ _____ _____    ______ ____

>  <TORSDO>
F 5

$$$$
=
 OpenBabel11122413053D

 32 36  0  0  1  0  0  0  0  0999 V2000
  160.9720  207.6730  151.8980 C   0  0  1  0  0  3  0  0  0  0  0  0
  162.0160  210.8610  148.1160 C   0  0  0  0  0  2  0  0  0  0  0  0
  162.4280  211.9060  149.1360 C   0  0  0  0  0  2  0  0  0  0  0  0
  160.8820  208.5810  154.2740 C   0  0  2  0  0  3  0  0  0  0  0  0
  160.1070  209.7370  154.7630 N   0  0  2  0  0  0  0  0  0  0  0  0
  160.4790  205.4950  151.5870 C   0  0  2  0  0  3  0  0  0  0  0  0
  161.1260  206.8530  149.5740 C   0  0  0  0  0  2  0  0  0  0  0  0
  159.3080  211.9040  154.0620 C   0  0  2  0  0  3  0  0  0  0  0  0
  162.3290  209.4770  148.6710 C   0  0  0  0  0  2  0  0  0  0  0  0
  161.7330  207.8310  150.5760 C   0  0  1  0  0  3  0  0  0  0  0  0
  161.7620  209.2590  150.0560 C   0  0  1  0  0  3  0  0  0  0  0  0
  161.0350  210.0850  152.2970 C   0  0  2  0  0  3  0  0  0  0  0  0
  158.2360  210.8960  153.7440 C   0  0  0  0  0  2  0  0  0  0  0  0
  161.0910  205.4410  150.1730 C   0  0  2  0  0  3  0  0  0  0  0  0
  158.7140  209.5840  154.3440 C   0  0  0  0  0  2  0  0  0  0  0  0
  161.5800  211.7370  150.3900 C   0  0  0  0  0  2  0  0  0  0  0  0
  161.5740  210.3150  150.9030 C   0  0  2  0  0  3  0  0  0  0  0  0
  161.4470  211.0740  153.1980 O   0  0  0  0  0  0  0  0  0  0  0  0
  161.2080  206.3840  152.4050 O   0  0  0  0  0  0  0  0  0  0  0  0
  162.0030  208.2640  155.2430 C   0  0  0  0  0  1  0  0  0  0  0  0
  159.4690  212.7960  152.9990 O   0  0  0  0  0  1  0  0  0  0  0  0
  161.4510  208.7460  152.8610 C   0  0  2  0  0  3  0  0  0  0  0  0
  160.5590  211.0760  154.3100 C   0  0  2  0  0  3  0  0  0  0  0  0
  161.8570  203.4810  152.0780 C   0  0  0  0  0  1  0  0  0  0  0  0
  160.4870  204.1150  152.2210 C   0  0  0  0  0  2  0  0  0  0  0  0
  160.3270  204.6110  149.3410 O   0  0  0  0  0  0  0  0  0  0  0  0
  161.9110  204.3620  147.5730 C   0  0  0  0  0  1  0  0  0  0  0  0
  161.2370  203.7130  148.7680 C   0  0  2  0  0  3  0  0  0  0  0  0
  160.5080  202.4660  148.2920 C   0  0  0  0  0  2  0  0  0  0  0  0
  161.1020  201.2350  148.8870 C   0  0  0  0  0  0  0  0  0  0  0  0
  161.1970  201.1190  150.1360 O   0  0  0  0  0  1  0  0  0  0  0  0
  161.5390  200.2100  148.0600 O   0  0  0  0  0  0  0  0  0  0  0  0
  1 19  1  1  0  0  0
  1 22  1  0  0  0  0
  2  9  1  0  0  0  0
  2  3  1  0  0  0  0
  3 16  1  0  0  0  0
  4  5  1  0  0  0  0
  4 20  1  1  0  0  0
  5 15  1  6  0  0  0
  6 25  1  1  0  0  0
  6 19  1  0  0  0  0
  7 14  1  0  0  0  0
  8 21  1  6  0  0  0
  8 23  1  0  0  0  0
 10  7  1  6  0  0  0
 10  1  1  0  0  0  0
 11  9  1  1  0  0  0
 11 10  1  0  0  0  0
 11 17  1  0  0  0  0
 12 22  1  0  0  0  0
 12 18  1  1  0  0  0
 13  8  1  0  0  0  0
 13 15  1  0  0  0  0
 14 26  1  6  0  0  0
 14  6  1  0  0  0  0
 17 16  1  6  0  0  0
 17 12  1  0  0  0  0
 18 23  1  0  0  0  0
 22  4  1  0  0  0  0
 23  5  1  0  0  0  0
 24 25  1  0  0  0  0
 27 28  1  0  0  0  0
 28 26  1  0  0  0  0
 29 28  1  0  0  0  0
 29 30  1  0  0  0  0
 30 31  1  0  0  0  0
 32 30  2  0  0  0  0
M  END
>  <MODEL>
6

>  <REMARK>
 VINA RESULT:      -5.0      2.827      4.357
  Name = 
  5 active torsions:
  status: ('A' for Active; 'I' for Inactive)
    1  A    between atoms: C_7  and  C_19
    2  A    between atoms: O_10  and  C_17
    3  A    between atoms: O_10  and  C_20
    4  A    between atoms: C_20  and  C_29
    5  A    between atoms: C_29  and  C_30
                            x       y       z     vdW  Elec       q    Type
                         _______ _______ _______ _____ _____    ______ ____

>  <TORSDO>
F 5

$$$$
=
 OpenBabel11122413053D

 32 36  0  0  1  0  0  0  0  0999 V2000
  160.5810  209.8230  152.7600 C   0  0  1  0  0  3  0  0  0  0  0  0
  161.3660  211.9160  148.2250 C   0  0  0  0  0  2  0  0  0  0  0  0
  161.3760  213.2850  148.8810 C   0  0  0  0  0  2  0  0  0  0  0  0
  159.9530  211.3310  154.7110 C   0  0  2  0  0  3  0  0  0  0  0  0
  158.8700  212.3320  154.7590 N   0  0  2  0  0  0  0  0  0  0  0  0
  160.6580  207.6010  153.1330 C   0  0  2  0  0  3  0  0  0  0  0  0
  161.2420  208.4280  150.8340 C   0  0  0  0  0  2  0  0  0  0  0  0
  157.6920  213.9040  153.3570 C   0  0  2  0  0  3  0  0  0  0  0  0
  161.9130  210.8910  149.2110 C   0  0  0  0  0  2  0  0  0  0  0  0
  161.4600  209.7820  151.5040 C   0  0  1  0  0  3  0  0  0  0  0  0
  161.2260  210.9480  150.5580 C   0  0  1  0  0  3  0  0  0  0  0  0
  160.0230  212.1720  152.3700 C   0  0  2  0  0  3  0  0  0  0  0  0
  156.9390  212.6000  153.3150 C   0  0  0  0  0  2  0  0  0  0  0  0
  161.4550  207.2980  151.8480 C   0  0  2  0  0  3  0  0  0  0  0  0
  157.6230  211.6990  154.3300 C   0  0  0  0  0  2  0  0  0  0  0  0
  160.4260  213.2730  150.0710 C   0  0  0  0  0  2  0  0  0  0  0  0
  160.6810  212.1160  151.0100 C   0  0  2  0  0  3  0  0  0  0  0  0
  160.0640  213.4550  152.9300 O   0  0  0  0  0  0  0  0  0  0  0  0
  161.0380  208.8500  153.6650 O   0  0  0  0  0  0  0  0  0  0  0  0
  160.9720  211.6220  155.7960 C   0  0  0  0  0  1  0  0  0  0  0  0
  157.7860  214.4530  152.0760 O   0  0  0  0  0  1  0  0  0  0  0  0
  160.6580  211.2180  153.3560 C   0  0  2  0  0  3  0  0  0  0  0  0
  159.0540  213.5480  153.9300 C   0  0  2  0  0  3  0  0  0  0  0  0
  160.4090  206.9830  155.5320 C   0  0  0  0  0  1  0  0  0  0  0  0
  160.9000  206.5220  154.1740 C   0  0  0  0  0  2  0  0  0  0  0  0
  161.0290  206.0890  151.2830 O   0  0  0  0  0  0  0  0  0  0  0  0
  160.3950  206.4610  149.0130 C   0  0  0  0  0  1  0  0  0  0  0  0
  161.5150  206.0960  149.9690 C   0  0  2  0  0  3  0  0  0  0  0  0
  162.0340  204.7150  149.5980 C   0  0  0  0  0  2  0  0  0  0  0  0
  160.9740  203.6800  149.7610 C   0  0  0  0  0  0  0  0  0  0  0  0
  160.4520  203.4810  150.8880 O   0  0  0  0  0  1  0  0  0  0  0  0
  160.5540  202.9430  148.6630 O   0  0  0  0  0  0  0  0  0  0  0  0
  1 22  1  0  0  0  0
  1 19  1  1  0  0  0
  2  3  1  0  0  0  0
  2  9  1  0  0  0  0
  3 16  1  0  0  0  0
  4  5  1  0  0  0  0
  4 20  1  1  0  0  0
  5 15  1  6  0  0  0
  6 19  1  0  0  0  0
  6 25  1  1  0  0  0
  7 14  1  0  0  0  0
  8 21  1  6  0  0  0
  8 23  1  0  0  0  0
 10  7  1  6  0  0  0
 10  1  1  0  0  0  0
 11  9  1  1  0  0  0
 11 17  1  0  0  0  0
 11 10  1  0  0  0  0
 12 18  1  1  0  0  0
 12 22  1  0  0  0  0
 13  8  1  0  0  0  0
 13 15  1  0  0  0  0
 14 26  1  6  0  0  0
 14  6  1  0  0  0  0
 17 16  1  6  0  0  0
 17 12  1  0  0  0  0
 18 23  1  0  0  0  0
 22  4  1  0  0  0  0
 23  5  1  0  0  0  0
 25 24  1  0  0  0  0
 27 28  1  0  0  0  0
 28 26  1  0  0  0  0
 29 30  1  0  0  0  0
 29 28  1  0  0  0  0
 30 31  1  0  0  0  0
 32 30  2  0  0  0  0
M  END
>  <MODEL>
7

>  <REMARK>
 VINA RESULT:      -4.9      1.795      2.394
  Name = 
  5 active torsions:
  status: ('A' for Active; 'I' for Inactive)
    1  A    between atoms: C_7  and  C_19
    2  A    between atoms: O_10  and  C_17
    3  A    between atoms: O_10  and  C_20
    4  A    between atoms: C_20  and  C_29
    5  A    between atoms: C_29  and  C_30
                            x       y       z     vdW  Elec       q    Type
                         _______ _______ _______ _____ _____    ______ ____

>  <TORSDO>
F 5

$$$$
=
 OpenBabel11122413053D

 32 36  0  0  1  0  0  0  0  0999 V2000
  161.0410  209.4730  152.6320 C   0  0  1  0  0  3  0  0  0  0  0  0
  160.1180  213.2280  149.3750 C   0  0  0  0  0  2  0  0  0  0  0  0
  160.2250  214.2200  150.5180 C   0  0  0  0  0  2  0  0  0  0  0  0
  160.9600  209.9690  155.1260 C   0  0  2  0  0  3  0  0  0  0  0  0
  159.8710  210.6240  155.8750 N   0  0  2  0  0  0  0  0  0  0  0  0
  161.4250  207.3440  151.9970 C   0  0  2  0  0  3  0  0  0  0  0  0
  161.1520  209.0760  150.1970 C   0  0  0  0  0  2  0  0  0  0  0  0
  158.1690  212.3190  155.6330 C   0  0  2  0  0  3  0  0  0  0  0  0
  161.0420  212.0490  149.6530 C   0  0  0  0  0  2  0  0  0  0  0  0
  161.4610  210.0920  151.2930 C   0  0  1  0  0  3  0  0  0  0  0  0
  160.8320  211.4500  151.0260 C   0  0  1  0  0  3  0  0  0  0  0  0
  160.1880  211.6200  153.4320 C   0  0  2  0  0  3  0  0  0  0  0  0
  157.5590  210.9980  155.2440 C   0  0  0  0  0  2  0  0  0  0  0  0
  161.7810  207.7210  150.5450 C   0  0  2  0  0  3  0  0  0  0  0  0
  158.6110  209.9500  155.5640 C   0  0  0  0  0  2  0  0  0  0  0  0
  159.7210  213.5610  151.7960 C   0  0  0  0  0  2  0  0  0  0  0  0
  160.3680  212.2190  152.0550 C   0  0  2  0  0  3  0  0  0  0  0  0
  160.3010  212.5770  154.4480 O   0  0  0  0  0  0  0  0  0  0  0  0
  161.8510  208.3530  152.8860 O   0  0  0  0  0  0  0  0  0  0  0  0
  162.2490  210.0420  155.9210 C   0  0  0  0  0  1  0  0  0  0  0  0
  157.7920  213.3150  154.7290 O   0  0  0  0  0  1  0  0  0  0  0  0
  161.1900  210.5250  153.7170 C   0  0  2  0  0  3  0  0  0  0  0  0
  159.6690  212.0720  155.6200 C   0  0  2  0  0  3  0  0  0  0  0  0
  161.0490  204.9290  152.4680 C   0  0  0  0  0  1  0  0  0  0  0  0
  162.0860  206.0310  152.3800 C   0  0  0  0  0  2  0  0  0  0  0  0
  161.2980  206.7510  149.6550 O   0  0  0  0  0  0  0  0  0  0  0  0
  162.7070  208.0870  148.2670 C   0  0  0  0  0  1  0  0  0  0  0  0
  162.2400  206.6870  148.6210 C   0  0  2  0  0  3  0  0  0  0  0  0
  161.6130  206.0610  147.3840 C   0  0  0  0  0  2  0  0  0  0  0  0
  162.2650  204.7640  147.0480 C   0  0  0  0  0  0  0  0  0  0  0  0
  161.9540  203.7190  147.6750 O   0  0  0  0  0  1  0  0  0  0  0  0
  163.2080  204.7070  146.0320 O   0  0  0  0  0  0  0  0  0  0  0  0
  1 19  1  1  0  0  0
  1 22  1  0  0  0  0
  2  9  1  0  0  0  0
  2  3  1  0  0  0  0
  3 16  1  0  0  0  0
  4  5  1  0  0  0  0
  4 20  1  1  0  0  0
  5 15  1  6  0  0  0
  6 25  1  1  0  0  0
  6 19  1  0  0  0  0
  7 14  1  0  0  0  0
  8 21  1  6  0  0  0
 10  7  1  6  0  0  0
 10  1  1  0  0  0  0
 11  9  1  1  0  0  0
 11 10  1  0  0  0  0
 11 17  1  0  0  0  0
 12 22  1  0  0  0  0
 12 18  1  1  0  0  0
 13 15  1  0  0  0  0
 13  8  1  0  0  0  0
 14 26  1  6  0  0  0
 14  6  1  0  0  0  0
 17 16  1  6  0  0  0
 17 12  1  0  0  0  0
 18 23  1  0  0  0  0
 22  4  1  0  0  0  0
 23  8  1  0  0  0  0
 23  5  1  0  0  0  0
 25 24  1  0  0  0  0
 27 28  1  0  0  0  0
 28 26  1  0  0  0  0
 29 28  1  0  0  0  0
 30 29  1  0  0  0  0
 30 31  1  0  0  0  0
 32 30  2  0  0  0  0
M  END
>  <MODEL>
8

>  <REMARK>
 VINA RESULT:      -4.9      1.843      2.589
  Name = 
  5 active torsions:
  status: ('A' for Active; 'I' for Inactive)
    1  A    between atoms: C_7  and  C_19
    2  A    between atoms: O_10  and  C_17
    3  A    between atoms: O_10  and  C_20
    4  A    between atoms: C_20  and  C_29
    5  A    between atoms: C_29  and  C_30
                            x       y       z     vdW  Elec       q    Type
                         _______ _______ _______ _____ _____    ______ ____

>  <TORSDO>
F 5

$$$$
=
 OpenBabel11122413053D

 32 36  0  0  1  0  0  0  0  0999 V2000
  160.1080  210.3400  152.4420 C   0  0  1  0  0  3  0  0  0  0  0  0
  159.7050  207.6760  156.7200 C   0  0  0  0  0  2  0  0  0  0  0  0
  160.9940  206.9560  156.3700 C   0  0  0  0  0  2  0  0  0  0  0  0
  161.8140  209.6090  150.7020 C   0  0  2  0  0  3  0  0  0  0  0  0
  161.9830  208.2640  150.1200 N   0  0  2  0  0  0  0  0  0  0  0  0
  158.7810  212.0920  151.9400 C   0  0  2  0  0  3  0  0  0  0  0  0
  158.5090  211.0200  154.1960 C   0  0  0  0  0  2  0  0  0  0  0  0
  161.7770  205.9260  150.6840 C   0  0  2  0  0  3  0  0  0  0  0  0
  159.7610  209.0920  156.1620 C   0  0  0  0  0  2  0  0  0  0  0  0
  159.9010  210.4410  153.9580 C   0  0  1  0  0  3  0  0  0  0  0  0
  160.1230  209.1290  154.6930 C   0  0  1  0  0  3  0  0  0  0  0  0
  161.2680  208.2000  152.6790 C   0  0  2  0  0  3  0  0  0  0  0  0
  160.4600  206.3760  150.1090 C   0  0  0  0  0  2  0  0  0  0  0  0
  158.3360  212.3180  153.3990 C   0  0  2  0  0  3  0  0  0  0  0  0
  160.6880  207.7980  149.6250 C   0  0  0  0  0  2  0  0  0  0  0  0
  161.0940  206.8240  154.8550 C   0  0  0  0  0  2  0  0  0  0  0  0
  160.8860  208.1400  154.1410 C   0  0  2  0  0  3  0  0  0  0  0  0
  162.4650  207.5240  152.4120 O   0  0  0  0  0  0  0  0  0  0  0  0
  160.1150  211.6350  151.8980 O   0  0  0  0  0  0  0  0  0  0  0  0
  163.0820  210.4180  150.5050 C   0  0  0  0  0  1  0  0  0  0  0  0
  161.5690  205.1260  151.8100 O   0  0  0  0  0  1  0  0  0  0  0  0
  161.4190  209.6200  152.1820 C   0  0  2  0  0  3  0  0  0  0  0  0
  162.5120  207.2130  151.0240 C   0  0  2  0  0  3  0  0  0  0  0  0
  160.0330  213.7900  150.6180 C   0  0  0  0  0  1  0  0  0  0  0  0
  158.6720  213.3820  151.1460 C   0  0  0  0  0  2  0  0  0  0  0  0
  156.9900  212.7070  153.4440 O   0  0  0  0  0  0  0  0  0  0  0  0
  158.1670  214.1340  154.9530 C   0  0  0  0  0  1  0  0  0  0  0  0
  156.9880  213.9890  154.0090 C   0  0  2  0  0  3  0  0  0  0  0  0
  155.7070  214.2070  154.8000 C   0  0  0  0  0  2  0  0  0  0  0  0
  155.7160  213.4200  156.0660 C   0  0  0  0  0  0  0  0  0  0  0  0
  155.7990  214.0070  157.1750 O   0  0  0  0  0  1  0  0  0  0  0  0
  155.6190  212.0360  156.0190 O   0  0  0  0  0  0  0  0  0  0  0  0
  1 19  1  1  0  0  0
  1 10  1  0  0  0  0
  3  2  1  0  0  0  0
  4 20  1  1  0  0  0
  4 22  1  0  0  0  0
  5 15  1  1  0  0  0
  5  4  1  0  0  0  0
  5 23  1  0  0  0  0
  6 25  1  6  0  0  0
  6 14  1  0  0  0  0
  8 23  1  0  0  0  0
  8 21  1  1  0  0  0
  9  2  1  0  0  0  0
 10  7  1  6  0  0  0
 10 11  1  0  0  0  0
 11  9  1  1  0  0  0
 12 18  1  1  0  0  0
 12 17  1  0  0  0  0
 13  8  1  0  0  0  0
 14 26  1  6  0  0  0
 14  7  1  0  0  0  0
 15 13  1  0  0  0  0
 16  3  1  0  0  0  0
 17 11  1  0  0  0  0
 17 16  1  6  0  0  0
 19  6  1  0  0  0  0
 22  1  1  0  0  0  0
 22 12  1  0  0  0  0
 23 18  1  0  0  0  0
 24 25  1  0  0  0  0
 26 28  1  0  0  0  0
 28 29  1  0  0  0  0
 28 27  1  0  0  0  0
 29 30  1  0  0  0  0
 30 31  1  0  0  0  0
 32 30  2  0  0  0  0
M  END
>  <MODEL>
9

>  <REMARK>
 VINA RESULT:      -4.1      2.366      7.881
  Name = 
  5 active torsions:
  status: ('A' for Active; 'I' for Inactive)
    1  A    between atoms: C_7  and  C_19
    2  A    between atoms: O_10  and  C_17
    3  A    between atoms: O_10  and  C_20
    4  A    between atoms: C_20  and  C_29
    5  A    between atoms: C_29  and  C_30
                            x       y       z     vdW  Elec       q    Type
                         _______ _______ _______ _____ _____    ______ ____

>  <TORSDO>
F 5

$$$$
