=
 OpenBabel11122413583D

 37 42  0  0  1  0  0  0  0  0999 V2000
  159.7980  211.3130  153.6110 C   0  0  0  0  0  0  0  0  0  0  0  0
  161.7310  208.0400  153.1020 C   0  0  1  0  0  3  0  0  0  0  0  0
  163.0080  207.1730  150.1750 O   0  0  0  0  0  0  0  0  0  0  0  0
  161.3600  209.8870  154.8490 N   0  0  2  0  0  0  0  0  0  0  0  0
  161.3290  208.1540  151.6320 C   0  0  2  0  0  3  0  0  0  0  0  0
  161.9460  209.4970  153.5520 C   0  0  2  0  0  3  0  0  0  0  0  0
  161.7470  206.9570  150.7530 C   0  0  2  0  0  3  0  0  0  0  0  0
  161.4830  208.7910  155.8100 C   0  0  0  0  0  2  0  0  0  0  0  0
  161.5460  210.4110  152.3860 C   0  0  2  0  0  3  0  0  0  0  0  0
  160.5570  212.4510  153.8490 F   0  0  0  0  0  0  0  0  0  0  0  0
  160.8080  205.8340  153.7000 N   0  0  0  0  0  2  0  0  0  0  0  0
  160.6810  207.5500  155.3990 C   0  0  0  0  0  2  0  0  0  0  0  0
  160.1600  210.7040  152.3940 O   0  0  0  0  0  0  0  0  0  0  0  0
  161.7560  208.1160  148.4210 O   0  0  0  0  0  0  0  0  0  0  0  0
  162.8260  207.2710  148.7760 C   0  0  0  0  0  2  0  0  0  0  0  0
  160.6530  207.2740  153.8920 C   0  0  1  0  0  3  0  0  0  0  0  0
  161.8530  209.5230  151.1860 C   0  0  2  0  0  3  0  0  0  0  0  0
  159.9620  210.3110  154.7440 C   0  0  0  0  0  2  0  0  0  0  0  0
  161.6540  205.5750  151.4330 C   0  0  1  0  0  3  0  0  0  0  0  0
  158.4680  211.6810  153.5450 F   0  0  0  0  0  0  0  0  0  0  0  0
  162.1690  209.4190  148.7090 C   0  0  0  0  0  2  0  0  0  0  0  0
  161.3120  210.0100  149.8260 C   0  0  2  0  0  3  0  0  0  0  0  0
  160.4320  205.4690  152.3410 C   0  0  0  0  0  2  0  0  0  0  0  0
  161.0100  204.8090  149.1100 C   0  0  0  0  0  2  0  0  0  0  0  0
  161.6540  204.4090  150.4390 C   0  0  2  0  0  3  0  0  0  0  0  0
  161.0210  203.1360  151.0190 C   0  0  0  0  0  2  0  0  0  0  0  0
  161.2490  200.9160  150.2490 O   0  0  0  0  0  0  0  0  0  0  0  0
  160.4550  202.4120  148.6030 C   0  0  0  0  0  2  0  0  0  0  0  0
  160.9570  202.0670  149.9720 C   0  0  0  0  0  0  0  0  0  0  0  0
  161.1470  203.6740  148.0960 C   0  0  0  0  0  2  0  0  0  0  0  0
  161.3820  211.5360  149.7080 C   0  0  0  0  0  2  0  0  0  0  0  0
  161.5820  212.0230  148.2670 C   0  0  1  0  0  3  0  0  0  0  0  0
  160.0210  212.0360  146.6330 O   0  0  0  0  0  1  0  0  0  0  0  0
  160.3870  212.6840  147.7640 N   0  0  0  0  0  2  0  0  0  0  0  0
  162.7800  212.9550  148.1430 C   0  0  0  0  0  2  0  0  0  0  0  0
  162.3640  214.3080  147.5890 C   0  0  0  0  0  2  0  0  0  0  0  0
  162.6900  214.3890  146.2350 O   0  0  0  0  0  1  0  0  0  0  0  0
  1 10  1  0  0  0  0
  1 18  1  0  0  0  0
  2  6  1  0  0  0  0
  2 16  1  0  0  0  0
  3  7  1  0  0  0  0
  4  8  1  0  0  0  0
  5  2  1  0  0  0  0
  6  4  1  0  0  0  0
  7 19  1  0  0  0  0
  7  5  1  0  0  0  0
  9 13  1  0  0  0  0
  9  6  1  0  0  0  0
 11 16  1  0  0  0  0
 12  8  1  0  0  0  0
 13  1  1  0  0  0  0
 14 21  1  0  0  0  0
 14 15  1  0  0  0  0
 15  3  1  0  0  0  0
 16 12  1  0  0  0  0
 17  5  1  0  0  0  0
 17  9  1  0  0  0  0
 18  4  1  0  0  0  0
 19 23  1  0  0  0  0
 20  1  1  0  0  0  0
 21 22  1  0  0  0  0
 22 17  1  0  0  0  0
 23 11  1  0  0  0  0
 24 25  1  0  0  0  0
 25 26  1  0  0  0  0
 25 19  1  0  0  0  0
 28 29  1  0  0  0  0
 29 27  2  0  0  0  0
 29 26  1  0  0  0  0
 30 28  1  0  0  0  0
 30 24  1  0  0  0  0
 31 22  1  0  0  0  0
 32 31  1  0  0  0  0
 33 34  1  0  0  0  0
 34 32  1  0  0  0  0
 35 32  1  0  0  0  0
 36 35  1  0  0  0  0
 37 36  1  0  0  0  0
M  END
>  <MODEL>
1

>  <REMARK>
 VINA RESULT:      -7.6      0.000      0.000
  Name = 
  6 active torsions:
  status: ('A' for Active; 'I' for Inactive)
    1  A    between atoms: C_1  and  C_4
    2  A    between atoms: C_1  and  C_27
    3  A    between atoms: C_4  and  C_12
    4  A    between atoms: C_4  and  N_37
    5  A    between atoms: C_8  and  C_12
    6  A    between atoms: C_23  and  C_30
                            x       y       z     vdW  Elec       q    Type
                         _______ _______ _______ _____ _____    ______ ____

>  <TORSDO>
F 6

$$$$
=
 OpenBabel11122413583D

 37 42  0  0  1  0  0  0  0  0999 V2000
  161.6240  208.1470  148.6700 C   0  0  0  0  0  0  0  0  0  0  0  0
  161.4450  210.7910  151.4420 C   0  0  1  0  0  3  0  0  0  0  0  0
  161.1720  209.9900  154.6410 O   0  0  0  0  0  0  0  0  0  0  0  0
  162.5790  210.3460  149.1800 N   0  0  2  0  0  0  0  0  0  0  0  0
  160.7250  209.7260  152.2670 C   0  0  2  0  0  3  0  0  0  0  0  0
  162.4720  210.0010  150.6100 C   0  0  2  0  0  3  0  0  0  0  0  0
  160.2120  210.2080  153.6400 C   0  0  2  0  0  3  0  0  0  0  0  0
  162.4360  211.7900  148.9960 C   0  0  0  0  0  2  0  0  0  0  0  0
  162.2380  208.5070  150.8750 C   0  0  2  0  0  3  0  0  0  0  0  0
  162.8740  207.5990  148.4160 F   0  0  0  0  0  0  0  0  0  0  0  0
  159.7930  212.6210  151.4410 N   0  0  0  0  0  2  0  0  0  0  0  0
  161.0480  212.3030  149.3980 C   0  0  0  0  0  2  0  0  0  0  0  0
  161.2510  207.9640  150.0150 O   0  0  0  0  0  0  0  0  0  0  0  0
  160.0760  207.9220  154.8780 O   0  0  0  0  0  0  0  0  0  0  0  0
  160.6440  209.0310  155.5360 C   0  0  0  0  0  2  0  0  0  0  0  0
  160.4310  211.6000  150.6120 C   0  0  1  0  0  3  0  0  0  0  0  0
  161.6870  208.5340  152.2970 C   0  0  2  0  0  3  0  0  0  0  0  0
  161.6130  209.6330  148.3420 C   0  0  0  0  0  2  0  0  0  0  0  0
  159.6660  211.6510  153.6700 C   0  0  1  0  0  3  0  0  0  0  0  0
  160.6970  207.5160  147.8620 F   0  0  0  0  0  0  0  0  0  0  0  0
  161.1400  207.1960  154.3350 C   0  0  0  0  0  2  0  0  0  0  0  0
  161.0700  207.2180  152.8110 C   0  0  2  0  0  3  0  0  0  0  0  0
  158.8930  211.9940  152.3990 C   0  0  0  0  0  2  0  0  0  0  0  0
  157.4000  211.3280  154.7450 C   0  0  0  0  0  2  0  0  0  0  0  0
  158.7930  211.9440  154.8940 C   0  0  2  0  0  3  0  0  0  0  0  0
  158.7210  213.4420  155.2260 C   0  0  0  0  0  2  0  0  0  0  0  0
  158.0650  214.4530  157.2550 O   0  0  0  0  0  0  0  0  0  0  0  0
  156.4360  213.0020  156.3510 C   0  0  0  0  0  2  0  0  0  0  0  0
  157.7750  213.6740  156.3630 C   0  0  0  0  0  0  0  0  0  0  0  0
  156.6000  211.5180  156.0330 C   0  0  0  0  0  2  0  0  0  0  0  0
  161.8380  205.9970  152.2930 C   0  0  0  0  0  2  0  0  0  0  0  0
  160.9610  205.0220  151.4970 C   0  0  1  0  0  3  0  0  0  0  0  0
  160.4480  204.8360  149.3040 O   0  0  0  0  0  1  0  0  0  0  0  0
  161.4960  204.8030  150.1620 N   0  0  0  0  0  2  0  0  0  0  0  0
  160.7980  203.6890  152.2140 C   0  0  0  0  0  2  0  0  0  0  0  0
  161.5930  202.5960  151.5220 C   0  0  0  0  0  2  0  0  0  0  0  0
  160.7280  201.7110  150.8770 O   0  0  0  0  0  1  0  0  0  0  0  0
  1 13  1  0  0  0  0
  2  5  1  0  0  0  0
  3 15  1  0  0  0  0
  4  6  1  0  0  0  0
  5 17  1  0  0  0  0
  5  7  1  0  0  0  0
  6  9  1  0  0  0  0
  6  2  1  0  0  0  0
  7 19  1  0  0  0  0
  7  3  1  0  0  0  0
  8  4  1  0  0  0  0
  8 12  1  0  0  0  0
  9 17  1  0  0  0  0
 10  1  1  0  0  0  0
 11 23  1  0  0  0  0
 12 16  1  0  0  0  0
 13  9  1  0  0  0  0
 14 15  1  0  0  0  0
 16 11  1  0  0  0  0
 16  2  1  0  0  0  0
 17 22  1  0  0  0  0
 18  1  1  0  0  0  0
 18  4  1  0  0  0  0
 19 25  1  0  0  0  0
 20  1  1  0  0  0  0
 21 14  1  0  0  0  0
 22 21  1  0  0  0  0
 23 19  1  0  0  0  0
 24 25  1  0  0  0  0
 24 30  1  0  0  0  0
 25 26  1  0  0  0  0
 26 29  1  0  0  0  0
 28 29  1  0  0  0  0
 29 27  2  0  0  0  0
 30 28  1  0  0  0  0
 31 22  1  0  0  0  0
 32 35  1  0  0  0  0
 32 31  1  0  0  0  0
 33 34  1  0  0  0  0
 34 32  1  0  0  0  0
 36 35  1  0  0  0  0
 37 36  1  0  0  0  0
M  END
>  <MODEL>
2

>  <REMARK>
 VINA RESULT:      -7.0      2.984      8.223
  Name = 
  6 active torsions:
  status: ('A' for Active; 'I' for Inactive)
    1  A    between atoms: C_1  and  C_4
    2  A    between atoms: C_1  and  C_27
    3  A    between atoms: C_4  and  C_12
    4  A    between atoms: C_4  and  N_37
    5  A    between atoms: C_8  and  C_12
    6  A    between atoms: C_23  and  C_30
                            x       y       z     vdW  Elec       q    Type
                         _______ _______ _______ _____ _____    ______ ____

>  <TORSDO>
F 6

$$$$
=
 OpenBabel11122413583D

 37 42  0  0  1  0  0  0  0  0999 V2000
  159.4560  211.4230  155.0320 C   0  0  0  0  0  0  0  0  0  0  0  0
  161.5280  208.2990  154.2230 C   0  0  1  0  0  3  0  0  0  0  0  0
  162.8370  207.7670  151.2310 O   0  0  0  0  0  0  0  0  0  0  0  0
  161.0810  209.9560  156.1350 N   0  0  2  0  0  0  0  0  0  0  0  0
  161.1200  208.5330  152.7690 C   0  0  2  0  0  3  0  0  0  0  0  0
  161.6810  209.7150  154.8090 C   0  0  2  0  0  3  0  0  0  0  0  0
  161.5870  207.4430  151.7820 C   0  0  2  0  0  3  0  0  0  0  0  0
  161.2520  208.7810  156.9890 C   0  0  0  0  0  2  0  0  0  0  0  0
  161.2400  210.7170  153.7320 C   0  0  2  0  0  3  0  0  0  0  0  0
  160.1660  212.5650  155.3770 F   0  0  0  0  0  0  0  0  0  0  0  0
  160.7020  206.0090  154.6100 N   0  0  0  0  0  2  0  0  0  0  0  0
  160.5040  207.5510  156.4610 C   0  0  0  0  0  2  0  0  0  0  0  0
  159.8420  210.9470  153.7640 O   0  0  0  0  0  0  0  0  0  0  0  0
  161.5420  208.8150  149.5700 O   0  0  0  0  0  0  0  0  0  0  0  0
  162.6480  207.9870  149.8460 C   0  0  0  0  0  2  0  0  0  0  0  0
  160.4860  207.4170  154.9350 C   0  0  1  0  0  3  0  0  0  0  0  0
  161.5830  209.9590  152.4550 C   0  0  2  0  0  3  0  0  0  0  0  0
  159.6660  210.3280  156.0660 C   0  0  0  0  0  2  0  0  0  0  0  0
  161.5550  206.0010  152.3300 C   0  0  1  0  0  3  0  0  0  0  0  0
  158.1110  211.7380  154.9970 F   0  0  0  0  0  0  0  0  0  0  0  0
  161.8990  210.1020  149.9800 C   0  0  0  0  0  2  0  0  0  0  0  0
  161.0200  210.5480  151.1450 C   0  0  2  0  0  3  0  0  0  0  0  0
  160.3400  205.7570  153.2210 C   0  0  0  0  0  2  0  0  0  0  0  0
  160.8190  205.3720  149.9930 C   0  0  0  0  0  2  0  0  0  0  0  0
  161.6040  204.9330  151.2310 C   0  0  2  0  0  3  0  0  0  0  0  0
  161.1590  203.5500  151.7280 C   0  0  0  0  0  2  0  0  0  0  0  0
  161.5660  201.4480  150.7350 O   0  0  0  0  0  0  0  0  0  0  0  0
  160.4890  202.9800  149.2970 C   0  0  0  0  0  2  0  0  0  0  0  0
  161.1310  202.5770  150.5900 C   0  0  0  0  0  0  0  0  0  0  0  0
  160.9980  204.3540  148.8680 C   0  0  0  0  0  2  0  0  0  0  0  0
  161.0230  212.0800  151.1710 C   0  0  0  0  0  2  0  0  0  0  0  0
  159.8380  212.7010  150.4210 C   0  0  1  0  0  3  0  0  0  0  0  0
  159.3220  213.8810  152.2770 O   0  0  0  0  0  1  0  0  0  0  0  0
  158.7730  213.0750  151.3380 N   0  0  0  0  0  2  0  0  0  0  0  0
  160.2580  213.9090  149.5950 C   0  0  0  0  0  2  0  0  0  0  0  0
  160.0080  213.6720  148.1150 C   0  0  0  0  0  2  0  0  0  0  0  0
  160.7580  212.5820  147.6730 O   0  0  0  0  0  1  0  0  0  0  0  0
  1 10  1  0  0  0  0
  1 18  1  0  0  0  0
  2  6  1  0  0  0  0
  2 16  1  0  0  0  0
  3  7  1  0  0  0  0
  4  8  1  0  0  0  0
  5  2  1  0  0  0  0
  6  4  1  0  0  0  0
  7 19  1  0  0  0  0
  7  5  1  0  0  0  0
  9 13  1  0  0  0  0
  9  6  1  0  0  0  0
 11 16  1  0  0  0  0
 12  8  1  0  0  0  0
 13  1  1  0  0  0  0
 14 15  1  0  0  0  0
 14 21  1  0  0  0  0
 15  3  1  0  0  0  0
 16 12  1  0  0  0  0
 17  5  1  0  0  0  0
 17  9  1  0  0  0  0
 18  4  1  0  0  0  0
 19 23  1  0  0  0  0
 20  1  1  0  0  0  0
 21 22  1  0  0  0  0
 22 31  1  0  0  0  0
 22 17  1  0  0  0  0
 23 11  1  0  0  0  0
 24 25  1  0  0  0  0
 25 26  1  0  0  0  0
 25 19  1  0  0  0  0
 28 29  1  0  0  0  0
 29 27  2  0  0  0  0
 29 26  1  0  0  0  0
 30 28  1  0  0  0  0
 30 24  1  0  0  0  0
 32 31  1  0  0  0  0
 32 34  1  0  0  0  0
 34 33  1  0  0  0  0
 35 32  1  0  0  0  0
 36 35  1  0  0  0  0
 37 36  1  0  0  0  0
M  END
>  <MODEL>
3

>  <REMARK>
 VINA RESULT:      -6.9      1.510      1.879
  Name = 
  6 active torsions:
  status: ('A' for Active; 'I' for Inactive)
    1  A    between atoms: C_1  and  C_4
    2  A    between atoms: C_1  and  C_27
    3  A    between atoms: C_4  and  C_12
    4  A    between atoms: C_4  and  N_37
    5  A    between atoms: C_8  and  C_12
    6  A    between atoms: C_23  and  C_30
                            x       y       z     vdW  Elec       q    Type
                         _______ _______ _______ _____ _____    ______ ____

>  <TORSDO>
F 6

$$$$
=
 OpenBabel11122413583D

 37 42  0  0  1  0  0  0  0  0999 V2000
  158.7750  211.2320  156.1220 C   0  0  0  0  0  0  0  0  0  0  0  0
  161.2920  208.9180  154.3850 C   0  0  1  0  0  3  0  0  0  0  0  0
  162.4850  209.5470  151.3640 O   0  0  0  0  0  0  0  0  0  0  0  0
  160.6890  209.8200  156.7140 N   0  0  2  0  0  0  0  0  0  0  0  0
  160.7610  209.4970  153.0740 C   0  0  2  0  0  3  0  0  0  0  0  0
  161.2390  210.0980  155.3730 C   0  0  2  0  0  3  0  0  0  0  0  0
  161.3450  208.8540  151.8000 C   0  0  2  0  0  3  0  0  0  0  0  0
  161.1090  208.4950  157.1680 C   0  0  0  0  0  2  0  0  0  0  0  0
  160.5690  211.2790  154.6560 C   0  0  2  0  0  3  0  0  0  0  0  0
  159.3010  212.3270  156.7940 F   0  0  0  0  0  0  0  0  0  0  0  0
  160.8910  206.5070  154.0620 N   0  0  0  0  0  2  0  0  0  0  0  0
  160.5490  207.3650  156.2970 C   0  0  0  0  0  2  0  0  0  0  0  0
  159.1570  211.2340  154.7670 O   0  0  0  0  0  0  0  0  0  0  0  0
  160.9320  210.7920  150.1100 O   0  0  0  0  0  0  0  0  0  0  0  0
  162.1770  210.1320  150.1130 C   0  0  0  0  0  2  0  0  0  0  0  0
  160.4600  207.6910  154.8020 C   0  0  1  0  0  3  0  0  0  0  0  0
  160.9560  211.0110  153.2060 C   0  0  2  0  0  3  0  0  0  0  0  0
  159.2300  209.9340  156.7720 C   0  0  0  0  0  2  0  0  0  0  0  0
  161.5910  207.3330  151.8820 C   0  0  1  0  0  3  0  0  0  0  0  0
  157.3970  211.2950  156.1950 F   0  0  0  0  0  0  0  0  0  0  0  0
  161.0900  211.9400  150.8900 C   0  0  0  0  0  2  0  0  0  0  0  0
  160.2220  211.8520  152.1420 C   0  0  2  0  0  3  0  0  0  0  0  0
  160.4920  206.6200  152.6660 C   0  0  0  0  0  2  0  0  0  0  0  0
  161.2070  207.5610  149.3920 C   0  0  0  0  0  2  0  0  0  0  0  0
  161.7530  206.6690  150.5100 C   0  0  2  0  0  3  0  0  0  0  0  0
  161.1490  205.2580  150.4600 C   0  0  0  0  0  2  0  0  0  0  0  0
  161.5820  203.5460  148.8940 O   0  0  0  0  0  0  0  0  0  0  0  0
  160.8480  205.5640  147.9110 C   0  0  0  0  0  2  0  0  0  0  0  0
  161.2460  204.7040  149.0720 C   0  0  0  0  0  0  0  0  0  0  0  0
  161.5040  206.9370  148.0300 C   0  0  0  0  0  2  0  0  0  0  0  0
  159.9670  213.2810  152.6330 C   0  0  0  0  0  2  0  0  0  0  0  0
  158.5630  213.7970  152.2940 C   0  0  1  0  0  3  0  0  0  0  0  0
  157.7250  213.3280  150.2490 O   0  0  0  0  0  1  0  0  0  0  0  0
  157.8220  212.8270  151.5030 N   0  0  0  0  0  2  0  0  0  0  0  0
  157.7720  214.1560  153.5450 C   0  0  0  0  0  2  0  0  0  0  0  0
  156.5050  213.3240  153.6470 C   0  0  0  0  0  2  0  0  0  0  0  0
  155.6400  213.8850  154.5860 O   0  0  0  0  0  1  0  0  0  0  0  0
  1 20  1  0  0  0  0
  1 18  1  0  0  0  0
  1 10  1  0  0  0  0
  2 16  1  0  0  0  0
  2  6  1  0  0  0  0
  3  7  1  0  0  0  0
  4 18  1  0  0  0  0
  4  8  1  0  0  0  0
  5 17  1  0  0  0  0
  5  2  1  0  0  0  0
  6  4  1  0  0  0  0
  7 19  1  0  0  0  0
  7  5  1  0  0  0  0
  9 13  1  0  0  0  0
  9  6  1  0  0  0  0
 11 16  1  0  0  0  0
 12  8  1  0  0  0  0
 13  1  1  0  0  0  0
 14 15  1  0  0  0  0
 14 21  1  0  0  0  0
 15  3  1  0  0  0  0
 16 12  1  0  0  0  0
 17  9  1  0  0  0  0
 19 23  1  0  0  0  0
 21 22  1  0  0  0  0
 22 31  1  0  0  0  0
 22 17  1  0  0  0  0
 23 11  1  0  0  0  0
 24 25  1  0  0  0  0
 25 19  1  0  0  0  0
 26 25  1  0  0  0  0
 27 29  2  0  0  0  0
 28 30  1  0  0  0  0
 28 29  1  0  0  0  0
 29 26  1  0  0  0  0
 30 24  1  0  0  0  0
 32 31  1  0  0  0  0
 32 35  1  0  0  0  0
 33 34  1  0  0  0  0
 34 32  1  0  0  0  0
 35 36  1  0  0  0  0
 36 37  1  0  0  0  0
M  END
>  <MODEL>
4

>  <REMARK>
 VINA RESULT:      -5.9      2.345      3.738
  Name = 
  6 active torsions:
  status: ('A' for Active; 'I' for Inactive)
    1  A    between atoms: C_1  and  C_4
    2  A    between atoms: C_1  and  C_27
    3  A    between atoms: C_4  and  C_12
    4  A    between atoms: C_4  and  N_37
    5  A    between atoms: C_8  and  C_12
    6  A    between atoms: C_23  and  C_30
                            x       y       z     vdW  Elec       q    Type
                         _______ _______ _______ _____ _____    ______ ____

>  <TORSDO>
F 6

$$$$
=
 OpenBabel11122413583D

 37 42  0  0  1  0  0  0  0  0999 V2000
  159.5760  210.7300  154.4740 C   0  0  0  0  0  0  0  0  0  0  0  0
  161.6540  208.1670  152.5190 C   0  0  1  0  0  3  0  0  0  0  0  0
  162.7400  208.7400  149.4460 O   0  0  0  0  0  0  0  0  0  0  0  0
  161.3160  209.0580  154.9050 N   0  0  2  0  0  0  0  0  0  0  0  0
  161.1290  208.8570  151.2600 C   0  0  2  0  0  3  0  0  0  0  0  0
  161.8170  209.3080  153.5400 C   0  0  2  0  0  3  0  0  0  0  0  0
  161.5450  208.1890  149.9340 C   0  0  2  0  0  3  0  0  0  0  0  0
  161.5810  207.6730  155.2950 C   0  0  0  0  0  2  0  0  0  0  0  0
  161.2710  210.5910  152.8990 C   0  0  2  0  0  3  0  0  0  0  0  0
  160.2820  211.7210  155.1410 F   0  0  0  0  0  0  0  0  0  0  0  0
  160.9160  205.8430  152.1560 N   0  0  0  0  0  2  0  0  0  0  0  0
  160.8240  206.6580  154.4310 C   0  0  0  0  0  2  0  0  0  0  0  0
  159.8740  210.7290  153.0980 O   0  0  0  0  0  0  0  0  0  0  0  0
  161.2950  210.2220  148.3280 O   0  0  0  0  0  0  0  0  0  0  0  0
  162.4390  209.4050  148.2340 C   0  0  0  0  0  2  0  0  0  0  0  0
  160.6910  207.0460  152.9540 C   0  0  1  0  0  3  0  0  0  0  0  0
  161.5320  210.3270  151.4210 C   0  0  2  0  0  3  0  0  0  0  0  0
  159.8910  209.3610  155.0580 C   0  0  0  0  0  2  0  0  0  0  0  0
  161.5890  206.6460  149.9590 C   0  0  1  0  0  3  0  0  0  0  0  0
  158.2250  210.9710  154.6350 F   0  0  0  0  0  0  0  0  0  0  0  0
  161.6520  211.3110  149.1270 C   0  0  0  0  0  2  0  0  0  0  0  0
  160.8550  211.2940  150.4290 C   0  0  2  0  0  3  0  0  0  0  0  0
  160.4530  206.0570  150.7910 C   0  0  0  0  0  2  0  0  0  0  0  0
  163.0020  205.7930  148.0420 C   0  0  0  0  0  2  0  0  0  0  0  0
  161.5800  206.0160  148.5620 C   0  0  2  0  0  3  0  0  0  0  0  0
  160.7240  206.8070  147.5620 C   0  0  0  0  0  2  0  0  0  0  0  0
  159.8460  206.0700  145.4980 O   0  0  0  0  0  0  0  0  0  0  0  0
  162.1900  205.8380  145.6650 C   0  0  0  0  0  2  0  0  0  0  0  0
  160.8370  206.2020  146.1960 C   0  0  0  0  0  0  0  0  0  0  0  0
  162.9640  205.0420  146.7130 C   0  0  0  0  0  2  0  0  0  0  0  0
  160.8240  212.7260  150.9740 C   0  0  0  0  0  2  0  0  0  0  0  0
  159.5510  213.4930  150.5900 C   0  0  1  0  0  3  0  0  0  0  0  0
  158.0070  213.3500  148.9470 O   0  0  0  0  0  1  0  0  0  0  0  0
  159.3400  213.4750  149.1510 N   0  0  0  0  0  2  0  0  0  0  0  0
  158.3210  212.9440  151.3010 C   0  0  0  0  0  2  0  0  0  0  0  0
  158.0140  213.7440  152.5550 C   0  0  0  0  0  2  0  0  0  0  0  0
  156.6870  214.1740  152.5340 O   0  0  0  0  0  1  0  0  0  0  0  0
  1 20  1  0  0  0  0
  1 18  1  0  0  0  0
  1 10  1  0  0  0  0
  2 16  1  0  0  0  0
  2  6  1  0  0  0  0
  3  7  1  0  0  0  0
  4 18  1  0  0  0  0
  4  8  1  0  0  0  0
  5 17  1  0  0  0  0
  5  2  1  0  0  0  0
  6  4  1  0  0  0  0
  7 19  1  0  0  0  0
  7  5  1  0  0  0  0
  9 13  1  0  0  0  0
  9  6  1  0  0  0  0
 11 16  1  0  0  0  0
 12  8  1  0  0  0  0
 13  1  1  0  0  0  0
 14 21  1  0  0  0  0
 15 14  1  0  0  0  0
 15  3  1  0  0  0  0
 16 12  1  0  0  0  0
 17  9  1  0  0  0  0
 19 23  1  0  0  0  0
 21 22  1  0  0  0  0
 22 31  1  0  0  0  0
 22 17  1  0  0  0  0
 23 11  1  0  0  0  0
 24 25  1  0  0  0  0
 25 19  1  0  0  0  0
 26 25  1  0  0  0  0
 27 29  2  0  0  0  0
 28 29  1  0  0  0  0
 28 30  1  0  0  0  0
 29 26  1  0  0  0  0
 30 24  1  0  0  0  0
 32 31  1  0  0  0  0
 32 35  1  0  0  0  0
 33 34  1  0  0  0  0
 34 32  1  0  0  0  0
 35 36  1  0  0  0  0
 37 36  1  0  0  0  0
M  END
>  <MODEL>
5

>  <REMARK>
 VINA RESULT:      -4.8      2.253      3.177
  Name = 
  6 active torsions:
  status: ('A' for Active; 'I' for Inactive)
    1  A    between atoms: C_1  and  C_4
    2  A    between atoms: C_1  and  C_27
    3  A    between atoms: C_4  and  C_12
    4  A    between atoms: C_4  and  N_37
    5  A    between atoms: C_8  and  C_12
    6  A    between atoms: C_23  and  C_30
                            x       y       z     vdW  Elec       q    Type
                         _______ _______ _______ _____ _____    ______ ____

>  <TORSDO>
F 6

$$$$
