=
 OpenBabel11122414173D

 34 41  0  0  1  0  0  0  0  0999 V2000
  160.8700  207.8930  154.2050 C   0  0  0  0  0  0  0  0  0  0  0  0
  162.1830  206.1670  152.8930 C   0  0  0  0  0  2  0  0  0  0  0  0
  157.8530  213.8970  154.5850 C   0  0  2  0  0  3  0  0  0  0  0  0
  159.3520  209.4740  155.2010 C   0  0  0  0  0  0  0  0  0  0  0  0
  158.4790  211.4810  153.8580 C   0  0  1  0  0  3  0  0  0  0  0  0
  159.8940  213.3330  154.6000 O   0  0  0  0  0  0  0  0  0  0  0  0
  159.1060  214.2160  155.3640 C   0  0  0  0  0  2  0  0  0  0  0  0
  157.2260  212.3310  156.5720 C   0  0  0  0  0  2  0  0  0  0  0  0
  162.2110  208.4750  152.1500 C   0  0  2  0  0  3  0  0  0  0  0  0
  161.6890  208.7770  148.9340 C   0  0  0  0  0  2  0  0  0  0  0  0
  159.1340  210.7650  152.6680 C   0  0  0  0  0  2  0  0  0  0  0  0
  157.4840  210.9120  156.0880 C   0  0  0  0  0  2  0  0  0  0  0  0
  161.0700  209.4470  151.7820 C   0  0  1  0  0  3  0  0  0  0  0  0
  162.9800  206.2220  151.5990 C   0  0  0  0  0  2  0  0  0  0  0  0
  158.7480  210.8570  155.2470 C   0  0  1  0  0  3  0  0  0  0  0  0
  156.7460  213.2320  155.4330 C   0  0  0  0  0  2  0  0  0  0  0  0
  161.7820  207.4930  149.7780 C   0  0  1  0  0  3  0  0  0  0  0  0
  160.2230  209.1330  154.1570 C   0  0  0  0  0  0  0  0  0  0  0  0
  158.7850  212.9870  153.8070 C   0  0  2  0  0  3  0  0  0  0  0  0
  160.4660  210.1110  153.0310 C   0  0  2  0  0  3  0  0  0  0  0  0
  159.7710  207.3840  156.2360 C   0  0  0  0  0  3  0  0  0  0  0  0
  162.3140  210.0110  149.5880 C   0  0  0  0  0  2  0  0  0  0  0  0
  159.1590  208.5960  156.2240 N   0  0  0  0  0  0  0  0  0  0  0  0
  161.5150  210.5300  150.7870 C   0  0  0  0  0  2  0  0  0  0  0  0
  162.7320  207.6010  150.9940 C   0  0  1  0  0  3  0  0  0  0  0  0
  160.6180  207.0370  155.2320 N   0  0  0  0  0  0  0  0  0  0  0  0
  161.7770  207.5300  153.1620 N   0  0  0  0  0  0  0  0  0  0  0  0
  160.5010  207.0820  150.1620 O   0  0  0  0  0  0  0  0  0  0  0  0
  160.1180  206.1370  149.2080 C   0  0  0  0  0  2  0  0  0  0  0  0
  160.8020  202.7670  148.7020 C   0  0  0  0  0  2  0  0  0  0  0  0
  161.3370  204.7100  147.5690 C   0  0  0  0  0  2  0  0  0  0  0  0
  161.2230  205.1120  149.0250 C   0  0  2  0  0  3  0  0  0  0  0  0
  161.4870  203.2660  147.5200 N   0  0  0  0  0  2  0  0  0  0  0  0
  160.8720  203.8440  149.7630 C   0  0  0  0  0  2  0  0  0  0  0  0
  1 26  1  0  0  0  0
  2 27  1  0  0  0  0
  3  7  1  1  0  0  0
  3 16  1  0  0  0  0
  4 15  1  0  0  0  0
  4 23  2  0  0  0  0
  5 11  1  6  0  0  0
  5 15  1  0  0  0  0
  6  7  1  0  0  0  0
  9 27  1  1  0  0  0
 10 22  1  0  0  0  0
 10 17  1  0  0  0  0
 12  8  1  0  0  0  0
 13 24  1  6  0  0  0
 13  9  1  0  0  0  0
 13 20  1  0  0  0  0
 14  2  1  0  0  0  0
 15 12  1  6  0  0  0
 16  8  1  0  0  0  0
 17 28  1  1  0  0  0
 17 25  1  0  0  0  0
 18  1  2  0  0  0  0
 18  4  1  0  0  0  0
 19  5  1  0  0  0  0
 19  3  1  0  0  0  0
 19  6  1  1  0  0  0
 20 11  1  6  0  0  0
 20 18  1  0  0  0  0
 22 24  1  0  0  0  0
 23 21  1  0  0  0  0
 25 14  1  1  0  0  0
 25  9  1  0  0  0  0
 26 21  2  0  0  0  0
 27  1  1  0  0  0  0
 29 28  1  0  0  0  0
 30 34  1  0  0  0  0
 31 32  1  0  0  0  0
 32 29  1  6  0  0  0
 32 34  1  0  0  0  0
 33 31  1  0  0  0  0
 33 30  1  0  0  0  0
M  END
>  <MODEL>
1

>  <REMARK>
 VINA RESULT:      -7.0      0.000      0.000
  Name = 
  3 active torsions:
  status: ('A' for Active; 'I' for Inactive)
    1  A    between atoms: C_17  and  O_28
    2  A    between atoms: O_28  and  C_29
    3  A    between atoms: C_29  and  C_32
                            x       y       z     vdW  Elec       q    Type
                         _______ _______ _______ _____ _____    ______ ____

>  <TORSDO>
F 3

$$$$
=
 OpenBabel11122414173D

 34 41  0  0  1  0  0  0  0  0999 V2000
  162.1200  207.9880  150.2350 C   0  0  0  0  0  0  0  0  0  0  0  0
  162.2740  210.2840  151.2980 C   0  0  0  0  0  2  0  0  0  0  0  0
  160.5090  201.4640  150.6150 C   0  0  2  0  0  3  0  0  0  0  0  0
  161.6050  205.8440  149.2700 C   0  0  0  0  0  0  0  0  0  0  0  0
  160.3520  204.0590  150.6270 C   0  0  1  0  0  3  0  0  0  0  0  0
  162.1300  202.5720  151.4060 O   0  0  0  0  0  0  0  0  0  0  0  0
  162.0080  201.3420  150.7320 C   0  0  0  0  0  2  0  0  0  0  0  0
  160.9390  202.2520  148.1680 C   0  0  0  0  0  2  0  0  0  0  0  0
  162.1310  208.3350  152.7330 C   0  0  2  0  0  3  0  0  0  0  0  0
  159.9320  208.6860  155.1300 C   0  0  0  0  0  2  0  0  0  0  0  0
  160.1450  205.2000  151.6330 C   0  0  0  0  0  2  0  0  0  0  0  0
  160.7250  203.7570  148.1650 C   0  0  0  0  0  2  0  0  0  0  0  0
  161.0940  207.1950  152.8130 C   0  0  1  0  0  3  0  0  0  0  0  0
  162.2090  210.7770  152.7350 C   0  0  0  0  0  2  0  0  0  0  0  0
  161.2840  204.3780  149.4350 C   0  0  1  0  0  3  0  0  0  0  0  0
  160.0040  201.5550  149.1580 C   0  0  0  0  0  2  0  0  0  0  0  0
  160.3420  209.6970  154.0440 C   0  0  1  0  0  3  0  0  0  0  0  0
  161.6970  206.6640  150.4020 C   0  0  0  0  0  0  0  0  0  0  0  0
  160.7380  202.7650  151.3610 C   0  0  2  0  0  3  0  0  0  0  0  0
  161.3710  206.1020  151.7660 C   0  0  2  0  0  3  0  0  0  0  0  0
  162.3020  207.6490  147.9020 C   0  0  0  0  0  3  0  0  0  0  0  0
  160.9450  207.5640  155.3660 C   0  0  0  0  0  2  0  0  0  0  0  0
  161.9240  206.3530  148.0480 N   0  0  0  0  0  0  0  0  0  0  0  0
  161.0180  206.5620  154.2110 C   0  0  0  0  0  2  0  0  0  0  0  0
  161.8150  209.5750  153.5890 C   0  0  1  0  0  3  0  0  0  0  0  0
  162.3960  208.4580  148.9900 N   0  0  0  0  0  0  0  0  0  0  0  0
  162.2390  208.8390  151.3770 N   0  0  0  0  0  0  0  0  0  0  0  0
  159.4610  209.6150  152.9600 O   0  0  0  0  0  0  0  0  0  0  0  0
  159.0120  210.9210  152.7550 C   0  0  0  0  0  2  0  0  0  0  0  0
  157.7360  213.7690  154.2850 C   0  0  0  0  0  2  0  0  0  0  0  0
  157.2030  211.5200  154.3590 C   0  0  0  0  0  2  0  0  0  0  0  0
  158.6920  211.5720  154.0880 C   0  0  2  0  0  3  0  0  0  0  0  0
  156.8010  212.8200  154.8700 N   0  0  0  0  0  2  0  0  0  0  0  0
  159.0390  213.0390  154.0380 C   0  0  0  0  0  2  0  0  0  0  0  0
  1 18  1  0  0  0  0
  1 27  1  0  0  0  0
  2 27  1  0  0  0  0
  2 14  1  0  0  0  0
  3 16  1  6  0  0  0
  3  7  1  0  0  0  0
  3 19  1  0  0  0  0
  4 15  1  0  0  0  0
  4 18  2  0  0  0  0
  5 19  1  0  0  0  0
  5 11  1  1  0  0  0
  7  6  1  0  0  0  0
  8 16  1  0  0  0  0
  9 27  1  6  0  0  0
  9 13  1  0  0  0  0
  9 25  1  0  0  0  0
 10 22  1  0  0  0  0
 12  8  1  0  0  0  0
 13 24  1  1  0  0  0
 15 12  1  6  0  0  0
 15  5  1  0  0  0  0
 17 28  1  6  0  0  0
 17 10  1  0  0  0  0
 18 20  1  0  0  0  0
 19  6  1  6  0  0  0
 20 11  1  6  0  0  0
 20 13  1  0  0  0  0
 21 23  2  0  0  0  0
 21 26  1  0  0  0  0
 23  4  1  0  0  0  0
 24 22  1  0  0  0  0
 25 14  1  6  0  0  0
 25 17  1  0  0  0  0
 26  1  2  0  0  0  0
 29 28  1  0  0  0  0
 30 33  1  0  0  0  0
 31 33  1  0  0  0  0
 32 29  1  6  0  0  0
 32 31  1  0  0  0  0
 34 32  1  0  0  0  0
 34 30  1  0  0  0  0
M  END
>  <MODEL>
2

>  <REMARK>
 VINA RESULT:      -6.7      2.105      8.544
  Name = 
  3 active torsions:
  status: ('A' for Active; 'I' for Inactive)
    1  A    between atoms: C_17  and  O_28
    2  A    between atoms: O_28  and  C_29
    3  A    between atoms: C_29  and  C_32
                            x       y       z     vdW  Elec       q    Type
                         _______ _______ _______ _____ _____    ______ ____

>  <TORSDO>
F 3

$$$$
