=
 OpenBabel11122413323D

 37 44  0  0  1  0  0  0  0  0999 V2000
  161.3260  209.9000  148.3750 C   0  0  0  0  0  2  0  0  0  0  0  0
  161.7740  205.7650  146.3030 C   0  0  0  0  0  0  0  0  0  0  0  0
  161.0050  205.7830  150.4520 C   0  0  0  0  0  0  0  0  0  0  0  0
  161.8880  211.2550  147.9220 C   0  0  2  0  0  3  0  0  0  0  0  0
  160.7580  208.9540  152.3470 O   0  0  0  0  0  0  0  0  0  0  0  0
  161.2300  204.5130  148.3990 C   0  0  0  0  0  0  0  0  0  0  0  0
  161.2790  207.0300  150.8090 C   0  0  0  0  0  0  0  0  0  0  0  0
  161.1910  212.0440  150.2140 C   0  0  0  0  0  0  0  0  0  0  0  0
  161.3320  205.6270  149.0800 C   0  0  0  0  0  0  0  0  0  0  0  0
  161.0420  207.5800  152.1950 C   0  0  0  0  0  0  0  0  0  0  0  0
  160.7520  203.3090  149.1170 C   0  0  0  0  0  3  0  0  0  0  0  0
  162.1420  212.2380  149.0710 C   0  0  0  0  0  2  0  0  0  0  0  0
  161.8190  206.8510  148.5660 C   0  0  0  0  0  0  0  0  0  0  0  0
  160.4330  206.1870  145.7320 C   0  0  0  0  0  1  0  0  0  0  0  0
  161.2440  204.4720  152.4640 C   0  0  0  0  0  3  0  0  0  0  0  0
  160.3890  203.3780  150.4210 C   0  0  0  0  0  3  0  0  0  0  0  0
  162.3400  206.9330  147.1640 C   0  0  0  0  0  2  0  0  0  0  0  0
  161.5460  211.1060  151.3290 C   0  0  1  0  0  3  0  0  0  0  0  0
  160.7670  209.8160  151.2280 C   0  0  1  0  0  3  0  0  0  0  0  0
  160.4180  204.6690  151.2450 C   0  0  2  0  0  3  0  0  0  0  0  0
  161.8000  207.7380  149.5650 C   0  0  0  0  0  0  0  0  0  0  0  0
  161.6030  204.5300  147.0440 O   0  0  0  0  0  0  0  0  0  0  0  0
  161.1110  206.8090  153.3190 C   0  0  0  0  0  0  0  0  0  0  0  0
  162.7200  205.5130  145.1490 C   0  0  0  0  0  1  0  0  0  0  0  0
  162.2330  209.8380  150.8110 C   0  0  1  0  0  3  0  0  0  0  0  0
  160.1290  212.6460  150.2340 O   0  0  0  0  0  0  0  0  0  0  0  0
  162.2080  209.1940  149.4170 C   0  0  2  0  0  3  0  0  0  0  0  0
  161.4970  205.4150  153.3230 N   0  0  0  0  0  0  0  0  0  0  0  0
  160.1080  206.7770  155.5990 C   0  0  0  0  0  3  0  0  0  0  0  0
  160.9400  207.4140  154.6650 C   0  0  0  0  0  0  0  0  0  0  0  0
  161.6410  208.5660  155.0580 C   0  0  0  0  0  3  0  0  0  0  0  0
  162.1960  210.2620  156.7250 N   0  0  0  0  0  1  0  0  0  0  0  0
  160.6460  208.4530  157.2600 C   0  0  0  0  0  3  0  0  0  0  0  0
  161.4880  209.0880  156.3450 C   0  0  0  0  0  0  0  0  0  0  0  0
  159.9570  207.2970  156.8880 C   0  0  0  0  0  3  0  0  0  0  0  0
  161.4900  213.2380  146.4620 C   0  0  0  0  0  1  0  0  0  0  0  0
  160.9530  211.8910  146.9070 C   0  0  0  0  0  2  0  0  0  0  0  0
  1 27  1  0  0  0  0
  2 22  1  0  0  0  0
  2 17  1  0  0  0  0
  3  7  2  0  0  0  0
  3 20  1  0  0  0  0
  4 37  1  6  0  0  0
  4  1  1  0  0  0  0
  4 12  1  0  0  0  0
  6  9  2  0  0  0  0
  6 11  1  0  0  0  0
  7 10  1  0  0  0  0
  8 26  2  0  0  0  0
  9  3  1  0  0  0  0
 10  5  1  0  0  0  0
 10 23  2  0  0  0  0
 11 16  2  0  0  0  0
 12  8  1  0  0  0  0
 13  9  1  0  0  0  0
 13 21  2  0  0  0  0
 14  2  1  0  0  0  0
 15 28  2  0  0  0  0
 17 13  1  0  0  0  0
 18  8  1  6  0  0  0
 19 18  1  0  0  0  0
 19  5  1  1  0  0  0
 20 16  1  6  0  0  0
 20 15  1  0  0  0  0
 21  7  1  0  0  0  0
 22  6  1  0  0  0  0
 23 28  1  0  0  0  0
 23 30  1  0  0  0  0
 24  2  1  0  0  0  0
 25 19  1  0  0  0  0
 25 18  1  0  0  0  0
 27 21  1  0  0  0  0
 27 25  1  0  0  0  0
 29 35  1  0  0  0  0
 30 31  1  0  0  0  0
 30 29  2  0  0  0  0
 31 34  2  0  0  0  0
 34 32  1  0  0  0  0
 34 33  1  0  0  0  0
 35 33  2  0  0  0  0
 36 37  1  0  0  0  0
M  END
>  <MODEL>
1

>  <REMARK>
 VINA RESULT:      -9.8      0.000      0.000
  Name = 
  2 active torsions:
  status: ('A' for Active; 'I' for Inactive)
    1  A    between atoms: C_4  and  C_37
    2  A    between atoms: C_23  and  C_30
                            x       y       z     vdW  Elec       q    Type
                         _______ _______ _______ _____ _____    ______ ____

>  <TORSDO>
F 2

$$$$
