=
 OpenBabel11122414233D

 34 41  0  0  1  0  0  0  0  0999 V2000
  160.9240  208.0020  154.2960 C   0  0  0  0  0  0  0  0  0  0  0  0
  161.9620  206.2260  152.8700 C   0  0  0  0  0  2  0  0  0  0  0  0
  157.7930  213.8190  154.2350 C   0  0  2  0  0  3  0  0  0  0  0  0
  159.2210  209.5130  155.0830 C   0  0  0  0  0  0  0  0  0  0  0  0
  158.4230  211.4530  153.6770 N   0  0  1  0  0  0  0  0  0  0  0  0
  159.7900  213.2030  154.5910 O   0  0  0  0  0  0  0  0  0  0  0  0
  158.9150  214.1240  155.2010 C   0  0  0  0  0  2  0  0  0  0  0  0
  156.8300  212.2990  156.1240 C   0  0  0  0  0  2  0  0  0  0  0  0
  162.2820  208.5440  152.1610 C   0  0  2  0  0  3  0  0  0  0  0  0
  161.7840  208.8030  148.9230 C   0  0  0  0  0  2  0  0  0  0  0  0
  159.1140  210.7470  152.5880 C   0  0  0  0  0  2  0  0  0  0  0  0
  157.2030  210.8810  155.7230 C   0  0  0  0  0  2  0  0  0  0  0  0
  161.0930  209.4640  151.7970 C   0  0  1  0  0  3  0  0  0  0  0  0
  162.8320  206.2030  151.6350 C   0  0  0  0  0  2  0  0  0  0  0  0
  158.5570  210.8690  155.0330 C   0  0  1  0  0  3  0  0  0  0  0  0
  156.5530  213.1830  154.9050 C   0  0  0  0  0  2  0  0  0  0  0  0
  161.7690  207.5330  149.7900 C   0  0  1  0  0  3  0  0  0  0  0  0
  160.1910  209.1850  154.1290 C   0  0  0  0  0  0  0  0  0  0  0  0
  158.8130  212.8730  153.6300 C   0  0  2  0  0  3  0  0  0  0  0  0
  160.4570  210.1460  153.0120 C   0  0  2  0  0  3  0  0  0  0  0  0
  159.7020  207.5220  156.2680 C   0  0  0  0  0  3  0  0  0  0  0  0
  162.3610  210.0350  149.6170 C   0  0  0  0  0  2  0  0  0  0  0  0
  159.0040  208.6790  156.1360 N   0  0  0  0  0  0  0  0  0  0  0  0
  161.4890  210.5370  150.7690 C   0  0  0  0  0  2  0  0  0  0  0  0
  162.7060  207.5860  151.0200 C   0  0  1  0  0  3  0  0  0  0  0  0
  160.6570  207.1980  155.3600 N   0  0  0  0  0  0  0  0  0  0  0  0
  162.0630  207.6450  153.3840 C   0  0  1  0  0  3  0  0  0  0  0  0
  160.4570  207.2110  150.1560 O   0  0  0  0  0  0  0  0  0  0  0  0
  160.0720  206.1960  149.2760 C   0  0  0  0  0  2  0  0  0  0  0  0
  160.8230  202.9110  148.6360 C   0  0  0  0  0  2  0  0  0  0  0  0
  161.3520  204.8380  147.6530 C   0  0  0  0  0  2  0  0  0  0  0  0
  161.2060  205.2010  149.1110 C   0  0  2  0  0  3  0  0  0  0  0  0
  161.5350  203.4510  147.5560 O   0  0  0  0  0  0  0  0  0  0  0  0
  160.8670  203.8990  149.7760 C   0  0  0  0  0  2  0  0  0  0  0  0
  1 26  1  0  0  0  0
  2 27  1  0  0  0  0
  3 16  1  1  0  0  0
  3  7  1  0  0  0  0
  4 23  2  0  0  0  0
  5 11  1  6  0  0  0
  5 15  1  0  0  0  0
  6  7  1  0  0  0  0
  9 27  1  0  0  0  0
 10 22  1  0  0  0  0
 10 17  1  0  0  0  0
 11 20  1  0  0  0  0
 12  8  1  0  0  0  0
 13  9  1  0  0  0  0
 13 20  1  0  0  0  0
 14  2  1  0  0  0  0
 15  4  1  0  0  0  0
 15 12  1  0  0  0  0
 16  8  1  0  0  0  0
 17 28  1  0  0  0  0
 17 25  1  0  0  0  0
 18  1  2  0  0  0  0
 18  4  1  0  0  0  0
 19  5  1  0  0  0  0
 19  3  1  0  0  0  0
 19  6  1  0  0  0  0
 20 18  1  0  0  0  0
 22 24  1  0  0  0  0
 23 21  1  0  0  0  0
 24 13  1  0  0  0  0
 25 14  1  0  0  0  0
 25  9  1  0  0  0  0
 26 21  2  0  0  0  0
 27  1  1  0  0  0  0
 29 28  1  0  0  0  0
 30 34  1  0  0  0  0
 31 32  1  0  0  0  0
 32 29  1  0  0  0  0
 32 34  1  0  0  0  0
 33 31  1  0  0  0  0
 33 30  1  0  0  0  0
M  END
>  <MODEL>
1

>  <REMARK>
 VINA RESULT:      -6.4      0.000      0.000
  Name = 
  3 active torsions:
  status: ('A' for Active; 'I' for Inactive)
    1  A    between atoms: C_17  and  O_28
    2  A    between atoms: O_28  and  C_29
    3  A    between atoms: C_29  and  C_32
                            x       y       z     vdW  Elec       q    Type
                         _______ _______ _______ _____ _____    ______ ____

>  <TORSDO>
F 3

$$$$
=
 OpenBabel11122414233D

 34 41  0  0  1  0  0  0  0  0999 V2000
  161.8460  209.0710  151.7160 C   0  0  0  0  0  0  0  0  0  0  0  0
  161.3210  211.1310  153.0380 C   0  0  0  0  0  2  0  0  0  0  0  0
  160.9810  202.5320  151.3520 C   0  0  2  0  0  3  0  0  0  0  0  0
  161.4170  207.0440  150.4870 C   0  0  0  0  0  0  0  0  0  0  0  0
  160.4990  204.9810  151.6190 N   0  0  1  0  0  0  0  0  0  0  0  0
  162.5480  203.7950  152.0180 O   0  0  0  0  0  0  0  0  0  0  0  0
  162.4870  202.6130  151.2530 C   0  0  0  0  0  2  0  0  0  0  0  0
  160.9530  203.5760  148.9620 C   0  0  0  0  0  2  0  0  0  0  0  0
  161.7680  209.0860  154.3020 C   0  0  2  0  0  3  0  0  0  0  0  0
  159.5490  208.7470  156.7020 C   0  0  0  0  0  2  0  0  0  0  0  0
  160.1950  205.9100  152.7190 C   0  0  0  0  0  2  0  0  0  0  0  0
  160.6220  205.0460  149.1740 C   0  0  0  0  0  2  0  0  0  0  0  0
  160.8930  207.8190  154.1520 C   0  0  1  0  0  3  0  0  0  0  0  0
  161.2500  211.4830  154.5050 C   0  0  0  0  0  2  0  0  0  0  0  0
  161.2440  205.5440  150.4670 C   0  0  1  0  0  3  0  0  0  0  0  0
  160.2610  202.6810  149.9930 C   0  0  0  0  0  2  0  0  0  0  0  0
  159.7090  209.9110  155.7110 C   0  0  1  0  0  3  0  0  0  0  0  0
  161.5060  207.7110  151.7140 C   0  0  0  0  0  0  0  0  0  0  0  0
  161.1490  203.7870  152.1870 C   0  0  2  0  0  3  0  0  0  0  0  0
  161.3070  206.9300  152.9760 C   0  0  2  0  0  3  0  0  0  0  0  0
  161.9480  209.0500  149.3490 C   0  0  0  0  0  3  0  0  0  0  0  0
  160.7280  207.7760  156.7320 C   0  0  0  0  0  2  0  0  0  0  0  0
  161.6480  207.7250  149.3330 N   0  0  0  0  0  0  0  0  0  0  0  0
  160.8760  206.9750  155.4380 C   0  0  0  0  0  2  0  0  0  0  0  0
  161.1620  210.1590  155.2420 C   0  0  1  0  0  3  0  0  0  0  0  0
  162.0540  209.7070  150.5310 N   0  0  0  0  0  0  0  0  0  0  0  0
  162.0810  209.8230  152.9940 C   0  0  1  0  0  3  0  0  0  0  0  0
  158.8380  209.7490  154.6280 O   0  0  0  0  0  0  0  0  0  0  0  0
  157.6380  210.3390  155.0320 C   0  0  0  0  0  2  0  0  0  0  0  0
  156.4960  213.3730  153.9120 C   0  0  0  0  0  2  0  0  0  0  0  0
  156.6630  212.4310  155.9230 C   0  0  0  0  0  2  0  0  0  0  0  0
  157.8180  211.8410  155.1470 C   0  0  2  0  0  3  0  0  0  0  0  0
  156.2400  213.5980  155.2720 O   0  0  0  0  0  0  0  0  0  0  0  0
  157.7150  212.4900  153.7980 C   0  0  0  0  0  2  0  0  0  0  0  0
  1 27  1  0  0  0  0
  2 14  1  0  0  0  0
  3 16  1  6  0  0  0
  3 19  1  0  0  0  0
  4 18  2  0  0  0  0
  5 19  1  0  0  0  0
  5 11  1  1  0  0  0
  6 19  1  0  0  0  0
  7  3  1  0  0  0  0
  7  6  1  0  0  0  0
  8 12  1  0  0  0  0
  8 16  1  0  0  0  0
  9 25  1  0  0  0  0
 10 22  1  0  0  0  0
 11 20  1  0  0  0  0
 12 15  1  0  0  0  0
 13  9  1  0  0  0  0
 13 24  1  0  0  0  0
 14 25  1  0  0  0  0
 15  4  1  0  0  0  0
 15  5  1  0  0  0  0
 17 10  1  0  0  0  0
 18  1  1  0  0  0  0
 18 20  1  0  0  0  0
 20 13  1  0  0  0  0
 21 26  1  0  0  0  0
 23 21  2  0  0  0  0
 23  4  1  0  0  0  0
 24 22  1  0  0  0  0
 25 17  1  0  0  0  0
 26  1  2  0  0  0  0
 27  2  1  0  0  0  0
 27  9  1  0  0  0  0
 28 29  1  0  0  0  0
 28 17  1  0  0  0  0
 29 32  1  0  0  0  0
 30 33  1  0  0  0  0
 32 31  1  0  0  0  0
 33 31  1  0  0  0  0
 34 30  1  0  0  0  0
 34 32  1  0  0  0  0
M  END
>  <MODEL>
2

>  <REMARK>
 VINA RESULT:      -5.4      2.315      8.222
  Name = 
  3 active torsions:
  status: ('A' for Active; 'I' for Inactive)
    1  A    between atoms: C_17  and  O_28
    2  A    between atoms: O_28  and  C_29
    3  A    between atoms: C_29  and  C_32
                            x       y       z     vdW  Elec       q    Type
                         _______ _______ _______ _____ _____    ______ ____

>  <TORSDO>
F 3

$$$$
=
 OpenBabel11122414233D

 34 41  0  0  1  0  0  0  0  0999 V2000
  162.0010  210.0790  149.6010 C   0  0  0  0  0  0  0  0  0  0  0  0
  161.4990  211.6630  147.7290 C   0  0  0  0  0  2  0  0  0  0  0  0
  160.3360  208.2840  155.7370 C   0  0  2  0  0  3  0  0  0  0  0  0
  161.5650  208.4190  151.2910 C   0  0  0  0  0  0  0  0  0  0  0  0
  160.1520  208.9360  153.3190 N   0  0  1  0  0  0  0  0  0  0  0  0
  161.8860  209.4600  154.8950 O   0  0  0  0  0  0  0  0  0  0  0  0
  161.8250  208.4780  155.9050 C   0  0  0  0  0  2  0  0  0  0  0  0
  160.9590  206.1820  154.3230 C   0  0  0  0  0  2  0  0  0  0  0  0
  161.3810  212.5600  150.0010 C   0  0  2  0  0  3  0  0  0  0  0  0
  158.6800  214.4010  150.3390 C   0  0  0  0  0  2  0  0  0  0  0  0
  159.7540  210.1220  152.5460 C   0  0  0  0  0  2  0  0  0  0  0  0
  160.7960  206.6150  152.8740 C   0  0  0  0  0  2  0  0  0  0  0  0
  160.3910  212.0060  151.0530 C   0  0  1  0  0  3  0  0  0  0  0  0
  161.1690  213.1340  147.6170 C   0  0  0  0  0  2  0  0  0  0  0  0
  161.1940  208.0730  152.7130 C   0  0  1  0  0  3  0  0  0  0  0  0
  159.9470  206.8720  155.2410 C   0  0  0  0  0  2  0  0  0  0  0  0
  159.2060  213.7050  149.0730 C   0  0  1  0  0  3  0  0  0  0  0  0
  161.4840  209.7480  150.8610 C   0  0  0  0  0  0  0  0  0  0  0  0
  160.4960  209.3650  154.6860 C   0  0  2  0  0  3  0  0  0  0  0  0
  160.9170  210.7740  151.7940 C   0  0  2  0  0  3  0  0  0  0  0  0
  162.5970  207.8140  149.2480 C   0  0  0  0  0  3  0  0  0  0  0  0
  159.6800  214.4530  151.4930 C   0  0  0  0  0  2  0  0  0  0  0  0
  162.1270  207.4830  150.4790 N   0  0  0  0  0  0  0  0  0  0  0  0
  159.9870  213.0760  152.0820 C   0  0  0  0  0  2  0  0  0  0  0  0
  160.7450  213.5660  149.0090 C   0  0  1  0  0  3  0  0  0  0  0  0
  162.5410  209.1020  148.8250 N   0  0  0  0  0  0  0  0  0  0  0  0
  162.0630  211.5020  149.1240 C   0  0  1  0  0  3  0  0  0  0  0  0
  158.5700  212.4710  148.8990 O   0  0  0  0  0  0  0  0  0  0  0  0
  157.2350  212.7830  148.6310 C   0  0  0  0  0  2  0  0  0  0  0  0
  157.9290  214.3640  145.6670 C   0  0  0  0  0  2  0  0  0  0  0  0
  158.2440  212.2940  146.4260 C   0  0  0  0  0  2  0  0  0  0  0  0
  156.9910  212.7540  147.1330 C   0  0  2  0  0  3  0  0  0  0  0  0
  158.4500  213.1130  145.3070 O   0  0  0  0  0  0  0  0  0  0  0  0
  156.7700  214.1420  146.6080 C   0  0  0  0  0  2  0  0  0  0  0  0
  1 18  1  0  0  0  0
  2 27  1  0  0  0  0
  3 16  1  6  0  0  0
  3  7  1  0  0  0  0
  4 15  1  0  0  0  0
  5 11  1  6  0  0  0
  5 19  1  0  0  0  0
  6  7  1  0  0  0  0
  8 16  1  0  0  0  0
  9 13  1  0  0  0  0
 10 22  1  0  0  0  0
 12  8  1  0  0  0  0
 13 20  1  0  0  0  0
 13 24  1  0  0  0  0
 14  2  1  0  0  0  0
 14 25  1  0  0  0  0
 15 12  1  0  0  0  0
 15  5  1  0  0  0  0
 17 10  1  0  0  0  0
 18  4  2  0  0  0  0
 18 20  1  0  0  0  0
 19  6  1  0  0  0  0
 19  3  1  0  0  0  0
 20 11  1  0  0  0  0
 21 23  2  0  0  0  0
 22 24  1  0  0  0  0
 23  4  1  0  0  0  0
 25 17  1  0  0  0  0
 25  9  1  0  0  0  0
 26 21  1  0  0  0  0
 26  1  2  0  0  0  0
 27  1  1  0  0  0  0
 27  9  1  0  0  0  0
 28 17  1  0  0  0  0
 29 28  1  0  0  0  0
 30 34  1  0  0  0  0
 31 32  1  0  0  0  0
 32 29  1  0  0  0  0
 33 30  1  0  0  0  0
 33 31  1  0  0  0  0
 34 32  1  0  0  0  0
M  END
>  <MODEL>
3

>  <REMARK>
 VINA RESULT:      -4.5      3.828      6.606
  Name = 
  3 active torsions:
  status: ('A' for Active; 'I' for Inactive)
    1  A    between atoms: C_17  and  O_28
    2  A    between atoms: O_28  and  C_29
    3  A    between atoms: C_29  and  C_32
                            x       y       z     vdW  Elec       q    Type
                         _______ _______ _______ _____ _____    ______ ____

>  <TORSDO>
F 3

$$$$
