=
 OpenBabel11122413553D

 37 42  0  0  1  0  0  0  0  0999 V2000
  161.8520  207.7520  152.6600 C   0  0  1  0  0  3  0  0  0  0  0  0
  162.6380  206.9000  149.4400 O   0  0  0  0  0  0  0  0  0  0  0  0
  161.1350  209.7820  154.0570 C   0  0  2  0  0  3  0  0  0  0  0  0
  161.4580  208.0020  151.2190 C   0  0  2  0  0  3  0  0  0  0  0  0
  162.2160  209.1500  153.1600 C   0  0  2  0  0  3  0  0  0  0  0  0
  161.5130  206.7860  150.2750 C   0  0  2  0  0  3  0  0  0  0  0  0
  160.7990  208.8740  155.2490 C   0  0  0  0  0  2  0  0  0  0  0  0
  162.4260  209.9760  151.8970 C   0  0  0  0  0  2  0  0  0  0  0  0
  160.7670  205.6290  153.2610 N   0  0  0  0  0  2  0  0  0  0  0  0
  160.8630  207.3730  154.9370 C   0  0  0  0  0  2  0  0  0  0  0  0
  160.9900  207.9960  148.0780 O   0  0  0  0  0  0  0  0  0  0  0  0
  162.3020  207.4840  148.1860 C   0  0  1  0  0  3  0  0  0  0  0  0
  160.7160  207.0740  153.4480 C   0  0  1  0  0  3  0  0  0  0  0  0
  162.3320  209.0740  150.7470 N   0  0  2  0  0  0  0  0  0  0  0  0
  161.4500  205.4010  150.9350 C   0  0  1  0  0  3  0  0  0  0  0  0
  162.0040  208.9610  148.2550 C   0  0  2  0  0  3  0  0  0  0  0  0
  161.6930  209.7050  149.5780 C   0  0  2  0  0  3  0  0  0  0  0  0
  160.2940  205.3020  151.9240 C   0  0  0  0  0  2  0  0  0  0  0  0
  161.0180  203.0920  150.3010 C   0  0  0  0  0  3  0  0  0  0  0  0
  161.3330  204.3260  149.8990 C   0  0  0  0  0  0  0  0  0  0  0  0
  161.5690  204.6530  148.4420 C   0  0  0  0  0  2  0  0  0  0  0  0
  161.6250  203.5890  146.3060 O   0  0  0  0  0  0  0  0  0  0  0  0
  161.0890  202.1720  148.0730 N   0  0  0  0  0  0  0  0  0  0  0  0
  161.4350  203.4570  147.5420 C   0  0  0  0  0  0  0  0  0  0  0  0
  160.8930  201.9850  149.3410 C   0  0  0  0  0  3  0  0  0  0  0  0
  162.1160  211.1800  149.3950 C   0  0  0  0  0  2  0  0  0  0  0  0
  161.7590  211.7510  148.0870 N   0  0  0  0  0  0  0  0  0  0  0  0
  160.7920  213.6630  149.2450 C   0  0  0  0  0  1  0  0  0  0  0  0
  160.5660  212.5830  148.2050 C   0  0  0  0  0  2  0  0  0  0  0  0
  162.8500  212.5820  147.5920 C   0  0  0  0  0  2  0  0  0  0  0  0
  162.5490  213.0610  146.1830 C   0  0  0  0  0  2  0  0  0  0  0  0
  162.6200  214.4530  146.1250 O   0  0  0  0  0  1  0  0  0  0  0  0
  159.9640  210.0560  153.3210 O   0  0  0  0  0  0  0  0  0  0  0  0
  159.5710  211.3950  153.5470 C   0  0  0  0  0  0  0  0  0  0  0  0
  160.5210  212.0830  154.2890 F   0  0  0  0  0  0  0  0  0  0  0  0
  159.3120  212.1290  152.2380 C   0  0  0  0  0  1  0  0  0  0  0  0
  158.2800  211.3830  154.3380 C   0  0  0  0  0  1  0  0  0  0  0  0
  1  5  1  0  0  0  0
  1 13  1  0  0  0  0
  2  6  1  0  0  0  0
  3  7  1  0  0  0  0
  4  1  1  0  0  0  0
  5  3  1  0  0  0  0
  6 15  1  0  0  0  0
  6  4  1  0  0  0  0
  8  5  1  0  0  0  0
  9 13  1  0  0  0  0
 10  7  1  0  0  0  0
 11 12  1  0  0  0  0
 11 16  1  0  0  0  0
 12 16  1  0  0  0  0
 12  2  1  0  0  0  0
 13 10  1  0  0  0  0
 14  4  1  0  0  0  0
 14  8  1  0  0  0  0
 15 18  1  0  0  0  0
 16 17  1  0  0  0  0
 17 14  1  0  0  0  0
 18  9  1  0  0  0  0
 20 19  2  0  0  0  0
 20 15  1  0  0  0  0
 21 20  1  0  0  0  0
 22 24  2  0  0  0  0
 23 25  2  0  0  0  0
 24 23  1  0  0  0  0
 24 21  1  0  0  0  0
 25 19  1  0  0  0  0
 26 17  1  0  0  0  0
 27 29  1  0  0  0  0
 27 26  1  0  0  0  0
 29 28  1  0  0  0  0
 30 27  1  0  0  0  0
 31 30  1  0  0  0  0
 32 31  1  0  0  0  0
 33 34  1  0  0  0  0
 33  3  1  0  0  0  0
 34 35  1  0  0  0  0
 34 37  1  0  0  0  0
 36 34  1  0  0  0  0
M  END
>  <MODEL>
1

>  <REMARK>
 VINA RESULT:      -7.3      0.000      0.000
  Name = 
  8 active torsions:
  status: ('A' for Active; 'I' for Inactive)
    1  A    between atoms: C_1  and  N_4
    2  A    between atoms: C_1  and  C_27
    3  A    between atoms: C_2  and  O_22
    4  A    between atoms: N_4  and  C_12
    5  A    between atoms: N_4  and  C_37
    6  A    between atoms: C_6  and  O_22
    7  A    between atoms: C_8  and  C_12
    8  A    between atoms: C_23  and  C_30
                            x       y       z     vdW  Elec       q    Type
                         _______ _______ _______ _____ _____    ______ ____

>  <TORSDO>
F 8

$$$$
=
 OpenBabel11122413553D

 37 42  0  0  1  0  0  0  0  0999 V2000
  161.8800  207.9380  152.7300 C   0  0  1  0  0  3  0  0  0  0  0  0
  162.6720  206.9800  149.5410 O   0  0  0  0  0  0  0  0  0  0  0  0
  161.1430  210.0090  154.0550 C   0  0  2  0  0  3  0  0  0  0  0  0
  161.4810  208.1320  151.2820 C   0  0  2  0  0  3  0  0  0  0  0  0
  162.2300  209.3570  153.1790 C   0  0  2  0  0  3  0  0  0  0  0  0
  161.5490  206.8830  150.3820 C   0  0  2  0  0  3  0  0  0  0  0  0
  160.8180  209.1400  155.2780 C   0  0  0  0  0  2  0  0  0  0  0  0
  162.4280  210.1400  151.8870 C   0  0  0  0  0  2  0  0  0  0  0  0
  160.8200  205.8260  153.4090 N   0  0  0  0  0  2  0  0  0  0  0  0
  160.8980  207.6300  155.0200 C   0  0  0  0  0  2  0  0  0  0  0  0
  161.0100  208.0070  148.1430 O   0  0  0  0  0  0  0  0  0  0  0  0
  162.3270  207.5150  148.2670 C   0  0  1  0  0  3  0  0  0  0  0  0
  160.7530  207.2760  153.5430 C   0  0  1  0  0  3  0  0  0  0  0  0
  162.3430  209.1960  150.7690 N   0  0  2  0  0  0  0  0  0  0  0  0
  161.5030  205.5220  151.0910 C   0  0  1  0  0  3  0  0  0  0  0  0
  162.0130  208.9890  148.2840 C   0  0  2  0  0  3  0  0  0  0  0  0
  161.6960  209.7770  149.5800 C   0  0  2  0  0  3  0  0  0  0  0  0
  160.3490  205.4460  152.0850 C   0  0  0  0  0  2  0  0  0  0  0  0
  161.5500  204.7020  148.8010 C   0  0  0  0  0  3  0  0  0  0  0  0
  161.3960  204.4090  150.0950 C   0  0  0  0  0  0  0  0  0  0  0  0
  161.1180  203.0000  150.5650 C   0  0  0  0  0  2  0  0  0  0  0  0
  160.7720  200.8060  149.6910 O   0  0  0  0  0  0  0  0  0  0  0  0
  161.2040  202.4270  148.0780 N   0  0  0  0  0  0  0  0  0  0  0  0
  161.0180  202.0130  149.4370 C   0  0  0  0  0  0  0  0  0  0  0  0
  161.4500  203.6610  147.7660 C   0  0  0  0  0  3  0  0  0  0  0  0
  162.1020  211.2490  149.3440 C   0  0  0  0  0  2  0  0  0  0  0  0
  161.7440  211.7670  148.0130 N   0  0  0  0  0  0  0  0  0  0  0  0
  160.7170  213.5780  149.2770 C   0  0  0  0  0  1  0  0  0  0  0  0
  160.5700  212.6290  148.1040 C   0  0  0  0  0  2  0  0  0  0  0  0
  162.8470  212.5500  147.4710 C   0  0  0  0  0  2  0  0  0  0  0  0
  162.3730  213.3760  146.2870 C   0  0  0  0  0  2  0  0  0  0  0  0
  163.0760  213.0120  145.1380 O   0  0  0  0  0  1  0  0  0  0  0  0
  159.9680  210.2430  153.3110 O   0  0  0  0  0  0  0  0  0  0  0  0
  159.5110  211.5580  153.5590 C   0  0  0  0  0  0  0  0  0  0  0  0
  160.3870  212.2520  154.3820 F   0  0  0  0  0  0  0  0  0  0  0  0
  159.3030  212.3300  152.2630 C   0  0  0  0  0  1  0  0  0  0  0  0
  158.1760  211.4700  154.2680 C   0  0  0  0  0  1  0  0  0  0  0  0
  1  5  1  0  0  0  0
  1 13  1  0  0  0  0
  2  6  1  0  0  0  0
  3  7  1  0  0  0  0
  4  1  1  0  0  0  0
  5  3  1  0  0  0  0
  6 15  1  0  0  0  0
  6  4  1  0  0  0  0
  8  5  1  0  0  0  0
  9 13  1  0  0  0  0
 10  7  1  0  0  0  0
 11 12  1  0  0  0  0
 11 16  1  0  0  0  0
 12 16  1  0  0  0  0
 12  2  1  0  0  0  0
 13 10  1  0  0  0  0
 14  4  1  0  0  0  0
 14  8  1  0  0  0  0
 15 18  1  0  0  0  0
 16 17  1  0  0  0  0
 17 14  1  0  0  0  0
 18  9  1  0  0  0  0
 19 20  2  0  0  0  0
 20 21  1  0  0  0  0
 20 15  1  0  0  0  0
 23 24  1  0  0  0  0
 24 22  2  0  0  0  0
 24 21  1  0  0  0  0
 25 23  2  0  0  0  0
 25 19  1  0  0  0  0
 26 17  1  0  0  0  0
 27 29  1  0  0  0  0
 27 26  1  0  0  0  0
 29 28  1  0  0  0  0
 30 27  1  0  0  0  0
 31 30  1  0  0  0  0
 32 31  1  0  0  0  0
 33 34  1  0  0  0  0
 33  3  1  0  0  0  0
 34 37  1  0  0  0  0
 34 35  1  0  0  0  0
 36 34  1  0  0  0  0
M  END
>  <MODEL>
2

>  <REMARK>
 VINA RESULT:      -7.2      0.816      1.143
  Name = 
  8 active torsions:
  status: ('A' for Active; 'I' for Inactive)
    1  A    between atoms: C_1  and  N_4
    2  A    between atoms: C_1  and  C_27
    3  A    between atoms: C_2  and  O_22
    4  A    between atoms: N_4  and  C_12
    5  A    between atoms: N_4  and  C_37
    6  A    between atoms: C_6  and  O_22
    7  A    between atoms: C_8  and  C_12
    8  A    between atoms: C_23  and  C_30
                            x       y       z     vdW  Elec       q    Type
                         _______ _______ _______ _____ _____    ______ ____

>  <TORSDO>
F 8

$$$$
=
 OpenBabel11122413553D

 37 42  0  0  1  0  0  0  0  0999 V2000
  160.4210  205.8890  150.4050 C   0  0  1  0  0  3  0  0  0  0  0  0
  160.5000  208.8190  152.1730 O   0  0  0  0  0  0  0  0  0  0  0  0
  161.1160  204.9250  148.1290 C   0  0  2  0  0  3  0  0  0  0  0  0
  161.2890  207.0950  150.6960 C   0  0  2  0  0  3  0  0  0  0  0  0
  160.2520  205.9510  148.8870 C   0  0  2  0  0  3  0  0  0  0  0  0
  161.2510  207.6310  152.1400 C   0  0  2  0  0  3  0  0  0  0  0  0
  160.8480  203.4970  148.6260 C   0  0  0  0  0  2  0  0  0  0  0  0
  160.6400  207.3750  148.5060 C   0  0  0  0  0  2  0  0  0  0  0  0
  160.7470  204.3870  152.3240 N   0  0  0  0  0  2  0  0  0  0  0  0
  160.5400  203.3960  150.1250 C   0  0  0  0  0  2  0  0  0  0  0  0
  162.6940  209.7220  151.8000 O   0  0  0  0  0  0  0  0  0  0  0  0
  161.3330  209.9690  152.0830 C   0  0  1  0  0  3  0  0  0  0  0  0
  161.0690  204.5890  150.9160 C   0  0  1  0  0  3  0  0  0  0  0  0
  160.8760  208.1240  149.7430 N   0  0  2  0  0  0  0  0  0  0  0  0
  160.7860  206.6500  153.2250 C   0  0  1  0  0  3  0  0  0  0  0  0
  161.9260  210.1930  150.7150 C   0  0  2  0  0  3  0  0  0  0  0  0
  161.9730  209.1000  149.6180 C   0  0  2  0  0  3  0  0  0  0  0  0
  161.5230  205.3180  153.1310 C   0  0  0  0  0  2  0  0  0  0  0  0
  160.2580  206.7340  155.5990 C   0  0  0  0  0  3  0  0  0  0  0  0
  160.9690  207.2410  154.5880 C   0  0  0  0  0  0  0  0  0  0  0  0
  161.9370  208.3850  154.7910 C   0  0  0  0  0  2  0  0  0  0  0  0
  162.7340  209.8350  156.5110 O   0  0  0  0  0  0  0  0  0  0  0  0
  161.1790  208.2570  157.2260 N   0  0  0  0  0  0  0  0  0  0  0  0
  161.9800  208.8740  156.2110 C   0  0  0  0  0  0  0  0  0  0  0  0
  160.3800  207.2700  156.9620 C   0  0  0  0  0  3  0  0  0  0  0  0
  161.9790  209.8130  148.2470 C   0  0  0  0  0  2  0  0  0  0  0  0
  161.9520  211.2820  148.3320 N   0  0  0  0  0  0  0  0  0  0  0  0
  163.0740  212.9490  146.9560 C   0  0  0  0  0  1  0  0  0  0  0  0
  163.2520  211.8350  147.9690 C   0  0  0  0  0  2  0  0  0  0  0  0
  160.9540  211.8150  147.4120 C   0  0  0  0  0  2  0  0  0  0  0  0
  159.9200  212.6290  148.1700 C   0  0  0  0  0  2  0  0  0  0  0  0
  160.4850  213.1570  149.3320 O   0  0  0  0  0  1  0  0  0  0  0  0
  162.4880  205.2250  148.2600 O   0  0  0  0  0  0  0  0  0  0  0  0
  163.1280  205.0370  147.0140 C   0  0  0  0  0  0  0  0  0  0  0  0
  164.5080  205.1210  147.1360 F   0  0  0  0  0  0  0  0  0  0  0  0
  162.7490  203.7020  146.3870 C   0  0  0  0  0  1  0  0  0  0  0  0
  162.6760  206.1370  146.0770 C   0  0  0  0  0  1  0  0  0  0  0  0
  1  4  1  0  0  0  0
  1 13  1  0  0  0  0
  3 33  1  0  0  0  0
  3  7  1  0  0  0  0
  3  5  1  0  0  0  0
  4  6  1  0  0  0  0
  5  1  1  0  0  0  0
  6  2  1  0  0  0  0
  6 15  1  0  0  0  0
  7 10  1  0  0  0  0
  8  5  1  0  0  0  0
  8 14  1  0  0  0  0
  9 18  1  0  0  0  0
 10 13  1  0  0  0  0
 11 12  1  0  0  0  0
 12  2  1  0  0  0  0
 13  9  1  0  0  0  0
 14  4  1  0  0  0  0
 15 20  1  0  0  0  0
 16 11  1  0  0  0  0
 16 12  1  0  0  0  0
 17 14  1  0  0  0  0
 17 16  1  0  0  0  0
 18 15  1  0  0  0  0
 19 25  1  0  0  0  0
 20 21  1  0  0  0  0
 20 19  2  0  0  0  0
 21 24  1  0  0  0  0
 24 22  2  0  0  0  0
 24 23  1  0  0  0  0
 25 23  2  0  0  0  0
 26 27  1  0  0  0  0
 26 17  1  0  0  0  0
 28 29  1  0  0  0  0
 29 27  1  0  0  0  0
 30 31  1  0  0  0  0
 30 27  1  0  0  0  0
 31 32  1  0  0  0  0
 34 35  1  0  0  0  0
 34 33  1  0  0  0  0
 36 34  1  0  0  0  0
 37 34  1  0  0  0  0
M  END
>  <MODEL>
3

>  <REMARK>
 VINA RESULT:      -5.5      2.603      6.306
  Name = 
  8 active torsions:
  status: ('A' for Active; 'I' for Inactive)
    1  A    between atoms: C_1  and  N_4
    2  A    between atoms: C_1  and  C_27
    3  A    between atoms: C_2  and  O_22
    4  A    between atoms: N_4  and  C_12
    5  A    between atoms: N_4  and  C_37
    6  A    between atoms: C_6  and  O_22
    7  A    between atoms: C_8  and  C_12
    8  A    between atoms: C_23  and  C_30
                            x       y       z     vdW  Elec       q    Type
                         _______ _______ _______ _____ _____    ______ ____

>  <TORSDO>
F 8

$$$$
=
 OpenBabel11122413553D

 37 42  0  0  1  0  0  0  0  0999 V2000
  161.6500  212.2480  149.8710 C   0  0  1  0  0  3  0  0  0  0  0  0
  162.0240  209.7210  152.1500 O   0  0  0  0  0  0  0  0  0  0  0  0
  161.4230  212.6210  147.3420 C   0  0  2  0  0  3  0  0  0  0  0  0
  161.2010  210.8360  150.1860 C   0  0  2  0  0  3  0  0  0  0  0  0
  162.3000  212.0980  148.4950 C   0  0  2  0  0  3  0  0  0  0  0  0
  160.9630  210.5110  151.6740 C   0  0  2  0  0  3  0  0  0  0  0  0
  161.0170  214.0840  147.5700 C   0  0  0  0  0  2  0  0  0  0  0  0
  162.5610  210.6040  148.3440 C   0  0  0  0  0  2  0  0  0  0  0  0
  160.2460  213.6950  151.2770 N   0  0  0  0  0  2  0  0  0  0  0  0
  160.7830  214.4530  149.0410 C   0  0  0  0  0  2  0  0  0  0  0  0
  160.5050  208.0010  151.4380 O   0  0  0  0  0  0  0  0  0  0  0  0
  161.7060  208.3340  152.1020 C   0  0  1  0  0  3  0  0  0  0  0  0
  160.4720  213.2380  149.9110 C   0  0  1  0  0  3  0  0  0  0  0  0
  162.2180  209.9550  149.6130 N   0  0  2  0  0  0  0  0  0  0  0  0
  160.6990  211.7040  152.6030 C   0  0  1  0  0  3  0  0  0  0  0  0
  161.6890  207.7550  150.7100 C   0  0  2  0  0  3  0  0  0  0  0  0
  161.6190  208.6220  149.4280 C   0  0  2  0  0  3  0  0  0  0  0  0
  159.6220  212.6260  152.0420 C   0  0  0  0  0  2  0  0  0  0  0  0
  159.0100  211.1080  154.2500 C   0  0  0  0  0  3  0  0  0  0  0  0
  160.3100  211.2340  153.9710 C   0  0  0  0  0  0  0  0  0  0  0  0
  161.3790  210.9180  154.9920 C   0  0  0  0  0  2  0  0  0  0  0  0
  161.5990  210.2080  157.2600 O   0  0  0  0  0  0  0  0  0  0  0  0
  159.4010  210.3760  156.5140 N   0  0  0  0  0  0  0  0  0  0  0  0
  160.8160  210.4840  156.3160 C   0  0  0  0  0  0  0  0  0  0  0  0
  158.5540  210.6580  155.5740 C   0  0  0  0  0  3  0  0  0  0  0  0
  162.2880  207.8240  148.2870 C   0  0  0  0  0  2  0  0  0  0  0  0
  161.3430  207.0900  147.4300 N   0  0  0  0  0  0  0  0  0  0  0  0
  161.1650  205.8590  145.3360 C   0  0  0  0  0  1  0  0  0  0  0  0
  162.0660  206.2330  146.4970 C   0  0  0  0  0  2  0  0  0  0  0  0
  160.4790  206.2480  148.2500 C   0  0  0  0  0  2  0  0  0  0  0  0
  161.1930  204.9570  148.6120 C   0  0  0  0  0  2  0  0  0  0  0  0
  160.7050  204.4640  149.8220 O   0  0  0  0  0  1  0  0  0  0  0  0
  160.2690  211.8260  147.1830 O   0  0  0  0  0  0  0  0  0  0  0  0
  159.4310  212.4070  146.2050 C   0  0  0  0  0  0  0  0  0  0  0  0
  159.6480  213.7730  146.0980 F   0  0  0  0  0  0  0  0  0  0  0  0
  159.6220  211.7500  144.8440 C   0  0  0  0  0  1  0  0  0  0  0  0
  157.9920  212.1950  146.6260 C   0  0  0  0  0  1  0  0  0  0  0  0
  1 13  1  0  0  0  0
  1  4  1  0  0  0  0
  3  7  1  0  0  0  0
  3  5  1  0  0  0  0
  4  6  1  0  0  0  0
  5  1  1  0  0  0  0
  6  2  1  0  0  0  0
  6 15  1  0  0  0  0
  7 10  1  0  0  0  0
  8  5  1  0  0  0  0
  8 14  1  0  0  0  0
  9 18  1  0  0  0  0
 10 13  1  0  0  0  0
 11 12  1  0  0  0  0
 12  2  1  0  0  0  0
 13  9  1  0  0  0  0
 14  4  1  0  0  0  0
 15 20  1  0  0  0  0
 16 11  1  0  0  0  0
 16 12  1  0  0  0  0
 17 14  1  0  0  0  0
 17 16  1  0  0  0  0
 18 15  1  0  0  0  0
 19 25  1  0  0  0  0
 20 19  2  0  0  0  0
 20 21  1  0  0  0  0
 21 24  1  0  0  0  0
 24 23  1  0  0  0  0
 24 22  2  0  0  0  0
 25 23  2  0  0  0  0
 26 17  1  0  0  0  0
 27 30  1  0  0  0  0
 27 26  1  0  0  0  0
 28 29  1  0  0  0  0
 29 27  1  0  0  0  0
 30 31  1  0  0  0  0
 31 32  1  0  0  0  0
 33  3  1  0  0  0  0
 34 37  1  0  0  0  0
 34 33  1  0  0  0  0
 35 34  1  0  0  0  0
 36 34  1  0  0  0  0
M  END
>  <MODEL>
4

>  <REMARK>
 VINA RESULT:      -4.9      2.701      7.445
  Name = 
  8 active torsions:
  status: ('A' for Active; 'I' for Inactive)
    1  A    between atoms: C_1  and  N_4
    2  A    between atoms: C_1  and  C_27
    3  A    between atoms: C_2  and  O_22
    4  A    between atoms: N_4  and  C_12
    5  A    between atoms: N_4  and  C_37
    6  A    between atoms: C_6  and  O_22
    7  A    between atoms: C_8  and  C_12
    8  A    between atoms: C_23  and  C_30
                            x       y       z     vdW  Elec       q    Type
                         _______ _______ _______ _____ _____    ______ ____

>  <TORSDO>
F 8

$$$$
