=
 OpenBabel11122414123D

 28 32  0  0  1  0  0  0  0  0999 V2000
  160.5740  211.5050  151.5550 C   0  0  1  0  0  3  0  0  0  0  0  0
  159.7620  207.4930  151.0170 F   0  0  0  0  0  0  0  0  0  0  0  0
  161.8700  209.4810  156.7020 O   0  0  0  0  0  0  0  0  0  0  0  0
  162.3830  211.6040  149.3560 C   0  0  0  0  0  3  0  0  0  0  0  0
  161.3510  207.5930  155.2870 C   0  0  2  0  0  3  0  0  0  0  0  0
  159.2790  211.2400  152.1680 N   0  0  0  0  0  2  0  0  0  0  0  0
  161.3120  207.7150  149.2520 C   0  0  0  0  0  1  0  0  0  0  0  0
  161.0640  207.1940  150.6540 C   0  0  1  0  0  0  0  0  0  0  0  0
  161.5920  204.9910  151.7630 C   0  0  0  0  0  0  0  0  0  0  0  0
  162.0790  207.8190  151.6590 C   0  0  2  0  0  3  0  0  0  0  0  0
  159.2130  212.6010  155.6870 C   0  0  0  0  0  1  0  0  0  0  0  0
  160.7850  209.0470  153.3510 C   0  0  1  0  0  3  0  0  0  0  0  0
  162.0230  205.5870  152.8300 N   0  0  0  0  0  0  0  0  0  0  0  0
  161.2130  205.7450  150.6140 N   0  0  0  0  0  2  0  0  0  0  0  0
  159.5180  211.6070  154.5870 C   0  0  2  0  0  3  0  0  0  0  0  0
  161.2220  210.1980  151.0400 C   0  0  1  0  0  3  0  0  0  0  0  0
  161.5100  209.0300  155.5810 C   0  0  0  0  0  0  0  0  0  0  0  0
  161.5720  203.5070  151.7060 C   0  0  0  0  0  1  0  0  0  0  0  0
  161.0070  211.2970  154.5930 C   0  0  0  0  0  2  0  0  0  0  0  0
  162.3850  210.5160  150.1300 C   0  0  0  0  0  3  0  0  0  0  0  0
  160.4000  212.5060  150.4390 C   0  0  0  0  0  3  0  0  0  0  0  0
  161.2750  212.5680  149.4330 C   0  0  0  0  0  3  0  0  0  0  0  0
  159.1030  212.2040  153.2480 C   0  0  0  0  0  2  0  0  0  0  0  0
  160.9610  207.5840  153.8050 C   0  0  1  0  0  3  0  0  0  0  0  0
  161.2210  209.8610  154.4760 N   0  0  0  0  0  0  0  0  0  0  0  0
  162.1070  207.0410  152.9760 C   0  0  2  0  0  3  0  0  0  0  0  0
  160.2080  207.0210  156.1050 C   0  0  0  0  0  1  0  0  0  0  0  0
  161.7140  209.2370  152.1450 C   0  0  2  0  0  3  0  0  0  0  0  0
  1 21  1  6  0  0  0
  1  6  1  0  0  0  0
  4 22  1  0  0  0  0
  4 20  2  0  0  0  0
  5 17  1  0  0  0  0
  5 27  1  1  0  0  0
  6 23  1  0  0  0  0
  8  7  1  6  0  0  0
  8  2  1  0  0  0  0
  8 10  1  0  0  0  0
  9 13  2  0  0  0  0
 10 28  1  0  0  0  0
 10 26  1  0  0  0  0
 12 24  1  0  0  0  0
 12 25  1  0  0  0  0
 13 26  1  0  0  0  0
 14  8  1  0  0  0  0
 14  9  1  0  0  0  0
 15 19  1  0  0  0  0
 15 11  1  0  0  0  0
 16  1  1  0  0  0  0
 16 28  1  0  0  0  0
 17  3  2  0  0  0  0
 18  9  1  0  0  0  0
 20 16  1  0  0  0  0
 22 21  2  0  0  0  0
 23 15  1  0  0  0  0
 24  5  1  0  0  0  0
 25 19  1  0  0  0  0
 25 17  1  0  0  0  0
 26 24  1  0  0  0  0
 28 12  1  0  0  0  0
M  END
>  <MODEL>
1

>  <REMARK>
 VINA RESULT:      -5.6      0.000      0.000
  Name = 
  0 active torsions:
  status: ('A' for Active; 'I' for Inactive)
                            x       y       z     vdW  Elec       q    Type
                         _______ _______ _______ _____ _____    ______ ____

>  <TORSDO>
F 0

$$$$
=
 OpenBabel11122414123D

 28 32  0  0  1  0  0  0  0  0999 V2000
  160.9300  209.2050  154.0190 C   0  0  1  0  0  3  0  0  0  0  0  0
  157.0560  210.6320  154.0690 F   0  0  0  0  0  0  0  0  0  0  0  0
  161.1930  213.0750  149.8700 O   0  0  0  0  0  0  0  0  0  0  0  0
  161.3490  209.7660  156.7810 C   0  0  0  0  0  3  0  0  0  0  0  0
  159.0080  213.2450  150.8860 C   0  0  2  0  0  3  0  0  0  0  0  0
  160.2250  208.5810  152.9070 N   0  0  0  0  0  2  0  0  0  0  0  0
  157.5600  211.0780  156.3300 C   0  0  0  0  0  1  0  0  0  0  0  0
  157.3600  211.6610  154.9450 C   0  0  1  0  0  0  0  0  0  0  0  0
  156.0710  213.6640  154.1180 C   0  0  0  0  0  0  0  0  0  0  0  0
  158.6360  212.4270  154.4830 C   0  0  2  0  0  3  0  0  0  0  0  0
  162.2160  208.9820  149.7260 C   0  0  0  0  0  1  0  0  0  0  0  0
  159.4460  211.3450  152.4290 C   0  0  1  0  0  3  0  0  0  0  0  0
  157.0490  214.0260  153.3500 N   0  0  0  0  0  0  0  0  0  0  0  0
  156.2190  212.5640  155.0120 N   0  0  0  0  0  2  0  0  0  0  0  0
  161.2620  209.3870  150.8290 C   0  0  2  0  0  3  0  0  0  0  0  0
  160.0330  210.2450  154.7310 C   0  0  1  0  0  3  0  0  0  0  0  0
  160.3560  212.6680  150.7200 C   0  0  0  0  0  0  0  0  0  0  0  0
  154.8120  214.4530  154.1260 C   0  0  0  0  0  1  0  0  0  0  0  0
  161.7420  210.6900  151.4500 C   0  0  0  0  0  2  0  0  0  0  0  0
  160.6430  210.6370  156.0560 C   0  0  0  0  0  3  0  0  0  0  0  0
  161.3930  208.1340  154.9760 C   0  0  0  0  0  3  0  0  0  0  0  0
  161.6230  208.4170  156.2600 C   0  0  0  0  0  3  0  0  0  0  0  0
  161.2130  208.2820  151.8760 C   0  0  0  0  0  2  0  0  0  0  0  0
  158.4320  212.4460  152.0600 C   0  0  1  0  0  3  0  0  0  0  0  0
  160.6240  211.6090  151.6160 N   0  0  0  0  0  0  0  0  0  0  0  0
  158.3370  213.3320  153.2860 C   0  0  2  0  0  3  0  0  0  0  0  0
  158.1750  212.9770  149.6460 C   0  0  0  0  0  1  0  0  0  0  0  0
  159.7580  211.5290  153.9200 C   0  0  2  0  0  3  0  0  0  0  0  0
  1 16  1  0  0  0  0
  1 21  1  1  0  0  0
  2  8  1  0  0  0  0
  3 17  2  0  0  0  0
  5 27  1  6  0  0  0
  5 24  1  0  0  0  0
  6  1  1  0  0  0  0
  8 14  1  0  0  0  0
  8  7  1  1  0  0  0
  9 18  1  0  0  0  0
  9 14  1  0  0  0  0
 10  8  1  0  0  0  0
 11 15  1  0  0  0  0
 12 28  1  0  0  0  0
 13  9  2  0  0  0  0
 15 19  1  0  0  0  0
 15 23  1  0  0  0  0
 16 20  1  0  0  0  0
 17  5  1  0  0  0  0
 17 25  1  0  0  0  0
 19 25  1  0  0  0  0
 20  4  2  0  0  0  0
 21 22  2  0  0  0  0
 22  4  1  0  0  0  0
 23  6  1  0  0  0  0
 24 12  1  0  0  0  0
 24 26  1  0  0  0  0
 25 12  1  0  0  0  0
 26 13  1  0  0  0  0
 26 10  1  0  0  0  0
 28 10  1  0  0  0  0
 28 16  1  0  0  0  0
M  END
>  <MODEL>
2

>  <REMARK>
 VINA RESULT:      -4.2      2.694      6.994
  Name = 
  0 active torsions:
  status: ('A' for Active; 'I' for Inactive)
                            x       y       z     vdW  Elec       q    Type
                         _______ _______ _______ _____ _____    ______ ____

>  <TORSDO>
F 0

$$$$
=
 OpenBabel11122414123D

 28 32  0  0  1  0  0  0  0  0999 V2000
  161.4120  204.3830  146.5800 C   0  0  1  0  0  3  0  0  0  0  0  0
  163.1840  207.1160  149.1180 F   0  0  0  0  0  0  0  0  0  0  0  0
  159.4570  202.5670  151.5950 O   0  0  0  0  0  0  0  0  0  0  0  0
  160.1730  206.4040  144.9990 C   0  0  0  0  0  3  0  0  0  0  0  0
  160.6850  204.6100  151.9890 C   0  0  2  0  0  3  0  0  0  0  0  0
  162.5600  203.7250  147.1910 N   0  0  0  0  0  2  0  0  0  0  0  0
  162.0650  208.6760  147.7460 C   0  0  0  0  0  1  0  0  0  0  0  0
  162.0960  207.9720  149.0890 C   0  0  1  0  0  0  0  0  0  0  0  0
  161.8260  208.8120  151.4510 C   0  0  0  0  0  0  0  0  0  0  0  0
  160.7680  207.1920  149.3290 C   0  0  2  0  0  3  0  0  0  0  0  0
  161.5250  200.3920  148.6260 C   0  0  0  0  0  1  0  0  0  0  0  0
  161.3430  204.8170  149.5990 C   0  0  1  0  0  3  0  0  0  0  0  0
  161.0440  207.8250  151.7540 N   0  0  0  0  0  0  0  0  0  0  0  0
  162.2810  208.9920  150.1120 N   0  0  0  0  0  2  0  0  0  0  0  0
  161.7030  201.8950  148.5900 C   0  0  2  0  0  3  0  0  0  0  0  0
  161.2000  205.7960  147.1760 C   0  0  1  0  0  3  0  0  0  0  0  0
  160.1520  203.5200  151.1500 C   0  0  0  0  0  0  0  0  0  0  0  0
  162.1830  209.8130  152.4890 C   0  0  0  0  0  1  0  0  0  0  0  0
  160.3570  202.5620  148.8240 C   0  0  0  0  0  2  0  0  0  0  0  0
  160.2330  206.5810  146.3220 C   0  0  0  0  0  3  0  0  0  0  0  0
  161.6120  204.4440  145.0860 C   0  0  0  0  0  3  0  0  0  0  0  0
  160.9960  205.3720  144.3500 C   0  0  0  0  0  3  0  0  0  0  0  0
  162.2700  202.2960  147.2350 C   0  0  0  0  0  2  0  0  0  0  0  0
  161.3930  205.5140  150.9740 C   0  0  1  0  0  3  0  0  0  0  0  0
  160.4950  203.6480  149.7850 N   0  0  0  0  0  0  0  0  0  0  0  0
  160.6130  206.8010  150.8010 C   0  0  2  0  0  3  0  0  0  0  0  0
  161.7080  204.0590  152.9640 C   0  0  0  0  0  1  0  0  0  0  0  0
  160.6940  205.8170  148.6340 C   0  0  2  0  0  3  0  0  0  0  0  0
  1 21  1  6  0  0  0
  1 16  1  0  0  0  0
  1  6  1  0  0  0  0
  4 20  2  0  0  0  0
  5 27  1  1  0  0  0
  6 23  1  0  0  0  0
  8  7  1  6  0  0  0
  8  2  1  0  0  0  0
  8 10  1  0  0  0  0
  8 14  1  0  0  0  0
  9 13  2  0  0  0  0
  9 18  1  0  0  0  0
 10 26  1  0  0  0  0
 12 25  1  0  0  0  0
 12 24  1  0  0  0  0
 14  9  1  0  0  0  0
 15 11  1  0  0  0  0
 15 19  1  0  0  0  0
 16 28  1  0  0  0  0
 17  3  2  0  0  0  0
 17  5  1  0  0  0  0
 19 25  1  0  0  0  0
 20 16  1  0  0  0  0
 22  4  1  0  0  0  0
 22 21  2  0  0  0  0
 23 15  1  0  0  0  0
 24  5  1  0  0  0  0
 25 17  1  0  0  0  0
 26 24  1  0  0  0  0
 26 13  1  0  0  0  0
 28 10  1  0  0  0  0
 28 12  1  0  0  0  0
M  END
>  <MODEL>
3

>  <REMARK>
 VINA RESULT:      -3.9      3.476      7.247
  Name = 
  0 active torsions:
  status: ('A' for Active; 'I' for Inactive)
                            x       y       z     vdW  Elec       q    Type
                         _______ _______ _______ _____ _____    ______ ____

>  <TORSDO>
F 0

$$$$
=
 OpenBabel11122414123D

 28 32  0  0  1  0  0  0  0  0999 V2000
  161.5530  205.4040  150.9020 C   0  0  1  0  0  3  0  0  0  0  0  0
  162.8400  202.0530  148.8620 F   0  0  0  0  0  0  0  0  0  0  0  0
  160.0670  206.7810  145.5950 O   0  0  0  0  0  0  0  0  0  0  0  0
  159.9310  203.8950  152.6940 C   0  0  0  0  0  3  0  0  0  0  0  0
  160.9040  204.5140  145.5520 C   0  0  2  0  0  3  0  0  0  0  0  0
  162.8140  205.7470  150.2580 N   0  0  0  0  0  2  0  0  0  0  0  0
  161.4250  200.9400  150.3880 C   0  0  0  0  0  1  0  0  0  0  0  0
  161.6130  201.4200  148.9620 C   0  0  1  0  0  0  0  0  0  0  0  0
  161.2390  200.3020  146.7330 C   0  0  0  0  0  0  0  0  0  0  0  0
  160.4560  202.3820  148.5520 C   0  0  2  0  0  3  0  0  0  0  0  0
  162.4420  208.9630  148.3190 C   0  0  0  0  0  1  0  0  0  0  0  0
  161.4650  204.5490  147.9750 C   0  0  1  0  0  3  0  0  0  0  0  0
  160.6590  201.3590  146.2560 N   0  0  0  0  0  0  0  0  0  0  0  0
  161.6260  200.2440  148.1030 N   0  0  0  0  0  2  0  0  0  0  0  0
  162.3390  207.4750  148.5760 C   0  0  2  0  0  3  0  0  0  0  0  0
  161.0960  203.9810  150.5040 C   0  0  1  0  0  3  0  0  0  0  0  0
  160.5650  205.7950  146.2030 C   0  0  0  0  0  0  0  0  0  0  0  0
  161.4260  199.1110  145.8650 C   0  0  0  0  0  1  0  0  0  0  0  0
  160.8970  207.0330  148.3770 C   0  0  0  0  0  2  0  0  0  0  0  0
  159.9840  203.5170  151.4140 C   0  0  0  0  0  3  0  0  0  0  0  0
  161.7080  205.5300  152.3980 C   0  0  0  0  0  3  0  0  0  0  0  0
  160.9170  204.8470  153.2280 C   0  0  0  0  0  3  0  0  0  0  0  0
  162.7950  207.1830  149.9990 C   0  0  0  0  0  2  0  0  0  0  0  0
  161.4130  203.6590  146.7170 C   0  0  1  0  0  3  0  0  0  0  0  0
  160.8510  205.8110  147.5860 N   0  0  0  0  0  0  0  0  0  0  0  0
  160.4060  202.5720  147.0340 C   0  0  2  0  0  3  0  0  0  0  0  0
  162.0310  204.7220  144.5580 C   0  0  0  0  0  1  0  0  0  0  0  0
  160.6230  203.8360  149.0410 C   0  0  2  0  0  3  0  0  0  0  0  0
  1 21  1  1  0  0  0
  2  8  1  0  0  0  0
  3 17  2  0  0  0  0
  4 22  1  0  0  0  0
  5 27  1  6  0  0  0
  5 17  1  0  0  0  0
  5 24  1  0  0  0  0
  6  1  1  0  0  0  0
  8  7  1  1  0  0  0
  9 14  1  0  0  0  0
 10  8  1  0  0  0  0
 10 28  1  0  0  0  0
 11 15  1  0  0  0  0
 12 28  1  0  0  0  0
 13  9  2  0  0  0  0
 13 26  1  0  0  0  0
 14  8  1  0  0  0  0
 15 23  1  0  0  0  0
 16  1  1  0  0  0  0
 16 20  1  0  0  0  0
 17 25  1  0  0  0  0
 18  9  1  0  0  0  0
 19 15  1  0  0  0  0
 20  4  2  0  0  0  0
 21 22  2  0  0  0  0
 23  6  1  0  0  0  0
 24 26  1  0  0  0  0
 24 12  1  0  0  0  0
 25 12  1  0  0  0  0
 25 19  1  0  0  0  0
 26 10  1  0  0  0  0
 28 16  1  0  0  0  0
M  END
>  <MODEL>
4

>  <REMARK>
 VINA RESULT:      -3.8      4.793      7.923
  Name = 
  0 active torsions:
  status: ('A' for Active; 'I' for Inactive)
                            x       y       z     vdW  Elec       q    Type
                         _______ _______ _______ _____ _____    ______ ____

>  <TORSDO>
F 0

$$$$
=
 OpenBabel11122414123D

 28 32  0  0  1  0  0  0  0  0999 V2000
  161.2000  207.5360  154.6740 C   0  0  1  0  0  3  0  0  0  0  0  0
  159.1940  210.3970  152.4750 F   0  0  0  0  0  0  0  0  0  0  0  0
  163.5580  206.7640  149.5640 O   0  0  0  0  0  0  0  0  0  0  0  0
  162.1130  209.4200  156.6070 C   0  0  0  0  0  3  0  0  0  0  0  0
  162.0970  208.6820  149.4100 C   0  0  2  0  0  3  0  0  0  0  0  0
  160.1680  206.8480  153.9080 N   0  0  0  0  0  2  0  0  0  0  0  0
  160.0540  211.8480  154.1260 C   0  0  0  0  0  1  0  0  0  0  0  0
  160.1630  211.3620  152.6940 C   0  0  1  0  0  0  0  0  0  0  0  0
  160.4150  212.5840  150.5030 C   0  0  0  0  0  0  0  0  0  0  0  0
  161.5880  210.7920  152.4160 C   0  0  2  0  0  3  0  0  0  0  0  0
  161.6700  203.9240  152.0540 C   0  0  0  0  0  1  0  0  0  0  0  0
  161.3290  208.4360  151.7620 C   0  0  1  0  0  3  0  0  0  0  0  0
  161.3260  211.7560  150.1000 N   0  0  0  0  0  0  0  0  0  0  0  0
  159.8910  212.4990  151.8250 N   0  0  0  0  0  2  0  0  0  0  0  0
  161.3020  205.3720  152.3030 C   0  0  2  0  0  3  0  0  0  0  0  0
  161.2540  209.0380  154.3090 C   0  0  1  0  0  3  0  0  0  0  0  0
  162.7310  207.5460  150.1060 C   0  0  0  0  0  0  0  0  0  0  0  0
  159.9740  213.6840  149.6070 C   0  0  0  0  0  1  0  0  0  0  0  0
  162.5610  206.2230  152.2480 C   0  0  0  0  0  2  0  0  0  0  0  0
  162.0810  209.7910  155.3240 C   0  0  0  0  0  3  0  0  0  0  0  0
  160.9380  207.3390  156.1470 C   0  0  0  0  0  3  0  0  0  0  0  0
  161.4030  208.2090  157.0470 C   0  0  0  0  0  3  0  0  0  0  0  0
  160.6370  205.4880  153.6690 C   0  0  0  0  0  2  0  0  0  0  0  0
  161.2430  209.3270  150.5060 C   0  0  1  0  0  3  0  0  0  0  0  0
  162.3240  207.4200  151.4530 N   0  0  0  0  0  0  0  0  0  0  0  0
  161.8470  210.6560  150.9140 C   0  0  2  0  0  3  0  0  0  0  0  0
  161.1900  208.1710  148.3070 C   0  0  0  0  0  1  0  0  0  0  0  0
  161.8090  209.3450  152.9010 C   0  0  2  0  0  3  0  0  0  0  0  0
  1 21  1  1  0  0  0
  2  8  1  0  0  0  0
  3 17  2  0  0  0  0
  4 22  1  0  0  0  0
  5 27  1  6  0  0  0
  5 17  1  0  0  0  0
  5 24  1  0  0  0  0
  6  1  1  0  0  0  0
  8  7  1  1  0  0  0
  9 14  1  0  0  0  0
 10  8  1  0  0  0  0
 10 28  1  0  0  0  0
 11 15  1  0  0  0  0
 12 28  1  0  0  0  0
 13  9  2  0  0  0  0
 13 26  1  0  0  0  0
 14  8  1  0  0  0  0
 15 23  1  0  0  0  0
 16  1  1  0  0  0  0
 16 20  1  0  0  0  0
 17 25  1  0  0  0  0
 18  9  1  0  0  0  0
 19 15  1  0  0  0  0
 20  4  2  0  0  0  0
 21 22  2  0  0  0  0
 23  6  1  0  0  0  0
 24 26  1  0  0  0  0
 24 12  1  0  0  0  0
 25 12  1  0  0  0  0
 25 19  1  0  0  0  0
 26 10  1  0  0  0  0
 28 16  1  0  0  0  0
M  END
>  <MODEL>
5

>  <REMARK>
 VINA RESULT:      -3.8      2.099      6.275
  Name = 
  0 active torsions:
  status: ('A' for Active; 'I' for Inactive)
                            x       y       z     vdW  Elec       q    Type
                         _______ _______ _______ _____ _____    ______ ____

>  <TORSDO>
F 0

$$$$
=
 OpenBabel11122414123D

 28 32  0  0  1  0  0  0  0  0999 V2000
  161.0620  205.0620  149.9530 C   0  0  1  0  0  3  0  0  0  0  0  0
  159.7060  207.9310  152.5940 F   0  0  0  0  0  0  0  0  0  0  0  0
  163.3970  209.7290  147.7100 O   0  0  0  0  0  0  0  0  0  0  0  0
  162.2510  203.4900  152.0110 C   0  0  0  0  0  3  0  0  0  0  0  0
  162.3310  210.3710  149.7810 C   0  0  2  0  0  3  0  0  0  0  0  0
  159.9450  205.7450  149.3140 N   0  0  0  0  0  2  0  0  0  0  0  0
  160.7700  206.5500  154.1850 C   0  0  0  0  0  1  0  0  0  0  0  0
  160.8320  207.8430  153.3950 C   0  0  1  0  0  0  0  0  0  0  0  0
  161.3820  210.2120  154.0610 C   0  0  0  0  0  0  0  0  0  0  0  0
  162.1310  207.8980  152.5360 C   0  0  2  0  0  3  0  0  0  0  0  0
  160.9260  206.8580  145.8440 C   0  0  0  0  0  1  0  0  0  0  0  0
  161.4530  208.0790  150.1790 C   0  0  1  0  0  3  0  0  0  0  0  0
  162.1320  210.3730  153.0180 N   0  0  0  0  0  0  0  0  0  0  0  0
  160.8070  208.9410  154.3520 N   0  0  0  0  0  2  0  0  0  0  0  0
  160.8300  206.9340  147.3530 C   0  0  2  0  0  3  0  0  0  0  0  0
  161.4100  205.7180  151.3100 C   0  0  1  0  0  3  0  0  0  0  0  0
  162.7160  209.4160  148.7240 C   0  0  0  0  0  0  0  0  0  0  0  0
  161.1850  211.3410  155.0070 C   0  0  0  0  0  1  0  0  0  0  0  0
  162.2290  207.0690  147.9360 C   0  0  0  0  0  2  0  0  0  0  0  0
  162.3310  204.8200  152.1020 C   0  0  0  0  0  3  0  0  0  0  0  0
  160.7190  203.6020  150.1230 C   0  0  0  0  0  3  0  0  0  0  0  0
  161.3100  202.8660  151.0670 C   0  0  0  0  0  3  0  0  0  0  0  0
  160.1560  205.6710  147.8720 C   0  0  0  0  0  2  0  0  0  0  0  0
  161.5790  209.4920  150.7850 C   0  0  1  0  0  3  0  0  0  0  0  0
  162.2480  208.1040  148.9600 N   0  0  0  0  0  0  0  0  0  0  0  0
  162.4090  209.3190  152.0400 C   0  0  2  0  0  3  0  0  0  0  0  0
  161.3800  211.4100  149.2180 C   0  0  0  0  0  1  0  0  0  0  0  0
  162.0590  207.1150  151.2080 C   0  0  2  0  0  3  0  0  0  0  0  0
  1 21  1  1  0  0  0
  1 16  1  0  0  0  0
  2  8  1  0  0  0  0
  3 17  2  0  0  0  0
  4 20  2  0  0  0  0
  5 27  1  6  0  0  0
  5 24  1  0  0  0  0
  6  1  1  0  0  0  0
  8  7  1  1  0  0  0
  8 14  1  0  0  0  0
  9 14  1  0  0  0  0
  9 18  1  0  0  0  0
 10  8  1  0  0  0  0
 11 15  1  0  0  0  0
 12 24  1  0  0  0  0
 12 28  1  0  0  0  0
 13  9  2  0  0  0  0
 15 23  1  0  0  0  0
 15 19  1  0  0  0  0
 16 20  1  0  0  0  0
 17 25  1  0  0  0  0
 17  5  1  0  0  0  0
 19 25  1  0  0  0  0
 21 22  2  0  0  0  0
 22  4  1  0  0  0  0
 23  6  1  0  0  0  0
 24 26  1  0  0  0  0
 25 12  1  0  0  0  0
 26 10  1  0  0  0  0
 26 13  1  0  0  0  0
 28 16  1  0  0  0  0
 28 10  1  0  0  0  0
M  END
>  <MODEL>
6

>  <REMARK>
 VINA RESULT:      -2.6      2.411      6.637
  Name = 
  0 active torsions:
  status: ('A' for Active; 'I' for Inactive)
                            x       y       z     vdW  Elec       q    Type
                         _______ _______ _______ _____ _____    ______ ____

>  <TORSDO>
F 0

$$$$
