=
 OpenBabel11122412383D

 30 35  0  0  1  0  0  0  0  0999 V2000
  161.4260  208.4950  151.8720 C   0  0  0  0  0  0  0  0  0  0  0  0
  161.0910  209.3690  154.2160 C   0  0  0  0  0  0  0  0  0  0  0  0
  160.8260  204.6240  153.1330 N   0  0  0  0  0  2  0  0  0  0  0  0
  161.4390  207.3930  150.9690 C   0  0  0  0  0  0  0  0  0  0  0  0
  161.7030  209.8020  151.3600 N   0  0  0  0  0  2  0  0  0  0  0  0
  162.1510  209.1470  147.8560 O   0  0  0  0  0  0  0  0  0  0  0  0
  162.1550  205.4790  148.5770 C   0  0  1  0  0  3  0  0  0  0  0  0
  161.9120  208.9500  149.0800 C   0  0  0  0  0  0  0  0  0  0  0  0
  161.8770  204.4240  149.6340 C   0  0  2  0  0  3  0  0  0  0  0  0
  161.0580  204.0220  151.9490 C   0  0  0  0  0  0  0  0  0  0  0  0
  161.9770  210.0340  150.0070 N   0  0  0  0  0  0  0  0  0  0  0  0
  161.5580  207.6410  149.5500 N   0  0  0  0  0  0  0  0  0  0  0  0
  160.8000  209.0940  155.5560 C   0  0  0  0  0  3  0  0  0  0  0  0
  161.0060  203.3880  148.9540 C   0  0  0  0  0  2  0  0  0  0  0  0
  162.0920  204.7440  147.2470 C   0  0  0  0  0  2  0  0  0  0  0  0
  161.3610  211.0700  153.8490 Cl  0  0  0  0  0  0  0  0  0  0  0  0
  160.9640  205.9270  152.8350 C   0  0  0  0  0  0  0  0  0  0  0  0
  160.5620  207.7950  155.9890 C   0  0  0  0  0  3  0  0  0  0  0  0
  161.1440  208.3060  153.2650 C   0  0  0  0  0  0  0  0  0  0  0  0
  161.2540  206.1000  151.5060 C   0  0  0  0  0  0  0  0  0  0  0  0
  161.0750  202.7680  151.8280 O   0  0  0  0  0  0  0  0  0  0  0  0
  161.3160  204.8750  150.9210 N   0  0  0  0  0  0  0  0  0  0  0  0
  161.4600  203.3850  147.5090 C   0  0  0  0  0  2  0  0  0  0  0  0
  159.7030  206.2910  148.6270 C   0  0  0  0  0  1  0  0  0  0  0  0
  160.6100  206.7430  155.0820 C   0  0  0  0  0  3  0  0  0  0  0  0
  160.8940  206.9850  153.7340 C   0  0  0  0  0  0  0  0  0  0  0  0
  161.1850  206.6500  148.5530 C   0  0  2  0  0  3  0  0  0  0  0  0
  162.3510  211.3720  149.5770 C   0  0  0  0  0  2  0  0  0  0  0  0
  161.3030  212.6160  147.9110 C   0  0  0  0  0  1  0  0  0  0  0  0
  161.1570  212.1390  149.2730 N   0  0  0  0  0  2  0  0  0  0  0  0
  1 19  1  0  0  0  0
  2 13  1  0  0  0  0
  4 20  1  0  0  0  0
  4  1  2  0  0  0  0
  5  1  1  0  0  0  0
  6  8  2  0  0  0  0
  7 15  1  6  0  0  0
  7  9  1  0  0  0  0
  8 12  1  0  0  0  0
  8 11  1  0  0  0  0
  9 14  1  6  0  0  0
  9 22  1  0  0  0  0
 10  3  1  0  0  0  0
 11  5  1  0  0  0  0
 12  4  1  0  0  0  0
 13 18  2  0  0  0  0
 15 23  1  0  0  0  0
 16  2  1  0  0  0  0
 17  3  1  0  0  0  0
 17 26  1  0  0  0  0
 19 26  1  0  0  0  0
 19  2  2  0  0  0  0
 20 17  2  0  0  0  0
 21 10  2  0  0  0  0
 22 20  1  0  0  0  0
 22 10  1  0  0  0  0
 23 14  1  0  0  0  0
 25 18  1  0  0  0  0
 26 25  2  0  0  0  0
 27  7  1  0  0  0  0
 27 24  1  1  0  0  0
 27 12  1  0  0  0  0
 28 11  1  0  0  0  0
 29 30  1  0  0  0  0
 30 28  1  0  0  0  0
M  END
>  <MODEL>
1

>  <REMARK>
 VINA RESULT:      -7.7      0.000      0.000
  Name = 
  2 active torsions:
  status: ('A' for Active; 'I' for Inactive)
    1  A    between atoms: N_11  and  C_28
    2  A    between atoms: C_28  and  N_30
                            x       y       z     vdW  Elec       q    Type
                         _______ _______ _______ _____ _____    ______ ____

>  <TORSDO>
F 2

$$$$
=
 OpenBabel11122412383D

 30 35  0  0  1  0  0  0  0  0999 V2000
  161.0120  204.6940  148.7460 C   0  0  0  0  0  0  0  0  0  0  0  0
  160.9410  202.2250  148.2280 C   0  0  0  0  0  0  0  0  0  0  0  0
  161.1020  203.9340  152.7890 N   0  0  0  0  0  2  0  0  0  0  0  0
  161.1030  205.7390  149.7120 C   0  0  0  0  0  0  0  0  0  0  0  0
  160.9250  205.0480  147.3620 N   0  0  0  0  0  2  0  0  0  0  0  0
  161.1250  208.6330  147.4990 O   0  0  0  0  0  0  0  0  0  0  0  0
  160.7430  208.4790  151.2150 C   0  0  1  0  0  3  0  0  0  0  0  0
  161.1080  207.4290  147.8790 C   0  0  0  0  0  0  0  0  0  0  0  0
  160.7400  207.5570  152.4230 C   0  0  2  0  0  3  0  0  0  0  0  0
  161.0660  205.2170  153.2040 C   0  0  0  0  0  0  0  0  0  0  0  0
  160.9350  206.3790  146.9270 N   0  0  0  0  0  0  0  0  0  0  0  0
  161.2790  207.1020  149.2660 N   0  0  0  0  0  0  0  0  0  0  0  0
  160.9470  200.9100  148.7050 C   0  0  0  0  0  3  0  0  0  0  0  0
  161.6580  208.2130  153.4340 C   0  0  0  0  0  2  0  0  0  0  0  0
  161.0150  209.8690  151.7690 C   0  0  0  0  0  2  0  0  0  0  0  0
  160.8580  202.3790  146.4760 Cl  0  0  0  0  0  0  0  0  0  0  0  0
  161.1100  204.0560  151.4520 C   0  0  0  0  0  0  0  0  0  0  0  0
  161.0120  200.6390  150.0670 C   0  0  0  0  0  3  0  0  0  0  0  0
  161.0050  203.3170  149.1450 C   0  0  0  0  0  0  0  0  0  0  0  0
  161.0950  205.3740  151.0760 C   0  0  0  0  0  0  0  0  0  0  0  0
  160.9920  205.5240  154.4240 O   0  0  0  0  0  0  0  0  0  0  0  0
  161.0690  206.1360  152.2020 N   0  0  0  0  0  0  0  0  0  0  0  0
  161.4950  209.7000  153.2020 C   0  0  0  0  0  2  0  0  0  0  0  0
  163.1860  207.8600  150.6460 C   0  0  0  0  0  1  0  0  0  0  0  0
  161.0720  201.6860  150.9790 C   0  0  0  0  0  3  0  0  0  0  0  0
  161.0720  203.0120  150.5340 C   0  0  0  0  0  0  0  0  0  0  0  0
  161.7730  208.1500  150.1460 C   0  0  2  0  0  3  0  0  0  0  0  0
  160.7390  206.6660  145.5160 C   0  0  0  0  0  2  0  0  0  0  0  0
  161.3930  205.4420  143.6460 C   0  0  0  0  0  1  0  0  0  0  0  0
  160.5060  205.4280  144.7940 N   0  0  0  0  0  2  0  0  0  0  0  0
  1 19  2  0  0  0  0
  1  4  1  0  0  0  0
  2 13  2  0  0  0  0
  2 19  1  0  0  0  0
  3 10  1  0  0  0  0
  4 20  2  0  0  0  0
  5  1  1  0  0  0  0
  6  8  2  0  0  0  0
  7 15  1  1  0  0  0
  7  9  1  0  0  0  0
  8 12  1  0  0  0  0
  9 14  1  1  0  0  0
 10 21  2  0  0  0  0
 11  5  1  0  0  0  0
 11  8  1  0  0  0  0
 12  4  1  0  0  0  0
 12 27  1  0  0  0  0
 13 18  1  0  0  0  0
 15 23  1  0  0  0  0
 16  2  1  0  0  0  0
 17  3  1  0  0  0  0
 18 25  2  0  0  0  0
 19 26  1  0  0  0  0
 20 17  1  0  0  0  0
 20 22  1  0  0  0  0
 22  9  1  0  0  0  0
 22 10  1  0  0  0  0
 23 14  1  0  0  0  0
 26 25  1  0  0  0  0
 26 17  2  0  0  0  0
 27 24  1  1  0  0  0
 27  7  1  0  0  0  0
 28 11  1  0  0  0  0
 29 30  1  0  0  0  0
 30 28  1  0  0  0  0
M  END
>  <MODEL>
2

>  <REMARK>
 VINA RESULT:      -7.2      3.008      5.929
  Name = 
  2 active torsions:
  status: ('A' for Active; 'I' for Inactive)
    1  A    between atoms: N_11  and  C_28
    2  A    between atoms: C_28  and  N_30
                            x       y       z     vdW  Elec       q    Type
                         _______ _______ _______ _____ _____    ______ ____

>  <TORSDO>
F 2

$$$$
=
 OpenBabel11122412383D

 30 35  0  0  1  0  0  0  0  0999 V2000
  161.2830  207.9220  151.1840 C   0  0  0  0  0  0  0  0  0  0  0  0
  161.5200  205.6790  150.0520 C   0  0  0  0  0  0  0  0  0  0  0  0
  160.5120  206.1150  154.8000 N   0  0  0  0  0  2  0  0  0  0  0  0
  161.0730  208.6730  152.3770 C   0  0  0  0  0  0  0  0  0  0  0  0
  161.4860  208.6300  149.9570 N   0  0  0  0  0  2  0  0  0  0  0  0
  161.3750  212.0510  151.0480 O   0  0  0  0  0  0  0  0  0  0  0  0
  160.1730  210.9090  154.3980 C   0  0  1  0  0  3  0  0  0  0  0  0
  161.3640  210.7900  151.0930 C   0  0  0  0  0  0  0  0  0  0  0  0
  159.9670  209.7000  155.2940 C   0  0  2  0  0  3  0  0  0  0  0  0
  160.2840  207.2410  155.5070 C   0  0  0  0  0  0  0  0  0  0  0  0
  161.4920  210.0290  149.8920 N   0  0  0  0  0  0  0  0  0  0  0  0
  161.2400  210.1080  152.3500 N   0  0  0  0  0  0  0  0  0  0  0  0
  161.5190  204.2850  150.1650 C   0  0  0  0  0  3  0  0  0  0  0  0
  160.5790  210.0750  156.6290 C   0  0  0  0  0  2  0  0  0  0  0  0
  160.2050  212.1060  155.3370 C   0  0  0  0  0  2  0  0  0  0  0  0
  161.8260  206.2920  148.4300 Cl  0  0  0  0  0  0  0  0  0  0  0  0
  160.8140  206.5880  153.5800 C   0  0  0  0  0  0  0  0  0  0  0  0
  161.2930  203.6620  151.3870 C   0  0  0  0  0  3  0  0  0  0  0  0
  161.2910  206.4890  151.2050 C   0  0  0  0  0  0  0  0  0  0  0  0
  160.7840  207.9590  153.5610 C   0  0  0  0  0  0  0  0  0  0  0  0
  159.9120  207.2110  156.7100 O   0  0  0  0  0  0  0  0  0  0  0  0
  160.4450  208.3940  154.8040 N   0  0  0  0  0  0  0  0  0  0  0  0
  160.3590  211.5680  156.7520 C   0  0  0  0  0  2  0  0  0  0  0  0
  162.7210  210.4980  154.2910 C   0  0  0  0  0  1  0  0  0  0  0  0
  161.0650  204.4290  152.5230 C   0  0  0  0  0  3  0  0  0  0  0  0
  161.0650  205.8260  152.4440 C   0  0  0  0  0  0  0  0  0  0  0  0
  161.4410  210.8910  153.5590 C   0  0  2  0  0  3  0  0  0  0  0  0
  161.6000  210.6780  148.5960 C   0  0  0  0  0  2  0  0  0  0  0  0
  162.6730  212.5490  147.7160 C   0  0  0  0  0  1  0  0  0  0  0  0
  162.8890  211.3380  148.4870 N   0  0  0  0  0  2  0  0  0  0  0  0
  1 19  2  0  0  0  0
  1  4  1  0  0  0  0
  2 13  2  0  0  0  0
  2 19  1  0  0  0  0
  3 10  1  0  0  0  0
  4 20  2  0  0  0  0
  5  1  1  0  0  0  0
  6  8  2  0  0  0  0
  7  9  1  0  0  0  0
  7 15  1  1  0  0  0
  8 12  1  0  0  0  0
  9 14  1  1  0  0  0
 10 21  2  0  0  0  0
 11  5  1  0  0  0  0
 11  8  1  0  0  0  0
 12  4  1  0  0  0  0
 12 27  1  0  0  0  0
 13 18  1  0  0  0  0
 14 23  1  0  0  0  0
 15 23  1  0  0  0  0
 16  2  1  0  0  0  0
 17  3  1  0  0  0  0
 18 25  2  0  0  0  0
 19 26  1  0  0  0  0
 20 17  1  0  0  0  0
 20 22  1  0  0  0  0
 22  9  1  0  0  0  0
 22 10  1  0  0  0  0
 26 25  1  0  0  0  0
 26 17  2  0  0  0  0
 27 24  1  1  0  0  0
 27  7  1  0  0  0  0
 28 11  1  0  0  0  0
 29 30  1  0  0  0  0
 30 28  1  0  0  0  0
M  END
>  <MODEL>
3

>  <REMARK>
 VINA RESULT:      -6.2      2.513      5.714
  Name = 
  2 active torsions:
  status: ('A' for Active; 'I' for Inactive)
    1  A    between atoms: N_11  and  C_28
    2  A    between atoms: C_28  and  N_30
                            x       y       z     vdW  Elec       q    Type
                         _______ _______ _______ _____ _____    ______ ____

>  <TORSDO>
F 2

$$$$
=
 OpenBabel11122412383D

 30 35  0  0  1  0  0  0  0  0999 V2000
  161.3260  207.9460  151.5560 C   0  0  0  0  0  0  0  0  0  0  0  0
  161.7280  210.3830  151.0350 C   0  0  0  0  0  0  0  0  0  0  0  0
  161.6690  206.9480  147.5780 N   0  0  0  0  0  2  0  0  0  0  0  0
  161.2350  206.5980  151.1020 C   0  0  0  0  0  0  0  0  0  0  0  0
  161.1350  208.2130  152.9480 N   0  0  0  0  0  2  0  0  0  0  0  0
  160.6310  204.9120  154.2740 O   0  0  0  0  0  0  0  0  0  0  0  0
  160.3830  203.5860  150.7880 C   0  0  1  0  0  3  0  0  0  0  0  0
  160.8600  205.8370  153.4460 C   0  0  0  0  0  0  0  0  0  0  0  0
  160.5930  203.9150  149.3200 C   0  0  2  0  0  3  0  0  0  0  0  0
  161.3920  205.6350  147.7080 C   0  0  0  0  0  0  0  0  0  0  0  0
  160.8720  207.1980  153.8770 N   0  0  0  0  0  0  0  0  0  0  0  0
  161.1280  205.5300  152.0700 N   0  0  0  0  0  0  0  0  0  0  0  0
  162.0050  211.3630  150.0770 C   0  0  0  0  0  3  0  0  0  0  0  0
  161.3910  202.7570  148.7550 C   0  0  0  0  0  2  0  0  0  0  0  0
  160.3910  202.0670  150.8660 C   0  0  0  0  0  2  0  0  0  0  0  0
  161.5720  210.9800  152.6840 Cl  0  0  0  0  0  0  0  0  0  0  0  0
  161.6180  207.3880  148.8460 C   0  0  0  0  0  0  0  0  0  0  0  0
  162.1570  211.0350  148.7350 C   0  0  0  0  0  3  0  0  0  0  0  0
  161.6000  209.0160  150.6430 C   0  0  0  0  0  0  0  0  0  0  0  0
  161.3350  206.3640  149.7130 C   0  0  0  0  0  0  0  0  0  0  0  0
  161.2910  204.8700  146.7120 O   0  0  0  0  0  0  0  0  0  0  0  0
  161.1890  205.2230  148.9880 N   0  0  0  0  0  0  0  0  0  0  0  0
  160.9320  201.5480  149.5430 C   0  0  0  0  0  2  0  0  0  0  0  0
  162.8850  203.9630  151.3140 C   0  0  0  0  0  1  0  0  0  0  0  0
  162.0340  209.7110  148.3270 C   0  0  0  0  0  3  0  0  0  0  0  0
  161.7620  208.7070  149.2620 C   0  0  0  0  0  0  0  0  0  0  0  0
  161.4290  204.1470  151.7380 C   0  0  2  0  0  3  0  0  0  0  0  0
  160.5870  207.5550  155.2560 C   0  0  0  0  0  2  0  0  0  0  0  0
  161.9340  208.6300  156.8230 C   0  0  0  0  0  1  0  0  0  0  0  0
  161.2210  208.8220  155.5740 N   0  0  0  0  0  2  0  0  0  0  0  0
  1  5  1  0  0  0  0
  2 16  1  0  0  0  0
  3 10  1  0  0  0  0
  3 17  1  0  0  0  0
  4  1  1  0  0  0  0
  4 12  1  0  0  0  0
  5 11  1  0  0  0  0
  7 15  1  6  0  0  0
  7 27  1  0  0  0  0
  8 11  1  0  0  0  0
  8  6  2  0  0  0  0
  9 14  1  1  0  0  0
  9  7  1  0  0  0  0
 10 22  1  0  0  0  0
 11 28  1  0  0  0  0
 12  8  1  0  0  0  0
 13  2  2  0  0  0  0
 14 23  1  0  0  0  0
 17 26  2  0  0  0  0
 17 20  1  0  0  0  0
 18 13  1  0  0  0  0
 19  2  1  0  0  0  0
 19  1  2  0  0  0  0
 20  4  2  0  0  0  0
 21 10  2  0  0  0  0
 22  9  1  0  0  0  0
 22 20  1  0  0  0  0
 23 15  1  0  0  0  0
 25 18  2  0  0  0  0
 25 26  1  0  0  0  0
 26 19  1  0  0  0  0
 27 24  1  6  0  0  0
 27 12  1  0  0  0  0
 28 30  1  0  0  0  0
 30 29  1  0  0  0  0
M  END
>  <MODEL>
4

>  <REMARK>
 VINA RESULT:      -5.9      1.993      4.935
  Name = 
  2 active torsions:
  status: ('A' for Active; 'I' for Inactive)
    1  A    between atoms: N_11  and  C_28
    2  A    between atoms: C_28  and  N_30
                            x       y       z     vdW  Elec       q    Type
                         _______ _______ _______ _____ _____    ______ ____

>  <TORSDO>
F 2

$$$$
=
 OpenBabel11122412383D

 30 35  0  0  1  0  0  0  0  0999 V2000
  160.2070  211.9340  151.9330 C   0  0  0  0  0  0  0  0  0  0  0  0
  160.7880  212.9260  149.6870 C   0  0  0  0  0  0  0  0  0  0  0  0
  162.2240  208.4650  151.0230 N   0  0  0  0  0  2  0  0  0  0  0  0
  160.3230  210.8590  152.8620 C   0  0  0  0  0  0  0  0  0  0  0  0
  159.4380  213.0810  152.3080 N   0  0  0  0  0  2  0  0  0  0  0  0
  158.4220  212.2340  155.6480 O   0  0  0  0  0  0  0  0  0  0  0  0
  159.6950  208.7590  155.1190 C   0  0  1  0  0  3  0  0  0  0  0  0
  158.9810  212.1490  154.5200 C   0  0  0  0  0  0  0  0  0  0  0  0
  160.5130  207.8660  154.2010 C   0  0  2  0  0  3  0  0  0  0  0  0
  161.9220  207.7910  152.1510 C   0  0  0  0  0  0  0  0  0  0  0  0
  158.8050  213.1850  153.5530 N   0  0  0  0  0  0  0  0  0  0  0  0
  159.8140  211.0240  154.2040 N   0  0  0  0  0  0  0  0  0  0  0  0
  161.4460  212.7870  148.4600 C   0  0  0  0  0  3  0  0  0  0  0  0
  161.4780  207.1300  155.1080 C   0  0  0  0  0  2  0  0  0  0  0  0
  159.6720  208.0460  156.4620 C   0  0  0  0  0  2  0  0  0  0  0  0
  159.9390  214.4530  149.9030 Cl  0  0  0  0  0  0  0  0  0  0  0  0
  161.6340  209.6550  151.2210 C   0  0  0  0  0  0  0  0  0  0  0  0
  162.1600  211.6340  148.1540 C   0  0  0  0  0  3  0  0  0  0  0  0
  160.8440  211.8750  150.6500 C   0  0  0  0  0  0  0  0  0  0  0  0
  161.0090  209.6990  152.4410 C   0  0  0  0  0  0  0  0  0  0  0  0
  162.2590  206.5900  152.3240 O   0  0  0  0  0  0  0  0  0  0  0  0
  161.1900  208.4990  153.0540 N   0  0  0  0  0  0  0  0  0  0  0  0
  160.7290  206.9530  156.4120 C   0  0  0  0  0  2  0  0  0  0  0  0
  161.7290  210.2840  155.5830 C   0  0  0  0  0  1  0  0  0  0  0  0
  162.2270  210.5950  149.0750 C   0  0  0  0  0  3  0  0  0  0  0  0
  161.5820  210.7060  150.3120 C   0  0  0  0  0  0  0  0  0  0  0  0
  160.2320  210.1700  155.3050 C   0  0  2  0  0  3  0  0  0  0  0  0
  157.9550  214.3320  153.8230 C   0  0  0  0  0  2  0  0  0  0  0  0
  155.6570  214.3550  154.2020 C   0  0  0  0  0  1  0  0  0  0  0  0
  156.6660  214.1470  153.1800 N   0  0  0  0  0  2  0  0  0  0  0  0
  1  5  1  0  0  0  0
  1  4  1  0  0  0  0
  2 16  1  0  0  0  0
  2 19  1  0  0  0  0
  3 17  1  0  0  0  0
  3 10  1  0  0  0  0
  4 12  1  0  0  0  0
  5 11  1  0  0  0  0
  7 27  1  0  0  0  0
  7 15  1  1  0  0  0
  8  6  2  0  0  0  0
  9 14  1  1  0  0  0
  9  7  1  0  0  0  0
 10 21  2  0  0  0  0
 10 22  1  0  0  0  0
 11 28  1  0  0  0  0
 11  8  1  0  0  0  0
 12  8  1  0  0  0  0
 12 27  1  0  0  0  0
 13  2  2  0  0  0  0
 14 23  1  0  0  0  0
 17 20  1  0  0  0  0
 18 13  1  0  0  0  0
 18 25  2  0  0  0  0
 19  1  2  0  0  0  0
 20  4  2  0  0  0  0
 20 22  1  0  0  0  0
 22  9  1  0  0  0  0
 23 15  1  0  0  0  0
 25 26  1  0  0  0  0
 26 19  1  0  0  0  0
 26 17  2  0  0  0  0
 27 24  1  6  0  0  0
 30 28  1  0  0  0  0
 30 29  1  0  0  0  0
M  END
>  <MODEL>
5

>  <REMARK>
 VINA RESULT:      -5.3      3.506      6.536
  Name = 
  2 active torsions:
  status: ('A' for Active; 'I' for Inactive)
    1  A    between atoms: N_11  and  C_28
    2  A    between atoms: C_28  and  N_30
                            x       y       z     vdW  Elec       q    Type
                         _______ _______ _______ _____ _____    ______ ____

>  <TORSDO>
F 2

$$$$
=
 OpenBabel11122412383D

 30 35  0  0  1  0  0  0  0  0999 V2000
  161.3850  206.0950  150.3130 C   0  0  0  0  0  0  0  0  0  0  0  0
  161.0860  205.2920  152.6870 C   0  0  0  0  0  0  0  0  0  0  0  0
  160.9210  202.2710  148.8670 N   0  0  0  0  0  2  0  0  0  0  0  0
  161.4040  205.8050  148.9180 C   0  0  0  0  0  0  0  0  0  0  0  0
  161.6130  207.4430  150.7350 N   0  0  0  0  0  2  0  0  0  0  0  0
  161.9890  209.1480  147.5950 O   0  0  0  0  0  0  0  0  0  0  0  0
  162.1100  205.8430  145.8530 C   0  0  1  0  0  3  0  0  0  0  0  0
  161.7870  208.2190  148.4240 C   0  0  0  0  0  0  0  0  0  0  0  0
  161.8880  204.3490  146.0140 C   0  0  2  0  0  3  0  0  0  0  0  0
  161.1400  202.5530  147.5660 C   0  0  0  0  0  0  0  0  0  0  0  0
  161.8460  208.4830  149.8260 N   0  0  0  0  0  0  0  0  0  0  0  0
  161.4800  206.8930  147.9690 N   0  0  0  0  0  0  0  0  0  0  0  0
  160.8370  204.2270  153.5590 C   0  0  0  0  0  3  0  0  0  0  0  0
  161.0280  203.9370  144.8370 C   0  0  0  0  0  2  0  0  0  0  0  0
  162.0330  206.1030  144.3560 C   0  0  0  0  0  2  0  0  0  0  0  0
  161.3000  206.8550  153.4680 Cl  0  0  0  0  0  0  0  0  0  0  0  0
  161.0160  203.4760  149.4520 C   0  0  0  0  0  0  0  0  0  0  0  0
  160.6450  202.9360  153.0810 C   0  0  0  0  0  3  0  0  0  0  0  0
  161.1430  205.0640  151.2790 C   0  0  0  0  0  0  0  0  0  0  0  0
  161.2680  204.4550  148.5250 C   0  0  0  0  0  0  0  0  0  0  0  0
  161.1870  201.6550  146.6850 O   0  0  0  0  0  0  0  0  0  0  0  0
  161.3470  203.8710  147.3010 N   0  0  0  0  0  0  0  0  0  0  0  0
  161.4450  204.8580  143.7090 C   0  0  0  0  0  2  0  0  0  0  0  0
  159.6390  206.3520  146.4090 C   0  0  0  0  0  1  0  0  0  0  0  0
  160.6980  202.6880  151.7140 C   0  0  0  0  0  3  0  0  0  0  0  0
  160.9420  203.7330  150.8160 C   0  0  0  0  0  0  0  0  0  0  0  0
  161.1090  206.7330  146.5720 C   0  0  2  0  0  3  0  0  0  0  0  0
  162.1730  209.8060  150.3300 C   0  0  0  0  0  2  0  0  0  0  0  0
  161.1020  210.6600  152.2140 C   0  0  0  0  0  1  0  0  0  0  0  0
  162.1780  209.7880  151.7820 N   0  0  0  0  0  2  0  0  0  0  0  0
  1  5  1  0  0  0  0
  1 19  1  0  0  0  0
  2 16  1  0  0  0  0
  2 13  1  0  0  0  0
  3 17  1  0  0  0  0
  4  1  2  0  0  0  0
  6  8  2  0  0  0  0
  7 15  1  6  0  0  0
  7  9  1  0  0  0  0
  7 27  1  0  0  0  0
  8 11  1  0  0  0  0
  9 14  1  6  0  0  0
  9 22  1  0  0  0  0
 10  3  1  0  0  0  0
 11 28  1  0  0  0  0
 11  5  1  0  0  0  0
 12  8  1  0  0  0  0
 12  4  1  0  0  0  0
 17 26  1  0  0  0  0
 18 13  2  0  0  0  0
 19  2  2  0  0  0  0
 20  4  1  0  0  0  0
 20 17  2  0  0  0  0
 21 10  2  0  0  0  0
 22 10  1  0  0  0  0
 22 20  1  0  0  0  0
 23 15  1  0  0  0  0
 23 14  1  0  0  0  0
 25 18  1  0  0  0  0
 26 19  1  0  0  0  0
 26 25  2  0  0  0  0
 27 24  1  1  0  0  0
 27 12  1  0  0  0  0
 28 30  1  0  0  0  0
 30 29  1  0  0  0  0
M  END
>  <MODEL>
6

>  <REMARK>
 VINA RESULT:      -5.0      2.425      3.712
  Name = 
  2 active torsions:
  status: ('A' for Active; 'I' for Inactive)
    1  A    between atoms: N_11  and  C_28
    2  A    between atoms: C_28  and  N_30
                            x       y       z     vdW  Elec       q    Type
                         _______ _______ _______ _____ _____    ______ ____

>  <TORSDO>
F 2

$$$$
=
 OpenBabel11122412383D

 30 35  0  0  1  0  0  0  0  0999 V2000
  161.0770  209.5110  151.5420 C   0  0  0  0  0  0  0  0  0  0  0  0
  161.2800  211.7230  150.3430 C   0  0  0  0  0  0  0  0  0  0  0  0
  161.8690  207.4530  148.0680 N   0  0  0  0  0  2  0  0  0  0  0  0
  161.1610  208.0890  151.5060 C   0  0  0  0  0  0  0  0  0  0  0  0
  160.7380  210.1450  152.7790 N   0  0  0  0  0  2  0  0  0  0  0  0
  160.4480  207.3340  154.9980 O   0  0  0  0  0  0  0  0  0  0  0  0
  160.6430  205.0350  152.0570 C   0  0  1  0  0  3  0  0  0  0  0  0
  160.6570  208.0000  153.9460 C   0  0  0  0  0  0  0  0  0  0  0  0
  160.9490  204.9480  150.5710 C   0  0  2  0  0  3  0  0  0  0  0  0
  161.7130  206.2100  148.5670 C   0  0  0  0  0  0  0  0  0  0  0  0
  160.4960  209.4180  153.9520 N   0  0  0  0  0  0  0  0  0  0  0  0
  161.0750  207.3430  152.7410 N   0  0  0  0  0  0  0  0  0  0  0  0
  161.5410  212.4090  149.1530 C   0  0  0  0  0  3  0  0  0  0  0  0
  161.9040  203.7810  150.4220 C   0  0  0  0  0  2  0  0  0  0  0  0
  160.7950  203.6160  152.5840 C   0  0  0  0  0  2  0  0  0  0  0  0
  160.9190  212.7480  151.7280 Cl  0  0  0  0  0  0  0  0  0  0  0  0
  161.6620  208.2320  149.1420 C   0  0  0  0  0  0  0  0  0  0  0  0
  161.8440  211.7270  147.9800 C   0  0  0  0  0  3  0  0  0  0  0  0
  161.3230  210.2960  150.3680 C   0  0  0  0  0  0  0  0  0  0  0  0
  161.4060  207.4770  150.2570 C   0  0  0  0  0  0  0  0  0  0  0  0
  161.7770  205.1840  147.8400 O   0  0  0  0  0  0  0  0  0  0  0  0
  161.4390  206.1660  149.8990 N   0  0  0  0  0  0  0  0  0  0  0  0
  161.5000  202.8060  151.5070 C   0  0  0  0  0  2  0  0  0  0  0  0
  163.0390  205.8480  152.5840 C   0  0  0  0  0  1  0  0  0  0  0  0
  161.8900  210.3380  147.9790 C   0  0  0  0  0  3  0  0  0  0  0  0
  161.6370  209.6220  149.1540 C   0  0  0  0  0  0  0  0  0  0  0  0
  161.5400  205.9690  152.8530 C   0  0  2  0  0  3  0  0  0  0  0  0
  160.0550  210.1220  155.1440 C   0  0  0  0  0  2  0  0  0  0  0  0
  159.0620  212.2280  155.2050 C   0  0  0  0  0  1  0  0  0  0  0  0
  158.8240  210.8380  154.8620 N   0  0  0  0  0  2  0  0  0  0  0  0
  1  5  1  0  0  0  0
  2 19  1  0  0  0  0
  2 16  1  0  0  0  0
  3 10  1  0  0  0  0
  3 17  1  0  0  0  0
  4  1  1  0  0  0  0
  4 12  1  0  0  0  0
  5 11  1  0  0  0  0
  7 15  1  1  0  0  0
  7 27  1  0  0  0  0
  8 11  1  0  0  0  0
  8  6  2  0  0  0  0
  9 14  1  1  0  0  0
  9  7  1  0  0  0  0
 10 22  1  0  0  0  0
 11 28  1  0  0  0  0
 12 27  1  0  0  0  0
 12  8  1  0  0  0  0
 13  2  2  0  0  0  0
 14 23  1  0  0  0  0
 17 26  2  0  0  0  0
 17 20  1  0  0  0  0
 18 13  1  0  0  0  0
 19  1  2  0  0  0  0
 20  4  2  0  0  0  0
 21 10  2  0  0  0  0
 22 20  1  0  0  0  0
 22  9  1  0  0  0  0
 23 15  1  0  0  0  0
 25 18  2  0  0  0  0
 25 26  1  0  0  0  0
 26 19  1  0  0  0  0
 27 24  1  6  0  0  0
 30 28  1  0  0  0  0
 30 29  1  0  0  0  0
M  END
>  <MODEL>
7

>  <REMARK>
 VINA RESULT:      -4.7      2.170      4.941
  Name = 
  2 active torsions:
  status: ('A' for Active; 'I' for Inactive)
    1  A    between atoms: N_11  and  C_28
    2  A    between atoms: C_28  and  N_30
                            x       y       z     vdW  Elec       q    Type
                         _______ _______ _______ _____ _____    ______ ____

>  <TORSDO>
F 2

$$$$
