=
 OpenBabel11122414223D

 34 41  0  0  1  0  0  0  0  0999 V2000
  161.0780  207.9040  154.2890 C   0  0  0  0  0  0  0  0  0  0  0  0
  162.2060  206.1970  152.8520 C   0  0  0  0  0  2  0  0  0  0  0  0
  159.2740  213.1250  155.7880 C   0  0  2  0  0  0  0  0  0  0  0  0
  159.1590  209.2660  154.9220 C   0  0  0  0  0  0  0  0  0  0  0  0
  158.8350  211.5370  153.8820 N   0  0  1  0  0  0  0  0  0  0  0  0
  160.1630  211.9210  156.0400 C   0  0  0  0  0  2  0  0  0  0  0  0
  159.9530  214.4530  156.0440 C   0  0  0  0  0  1  0  0  0  0  0  0
  157.3970  211.6170  156.6590 C   0  0  0  0  0  2  0  0  0  0  0  0
  162.4100  208.4630  152.1530 C   0  0  2  0  0  3  0  0  0  0  0  0
  162.1920  208.6470  148.8880 C   0  0  0  0  0  2  0  0  0  0  0  0
  159.4760  210.9980  152.6780 C   0  0  0  0  0  2  0  0  0  0  0  0
  157.0360  210.7150  155.4940 C   0  0  0  0  0  2  0  0  0  0  0  0
  161.1960  209.3370  151.7890 C   0  0  1  0  0  3  0  0  0  0  0  0
  162.8860  206.1580  151.6250 O   0  0  0  0  0  0  0  0  0  0  0  0
  158.2200  210.3910  154.5800 C   0  0  2  0  0  3  0  0  0  0  0  0
  157.7890  213.0000  156.1540 C   0  0  0  0  0  2  0  0  0  0  0  0
  161.9390  207.4280  149.7780 C   0  0  1  0  0  3  0  0  0  0  0  0
  160.2660  209.0340  154.0810 C   0  0  0  0  0  0  0  0  0  0  0  0
  159.8460  212.3540  154.6030 C   0  0  2  0  0  3  0  0  0  0  0  0
  160.6460  210.0460  153.0240 C   0  0  2  0  0  3  0  0  0  0  0  0
  159.7040  207.2780  156.1950 C   0  0  0  0  0  3  0  0  0  0  0  0
  162.0090  210.0210  149.4970 C   0  0  0  0  0  3  0  0  0  0  0  0
  158.8760  208.3770  155.9660 C   0  0  0  0  0  3  0  0  0  0  0  0
  161.5890  210.3310  150.7340 C   0  0  0  0  0  3  0  0  0  0  0  0
  162.7870  207.4460  151.0680 C   0  0  1  0  0  3  0  0  0  0  0  0
  160.7990  207.0450  155.3630 C   0  0  0  0  0  3  0  0  0  0  0  0
  162.2600  207.6060  153.3970 C   0  0  1  0  0  3  0  0  0  0  0  0
  160.4450  207.1810  149.9820 C   0  0  0  0  0  2  0  0  0  0  0  0
  160.0050  205.8700  149.3430 C   0  0  0  0  0  2  0  0  0  0  0  0
  160.7940  202.6660  148.3500 N   0  0  0  0  0  2  0  0  0  0  0  0
  160.5870  203.7130  150.4910 C   0  0  0  0  0  2  0  0  0  0  0  0
  161.0470  204.7610  149.5050 C   0  0  1  0  0  3  0  0  0  0  0  0
  160.7860  202.3960  149.7800 C   0  0  0  0  0  2  0  0  0  0  0  0
  161.3070  204.0220  148.2050 C   0  0  0  0  0  2  0  0  0  0  0  0
  1 26  1  0  0  0  0
  2 27  1  0  0  0  0
  3  6  1  0  0  0  0
  3  7  1  1  0  0  0
  3 16  1  0  0  0  0
  4 23  2  0  0  0  0
  5 11  1  6  0  0  0
  5 15  1  0  0  0  0
  5 19  1  0  0  0  0
  9 27  1  0  0  0  0
 10 22  1  0  0  0  0
 10 17  1  0  0  0  0
 11 20  1  0  0  0  0
 12  8  1  0  0  0  0
 13  9  1  0  0  0  0
 13 20  1  0  0  0  0
 14  2  1  0  0  0  0
 15  4  1  0  0  0  0
 15 12  1  0  0  0  0
 16  8  1  0  0  0  0
 17 28  1  0  0  0  0
 17 25  1  0  0  0  0
 18  1  2  0  0  0  0
 18  4  1  0  0  0  0
 19  3  1  0  0  0  0
 19  6  1  0  0  0  0
 20 18  1  0  0  0  0
 22 24  2  0  0  0  0
 23 21  1  0  0  0  0
 24 13  1  0  0  0  0
 25 14  1  0  0  0  0
 25  9  1  0  0  0  0
 26 21  2  0  0  0  0
 27  1  1  0  0  0  0
 29 32  1  0  0  0  0
 29 28  1  0  0  0  0
 30 33  1  0  0  0  0
 32 31  1  0  0  0  0
 33 31  1  0  0  0  0
 34 30  1  0  0  0  0
 34 32  1  0  0  0  0
M  END
>  <MODEL>
1

>  <REMARK>
 VINA RESULT:      -5.1      0.000      0.000
  Name = 
  3 active torsions:
  status: ('A' for Active; 'I' for Inactive)
    1  A    between atoms: C_17  and  C_28
    2  A    between atoms: C_28  and  C_29
    3  A    between atoms: C_29  and  C_32
                            x       y       z     vdW  Elec       q    Type
                         _______ _______ _______ _____ _____    ______ ____

>  <TORSDO>
F 3

$$$$
=
 OpenBabel11122414223D

 34 41  0  0  1  0  0  0  0  0999 V2000
  161.1470  208.0100  154.0350 C   0  0  0  0  0  0  0  0  0  0  0  0
  162.3300  206.3910  152.5420 C   0  0  0  0  0  2  0  0  0  0  0  0
  159.2130  213.1230  155.7330 C   0  0  2  0  0  0  0  0  0  0  0  0
  159.1920  209.3030  154.6990 C   0  0  0  0  0  0  0  0  0  0  0  0
  158.8340  211.6110  153.7540 N   0  0  1  0  0  0  0  0  0  0  0  0
  160.1240  211.9270  155.9450 C   0  0  0  0  0  2  0  0  0  0  0  0
  159.8610  214.4520  156.0560 C   0  0  0  0  0  1  0  0  0  0  0  0
  157.3570  211.5400  156.5100 C   0  0  0  0  0  2  0  0  0  0  0  0
  162.4960  208.6890  151.9450 C   0  0  2  0  0  3  0  0  0  0  0  0
  162.3200  209.0110  148.6890 C   0  0  0  0  0  2  0  0  0  0  0  0
  159.5030  211.1390  152.5370 C   0  0  0  0  0  2  0  0  0  0  0  0
  157.0310  210.6830  155.3020 C   0  0  0  0  0  2  0  0  0  0  0  0
  161.2690  209.5530  151.6020 C   0  0  1  0  0  3  0  0  0  0  0  0
  163.0280  206.4190  151.3240 O   0  0  0  0  0  0  0  0  0  0  0  0
  158.2340  210.4230  154.3920 C   0  0  2  0  0  3  0  0  0  0  0  0
  157.7270  212.9510  156.0710 C   0  0  0  0  0  2  0  0  0  0  0  0
  162.0800  207.7500  149.5210 C   0  0  1  0  0  3  0  0  0  0  0  0
  160.3150  209.1320  153.8640 C   0  0  0  0  0  0  0  0  0  0  0  0
  159.8180  212.4160  154.5240 C   0  0  2  0  0  3  0  0  0  0  0  0
  160.6880  210.1960  152.8580 C   0  0  2  0  0  3  0  0  0  0  0  0
  159.7600  207.2740  155.8920 C   0  0  0  0  0  3  0  0  0  0  0  0
  162.1000  210.3530  149.3540 C   0  0  0  0  0  3  0  0  0  0  0  0
  158.9130  208.3640  155.6990 C   0  0  0  0  0  3  0  0  0  0  0  0
  161.6560  210.6000  150.5970 C   0  0  0  0  0  3  0  0  0  0  0  0
  162.9100  207.7280  150.8220 C   0  0  1  0  0  3  0  0  0  0  0  0
  160.8710  207.0990  155.0660 C   0  0  0  0  0  3  0  0  0  0  0  0
  162.3470  207.7750  153.1480 C   0  0  1  0  0  3  0  0  0  0  0  0
  160.5890  207.4630  149.6920 C   0  0  0  0  0  2  0  0  0  0  0  0
  160.3070  205.9660  149.7110 C   0  0  0  0  0  2  0  0  0  0  0  0
  162.3480  204.9390  147.1330 N   0  0  0  0  0  2  0  0  0  0  0  0
  160.4680  206.4140  147.2460 C   0  0  0  0  0  2  0  0  0  0  0  0
  160.2910  205.3550  148.3080 C   0  0  1  0  0  3  0  0  0  0  0  0
  161.5680  205.8900  146.3550 C   0  0  0  0  0  2  0  0  0  0  0  0
  161.4220  204.3650  148.0990 C   0  0  0  0  0  2  0  0  0  0  0  0
  1 26  1  0  0  0  0
  2 27  1  0  0  0  0
  3  6  1  0  0  0  0
  3  7  1  1  0  0  0
  3 16  1  0  0  0  0
  4 23  2  0  0  0  0
  5 11  1  6  0  0  0
  5 15  1  0  0  0  0
  5 19  1  0  0  0  0
  9 27  1  0  0  0  0
 10 22  1  0  0  0  0
 10 17  1  0  0  0  0
 11 20  1  0  0  0  0
 12  8  1  0  0  0  0
 13  9  1  0  0  0  0
 13 20  1  0  0  0  0
 14  2  1  0  0  0  0
 15  4  1  0  0  0  0
 15 12  1  0  0  0  0
 16  8  1  0  0  0  0
 17 28  1  0  0  0  0
 17 25  1  0  0  0  0
 18  1  2  0  0  0  0
 18  4  1  0  0  0  0
 19  3  1  0  0  0  0
 19  6  1  0  0  0  0
 20 18  1  0  0  0  0
 22 24  2  0  0  0  0
 23 21  1  0  0  0  0
 24 13  1  0  0  0  0
 25 14  1  0  0  0  0
 25  9  1  0  0  0  0
 26 21  2  0  0  0  0
 27  1  1  0  0  0  0
 28 29  1  0  0  0  0
 30 34  1  0  0  0  0
 31 32  1  0  0  0  0
 32 29  1  0  0  0  0
 33 30  1  0  0  0  0
 33 31  1  0  0  0  0
 34 32  1  0  0  0  0
M  END
>  <MODEL>
2

>  <REMARK>
 VINA RESULT:      -3.3      0.885      1.289
  Name = 
  3 active torsions:
  status: ('A' for Active; 'I' for Inactive)
    1  A    between atoms: C_17  and  C_28
    2  A    between atoms: C_28  and  C_29
    3  A    between atoms: C_29  and  C_32
                            x       y       z     vdW  Elec       q    Type
                         _______ _______ _______ _____ _____    ______ ____

>  <TORSDO>
F 3

$$$$
