=
 OpenBabel11122412443D

 30 35  0  0  1  0  0  0  0  0999 V2000
  160.7100  205.3040  149.2190 C   0  0  0  0  0  0  0  0  0  0  0  0
  160.6830  202.8650  149.0140 C   0  0  0  0  0  0  0  0  0  0  0  0
  161.4110  204.9900  153.3710 N   0  0  0  0  0  0  0  0  0  0  0  0
  160.6880  206.5930  150.0560 C   0  0  2  0  0  3  0  0  0  0  0  0
  160.8240  205.5070  147.7340 C   0  0  0  0  0  2  0  0  0  0  0  0
  163.4660  207.9880  148.1460 O   0  0  0  0  0  0  0  0  0  0  0  0
  160.7740  209.3100  151.2950 C   0  0  1  0  0  3  0  0  0  0  0  0
  162.3750  207.3720  148.2970 C   0  0  0  0  0  0  0  0  0  0  0  0
  161.0620  208.5390  152.4930 N   0  0  0  0  0  0  0  0  0  0  0  0
  161.4390  206.2480  153.6850 C   0  0  0  0  0  0  0  0  0  0  0  0
  162.0510  206.2490  147.4650 N   0  0  0  0  0  0  0  0  0  0  0  0
  161.3750  207.7980  149.3470 C   0  0  2  0  0  3  0  0  0  0  0  0
  160.7590  201.6470  149.6130 N   0  0  0  0  0  0  0  0  0  0  0  0
  161.1490  209.3570  153.6850 C   0  0  0  0  0  2  0  0  0  0  0  0
  160.8240  210.7670  151.7400 C   0  0  0  0  0  2  0  0  0  0  0  0
  160.4560  202.8940  147.6760 F   0  0  0  0  0  0  0  0  0  0  0  0
  161.2010  204.9740  151.9620 C   0  0  0  0  0  0  0  0  0  0  0  0
  160.9520  201.5040  150.9470 C   0  0  0  0  0  3  0  0  0  0  0  0
  160.7880  204.0550  149.7850 C   0  0  0  0  0  0  0  0  0  0  0  0
  161.1410  206.3140  151.4540 C   0  0  0  0  0  0  0  0  0  0  0  0
  161.6310  206.7060  155.0880 C   0  0  0  0  0  1  0  0  0  0  0  0
  161.2390  207.1130  152.5060 C   0  0  0  0  0  0  0  0  0  0  0  0
  160.7580  210.7560  153.2570 C   0  0  0  0  0  2  0  0  0  0  0  0
  161.9830  210.1070  149.3660 O   0  0  0  0  0  1  0  0  0  0  0  0
  161.0850  202.6260  151.7550 C   0  0  0  0  0  3  0  0  0  0  0  0
  161.0120  203.9010  151.1890 C   0  0  0  0  0  0  0  0  0  0  0  0
  161.8070  209.0010  150.2040 C   0  0  1  0  0  3  0  0  0  0  0  0
  162.9620  205.7900  146.4230 C   0  0  0  0  0  2  0  0  0  0  0  0
  161.5520  205.0720  144.4890 C   0  0  0  0  0  1  0  0  0  0  0  0
  162.3720  204.6020  145.6760 C   0  0  0  0  0  2  0  0  0  0  0  0
  1 19  2  0  0  0  0
  2 13  2  0  0  0  0
  2 19  1  0  0  0  0
  3 10  2  0  0  0  0
  4  1  1  6  0  0  0
  4 20  1  0  0  0  0
  5  1  1  0  0  0  0
  6  8  2  0  0  0  0
  7 15  1  1  0  0  0
  7  9  1  0  0  0  0
  9 22  1  0  0  0  0
  9 14  1  0  0  0  0
 10 21  1  0  0  0  0
 11  5  1  0  0  0  0
 11  8  1  0  0  0  0
 12  8  1  1  0  0  0
 12  4  1  0  0  0  0
 12 27  1  0  0  0  0
 13 18  1  0  0  0  0
 15 23  1  0  0  0  0
 16  2  1  0  0  0  0
 17  3  1  0  0  0  0
 18 25  2  0  0  0  0
 19 26  1  0  0  0  0
 20 17  1  0  0  0  0
 20 22  2  0  0  0  0
 22 10  1  0  0  0  0
 23 14  1  0  0  0  0
 26 25  1  0  0  0  0
 26 17  2  0  0  0  0
 27 24  1  6  0  0  0
 27  7  1  0  0  0  0
 28 11  1  0  0  0  0
 29 30  1  0  0  0  0
 30 28  1  0  0  0  0
M  END
>  <MODEL>
1

>  <REMARK>
 VINA RESULT:      -9.0      0.000      0.000
  Name = 
  2 active torsions:
  status: ('A' for Active; 'I' for Inactive)
    1  A    between atoms: N_11  and  C_28
    2  A    between atoms: C_28  and  C_30
                            x       y       z     vdW  Elec       q    Type
                         _______ _______ _______ _____ _____    ______ ____

>  <TORSDO>
F 2

$$$$
=
 OpenBabel11122412443D

 30 35  0  0  1  0  0  0  0  0999 V2000
  160.7040  206.7320  150.5450 C   0  0  0  0  0  0  0  0  0  0  0  0
  161.1840  209.1160  150.8110 C   0  0  0  0  0  0  0  0  0  0  0  0
  162.5910  206.7290  146.7670 N   0  0  0  0  0  0  0  0  0  0  0  0
  160.6200  205.4540  149.6940 C   0  0  0  0  0  0  0  0  0  0  0  0
  160.3480  206.5600  151.9940 C   0  0  0  0  0  2  0  0  0  0  0  0
  162.3520  203.5240  152.2610 O   0  0  0  0  0  0  0  0  0  0  0  0
  160.4180  202.7480  148.4430 C   0  0  1  0  0  3  0  0  0  0  0  0
  161.5200  204.3680  151.8300 C   0  0  0  0  0  0  0  0  0  0  0  0
  161.2000  203.3890  147.3990 N   0  0  0  0  0  0  0  0  0  0  0  0
  162.4150  205.4890  146.4330 C   0  0  0  0  0  0  0  0  0  0  0  0
  161.2450  205.5650  152.5730 N   0  0  0  0  0  0  0  0  0  0  0  0
  160.7820  204.1480  150.5290 C   0  0  2  0  0  3  0  0  0  0  0  0
  161.7050  210.2620  150.2960 N   0  0  0  0  0  0  0  0  0  0  0  0
  161.4260  202.5320  146.2540 C   0  0  0  0  0  2  0  0  0  0  0  0
  160.2530  201.3040  147.9840 C   0  0  0  0  0  2  0  0  0  0  0  0
  160.5920  209.1870  152.0300 F   0  0  0  0  0  0  0  0  0  0  0  0
  162.0040  206.8420  148.0610 C   0  0  2  0  0  3  0  0  0  0  0  0
  162.2900  210.3100  149.0740 C   0  0  0  0  0  3  0  0  0  0  0  0
  161.2240  207.9080  150.0630 C   0  0  0  0  0  0  0  0  0  0  0  0
  161.4970  205.5710  148.4890 C   0  0  0  0  0  0  0  0  0  0  0  0
  162.8800  204.9490  145.1270 C   0  0  0  0  0  1  0  0  0  0  0  0
  161.6980  204.7350  147.4810 C   0  0  0  0  0  0  0  0  0  0  0  0
  160.6180  201.2760  146.5100 C   0  0  0  0  0  2  0  0  0  0  0  0
  160.8210  201.7610  150.6070 O   0  0  0  0  0  1  0  0  0  0  0  0
  162.3810  209.1600  148.3010 C   0  0  0  0  0  3  0  0  0  0  0  0
  161.8600  207.9570  148.7840 C   0  0  0  0  0  0  0  0  0  0  0  0
  161.1470  202.8480  149.7900 C   0  0  1  0  0  3  0  0  0  0  0  0
  161.9080  205.8380  153.8420 C   0  0  0  0  0  2  0  0  0  0  0  0
  160.4040  206.9590  155.4940 C   0  0  0  0  0  1  0  0  0  0  0  0
  161.4490  207.1720  154.4140 C   0  0  0  0  0  2  0  0  0  0  0  0
  1  5  1  0  0  0  0
  2 16  1  0  0  0  0
  4  1  2  0  0  0  0
  5 11  1  0  0  0  0
  7 15  1  6  0  0  0
  7 27  1  0  0  0  0
  8  6  2  0  0  0  0
  8 11  1  0  0  0  0
  9 22  1  0  0  0  0
  9  7  1  0  0  0  0
 10  3  2  0  0  0  0
 10 22  1  0  0  0  0
 11 28  1  0  0  0  0
 12  4  1  6  0  0  0
 12  8  1  0  0  0  0
 13  2  1  0  0  0  0
 14 23  1  0  0  0  0
 14  9  1  0  0  0  0
 17  3  1  6  0  0  0
 17 20  1  0  0  0  0
 17 26  1  0  0  0  0
 18 13  2  0  0  0  0
 19  1  1  0  0  0  0
 19  2  2  0  0  0  0
 20  4  1  0  0  0  0
 21 10  1  0  0  0  0
 22 20  2  0  0  0  0
 23 15  1  0  0  0  0
 25 26  2  0  0  0  0
 25 18  1  0  0  0  0
 26 19  1  0  0  0  0
 27 12  1  0  0  0  0
 27 24  1  1  0  0  0
 28 30  1  0  0  0  0
 30 29  1  0  0  0  0
M  END
>  <MODEL>
2

>  <REMARK>
 VINA RESULT:      -7.0      2.606      7.232
  Name = 
  2 active torsions:
  status: ('A' for Active; 'I' for Inactive)
    1  A    between atoms: N_11  and  C_28
    2  A    between atoms: C_28  and  C_30
                            x       y       z     vdW  Elec       q    Type
                         _______ _______ _______ _____ _____    ______ ____

>  <TORSDO>
F 2

$$$$
=
 OpenBabel11122412443D

 30 35  0  0  1  0  0  0  0  0999 V2000
  160.7420  207.8970  151.0770 C   0  0  0  0  0  0  0  0  0  0  0  0
  161.2380  210.2810  150.8410 C   0  0  0  0  0  0  0  0  0  0  0  0
  162.5750  207.1030  147.3560 N   0  0  0  0  0  0  0  0  0  0  0  0
  160.6390  206.4720  150.5080 C   0  0  2  0  0  3  0  0  0  0  0  0
  160.4060  208.0290  152.5350 C   0  0  0  0  0  2  0  0  0  0  0  0
  162.3990  205.0970  153.3940 O   0  0  0  0  0  0  0  0  0  0  0  0
  160.4060  203.5690  149.8430 C   0  0  1  0  0  3  0  0  0  0  0  0
  161.5650  205.8420  152.8090 C   0  0  0  0  0  0  0  0  0  0  0  0
  161.1760  203.9750  148.6800 N   0  0  0  0  0  0  0  0  0  0  0  0
  162.3870  205.8220  147.2870 C   0  0  0  0  0  0  0  0  0  0  0  0
  161.3060  207.1670  153.2940 N   0  0  0  0  0  0  0  0  0  0  0  0
  160.8070  205.3640  151.5910 C   0  0  2  0  0  3  0  0  0  0  0  0
  161.7570  211.2920  150.0940 N   0  0  0  0  0  0  0  0  0  0  0  0
  161.3810  202.8990  147.7320 C   0  0  0  0  0  2  0  0  0  0  0  0
  160.2270  202.0630  149.6930 C   0  0  0  0  0  2  0  0  0  0  0  0
  160.6640  210.6060  152.0260 F   0  0  0  0  0  0  0  0  0  0  0  0
  162.0070  207.4840  148.6060 C   0  0  0  0  0  0  0  0  0  0  0  0
  162.3250  211.0840  148.8810 C   0  0  0  0  0  3  0  0  0  0  0  0
  161.2610  208.9450  150.3560 C   0  0  0  0  0  0  0  0  0  0  0  0
  161.4990  206.3320  149.2930 C   0  0  0  0  0  0  0  0  0  0  0  0
  162.8310  205.0220  146.1130 C   0  0  0  0  0  1  0  0  0  0  0  0
  161.6820  205.3050  148.4770 C   0  0  0  0  0  0  0  0  0  0  0  0
  160.5710  201.7290  148.2520 C   0  0  0  0  0  2  0  0  0  0  0  0
  160.8360  203.0450  152.1590 O   0  0  0  0  0  1  0  0  0  0  0  0
  162.3990  209.7990  148.3600 C   0  0  0  0  0  3  0  0  0  0  0  0
  161.8790  208.7250  149.0860 C   0  0  0  0  0  0  0  0  0  0  0  0
  161.1550  203.9380  151.1310 C   0  0  1  0  0  3  0  0  0  0  0  0
  161.9890  207.6900  154.4710 C   0  0  0  0  0  2  0  0  0  0  0  0
  160.1470  207.2170  156.0930 C   0  0  0  0  0  1  0  0  0  0  0  0
  160.9910  208.3000  155.4460 C   0  0  0  0  0  2  0  0  0  0  0  0
  1  5  1  0  0  0  0
  2 16  1  0  0  0  0
  3 17  1  0  0  0  0
  4 20  1  6  0  0  0
  4  1  1  0  0  0  0
  4 12  1  0  0  0  0
  5 11  1  0  0  0  0
  7 15  1  6  0  0  0
  7 27  1  0  0  0  0
  8 11  1  0  0  0  0
  8  6  2  0  0  0  0
  9  7  1  0  0  0  0
 10  3  2  0  0  0  0
 10 22  1  0  0  0  0
 11 28  1  0  0  0  0
 12  8  1  1  0  0  0
 13  2  2  0  0  0  0
 14 23  1  0  0  0  0
 14  9  1  0  0  0  0
 17 26  2  0  0  0  0
 17 20  1  0  0  0  0
 18 13  1  0  0  0  0
 19  2  1  0  0  0  0
 19  1  2  0  0  0  0
 21 10  1  0  0  0  0
 22  9  1  0  0  0  0
 22 20  2  0  0  0  0
 23 15  1  0  0  0  0
 25 18  2  0  0  0  0
 25 26  1  0  0  0  0
 26 19  1  0  0  0  0
 27 12  1  0  0  0  0
 27 24  1  1  0  0  0
 28 30  1  0  0  0  0
 30 29  1  0  0  0  0
M  END
>  <MODEL>
3

>  <REMARK>
 VINA RESULT:      -6.9      2.731      7.182
  Name = 
  2 active torsions:
  status: ('A' for Active; 'I' for Inactive)
    1  A    between atoms: N_11  and  C_28
    2  A    between atoms: C_28  and  C_30
                            x       y       z     vdW  Elec       q    Type
                         _______ _______ _______ _____ _____    ______ ____

>  <TORSDO>
F 2

$$$$
=
 OpenBabel11122412443D

 30 35  0  0  1  0  0  0  0  0999 V2000
  161.9000  210.1090  150.5820 C   0  0  0  0  0  0  0  0  0  0  0  0
  161.7850  211.9000  148.9190 C   0  0  0  0  0  0  0  0  0  0  0  0
  159.2890  212.2420  153.1250 N   0  0  0  0  0  0  0  0  0  0  0  0
  161.6480  209.5520  151.9930 C   0  0  2  0  0  3  0  0  0  0  0  0
  162.5240  209.1430  149.6150 C   0  0  0  0  0  2  0  0  0  0  0  0
  160.2570  206.4690  150.6250 O   0  0  0  0  0  0  0  0  0  0  0  0
  161.2510  208.0590  154.5500 C   0  0  1  0  0  3  0  0  0  0  0  0
  161.0810  207.4230  150.6930 C   0  0  0  0  0  0  0  0  0  0  0  0
  160.3560  209.1690  154.8300 N   0  0  0  0  0  0  0  0  0  0  0  0
  159.2380  211.4210  154.1270 C   0  0  0  0  0  0  0  0  0  0  0  0
  161.6490  207.9800  149.4990 N   0  0  0  0  0  0  0  0  0  0  0  0
  161.5010  208.0010  152.0240 C   0  0  2  0  0  3  0  0  0  0  0  0
  161.3150  213.1250  148.5600 N   0  0  0  0  0  0  0  0  0  0  0  0
  159.7950  209.1200  156.1650 C   0  0  0  0  0  2  0  0  0  0  0  0
  161.1380  207.1430  155.7630 C   0  0  0  0  0  2  0  0  0  0  0  0
  162.6190  211.2690  148.0560 F   0  0  0  0  0  0  0  0  0  0  0  0
  160.1390  211.6030  152.1770 C   0  0  0  0  0  0  0  0  0  0  0  0
  160.5010  213.8550  149.3610 C   0  0  0  0  0  3  0  0  0  0  0  0
  161.4420  211.3400  150.1800 C   0  0  0  0  0  0  0  0  0  0  0  0
  160.5630  210.3250  152.6720 C   0  0  0  0  0  0  0  0  0  0  0  0
  158.4500  211.7210  155.3540 C   0  0  0  0  0  1  0  0  0  0  0  0
  160.0570  210.2150  153.8910 C   0  0  0  0  0  0  0  0  0  0  0  0
  160.4760  207.9590  156.8590 C   0  0  0  0  0  2  0  0  0  0  0  0
  161.1830  206.0020  153.2910 O   0  0  0  0  0  1  0  0  0  0  0  0
  160.1110  213.3560  150.5960 C   0  0  0  0  0  3  0  0  0  0  0  0
  160.5670  212.1030  151.0140 C   0  0  0  0  0  0  0  0  0  0  0  0
  160.8330  207.3550  153.2510 C   0  0  1  0  0  3  0  0  0  0  0  0
  161.3010  207.4640  148.1810 C   0  0  0  0  0  2  0  0  0  0  0  0
  161.7110  205.0510  147.6790 C   0  0  0  0  0  1  0  0  0  0  0  0
  162.3250  206.4380  147.7160 C   0  0  0  0  0  2  0  0  0  0  0  0
  2 19  1  0  0  0  0
  3 10  2  0  0  0  0
  4  1  1  6  0  0  0
  4 12  1  0  0  0  0
  4 20  1  0  0  0  0
  5  1  1  0  0  0  0
  6  8  2  0  0  0  0
  7  9  1  0  0  0  0
  7 15  1  1  0  0  0
  9 14  1  0  0  0  0
 10 21  1  0  0  0  0
 11  5  1  0  0  0  0
 11  8  1  0  0  0  0
 12  8  1  6  0  0  0
 12 27  1  0  0  0  0
 13  2  2  0  0  0  0
 13 18  1  0  0  0  0
 14 23  1  0  0  0  0
 15 23  1  0  0  0  0
 16  2  1  0  0  0  0
 17 20  1  0  0  0  0
 17  3  1  0  0  0  0
 18 25  2  0  0  0  0
 19  1  2  0  0  0  0
 19 26  1  0  0  0  0
 20 22  2  0  0  0  0
 22 10  1  0  0  0  0
 22  9  1  0  0  0  0
 25 26  1  0  0  0  0
 26 17  2  0  0  0  0
 27 24  1  1  0  0  0
 27  7  1  0  0  0  0
 28 11  1  0  0  0  0
 29 30  1  0  0  0  0
 30 28  1  0  0  0  0
M  END
>  <MODEL>
4

>  <REMARK>
 VINA RESULT:      -6.9      3.185      6.150
  Name = 
  2 active torsions:
  status: ('A' for Active; 'I' for Inactive)
    1  A    between atoms: N_11  and  C_28
    2  A    between atoms: C_28  and  C_30
                            x       y       z     vdW  Elec       q    Type
                         _______ _______ _______ _____ _____    ______ ____

>  <TORSDO>
F 2

$$$$
=
 OpenBabel11122412443D

 30 35  0  0  1  0  0  0  0  0999 V2000
  160.3130  211.0270  153.9610 C   0  0  0  0  0  0  0  0  0  0  0  0
  160.0310  209.3900  155.7580 C   0  0  0  0  0  0  0  0  0  0  0  0
  161.5770  207.9800  151.3250 N   0  0  0  0  0  0  0  0  0  0  0  0
  160.8290  211.4390  152.5730 C   0  0  0  0  0  0  0  0  0  0  0  0
  159.5470  212.0880  154.7000 C   0  0  0  0  0  2  0  0  0  0  0  0
  157.6170  212.9470  151.7260 O   0  0  0  0  0  0  0  0  0  0  0  0
  161.5600  212.6070  149.9220 C   0  0  1  0  0  3  0  0  0  0  0  0
  158.5970  212.6860  152.4760 C   0  0  0  0  0  0  0  0  0  0  0  0
  161.7890  211.2110  149.5910 N   0  0  0  0  0  0  0  0  0  0  0  0
  161.8060  208.6880  150.2630 C   0  0  0  0  0  0  0  0  0  0  0  0
  158.4030  212.4810  153.8830 N   0  0  0  0  0  0  0  0  0  0  0  0
  160.0010  212.5890  151.9260 C   0  0  2  0  0  3  0  0  0  0  0  0
  160.1340  208.1030  156.1850 N   0  0  0  0  0  0  0  0  0  0  0  0
  162.3320  211.0260  148.2610 C   0  0  0  0  0  2  0  0  0  0  0  0
  161.8470  213.3720  148.6360 C   0  0  0  0  0  2  0  0  0  0  0  0
  159.6190  210.3190  156.6570 F   0  0  0  0  0  0  0  0  0  0  0  0
  161.1130  208.9180  152.2920 C   0  0  2  0  0  3  0  0  0  0  0  0
  160.5650  207.1020  155.3800 C   0  0  0  0  0  3  0  0  0  0  0  0
  160.3960  209.7380  154.4290 C   0  0  0  0  0  0  0  0  0  0  0  0
  161.0490  210.2310  151.7190 C   0  0  0  0  0  0  0  0  0  0  0  0
  162.3220  208.0820  149.0060 C   0  0  0  0  0  1  0  0  0  0  0  0
  161.5160  210.1190  150.4850 C   0  0  0  0  0  0  0  0  0  0  0  0
  162.6030  212.4180  147.7270 C   0  0  0  0  0  2  0  0  0  0  0  0
  159.6730  214.0990  150.1050 O   0  0  0  0  0  1  0  0  0  0  0  0
  160.9170  207.3700  154.0640 C   0  0  0  0  0  3  0  0  0  0  0  0
  160.8310  208.6770  153.5760 C   0  0  0  0  0  0  0  0  0  0  0  0
  160.1180  212.8080  150.4070 C   0  0  1  0  0  3  0  0  0  0  0  0
  157.0790  212.5720  154.4870 C   0  0  0  0  0  2  0  0  0  0  0  0
  155.5820  210.6420  155.0110 C   0  0  0  0  0  1  0  0  0  0  0  0
  156.8310  211.3970  155.4230 C   0  0  0  0  0  2  0  0  0  0  0  0
  1 19  1  0  0  0  0
  1  5  1  0  0  0  0
  2 13  1  0  0  0  0
  2 16  1  0  0  0  0
  4  1  2  0  0  0  0
  6  8  2  0  0  0  0
  7 15  1  6  0  0  0
  7 27  1  0  0  0  0
  8 11  1  0  0  0  0
  9  7  1  0  0  0  0
  9 22  1  0  0  0  0
 10 22  1  0  0  0  0
 10  3  2  0  0  0  0
 11 28  1  0  0  0  0
 11  5  1  0  0  0  0
 12  8  1  6  0  0  0
 12  4  1  0  0  0  0
 14  9  1  0  0  0  0
 17  3  1  1  0  0  0
 17 26  1  0  0  0  0
 18 13  2  0  0  0  0
 19  2  2  0  0  0  0
 20 17  1  0  0  0  0
 20  4  1  0  0  0  0
 21 10  1  0  0  0  0
 22 20  2  0  0  0  0
 23 14  1  0  0  0  0
 23 15  1  0  0  0  0
 25 18  1  0  0  0  0
 26 25  2  0  0  0  0
 26 19  1  0  0  0  0
 27 24  1  1  0  0  0
 27 12  1  0  0  0  0
 28 30  1  0  0  0  0
 29 30  1  0  0  0  0
M  END
>  <MODEL>
5

>  <REMARK>
 VINA RESULT:      -6.3      4.292      7.467
  Name = 
  2 active torsions:
  status: ('A' for Active; 'I' for Inactive)
    1  A    between atoms: N_11  and  C_28
    2  A    between atoms: C_28  and  C_30
                            x       y       z     vdW  Elec       q    Type
                         _______ _______ _______ _____ _____    ______ ____

>  <TORSDO>
F 2

$$$$
