=
 OpenBabel11122412353D

 30 35  0  0  1  0  0  0  0  0999 V2000
  161.0190  204.8720  148.5610 C   0  0  1  0  0  3  0  0  0  0  0  0
  161.2380  202.3920  147.9860 C   0  0  0  0  0  0  0  0  0  0  0  0
  160.9980  203.8560  152.5520 N   0  0  0  0  0  2  0  0  0  0  0  0
  161.3400  205.7960  149.7480 C   0  0  1  0  0  3  0  0  0  0  0  0
  161.9410  205.1120  147.5180 O   0  0  0  0  0  0  0  0  0  0  0  0
  161.6370  208.7340  147.4190 O   0  0  0  0  0  1  0  0  0  0  0  0
  160.5910  208.5560  151.3910 C   0  0  1  0  0  3  0  0  0  0  0  0
  161.9720  207.4920  147.9630 C   0  0  2  0  0  3  0  0  0  0  0  0
  160.5120  207.5290  152.5260 C   0  0  2  0  0  3  0  0  0  0  0  0
  161.2900  205.1490  153.0270 C   0  0  0  0  0  0  0  0  0  0  0  0
  161.6760  206.3800  146.9550 C   0  0  2  0  0  3  0  0  0  0  0  0
  161.2170  207.2610  149.2760 C   0  0  2  0  0  3  0  0  0  0  0  0
  161.1970  201.0470  148.3600 C   0  0  0  0  0  3  0  0  0  0  0  0
  161.3560  208.1130  153.6400 C   0  0  0  0  0  2  0  0  0  0  0  0
  160.8540  209.8950  152.0630 C   0  0  0  0  0  2  0  0  0  0  0  0
  161.4830  202.6980  146.6530 O   0  0  0  0  0  1  0  0  0  0  0  0
  160.2680  204.0380  151.3060 C   0  0  1  0  0  3  0  0  0  0  0  0
  160.9000  200.6870  149.6710 C   0  0  0  0  0  3  0  0  0  0  0  0
  161.0190  203.4080  148.9490 C   0  0  0  0  0  0  0  0  0  0  0  0
  160.3970  205.5390  150.9280 C   0  0  1  0  0  3  0  0  0  0  0  0
  161.8180  205.3530  154.1510 O   0  0  0  0  0  0  0  0  0  0  0  0
  160.9390  206.1860  152.1210 N   0  0  0  0  0  0  0  0  0  0  0  0
  161.1730  209.6110  153.5220 C   0  0  0  0  0  2  0  0  0  0  0  0
  163.0700  208.0410  150.8690 C   0  0  0  0  0  1  0  0  0  0  0  0
  160.6290  201.6750  150.6150 C   0  0  0  0  0  3  0  0  0  0  0  0
  160.6810  203.0310  150.2690 C   0  0  0  0  0  0  0  0  0  0  0  0
  161.6640  208.2930  150.3210 C   0  0  2  0  0  3  0  0  0  0  0  0
  160.3660  206.4600  146.4580 O   0  0  0  0  0  0  0  0  0  0  0  0
  160.3770  204.8980  144.6670 C   0  0  0  0  0  1  0  0  0  0  0  0
  160.5020  206.3510  145.0730 C   0  0  0  0  0  2  0  0  0  0  0  0
  1  5  1  6  0  0  0
  1 19  1  0  0  0  0
  1  4  1  0  0  0  0
  2 13  2  0  0  0  0
  2 19  1  0  0  0  0
  3 10  1  0  0  0  0
  4 20  1  0  0  0  0
  6  8  1  0  0  0  0
  7 15  1  0  0  0  0
  7  9  1  0  0  0  0
  8 12  1  0  0  0  0
  9 14  1  0  0  0  0
 10 21  2  0  0  0  0
 11  5  1  0  0  0  0
 11  8  1  0  0  0  0
 12  4  1  0  0  0  0
 12 27  1  0  0  0  0
 13 18  1  0  0  0  0
 15 23  1  0  0  0  0
 16  2  1  0  0  0  0
 17  3  1  0  0  0  0
 18 25  2  0  0  0  0
 19 26  2  0  0  0  0
 20 17  1  0  0  0  0
 20 22  1  0  0  0  0
 22  9  1  0  0  0  0
 22 10  1  0  0  0  0
 23 14  1  0  0  0  0
 26 25  1  0  0  0  0
 26 17  1  0  0  0  0
 27 24  1  0  0  0  0
 27  7  1  0  0  0  0
 28 11  1  0  0  0  0
 29 30  1  0  0  0  0
 30 28  1  0  0  0  0
M  END
>  <MODEL>
1

>  <REMARK>
 VINA RESULT:      -7.5      0.000      0.000
  Name = 
  2 active torsions:
  status: ('A' for Active; 'I' for Inactive)
    1  A    between atoms: C_11  and  O_28
    2  A    between atoms: O_28  and  C_30
                            x       y       z     vdW  Elec       q    Type
                         _______ _______ _______ _____ _____    ______ ____

>  <TORSDO>
F 2

$$$$
=
 OpenBabel11122412353D

 30 35  0  0  1  0  0  0  0  0999 V2000
  161.3130  207.5910  151.4420 C   0  0  1  0  0  3  0  0  0  0  0  0
  162.0760  209.9790  150.9470 C   0  0  0  0  0  0  0  0  0  0  0  0
  161.8940  206.6740  147.4690 N   0  0  0  0  0  2  0  0  0  0  0  0
  161.5040  206.1890  150.8390 C   0  0  1  0  0  3  0  0  0  0  0  0
  162.0530  207.6890  152.6420 O   0  0  0  0  0  0  0  0  0  0  0  0
  160.8710  204.6230  154.2000 O   0  0  0  0  0  1  0  0  0  0  0  0
  160.2560  203.1670  150.4050 C   0  0  1  0  0  3  0  0  0  0  0  0
  161.5440  205.4030  153.2570 C   0  0  2  0  0  3  0  0  0  0  0  0
  160.5300  203.5640  148.9500 C   0  0  2  0  0  3  0  0  0  0  0  0
  161.9040  205.2770  147.6480 C   0  0  0  0  0  0  0  0  0  0  0  0
  161.4390  206.8840  153.6260 C   0  0  2  0  0  3  0  0  0  0  0  0
  160.9870  205.1440  151.8520 C   0  0  2  0  0  3  0  0  0  0  0  0
  162.3950  210.9920  150.0410 C   0  0  0  0  0  3  0  0  0  0  0  0
  161.3030  202.3990  148.3670 C   0  0  0  0  0  2  0  0  0  0  0  0
  160.2450  201.6460  150.4230 C   0  0  0  0  0  2  0  0  0  0  0  0
  162.1190  210.2720  152.3050 O   0  0  0  0  0  1  0  0  0  0  0  0
  161.0340  207.2090  148.5150 C   0  0  1  0  0  3  0  0  0  0  0  0
  162.3120  210.7650  148.6710 C   0  0  0  0  0  3  0  0  0  0  0  0
  161.7030  208.6940  150.4810 C   0  0  0  0  0  0  0  0  0  0  0  0
  160.7610  206.0470  149.5070 C   0  0  1  0  0  3  0  0  0  0  0  0
  162.4640  204.4970  146.8360 O   0  0  0  0  0  0  0  0  0  0  0  0
  161.2330  204.8450  148.8230 N   0  0  0  0  0  0  0  0  0  0  0  0
  160.7520  201.1760  149.0680 C   0  0  0  0  0  2  0  0  0  0  0  0
  162.7290  203.4120  151.1160 C   0  0  0  0  0  1  0  0  0  0  0  0
  161.8950  209.5230  148.1980 C   0  0  0  0  0  3  0  0  0  0  0  0
  161.5850  208.4860  149.0880 C   0  0  0  0  0  0  0  0  0  0  0  0
  161.2620  203.6900  151.4450 C   0  0  2  0  0  3  0  0  0  0  0  0
  160.1100  207.2720  153.8550 O   0  0  0  0  0  0  0  0  0  0  0  0
  159.8080  207.2910  156.2120 C   0  0  0  0  0  1  0  0  0  0  0  0
  160.1670  208.0950  154.9800 C   0  0  0  0  0  2  0  0  0  0  0  0
  1 19  1  6  0  0  0
  1  5  1  0  0  0  0
  2 16  1  0  0  0  0
  3 10  1  0  0  0  0
  3 17  1  0  0  0  0
  4  1  1  0  0  0  0
  4 12  1  0  0  0  0
  5 11  1  0  0  0  0
  7 15  1  0  0  0  0
  7 27  1  0  0  0  0
  8 11  1  0  0  0  0
  8  6  1  0  0  0  0
  9  7  1  0  0  0  0
 10 22  1  0  0  0  0
 11 28  1  0  0  0  0
 12  8  1  0  0  0  0
 13  2  2  0  0  0  0
 14  9  1  0  0  0  0
 14 23  1  0  0  0  0
 17 26  1  0  0  0  0
 17 20  1  0  0  0  0
 18 13  1  0  0  0  0
 19  2  1  0  0  0  0
 20  4  1  0  0  0  0
 21 10  2  0  0  0  0
 22  9  1  0  0  0  0
 22 20  1  0  0  0  0
 23 15  1  0  0  0  0
 24 27  1  0  0  0  0
 25 18  2  0  0  0  0
 25 26  1  0  0  0  0
 26 19  2  0  0  0  0
 27 12  1  0  0  0  0
 28 30  1  0  0  0  0
 30 29  1  0  0  0  0
M  END
>  <MODEL>
2

>  <REMARK>
 VINA RESULT:      -6.6      2.113      7.005
  Name = 
  2 active torsions:
  status: ('A' for Active; 'I' for Inactive)
    1  A    between atoms: C_11  and  O_28
    2  A    between atoms: O_28  and  C_30
                            x       y       z     vdW  Elec       q    Type
                         _______ _______ _______ _____ _____    ______ ____

>  <TORSDO>
F 2

$$$$
=
 OpenBabel11122412353D

 30 35  0  0  1  0  0  0  0  0999 V2000
  161.1260  203.7620  148.0490 C   0  0  1  0  0  3  0  0  0  0  0  0
  161.0230  201.2830  148.6620 C   0  0  0  0  0  0  0  0  0  0  0  0
  161.2810  204.6600  152.0650 N   0  0  0  0  0  2  0  0  0  0  0  0
  161.6350  205.0690  148.6810 C   0  0  1  0  0  3  0  0  0  0  0  0
  161.9920  203.3830  146.9980 O   0  0  0  0  0  0  0  0  0  0  0  0
  162.0910  206.5800  145.2680 O   0  0  0  0  0  1  0  0  0  0  0  0
  161.3210  208.3440  148.9000 C   0  0  1  0  0  3  0  0  0  0  0  0
  162.3230  205.6820  146.3120 C   0  0  2  0  0  3  0  0  0  0  0  0
  161.2100  207.9570  150.3790 C   0  0  2  0  0  3  0  0  0  0  0  0
  161.7500  205.9760  151.8960 C   0  0  0  0  0  0  0  0  0  0  0  0
  161.8310  204.2860  145.9240 C   0  0  2  0  0  3  0  0  0  0  0  0
  161.6430  206.1680  147.5970 C   0  0  2  0  0  3  0  0  0  0  0  0
  160.8570  200.2680  149.6060 C   0  0  0  0  0  3  0  0  0  0  0  0
  162.1930  208.8610  151.0940 C   0  0  0  0  0  2  0  0  0  0  0  0
  161.7820  209.7950  148.8860 C   0  0  0  0  0  2  0  0  0  0  0  0
  161.2030  200.9220  147.3310 O   0  0  0  0  0  1  0  0  0  0  0  0
  160.4870  204.3580  150.8830 C   0  0  1  0  0  3  0  0  0  0  0  0
  160.6180  200.5790  150.9410 C   0  0  0  0  0  3  0  0  0  0  0  0
  160.9900  202.6430  149.0600 C   0  0  0  0  0  0  0  0  0  0  0  0
  160.7570  205.4970  149.8620 C   0  0  1  0  0  3  0  0  0  0  0  0
  162.3770  206.5910  152.7980 O   0  0  0  0  0  0  0  0  0  0  0  0
  161.4530  206.5320  150.6230 N   0  0  0  0  0  0  0  0  0  0  0  0
  162.1710  210.1560  150.3110 C   0  0  0  0  0  2  0  0  0  0  0  0
  163.6820  207.3250  148.6360 C   0  0  0  0  0  1  0  0  0  0  0  0
  160.5290  201.9110  151.3370 C   0  0  0  0  0  3  0  0  0  0  0  0
  160.7080  202.9470  150.4110 C   0  0  0  0  0  0  0  0  0  0  0  0
  162.2780  207.4890  148.0520 C   0  0  2  0  0  3  0  0  0  0  0  0
  160.5060  204.3080  145.4630 O   0  0  0  0  0  0  0  0  0  0  0  0
  159.7050  202.1440  144.8910 C   0  0  0  0  0  1  0  0  0  0  0  0
  160.4700  203.3670  144.4320 C   0  0  0  0  0  2  0  0  0  0  0  0
  1  5  1  6  0  0  0
  1  4  1  0  0  0  0
  1 19  1  0  0  0  0
  2 19  2  0  0  0  0
  2 13  1  0  0  0  0
  4 20  1  0  0  0  0
  6  8  1  0  0  0  0
  7  9  1  0  0  0  0
  8 12  1  0  0  0  0
  9 22  1  0  0  0  0
  9 14  1  0  0  0  0
 10  3  1  0  0  0  0
 10 21  2  0  0  0  0
 11  8  1  0  0  0  0
 11  5  1  0  0  0  0
 12 27  1  0  0  0  0
 12  4  1  0  0  0  0
 13 18  2  0  0  0  0
 15  7  1  0  0  0  0
 15 23  1  0  0  0  0
 16  2  1  0  0  0  0
 17  3  1  0  0  0  0
 18 25  1  0  0  0  0
 19 26  1  0  0  0  0
 20 22  1  0  0  0  0
 20 17  1  0  0  0  0
 22 10  1  0  0  0  0
 23 14  1  0  0  0  0
 26 17  1  0  0  0  0
 26 25  2  0  0  0  0
 27 24  1  0  0  0  0
 27  7  1  0  0  0  0
 28 11  1  0  0  0  0
 30 29  1  0  0  0  0
 30 28  1  0  0  0  0
M  END
>  <MODEL>
3

>  <REMARK>
 VINA RESULT:      -5.1      1.518      2.089
  Name = 
  2 active torsions:
  status: ('A' for Active; 'I' for Inactive)
    1  A    between atoms: C_11  and  O_28
    2  A    between atoms: O_28  and  C_30
                            x       y       z     vdW  Elec       q    Type
                         _______ _______ _______ _____ _____    ______ ____

>  <TORSDO>
F 2

$$$$
=
 OpenBabel11122412353D

 30 35  0  0  1  0  0  0  0  0999 V2000
  161.4650  208.1090  149.1420 C   0  0  1  0  0  3  0  0  0  0  0  0
  161.8940  206.1110  147.6090 C   0  0  0  0  0  0  0  0  0  0  0  0
  161.1240  205.4960  152.3080 N   0  0  0  0  0  2  0  0  0  0  0  0
  161.6120  208.4480  150.6360 C   0  0  1  0  0  3  0  0  0  0  0  0
  162.4660  208.7850  148.4090 O   0  0  0  0  0  0  0  0  0  0  0  0
  161.9460  212.1010  149.8060 O   0  0  0  0  0  1  0  0  0  0  0  0
  160.5350  210.2380  153.1880 C   0  0  1  0  0  3  0  0  0  0  0  0
  162.3040  210.7510  149.8130 C   0  0  2  0  0  3  0  0  0  0  0  0
  160.4120  208.8250  153.7700 C   0  0  2  0  0  3  0  0  0  0  0  0
  161.2870  206.4710  153.3110 C   0  0  0  0  0  0  0  0  0  0  0  0
  162.1770  210.1670  148.4040 C   0  0  2  0  0  3  0  0  0  0  0  0
  161.4420  209.9730  150.8120 C   0  0  2  0  0  3  0  0  0  0  0  0
  161.9020  204.7340  147.3750 C   0  0  0  0  0  3  0  0  0  0  0  0
  161.1070  208.8950  155.1150 C   0  0  0  0  0  2  0  0  0  0  0  0
  160.6480  211.1690  154.3860 C   0  0  0  0  0  2  0  0  0  0  0  0
  162.2460  206.9580  146.5640 O   0  0  0  0  0  1  0  0  0  0  0  0
  160.5070  206.1780  151.1790 C   0  0  1  0  0  3  0  0  0  0  0  0
  161.5030  203.8480  148.3710 C   0  0  0  0  0  3  0  0  0  0  0  0
  161.5200  206.6190  148.8770 C   0  0  0  0  0  0  0  0  0  0  0  0
  160.5770  207.6990  151.4830 C   0  0  1  0  0  3  0  0  0  0  0  0
  161.6900  206.1860  154.4690 O   0  0  0  0  0  0  0  0  0  0  0  0
  160.9600  207.7870  152.8910 N   0  0  0  0  0  0  0  0  0  0  0  0
  160.8420  210.2980  155.6170 C   0  0  0  0  0  2  0  0  0  0  0  0
  163.0800  210.0330  152.7840 C   0  0  0  0  0  1  0  0  0  0  0  0
  161.0810  204.3370  149.6050 C   0  0  0  0  0  3  0  0  0  0  0  0
  161.0810  205.7130  149.8690 C   0  0  0  0  0  0  0  0  0  0  0  0
  161.7210  210.4710  152.2370 C   0  0  2  0  0  3  0  0  0  0  0  0
  160.9190  210.4290  147.8410 O   0  0  0  0  0  0  0  0  0  0  0  0
  159.7080  212.2400  146.8940 C   0  0  0  0  0  1  0  0  0  0  0  0
  161.0710  211.6460  147.1760 C   0  0  0  0  0  2  0  0  0  0  0  0
  1  5  1  6  0  0  0
  1  4  1  0  0  0  0
  2 19  1  0  0  0  0
  3 10  1  0  0  0  0
  4 12  1  0  0  0  0
  4 20  1  0  0  0  0
  6  8  1  0  0  0  0
  7  9  1  0  0  0  0
  7 15  1  0  0  0  0
  8 12  1  0  0  0  0
  9 14  1  0  0  0  0
 10 21  2  0  0  0  0
 11  5  1  0  0  0  0
 11  8  1  0  0  0  0
 12 27  1  0  0  0  0
 13  2  2  0  0  0  0
 13 18  1  0  0  0  0
 14 23  1  0  0  0  0
 15 23  1  0  0  0  0
 16  2  1  0  0  0  0
 17 20  1  0  0  0  0
 17  3  1  0  0  0  0
 18 25  2  0  0  0  0
 19  1  1  0  0  0  0
 19 26  2  0  0  0  0
 20 22  1  0  0  0  0
 22 10  1  0  0  0  0
 22  9  1  0  0  0  0
 25 26  1  0  0  0  0
 26 17  1  0  0  0  0
 27 24  1  0  0  0  0
 27  7  1  0  0  0  0
 28 11  1  0  0  0  0
 29 30  1  0  0  0  0
 30 28  1  0  0  0  0
M  END
>  <MODEL>
4

>  <REMARK>
 VINA RESULT:      -5.0      2.022      3.398
  Name = 
  2 active torsions:
  status: ('A' for Active; 'I' for Inactive)
    1  A    between atoms: C_11  and  O_28
    2  A    between atoms: O_28  and  C_30
                            x       y       z     vdW  Elec       q    Type
                         _______ _______ _______ _____ _____    ______ ____

>  <TORSDO>
F 2

$$$$
=
 OpenBabel11122412353D

 30 35  0  0  1  0  0  0  0  0999 V2000
  160.3500  211.4810  153.0560 C   0  0  1  0  0  3  0  0  0  0  0  0
  161.6450  210.9690  150.9140 C   0  0  0  0  0  0  0  0  0  0  0  0
  157.9420  214.0240  150.8880 N   0  0  0  0  0  2  0  0  0  0  0  0
  158.9450  211.9730  153.4440 C   0  0  1  0  0  3  0  0  0  0  0  0
  160.4630  210.1050  153.3580 O   0  0  0  0  0  0  0  0  0  0  0  0
  159.2280  210.2490  156.7750 O   0  0  0  0  0  1  0  0  0  0  0  0
  157.0800  213.5680  155.6480 C   0  0  1  0  0  3  0  0  0  0  0  0
  159.1570  210.3430  155.3830 C   0  0  2  0  0  3  0  0  0  0  0  0
  156.7390  214.3550  154.3770 C   0  0  2  0  0  3  0  0  0  0  0  0
  156.9090  214.0870  151.8430 C   0  0  0  0  0  0  0  0  0  0  0  0
  160.4970  209.9450  154.7600 C   0  0  2  0  0  3  0  0  0  0  0  0
  158.7520  211.7600  154.9610 C   0  0  2  0  0  3  0  0  0  0  0  0
  161.9530  211.2480  149.5810 C   0  0  0  0  0  3  0  0  0  0  0  0
  155.2250  214.3980  154.3400 C   0  0  0  0  0  2  0  0  0  0  0  0
  155.9050  213.7770  156.5910 C   0  0  0  0  0  2  0  0  0  0  0  0
  162.3270  209.9350  151.5450 O   0  0  0  0  0  1  0  0  0  0  0  0
  159.1710  213.8030  151.6360 C   0  0  1  0  0  3  0  0  0  0  0  0
  161.3390  212.3080  148.9210 C   0  0  0  0  0  3  0  0  0  0  0  0
  160.6720  211.7380  151.5980 C   0  0  0  0  0  0  0  0  0  0  0  0
  158.7520  213.4520  153.0890 C   0  0  1  0  0  3  0  0  0  0  0  0
  155.7250  214.3850  151.5390 O   0  0  0  0  0  0  0  0  0  0  0  0
  157.3300  213.7790  153.1640 N   0  0  0  0  0  0  0  0  0  0  0  0
  154.8020  214.4530  155.7920 C   0  0  0  0  0  2  0  0  0  0  0  0
  156.2400  211.3210  154.6870 C   0  0  0  0  0  1  0  0  0  0  0  0
  160.4200  213.1060  149.5990 C   0  0  0  0  0  3  0  0  0  0  0  0
  160.0820  212.8360  150.9310 C   0  0  0  0  0  0  0  0  0  0  0  0
  157.3320  212.0630  155.4590 C   0  0  2  0  0  3  0  0  0  0  0  0
  161.5680  210.6470  155.3340 O   0  0  0  0  0  0  0  0  0  0  0  0
  163.0460  210.4110  157.1790 C   0  0  0  0  0  1  0  0  0  0  0  0
  162.2380  209.7030  156.1130 C   0  0  0  0  0  2  0  0  0  0  0  0
  1 19  1  6  0  0  0
  1  5  1  0  0  0  0
  1  4  1  0  0  0  0
  2 16  1  0  0  0  0
  2 19  1  0  0  0  0
  3 17  1  0  0  0  0
  3 10  1  0  0  0  0
  4 12  1  0  0  0  0
  5 11  1  0  0  0  0
  7 15  1  0  0  0  0
  8  6  1  0  0  0  0
  9  7  1  0  0  0  0
 10 22  1  0  0  0  0
 11 28  1  0  0  0  0
 11  8  1  0  0  0  0
 12  8  1  0  0  0  0
 12 27  1  0  0  0  0
 13  2  2  0  0  0  0
 14  9  1  0  0  0  0
 14 23  1  0  0  0  0
 17 20  1  0  0  0  0
 18 13  1  0  0  0  0
 18 25  2  0  0  0  0
 20 22  1  0  0  0  0
 20  4  1  0  0  0  0
 21 10  2  0  0  0  0
 22  9  1  0  0  0  0
 23 15  1  0  0  0  0
 24 27  1  0  0  0  0
 25 26  1  0  0  0  0
 26 19  2  0  0  0  0
 26 17  1  0  0  0  0
 27  7  1  0  0  0  0
 28 30  1  0  0  0  0
 30 29  1  0  0  0  0
M  END
>  <MODEL>
5

>  <REMARK>
 VINA RESULT:      -4.9      6.562      9.409
  Name = 
  2 active torsions:
  status: ('A' for Active; 'I' for Inactive)
    1  A    between atoms: C_11  and  O_28
    2  A    between atoms: O_28  and  C_30
                            x       y       z     vdW  Elec       q    Type
                         _______ _______ _______ _____ _____    ______ ____

>  <TORSDO>
F 2

$$$$
=
 OpenBabel11122412353D

 30 35  0  0  1  0  0  0  0  0999 V2000
  161.3690  203.5860  147.7910 C   0  0  1  0  0  3  0  0  0  0  0  0
  160.9890  203.6520  145.2650 C   0  0  0  0  0  0  0  0  0  0  0  0
  161.7690  207.6850  147.7500 N   0  0  0  0  0  2  0  0  0  0  0  0
  161.2130  204.5380  148.9890 C   0  0  1  0  0  3  0  0  0  0  0  0
  160.3530  202.6050  147.8370 O   0  0  0  0  0  0  0  0  0  0  0  0
  160.7930  201.6050  151.3050 O   0  0  0  0  0  1  0  0  0  0  0  0
  162.2440  205.3870  152.0040 C   0  0  1  0  0  3  0  0  0  0  0  0
  160.4660  202.4620  150.2510 C   0  0  2  0  0  3  0  0  0  0  0  0
  162.4000  206.7250  151.2720 C   0  0  2  0  0  3  0  0  0  0  0  0
  161.5820  207.8570  149.1350 C   0  0  0  0  0  0  0  0  0  0  0  0
  160.6090  201.7310  148.9150 C   0  0  2  0  0  3  0  0  0  0  0  0
  161.3460  203.7170  150.2900 C   0  0  2  0  0  3  0  0  0  0  0  0
  161.0150  204.3340  144.0470 C   0  0  0  0  0  3  0  0  0  0  0  0
  161.7020  207.7380  152.1570 C   0  0  0  0  0  2  0  0  0  0  0  0
  162.1080  205.7370  153.4790 C   0  0  0  0  0  2  0  0  0  0  0  0
  160.6180  202.3120  145.2620 O   0  0  0  0  0  1  0  0  0  0  0  0
  162.3700  206.3700  147.5840 C   0  0  1  0  0  3  0  0  0  0  0  0
  161.4330  205.6600  143.9890 C   0  0  0  0  0  3  0  0  0  0  0  0
  161.3500  204.3150  146.4640 C   0  0  0  0  0  0  0  0  0  0  0  0
  162.2640  205.6530  148.9570 C   0  0  1  0  0  3  0  0  0  0  0  0
  161.1840  208.9430  149.6330 O   0  0  0  0  0  0  0  0  0  0  0  0
  161.8780  206.6990  149.9020 N   0  0  0  0  0  0  0  0  0  0  0  0
  161.9330  207.2450  153.5690 C   0  0  0  0  0  2  0  0  0  0  0  0
  159.7050  205.2370  151.5430 C   0  0  0  0  0  1  0  0  0  0  0  0
  161.8420  206.3080  145.1530 C   0  0  0  0  0  3  0  0  0  0  0  0
  161.8090  205.6500  146.3890 C   0  0  0  0  0  0  0  0  0  0  0  0
  161.0540  204.5170  151.5660 C   0  0  2  0  0  3  0  0  0  0  0  0
  161.8610  201.1100  148.7900 O   0  0  0  0  0  0  0  0  0  0  0  0
  161.5880  199.8390  146.8010 C   0  0  0  0  0  1  0  0  0  0  0  0
  161.5800  199.8280  148.3140 C   0  0  0  0  0  2  0  0  0  0  0  0
  1 19  1  6  0  0  0
  1  5  1  0  0  0  0
  1  4  1  0  0  0  0
  2 19  1  0  0  0  0
  3 10  1  0  0  0  0
  4 12  1  0  0  0  0
  5 11  1  0  0  0  0
  7 15  1  0  0  0  0
  8 12  1  0  0  0  0
  8  6  1  0  0  0  0
  9  7  1  0  0  0  0
  9 14  1  0  0  0  0
 10 21  2  0  0  0  0
 10 22  1  0  0  0  0
 11  8  1  0  0  0  0
 12 27  1  0  0  0  0
 13  2  2  0  0  0  0
 14 23  1  0  0  0  0
 15 23  1  0  0  0  0
 16  2  1  0  0  0  0
 17  3  1  0  0  0  0
 17 20  1  0  0  0  0
 18 13  1  0  0  0  0
 18 25  2  0  0  0  0
 20  4  1  0  0  0  0
 20 22  1  0  0  0  0
 22  9  1  0  0  0  0
 24 27  1  0  0  0  0
 25 26  1  0  0  0  0
 26 19  2  0  0  0  0
 26 17  1  0  0  0  0
 27  7  1  0  0  0  0
 28 11  1  0  0  0  0
 29 30  1  0  0  0  0
 30 28  1  0  0  0  0
M  END
>  <MODEL>
6

>  <REMARK>
 VINA RESULT:      -4.6      1.970      4.736
  Name = 
  2 active torsions:
  status: ('A' for Active; 'I' for Inactive)
    1  A    between atoms: C_11  and  O_28
    2  A    between atoms: O_28  and  C_30
                            x       y       z     vdW  Elec       q    Type
                         _______ _______ _______ _____ _____    ______ ____

>  <TORSDO>
F 2

$$$$
