=
 OpenBabel11122412593D

 32 37  0  0  1  0  0  0  0  0999 V2000
  159.5410  210.9880  153.1890 C   0  0  0  0  0  0  0  0  0  0  0  0
  158.4370  213.5930  149.3400 C   0  0  0  0  0  3  0  0  0  0  0  0
  157.5160  214.4530  150.1240 C   0  0  0  0  0  3  0  0  0  0  0  0
  158.0410  211.0170  155.1140 C   0  0  0  0  0  0  0  0  0  0  0  0
  156.9310  211.6070  155.7200 C   0  0  0  0  0  0  0  0  0  0  0  0
  161.6180  209.5220  153.2850 C   0  0  2  0  0  3  0  0  0  0  0  0
  161.4820  211.4490  151.6820 C   0  0  0  0  0  2  0  0  0  0  0  0
  155.1320  212.9940  156.0810 C   0  0  1  0  0  3  0  0  0  0  0  0
  159.3120  212.7840  149.9500 C   0  0  0  0  0  3  0  0  0  0  0  0
  160.0620  211.6060  151.9900 N   0  0  0  0  0  0  0  0  0  0  0  0
  159.4570  212.8260  151.4530 C   0  0  0  0  0  0  0  0  0  0  0  0
  157.7930  212.6680  153.2950 C   0  0  0  0  0  0  0  0  0  0  0  0
  155.2770  212.1060  157.2590 N   0  0  0  0  0  0  0  0  0  0  0  0
  161.9530  210.0030  151.8630 C   0  0  2  0  0  3  0  0  0  0  0  0
  156.3640  211.2600  156.9620 N   0  0  0  0  0  0  0  0  0  0  0  0
  157.3710  214.2740  151.4410 C   0  0  0  0  0  2  0  0  0  0  0  0
  158.1680  213.2220  152.1280 C   0  0  0  0  0  0  0  0  0  0  0  0
  156.6530  213.1890  153.9620 C   0  0  0  0  0  3  0  0  0  0  0  0
  160.1170  209.6390  153.5680 C   0  0  0  0  0  2  0  0  0  0  0  0
  158.6780  209.9740  155.7790 O   0  0  0  0  0  1  0  0  0  0  0  0
  155.2080  214.4490  156.5000 C   0  0  0  0  0  1  0  0  0  0  0  0
  158.4980  211.5480  153.8660 C   0  0  0  0  0  0  0  0  0  0  0  0
  156.2600  212.6310  155.1690 C   0  0  0  0  0  0  0  0  0  0  0  0
  162.0790  209.0400  149.6290 O   0  0  0  0  0  0  0  0  0  0  0  0
  161.3310  209.0680  150.8240 C   0  0  1  0  0  3  0  0  0  0  0  0
  162.2810  207.9800  150.5290 C   0  0  1  0  0  3  0  0  0  0  0  0
  161.5210  206.8000  150.1160 N   0  0  0  0  0  2  0  0  0  0  0  0
  161.3020  205.6850  150.9800 C   0  0  0  0  0  0  0  0  0  0  0  0
  161.7040  205.7130  152.4160 C   0  0  0  0  0  1  0  0  0  0  0  0
  160.7490  204.6490  150.5230 O   0  0  0  0  0  0  0  0  0  0  0  0
  161.8950  209.8900  155.7510 C   0  0  0  0  0  1  0  0  0  0  0  0
  162.3990  210.2690  154.3670 C   0  0  0  0  0  2  0  0  0  0  0  0
  1 19  1  0  0  0  0
  1 22  2  0  0  0  0
  2  9  1  0  0  0  0
  2  3  2  0  0  0  0
  3 16  1  0  0  0  0
  4  5  2  0  0  0  0
  4 20  1  0  0  0  0
  5 15  1  0  0  0  0
  6 19  1  0  0  0  0
  6 32  1  1  0  0  0
  7 10  1  0  0  0  0
  8 21  1  1  0  0  0
  8 13  1  0  0  0  0
  9 11  2  0  0  0  0
 10  1  1  0  0  0  0
 11 10  1  0  0  0  0
 11 17  1  0  0  0  0
 12 22  1  0  0  0  0
 12 18  1  0  0  0  0
 14  7  1  6  0  0  0
 14  6  1  0  0  0  0
 15 13  2  0  0  0  0
 16 17  1  0  0  0  0
 17 12  2  0  0  0  0
 18 23  2  0  0  0  0
 22  4  1  0  0  0  0
 23  5  1  0  0  0  0
 23  8  1  0  0  0  0
 24 26  1  0  0  0  0
 25 24  1  6  0  0  0
 25 14  1  0  0  0  0
 26 27  1  6  0  0  0
 26 25  1  0  0  0  0
 27 28  1  0  0  0  0
 28 29  1  0  0  0  0
 30 28  2  0  0  0  0
 32 31  1  0  0  0  0
M  END
>  <MODEL>
1

>  <REMARK>
 VINA RESULT:      -4.8      0.000      0.000
  Name = 
  3 active torsions:
  status: ('A' for Active; 'I' for Inactive)
    1  A    between atoms: C_7  and  C_19
    2  A    between atoms: C_10  and  C_17
    3  A    between atoms: C_20  and  N_29
                            x       y       z     vdW  Elec       q    Type
                         _______ _______ _______ _____ _____    ______ ____

>  <TORSDO>
F 3

$$$$
=
 OpenBabel11122412593D

 32 37  0  0  1  0  0  0  0  0999 V2000
  160.8280  208.6970  152.0380 C   0  0  0  0  0  0  0  0  0  0  0  0
  160.0590  208.2710  156.7340 C   0  0  0  0  0  3  0  0  0  0  0  0
  160.4690  206.8450  156.7230 C   0  0  0  0  0  3  0  0  0  0  0  0
  160.9030  206.6850  150.6590 C   0  0  0  0  0  0  0  0  0  0  0  0
  160.9400  205.2900  150.6300 C   0  0  0  0  0  0  0  0  0  0  0  0
  161.1100  210.9600  150.9100 C   0  0  2  0  0  3  0  0  0  0  0  0
  161.5330  210.6930  153.3700 C   0  0  0  0  0  2  0  0  0  0  0  0
  160.9860  203.1020  151.3350 C   0  0  1  0  0  3  0  0  0  0  0  0
  160.3260  209.0720  155.6960 C   0  0  0  0  0  3  0  0  0  0  0  0
  160.9620  209.3480  153.3230 N   0  0  0  0  0  0  0  0  0  0  0  0
  161.1580  208.5640  154.5430 C   0  0  2  0  0  3  0  0  0  0  0  0
  160.9750  206.5300  153.1220 C   0  0  0  0  0  0  0  0  0  0  0  0
  161.0500  203.1140  149.8540 N   0  0  0  0  0  0  0  0  0  0  0  0
  160.9390  211.6080  152.2950 C   0  0  2  0  0  3  0  0  0  0  0  0
  160.9790  204.4710  149.4850 N   0  0  0  0  0  0  0  0  0  0  0  0
  160.9000  206.2670  155.5960 C   0  0  0  0  0  3  0  0  0  0  0  0
  160.9970  207.0770  154.3510 C   0  0  0  0  0  0  0  0  0  0  0  0
  160.9780  205.1160  153.0050 C   0  0  0  0  0  3  0  0  0  0  0  0
  160.4550  209.5760  150.8630 C   0  0  0  0  0  2  0  0  0  0  0  0
  160.9030  207.3700  149.4480 O   0  0  0  0  0  1  0  0  0  0  0  0
  162.1900  202.3840  151.9130 C   0  0  0  0  0  1  0  0  0  0  0  0
  160.9180  207.3400  151.9320 C   0  0  0  0  0  0  0  0  0  0  0  0
  160.9620  204.5400  151.7430 C   0  0  0  0  0  0  0  0  0  0  0  0
  159.3030  212.8580  153.5950 O   0  0  0  0  0  0  0  0  0  0  0  0
  159.4640  211.9140  152.5600 C   0  0  1  0  0  3  0  0  0  0  0  0
  159.2140  213.3390  152.2780 C   0  0  1  0  0  3  0  0  0  0  0  0
  157.8140  213.4940  151.8790 N   0  0  0  0  0  2  0  0  0  0  0  0
  157.4220  213.7470  150.5300 C   0  0  0  0  0  0  0  0  0  0  0  0
  158.4050  213.7200  149.4080 C   0  0  0  0  0  1  0  0  0  0  0  0
  156.2140  213.9950  150.2740 O   0  0  0  0  0  0  0  0  0  0  0  0
  162.7280  211.1510  149.0020 C   0  0  0  0  0  1  0  0  0  0  0  0
  162.5740  210.8420  150.4830 C   0  0  0  0  0  2  0  0  0  0  0  0
  1 10  1  0  0  0  0
  3  2  1  0  0  0  0
  4 22  1  0  0  0  0
  5  4  2  0  0  0  0
  5 23  1  0  0  0  0
  6 32  1  1  0  0  0
  6 14  1  0  0  0  0
  8 23  1  0  0  0  0
  8 21  1  1  0  0  0
  9  2  2  0  0  0  0
 10  7  1  0  0  0  0
 10 11  1  0  0  0  0
 11  9  1  1  0  0  0
 12 17  2  0  0  0  0
 13  8  1  0  0  0  0
 14 25  1  0  0  0  0
 14  7  1  1  0  0  0
 15 13  2  0  0  0  0
 15  5  1  0  0  0  0
 16  3  2  0  0  0  0
 17 11  1  0  0  0  0
 17 16  1  0  0  0  0
 18 12  1  0  0  0  0
 19  6  1  0  0  0  0
 19  1  1  0  0  0  0
 20  4  1  0  0  0  0
 22  1  2  0  0  0  0
 22 12  1  0  0  0  0
 23 18  2  0  0  0  0
 25 24  1  1  0  0  0
 26 27  1  1  0  0  0
 26 25  1  0  0  0  0
 26 24  1  0  0  0  0
 28 27  1  0  0  0  0
 29 28  1  0  0  0  0
 30 28  2  0  0  0  0
 31 32  1  0  0  0  0
M  END
>  <MODEL>
2

>  <REMARK>
 VINA RESULT:      -4.5      2.862      8.005
  Name = 
  3 active torsions:
  status: ('A' for Active; 'I' for Inactive)
    1  A    between atoms: C_7  and  C_19
    2  A    between atoms: C_10  and  C_17
    3  A    between atoms: C_20  and  N_29
                            x       y       z     vdW  Elec       q    Type
                         _______ _______ _______ _____ _____    ______ ____

>  <TORSDO>
F 3

$$$$
=
 OpenBabel11122412593D

 32 37  0  0  1  0  0  0  0  0999 V2000
  161.0610  208.6260  151.3380 C   0  0  0  0  0  0  0  0  0  0  0  0
  161.3450  212.1560  148.1330 C   0  0  0  0  0  3  0  0  0  0  0  0
  161.2130  213.1920  149.1870 C   0  0  0  0  0  3  0  0  0  0  0  0
  160.0900  209.0850  153.5290 C   0  0  0  0  0  0  0  0  0  0  0  0
  159.6260  210.0540  154.4210 C   0  0  0  0  0  0  0  0  0  0  0  0
  161.8380  206.2590  150.8220 C   0  0  2  0  0  3  0  0  0  0  0  0
  162.7200  208.2120  149.5130 C   0  0  0  0  0  2  0  0  0  0  0  0
  159.0690  212.1000  155.3120 C   0  0  1  0  0  3  0  0  0  0  0  0
  161.6180  210.8840  148.4470 C   0  0  0  0  0  3  0  0  0  0  0  0
  161.7200  209.0790  150.1330 N   0  0  0  0  0  0  0  0  0  0  0  0
  161.9150  210.5070  149.8790 C   0  0  2  0  0  3  0  0  0  0  0  0
  160.6930  210.9310  152.0040 C   0  0  0  0  0  0  0  0  0  0  0  0
  158.7750  211.0570  156.3240 N   0  0  0  0  0  0  0  0  0  0  0  0
  162.2440  206.7580  149.4250 C   0  0  2  0  0  3  0  0  0  0  0  0
  159.0980  209.8320  155.7080 N   0  0  0  0  0  0  0  0  0  0  0  0
  161.1280  212.8470  150.4760 C   0  0  0  0  0  3  0  0  0  0  0  0
  161.2010  211.4090  150.8540 C   0  0  0  0  0  0  0  0  0  0  0  0
  160.1720  211.8480  152.9530 C   0  0  0  0  0  3  0  0  0  0  0  0
  160.7480  207.1470  151.4310 C   0  0  0  0  0  2  0  0  0  0  0  0
  160.0390  207.7510  153.9210 O   0  0  0  0  0  1  0  0  0  0  0  0
  160.0460  213.1180  155.8670 C   0  0  0  0  0  1  0  0  0  0  0  0
  160.6400  209.5170  152.2810 C   0  0  0  0  0  0  0  0  0  0  0  0
  159.6510  211.3680  154.1460 C   0  0  0  0  0  0  0  0  0  0  0  0
  160.9870  207.6940  147.5610 O   0  0  0  0  0  0  0  0  0  0  0  0
  161.0820  206.5990  148.4440 C   0  0  1  0  0  3  0  0  0  0  0  0
  161.6180  206.5380  147.0730 C   0  0  1  0  0  3  0  0  0  0  0  0
  160.6950  205.7560  146.2480 N   0  0  0  0  0  2  0  0  0  0  0  0
  161.1350  204.7060  145.3870 C   0  0  0  0  0  0  0  0  0  0  0  0
  162.5490  204.2330  145.3840 C   0  0  0  0  0  1  0  0  0  0  0  0
  160.3080  204.1570  144.6110 O   0  0  0  0  0  0  0  0  0  0  0  0
  162.5400  205.8200  153.1900 C   0  0  0  0  0  1  0  0  0  0  0  0
  163.0190  206.1700  151.7900 C   0  0  0  0  0  2  0  0  0  0  0  0
  1 19  1  0  0  0  0
  1 22  2  0  0  0  0
  2  9  2  0  0  0  0
  2  3  1  0  0  0  0
  3 16  2  0  0  0  0
  4 20  1  0  0  0  0
  4  5  2  0  0  0  0
  5 15  1  0  0  0  0
  6 19  1  0  0  0  0
  6 32  1  1  0  0  0
  7 10  1  0  0  0  0
  8 21  1  1  0  0  0
  8 13  1  0  0  0  0
 10  1  1  0  0  0  0
 11  9  1  6  0  0  0
 11 10  1  0  0  0  0
 11 17  1  0  0  0  0
 12 22  1  0  0  0  0
 12 18  1  0  0  0  0
 14  7  1  1  0  0  0
 14  6  1  0  0  0  0
 15 13  2  0  0  0  0
 16 17  1  0  0  0  0
 17 12  2  0  0  0  0
 18 23  2  0  0  0  0
 22  4  1  0  0  0  0
 23  5  1  0  0  0  0
 23  8  1  0  0  0  0
 25 24  1  6  0  0  0
 25 14  1  0  0  0  0
 26 27  1  6  0  0  0
 26 24  1  0  0  0  0
 26 25  1  0  0  0  0
 28 27  1  0  0  0  0
 29 28  1  0  0  0  0
 30 28  2  0  0  0  0
 32 31  1  0  0  0  0
M  END
>  <MODEL>
3

>  <REMARK>
 VINA RESULT:      -4.4      2.735      4.110
  Name = 
  3 active torsions:
  status: ('A' for Active; 'I' for Inactive)
    1  A    between atoms: C_7  and  C_19
    2  A    between atoms: C_10  and  C_17
    3  A    between atoms: C_20  and  N_29
                            x       y       z     vdW  Elec       q    Type
                         _______ _______ _______ _____ _____    ______ ____

>  <TORSDO>
F 3

$$$$
=
 OpenBabel11122412593D

 32 37  0  0  1  0  0  0  0  0999 V2000
  161.4200  208.6040  149.9810 C   0  0  0  0  0  0  0  0  0  0  0  0
  160.4550  208.8860  154.6510 C   0  0  0  0  0  3  0  0  0  0  0  0
  160.6660  207.4290  154.8340 C   0  0  0  0  0  3  0  0  0  0  0  0
  161.2610  206.4410  148.8630 C   0  0  0  0  0  0  0  0  0  0  0  0
  161.1070  205.0610  149.0070 C   0  0  0  0  0  0  0  0  0  0  0  0
  162.0430  210.6470  148.5990 C   0  0  2  0  0  3  0  0  0  0  0  0
  162.3490  210.6430  151.0910 C   0  0  0  0  0  2  0  0  0  0  0  0
  160.8310  202.9930  149.9750 C   0  0  1  0  0  3  0  0  0  0  0  0
  160.8610  209.5060  153.5370 C   0  0  0  0  0  3  0  0  0  0  0  0
  161.6020  209.3910  151.1810 N   0  0  0  0  0  0  0  0  0  0  0  0
  161.6510  208.7500  152.4960 C   0  0  2  0  0  3  0  0  0  0  0  0
  161.2350  206.5930  151.3270 C   0  0  0  0  0  0  0  0  0  0  0  0
  160.9420  202.8080  148.5090 N   0  0  0  0  0  0  0  0  0  0  0  0
  161.9200  211.4840  149.8840 C   0  0  2  0  0  3  0  0  0  0  0  0
  161.0690  204.1050  147.9740 N   0  0  0  0  0  0  0  0  0  0  0  0
  161.0480  206.6610  153.8080 C   0  0  0  0  0  3  0  0  0  0  0  0
  161.2940  207.2840  152.4800 C   0  0  0  0  0  0  0  0  0  0  0  0
  161.0480  205.1870  151.3840 C   0  0  0  0  0  3  0  0  0  0  0  0
  161.2060  209.3670  148.6900 C   0  0  0  0  0  2  0  0  0  0  0  0
  161.3920  206.9590  147.5790 O   0  0  0  0  0  1  0  0  0  0  0  0
  161.9080  202.2030  150.6940 C   0  0  0  0  0  1  0  0  0  0  0  0
  161.3260  207.2450  150.0450 C   0  0  0  0  0  0  0  0  0  0  0  0
  160.9920  204.4620  150.2030 C   0  0  0  0  0  0  0  0  0  0  0  0
  160.4570  213.2090  150.7850 O   0  0  0  0  0  0  0  0  0  0  0  0
  160.4930  212.0130  150.0400 C   0  0  1  0  0  3  0  0  0  0  0  0
  160.3990  213.3310  149.3860 C   0  0  1  0  0  3  0  0  0  0  0  0
  159.0190  213.5310  148.9430 N   0  0  0  0  0  2  0  0  0  0  0  0
  158.6080  213.3270  147.5900 C   0  0  0  0  0  0  0  0  0  0  0  0
  159.5290  212.7470  146.5700 C   0  0  0  0  0  1  0  0  0  0  0  0
  157.4370  213.6370  147.2470 O   0  0  0  0  0  0  0  0  0  0  0  0
  164.1930  211.4530  147.5880 C   0  0  0  0  0  1  0  0  0  0  0  0
  163.4900  210.2840  148.2600 C   0  0  0  0  0  2  0  0  0  0  0  0
  1 22  2  0  0  0  0
  1 10  1  0  0  0  0
  2  3  1  0  0  0  0
  4  5  2  0  0  0  0
  4 22  1  0  0  0  0
  5 23  1  0  0  0  0
  6 32  1  1  0  0  0
  6 19  1  0  0  0  0
  6 14  1  0  0  0  0
  7 10  1  0  0  0  0
  8 23  1  0  0  0  0
  8 21  1  1  0  0  0
  9  2  2  0  0  0  0
 10 11  1  0  0  0  0
 11  9  1  1  0  0  0
 12 18  1  0  0  0  0
 12 17  2  0  0  0  0
 13  8  1  0  0  0  0
 14 25  1  0  0  0  0
 14  7  1  1  0  0  0
 15 13  2  0  0  0  0
 15  5  1  0  0  0  0
 16  3  2  0  0  0  0
 17 11  1  0  0  0  0
 17 16  1  0  0  0  0
 19  1  1  0  0  0  0
 20  4  1  0  0  0  0
 22 12  1  0  0  0  0
 23 18  2  0  0  0  0
 25 24  1  1  0  0  0
 26 27  1  1  0  0  0
 26 25  1  0  0  0  0
 26 24  1  0  0  0  0
 28 27  1  0  0  0  0
 29 28  1  0  0  0  0
 30 28  2  0  0  0  0
 31 32  1  0  0  0  0
M  END
>  <MODEL>
4

>  <REMARK>
 VINA RESULT:      -4.1      4.041      8.279
  Name = 
  3 active torsions:
  status: ('A' for Active; 'I' for Inactive)
    1  A    between atoms: C_7  and  C_19
    2  A    between atoms: C_10  and  C_17
    3  A    between atoms: C_20  and  N_29
                            x       y       z     vdW  Elec       q    Type
                         _______ _______ _______ _____ _____    ______ ____

>  <TORSDO>
F 3

$$$$
=
 OpenBabel11122412593D

 32 37  0  0  1  0  0  0  0  0999 V2000
  160.8320  208.5980  152.0280 C   0  0  0  0  0  0  0  0  0  0  0  0
  160.0150  208.2170  156.7190 C   0  0  0  0  0  3  0  0  0  0  0  0
  160.4560  206.8010  156.7320 C   0  0  0  0  0  3  0  0  0  0  0  0
  160.9670  206.5700  150.6770 C   0  0  0  0  0  0  0  0  0  0  0  0
  161.0350  205.1760  150.6670 C   0  0  0  0  0  0  0  0  0  0  0  0
  161.0790  210.8510  150.8720 C   0  0  2  0  0  3  0  0  0  0  0  0
  161.4770  210.6270  153.3410 C   0  0  0  0  0  2  0  0  0  0  0  0
  161.1190  202.9990  151.4020 C   0  0  1  0  0  3  0  0  0  0  0  0
  160.2770  209.0110  155.6740 C   0  0  0  0  0  3  0  0  0  0  0  0
  160.9360  209.2690  153.3050 N   0  0  0  0  0  0  0  0  0  0  0  0
  161.1340  208.5050  154.5380 C   0  0  2  0  0  3  0  0  0  0  0  0
  161.0120  206.4490  153.1420 C   0  0  0  0  0  0  0  0  0  0  0  0
  161.2020  202.9920  149.9220 N   0  0  0  0  0  0  0  0  0  0  0  0
  160.8760  211.5140  152.2460 C   0  0  2  0  0  3  0  0  0  0  0  0
  161.1050  204.3430  149.5340 N   0  0  0  0  0  0  0  0  0  0  0  0
  160.9130  206.2180  155.6190 C   0  0  0  0  0  3  0  0  0  0  0  0
  161.0080  207.0130  154.3640 C   0  0  0  0  0  0  0  0  0  0  0  0
  161.0480  205.0340  153.0440 C   0  0  0  0  0  3  0  0  0  0  0  0
  160.4540  209.4520  150.8360 C   0  0  0  0  0  2  0  0  0  0  0  0
  160.9670  207.2390  149.4570 O   0  0  0  0  0  1  0  0  0  0  0  0
  162.3320  202.3160  152.0040 C   0  0  0  0  0  1  0  0  0  0  0  0
  160.9530  207.2420  151.9400 C   0  0  0  0  0  0  0  0  0  0  0  0
  161.0600  204.4410  151.7900 C   0  0  0  0  0  0  0  0  0  0  0  0
  159.1330  212.1060  153.8390 O   0  0  0  0  0  0  0  0  0  0  0  0
  159.3920  211.7910  152.4900 C   0  0  1  0  0  3  0  0  0  0  0  0
  159.2350  213.1850  152.9440 C   0  0  1  0  0  3  0  0  0  0  0  0
  157.9070  213.6540  152.5480 N   0  0  0  0  0  2  0  0  0  0  0  0
  156.9670  214.1830  153.4850 C   0  0  0  0  0  0  0  0  0  0  0  0
  157.3350  214.4350  154.9080 C   0  0  0  0  0  1  0  0  0  0  0  0
  155.7980  214.4520  153.1020 O   0  0  0  0  0  0  0  0  0  0  0  0
  162.7040  210.9510  148.9640 C   0  0  0  0  0  1  0  0  0  0  0  0
  162.5500  210.7600  150.4650 C   0  0  0  0  0  2  0  0  0  0  0  0
  1 10  1  0  0  0  0
  2  3  1  0  0  0  0
  4 22  1  0  0  0  0
  5  4  2  0  0  0  0
  5 23  1  0  0  0  0
  6 32  1  1  0  0  0
  6 14  1  0  0  0  0
  8 23  1  0  0  0  0
  8 21  1  1  0  0  0
  9  2  2  0  0  0  0
 10  7  1  0  0  0  0
 10 11  1  0  0  0  0
 11  9  1  1  0  0  0
 12 17  2  0  0  0  0
 13  8  1  0  0  0  0
 14 25  1  0  0  0  0
 14  7  1  1  0  0  0
 15 13  2  0  0  0  0
 15  5  1  0  0  0  0
 16  3  2  0  0  0  0
 17 11  1  0  0  0  0
 17 16  1  0  0  0  0
 18 12  1  0  0  0  0
 19  6  1  0  0  0  0
 19  1  1  0  0  0  0
 20  4  1  0  0  0  0
 22  1  2  0  0  0  0
 22 12  1  0  0  0  0
 23 18  2  0  0  0  0
 25 26  1  0  0  0  0
 25 24  1  1  0  0  0
 26 27  1  6  0  0  0
 26 24  1  0  0  0  0
 27 28  1  0  0  0  0
 28 29  1  0  0  0  0
 30 28  2  0  0  0  0
 31 32  1  0  0  0  0
M  END
>  <MODEL>
5

>  <REMARK>
 VINA RESULT:      -4.1      2.503      8.162
  Name = 
  3 active torsions:
  status: ('A' for Active; 'I' for Inactive)
    1  A    between atoms: C_7  and  C_19
    2  A    between atoms: C_10  and  C_17
    3  A    between atoms: C_20  and  N_29
                            x       y       z     vdW  Elec       q    Type
                         _______ _______ _______ _____ _____    ______ ____

>  <TORSDO>
F 3

$$$$
=
 OpenBabel11122412593D

 32 37  0  0  1  0  0  0  0  0999 V2000
  161.0670  211.5920  149.9230 C   0  0  0  0  0  0  0  0  0  0  0  0
  157.8410  214.4130  152.0340 C   0  0  0  0  0  3  0  0  0  0  0  0
  158.0130  213.7200  153.3350 C   0  0  0  0  0  3  0  0  0  0  0  0
  161.6240  209.4490  150.9490 C   0  0  0  0  0  0  0  0  0  0  0  0
  161.4980  208.6210  152.0650 C   0  0  0  0  0  0  0  0  0  0  0  0
  162.1910  212.2210  147.7290 C   0  0  2  0  0  3  0  0  0  0  0  0
  161.1830  213.9850  149.2050 C   0  0  0  0  0  2  0  0  0  0  0  0
  160.8850  207.8550  154.1450 C   0  0  1  0  0  3  0  0  0  0  0  0
  158.7230  214.2420  151.0420 C   0  0  0  0  0  3  0  0  0  0  0  0
  160.5670  212.9450  150.0270 N   0  0  0  0  0  0  0  0  0  0  0  0
  159.9750  213.4310  151.2740 C   0  0  2  0  0  3  0  0  0  0  0  0
  160.3370  211.1470  152.1940 C   0  0  0  0  0  0  0  0  0  0  0  0
  161.7390  206.8260  153.5050 N   0  0  0  0  0  0  0  0  0  0  0  0
  161.3820  213.5300  147.7560 C   0  0  2  0  0  3  0  0  0  0  0  0
  162.0460  207.3340  152.2270 N   0  0  0  0  0  0  0  0  0  0  0  0
  158.9070  212.7360  153.4710 C   0  0  0  0  0  3  0  0  0  0  0  0
  159.7600  212.3570  152.3120 C   0  0  0  0  0  0  0  0  0  0  0  0
  160.2280  210.2330  153.2740 C   0  0  0  0  0  3  0  0  0  0  0  0
  161.4990  211.1270  148.5480 C   0  0  0  0  0  2  0  0  0  0  0  0
  162.3620  208.9850  149.8640 O   0  0  0  0  0  1  0  0  0  0  0  0
  161.4880  208.3000  155.4640 C   0  0  0  0  0  1  0  0  0  0  0  0
  161.0320  210.7510  150.9960 C   0  0  0  0  0  0  0  0  0  0  0  0
  160.8240  208.9840  153.1680 C   0  0  0  0  0  0  0  0  0  0  0  0
  159.1950  214.4530  147.2130 O   0  0  0  0  0  0  0  0  0  0  0  0
  160.0480  213.3460  147.0300 C   0  0  1  0  0  3  0  0  0  0  0  0
  159.9120  214.3970  146.0060 C   0  0  1  0  0  3  0  0  0  0  0  0
  159.0660  213.8870  144.9270 N   0  0  0  0  0  2  0  0  0  0  0  0
  159.6020  213.2780  143.7520 C   0  0  0  0  0  0  0  0  0  0  0  0
  161.0580  212.9840  143.6140 C   0  0  0  0  0  1  0  0  0  0  0  0
  158.8290  212.9740  142.8050 O   0  0  0  0  0  0  0  0  0  0  0  0
  164.5770  211.5000  147.4520 C   0  0  0  0  0  1  0  0  0  0  0  0
  163.6260  212.3980  148.2280 C   0  0  0  0  0  2  0  0  0  0  0  0
  1 10  1  0  0  0  0
  1 22  2  0  0  0  0
  2  3  1  0  0  0  0
  3 16  2  0  0  0  0
  4 22  1  0  0  0  0
  4  5  2  0  0  0  0
  5 15  1  0  0  0  0
  5 23  1  0  0  0  0
  6 14  1  0  0  0  0
  6 32  1  1  0  0  0
  6 19  1  0  0  0  0
  7 10  1  0  0  0  0
  8 21  1  1  0  0  0
  9  2  2  0  0  0  0
 10 11  1  0  0  0  0
 11  9  1  6  0  0  0
 11 17  1  0  0  0  0
 12 17  2  0  0  0  0
 12 18  1  0  0  0  0
 13  8  1  0  0  0  0
 14  7  1  1  0  0  0
 15 13  2  0  0  0  0
 17 16  1  0  0  0  0
 19  1  1  0  0  0  0
 20  4  1  0  0  0  0
 22 12  1  0  0  0  0
 23 18  2  0  0  0  0
 23  8  1  0  0  0  0
 25 24  1  1  0  0  0
 25 14  1  0  0  0  0
 26 27  1  6  0  0  0
 26 25  1  0  0  0  0
 26 24  1  0  0  0  0
 28 27  1  0  0  0  0
 29 28  1  0  0  0  0
 30 28  2  0  0  0  0
 31 32  1  0  0  0  0
M  END
>  <MODEL>
6

>  <REMARK>
 VINA RESULT:      -4.0      3.514      6.610
  Name = 
  3 active torsions:
  status: ('A' for Active; 'I' for Inactive)
    1  A    between atoms: C_7  and  C_19
    2  A    between atoms: C_10  and  C_17
    3  A    between atoms: C_20  and  N_29
                            x       y       z     vdW  Elec       q    Type
                         _______ _______ _______ _____ _____    ______ ____

>  <TORSDO>
F 3

$$$$
=
 OpenBabel11122412593D

 32 37  0  0  1  0  0  0  0  0999 V2000
  161.2370  207.6030  150.3150 C   0  0  0  0  0  0  0  0  0  0  0  0
  160.8310  203.7680  153.1340 C   0  0  0  0  0  3  0  0  0  0  0  0
  161.1350  202.8480  152.0110 C   0  0  0  0  0  3  0  0  0  0  0  0
  161.0500  207.3260  147.8980 C   0  0  0  0  0  0  0  0  0  0  0  0
  160.9830  206.4330  146.8260 C   0  0  0  0  0  0  0  0  0  0  0  0
  161.5870  209.9440  151.2490 C   0  0  2  0  0  3  0  0  0  0  0  0
  162.1920  207.9180  152.6040 C   0  0  0  0  0  2  0  0  0  0  0  0
  160.9280  204.4670  145.6360 C   0  0  1  0  0  3  0  0  0  0  0  0
  161.0680  205.0820  153.0320 C   0  0  0  0  0  3  0  0  0  0  0  0
  161.5240  207.0630  151.6260 N   0  0  0  0  0  0  0  0  0  0  0  0
  161.7630  205.6310  151.8090 C   0  0  0  0  0  0  0  0  0  0  0  0
  161.3150  205.3670  149.3760 C   0  0  0  0  0  0  0  0  0  0  0  0
  160.8700  205.5940  144.6740 N   0  0  0  0  0  0  0  0  0  0  0  0
  161.5790  209.3210  152.6560 C   0  0  2  0  0  3  0  0  0  0  0  0
  160.8670  206.7610  145.4620 N   0  0  0  0  0  0  0  0  0  0  0  0
  161.4270  203.3260  150.7970 C   0  0  0  0  0  2  0  0  0  0  0  0
  161.4790  204.7980  150.5840 C   0  0  0  0  0  0  0  0  0  0  0  0
  161.2060  204.5280  148.2360 C   0  0  0  0  0  3  0  0  0  0  0  0
  160.8310  209.0610  150.2510 C   0  0  0  0  0  2  0  0  0  0  0  0
  160.9990  208.6890  147.6240 O   0  0  0  0  0  1  0  0  0  0  0  0
  162.1220  203.5780  145.3420 C   0  0  0  0  0  1  0  0  0  0  0  0
  161.2180  206.7960  149.2160 C   0  0  0  0  0  0  0  0  0  0  0  0
  161.0430  205.1020  146.9840 C   0  0  0  0  0  0  0  0  0  0  0  0
  160.1300  208.8360  154.5520 O   0  0  0  0  0  0  0  0  0  0  0  0
  160.1580  209.2990  153.2210 C   0  0  1  0  0  3  0  0  0  0  0  0
  160.0820  210.2280  154.3630 C   0  0  1  0  0  3  0  0  0  0  0  0
  158.7080  210.7170  154.4730 N   0  0  0  0  0  2  0  0  0  0  0  0
  158.1590  211.2000  155.7000 C   0  0  0  0  0  0  0  0  0  0  0  0
  159.0000  211.3820  156.9180 C   0  0  0  0  0  1  0  0  0  0  0  0
  156.9340  211.4890  155.7580 O   0  0  0  0  0  0  0  0  0  0  0  0
  162.9460  211.0010  149.4260 C   0  0  0  0  0  1  0  0  0  0  0  0
  162.9980  210.2110  150.7240 C   0  0  0  0  0  2  0  0  0  0  0  0
  1 10  1  0  0  0  0
  3  2  2  0  0  0  0
  4 22  1  0  0  0  0
  5 23  1  0  0  0  0
  5  4  2  0  0  0  0
  6 32  1  6  0  0  0
  6 14  1  0  0  0  0
  8 21  1  6  0  0  0
  8 23  1  0  0  0  0
  9  2  1  0  0  0  0
 10 11  1  0  0  0  0
 10  7  1  0  0  0  0
 11  9  2  0  0  0  0
 12 17  2  0  0  0  0
 13 15  2  0  0  0  0
 13  8  1  0  0  0  0
 14  7  1  6  0  0  0
 14 25  1  0  0  0  0
 15  5  1  0  0  0  0
 16  3  1  0  0  0  0
 17 16  1  0  0  0  0
 17 11  1  0  0  0  0
 18 12  1  0  0  0  0
 19  1  1  0  0  0  0
 19  6  1  0  0  0  0
 20  4  1  0  0  0  0
 22 12  1  0  0  0  0
 22  1  2  0  0  0  0
 23 18  2  0  0  0  0
 25 26  1  0  0  0  0
 25 24  1  1  0  0  0
 26 27  1  6  0  0  0
 26 24  1  0  0  0  0
 27 28  1  0  0  0  0
 28 30  2  0  0  0  0
 28 29  1  0  0  0  0
 31 32  1  0  0  0  0
M  END
>  <MODEL>
7

>  <REMARK>
 VINA RESULT:      -4.0      3.050      9.105
  Name = 
  3 active torsions:
  status: ('A' for Active; 'I' for Inactive)
    1  A    between atoms: C_7  and  C_19
    2  A    between atoms: C_10  and  C_17
    3  A    between atoms: C_20  and  N_29
                            x       y       z     vdW  Elec       q    Type
                         _______ _______ _______ _____ _____    ______ ____

>  <TORSDO>
F 3

$$$$
=
 OpenBabel11122412593D

 32 37  0  0  1  0  0  0  0  0999 V2000
  160.7080  208.6250  152.4550 C   0  0  0  0  0  0  0  0  0  0  0  0
  161.8570  210.7850  148.3520 C   0  0  0  0  0  3  0  0  0  0  0  0
  161.6400  212.1290  148.9410 C   0  0  0  0  0  3  0  0  0  0  0  0
  159.4210  209.8530  154.1250 C   0  0  0  0  0  0  0  0  0  0  0  0
  158.9010  211.0860  154.5230 C   0  0  0  0  0  0  0  0  0  0  0  0
  161.3450  206.2100  152.9420 C   0  0  2  0  0  3  0  0  0  0  0  0
  162.6110  207.5510  151.2380 C   0  0  0  0  0  2  0  0  0  0  0  0
  158.3860  213.3270  154.5340 C   0  0  1  0  0  3  0  0  0  0  0  0
  161.9560  209.7000  149.1300 C   0  0  0  0  0  3  0  0  0  0  0  0
  161.6020  208.6060  151.3180 N   0  0  0  0  0  0  0  0  0  0  0  0
  161.9670  209.8470  150.6320 C   0  0  0  0  0  0  0  0  0  0  0  0
  160.4420  211.0240  152.2060 C   0  0  0  0  0  0  0  0  0  0  0  0
  157.8300  212.7170  155.7650 N   0  0  0  0  0  0  0  0  0  0  0  0
  162.0280  206.1720  151.5640 C   0  0  2  0  0  3  0  0  0  0  0  0
  158.1410  211.3460  155.6800 N   0  0  0  0  0  0  0  0  0  0  0  0
  161.3050  212.2650  150.2280 C   0  0  0  0  0  2  0  0  0  0  0  0
  161.1810  211.0520  151.0820 C   0  0  0  0  0  0  0  0  0  0  0  0
  159.8500  212.2300  152.6640 C   0  0  0  0  0  3  0  0  0  0  0  0
  160.2510  207.2820  152.9870 C   0  0  0  0  0  2  0  0  0  0  0  0
  159.1830  208.7450  154.9320 O   0  0  0  0  0  1  0  0  0  0  0  0
  159.3420  214.4520  154.8830 C   0  0  0  0  0  1  0  0  0  0  0  0
  160.2140  209.8020  152.9350 C   0  0  0  0  0  0  0  0  0  0  0  0
  159.0910  212.2160  153.8240 C   0  0  0  0  0  0  0  0  0  0  0  0
  161.5050  205.9930  149.1920 O   0  0  0  0  0  0  0  0  0  0  0  0
  161.0420  205.7050  150.4930 C   0  0  1  0  0  3  0  0  0  0  0  0
  161.6930  204.6800  149.6570 C   0  0  1  0  0  3  0  0  0  0  0  0
  160.6600  203.7910  149.1250 N   0  0  0  0  0  2  0  0  0  0  0  0
  160.4660  202.4610  149.6070 C   0  0  0  0  0  0  0  0  0  0  0  0
  161.2050  201.9410  150.7940 C   0  0  0  0  0  1  0  0  0  0  0  0
  159.6450  201.7060  149.0220 O   0  0  0  0  0  0  0  0  0  0  0  0
  161.6020  206.9450  155.3260 C   0  0  0  0  0  1  0  0  0  0  0  0
  162.3290  206.4410  154.0890 C   0  0  0  0  0  2  0  0  0  0  0  0
  1 22  2  0  0  0  0
  1 19  1  0  0  0  0
  2  3  2  0  0  0  0
  2  9  1  0  0  0  0
  3 16  1  0  0  0  0
  4  5  2  0  0  0  0
  4 20  1  0  0  0  0
  5 15  1  0  0  0  0
  6 19  1  0  0  0  0
  6 32  1  1  0  0  0
  7 10  1  0  0  0  0
  8 21  1  1  0  0  0
  8 13  1  0  0  0  0
  9 11  2  0  0  0  0
 10  1  1  0  0  0  0
 11 17  1  0  0  0  0
 11 10  1  0  0  0  0
 12 18  1  0  0  0  0
 12 22  1  0  0  0  0
 14  7  1  6  0  0  0
 14  6  1  0  0  0  0
 15 13  2  0  0  0  0
 16 17  1  0  0  0  0
 17 12  2  0  0  0  0
 18 23  2  0  0  0  0
 22  4  1  0  0  0  0
 23  5  1  0  0  0  0
 23  8  1  0  0  0  0
 24 26  1  0  0  0  0
 25 24  1  6  0  0  0
 25 14  1  0  0  0  0
 26 27  1  6  0  0  0
 26 25  1  0  0  0  0
 27 28  1  0  0  0  0
 28 29  1  0  0  0  0
 30 28  2  0  0  0  0
 32 31  1  0  0  0  0
M  END
>  <MODEL>
8

>  <REMARK>
 VINA RESULT:      -3.7      2.293      3.494
  Name = 
  3 active torsions:
  status: ('A' for Active; 'I' for Inactive)
    1  A    between atoms: C_7  and  C_19
    2  A    between atoms: C_10  and  C_17
    3  A    between atoms: C_20  and  N_29
                            x       y       z     vdW  Elec       q    Type
                         _______ _______ _______ _____ _____    ______ ____

>  <TORSDO>
F 3

$$$$
=
 OpenBabel11122412593D

 32 37  0  0  1  0  0  0  0  0999 V2000
  161.4600  208.3040  149.7340 C   0  0  0  0  0  0  0  0  0  0  0  0
  160.5750  207.3510  154.3310 C   0  0  0  0  0  3  0  0  0  0  0  0
  160.8320  205.9030  154.1320 C   0  0  0  0  0  3  0  0  0  0  0  0
  161.3430  206.4950  148.1010 C   0  0  0  0  0  0  0  0  0  0  0  0
  161.2320  205.1200  147.8880 C   0  0  0  0  0  0  0  0  0  0  0  0
  161.9980  210.6530  148.9150 C   0  0  2  0  0  3  0  0  0  0  0  0
  162.3510  210.0220  151.3200 C   0  0  0  0  0  2  0  0  0  0  0  0
  161.0350  202.8660  148.2980 C   0  0  1  0  0  3  0  0  0  0  0  0
  160.9420  208.2490  153.4090 C   0  0  0  0  0  3  0  0  0  0  0  0
  161.6420  208.7640  151.0940 N   0  0  0  0  0  0  0  0  0  0  0  0
  161.7340  207.8090  152.2000 C   0  0  2  0  0  3  0  0  0  0  0  0
  161.3590  206.0110  150.5220 C   0  0  0  0  0  0  0  0  0  0  0  0
  161.1240  203.0650  146.8310 N   0  0  0  0  0  0  0  0  0  0  0  0
  161.8740  211.1280  150.3730 C   0  0  2  0  0  3  0  0  0  0  0  0
  161.2020  204.4590  146.6450 N   0  0  0  0  0  0  0  0  0  0  0  0
  161.2170  205.4360  152.9400 C   0  0  0  0  0  3  0  0  0  0  0  0
  161.4200  206.3860  151.8130 C   0  0  0  0  0  0  0  0  0  0  0  0
  161.2150  204.6320  150.2190 C   0  0  0  0  0  3  0  0  0  0  0  0
  161.2000  209.3650  148.6850 C   0  0  0  0  0  2  0  0  0  0  0  0
  161.4350  207.3290  146.9910 O   0  0  0  0  0  1  0  0  0  0  0  0
  162.1480  201.9540  148.7780 C   0  0  0  0  0  1  0  0  0  0  0  0
  161.4070  206.9720  149.4490 C   0  0  0  0  0  0  0  0  0  0  0  0
  161.1580  204.2320  148.8920 C   0  0  0  0  0  0  0  0  0  0  0  0
  160.2380  211.7940  152.0490 O   0  0  0  0  0  0  0  0  0  0  0  0
  160.4370  211.5530  150.6740 C   0  0  1  0  0  3  0  0  0  0  0  0
  160.4480  212.9170  151.2320 C   0  0  1  0  0  3  0  0  0  0  0  0
  159.1760  213.5630  150.9060 N   0  0  0  0  0  2  0  0  0  0  0  0
  158.2660  214.0190  151.9070 C   0  0  0  0  0  0  0  0  0  0  0  0
  158.6210  214.0070  153.3550 C   0  0  0  0  0  1  0  0  0  0  0  0
  157.1340  214.4510  151.5620 O   0  0  0  0  0  0  0  0  0  0  0  0
  164.0240  211.7100  147.8810 C   0  0  0  0  0  1  0  0  0  0  0  0
  163.4480  210.4360  148.4800 C   0  0  0  0  0  2  0  0  0  0  0  0
  1 10  1  0  0  0  0
  3  2  1  0  0  0  0
  4 22  1  0  0  0  0
  5  4  2  0  0  0  0
  5 23  1  0  0  0  0
  6 32  1  1  0  0  0
  6 14  1  0  0  0  0
  8 21  1  1  0  0  0
  8 23  1  0  0  0  0
  9  2  2  0  0  0  0
 10  7  1  0  0  0  0
 10 11  1  0  0  0  0
 11  9  1  1  0  0  0
 12 17  2  0  0  0  0
 13  8  1  0  0  0  0
 14 25  1  0  0  0  0
 14  7  1  1  0  0  0
 15 13  2  0  0  0  0
 15  5  1  0  0  0  0
 16  3  2  0  0  0  0
 17 11  1  0  0  0  0
 17 16  1  0  0  0  0
 18 12  1  0  0  0  0
 19  6  1  0  0  0  0
 19  1  1  0  0  0  0
 20  4  1  0  0  0  0
 22  1  2  0  0  0  0
 22 12  1  0  0  0  0
 23 18  2  0  0  0  0
 25 26  1  0  0  0  0
 25 24  1  1  0  0  0
 26 27  1  6  0  0  0
 26 24  1  0  0  0  0
 27 28  1  0  0  0  0
 28 29  1  0  0  0  0
 30 28  2  0  0  0  0
 31 32  1  0  0  0  0
M  END
>  <MODEL>
9

>  <REMARK>
 VINA RESULT:      -3.4      3.128      8.776
  Name = 
  3 active torsions:
  status: ('A' for Active; 'I' for Inactive)
    1  A    between atoms: C_7  and  C_19
    2  A    between atoms: C_10  and  C_17
    3  A    between atoms: C_20  and  N_29
                            x       y       z     vdW  Elec       q    Type
                         _______ _______ _______ _____ _____    ______ ____

>  <TORSDO>
F 3

$$$$
