=
 OpenBabel11122413243D

 31 35  0  0  1  0  0  0  0  0999 V2000
  162.2700  206.8320  137.9410 C   0  0  0  0  0  0  0  0  0  0  0  0
  161.4700  210.5480  137.8780 C   0  0  2  0  0  3  0  0  0  0  0  0
  159.9850  210.8500  137.8120 C   0  0  0  0  0  0  0  0  0  0  0  0
  157.6970  210.1460  137.3830 C   0  0  0  0  0  0  0  0  0  0  0  0
  161.7690  209.1610  138.3730 C   0  0  0  0  0  0  0  0  0  0  0  0
  162.3090  206.5840  139.3180 C   0  0  0  0  0  3  0  0  0  0  0  0
  159.0590  209.8490  137.4770 C   0  0  0  0  0  3  0  0  0  0  0  0
  162.1710  211.3510  140.2780 C   0  0  1  0  0  3  0  0  0  0  0  0
  162.5000  205.7970  137.0440 O   0  0  0  0  0  1  0  0  0  0  0  0
  160.4490  213.2190  138.3140 N   0  0  0  0  0  2  0  0  0  0  0  0
  156.7260  209.0730  137.0430 C   0  0  0  0  0  1  0  0  0  0  0  0
  161.5230  210.0240  140.7080 C   0  0  0  0  0  2  0  0  0  0  0  0
  162.2310  211.5830  138.7340 C   0  0  2  0  0  3  0  0  0  0  0  0
  161.9980  208.1190  137.4680 C   0  0  0  0  0  3  0  0  0  0  0  0
  157.2480  211.4490  137.6060 C   0  0  0  0  0  3  0  0  0  0  0  0
  161.8190  208.9140  139.7520 C   0  0  0  0  0  0  0  0  0  0  0  0
  162.0790  207.6240  140.2230 C   0  0  0  0  0  3  0  0  0  0  0  0
  161.8930  213.0060  138.2780 C   0  0  0  0  0  2  0  0  0  0  0  0
  159.5270  212.1710  138.0010 C   0  0  0  0  0  0  0  0  0  0  0  0
  158.1620  212.4600  137.9140 C   0  0  0  0  0  3  0  0  0  0  0  0
  162.7270  212.1800  142.9640 O   0  0  0  0  0  0  0  0  0  0  0  0
  161.8310  212.8030  142.3330 C   0  0  0  0  0  0  0  0  0  0  0  0
  161.5270  212.4550  140.9800 N   0  0  0  0  0  2  0  0  0  0  0  0
  160.3140  213.2310  145.7910 C   0  0  1  0  0  3  0  0  0  0  0  0
  161.8530  214.4490  144.2310 C   0  0  0  0  0  2  0  0  0  0  0  0
  158.9670  212.9630  142.3200 O   0  0  0  0  0  1  0  0  0  0  0  0
  160.2520  212.2990  146.9820 C   0  0  0  0  0  1  0  0  0  0  0  0
  161.7710  213.4990  145.4270 C   0  0  0  0  0  2  0  0  0  0  0  0
  159.6380  213.5350  143.4030 C   0  0  2  0  0  3  0  0  0  0  0  0
  161.0820  213.9060  143.0230 C   0  0  2  0  0  3  0  0  0  0  0  0
  159.5870  212.5990  144.6090 C   0  0  0  0  0  2  0  0  0  0  0  0
  1  6  1  0  0  0  0
  2  3  1  1  0  0  0
  2  5  1  0  0  0  0
  2 13  1  0  0  0  0
  3 19  1  0  0  0  0
  4  7  1  0  0  0  0
  4 15  2  0  0  0  0
  5 16  2  0  0  0  0
  6 17  2  0  0  0  0
  7  3  2  0  0  0  0
  8 12  1  0  0  0  0
  8 23  1  1  0  0  0
  9  1  1  0  0  0  0
 11  4  1  0  0  0  0
 13 18  1  1  0  0  0
 13  8  1  0  0  0  0
 14  1  2  0  0  0  0
 14  5  1  0  0  0  0
 15 20  1  0  0  0  0
 16 17  1  0  0  0  0
 16 12  1  0  0  0  0
 18 10  1  0  0  0  0
 19 10  1  0  0  0  0
 20 19  2  0  0  0  0
 22 21  2  0  0  0  0
 23 22  1  0  0  0  0
 24 27  1  1  0  0  0
 25 28  1  0  0  0  0
 28 24  1  0  0  0  0
 29 26  1  6  0  0  0
 29 31  1  0  0  0  0
 30 22  1  1  0  0  0
 30 29  1  0  0  0  0
 30 25  1  0  0  0  0
 31 24  1  0  0  0  0
M  END
>  <MODEL>
1

>  <REMARK>
 VINA RESULT:      -5.7      0.000      0.000
  Name = 
  2 active torsions:
  status: ('A' for Active; 'I' for Inactive)
    1  A    between atoms: C_5  and  C_30
    2  A    between atoms: C_10  and  N_16
                            x       y       z     vdW  Elec       q    Type
                         _______ _______ _______ _____ _____    ______ ____

>  <TORSDO>
F 2

$$$$
=
 OpenBabel11122413243D

 31 35  0  0  1  0  0  0  0  0999 V2000
  158.3040  214.0190  153.0060 C   0  0  0  0  0  0  0  0  0  0  0  0
  160.8180  213.3390  150.2370 C   0  0  2  0  0  3  0  0  0  0  0  0
  161.1890  211.8740  150.0980 C   0  0  0  0  0  0  0  0  0  0  0  0
  161.2570  209.6130  150.9890 C   0  0  0  0  0  0  0  0  0  0  0  0
  159.5210  213.5520  150.9670 C   0  0  0  0  0  0  0  0  0  0  0  0
  157.0960  213.9310  152.3070 C   0  0  0  0  0  3  0  0  0  0  0  0
  160.8770  210.9520  151.1100 C   0  0  0  0  0  3  0  0  0  0  0  0
  159.4530  213.8530  148.0530 C   0  0  1  0  0  3  0  0  0  0  0  0
  158.2980  214.2950  154.3670 O   0  0  0  0  0  1  0  0  0  0  0  0
  162.2970  212.3640  147.9500 N   0  0  0  0  0  2  0  0  0  0  0  0
  160.9060  208.6430  152.0590 C   0  0  0  0  0  1  0  0  0  0  0  0
  158.3260  213.1300  148.8100 C   0  0  0  0  0  2  0  0  0  0  0  0
  160.7700  214.0530  148.8690 C   0  0  2  0  0  3  0  0  0  0  0  0
  159.5170  213.8270  152.3370 C   0  0  0  0  0  3  0  0  0  0  0  0
  161.9660  209.1850  149.8650 C   0  0  0  0  0  3  0  0  0  0  0  0
  158.3100  213.4750  150.2640 C   0  0  0  0  0  0  0  0  0  0  0  0
  157.0980  213.6550  150.9360 C   0  0  0  0  0  3  0  0  0  0  0  0
  162.0640  213.7980  148.0880 C   0  0  0  0  0  2  0  0  0  0  0  0
  161.9380  211.4410  148.9830 C   0  0  0  0  0  0  0  0  0  0  0  0
  162.3070  210.0980  148.8640 C   0  0  0  0  0  3  0  0  0  0  0  0
  158.1170  214.4330  145.5840 O   0  0  0  0  0  0  0  0  0  0  0  0
  158.9670  213.5020  145.5850 C   0  0  0  0  0  0  0  0  0  0  0  0
  159.6880  213.1830  146.7780 N   0  0  0  0  0  2  0  0  0  0  0  0
  161.6360  213.5810  142.8820 C   0  0  1  0  0  3  0  0  0  0  0  0
  160.5080  211.9230  144.3860 C   0  0  0  0  0  2  0  0  0  0  0  0
  157.9930  214.3780  143.0330 O   0  0  0  0  0  1  0  0  0  0  0  0
  162.8630  214.4510  142.7070 C   0  0  0  0  0  1  0  0  0  0  0  0
  161.7350  212.8160  144.1970 C   0  0  0  0  0  2  0  0  0  0  0  0
  159.1410  213.5840  143.0440 C   0  0  2  0  0  3  0  0  0  0  0  0
  159.2060  212.7280  144.3210 C   0  0  2  0  0  3  0  0  0  0  0  0
  160.3860  214.4530  142.8750 C   0  0  0  0  0  2  0  0  0  0  0  0
  1  9  1  0  0  0  0
  2  3  1  6  0  0  0
  2  5  1  0  0  0  0
  3  7  1  0  0  0  0
  4  7  2  0  0  0  0
  4 11  1  0  0  0  0
  5 14  2  0  0  0  0
  6  1  2  0  0  0  0
  8 23  1  6  0  0  0
  8 12  1  0  0  0  0
  8 13  1  0  0  0  0
 10 18  1  0  0  0  0
 10 19  1  0  0  0  0
 12 16  1  0  0  0  0
 13 18  1  6  0  0  0
 13  2  1  0  0  0  0
 14  1  1  0  0  0  0
 15  4  1  0  0  0  0
 16 17  2  0  0  0  0
 16  5  1  0  0  0  0
 17  6  1  0  0  0  0
 19  3  2  0  0  0  0
 20 19  1  0  0  0  0
 20 15  2  0  0  0  0
 21 22  2  0  0  0  0
 22 23  1  0  0  0  0
 24 27  1  1  0  0  0
 24 28  1  0  0  0  0
 28 25  1  0  0  0  0
 29 26  1  1  0  0  0
 29 30  1  0  0  0  0
 30 25  1  0  0  0  0
 30 22  1  1  0  0  0
 31 24  1  0  0  0  0
 31 29  1  0  0  0  0
M  END
>  <MODEL>
2

>  <REMARK>
 VINA RESULT:      -3.9      5.591     10.943
  Name = 
  2 active torsions:
  status: ('A' for Active; 'I' for Inactive)
    1  A    between atoms: C_5  and  C_30
    2  A    between atoms: C_10  and  N_16
                            x       y       z     vdW  Elec       q    Type
                         _______ _______ _______ _____ _____    ______ ____

>  <TORSDO>
F 2

$$$$
=
 OpenBabel11122413243D

 31 35  0  0  1  0  0  0  0  0999 V2000
  162.5390  213.6880  147.5330 C   0  0  0  0  0  0  0  0  0  0  0  0
  159.8940  214.2600  150.2030 C   0  0  2  0  0  3  0  0  0  0  0  0
  158.4770  214.0140  149.7190 C   0  0  0  0  0  0  0  0  0  0  0  0
  156.8770  213.7240  147.9110 C   0  0  0  0  0  0  0  0  0  0  0  0
  160.9340  213.5980  149.3430 C   0  0  0  0  0  0  0  0  0  0  0  0
  162.8570  212.3420  147.7470 C   0  0  0  0  0  3  0  0  0  0  0  0
  158.1900  213.9130  148.3480 C   0  0  0  0  0  3  0  0  0  0  0  0
  160.3280  212.3050  151.9020 C   0  0  1  0  0  3  0  0  0  0  0  0
  163.1790  214.3990  146.5270 O   0  0  0  0  0  1  0  0  0  0  0  0
  157.6710  214.1030  152.0480 N   0  0  0  0  0  2  0  0  0  0  0  0
  156.5890  213.6030  146.4580 C   0  0  0  0  0  1  0  0  0  0  0  0
  160.5320  211.4830  150.6180 C   0  0  0  0  0  2  0  0  0  0  0  0
  160.0830  213.8310  151.6740 C   0  0  2  0  0  3  0  0  0  0  0  0
  161.5760  214.3150  148.3290 C   0  0  0  0  0  3  0  0  0  0  0  0
  155.8350  213.6490  148.8380 C   0  0  0  0  0  3  0  0  0  0  0  0
  161.2610  212.2530  149.5650 C   0  0  0  0  0  0  0  0  0  0  0  0
  162.2150  211.6230  148.7600 C   0  0  0  0  0  3  0  0  0  0  0  0
  158.9940  214.4530  152.5550 C   0  0  0  0  0  2  0  0  0  0  0  0
  157.4140  213.9740  150.6460 C   0  0  0  0  0  0  0  0  0  0  0  0
  156.1030  213.7750  150.2030 C   0  0  0  0  0  3  0  0  0  0  0  0
  160.5030  211.7060  154.6990 O   0  0  0  0  0  0  0  0  0  0  0  0
  159.4410  211.3920  154.1000 C   0  0  0  0  0  0  0  0  0  0  0  0
  159.2810  211.6900  152.7100 N   0  0  0  0  0  2  0  0  0  0  0  0
  156.8410  212.4980  156.6400 C   0  0  1  0  0  3  0  0  0  0  0  0
  156.9630  211.2280  154.4830 C   0  0  0  0  0  2  0  0  0  0  0  0
  159.8470  210.2880  156.7150 O   0  0  0  0  0  1  0  0  0  0  0  0
  156.5540  213.8490  157.2610 C   0  0  0  0  0  1  0  0  0  0  0  0
  156.6880  212.5880  155.1260 C   0  0  0  0  0  2  0  0  0  0  0  0
  158.5530  210.6950  156.3840 C   0  0  2  0  0  3  0  0  0  0  0  0
  158.3500  210.6940  154.8590 C   0  0  2  0  0  3  0  0  0  0  0  0
  158.2560  212.0610  157.0000 C   0  0  0  0  0  2  0  0  0  0  0  0
  1  6  2  0  0  0  0
  1 14  1  0  0  0  0
  2  5  1  6  0  0  0
  2 13  1  0  0  0  0
  3  2  1  0  0  0  0
  3 19  1  0  0  0  0
  4  7  1  0  0  0  0
  4 15  2  0  0  0  0
  5 16  1  0  0  0  0
  6 17  1  0  0  0  0
  7  3  2  0  0  0  0
  8 23  1  6  0  0  0
  9  1  1  0  0  0  0
 10 18  1  0  0  0  0
 11  4  1  0  0  0  0
 12  8  1  0  0  0  0
 13  8  1  0  0  0  0
 13 18  1  1  0  0  0
 14  5  2  0  0  0  0
 15 20  1  0  0  0  0
 16 12  1  0  0  0  0
 17 16  2  0  0  0  0
 19 10  1  0  0  0  0
 20 19  2  0  0  0  0
 22 21  2  0  0  0  0
 23 22  1  0  0  0  0
 24 31  1  0  0  0  0
 24 27  1  1  0  0  0
 25 30  1  0  0  0  0
 25 28  1  0  0  0  0
 28 24  1  0  0  0  0
 29 26  1  6  0  0  0
 29 31  1  0  0  0  0
 30 22  1  6  0  0  0
 30 29  1  0  0  0  0
M  END
>  <MODEL>
3

>  <REMARK>
 VINA RESULT:      -3.4      8.633     12.089
  Name = 
  2 active torsions:
  status: ('A' for Active; 'I' for Inactive)
    1  A    between atoms: C_5  and  C_30
    2  A    between atoms: C_10  and  N_16
                            x       y       z     vdW  Elec       q    Type
                         _______ _______ _______ _____ _____    ______ ____

>  <TORSDO>
F 2

$$$$
=
 OpenBabel11122413243D

 31 35  0  0  1  0  0  0  0  0999 V2000
  162.1000  206.0830  146.7020 C   0  0  0  0  0  0  0  0  0  0  0  0
  162.6320  208.4610  149.6200 C   0  0  2  0  0  3  0  0  0  0  0  0
  162.0000  209.8250  149.4160 C   0  0  0  0  0  0  0  0  0  0  0  0
  161.0190  211.5090  147.9620 C   0  0  0  0  0  0  0  0  0  0  0  0
  162.0440  207.4000  148.7320 C   0  0  0  0  0  0  0  0  0  0  0  0
  160.9240  205.4330  147.0900 C   0  0  0  0  0  3  0  0  0  0  0  0
  161.5650  210.2370  148.1460 C   0  0  0  0  0  3  0  0  0  0  0  0
  161.1990  207.3820  151.5380 C   0  0  1  0  0  3  0  0  0  0  0  0
  162.7110  205.7510  145.5000 O   0  0  0  0  0  1  0  0  0  0  0  0
  162.3890  210.3540  151.7930 N   0  0  0  0  0  2  0  0  0  0  0  0
  160.5480  211.9260  146.6160 C   0  0  0  0  0  1  0  0  0  0  0  0
  160.1960  207.1390  150.3980 C   0  0  0  0  0  2  0  0  0  0  0  0
  162.5600  208.0060  151.0940 C   0  0  2  0  0  3  0  0  0  0  0  0
  162.6590  207.0680  147.5210 C   0  0  0  0  0  3  0  0  0  0  0  0
  160.9170  212.3890  149.0410 C   0  0  0  0  0  3  0  0  0  0  0  0
  160.8710  206.7400  149.1260 C   0  0  0  0  0  0  0  0  0  0  0  0
  160.3070  205.7640  148.3000 C   0  0  0  0  0  3  0  0  0  0  0  0
  163.1050  209.1020  152.0170 C   0  0  0  0  0  2  0  0  0  0  0  0
  161.9260  210.7340  150.4940 C   0  0  0  0  0  0  0  0  0  0  0  0
  161.3700  212.0020  150.3050 C   0  0  0  0  0  3  0  0  0  0  0  0
  161.5540  206.9880  154.3540 O   0  0  0  0  0  0  0  0  0  0  0  0
  160.7530  207.8880  153.9860 C   0  0  0  0  0  0  0  0  0  0  0  0
  160.5540  208.1530  152.5950 N   0  0  0  0  0  2  0  0  0  0  0  0
  161.7750  210.2420  156.7890 C   0  0  1  0  0  3  0  0  0  0  0  0
  160.1950  210.1830  154.8440 C   0  0  0  0  0  2  0  0  0  0  0  0
  160.2180  206.8550  156.6080 O   0  0  0  0  0  1  0  0  0  0  0  0
  163.1350  210.7140  157.2580 C   0  0  0  0  0  1  0  0  0  0  0  0
  161.5700  210.6420  155.3320 C   0  0  0  0  0  2  0  0  0  0  0  0
  160.3100  208.2410  156.4700 C   0  0  2  0  0  3  0  0  0  0  0  0
  160.0050  208.6730  155.0250 C   0  0  2  0  0  3  0  0  0  0  0  0
  161.6820  208.7270  156.9350 C   0  0  0  0  0  2  0  0  0  0  0  0
  1  6  2  0  0  0  0
  1 14  1  0  0  0  0
  2  5  1  6  0  0  0
  2 13  1  0  0  0  0
  3  2  1  0  0  0  0
  3 19  1  0  0  0  0
  4  7  1  0  0  0  0
  4 15  2  0  0  0  0
  5 16  1  0  0  0  0
  6 17  1  0  0  0  0
  7  3  2  0  0  0  0
  8 23  1  1  0  0  0
  9  1  1  0  0  0  0
 10 18  1  0  0  0  0
 11  4  1  0  0  0  0
 12  8  1  0  0  0  0
 13  8  1  0  0  0  0
 13 18  1  1  0  0  0
 14  5  2  0  0  0  0
 15 20  1  0  0  0  0
 16 12  1  0  0  0  0
 17 16  2  0  0  0  0
 19 10  1  0  0  0  0
 20 19  2  0  0  0  0
 22 21  2  0  0  0  0
 23 22  1  0  0  0  0
 24 31  1  0  0  0  0
 24 27  1  6  0  0  0
 25 30  1  0  0  0  0
 25 28  1  0  0  0  0
 28 24  1  0  0  0  0
 29 26  1  6  0  0  0
 29 31  1  0  0  0  0
 30 22  1  6  0  0  0
 30 29  1  0  0  0  0
M  END
>  <MODEL>
4

>  <REMARK>
 VINA RESULT:      -3.3      7.868     11.732
  Name = 
  2 active torsions:
  status: ('A' for Active; 'I' for Inactive)
    1  A    between atoms: C_5  and  C_30
    2  A    between atoms: C_10  and  N_16
                            x       y       z     vdW  Elec       q    Type
                         _______ _______ _______ _____ _____    ______ ____

>  <TORSDO>
F 2

$$$$
=
 OpenBabel11122413243D

 31 35  0  0  1  0  0  0  0  0999 V2000
  161.2380  201.2820  149.0430 C   0  0  0  0  0  0  0  0  0  0  0  0
  162.2700  204.8550  149.8320 C   0  0  2  0  0  3  0  0  0  0  0  0
  161.7430  205.8740  148.8390 C   0  0  0  0  0  0  0  0  0  0  0  0
  160.7730  206.4190  146.6770 C   0  0  0  0  0  0  0  0  0  0  0  0
  161.5040  203.5620  149.8130 C   0  0  0  0  0  0  0  0  0  0  0  0
  160.0540  201.1700  149.7810 C   0  0  0  0  0  3  0  0  0  0  0  0
  161.2200  205.4700  147.6000 C   0  0  0  0  0  3  0  0  0  0  0  0
  160.9480  205.3840  152.0390 C   0  0  1  0  0  3  0  0  0  0  0  0
  161.6920  200.2040  148.2950 O   0  0  0  0  0  1  0  0  0  0  0  0
  162.4150  207.6950  150.3600 N   0  0  0  0  0  2  0  0  0  0  0  0
  160.2060  205.9780  145.3760 C   0  0  0  0  0  1  0  0  0  0  0  0
  159.8170  204.6270  151.3230 C   0  0  0  0  0  2  0  0  0  0  0  0
  162.3070  205.4170  151.2700 C   0  0  2  0  0  3  0  0  0  0  0  0
  161.9620  202.4780  149.0570 C   0  0  0  0  0  3  0  0  0  0  0  0
  160.8580  207.7800  146.9760 C   0  0  0  0  0  3  0  0  0  0  0  0
  160.3230  203.4450  150.5600 C   0  0  0  0  0  0  0  0  0  0  0  0
  159.5940  202.2530  150.5360 C   0  0  0  0  0  3  0  0  0  0  0  0
  163.0370  206.7650  151.2960 C   0  0  0  0  0  2  0  0  0  0  0  0
  161.8590  207.2520  149.1180 C   0  0  0  0  0  0  0  0  0  0  0  0
  161.4010  208.1960  148.1940 C   0  0  0  0  0  3  0  0  0  0  0  0
  161.5640  206.7690  154.4720 O   0  0  0  0  0  0  0  0  0  0  0  0
  160.8060  207.3450  153.6460 C   0  0  0  0  0  0  0  0  0  0  0  0
  160.4840  206.7190  152.4020 N   0  0  0  0  0  2  0  0  0  0  0  0
  162.1370  210.4080  155.4600 C   0  0  1  0  0  3  0  0  0  0  0  0
  161.0070  209.8250  153.2990 C   0  0  0  0  0  2  0  0  0  0  0  0
  159.4840  207.8720  156.1370 O   0  0  0  0  0  1  0  0  0  0  0  0
  163.4730  210.6840  156.1160 C   0  0  0  0  0  1  0  0  0  0  0  0
  162.3480  210.0970  153.9820 C   0  0  0  0  0  2  0  0  0  0  0  0
  160.1090  208.9460  155.5010 C   0  0  2  0  0  3  0  0  0  0  0  0
  160.2390  208.6920  153.9890 C   0  0  2  0  0  3  0  0  0  0  0  0
  161.4620  209.2300  156.1520 C   0  0  0  0  0  2  0  0  0  0  0  0
  1 14  2  0  0  0  0
  1  6  1  0  0  0  0
  2  3  1  6  0  0  0
  2 13  1  0  0  0  0
  3 19  1  0  0  0  0
  4 15  2  0  0  0  0
  4  7  1  0  0  0  0
  5  2  1  0  0  0  0
  5 16  2  0  0  0  0
  6 17  2  0  0  0  0
  7  3  2  0  0  0  0
  8 23  1  6  0  0  0
  9  1  1  0  0  0  0
 10 18  1  0  0  0  0
 11  4  1  0  0  0  0
 12  8  1  0  0  0  0
 13 18  1  6  0  0  0
 13  8  1  0  0  0  0
 14  5  1  0  0  0  0
 15 20  1  0  0  0  0
 16 12  1  0  0  0  0
 17 16  1  0  0  0  0
 19 10  1  0  0  0  0
 20 19  2  0  0  0  0
 22 21  2  0  0  0  0
 23 22  1  0  0  0  0
 24 27  1  1  0  0  0
 24 31  1  0  0  0  0
 25 28  1  0  0  0  0
 25 30  1  0  0  0  0
 28 24  1  0  0  0  0
 29 26  1  1  0  0  0
 29 31  1  0  0  0  0
 30 22  1  1  0  0  0
 30 29  1  0  0  0  0
M  END
>  <MODEL>
5

>  <REMARK>
 VINA RESULT:      -3.2      9.189     12.172
  Name = 
  2 active torsions:
  status: ('A' for Active; 'I' for Inactive)
    1  A    between atoms: C_5  and  C_30
    2  A    between atoms: C_10  and  N_16
                            x       y       z     vdW  Elec       q    Type
                         _______ _______ _______ _____ _____    ______ ____

>  <TORSDO>
F 2

$$$$
=
 OpenBabel11122413243D

 31 35  0  0  1  0  0  0  0  0999 V2000
  157.3350  214.0200  154.9510 C   0  0  0  0  0  0  0  0  0  0  0  0
  159.7110  213.6470  152.0070 C   0  0  2  0  0  3  0  0  0  0  0  0
  160.2680  212.2450  151.8490 C   0  0  0  0  0  0  0  0  0  0  0  0
  160.7080  210.0270  152.7420 C   0  0  0  0  0  0  0  0  0  0  0  0
  158.4540  213.6930  152.8300 C   0  0  0  0  0  0  0  0  0  0  0  0
  156.1020  213.7590  154.3430 C   0  0  0  0  0  3  0  0  0  0  0  0
  160.1590  211.3040  152.8840 C   0  0  0  0  0  3  0  0  0  0  0  0
  158.1350  213.9390  149.9270 C   0  0  1  0  0  3  0  0  0  0  0  0
  157.3900  214.3120  156.3070 O   0  0  0  0  0  1  0  0  0  0  0  0
  161.1400  212.8490  149.6220 N   0  0  0  0  0  2  0  0  0  0  0  0
  160.5710  209.0350  153.8400 C   0  0  0  0  0  1  0  0  0  0  0  0
  157.1750  213.0810  150.7680 C   0  0  0  0  0  2  0  0  0  0  0  0
  159.4670  214.3290  150.6430 C   0  0  2  0  0  3  0  0  0  0  0  0
  158.5110  213.9850  154.1960 C   0  0  0  0  0  3  0  0  0  0  0  0
  161.3860  209.6830  151.5710 C   0  0  0  0  0  3  0  0  0  0  0  0
  157.2170  213.4420  152.2180 C   0  0  0  0  0  0  0  0  0  0  0  0
  156.0440  213.4650  152.9770 C   0  0  0  0  0  3  0  0  0  0  0  0
  160.7240  214.2400  149.7700 C   0  0  0  0  0  2  0  0  0  0  0  0
  160.9860  211.9010  150.6830 C   0  0  0  0  0  0  0  0  0  0  0  0
  161.5250  210.6200  150.5430 C   0  0  0  0  0  3  0  0  0  0  0  0
  156.4920  214.2090  147.5940 O   0  0  0  0  0  0  0  0  0  0  0  0
  157.4910  213.4440  147.5210 C   0  0  0  0  0  0  0  0  0  0  0  0
  158.3660  213.2890  148.6420 N   0  0  0  0  0  2  0  0  0  0  0  0
  160.1960  213.5690  144.8550 C   0  0  1  0  0  3  0  0  0  0  0  0
  159.0480  211.8850  146.3140 C   0  0  0  0  0  2  0  0  0  0  0  0
  156.5520  214.3660  144.9720 O   0  0  0  0  0  1  0  0  0  0  0  0
  161.4250  214.4410  144.7120 C   0  0  0  0  0  1  0  0  0  0  0  0
  160.2770  212.7810  146.1580 C   0  0  0  0  0  2  0  0  0  0  0  0
  157.6990  213.5700  144.9850 C   0  0  2  0  0  3  0  0  0  0  0  0
  157.7460  212.6920  146.2470 C   0  0  2  0  0  3  0  0  0  0  0  0
  158.9460  214.4420  144.8470 C   0  0  0  0  0  2  0  0  0  0  0  0
  1  9  1  0  0  0  0
  2  3  1  6  0  0  0
  2  5  1  0  0  0  0
  3  7  1  0  0  0  0
  4  7  2  0  0  0  0
  4 11  1  0  0  0  0
  5 14  1  0  0  0  0
  6  1  1  0  0  0  0
  8 23  1  6  0  0  0
  8 13  1  0  0  0  0
  8 12  1  0  0  0  0
 10 18  1  0  0  0  0
 10 19  1  0  0  0  0
 12 16  1  0  0  0  0
 13 18  1  6  0  0  0
 13  2  1  0  0  0  0
 14  1  2  0  0  0  0
 15  4  1  0  0  0  0
 16  5  2  0  0  0  0
 16 17  1  0  0  0  0
 17  6  2  0  0  0  0
 19  3  2  0  0  0  0
 20 19  1  0  0  0  0
 20 15  2  0  0  0  0
 22 21  2  0  0  0  0
 22 23  1  0  0  0  0
 24 27  1  1  0  0  0
 24 28  1  0  0  0  0
 28 25  1  0  0  0  0
 29 26  1  1  0  0  0
 29 30  1  0  0  0  0
 30 25  1  0  0  0  0
 30 22  1  1  0  0  0
 31 24  1  0  0  0  0
 31 29  1  0  0  0  0
M  END
>  <MODEL>
6

>  <REMARK>
 VINA RESULT:      -3.1      7.015     12.473
  Name = 
  2 active torsions:
  status: ('A' for Active; 'I' for Inactive)
    1  A    between atoms: C_5  and  C_30
    2  A    between atoms: C_10  and  N_16
                            x       y       z     vdW  Elec       q    Type
                         _______ _______ _______ _____ _____    ______ ____

>  <TORSDO>
F 2

$$$$
