=
 OpenBabel11122413193D

 31 35  0  0  1  0  0  0  0  0999 V2000
  161.2580  205.1240  145.4060 C   0  0  0  0  0  0  0  0  0  0  0  0
  161.0030  204.4200  149.0910 C   0  0  0  0  0  0  0  0  0  0  0  0
  161.0740  203.0050  149.2550 C   0  0  0  0  0  0  0  0  0  0  0  0
  161.2770  200.7350  148.4120 C   0  0  0  0  0  0  0  0  0  0  0  0
  161.0640  205.0960  147.8340 C   0  0  0  0  0  0  0  0  0  0  0  0
  161.1750  206.5140  145.4220 C   0  0  0  0  0  3  0  0  0  0  0  0
  161.2130  202.1100  148.1820 C   0  0  0  0  0  3  0  0  0  0  0  0
  160.7840  206.6050  150.2040 C   0  0  0  0  0  0  0  0  0  0  0  0
  161.3910  204.4610  144.2320 F   0  0  0  0  0  0  0  0  0  0  0  0
  160.8670  203.2800  151.6260 N   0  0  0  0  0  0  0  0  0  0  0  0
  161.4500  199.6330  147.0640 Cl  0  0  0  0  0  0  0  0  0  0  0  0
  160.8470  207.2410  148.9640 C   0  0  0  0  0  3  0  0  0  0  0  0
  160.8620  205.2050  150.2690 C   0  0  0  0  0  0  0  0  0  0  0  0
  161.2030  204.4240  146.6080 C   0  0  0  0  0  3  0  0  0  0  0  0
  161.2030  200.2520  149.6790 N   0  0  0  0  0  0  0  0  0  0  0  0
  160.9840  206.5090  147.7910 C   0  0  0  0  0  0  0  0  0  0  0  0
  161.0410  207.1700  146.6040 N   0  0  0  0  0  0  0  0  0  0  0  0
  160.8000  204.6000  151.4860 N   0  0  0  0  0  0  0  0  0  0  0  0
  161.0010  202.4630  150.5570 C   0  0  0  0  0  0  0  0  0  0  0  0
  161.0680  201.0810  150.7460 C   0  0  0  0  0  3  0  0  0  0  0  0
  162.5010  208.7660  151.2210 O   0  0  0  0  0  0  0  0  0  0  0  0
  161.5000  208.4090  151.8980 C   0  0  0  0  0  0  0  0  0  0  0  0
  160.6420  207.3600  151.4190 N   0  0  0  0  0  2  0  0  0  0  0  0
  160.1800  210.4480  155.5050 C   0  0  1  0  0  3  0  0  0  0  0  0
  160.8680  210.5500  153.1360 C   0  0  0  0  0  2  0  0  0  0  0  0
  161.2650  207.0060  154.3900 O   0  0  0  0  0  1  0  0  0  0  0  0
  160.1940  211.1120  156.7310 O   0  0  0  0  0  1  0  0  0  0  0  0
  160.9820  211.2380  154.4900 C   0  0  0  0  0  2  0  0  0  0  0  0
  161.0730  208.3840  154.3530 C   0  0  0  0  0  0  0  0  0  0  0  0
  161.1800  209.0710  153.1890 C   0  0  0  0  0  0  0  0  0  0  0  0
  160.8070  209.0690  155.6680 C   0  0  0  0  0  2  0  0  0  0  0  0
  1  6  2  0  0  0  0
  1 14  1  0  0  0  0
  2  3  2  0  0  0  0
  2 13  1  0  0  0  0
  3 19  1  0  0  0  0
  4 15  1  0  0  0  0
  5  2  1  0  0  0  0
  6 17  1  0  0  0  0
  7  4  2  0  0  0  0
  7  3  1  0  0  0  0
  8 13  1  0  0  0  0
  8 23  1  0  0  0  0
  9  1  1  0  0  0  0
 11  4  1  0  0  0  0
 12  8  2  0  0  0  0
 13 18  2  0  0  0  0
 14  5  2  0  0  0  0
 15 20  2  0  0  0  0
 16  5  1  0  0  0  0
 16 12  1  0  0  0  0
 17 16  2  0  0  0  0
 18 10  1  0  0  0  0
 19 20  1  0  0  0  0
 19 10  2  0  0  0  0
 21 22  2  0  0  0  0
 22 30  1  0  0  0  0
 23 22  1  0  0  0  0
 24 31  1  0  0  0  0
 24 27  1  1  0  0  0
 25 30  1  0  0  0  0
 25 28  1  0  0  0  0
 28 24  1  0  0  0  0
 29 26  1  0  0  0  0
 29 31  1  0  0  0  0
 30 29  2  0  0  0  0
M  END
>  <MODEL>
1

>  <REMARK>
 VINA RESULT:      -9.3      0.000      0.000
  Name = 
  2 active torsions:
  status: ('A' for Active; 'I' for Inactive)
    1  A    between atoms: C_5  and  C_30
    2  A    between atoms: C_10  and  N_16
                            x       y       z     vdW  Elec       q    Type
                         _______ _______ _______ _____ _____    ______ ____

>  <TORSDO>
F 2

$$$$
=
 OpenBabel11122413193D

 31 35  0  0  1  0  0  0  0  0999 V2000
  161.1070  201.6550  150.3340 C   0  0  0  0  0  0  0  0  0  0  0  0
  161.1990  205.3760  149.7920 C   0  0  0  0  0  0  0  0  0  0  0  0
  161.2330  205.5960  148.3830 C   0  0  0  0  0  0  0  0  0  0  0  0
  161.2660  204.8390  146.0740 C   0  0  0  0  0  0  0  0  0  0  0  0
  161.1580  204.0900  150.4130 C   0  0  0  0  0  0  0  0  0  0  0  0
  161.0760  201.6180  151.7260 C   0  0  0  0  0  3  0  0  0  0  0  0
  161.2310  204.5560  147.4400 C   0  0  0  0  0  3  0  0  0  0  0  0
  161.1740  206.4060  152.0290 C   0  0  0  0  0  0  0  0  0  0  0  0
  161.0980  200.5050  149.6180 F   0  0  0  0  0  0  0  0  0  0  0  0
  161.2760  207.9610  148.7640 N   0  0  0  0  0  0  0  0  0  0  0  0
  161.2620  203.5320  144.9120 Cl  0  0  0  0  0  0  0  0  0  0  0  0
  161.1340  205.1380  152.6100 C   0  0  0  0  0  3  0  0  0  0  0  0
  161.2060  206.5260  150.6310 C   0  0  0  0  0  0  0  0  0  0  0  0
  161.1480  202.8880  149.6860 C   0  0  0  0  0  3  0  0  0  0  0  0
  161.3030  206.1280  145.6470 N   0  0  0  0  0  0  0  0  0  0  0  0
  161.1260  203.9920  151.8260 C   0  0  0  0  0  0  0  0  0  0  0  0
  161.0870  202.7760  152.4350 N   0  0  0  0  0  0  0  0  0  0  0  0
  161.2450  207.7690  150.0790 N   0  0  0  0  0  0  0  0  0  0  0  0
  161.2730  206.9210  147.8990 C   0  0  0  0  0  0  0  0  0  0  0  0
  161.3070  207.1650  146.5250 C   0  0  0  0  0  3  0  0  0  0  0  0
  160.2790  206.7230  154.8130 O   0  0  0  0  0  0  0  0  0  0  0  0
  160.7330  207.7250  154.1960 C   0  0  0  0  0  0  0  0  0  0  0  0
  161.1820  207.5940  152.8380 N   0  0  0  0  0  2  0  0  0  0  0  0
  160.5690  211.5840  156.1950 C   0  0  1  0  0  3  0  0  0  0  0  0
  160.0570  210.1870  154.2240 C   0  0  0  0  0  2  0  0  0  0  0  0
  162.1000  208.1660  156.6800 O   0  0  0  0  0  1  0  0  0  0  0  0
  160.9080  212.8620  156.6350 O   0  0  0  0  0  1  0  0  0  0  0  0
  160.5300  211.5610  154.6800 C   0  0  0  0  0  2  0  0  0  0  0  0
  161.4750  209.2300  156.0390 C   0  0  0  0  0  0  0  0  0  0  0  0
  160.8240  209.0500  154.8630 C   0  0  0  0  0  0  0  0  0  0  0  0
  161.6140  210.5870  156.6790 C   0  0  0  0  0  2  0  0  0  0  0  0
  1  6  1  0  0  0  0
  2  5  2  0  0  0  0
  2 13  1  0  0  0  0
  3  2  1  0  0  0  0
  4  7  1  0  0  0  0
  5 16  1  0  0  0  0
  6 17  2  0  0  0  0
  7  3  2  0  0  0  0
  8 12  1  0  0  0  0
  8 23  1  0  0  0  0
  9  1  1  0  0  0  0
 10 18  2  0  0  0  0
 11  4  1  0  0  0  0
 13  8  2  0  0  0  0
 14  1  2  0  0  0  0
 14  5  1  0  0  0  0
 15  4  2  0  0  0  0
 15 20  1  0  0  0  0
 16 17  1  0  0  0  0
 16 12  2  0  0  0  0
 18 13  1  0  0  0  0
 19  3  1  0  0  0  0
 19 10  1  0  0  0  0
 20 19  2  0  0  0  0
 22 21  2  0  0  0  0
 22 30  1  0  0  0  0
 23 22  1  0  0  0  0
 24 27  1  6  0  0  0
 24 31  1  0  0  0  0
 25 28  1  0  0  0  0
 25 30  1  0  0  0  0
 28 24  1  0  0  0  0
 29 31  1  0  0  0  0
 29 26  1  0  0  0  0
 30 29  2  0  0  0  0
M  END
>  <MODEL>
2

>  <REMARK>
 VINA RESULT:      -8.9      2.149      4.223
  Name = 
  2 active torsions:
  status: ('A' for Active; 'I' for Inactive)
    1  A    between atoms: C_5  and  C_30
    2  A    between atoms: C_10  and  N_16
                            x       y       z     vdW  Elec       q    Type
                         _______ _______ _______ _____ _____    ______ ____

>  <TORSDO>
F 2

$$$$
=
 OpenBabel11122413193D

 31 35  0  0  1  0  0  0  0  0999 V2000
  160.9900  201.5950  150.1890 C   0  0  0  0  0  0  0  0  0  0  0  0
  161.2050  205.3320  149.8240 C   0  0  0  0  0  0  0  0  0  0  0  0
  161.2150  205.6180  148.4270 C   0  0  0  0  0  0  0  0  0  0  0  0
  161.1670  204.9740  146.0840 C   0  0  0  0  0  0  0  0  0  0  0  0
  161.1310  204.0190  150.3830 C   0  0  0  0  0  0  0  0  0  0  0  0
  160.9890  201.4910  151.5780 C   0  0  0  0  0  3  0  0  0  0  0  0
  161.1530  204.6260  147.4360 C   0  0  0  0  0  3  0  0  0  0  0  0
  161.2680  206.2520  152.1080 C   0  0  0  0  0  0  0  0  0  0  0  0
  160.9230  200.4820  149.4200 F   0  0  0  0  0  0  0  0  0  0  0  0
  161.3520  207.9590  148.9190 N   0  0  0  0  0  0  0  0  0  0  0  0
  161.0900  203.7260  144.8610 Cl  0  0  0  0  0  0  0  0  0  0  0  0
  161.1950  204.9600  152.6280 C   0  0  0  0  0  3  0  0  0  0  0  0
  161.2730  206.4390  150.7160 C   0  0  0  0  0  0  0  0  0  0  0  0
  161.0610  202.8550  149.6010 C   0  0  0  0  0  3  0  0  0  0  0  0
  161.2420  206.2800  145.7180 N   0  0  0  0  0  0  0  0  0  0  0  0
  161.1280  203.8540  151.7900 C   0  0  0  0  0  0  0  0  0  0  0  0
  161.0580  202.6130  152.3410 N   0  0  0  0  0  0  0  0  0  0  0  0
  161.3440  207.7050  150.2240 N   0  0  0  0  0  0  0  0  0  0  0  0
  161.2920  206.9640  148.0060 C   0  0  0  0  0  0  0  0  0  0  0  0
  161.3030  207.2730  146.6440 C   0  0  0  0  0  3  0  0  0  0  0  0
  160.2370  206.5360  154.8470 O   0  0  0  0  0  0  0  0  0  0  0  0
  160.8200  207.5140  154.3070 C   0  0  0  0  0  0  0  0  0  0  0  0
  161.3380  207.3980  152.9720 N   0  0  0  0  0  2  0  0  0  0  0  0
  161.7550  211.1830  156.4480 C   0  0  1  0  0  3  0  0  0  0  0  0
  161.6600  208.7160  156.3970 C   0  0  0  0  0  2  0  0  0  0  0  0
  160.1440  210.0800  153.2140 O   0  0  0  0  0  1  0  0  0  0  0  0
  161.6290  212.3180  157.2470 O   0  0  0  0  0  1  0  0  0  0  0  0
  161.4160  209.9480  157.2590 C   0  0  0  0  0  2  0  0  0  0  0  0
  160.6680  209.9940  154.5000 C   0  0  0  0  0  0  0  0  0  0  0  0
  160.9940  208.7950  155.0410 C   0  0  0  0  0  0  0  0  0  0  0  0
  160.7920  211.2830  155.2710 C   0  0  0  0  0  2  0  0  0  0  0  0
  1  6  1  0  0  0  0
  2  5  2  0  0  0  0
  2 13  1  0  0  0  0
  3  2  1  0  0  0  0
  4  7  1  0  0  0  0
  5 16  1  0  0  0  0
  6 17  2  0  0  0  0
  7  3  2  0  0  0  0
  8 12  1  0  0  0  0
  8 23  1  0  0  0  0
  9  1  1  0  0  0  0
 10 18  2  0  0  0  0
 11  4  1  0  0  0  0
 13  8  2  0  0  0  0
 14  1  2  0  0  0  0
 14  5  1  0  0  0  0
 15  4  2  0  0  0  0
 15 20  1  0  0  0  0
 16 17  1  0  0  0  0
 16 12  2  0  0  0  0
 18 13  1  0  0  0  0
 19  3  1  0  0  0  0
 19 10  1  0  0  0  0
 20 19  2  0  0  0  0
 22 21  2  0  0  0  0
 22 30  1  0  0  0  0
 23 22  1  0  0  0  0
 24 27  1  1  0  0  0
 24 28  1  0  0  0  0
 25 28  1  0  0  0  0
 26 29  1  0  0  0  0
 29 30  2  0  0  0  0
 29 31  1  0  0  0  0
 30 25  1  0  0  0  0
 31 24  1  0  0  0  0
M  END
>  <MODEL>
3

>  <REMARK>
 VINA RESULT:      -8.7      2.060      4.350
  Name = 
  2 active torsions:
  status: ('A' for Active; 'I' for Inactive)
    1  A    between atoms: C_5  and  C_30
    2  A    between atoms: C_10  and  N_16
                            x       y       z     vdW  Elec       q    Type
                         _______ _______ _______ _____ _____    ______ ____

>  <TORSDO>
F 2

$$$$
=
 OpenBabel11122413193D

 31 35  0  0  1  0  0  0  0  0999 V2000
  161.2070  208.2210  154.2230 C   0  0  0  0  0  0  0  0  0  0  0  0
  161.4150  207.6370  150.5130 C   0  0  0  0  0  0  0  0  0  0  0  0
  161.2750  206.2330  150.3000 C   0  0  0  0  0  0  0  0  0  0  0  0
  160.9660  203.9470  151.0630 C   0  0  0  0  0  0  0  0  0  0  0  0
  161.3910  208.2690  151.7940 C   0  0  0  0  0  0  0  0  0  0  0  0
  161.3570  209.6050  154.2550 C   0  0  0  0  0  3  0  0  0  0  0  0
  161.0960  205.3090  151.3410 C   0  0  0  0  0  3  0  0  0  0  0  0
  161.7360  209.8470  149.4770 C   0  0  0  0  0  0  0  0  0  0  0  0
  161.0450  207.5240  155.3730 F   0  0  0  0  0  0  0  0  0  0  0  0
  161.4870  206.5820  147.9390 N   0  0  0  0  0  0  0  0  0  0  0  0
  160.7440  202.8070  152.3720 Cl  0  0  0  0  0  0  0  0  0  0  0  0
  161.7080  210.4400  150.7390 C   0  0  0  0  0  3  0  0  0  0  0  0
  161.5900  208.4560  149.3630 C   0  0  0  0  0  0  0  0  0  0  0  0
  161.2240  207.5620  152.9960 C   0  0  0  0  0  3  0  0  0  0  0  0
  161.0120  203.5060  149.7800 N   0  0  0  0  0  0  0  0  0  0  0  0
  161.5390  209.6750  151.8860 C   0  0  0  0  0  0  0  0  0  0  0  0
  161.5190  210.2960  153.0960 N   0  0  0  0  0  0  0  0  0  0  0  0
  161.6190  207.8920  148.1250 N   0  0  0  0  0  0  0  0  0  0  0  0
  161.3180  205.7350  148.9800 C   0  0  0  0  0  0  0  0  0  0  0  0
  161.1830  204.3660  148.7420 C   0  0  0  0  0  3  0  0  0  0  0  0
  160.7640  212.5710  148.9380 O   0  0  0  0  0  0  0  0  0  0  0  0
  161.4190  211.9650  148.0470 C   0  0  0  0  0  0  0  0  0  0  0  0
  161.9090  210.6370  148.2890 N   0  0  0  0  0  2  0  0  0  0  0  0
  162.5890  213.5900  144.1860 C   0  0  1  0  0  3  0  0  0  0  0  0
  163.0730  213.2470  146.5830 C   0  0  0  0  0  2  0  0  0  0  0  0
  159.6220  211.9100  145.8100 O   0  0  0  0  0  1  0  0  0  0  0  0
  162.7320  214.4530  143.1010 O   0  0  0  0  0  1  0  0  0  0  0  0
  163.1440  214.2450  145.4350 C   0  0  0  0  0  2  0  0  0  0  0  0
  160.8400  212.5720  145.7000 C   0  0  0  0  0  0  0  0  0  0  0  0
  161.7070  212.6160  146.7420 C   0  0  0  0  0  0  0  0  0  0  0  0
  161.1120  213.2840  144.4000 C   0  0  0  0  0  2  0  0  0  0  0  0
  1  6  1  0  0  0  0
  1  9  1  0  0  0  0
  2  5  1  0  0  0  0
  3  2  1  0  0  0  0
  3  7  2  0  0  0  0
  4  7  1  0  0  0  0
  4 11  1  0  0  0  0
  5 16  2  0  0  0  0
  5 14  1  0  0  0  0
  8 12  2  0  0  0  0
 10 18  2  0  0  0  0
 10 19  1  0  0  0  0
 12 16  1  0  0  0  0
 13  8  1  0  0  0  0
 13  2  2  0  0  0  0
 14  1  2  0  0  0  0
 15  4  2  0  0  0  0
 16 17  1  0  0  0  0
 17  6  2  0  0  0  0
 18 13  1  0  0  0  0
 19  3  1  0  0  0  0
 20 19  2  0  0  0  0
 20 15  1  0  0  0  0
 22 23  1  0  0  0  0
 22 21  2  0  0  0  0
 23  8  1  0  0  0  0
 24 27  1  6  0  0  0
 24 31  1  0  0  0  0
 24 28  1  0  0  0  0
 25 30  1  0  0  0  0
 28 25  1  0  0  0  0
 29 26  1  0  0  0  0
 29 30  2  0  0  0  0
 30 22  1  0  0  0  0
 31 29  1  0  0  0  0
M  END
>  <MODEL>
4

>  <REMARK>
 VINA RESULT:      -8.7      4.791      7.299
  Name = 
  2 active torsions:
  status: ('A' for Active; 'I' for Inactive)
    1  A    between atoms: C_5  and  C_30
    2  A    between atoms: C_10  and  N_16
                            x       y       z     vdW  Elec       q    Type
                         _______ _______ _______ _____ _____    ______ ____

>  <TORSDO>
F 2

$$$$
=
 OpenBabel11122413193D

 31 35  0  0  1  0  0  0  0  0999 V2000
  161.8400  211.2680  149.9950 C   0  0  0  0  0  0  0  0  0  0  0  0
  161.3840  207.8280  151.4450 C   0  0  0  0  0  0  0  0  0  0  0  0
  161.2040  207.9840  152.8510 C   0  0  0  0  0  0  0  0  0  0  0  0
  161.0290  209.3160  154.8770 C   0  0  0  0  0  0  0  0  0  0  0  0
  161.5900  208.9040  150.5280 C   0  0  0  0  0  0  0  0  0  0  0  0
  161.9980  210.9410  148.6510 C   0  0  0  0  0  3  0  0  0  0  0  0
  161.2110  209.2320  153.4960 C   0  0  0  0  0  3  0  0  0  0  0  0
  161.5220  206.2520  149.5570 C   0  0  0  0  0  0  0  0  0  0  0  0
  161.8840  212.5620  150.3940 F   0  0  0  0  0  0  0  0  0  0  0  0
  160.9940  205.6090  153.0780 N   0  0  0  0  0  0  0  0  0  0  0  0
  161.0400  210.8770  155.6650 Cl  0  0  0  0  0  0  0  0  0  0  0  0
  161.7210  207.3210  148.6830 C   0  0  0  0  0  3  0  0  0  0  0  0
  161.3540  206.5020  150.9290 C   0  0  0  0  0  0  0  0  0  0  0  0
  161.6380  210.2510  150.9250 C   0  0  0  0  0  3  0  0  0  0  0  0
  160.8450  208.1870  155.6090 N   0  0  0  0  0  0  0  0  0  0  0  0
  161.7560  208.6300  149.1480 C   0  0  0  0  0  0  0  0  0  0  0  0
  161.9530  209.6400  148.2600 N   0  0  0  0  0  0  0  0  0  0  0  0
  161.1610  205.4500  151.7690 N   0  0  0  0  0  0  0  0  0  0  0  0
  161.0100  206.8350  153.6480 C   0  0  0  0  0  0  0  0  0  0  0  0
  160.8310  206.9590  155.0270 C   0  0  0  0  0  3  0  0  0  0  0  0
  160.8310  205.2880  146.8660 O   0  0  0  0  0  0  0  0  0  0  0  0
  161.1370  204.4510  147.7580 C   0  0  0  0  0  0  0  0  0  0  0  0
  161.4840  204.8980  149.0780 N   0  0  0  0  0  2  0  0  0  0  0  0
  161.5810  200.2580  146.6930 C   0  0  1  0  0  3  0  0  0  0  0  0
  161.2330  202.6020  146.0000 C   0  0  0  0  0  2  0  0  0  0  0  0
  161.2340  202.4130  149.7760 O   0  0  0  0  0  1  0  0  0  0  0  0
  161.2860  198.9250  146.4120 O   0  0  0  0  0  1  0  0  0  0  0  0
  160.8170  201.1590  145.7440 C   0  0  0  0  0  2  0  0  0  0  0  0
  161.2060  202.0530  148.4320 C   0  0  0  0  0  0  0  0  0  0  0  0
  161.1580  202.9960  147.4590 C   0  0  0  0  0  0  0  0  0  0  0  0
  161.1670  200.5780  148.1230 C   0  0  0  0  0  2  0  0  0  0  0  0
  1  9  1  0  0  0  0
  1 14  1  0  0  0  0
  2  3  1  0  0  0  0
  3  7  2  0  0  0  0
  3 19  1  0  0  0  0
  4 15  2  0  0  0  0
  4 11  1  0  0  0  0
  5 14  2  0  0  0  0
  5  2  1  0  0  0  0
  6  1  2  0  0  0  0
  7  4  1  0  0  0  0
  8 13  1  0  0  0  0
 10 19  1  0  0  0  0
 12 16  1  0  0  0  0
 12  8  2  0  0  0  0
 13  2  2  0  0  0  0
 13 18  1  0  0  0  0
 16  5  1  0  0  0  0
 17  6  1  0  0  0  0
 17 16  2  0  0  0  0
 18 10  2  0  0  0  0
 19 20  2  0  0  0  0
 20 15  1  0  0  0  0
 21 22  2  0  0  0  0
 22 23  1  0  0  0  0
 23  8  1  0  0  0  0
 24 27  1  6  0  0  0
 24 31  1  0  0  0  0
 25 30  1  0  0  0  0
 28 25  1  0  0  0  0
 28 24  1  0  0  0  0
 29 26  1  0  0  0  0
 30 22  1  0  0  0  0
 30 29  2  0  0  0  0
 31 29  1  0  0  0  0
M  END
>  <MODEL>
5

>  <REMARK>
 VINA RESULT:      -7.6      4.412      8.142
  Name = 
  2 active torsions:
  status: ('A' for Active; 'I' for Inactive)
    1  A    between atoms: C_5  and  C_30
    2  A    between atoms: C_10  and  N_16
                            x       y       z     vdW  Elec       q    Type
                         _______ _______ _______ _____ _____    ______ ____

>  <TORSDO>
F 2

$$$$
=
 OpenBabel11122413193D

 31 35  0  0  1  0  0  0  0  0999 V2000
  161.5620  212.5270  149.8730 C   0  0  0  0  0  0  0  0  0  0  0  0
  161.1650  209.2080  151.5970 C   0  0  0  0  0  0  0  0  0  0  0  0
  160.8720  209.4770  152.9670 C   0  0  0  0  0  0  0  0  0  0  0  0
  160.4800  210.9690  154.8440 C   0  0  0  0  0  0  0  0  0  0  0  0
  161.3870  210.2090  150.6020 C   0  0  0  0  0  0  0  0  0  0  0  0
  161.8360  212.0920  148.5790 C   0  0  0  0  0  3  0  0  0  0  0  0
  160.7690  210.7740  153.4930 C   0  0  0  0  0  3  0  0  0  0  0  0
  161.5220  207.4820  149.8760 C   0  0  0  0  0  0  0  0  0  0  0  0
  161.5120  213.8510  150.1530 F   0  0  0  0  0  0  0  0  0  0  0  0
  160.7620  207.1220  153.3950 N   0  0  0  0  0  0  0  0  0  0  0  0
  160.3550  212.5930  155.4840 Cl  0  0  0  0  0  0  0  0  0  0  0  0
  161.7340  208.4800  148.9240 C   0  0  0  0  0  3  0  0  0  0  0  0
  161.2390  207.8420  151.2030 C   0  0  0  0  0  0  0  0  0  0  0  0
  161.3390  211.5860  150.8750 C   0  0  0  0  0  3  0  0  0  0  0  0
  160.2960  209.9010  155.6620 N   0  0  0  0  0  0  0  0  0  0  0  0
  161.6700  209.8240  149.2690 C   0  0  0  0  0  0  0  0  0  0  0  0
  161.8850  210.7620  148.3080 N   0  0  0  0  0  0  0  0  0  0  0  0
  161.0340  206.8580  152.1210 N   0  0  0  0  0  0  0  0  0  0  0  0
  160.6750  208.3930  153.8490 C   0  0  0  0  0  0  0  0  0  0  0  0
  160.3860  208.6280  155.1950 C   0  0  0  0  0  3  0  0  0  0  0  0
  160.1440  206.0920  147.6810 O   0  0  0  0  0  0  0  0  0  0  0  0
  160.8980  205.4340  148.4470 C   0  0  0  0  0  0  0  0  0  0  0  0
  161.5870  206.0910  149.5220 N   0  0  0  0  0  2  0  0  0  0  0  0
  161.0630  201.1170  147.9430 C   0  0  1  0  0  3  0  0  0  0  0  0
  160.7870  203.0760  149.4210 C   0  0  0  0  0  2  0  0  0  0  0  0
  161.6410  204.2630  145.9340 O   0  0  0  0  0  1  0  0  0  0  0  0
  161.5450  199.8120  147.8500 O   0  0  0  0  0  1  0  0  0  0  0  0
  161.4120  201.6920  149.3020 C   0  0  0  0  0  2  0  0  0  0  0  0
  161.4470  203.4480  147.0450 C   0  0  0  0  0  0  0  0  0  0  0  0
  161.0980  203.9750  148.2440 C   0  0  0  0  0  0  0  0  0  0  0  0
  161.7070  201.9740  146.8610 C   0  0  0  0  0  2  0  0  0  0  0  0
  1  9  1  0  0  0  0
  1 14  1  0  0  0  0
  2  3  1  0  0  0  0
  3  7  2  0  0  0  0
  3 19  1  0  0  0  0
  4 11  1  0  0  0  0
  4 15  2  0  0  0  0
  5 14  2  0  0  0  0
  5  2  1  0  0  0  0
  6  1  2  0  0  0  0
  7  4  1  0  0  0  0
  8 13  1  0  0  0  0
 10 19  1  0  0  0  0
 12 16  1  0  0  0  0
 12  8  2  0  0  0  0
 13  2  2  0  0  0  0
 13 18  1  0  0  0  0
 16  5  1  0  0  0  0
 17  6  1  0  0  0  0
 17 16  2  0  0  0  0
 18 10  2  0  0  0  0
 19 20  2  0  0  0  0
 20 15  1  0  0  0  0
 21 22  2  0  0  0  0
 22 23  1  0  0  0  0
 23  8  1  0  0  0  0
 24 27  1  1  0  0  0
 24 28  1  0  0  0  0
 26 29  1  0  0  0  0
 28 25  1  0  0  0  0
 29 30  2  0  0  0  0
 30 22  1  0  0  0  0
 30 25  1  0  0  0  0
 31 29  1  0  0  0  0
 31 24  1  0  0  0  0
M  END
>  <MODEL>
6

>  <REMARK>
 VINA RESULT:      -7.0      4.593      8.360
  Name = 
  2 active torsions:
  status: ('A' for Active; 'I' for Inactive)
    1  A    between atoms: C_5  and  C_30
    2  A    between atoms: C_10  and  N_16
                            x       y       z     vdW  Elec       q    Type
                         _______ _______ _______ _____ _____    ______ ____

>  <TORSDO>
F 2

$$$$
=
 OpenBabel11122413193D

 31 35  0  0  1  0  0  0  0  0999 V2000
  161.2100  201.7860  150.9120 C   0  0  0  0  0  0  0  0  0  0  0  0
  160.9770  204.3710  148.1900 C   0  0  0  0  0  0  0  0  0  0  0  0
  160.8150  203.6710  146.9580 C   0  0  0  0  0  0  0  0  0  0  0  0
  160.6010  201.6480  145.6280 C   0  0  0  0  0  0  0  0  0  0  0  0
  161.1050  203.7450  149.4680 C   0  0  0  0  0  0  0  0  0  0  0  0
  161.3610  202.6180  152.0180 C   0  0  0  0  0  3  0  0  0  0  0  0
  160.7620  202.2710  146.8670 C   0  0  0  0  0  3  0  0  0  0  0  0
  161.1710  206.5640  149.2940 C   0  0  0  0  0  0  0  0  0  0  0  0
  161.1870  200.4400  151.0660 F   0  0  0  0  0  0  0  0  0  0  0  0
  160.7450  205.7630  145.7920 N   0  0  0  0  0  0  0  0  0  0  0  0
  160.5370  199.9030  145.5320 Cl  0  0  0  0  0  0  0  0  0  0  0  0
  161.2930  205.9280  150.5300 C   0  0  0  0  0  3  0  0  0  0  0  0
  161.0140  205.7920  148.1320 C   0  0  0  0  0  0  0  0  0  0  0  0
  161.0830  202.3520  149.6460 C   0  0  0  0  0  3  0  0  0  0  0  0
  160.4950  202.3950  144.4990 N   0  0  0  0  0  0  0  0  0  0  0  0
  161.2610  204.5430  150.6280 C   0  0  0  0  0  0  0  0  0  0  0  0
  161.3840  203.9660  151.8540 N   0  0  0  0  0  0  0  0  0  0  0  0
  160.8970  206.4270  146.9340 N   0  0  0  0  0  0  0  0  0  0  0  0
  160.7010  204.4120  145.7610 C   0  0  0  0  0  0  0  0  0  0  0  0
  160.5410  203.7520  144.5410 C   0  0  0  0  0  3  0  0  0  0  0  0
  162.7050  208.4790  150.9150 O   0  0  0  0  0  0  0  0  0  0  0  0
  161.9570  208.9130  149.9990 C   0  0  0  0  0  0  0  0  0  0  0  0
  161.2020  207.9970  149.1890 N   0  0  0  0  0  2  0  0  0  0  0  0
  161.3910  213.0780  148.8800 C   0  0  1  0  0  3  0  0  0  0  0  0
  162.3320  210.8500  148.3780 C   0  0  0  0  0  2  0  0  0  0  0  0
  160.7360  210.7790  151.8050 O   0  0  0  0  0  1  0  0  0  0  0  0
  161.5790  214.4530  148.7600 O   0  0  0  0  0  1  0  0  0  0  0  0
  162.6020  212.3480  148.3330 C   0  0  0  0  0  2  0  0  0  0  0  0
  161.2670  211.2310  150.6010 C   0  0  0  0  0  0  0  0  0  0  0  0
  161.8510  210.3710  149.7310 C   0  0  0  0  0  0  0  0  0  0  0  0
  161.2160  212.7160  150.3490 C   0  0  0  0  0  2  0  0  0  0  0  0
  1  9  1  0  0  0  0
  1  6  1  0  0  0  0
  2  5  1  0  0  0  0
  3  2  1  0  0  0  0
  4  7  1  0  0  0  0
  5 14  1  0  0  0  0
  5 16  2  0  0  0  0
  7  3  2  0  0  0  0
  8 12  2  0  0  0  0
 10 18  2  0  0  0  0
 11  4  1  0  0  0  0
 12 16  1  0  0  0  0
 13  2  2  0  0  0  0
 13  8  1  0  0  0  0
 14  1  2  0  0  0  0
 15 20  1  0  0  0  0
 15  4  2  0  0  0  0
 16 17  1  0  0  0  0
 17  6  2  0  0  0  0
 18 13  1  0  0  0  0
 19 10  1  0  0  0  0
 19  3  1  0  0  0  0
 20 19  2  0  0  0  0
 22 21  2  0  0  0  0
 23  8  1  0  0  0  0
 23 22  1  0  0  0  0
 24 27  1  1  0  0  0
 24 31  1  0  0  0  0
 25 30  1  0  0  0  0
 28 25  1  0  0  0  0
 28 24  1  0  0  0  0
 29 26  1  0  0  0  0
 30 22  1  0  0  0  0
 30 29  2  0  0  0  0
 31 29  1  0  0  0  0
M  END
>  <MODEL>
7

>  <REMARK>
 VINA RESULT:      -6.6      2.973      4.873
  Name = 
  2 active torsions:
  status: ('A' for Active; 'I' for Inactive)
    1  A    between atoms: C_5  and  C_30
    2  A    between atoms: C_10  and  N_16
                            x       y       z     vdW  Elec       q    Type
                         _______ _______ _______ _____ _____    ______ ____

>  <TORSDO>
F 2

$$$$
=
 OpenBabel11122413193D

 31 35  0  0  1  0  0  0  0  0999 V2000
  160.9980  210.6280  154.4770 C   0  0  0  0  0  0  0  0  0  0  0  0
  161.4260  209.2920  150.9880 C   0  0  0  0  0  0  0  0  0  0  0  0
  161.4940  210.4160  150.1120 C   0  0  0  0  0  0  0  0  0  0  0  0
  161.4820  212.8010  149.6450 C   0  0  0  0  0  0  0  0  0  0  0  0
  161.2640  209.3760  152.4050 C   0  0  0  0  0  0  0  0  0  0  0  0
  160.9520  209.4300  155.1870 C   0  0  0  0  0  3  0  0  0  0  0  0
  161.4080  211.7450  150.5550 C   0  0  0  0  0  3  0  0  0  0  0  0
  161.4690  206.8380  151.1820 C   0  0  0  0  0  0  0  0  0  0  0  0
  160.8930  211.8120  155.1270 F   0  0  0  0  0  0  0  0  0  0  0  0
  161.7430  208.9340  148.2460 N   0  0  0  0  0  0  0  0  0  0  0  0
  161.3740  214.4520  150.2140 Cl  0  0  0  0  0  0  0  0  0  0  0  0
  161.3120  206.9470  152.5640 C   0  0  0  0  0  3  0  0  0  0  0  0
  161.5260  208.0010  150.3980 C   0  0  0  0  0  0  0  0  0  0  0  0
  161.1540  210.5940  153.0930 C   0  0  0  0  0  3  0  0  0  0  0  0
  161.6370  212.5480  148.3200 N   0  0  0  0  0  0  0  0  0  0  0  0
  161.2100  208.1890  153.1770 C   0  0  0  0  0  0  0  0  0  0  0  0
  161.0570  208.2480  154.5270 N   0  0  0  0  0  0  0  0  0  0  0  0
  161.6810  207.8780  149.0520 N   0  0  0  0  0  0  0  0  0  0  0  0
  161.6540  210.1950  148.7270 C   0  0  0  0  0  0  0  0  0  0  0  0
  161.7250  211.2770  147.8470 C   0  0  0  0  0  3  0  0  0  0  0  0
  159.6930  205.6490  149.1610 O   0  0  0  0  0  0  0  0  0  0  0  0
  160.6900  204.9920  149.5640 C   0  0  0  0  0  0  0  0  0  0  0  0
  161.5760  205.5540  150.5460 N   0  0  0  0  0  2  0  0  0  0  0  0
  161.0980  200.9540  148.0000 C   0  0  1  0  0  3  0  0  0  0  0  0
  160.5520  202.4610  149.8780 C   0  0  0  0  0  2  0  0  0  0  0  0
  161.8000  204.5170  146.9610 O   0  0  0  0  0  1  0  0  0  0  0  0
  161.6410  199.7220  147.6420 O   0  0  0  0  0  1  0  0  0  0  0  0
  161.2440  201.1600  149.4940 C   0  0  0  0  0  2  0  0  0  0  0  0
  161.4980  203.4400  147.7890 C   0  0  0  0  0  0  0  0  0  0  0  0
  160.9750  203.6370  149.0240 C   0  0  0  0  0  0  0  0  0  0  0  0
  161.8400  202.0670  147.2710 C   0  0  0  0  0  2  0  0  0  0  0  0
  1  9  1  0  0  0  0
  1  6  1  0  0  0  0
  2  5  1  0  0  0  0
  3  7  2  0  0  0  0
  3  2  1  0  0  0  0
  4 11  1  0  0  0  0
  4  7  1  0  0  0  0
  5 14  1  0  0  0  0
  5 16  2  0  0  0  0
  8 12  2  0  0  0  0
 10 19  1  0  0  0  0
 10 18  2  0  0  0  0
 12 16  1  0  0  0  0
 13  2  2  0  0  0  0
 13  8  1  0  0  0  0
 14  1  2  0  0  0  0
 15  4  2  0  0  0  0
 16 17  1  0  0  0  0
 17  6  2  0  0  0  0
 18 13  1  0  0  0  0
 19  3  1  0  0  0  0
 20 15  1  0  0  0  0
 20 19  2  0  0  0  0
 21 22  2  0  0  0  0
 22 23  1  0  0  0  0
 23  8  1  0  0  0  0
 24 27  1  6  0  0  0
 24 28  1  0  0  0  0
 26 29  1  0  0  0  0
 28 25  1  0  0  0  0
 29 30  2  0  0  0  0
 30 22  1  0  0  0  0
 30 25  1  0  0  0  0
 31 29  1  0  0  0  0
 31 24  1  0  0  0  0
M  END
>  <MODEL>
8

>  <REMARK>
 VINA RESULT:      -6.4      4.727      8.950
  Name = 
  2 active torsions:
  status: ('A' for Active; 'I' for Inactive)
    1  A    between atoms: C_5  and  C_30
    2  A    between atoms: C_10  and  N_16
                            x       y       z     vdW  Elec       q    Type
                         _______ _______ _______ _____ _____    ______ ____

>  <TORSDO>
F 2

$$$$
=
 OpenBabel11122413193D

 31 35  0  0  1  0  0  0  0  0999 V2000
  158.7780  212.3360  154.6750 C   0  0  0  0  0  0  0  0  0  0  0  0
  160.6990  210.6170  151.9380 C   0  0  0  0  0  0  0  0  0  0  0  0
  161.0100  209.3040  152.4020 C   0  0  0  0  0  0  0  0  0  0  0  0
  160.9660  207.5270  154.0590 C   0  0  0  0  0  0  0  0  0  0  0  0
  159.9730  211.5920  152.6880 C   0  0  0  0  0  0  0  0  0  0  0  0
  158.5590  213.5730  154.0730 C   0  0  0  0  0  3  0  0  0  0  0  0
  160.6300  208.8230  153.6650 C   0  0  0  0  0  3  0  0  0  0  0  0
  160.8890  212.2390  150.0950 C   0  0  0  0  0  0  0  0  0  0  0  0
  158.3110  212.0920  155.9230 F   0  0  0  0  0  0  0  0  0  0  0  0
  162.1280  208.8490  150.3330 N   0  0  0  0  0  0  0  0  0  0  0  0
  160.4850  206.9410  155.6360 Cl  0  0  0  0  0  0  0  0  0  0  0  0
  160.1770  213.1740  150.8480 C   0  0  0  0  0  3  0  0  0  0  0  0
  161.1490  210.9700  150.6350 C   0  0  0  0  0  0  0  0  0  0  0  0
  159.4820  211.3550  153.9820 C   0  0  0  0  0  3  0  0  0  0  0  0
  161.6670  206.7210  153.2200 N   0  0  0  0  0  0  0  0  0  0  0  0
  159.7210  212.8670  152.1240 C   0  0  0  0  0  0  0  0  0  0  0  0
  159.0320  213.8090  152.8210 N   0  0  0  0  0  0  0  0  0  0  0  0
  161.8440  210.0690  149.8880 N   0  0  0  0  0  0  0  0  0  0  0  0
  161.7370  208.4360  151.5600 C   0  0  0  0  0  0  0  0  0  0  0  0
  162.0550  207.1460  151.9890 C   0  0  0  0  0  3  0  0  0  0  0  0
  159.3100  212.8660  147.6940 O   0  0  0  0  0  0  0  0  0  0  0  0
  160.5680  212.8510  147.6150 C   0  0  0  0  0  0  0  0  0  0  0  0
  161.3610  212.5540  148.7750 N   0  0  0  0  0  2  0  0  0  0  0  0
  162.8850  213.4680  143.9850 C   0  0  1  0  0  3  0  0  0  0  0  0
  162.6220  213.7860  146.4200 C   0  0  0  0  0  2  0  0  0  0  0  0
  159.5170  212.1240  145.0450 O   0  0  0  0  0  1  0  0  0  0  0  0
  163.3700  214.0250  142.8040 O   0  0  0  0  0  1  0  0  0  0  0  0
  163.0620  214.4530  145.1240 C   0  0  0  0  0  2  0  0  0  0  0  0
  160.7330  212.7950  145.1280 C   0  0  0  0  0  0  0  0  0  0  0  0
  161.2510  213.1520  146.3290 C   0  0  0  0  0  0  0  0  0  0  0  0
  161.4020  213.1560  143.8270 C   0  0  0  0  0  2  0  0  0  0  0  0
  1  9  1  0  0  0  0
  2  3  1  0  0  0  0
  2  5  1  0  0  0  0
  3  7  2  0  0  0  0
  4 11  1  0  0  0  0
  5 14  1  0  0  0  0
  6  1  1  0  0  0  0
  7  4  1  0  0  0  0
  8 13  1  0  0  0  0
  8 12  2  0  0  0  0
 10 19  1  0  0  0  0
 12 16  1  0  0  0  0
 13  2  2  0  0  0  0
 14  1  2  0  0  0  0
 15  4  2  0  0  0  0
 16  5  2  0  0  0  0
 16 17  1  0  0  0  0
 17  6  2  0  0  0  0
 18 10  2  0  0  0  0
 18 13  1  0  0  0  0
 19 20  2  0  0  0  0
 19  3  1  0  0  0  0
 20 15  1  0  0  0  0
 22 21  2  0  0  0  0
 22 23  1  0  0  0  0
 23  8  1  0  0  0  0
 24 27  1  6  0  0  0
 24 28  1  0  0  0  0
 26 29  1  0  0  0  0
 28 25  1  0  0  0  0
 29 30  2  0  0  0  0
 30 25  1  0  0  0  0
 30 22  1  0  0  0  0
 31 24  1  0  0  0  0
 31 29  1  0  0  0  0
M  END
>  <MODEL>
9

>  <REMARK>
 VINA RESULT:      -6.3      5.803      9.085
  Name = 
  2 active torsions:
  status: ('A' for Active; 'I' for Inactive)
    1  A    between atoms: C_5  and  C_30
    2  A    between atoms: C_10  and  N_16
                            x       y       z     vdW  Elec       q    Type
                         _______ _______ _______ _____ _____    ______ ____

>  <TORSDO>
F 2

$$$$
