=
 OpenBabel11122412513D

 32 37  0  0  1  0  0  0  0  0999 V2000
  160.4590  205.7660  148.8640 O   0  0  0  0  0  0  0  0  0  0  0  0
  161.2570  208.6700  152.3200 N   0  0  1  0  0  0  0  0  0  0  0  0
  160.4540  206.6680  156.7460 C   0  0  0  0  0  3  0  0  0  0  0  0
  160.2030  207.9400  157.2610 C   0  0  0  0  0  3  0  0  0  0  0  0
  160.4500  211.0070  151.8580 C   0  0  1  0  0  3  0  0  0  0  0  0
  159.6320  212.1550  152.4670 C   0  0  1  0  0  3  0  0  0  0  0  0
  162.2360  207.4010  150.4710 C   0  0  1  0  0  3  0  0  0  0  0  0
  161.9660  206.3330  152.7440 C   0  0  0  0  0  2  0  0  0  0  0  0
  158.5320  213.0400  154.2860 C   0  0  2  0  0  3  0  0  0  0  0  0
  161.5840  204.9690  150.7620 C   0  0  0  0  0  3  0  0  0  0  0  0
  160.6990  206.5040  155.3800 C   0  0  0  0  0  3  0  0  0  0  0  0
  160.9080  207.4140  153.0290 C   0  0  1  0  0  3  0  0  0  0  0  0
  160.7110  207.6120  154.5180 C   0  0  0  0  0  0  0  0  0  0  0  0
  160.4130  210.0940  154.1440 C   0  0  2  0  0  3  0  0  0  0  0  0
  157.5490  213.0340  153.1180 C   0  0  0  0  0  2  0  0  0  0  0  0
  161.2250  206.7300  148.1760 C   0  0  0  0  0  2  0  0  0  0  0  0
  162.0250  206.1330  151.2670 C   0  0  0  0  0  0  0  0  0  0  0  0
  158.1870  212.1850  152.0440 C   0  0  0  0  0  2  0  0  0  0  0  0
  162.4410  207.2600  148.9590 C   0  0  0  0  0  2  0  0  0  0  0  0
  161.3280  204.7570  149.3040 C   0  0  1  0  0  3  0  0  0  0  0  0
  160.1800  209.0460  156.4090 C   0  0  0  0  0  3  0  0  0  0  0  0
  160.4030  208.8870  155.0340 C   0  0  0  0  0  0  0  0  0  0  0  0
  159.3440  210.9510  154.4470 O   0  0  0  0  0  0  0  0  0  0  0  0
  161.1700  208.4140  150.8720 C   0  0  0  0  0  2  0  0  0  0  0  0
  161.7950  211.3810  151.8180 O   0  0  0  0  0  1  0  0  0  0  0  0
  159.0140  214.4530  154.5510 C   0  0  0  0  0  1  0  0  0  0  0  0
  160.2790  209.7130  152.6720 C   0  0  2  0  0  3  0  0  0  0  0  0
  159.6630  212.1820  153.9400 N   0  0  1  0  0  0  0  0  0  0  0  0
  160.6910  203.3940  149.0970 C   0  0  0  0  0  2  0  0  0  0  0  0
  161.1810  202.7740  147.8350 C   0  0  0  0  0  0  0  0  0  0  0  0
  161.1590  201.5230  147.6980 O   0  0  0  0  0  1  0  0  0  0  0  0
  161.6320  203.5770  146.7950 O   0  0  0  0  0  0  0  0  0  0  0  0
  1 20  1  0  0  0  0
  2 24  1  6  0  0  0
  2 27  1  0  0  0  0
  2 12  1  0  0  0  0
  3  4  1  0  0  0  0
  5 25  1  1  0  0  0
  5  6  1  0  0  0  0
  5 27  1  0  0  0  0
  6 18  1  1  0  0  0
  6 28  1  0  0  0  0
  7 19  1  6  0  0  0
  7 24  1  0  0  0  0
  7 17  1  0  0  0  0
  9 26  1  6  0  0  0
 10 17  2  0  0  0  0
 11  3  2  0  0  0  0
 12  8  1  1  0  0  0
 12 13  1  0  0  0  0
 13 22  2  0  0  0  0
 13 11  1  0  0  0  0
 14 23  1  1  0  0  0
 14 22  1  0  0  0  0
 15  9  1  0  0  0  0
 16  1  1  0  0  0  0
 16 19  1  0  0  0  0
 17  8  1  0  0  0  0
 18 15  1  0  0  0  0
 20 29  1  1  0  0  0
 20 10  1  0  0  0  0
 21  4  2  0  0  0  0
 22 21  1  0  0  0  0
 27 14  1  0  0  0  0
 28  9  1  0  0  0  0
 28 23  1  0  0  0  0
 30 29  1  0  0  0  0
 31 30  1  0  0  0  0
 32 30  2  0  0  0  0
M  END
>  <MODEL>
1

>  <REMARK>
 VINA RESULT:      -8.2      0.000      0.000
  Name = 
  2 active torsions:
  status: ('A' for Active; 'I' for Inactive)
    1  A    between atoms: C_20  and  C_29
    2  A    between atoms: C_29  and  C_30
                            x       y       z     vdW  Elec       q    Type
                         _______ _______ _______ _____ _____    ______ ____

>  <TORSDO>
F 2

$$$$
=
 OpenBabel11122412513D

 32 37  0  0  1  0  0  0  0  0999 V2000
  160.0790  212.7310  148.1320 O   0  0  0  0  0  0  0  0  0  0  0  0
  161.8420  209.5900  150.9670 N   0  0  1  0  0  0  0  0  0  0  0  0
  160.9410  204.9690  149.5250 C   0  0  0  0  0  3  0  0  0  0  0  0
  161.0510  204.5480  150.8500 C   0  0  0  0  0  3  0  0  0  0  0  0
  161.5940  210.1950  153.3950 C   0  0  1  0  0  3  0  0  0  0  0  0
  161.1340  209.6350  154.7480 C   0  0  1  0  0  3  0  0  0  0  0  0
  162.3270  211.3830  149.3740 C   0  0  1  0  0  3  0  0  0  0  0  0
  161.9910  209.0160  148.5590 C   0  0  0  0  0  2  0  0  0  0  0  0
  160.4360  207.8310  155.9980 C   0  0  2  0  0  3  0  0  0  0  0  0
  161.1270  210.8470  147.2060 C   0  0  0  0  0  3  0  0  0  0  0  0
  161.0260  206.3280  149.2150 C   0  0  0  0  0  3  0  0  0  0  0  0
  161.2570  208.7560  149.8870 C   0  0  1  0  0  3  0  0  0  0  0  0
  161.2370  207.2800  150.2260 C   0  0  0  0  0  0  0  0  0  0  0  0
  161.5240  207.8420  152.6740 C   0  0  2  0  0  3  0  0  0  0  0  0
  159.3880  208.9300  156.1610 C   0  0  0  0  0  2  0  0  0  0  0  0
  160.9970  213.5450  148.8260 C   0  0  0  0  0  2  0  0  0  0  0  0
  161.8790  210.4710  148.2540 C   0  0  0  0  0  0  0  0  0  0  0  0
  159.7100  209.9670  155.1100 C   0  0  0  0  0  2  0  0  0  0  0  0
  162.3660  212.8880  149.0860 C   0  0  0  0  0  2  0  0  0  0  0  0
  160.7090  212.2630  146.9690 C   0  0  1  0  0  3  0  0  0  0  0  0
  161.2290  205.4870  151.8680 C   0  0  0  0  0  3  0  0  0  0  0  0
  161.2930  206.8550  151.5690 C   0  0  0  0  0  0  0  0  0  0  0  0
  160.7250  207.5460  153.7880 O   0  0  0  0  0  0  0  0  0  0  0  0
  161.5770  211.0030  150.6450 C   0  0  0  0  0  2  0  0  0  0  0  0
  162.9820  210.3520  153.4180 O   0  0  0  0  0  1  0  0  0  0  0  0
  161.2690  207.7170  157.2610 C   0  0  0  0  0  1  0  0  0  0  0  0
  161.1800  209.2650  152.2410 C   0  0  2  0  0  3  0  0  0  0  0  0
  161.2910  208.1740  154.8640 N   0  0  1  0  0  0  0  0  0  0  0  0
  159.7430  212.3140  145.7970 C   0  0  0  0  0  2  0  0  0  0  0  0
  160.4830  212.5020  144.5190 C   0  0  0  0  0  0  0  0  0  0  0  0
  161.4960  213.2480  144.4810 O   0  0  0  0  0  1  0  0  0  0  0  0
  160.0770  211.8270  143.3750 O   0  0  0  0  0  0  0  0  0  0  0  0
  1 16  1  0  0  0  0
  2 24  1  6  0  0  0
  2 27  1  0  0  0  0
  3  4  1  0  0  0  0
  4 21  2  0  0  0  0
  5 25  1  1  0  0  0
  5  6  1  0  0  0  0
  6 28  1  0  0  0  0
  6 18  1  6  0  0  0
  7 19  1  6  0  0  0
  7 24  1  0  0  0  0
  9 15  1  0  0  0  0
  9 26  1  1  0  0  0
 10 17  2  0  0  0  0
 11  3  2  0  0  0  0
 11 13  1  0  0  0  0
 12  8  1  6  0  0  0
 12 13  1  0  0  0  0
 12  2  1  0  0  0  0
 13 22  2  0  0  0  0
 14 22  1  6  0  0  0
 14 23  1  0  0  0  0
 16 19  1  0  0  0  0
 17  8  1  0  0  0  0
 17  7  1  0  0  0  0
 18 15  1  0  0  0  0
 20 29  1  6  0  0  0
 20 10  1  0  0  0  0
 20  1  1  0  0  0  0
 22 21  1  0  0  0  0
 23 28  1  0  0  0  0
 27 14  1  0  0  0  0
 27  5  1  0  0  0  0
 28  9  1  0  0  0  0
 30 29  1  0  0  0  0
 31 30  1  0  0  0  0
 32 30  2  0  0  0  0
M  END
>  <MODEL>
2

>  <REMARK>
 VINA RESULT:      -6.3      3.426      6.065
  Name = 
  2 active torsions:
  status: ('A' for Active; 'I' for Inactive)
    1  A    between atoms: C_20  and  C_29
    2  A    between atoms: C_29  and  C_30
                            x       y       z     vdW  Elec       q    Type
                         _______ _______ _______ _____ _____    ______ ____

>  <TORSDO>
F 2

$$$$
=
 OpenBabel11122412513D

 32 37  0  0  1  0  0  0  0  0999 V2000
  158.5770  209.3550  155.5630 O   0  0  0  0  0  0  0  0  0  0  0  0
  161.5420  209.1990  152.0690 N   0  0  1  0  0  0  0  0  0  0  0  0
  161.2080  213.0990  149.0820 C   0  0  0  0  0  3  0  0  0  0  0  0
  161.7160  212.3250  148.0380 C   0  0  0  0  0  3  0  0  0  0  0  0
  161.7850  206.9010  151.0770 C   0  0  1  0  0  3  0  0  0  0  0  0
  161.7840  206.1460  149.7400 C   0  0  1  0  0  3  0  0  0  0  0  0
  161.2740  209.3860  154.4950 C   0  0  1  0  0  3  0  0  0  0  0  0
  161.2040  211.4530  153.0450 C   0  0  0  0  0  2  0  0  0  0  0  0
  161.7670  206.2180  147.4390 C   0  0  2  0  0  3  0  0  0  0  0  0
  159.7050  211.3220  154.9600 C   0  0  0  0  0  3  0  0  0  0  0  0
  160.9550  212.5130  150.3240 C   0  0  0  0  0  3  0  0  0  0  0  0
  160.8790  210.5120  151.8710 C   0  0  1  0  0  3  0  0  0  0  0  0
  161.2230  211.1520  150.5410 C   0  0  0  0  0  0  0  0  0  0  0  0
  161.9870  208.9070  149.6640 C   0  0  2  0  0  3  0  0  0  0  0  0
  160.6030  205.3320  147.8740 C   0  0  0  0  0  2  0  0  0  0  0  0
  159.4660  208.3820  156.0650 C   0  0  0  0  0  2  0  0  0  0  0  0
  160.7470  210.7900  154.3000 C   0  0  0  0  0  0  0  0  0  0  0  0
  160.4560  205.5460  149.3630 C   0  0  0  0  0  2  0  0  0  0  0  0
  160.9570  208.6910  155.8230 C   0  0  0  0  0  2  0  0  0  0  0  0
  158.9810  210.6050  156.0550 C   0  0  1  0  0  3  0  0  0  0  0  0
  161.9560  210.9630  148.2310 C   0  0  0  0  0  3  0  0  0  0  0  0
  161.6840  210.3630  149.4680 C   0  0  0  0  0  0  0  0  0  0  0  0
  161.5560  208.1510  148.5640 O   0  0  0  0  0  0  0  0  0  0  0  0
  160.9440  208.5620  153.2550 C   0  0  0  0  0  2  0  0  0  0  0  0
  163.0810  206.8970  151.5990 O   0  0  0  0  0  1  0  0  0  0  0  0
  162.8900  205.3630  146.8810 C   0  0  0  0  0  1  0  0  0  0  0  0
  161.2850  208.3450  150.8980 C   0  0  2  0  0  3  0  0  0  0  0  0
  162.2380  206.9650  148.6020 N   0  0  1  0  0  0  0  0  0  0  0  0
  157.7670  211.4170  156.4710 C   0  0  0  0  0  2  0  0  0  0  0  0
  156.7100  211.3510  155.4240 C   0  0  0  0  0  0  0  0  0  0  0  0
  155.7430  210.5550  155.5550 O   0  0  0  0  0  1  0  0  0  0  0  0
  156.7720  212.1900  154.3190 O   0  0  0  0  0  0  0  0  0  0  0  0
  1 20  1  0  0  0  0
  1 16  1  0  0  0  0
  2 24  1  1  0  0  0
  3 11  1  0  0  0  0
  4 21  1  0  0  0  0
  4  3  2  0  0  0  0
  5 25  1  6  0  0  0
  6 18  1  6  0  0  0
  6  5  1  0  0  0  0
  7 24  1  6  0  0  0
  7 19  1  0  0  0  0
  8 17  1  0  0  0  0
  9 26  1  1  0  0  0
  9 15  1  0  0  0  0
  9 28  1  0  0  0  0
 10 20  1  0  0  0  0
 11 13  2  0  0  0  0
 12  2  1  0  0  0  0
 12  8  1  1  0  0  0
 13 12  1  0  0  0  0
 14 23  1  6  0  0  0
 14 27  1  0  0  0  0
 15 18  1  0  0  0  0
 17  7  1  0  0  0  0
 17 10  2  0  0  0  0
 19 16  1  0  0  0  0
 20 29  1  6  0  0  0
 21 22  2  0  0  0  0
 22 14  1  0  0  0  0
 22 13  1  0  0  0  0
 23 28  1  0  0  0  0
 27  5  1  0  0  0  0
 27  2  1  0  0  0  0
 28  6  1  0  0  0  0
 30 31  1  0  0  0  0
 30 29  1  0  0  0  0
 32 30  2  0  0  0  0
M  END
>  <MODEL>
3

>  <REMARK>
 VINA RESULT:      -5.7      2.493      8.060
  Name = 
  2 active torsions:
  status: ('A' for Active; 'I' for Inactive)
    1  A    between atoms: C_20  and  C_29
    2  A    between atoms: C_29  and  C_30
                            x       y       z     vdW  Elec       q    Type
                         _______ _______ _______ _____ _____    ______ ____

>  <TORSDO>
F 2

$$$$
