=
 OpenBabel11122413003D

 32 37  0  0  1  0  0  0  0  0999 V2000
  161.9810  202.3620  149.3570 O   0  0  0  0  0  0  0  0  0  0  0  0
  161.1110  206.7420  151.4010 C   0  0  0  0  0  0  0  0  0  0  0  0
  162.0650  210.3870  148.3800 C   0  0  0  0  0  3  0  0  0  0  0  0
  162.2260  211.2740  149.4420 C   0  0  0  0  0  3  0  0  0  0  0  0
  161.1180  207.1320  153.9280 C   0  0  0  0  0  0  0  0  0  0  0  0
  161.3650  208.0760  155.0140 C   0  0  0  0  0  0  0  0  0  0  0  0
  160.2630  204.5970  150.3810 C   0  0  1  0  0  3  0  0  0  0  0  0
  161.0560  206.3740  148.8640 C   0  0  0  0  0  2  0  0  0  0  0  0
  161.8660  209.9870  156.1350 C   0  0  2  0  0  3  0  0  0  0  0  0
  160.8520  204.0230  147.9800 C   0  0  0  0  0  2  0  0  0  0  0  0
  161.7610  209.0850  148.6210 N   0  0  0  0  0  0  0  0  0  0  0  0
  161.2920  207.2440  150.0830 C   0  0  0  0  0  0  0  0  0  0  0  0
  161.6040  208.5960  149.8860 C   0  0  0  0  0  0  0  0  0  0  0  0
  161.5960  208.9780  152.3020 C   0  0  0  0  0  0  0  0  0  0  0  0
  161.6630  208.9300  157.1400 N   0  0  0  0  0  0  0  0  0  0  0  0
  161.1410  202.1400  150.4760 C   0  0  0  0  0  2  0  0  0  0  0  0
  161.1680  204.8960  149.1890 C   0  0  2  0  0  3  0  0  0  0  0  0
  161.3480  207.7810  156.3910 N   0  0  0  0  0  0  0  0  0  0  0  0
  159.9500  203.1110  150.6140 C   0  0  0  0  0  2  0  0  0  0  0  0
  161.1960  202.6270  148.2740 N   0  0  0  0  0  0  0  0  0  0  0  0
  162.0710  210.8070  150.7460 C   0  0  0  0  0  3  0  0  0  0  0  0
  161.7570  209.4600  150.9900 C   0  0  0  0  0  0  0  0  0  0  0  0
  161.7680  209.9550  153.4600 C   0  0  0  0  0  2  0  0  0  0  0  0
  160.8550  205.2610  151.6110 C   0  0  0  0  0  2  0  0  0  0  0  0
  160.7840  205.9500  154.2100 O   0  0  0  0  0  0  0  0  0  0  0  0
  160.8400  211.0860  156.3410 C   0  0  0  0  0  1  0  0  0  0  0  0
  161.2690  207.6080  152.5170 C   0  0  0  0  0  0  0  0  0  0  0  0
  161.6580  209.3260  154.8150 C   0  0  0  0  0  0  0  0  0  0  0  0
  160.8720  201.5430  147.3880 C   0  0  0  0  0  3  0  0  0  0  0  0
  160.7760  201.6350  146.0580 C   0  0  0  0  0  0  0  0  0  0  0  0
  160.4460  200.4140  145.2780 C   0  0  0  0  0  1  0  0  0  0  0  0
  160.9590  202.8360  145.3830 O   0  0  0  0  0  1  0  0  0  0  0  0
  1 16  1  0  0  0  0
  2 24  1  0  0  0  0
  2 27  1  0  0  0  0
  3 11  2  0  0  0  0
  3  4  1  0  0  0  0
  4 21  2  0  0  0  0
  5 25  2  0  0  0  0
  5  6  1  0  0  0  0
  6 18  1  0  0  0  0
  7 19  1  1  0  0  0
  7 24  1  0  0  0  0
  8 17  1  0  0  0  0
  8 12  1  0  0  0  0
  9 26  1  1  0  0  0
  9 15  1  0  0  0  0
 10 20  1  0  0  0  0
 11 13  1  0  0  0  0
 12  2  2  0  0  0  0
 13 12  1  0  0  0  0
 13 22  2  0  0  0  0
 14 27  2  0  0  0  0
 14 23  1  0  0  0  0
 16 19  1  0  0  0  0
 17 10  1  6  0  0  0
 17  7  1  0  0  0  0
 18 15  2  0  0  0  0
 20  1  1  0  0  0  0
 21 22  1  0  0  0  0
 22 14  1  0  0  0  0
 23 28  1  0  0  0  0
 27  5  1  0  0  0  0
 28  6  2  0  0  0  0
 28  9  1  0  0  0  0
 29 20  1  0  0  0  0
 30 29  2  0  0  0  0
 31 30  1  0  0  0  0
 32 30  1  0  0  0  0
M  END
>  <MODEL>
1

>  <REMARK>
 VINA RESULT:      -9.5      0.000      0.000
  Name = 
  1 active torsions:
  status: ('A' for Active; 'I' for Inactive)
    1  A    between atoms: N_20  and  C_29
                            x       y       z     vdW  Elec       q    Type
                         _______ _______ _______ _____ _____    ______ ____

>  <TORSDO>
F 1

$$$$
=
 OpenBabel11122413003D

 32 37  0  0  1  0  0  0  0  0999 V2000
  162.7650  209.9480  153.1800 O   0  0  0  0  0  0  0  0  0  0  0  0
  161.0720  206.4310  150.1980 C   0  0  0  0  0  0  0  0  0  0  0  0
  161.0550  202.0930  152.3210 C   0  0  0  0  0  3  0  0  0  0  0  0
  161.0750  201.4470  151.0870 C   0  0  0  0  0  3  0  0  0  0  0  0
  161.1270  206.6130  147.6490 C   0  0  0  0  0  0  0  0  0  0  0  0
  161.2190  205.9000  146.3790 C   0  0  0  0  0  0  0  0  0  0  0  0
  160.6580  208.4330  151.6750 C   0  0  1  0  0  3  0  0  0  0  0  0
  160.9670  206.2350  152.7530 C   0  0  0  0  0  2  0  0  0  0  0  0
  161.3520  204.2190  144.8560 C   0  0  2  0  0  3  0  0  0  0  0  0
  161.2320  208.3200  154.1450 C   0  0  0  0  0  2  0  0  0  0  0  0
  161.0540  203.4500  152.3800 N   0  0  0  0  0  0  0  0  0  0  0  0
  161.0710  205.6240  151.3700 C   0  0  0  0  0  0  0  0  0  0  0  0
  161.0720  204.2270  151.2570 C   0  0  0  0  0  0  0  0  0  0  0  0
  161.1080  204.3970  148.8170 C   0  0  0  0  0  0  0  0  0  0  0  0
  161.4350  205.4890  144.1150 N   0  0  0  0  0  2  0  0  0  0  0  0
  162.0520  210.5910  152.1380 C   0  0  0  0  0  2  0  0  0  0  0  0
  161.4140  207.6850  152.7700 C   0  0  2  0  0  3  0  0  0  0  0  0
  161.3380  206.4860  145.1030 N   0  0  0  0  0  0  0  0  0  0  0  0
  160.6870  209.9650  151.7830 C   0  0  0  0  0  2  0  0  0  0  0  0
  161.8850  209.6330  154.1740 N   0  0  0  0  0  0  0  0  0  0  0  0
  161.0930  202.2120  149.9220 C   0  0  0  0  0  3  0  0  0  0  0  0
  161.0920  203.6140  149.9870 C   0  0  0  0  0  0  0  0  0  0  0  0
  161.1240  203.6850  147.4690 C   0  0  0  0  0  3  0  0  0  0  0  0
  161.1560  207.9400  150.3280 C   0  0  0  0  0  2  0  0  0  0  0  0
  161.0720  207.8720  147.6400 O   0  0  0  0  0  0  0  0  0  0  0  0
  160.1230  203.4500  144.4050 C   0  0  0  0  0  1  0  0  0  0  0  0
  161.0970  205.8180  148.9160 C   0  0  0  0  0  0  0  0  0  0  0  0
  161.2230  204.6030  146.2910 C   0  0  0  0  0  0  0  0  0  0  0  0
  161.7580  210.5410  155.2810 C   0  0  0  0  0  3  0  0  0  0  0  0
  160.6770  211.2760  155.5560 C   0  0  0  0  0  0  0  0  0  0  0  0
  160.6970  212.1580  156.7520 C   0  0  0  0  0  1  0  0  0  0  0  0
  159.5420  211.2550  154.7540 O   0  0  0  0  0  1  0  0  0  0  0  0
  1 20  1  0  0  0  0
  2 24  1  0  0  0  0
  2 12  1  0  0  0  0
  3 11  2  0  0  0  0
  4  3  1  0  0  0  0
  5 27  1  0  0  0  0
  6  5  1  0  0  0  0
  7 24  1  6  0  0  0
  7 19  1  0  0  0  0
  7 17  1  0  0  0  0
  9 26  1  6  0  0  0
  9 28  1  0  0  0  0
 10 20  1  0  0  0  0
 12  8  1  0  0  0  0
 13 12  2  0  0  0  0
 13 11  1  0  0  0  0
 14 27  1  0  0  0  0
 14 22  2  0  0  0  0
 15  9  1  0  0  0  0
 15 18  1  0  0  0  0
 16  1  1  0  0  0  0
 17  8  1  1  0  0  0
 17 10  1  0  0  0  0
 18  6  2  0  0  0  0
 19 16  1  0  0  0  0
 20 29  1  0  0  0  0
 21 22  1  0  0  0  0
 21  4  2  0  0  0  0
 22 13  1  0  0  0  0
 23 14  1  0  0  0  0
 25  5  2  0  0  0  0
 27  2  2  0  0  0  0
 28  6  1  0  0  0  0
 28 23  2  0  0  0  0
 29 30  2  0  0  0  0
 30 31  1  0  0  0  0
 32 30  1  0  0  0  0
M  END
>  <MODEL>
2

>  <REMARK>
 VINA RESULT:      -9.0      2.508      8.990
  Name = 
  1 active torsions:
  status: ('A' for Active; 'I' for Inactive)
    1  A    between atoms: N_20  and  C_29
                            x       y       z     vdW  Elec       q    Type
                         _______ _______ _______ _____ _____    ______ ____

>  <TORSDO>
F 1

$$$$
=
 OpenBabel11122413003D

 32 37  0  0  1  0  0  0  0  0999 V2000
  159.4780  208.9170  155.3530 O   0  0  0  0  0  0  0  0  0  0  0  0
  161.1540  206.1200  151.6810 C   0  0  0  0  0  0  0  0  0  0  0  0
  161.6990  208.6210  147.5850 C   0  0  0  0  0  3  0  0  0  0  0  0
  161.6160  207.4590  146.8200 C   0  0  0  0  0  3  0  0  0  0  0  0
  160.8510  203.5820  151.6060 C   0  0  0  0  0  0  0  0  0  0  0  0
  160.6980  202.3980  150.7650 C   0  0  0  0  0  0  0  0  0  0  0  0
  161.5480  207.3580  153.8420 C   0  0  1  0  0  3  0  0  0  0  0  0
  161.5080  208.6580  151.7460 C   0  0  0  0  0  2  0  0  0  0  0  0
  160.5550  201.0580  148.9370 C   0  0  2  0  0  3  0  0  0  0  0  0
  161.2130  209.8710  153.9360 C   0  0  0  0  0  2  0  0  0  0  0  0
  161.6020  208.5540  148.9390 N   0  0  0  0  0  0  0  0  0  0  0  0
  161.3240  207.3550  150.9950 C   0  0  0  0  0  0  0  0  0  0  0  0
  161.4210  207.3720  149.5980 C   0  0  0  0  0  0  0  0  0  0  0  0
  161.1470  204.9420  149.5220 C   0  0  0  0  0  0  0  0  0  0  0  0
  160.3070  200.2150  150.1190 N   0  0  0  0  0  0  0  0  0  0  0  0
  160.0410  207.7560  155.9370 C   0  0  0  0  0  2  0  0  0  0  0  0
  160.9550  208.5860  153.1570 C   0  0  2  0  0  3  0  0  0  0  0  0
  160.4170  201.0920  151.2130 N   0  0  0  0  0  0  0  0  0  0  0  0
  161.4110  207.3260  155.3730 C   0  0  0  0  0  2  0  0  0  0  0  0
  160.4670  209.8440  155.1990 N   0  0  0  0  0  0  0  0  0  0  0  0
  161.4320  206.2360  147.4640 C   0  0  0  0  0  3  0  0  0  0  0  0
  161.3310  206.1720  148.8620 C   0  0  0  0  0  0  0  0  0  0  0  0
  161.0620  203.6740  148.6800 C   0  0  0  0  0  2  0  0  0  0  0  0
  160.9670  206.1180  153.1860 C   0  0  0  0  0  2  0  0  0  0  0  0
  160.8090  203.4520  152.8580 O   0  0  0  0  0  0  0  0  0  0  0  0
  161.7920  200.5600  148.2120 C   0  0  0  0  0  1  0  0  0  0  0  0
  161.0590  204.9080  150.9430 C   0  0  0  0  0  0  0  0  0  0  0  0
  160.7850  202.4310  149.4690 C   0  0  0  0  0  0  0  0  0  0  0  0
  160.6250  210.8450  156.2180 C   0  0  0  0  0  3  0  0  0  0  0  0
  160.2690  212.1280  156.1020 C   0  0  0  0  0  0  0  0  0  0  0  0
  160.4850  213.0380  157.2560 C   0  0  0  0  0  1  0  0  0  0  0  0
  159.7200  212.6410  154.9340 O   0  0  0  0  0  1  0  0  0  0  0  0
  1 16  1  0  0  0  0
  2 24  1  0  0  0  0
  3 11  2  0  0  0  0
  4 21  2  0  0  0  0
  4  3  1  0  0  0  0
  5 25  2  0  0  0  0
  6 18  1  0  0  0  0
  6  5  1  0  0  0  0
  7 24  1  6  0  0  0
  7 19  1  0  0  0  0
  9 26  1  1  0  0  0
  9 28  1  0  0  0  0
  9 15  1  0  0  0  0
 10 20  1  0  0  0  0
 11 13  1  0  0  0  0
 12  2  1  0  0  0  0
 12  8  1  0  0  0  0
 13 12  2  0  0  0  0
 14 27  1  0  0  0  0
 15 18  2  0  0  0  0
 17  8  1  6  0  0  0
 17  7  1  0  0  0  0
 17 10  1  0  0  0  0
 19 16  1  0  0  0  0
 20  1  1  0  0  0  0
 20 29  1  0  0  0  0
 21 22  1  0  0  0  0
 22 14  2  0  0  0  0
 22 13  1  0  0  0  0
 23 28  1  0  0  0  0
 23 14  1  0  0  0  0
 27  5  1  0  0  0  0
 27  2  2  0  0  0  0
 28  6  2  0  0  0  0
 30 29  2  0  0  0  0
 30 31  1  0  0  0  0
 32 30  1  0  0  0  0
M  END
>  <MODEL>
3

>  <REMARK>
 VINA RESULT:      -8.2      2.215      8.165
  Name = 
  1 active torsions:
  status: ('A' for Active; 'I' for Inactive)
    1  A    between atoms: N_20  and  C_29
                            x       y       z     vdW  Elec       q    Type
                         _______ _______ _______ _____ _____    ______ ____

>  <TORSDO>
F 1

$$$$
=
 OpenBabel11122413003D

 32 37  0  0  1  0  0  0  0  0999 V2000
  160.4870  213.3260  146.3450 O   0  0  0  0  0  0  0  0  0  0  0  0
  160.8170  211.6500  150.9500 C   0  0  0  0  0  0  0  0  0  0  0  0
  162.5200  207.1340  151.1300 C   0  0  0  0  0  3  0  0  0  0  0  0
  161.9430  206.9270  152.3810 C   0  0  0  0  0  3  0  0  0  0  0  0
  159.4110  212.5710  152.8770 C   0  0  0  0  0  0  0  0  0  0  0  0
  158.7640  212.2900  154.1550 C   0  0  0  0  0  0  0  0  0  0  0  0
  161.6730  213.1260  149.0930 C   0  0  1  0  0  3  0  0  0  0  0  0
  162.2690  210.7330  149.0460 C   0  0  0  0  0  2  0  0  0  0  0  0
  158.0780  211.2070  156.0300 C   0  0  2  0  0  3  0  0  0  0  0  0
  162.4980  212.0840  146.9310 C   0  0  0  0  0  2  0  0  0  0  0  0
  162.3710  208.3300  150.5010 N   0  0  0  0  0  0  0  0  0  0  0  0
  161.5380  210.5730  150.3640 C   0  0  0  0  0  0  0  0  0  0  0  0
  161.6650  209.3590  151.0530 C   0  0  0  0  0  0  0  0  0  0  0  0
  160.3340  210.2410  152.9070 C   0  0  0  0  0  0  0  0  0  0  0  0
  157.4500  212.5400  156.0390 N   0  0  0  0  0  0  0  0  0  0  0  0
  160.4560  214.4530  147.2020 C   0  0  0  0  0  2  0  0  0  0  0  0
  161.7100  211.8750  148.2200 C   0  0  2  0  0  3  0  0  0  0  0  0
  157.9170  213.1620  154.8670 N   0  0  0  0  0  0  0  0  0  0  0  0
  161.5000  214.4530  148.3370 C   0  0  0  0  0  2  0  0  0  0  0  0
  161.7900  213.0330  146.0650 N   0  0  0  0  0  0  0  0  0  0  0  0
  161.2150  207.9590  152.9720 C   0  0  0  0  0  3  0  0  0  0  0  0
  161.0640  209.1920  152.3180 C   0  0  0  0  0  0  0  0  0  0  0  0
  159.7090  210.0100  154.2780 C   0  0  0  0  0  2  0  0  0  0  0  0
  160.6140  212.9320  150.1630 C   0  0  0  0  0  2  0  0  0  0  0  0
  159.2860  213.7170  152.3670 O   0  0  0  0  0  0  0  0  0  0  0  0
  158.9770  211.0640  157.2440 C   0  0  0  0  0  1  0  0  0  0  0  0
  160.2060  211.4850  152.2230 C   0  0  0  0  0  0  0  0  0  0  0  0
  158.8860  211.1570  154.7790 C   0  0  0  0  0  0  0  0  0  0  0  0
  162.3560  213.5490  144.8490 C   0  0  0  0  0  3  0  0  0  0  0  0
  162.0290  213.1510  143.6160 C   0  0  0  0  0  0  0  0  0  0  0  0
  162.6960  213.7950  142.4550 C   0  0  0  0  0  1  0  0  0  0  0  0
  161.0990  212.1450  143.3840 O   0  0  0  0  0  1  0  0  0  0  0  0
  1 16  1  0  0  0  0
  2 27  1  0  0  0  0
  3  4  1  0  0  0  0
  4 21  2  0  0  0  0
  5  6  1  0  0  0  0
  6 28  2  0  0  0  0
  6 18  1  0  0  0  0
  7 19  1  6  0  0  0
  7 24  1  0  0  0  0
  8 12  1  0  0  0  0
  9 15  1  0  0  0  0
  9 26  1  1  0  0  0
 11 13  1  0  0  0  0
 11  3  2  0  0  0  0
 12  2  2  0  0  0  0
 12 13  1  0  0  0  0
 13 22  2  0  0  0  0
 14 23  1  0  0  0  0
 16 19  1  0  0  0  0
 17 10  1  6  0  0  0
 17  8  1  0  0  0  0
 17  7  1  0  0  0  0
 18 15  2  0  0  0  0
 20  1  1  0  0  0  0
 20 10  1  0  0  0  0
 22 14  1  0  0  0  0
 22 21  1  0  0  0  0
 23 28  1  0  0  0  0
 24  2  1  0  0  0  0
 25  5  2  0  0  0  0
 27  5  1  0  0  0  0
 27 14  2  0  0  0  0
 28  9  1  0  0  0  0
 29 20  1  0  0  0  0
 30 29  2  0  0  0  0
 31 30  1  0  0  0  0
 32 30  1  0  0  0  0
M  END
>  <MODEL>
4

>  <REMARK>
 VINA RESULT:      -6.7      4.777      7.408
  Name = 
  1 active torsions:
  status: ('A' for Active; 'I' for Inactive)
    1  A    between atoms: N_20  and  C_29
                            x       y       z     vdW  Elec       q    Type
                         _______ _______ _______ _____ _____    ______ ____

>  <TORSDO>
F 1

$$$$
