=
 OpenBabel11122412463D

 30 36  0  0  1  0  0  0  0  0999 V2000
  161.8420  205.5680  149.9950 C   0  0  0  0  0  0  0  0  0  0  0  0
  161.0620  203.2550  149.7650 C   0  0  0  0  0  0  0  0  0  0  0  0
  160.8650  205.5350  154.0750 N   0  0  0  0  0  0  0  0  0  0  0  0
  162.3270  206.7410  150.8560 C   0  0  1  0  0  3  0  0  0  0  0  0
  161.8480  205.7700  148.4930 C   0  0  0  0  0  2  0  0  0  0  0  0
  161.3390  209.2920  148.4330 O   0  0  0  0  0  0  0  0  0  0  0  0
  160.3790  209.3590  151.9530 C   0  0  1  0  0  3  0  0  0  0  0  0
  161.7980  208.2260  148.9260 C   0  0  0  0  0  0  0  0  0  0  0  0
  161.6190  208.9280  152.7440 C   0  0  1  0  0  0  0  0  0  0  0  0
  160.9870  206.8140  154.2730 C   0  0  0  0  0  0  0  0  0  0  0  0
  162.3420  207.1440  148.0380 C   0  0  2  0  0  3  0  0  0  0  0  0
  161.8570  208.0450  150.3490 N   0  0  0  0  0  0  0  0  0  0  0  0
  160.5350  202.1100  150.3640 C   0  0  0  0  0  3  0  0  0  0  0  0
  161.9280  210.0240  153.7590 C   0  0  0  0  0  2  0  0  0  0  0  0
  160.1140  210.7370  152.4750 C   0  0  0  0  0  3  0  0  0  0  0  0
  161.2580  203.2160  148.4230 F   0  0  0  0  0  0  0  0  0  0  0  0
  161.4190  205.3160  152.7770 C   0  0  0  0  0  0  0  0  0  0  0  0
  160.3220  202.0620  151.7020 N   0  0  0  0  0  0  0  0  0  0  0  0
  161.3930  204.3880  150.5570 C   0  0  0  0  0  0  0  0  0  0  0  0
  161.9180  206.5490  152.2680 C   0  0  0  0  0  0  0  0  0  0  0  0
  160.4810  207.4910  155.4960 C   0  0  0  0  0  1  0  0  0  0  0  0
  161.6330  207.4870  153.1350 C   0  0  0  0  0  0  0  0  0  0  0  0
  160.9330  211.0900  153.4590 C   0  0  0  0  0  3  0  0  0  0  0  0
  162.4210  210.3750  150.8870 O   0  0  0  0  0  1  0  0  0  0  0  0
  160.6210  203.1120  152.5050 C   0  0  0  0  0  3  0  0  0  0  0  0
  161.1740  204.2800  151.9710 C   0  0  0  0  0  0  0  0  0  0  0  0
  161.7300  209.2120  151.2470 C   0  0  1  0  0  0  0  0  0  0  0  0
  161.9730  207.3550  146.7060 O   0  0  0  0  0  0  0  0  0  0  0  0
  160.4060  206.2070  145.3350 C   0  0  0  0  0  1  0  0  0  0  0  0
  161.6250  206.0910  146.2260 C   0  0  0  0  0  2  0  0  0  0  0  0
  1 19  2  0  0  0  0
  2 13  2  0  0  0  0
  2 19  1  0  0  0  0
  3 10  2  0  0  0  0
  4  1  1  6  0  0  0
  4 20  1  0  0  0  0
  5  1  1  0  0  0  0
  6  8  2  0  0  0  0
  7 15  1  1  0  0  0
  7  9  1  0  0  0  0
  8 12  1  0  0  0  0
  9 22  1  0  0  0  0
  9 14  1  1  0  0  0
 10 21  1  0  0  0  0
 11 28  1  6  0  0  0
 11  5  1  0  0  0  0
 11  8  1  0  0  0  0
 12  4  1  0  0  0  0
 12 27  1  0  0  0  0
 13 18  1  0  0  0  0
 15 23  2  0  0  0  0
 16  2  1  0  0  0  0
 17  3  1  0  0  0  0
 18 25  2  0  0  0  0
 19 26  1  0  0  0  0
 20 17  1  0  0  0  0
 20 22  2  0  0  0  0
 22 10  1  0  0  0  0
 23 14  1  0  0  0  0
 26 25  1  0  0  0  0
 26 17  2  0  0  0  0
 27 24  1  6  0  0  0
 27  7  1  0  0  0  0
 27  9  1  0  0  0  0
 29 30  1  0  0  0  0
 30 28  1  0  0  0  0
M  END
>  <MODEL>
1

>  <REMARK>
 VINA RESULT:      -8.4      0.000      0.000
  Name = 
  2 active torsions:
  status: ('A' for Active; 'I' for Inactive)
    1  A    between atoms: C_11  and  O_28
    2  A    between atoms: O_28  and  C_30
                            x       y       z     vdW  Elec       q    Type
                         _______ _______ _______ _____ _____    ______ ____

>  <TORSDO>
F 2

$$$$
=
 OpenBabel11122412463D

 30 36  0  0  1  0  0  0  0  0999 V2000
  161.9120  208.1730  149.9530 C   0  0  0  0  0  0  0  0  0  0  0  0
  161.6310  206.2620  148.4430 C   0  0  0  0  0  0  0  0  0  0  0  0
  160.8430  205.7900  153.2360 N   0  0  0  0  0  0  0  0  0  0  0  0
  162.1200  208.7550  151.3570 C   0  0  1  0  0  3  0  0  0  0  0  0
  161.9210  209.1520  148.7960 C   0  0  0  0  0  2  0  0  0  0  0  0
  160.7010  212.0170  150.5190 O   0  0  0  0  0  0  0  0  0  0  0  0
  159.6430  210.0220  153.3860 C   0  0  1  0  0  3  0  0  0  0  0  0
  161.3540  210.9420  150.4380 C   0  0  0  0  0  0  0  0  0  0  0  0
  160.9220  209.4330  153.9930 C   0  0  1  0  0  0  0  0  0  0  0  0
  160.6930  206.7600  154.0880 C   0  0  0  0  0  0  0  0  0  0  0  0
  162.1340  210.6120  149.1980 C   0  0  2  0  0  3  0  0  0  0  0  0
  161.4070  210.0330  151.5490 N   0  0  0  0  0  0  0  0  0  0  0  0
  161.3330  204.9090  148.2770 C   0  0  0  0  0  3  0  0  0  0  0  0
  160.9680  209.8410  155.4630 C   0  0  0  0  0  2  0  0  0  0  0  0
  159.0860  210.8380  154.5110 C   0  0  0  0  0  3  0  0  0  0  0  0
  161.8700  206.9850  147.3200 F   0  0  0  0  0  0  0  0  0  0  0  0
  161.4670  206.3970  152.1040 C   0  0  0  0  0  0  0  0  0  0  0  0
  161.0950  204.1130  149.3490 N   0  0  0  0  0  0  0  0  0  0  0  0
  161.6990  206.8240  149.7470 C   0  0  0  0  0  0  0  0  0  0  0  0
  161.7180  207.7700  152.3880 C   0  0  0  0  0  0  0  0  0  0  0  0
  160.0220  206.5800  155.4030 C   0  0  0  0  0  1  0  0  0  0  0  0
  161.2200  208.0330  153.5700 C   0  0  0  0  0  0  0  0  0  0  0  0
  159.7860  210.7270  155.6340 C   0  0  0  0  0  3  0  0  0  0  0  0
  161.4630  211.7590  153.2970 O   0  0  0  0  0  1  0  0  0  0  0  0
  161.1480  204.5950  150.6140 C   0  0  0  0  0  3  0  0  0  0  0  0
  161.4640  205.9370  150.8510 C   0  0  0  0  0  0  0  0  0  0  0  0
  161.0160  210.4940  152.8980 C   0  0  1  0  0  0  0  0  0  0  0  0
  161.7690  211.4470  148.1390 O   0  0  0  0  0  0  0  0  0  0  0  0
  162.4760  213.7050  147.9080 C   0  0  0  0  0  1  0  0  0  0  0  0
  162.8890  212.2470  147.9100 C   0  0  0  0  0  2  0  0  0  0  0  0
  2 19  1  0  0  0  0
  3 10  2  0  0  0  0
  4  1  1  6  0  0  0
  4 12  1  0  0  0  0
  4 20  1  0  0  0  0
  5 11  1  0  0  0  0
  5  1  1  0  0  0  0
  7  9  1  0  0  0  0
  7 15  1  1  0  0  0
  8  6  2  0  0  0  0
  8 12  1  0  0  0  0
  9 14  1  1  0  0  0
 10 21  1  0  0  0  0
 11 28  1  6  0  0  0
 11  8  1  0  0  0  0
 12 27  1  0  0  0  0
 13  2  2  0  0  0  0
 13 18  1  0  0  0  0
 14 23  1  0  0  0  0
 15 23  2  0  0  0  0
 16  2  1  0  0  0  0
 17 20  1  0  0  0  0
 17  3  1  0  0  0  0
 18 25  2  0  0  0  0
 19  1  2  0  0  0  0
 19 26  1  0  0  0  0
 20 22  2  0  0  0  0
 22  9  1  0  0  0  0
 22 10  1  0  0  0  0
 25 26  1  0  0  0  0
 26 17  2  0  0  0  0
 27 24  1  1  0  0  0
 27  7  1  0  0  0  0
 27  9  1  0  0  0  0
 29 30  1  0  0  0  0
 30 28  1  0  0  0  0
M  END
>  <MODEL>
2

>  <REMARK>
 VINA RESULT:      -7.5      2.151      3.156
  Name = 
  2 active torsions:
  status: ('A' for Active; 'I' for Inactive)
    1  A    between atoms: C_11  and  O_28
    2  A    between atoms: O_28  and  C_30
                            x       y       z     vdW  Elec       q    Type
                         _______ _______ _______ _____ _____    ______ ____

>  <TORSDO>
F 2

$$$$
=
 OpenBabel11122412463D

 30 36  0  0  1  0  0  0  0  0999 V2000
  161.2070  207.5480  150.8150 C   0  0  2  0  0  3  0  0  0  0  0  0
  161.3430  207.5190  153.2630 C   0  0  0  0  0  0  0  0  0  0  0  0
  160.7850  203.3740  150.7480 N   0  0  0  0  0  0  0  0  0  0  0  0
  160.8200  206.8900  149.4840 C   0  0  1  0  0  3  0  0  0  0  0  0
  161.7350  208.9670  150.7510 C   0  0  0  0  0  2  0  0  0  0  0  0
  163.1970  208.8390  147.5080 O   0  0  0  0  0  0  0  0  0  0  0  0
  162.9660  205.1990  147.3890 C   0  0  1  0  0  3  0  0  0  0  0  0
  162.3270  208.5300  148.3670 C   0  0  0  0  0  0  0  0  0  0  0  0
  161.4700  204.8640  147.4060 C   0  0  1  0  0  0  0  0  0  0  0  0
  160.9680  203.2220  149.4700 C   0  0  0  0  0  0  0  0  0  0  0  0
  161.8160  209.5530  149.3400 C   0  0  2  0  0  3  0  0  0  0  0  0
  161.7710  207.2070  148.4010 N   0  0  0  0  0  0  0  0  0  0  0  0
  161.3110  206.7850  154.4490 C   0  0  0  0  0  3  0  0  0  0  0  0
  161.1730  204.0020  146.1830 C   0  0  0  0  0  2  0  0  0  0  0  0
  163.4230  204.6120  146.0900 C   0  0  0  0  0  3  0  0  0  0  0  0
  161.5810  208.8510  153.3660 F   0  0  0  0  0  0  0  0  0  0  0  0
  160.6350  204.7830  150.9250 C   0  0  2  0  0  3  0  0  0  0  0  0
  161.0650  205.4520  154.4340 N   0  0  0  0  0  0  0  0  0  0  0  0
  161.1060  206.8760  152.0170 C   0  0  0  0  0  0  0  0  0  0  0  0
  160.6880  205.4230  149.6540 C   0  0  0  0  0  0  0  0  0  0  0  0
  161.2260  201.8970  148.8460 C   0  0  0  0  0  1  0  0  0  0  0  0
  160.9320  204.5060  148.7520 C   0  0  0  0  0  0  0  0  0  0  0  0
  162.4660  203.9520  145.4480 C   0  0  0  0  0  3  0  0  0  0  0  0
  161.7380  206.8740  145.9670 O   0  0  0  0  0  1  0  0  0  0  0  0
  160.8310  204.7880  153.2770 C   0  0  0  0  0  3  0  0  0  0  0  0
  160.8250  205.4680  152.0550 C   0  0  0  0  0  0  0  0  0  0  0  0
  161.9250  206.3120  147.2350 C   0  0  1  0  0  0  0  0  0  0  0  0
  162.6330  210.6870  149.3520 O   0  0  0  0  0  0  0  0  0  0  0  0
  162.8830  212.5420  147.8860 C   0  0  0  0  0  1  0  0  0  0  0  0
  161.9170  211.6520  148.6410 C   0  0  0  0  0  2  0  0  0  0  0  0
  1  5  1  6  0  0  0
  1 19  1  0  0  0  0
  2 16  1  0  0  0  0
  2 13  1  0  0  0  0
  3 17  1  0  0  0  0
  4 20  1  1  0  0  0
  4  1  1  0  0  0  0
  6  8  2  0  0  0  0
  7 15  1  6  0  0  0
  7  9  1  0  0  0  0
  8 12  1  0  0  0  0
  8 11  1  0  0  0  0
  9 14  1  6  0  0  0
  9 22  1  0  0  0  0
 10  3  2  0  0  0  0
 11 28  1  1  0  0  0
 11  5  1  0  0  0  0
 12  4  1  0  0  0  0
 17 20  1  6  0  0  0
 17 26  1  0  0  0  0
 18 13  2  0  0  0  0
 19 26  1  0  0  0  0
 19  2  2  0  0  0  0
 21 10  1  0  0  0  0
 22 10  1  0  0  0  0
 22 20  2  0  0  0  0
 23 15  2  0  0  0  0
 23 14  1  0  0  0  0
 25 18  1  0  0  0  0
 26 25  2  0  0  0  0
 27 24  1  6  0  0  0
 27  7  1  0  0  0  0
 27  9  1  0  0  0  0
 27 12  1  0  0  0  0
 29 30  1  0  0  0  0
 30 28  1  0  0  0  0
M  END
>  <MODEL>
3

>  <REMARK>
 VINA RESULT:      -7.3      2.195      5.572
  Name = 
  2 active torsions:
  status: ('A' for Active; 'I' for Inactive)
    1  A    between atoms: C_11  and  O_28
    2  A    between atoms: O_28  and  C_30
                            x       y       z     vdW  Elec       q    Type
                         _______ _______ _______ _____ _____    ______ ____

>  <TORSDO>
F 2

$$$$
=
 OpenBabel11122412463D

 30 36  0  0  1  0  0  0  0  0999 V2000
  161.6640  208.7850  151.1410 C   0  0  0  0  0  0  0  0  0  0  0  0
  161.6480  206.8720  149.6080 C   0  0  0  0  0  0  0  0  0  0  0  0
  160.6470  206.2770  154.3470 N   0  0  0  0  0  0  0  0  0  0  0  0
  161.7380  209.3690  152.5580 C   0  0  1  0  0  3  0  0  0  0  0  0
  161.6430  209.7720  149.9920 C   0  0  0  0  0  2  0  0  0  0  0  0
  160.0650  212.4920  151.6600 O   0  0  0  0  0  0  0  0  0  0  0  0
  159.0460  210.3750  154.4530 C   0  0  1  0  0  3  0  0  0  0  0  0
  160.8210  211.4840  151.6100 C   0  0  0  0  0  0  0  0  0  0  0  0
  160.3390  209.9040  155.1280 C   0  0  1  0  0  0  0  0  0  0  0  0
  160.3600  207.2200  155.1950 C   0  0  0  0  0  0  0  0  0  0  0  0
  161.6960  211.2420  150.4140 C   0  0  2  0  0  3  0  0  0  0  0  0
  160.8990  210.5730  152.7170 N   0  0  0  0  0  0  0  0  0  0  0  0
  161.4890  205.4980  149.4180 C   0  0  0  0  0  3  0  0  0  0  0  0
  160.2670  210.2980  156.5990 C   0  0  0  0  0  2  0  0  0  0  0  0
  158.3530  211.1230  155.5500 C   0  0  0  0  0  3  0  0  0  0  0  0
  161.8790  207.6260  148.5040 F   0  0  0  0  0  0  0  0  0  0  0  0
  161.2720  206.9520  153.2550 C   0  0  0  0  0  0  0  0  0  0  0  0
  161.2690  204.6730  150.4710 N   0  0  0  0  0  0  0  0  0  0  0  0
  161.5910  207.4240  150.9170 C   0  0  0  0  0  0  0  0  0  0  0  0
  161.3760  208.3390  153.5600 C   0  0  0  0  0  0  0  0  0  0  0  0
  159.6380  206.9640  156.4690 C   0  0  0  0  0  1  0  0  0  0  0  0
  160.7910  208.5420  154.7140 C   0  0  0  0  0  0  0  0  0  0  0  0
  158.9980  211.0680  156.7090 C   0  0  0  0  0  3  0  0  0  0  0  0
  160.6960  212.2770  154.4750 O   0  0  0  0  0  1  0  0  0  0  0  0
  161.2060  205.1450  151.7400 C   0  0  0  0  0  3  0  0  0  0  0  0
  161.3810  206.5070  152.0010 C   0  0  0  0  0  0  0  0  0  0  0  0
  160.3920  210.9800  154.0450 C   0  0  1  0  0  0  0  0  0  0  0  0
  161.3120  212.0500  149.3400 O   0  0  0  0  0  0  0  0  0  0  0  0
  163.1220  212.5650  147.8870 C   0  0  0  0  0  1  0  0  0  0  0  0
  162.0400  211.5690  148.2510 C   0  0  0  0  0  2  0  0  0  0  0  0
  2 19  1  0  0  0  0
  3 10  2  0  0  0  0
  4  1  1  6  0  0  0
  4 12  1  0  0  0  0
  4 20  1  0  0  0  0
  5 11  1  0  0  0  0
  5  1  1  0  0  0  0
  7  9  1  0  0  0  0
  7 15  1  1  0  0  0
  8  6  2  0  0  0  0
  8 12  1  0  0  0  0
  9 14  1  1  0  0  0
 10 21  1  0  0  0  0
 11 28  1  6  0  0  0
 11  8  1  0  0  0  0
 12 27  1  0  0  0  0
 13  2  2  0  0  0  0
 13 18  1  0  0  0  0
 14 23  1  0  0  0  0
 15 23  2  0  0  0  0
 16  2  1  0  0  0  0
 17 20  1  0  0  0  0
 17  3  1  0  0  0  0
 18 25  2  0  0  0  0
 19  1  2  0  0  0  0
 19 26  1  0  0  0  0
 20 22  2  0  0  0  0
 22  9  1  0  0  0  0
 22 10  1  0  0  0  0
 25 26  1  0  0  0  0
 26 17  2  0  0  0  0
 27  7  1  0  0  0  0
 27 24  1  1  0  0  0
 27  9  1  0  0  0  0
 29 30  1  0  0  0  0
 30 28  1  0  0  0  0
M  END
>  <MODEL>
4

>  <REMARK>
 VINA RESULT:      -7.2      2.422      3.715
  Name = 
  2 active torsions:
  status: ('A' for Active; 'I' for Inactive)
    1  A    between atoms: C_11  and  O_28
    2  A    between atoms: O_28  and  C_30
                            x       y       z     vdW  Elec       q    Type
                         _______ _______ _______ _____ _____    ______ ____

>  <TORSDO>
F 2

$$$$
=
 OpenBabel11122412463D

 30 36  0  0  1  0  0  0  0  0999 V2000
  162.0280  207.1210  151.2030 C   0  0  0  0  0  0  0  0  0  0  0  0
  161.8480  209.5490  150.9160 C   0  0  0  0  0  0  0  0  0  0  0  0
  161.8100  206.5720  147.0500 N   0  0  0  0  0  0  0  0  0  0  0  0
  162.3330  205.7230  150.6500 C   0  0  1  0  0  3  0  0  0  0  0  0
  161.7240  207.2210  152.6840 C   0  0  0  0  0  2  0  0  0  0  0  0
  160.3160  203.9860  153.1540 O   0  0  0  0  0  0  0  0  0  0  0  0
  159.9910  203.4470  149.5590 C   0  0  1  0  0  3  0  0  0  0  0  0
  161.1130  204.8030  152.6190 C   0  0  0  0  0  0  0  0  0  0  0  0
  161.4170  203.4250  148.9980 C   0  0  1  0  0  0  0  0  0  0  0  0
  161.6280  205.2850  147.0740 C   0  0  0  0  0  0  0  0  0  0  0  0
  161.7580  205.8880  153.4340 C   0  0  2  0  0  3  0  0  0  0  0  0
  161.4610  204.6830  151.2310 N   0  0  0  0  0  0  0  0  0  0  0  0
  161.7470  210.6420  150.0550 C   0  0  0  0  0  3  0  0  0  0  0  0
  161.6000  202.1100  148.2470 C   0  0  0  0  0  2  0  0  0  0  0  0
  159.4710  202.0890  149.2010 C   0  0  0  0  0  3  0  0  0  0  0  0
  161.8130  209.8050  152.2480 F   0  0  0  0  0  0  0  0  0  0  0  0
  162.1700  206.9100  148.3890 C   0  0  0  0  0  0  0  0  0  0  0  0
  161.7870  210.4740  148.7110 N   0  0  0  0  0  0  0  0  0  0  0  0
  162.0050  208.2370  150.3900 C   0  0  0  0  0  0  0  0  0  0  0  0
  162.2370  205.7220  149.1710 C   0  0  0  0  0  0  0  0  0  0  0  0
  161.1810  204.5130  145.8850 C   0  0  0  0  0  1  0  0  0  0  0  0
  161.8710  204.7200  148.4110 C   0  0  0  0  0  0  0  0  0  0  0  0
  160.3270  201.3750  148.4800 C   0  0  0  0  0  3  0  0  0  0  0  0
  161.4840  202.2270  151.1770 O   0  0  0  0  0  1  0  0  0  0  0  0
  161.9360  209.2470  148.1550 C   0  0  0  0  0  3  0  0  0  0  0  0
  162.0670  208.1120  148.9620 C   0  0  0  0  0  0  0  0  0  0  0  0
  161.1910  203.4220  150.5090 C   0  0  1  0  0  0  0  0  0  0  0  0
  161.1230  206.0310  154.6700 O   0  0  0  0  0  0  0  0  0  0  0  0
  159.9220  207.6120  155.9780 C   0  0  0  0  0  1  0  0  0  0  0  0
  160.7160  207.3650  154.7120 C   0  0  0  0  0  2  0  0  0  0  0  0
  1  5  1  0  0  0  0
  2 16  1  0  0  0  0
  3 10  2  0  0  0  0
  3 17  1  0  0  0  0
  4 20  1  6  0  0  0
  4  1  1  0  0  0  0
  4 12  1  0  0  0  0
  5 11  1  0  0  0  0
  7 15  1  6  0  0  0
  7 27  1  0  0  0  0
  8  6  2  0  0  0  0
  8 11  1  0  0  0  0
  9 14  1  6  0  0  0
  9  7  1  0  0  0  0
  9 27  1  0  0  0  0
 10 22  1  0  0  0  0
 11 28  1  1  0  0  0
 12  8  1  0  0  0  0
 13  2  2  0  0  0  0
 14 23  1  0  0  0  0
 17 26  2  0  0  0  0
 17 20  1  0  0  0  0
 18 13  1  0  0  0  0
 19  2  1  0  0  0  0
 19  1  2  0  0  0  0
 21 10  1  0  0  0  0
 22  9  1  0  0  0  0
 22 20  2  0  0  0  0
 23 15  2  0  0  0  0
 25 18  2  0  0  0  0
 25 26  1  0  0  0  0
 26 19  1  0  0  0  0
 27 24  1  1  0  0  0
 27 12  1  0  0  0  0
 28 30  1  0  0  0  0
 30 29  1  0  0  0  0
M  END
>  <MODEL>
5

>  <REMARK>
 VINA RESULT:      -7.1      2.966      7.097
  Name = 
  2 active torsions:
  status: ('A' for Active; 'I' for Inactive)
    1  A    between atoms: C_11  and  O_28
    2  A    between atoms: O_28  and  C_30
                            x       y       z     vdW  Elec       q    Type
                         _______ _______ _______ _____ _____    ______ ____

>  <TORSDO>
F 2

$$$$
=
 OpenBabel11122412463D

 30 36  0  0  1  0  0  0  0  0999 V2000
  160.8760  203.9180  148.1310 C   0  0  0  0  0  0  0  0  0  0  0  0
  161.5810  203.8220  145.7850 C   0  0  0  0  0  0  0  0  0  0  0  0
  161.7270  208.0230  148.2630 N   0  0  0  0  0  0  0  0  0  0  0  0
  160.4060  204.7060  149.3600 C   0  0  1  0  0  3  0  0  0  0  0  0
  160.9220  202.4080  148.2600 C   0  0  0  0  0  2  0  0  0  0  0  0
  161.5550  202.1970  151.7560 O   0  0  0  0  0  0  0  0  0  0  0  0
  162.4100  205.7390  151.9620 C   0  0  1  0  0  3  0  0  0  0  0  0
  161.0440  202.7250  150.7310 C   0  0  0  0  0  0  0  0  0  0  0  0
  161.1320  206.5090  151.6110 C   0  0  1  0  0  0  0  0  0  0  0  0
  161.6430  208.1560  149.5540 C   0  0  0  0  0  0  0  0  0  0  0  0
  160.4900  201.8720  149.6260 C   0  0  2  0  0  3  0  0  0  0  0  0
  160.9360  204.1530  150.6220 N   0  0  0  0  0  0  0  0  0  0  0  0
  162.0500  204.4920  144.6530 C   0  0  0  0  0  3  0  0  0  0  0  0
  160.8310  207.4610  152.7640 C   0  0  0  0  0  2  0  0  0  0  0  0
  162.7060  206.2030  153.3540 C   0  0  0  0  0  3  0  0  0  0  0  0
  161.4250  202.4780  145.6870 F   0  0  0  0  0  0  0  0  0  0  0  0
  161.2050  206.7200  148.0000 C   0  0  0  0  0  0  0  0  0  0  0  0
  162.2210  205.8360  144.6630 N   0  0  0  0  0  0  0  0  0  0  0  0
  161.2660  204.5480  146.9650 C   0  0  0  0  0  0  0  0  0  0  0  0
  160.7650  206.1370  149.2220 C   0  0  0  0  0  0  0  0  0  0  0  0
  162.1360  209.3610  150.2720 C   0  0  0  0  0  1  0  0  0  0  0  0
  161.0560  206.9680  150.1920 C   0  0  0  0  0  0  0  0  0  0  0  0
  161.8700  207.1430  153.7810 C   0  0  0  0  0  3  0  0  0  0  0  0
  160.4380  204.5610  152.9920 O   0  0  0  0  0  1  0  0  0  0  0  0
  161.9340  206.5780  145.7600 C   0  0  0  0  0  3  0  0  0  0  0  0
  161.4390  205.9720  146.9190 C   0  0  0  0  0  0  0  0  0  0  0  0
  161.0770  204.9980  151.8260 C   0  0  1  0  0  0  0  0  0  0  0  0
  160.9070  200.5450  149.7600 O   0  0  0  0  0  0  0  0  0  0  0  0
  161.2060  199.8280  147.5130 C   0  0  0  0  0  1  0  0  0  0  0  0
  161.8680  200.3690  148.7630 C   0  0  0  0  0  2  0  0  0  0  0  0
  1  5  1  0  0  0  0
  2 19  1  0  0  0  0
  3 10  2  0  0  0  0
  4  1  1  6  0  0  0
  4 12  1  0  0  0  0
  5 11  1  0  0  0  0
  7 15  1  1  0  0  0
  8  6  2  0  0  0  0
  9 27  1  0  0  0  0
  9  7  1  0  0  0  0
  9 14  1  1  0  0  0
 10 22  1  0  0  0  0
 10 21  1  0  0  0  0
 11 28  1  1  0  0  0
 11  8  1  0  0  0  0
 12  8  1  0  0  0  0
 12 27  1  0  0  0  0
 13 18  1  0  0  0  0
 13  2  2  0  0  0  0
 14 23  1  0  0  0  0
 15 23  2  0  0  0  0
 16  2  1  0  0  0  0
 17  3  1  0  0  0  0
 17 20  1  0  0  0  0
 18 25  2  0  0  0  0
 19  1  2  0  0  0  0
 20  4  1  0  0  0  0
 20 22  2  0  0  0  0
 22  9  1  0  0  0  0
 25 26  1  0  0  0  0
 26 19  1  0  0  0  0
 26 17  2  0  0  0  0
 27  7  1  0  0  0  0
 27 24  1  1  0  0  0
 29 30  1  0  0  0  0
 30 28  1  0  0  0  0
M  END
>  <MODEL>
6

>  <REMARK>
 VINA RESULT:      -7.1      2.976      5.267
  Name = 
  2 active torsions:
  status: ('A' for Active; 'I' for Inactive)
    1  A    between atoms: C_11  and  O_28
    2  A    between atoms: O_28  and  C_30
                            x       y       z     vdW  Elec       q    Type
                         _______ _______ _______ _____ _____    ______ ____

>  <TORSDO>
F 2

$$$$
=
 OpenBabel11122412463D

 30 36  0  0  1  0  0  0  0  0999 V2000
  160.9180  211.1350  152.4010 C   0  0  0  0  0  0  0  0  0  0  0  0
  160.0810  213.1380  151.2610 C   0  0  0  0  0  0  0  0  0  0  0  0
  162.0940  209.4850  148.7280 N   0  0  0  0  0  0  0  0  0  0  0  0
  161.7890  209.8730  152.4310 C   0  0  1  0  0  3  0  0  0  0  0  0
  160.1820  211.4910  153.6770 C   0  0  0  0  0  2  0  0  0  0  0  0
  159.7780  208.2070  154.9880 O   0  0  0  0  0  0  0  0  0  0  0  0
  160.6940  206.6690  151.8070 C   0  0  1  0  0  3  0  0  0  0  0  0
  160.4010  209.0990  154.3510 C   0  0  0  0  0  0  0  0  0  0  0  0
  162.1540  207.0560  151.5490 C   0  0  1  0  0  0  0  0  0  0  0  0
  162.3230  208.2820  149.1660 C   0  0  0  0  0  0  0  0  0  0  0  0
  160.4110  210.5200  154.8370 C   0  0  2  0  0  3  0  0  0  0  0  0
  161.1550  208.7670  153.1750 N   0  0  0  0  0  0  0  0  0  0  0  0
  159.8990  213.8420  150.0700 C   0  0  0  0  0  3  0  0  0  0  0  0
  162.9470  205.7690  151.3460 C   0  0  0  0  0  2  0  0  0  0  0  0
  160.7500  205.1740  151.8590 C   0  0  0  0  0  3  0  0  0  0  0  0
  159.5840  213.6980  152.3920 F   0  0  0  0  0  0  0  0  0  0  0  0
  161.9260  210.2720  149.9080 C   0  0  0  0  0  0  0  0  0  0  0  0
  160.3770  213.3580  148.8970 N   0  0  0  0  0  0  0  0  0  0  0  0
  160.7840  211.9020  151.2600 C   0  0  0  0  0  0  0  0  0  0  0  0
  162.1310  209.4500  151.0520 C   0  0  0  0  0  0  0  0  0  0  0  0
  162.5040  207.1170  148.2610 C   0  0  0  0  0  1  0  0  0  0  0  0
  162.3320  208.2240  150.6370 C   0  0  0  0  0  0  0  0  0  0  0  0
  161.9560  204.6860  151.5930 C   0  0  0  0  0  3  0  0  0  0  0  0
  161.9560  206.5900  153.9830 O   0  0  0  0  0  1  0  0  0  0  0  0
  161.0550  212.1870  148.8380 C   0  0  0  0  0  3  0  0  0  0  0  0
  161.2930  211.4440  149.9990 C   0  0  0  0  0  0  0  0  0  0  0  0
  161.5130  207.3590  152.9010 C   0  0  1  0  0  0  0  0  0  0  0  0
  159.4330  210.7220  155.8150 O   0  0  0  0  0  0  0  0  0  0  0  0
  157.0960  211.0780  155.5660 C   0  0  0  0  0  1  0  0  0  0  0  0
  158.4890  211.5550  155.2120 C   0  0  0  0  0  2  0  0  0  0  0  0
  1  4  1  0  0  0  0
  1  5  1  0  0  0  0
  2 16  1  0  0  0  0
  3 10  2  0  0  0  0
  3 17  1  0  0  0  0
  4 20  1  6  0  0  0
  4 12  1  0  0  0  0
  5 11  1  0  0  0  0
  7 15  1  1  0  0  0
  7 27  1  0  0  0  0
  8 11  1  0  0  0  0
  8  6  2  0  0  0  0
  9 14  1  6  0  0  0
  9  7  1  0  0  0  0
  9 27  1  0  0  0  0
 10 22  1  0  0  0  0
 11 28  1  1  0  0  0
 12  8  1  0  0  0  0
 13  2  2  0  0  0  0
 14 23  1  0  0  0  0
 17 26  2  0  0  0  0
 17 20  1  0  0  0  0
 18 13  1  0  0  0  0
 19  2  1  0  0  0  0
 19  1  2  0  0  0  0
 21 10  1  0  0  0  0
 22 20  2  0  0  0  0
 22  9  1  0  0  0  0
 23 15  2  0  0  0  0
 25 18  2  0  0  0  0
 25 26  1  0  0  0  0
 26 19  1  0  0  0  0
 27 12  1  0  0  0  0
 27 24  1  1  0  0  0
 30 29  1  0  0  0  0
 30 28  1  0  0  0  0
M  END
>  <MODEL>
7

>  <REMARK>
 VINA RESULT:      -6.3      3.530      7.442
  Name = 
  2 active torsions:
  status: ('A' for Active; 'I' for Inactive)
    1  A    between atoms: C_11  and  O_28
    2  A    between atoms: O_28  and  C_30
                            x       y       z     vdW  Elec       q    Type
                         _______ _______ _______ _____ _____    ______ ____

>  <TORSDO>
F 2

$$$$
=
 OpenBabel11122412463D

 30 36  0  0  1  0  0  0  0  0999 V2000
  161.5980  209.8020  151.6750 C   0  0  0  0  0  0  0  0  0  0  0  0
  161.9820  207.3810  151.6420 C   0  0  0  0  0  0  0  0  0  0  0  0
  159.5420  209.4690  155.3160 N   0  0  0  0  0  0  0  0  0  0  0  0
  161.2540  211.0970  152.4230 C   0  0  1  0  0  3  0  0  0  0  0  0
  161.9730  209.9340  150.2120 C   0  0  0  0  0  2  0  0  0  0  0  0
  160.0650  212.8370  149.4370 O   0  0  0  0  0  0  0  0  0  0  0  0
  158.1500  212.5810  152.5340 C   0  0  1  0  0  3  0  0  0  0  0  0
  160.7590  212.1130  150.2020 C   0  0  0  0  0  0  0  0  0  0  0  0
  159.1520  212.7870  153.6750 C   0  0  1  0  0  0  0  0  0  0  0  0
  159.0450  210.6700  155.3220 C   0  0  0  0  0  0  0  0  0  0  0  0
  161.9500  211.3660  149.6750 C   0  0  2  0  0  3  0  0  0  0  0  0
  160.4540  212.0270  151.6020 N   0  0  0  0  0  0  0  0  0  0  0  0
  161.8360  206.1430  152.2690 C   0  0  0  0  0  3  0  0  0  0  0  0
  158.6430  213.9370  154.5380 C   0  0  0  0  0  2  0  0  0  0  0  0
  157.1820  213.7060  152.7340 C   0  0  0  0  0  3  0  0  0  0  0  0
  162.5730  207.3900  150.4200 F   0  0  0  0  0  0  0  0  0  0  0  0
  160.5010  209.4820  154.2580 C   0  0  0  0  0  0  0  0  0  0  0  0
  161.2690  206.0490  153.4970 N   0  0  0  0  0  0  0  0  0  0  0  0
  161.5450  208.5680  152.2910 C   0  0  0  0  0  0  0  0  0  0  0  0
  160.5590  210.7880  153.6950 C   0  0  0  0  0  0  0  0  0  0  0  0
  157.9550  211.0840  156.2450 C   0  0  0  0  0  1  0  0  0  0  0  0
  159.6550  211.5240  154.2910 C   0  0  0  0  0  0  0  0  0  0  0  0
  157.4340  214.4250  153.8210 C   0  0  0  0  0  3  0  0  0  0  0  0
  159.7850  214.3760  151.8700 O   0  0  0  0  0  1  0  0  0  0  0  0
  160.8360  207.1470  154.1620 C   0  0  0  0  0  3  0  0  0  0  0  0
  160.9750  208.4200  153.6000 C   0  0  0  0  0  0  0  0  0  0  0  0
  159.5790  213.0390  152.2310 C   0  0  1  0  0  0  0  0  0  0  0  0
  161.9490  211.3410  148.2780 O   0  0  0  0  0  0  0  0  0  0  0  0
  162.4580  213.2220  146.9160 C   0  0  0  0  0  1  0  0  0  0  0  0
  162.9830  212.2000  147.9030 C   0  0  0  0  0  2  0  0  0  0  0  0
  1 19  2  0  0  0  0
  2 13  2  0  0  0  0
  2 19  1  0  0  0  0
  3 10  2  0  0  0  0
  4  1  1  6  0  0  0
  4 20  1  0  0  0  0
  5  1  1  0  0  0  0
  6  8  2  0  0  0  0
  7 15  1  1  0  0  0
  7  9  1  0  0  0  0
  8 12  1  0  0  0  0
  9 22  1  0  0  0  0
  9 14  1  1  0  0  0
 10 21  1  0  0  0  0
 11 28  1  6  0  0  0
 11  8  1  0  0  0  0
 11  5  1  0  0  0  0
 12 27  1  0  0  0  0
 12  4  1  0  0  0  0
 13 18  1  0  0  0  0
 15 23  2  0  0  0  0
 16  2  1  0  0  0  0
 17  3  1  0  0  0  0
 18 25  2  0  0  0  0
 19 26  1  0  0  0  0
 20 17  1  0  0  0  0
 20 22  2  0  0  0  0
 22 10  1  0  0  0  0
 23 14  1  0  0  0  0
 26 25  1  0  0  0  0
 26 17  2  0  0  0  0
 27 24  1  6  0  0  0
 27  7  1  0  0  0  0
 27  9  1  0  0  0  0
 29 30  1  0  0  0  0
 30 28  1  0  0  0  0
M  END
>  <MODEL>
8

>  <REMARK>
 VINA RESULT:      -6.2      3.033      4.726
  Name = 
  2 active torsions:
  status: ('A' for Active; 'I' for Inactive)
    1  A    between atoms: C_11  and  O_28
    2  A    between atoms: O_28  and  C_30
                            x       y       z     vdW  Elec       q    Type
                         _______ _______ _______ _____ _____    ______ ____

>  <TORSDO>
F 2

$$$$
=
 OpenBabel11122412463D

 30 36  0  0  1  0  0  0  0  0999 V2000
  161.0170  204.9930  149.4540 C   0  0  0  0  0  0  0  0  0  0  0  0
  161.8860  203.9020  147.4380 C   0  0  0  0  0  0  0  0  0  0  0  0
  161.9930  208.7600  147.8860 N   0  0  0  0  0  0  0  0  0  0  0  0
  160.4860  206.2320  150.1870 C   0  0  1  0  0  3  0  0  0  0  0  0
  161.0030  203.6850  150.2190 C   0  0  0  0  0  2  0  0  0  0  0  0
  161.3750  204.9930  153.5080 O   0  0  0  0  0  0  0  0  0  0  0  0
  162.3310  208.2820  152.2480 C   0  0  1  0  0  3  0  0  0  0  0  0
  160.9580  205.0300  152.3190 C   0  0  0  0  0  0  0  0  0  0  0  0
  161.1080  208.8270  151.5010 C   0  0  1  0  0  0  0  0  0  0  0  0
  161.8210  209.4330  148.9860 C   0  0  0  0  0  0  0  0  0  0  0  0
  160.4570  203.7860  151.6450 C   0  0  2  0  0  3  0  0  0  0  0  0
  160.9050  206.2730  151.6020 N   0  0  0  0  0  0  0  0  0  0  0  0
  162.4570  204.0220  146.1700 C   0  0  0  0  0  3  0  0  0  0  0  0
  160.7570  210.1800  152.1100 C   0  0  0  0  0  2  0  0  0  0  0  0
  162.5420  209.2980  153.3270 C   0  0  0  0  0  3  0  0  0  0  0  0
  161.6920  202.6450  147.9120 F   0  0  0  0  0  0  0  0  0  0  0  0
  161.4480  207.4700  148.1660 C   0  0  0  0  0  0  0  0  0  0  0  0
  162.6710  205.2410  145.6180 N   0  0  0  0  0  0  0  0  0  0  0  0
  161.5100  205.0640  148.1660 C   0  0  0  0  0  0  0  0  0  0  0  0
  160.9020  207.4660  149.4800 C   0  0  0  0  0  0  0  0  0  0  0  0
  162.3010  210.8300  149.1560 C   0  0  0  0  0  1  0  0  0  0  0  0
  161.1500  208.6330  150.0220 C   0  0  0  0  0  0  0  0  0  0  0  0
  161.7090  210.3300  153.2440 C   0  0  0  0  0  3  0  0  0  0  0  0
  160.2520  207.6580  153.5230 O   0  0  0  0  0  1  0  0  0  0  0  0
  162.3310  206.3820  146.2660 C   0  0  0  0  0  3  0  0  0  0  0  0
  161.7340  206.3310  147.5300 C   0  0  0  0  0  0  0  0  0  0  0  0
  160.9870  207.5530  152.3370 C   0  0  1  0  0  0  0  0  0  0  0  0
  160.8180  202.6440  152.3650 O   0  0  0  0  0  0  0  0  0  0  0  0
  160.8310  200.9760  150.6720 C   0  0  0  0  0  1  0  0  0  0  0  0
  161.6580  201.9310  151.5080 C   0  0  0  0  0  2  0  0  0  0  0  0
  1  5  1  0  0  0  0
  2 16  1  0  0  0  0
  2 19  1  0  0  0  0
  3 17  1  0  0  0  0
  3 10  2  0  0  0  0
  4  1  1  6  0  0  0
  4 12  1  0  0  0  0
  5 11  1  0  0  0  0
  7 27  1  0  0  0  0
  7 15  1  1  0  0  0
  8  6  2  0  0  0  0
  9 14  1  1  0  0  0
  9  7  1  0  0  0  0
  9 27  1  0  0  0  0
 10 21  1  0  0  0  0
 10 22  1  0  0  0  0
 11  8  1  0  0  0  0
 11 28  1  1  0  0  0
 12  8  1  0  0  0  0
 12 27  1  0  0  0  0
 13  2  2  0  0  0  0
 14 23  1  0  0  0  0
 17 20  1  0  0  0  0
 18 13  1  0  0  0  0
 18 25  2  0  0  0  0
 19  1  2  0  0  0  0
 20 22  2  0  0  0  0
 20  4  1  0  0  0  0
 22  9  1  0  0  0  0
 23 15  2  0  0  0  0
 25 26  1  0  0  0  0
 26 17  2  0  0  0  0
 26 19  1  0  0  0  0
 27 24  1  1  0  0  0
 29 30  1  0  0  0  0
 30 28  1  0  0  0  0
M  END
>  <MODEL>
9

>  <REMARK>
 VINA RESULT:      -5.9      2.550      4.724
  Name = 
  2 active torsions:
  status: ('A' for Active; 'I' for Inactive)
    1  A    between atoms: C_11  and  O_28
    2  A    between atoms: O_28  and  C_30
                            x       y       z     vdW  Elec       q    Type
                         _______ _______ _______ _____ _____    ______ ____

>  <TORSDO>
F 2

$$$$
