=
 OpenBabel11122413013D

 32 37  0  0  1  0  0  0  0  0999 V2000
  162.3710  205.0260  146.9140 C   0  0  0  0  0  2  0  0  0  0  0  0
  161.1960  208.7920  150.5450 C   0  0  2  0  0  3  0  0  0  0  0  0
  160.5560  206.1750  154.6920 C   0  0  0  0  0  2  0  0  0  0  0  0
  160.7940  207.4270  155.5320 C   0  0  0  0  0  2  0  0  0  0  0  0
  161.2600  211.3610  150.6410 C   0  0  0  0  0  0  0  0  0  0  0  0
  160.4840  212.4690  151.3110 C   0  0  1  0  0  3  0  0  0  0  0  0
  161.4720  207.5880  148.3190 C   0  0  2  0  0  3  0  0  0  0  0  0
  161.2850  206.3280  150.5360 C   0  0  0  0  0  2  0  0  0  0  0  0
  158.8330  212.2400  153.0700 C   0  0  2  0  0  3  0  0  0  0  0  0
  160.4320  205.2970  148.4190 N   0  0  0  0  0  2  0  0  0  0  0  0
  161.3380  206.2650  153.3860 C   0  0  0  0  0  2  0  0  0  0  0  0
  161.5970  207.5700  151.2860 N   0  0  2  0  0  0  0  0  0  0  0  0
  160.8980  207.5030  152.5850 C   0  0  2  0  0  3  0  0  0  0  0  0
  160.7840  209.9990  152.6640 C   0  0  1  0  0  3  0  0  0  0  0  0
  158.2280  212.8200  151.8130 C   0  0  0  0  0  2  0  0  0  0  0  0
  162.2090  206.4020  146.6720 O   0  0  0  0  0  0  0  0  0  0  0  0
  160.6790  206.5520  149.1420 C   0  0  2  0  0  3  0  0  0  0  0  0
  159.1550  212.5740  150.7160 N   0  0  0  0  0  2  0  0  0  0  0  0
  162.6280  207.0240  147.7600 O   0  0  0  0  0  0  0  0  0  0  0  0
  161.6840  204.5710  148.2070 C   0  0  1  0  0  3  0  0  0  0  0  0
  160.3860  208.6680  154.7460 C   0  0  0  0  0  2  0  0  0  0  0  0
  161.1790  208.7540  153.4410 C   0  0  1  0  0  3  0  0  0  0  0  0
  161.0460  211.2110  153.4320 N   0  0  0  0  0  2  0  0  0  0  0  0
  161.8720  208.7960  149.1670 C   0  0  0  0  0  2  0  0  0  0  0  0
  161.9070  211.6530  149.5740 N   0  0  0  0  0  2  0  0  0  0  0  0
  158.4400  213.0750  154.2700 C   0  0  0  0  0  1  0  0  0  0  0  0
  161.5530  210.0540  151.3530 C   0  0  1  0  0  3  0  0  0  0  0  0
  160.3190  212.3360  152.8320 C   0  0  1  0  0  3  0  0  0  0  0  0
  161.4270  203.1380  148.1390 N   0  0  0  0  0  2  0  0  0  0  0  0
  161.0430  202.3560  149.2730 C   0  0  0  0  0  0  0  0  0  0  0  0
  160.9120  201.0760  149.1470 N   0  0  0  0  0  2  0  0  0  0  0  0
  160.8650  202.9750  150.6180 C   0  0  0  0  0  1  0  0  0  0  0  0
  1 20  1  0  0  0  0
  2 24  1  6  0  0  0
  2 12  1  0  0  0  0
  2 27  1  0  0  0  0
  3  4  1  0  0  0  0
  6  5  1  6  0  0  0
  6 28  1  0  0  0  0
  7 17  1  0  0  0  0
  7 24  1  1  0  0  0
  9 26  1  1  0  0  0
 10 17  1  0  0  0  0
 11  3  1  0  0  0  0
 12  8  1  6  0  0  0
 12 13  1  0  0  0  0
 13 11  1  1  0  0  0
 13 22  1  0  0  0  0
 14 23  1  1  0  0  0
 14 22  1  0  0  0  0
 15  9  1  0  0  0  0
 16  1  1  0  0  0  0
 16 19  1  0  0  0  0
 17  8  1  1  0  0  0
 18  6  1  0  0  0  0
 18 15  1  0  0  0  0
 19  7  1  0  0  0  0
 20 29  1  6  0  0  0
 20 10  1  0  0  0  0
 21  4  1  0  0  0  0
 22 21  1  1  0  0  0
 25  5  2  0  0  0  0
 27  5  1  6  0  0  0
 27 14  1  0  0  0  0
 28  9  1  0  0  0  0
 28 23  1  6  0  0  0
 29 30  1  0  0  0  0
 30 32  1  0  0  0  0
 31 30  2  0  0  0  0
M  END
>  <MODEL>
1

>  <REMARK>
 VINA RESULT:      -8.7      0.000      0.000
  Name = 
  1 active torsions:
  status: ('A' for Active; 'I' for Inactive)
    1  A    between atoms: C_20  and  N_29
                            x       y       z     vdW  Elec       q    Type
                         _______ _______ _______ _____ _____    ______ ____

>  <TORSDO>
F 1

$$$$
=
 OpenBabel11122413013D

 32 37  0  0  1  0  0  0  0  0999 V2000
  162.3970  205.5950  147.9070 C   0  0  0  0  0  2  0  0  0  0  0  0
  160.8550  209.2480  151.5150 C   0  0  2  0  0  3  0  0  0  0  0  0
  160.3430  206.5790  155.6470 C   0  0  0  0  0  2  0  0  0  0  0  0
  160.4640  207.8440  156.4920 C   0  0  0  0  0  2  0  0  0  0  0  0
  160.7130  211.8130  151.6130 C   0  0  0  0  0  0  0  0  0  0  0  0
  159.8380  212.8550  152.2690 C   0  0  1  0  0  3  0  0  0  0  0  0
  161.2700  208.0740  149.2950 C   0  0  2  0  0  3  0  0  0  0  0  0
  161.1400  206.7980  151.5070 C   0  0  0  0  0  2  0  0  0  0  0  0
  158.1760  212.4920  153.9940 C   0  0  2  0  0  3  0  0  0  0  0  0
  160.4130  205.7080  149.3720 N   0  0  0  0  0  2  0  0  0  0  0  0
  161.1410  206.7340  154.3570 C   0  0  0  0  0  2  0  0  0  0  0  0
  161.3370  208.0600  152.2630 N   0  0  2  0  0  0  0  0  0  0  0  0
  160.6200  207.9340  153.5480 C   0  0  2  0  0  3  0  0  0  0  0  0
  160.3060  210.4140  153.6270 C   0  0  1  0  0  3  0  0  0  0  0  0
  157.5510  213.0240  152.7260 C   0  0  0  0  0  2  0  0  0  0  0  0
  162.1310  206.9550  147.6620 O   0  0  0  0  0  0  0  0  0  0  0  0
  160.5460  206.9770  150.1010 C   0  0  2  0  0  3  0  0  0  0  0  0
  158.5170  212.8550  151.6480 N   0  0  0  0  0  2  0  0  0  0  0  0
  162.4780  207.6050  148.7580 O   0  0  0  0  0  0  0  0  0  0  0  0
  161.7230  205.0840  149.1850 C   0  0  1  0  0  3  0  0  0  0  0  0
  159.9740  209.0510  155.6990 C   0  0  0  0  0  2  0  0  0  0  0  0
  160.7830  209.2020  154.4100 C   0  0  1  0  0  3  0  0  0  0  0  0
  160.4550  211.6410  154.4000 N   0  0  0  0  0  2  0  0  0  0  0  0
  161.5560  209.3080  150.1510 C   0  0  0  0  0  2  0  0  0  0  0  0
  161.3550  212.1590  150.5600 N   0  0  0  0  0  2  0  0  0  0  0  0
  157.6940  213.2900  155.1870 C   0  0  0  0  0  1  0  0  0  0  0  0
  161.0950  210.5320  152.3300 C   0  0  1  0  0  3  0  0  0  0  0  0
  159.6540  212.7060  153.7860 C   0  0  1  0  0  3  0  0  0  0  0  0
  161.5820  203.6350  149.1110 N   0  0  0  0  0  2  0  0  0  0  0  0
  161.2250  202.8240  150.2330 C   0  0  0  0  0  0  0  0  0  0  0  0
  161.1990  201.5380  150.1060 N   0  0  0  0  0  2  0  0  0  0  0  0
  160.9550  203.4260  151.5710 C   0  0  0  0  0  1  0  0  0  0  0  0
  1 20  1  0  0  0  0
  2 24  1  6  0  0  0
  2 12  1  0  0  0  0
  2 27  1  0  0  0  0
  3  4  1  0  0  0  0
  6  5  1  6  0  0  0
  6 28  1  0  0  0  0
  7 17  1  0  0  0  0
  7 24  1  1  0  0  0
  9 26  1  1  0  0  0
 10 17  1  0  0  0  0
 11  3  1  0  0  0  0
 12  8  1  6  0  0  0
 12 13  1  0  0  0  0
 13 11  1  1  0  0  0
 13 22  1  0  0  0  0
 14 23  1  1  0  0  0
 14 22  1  0  0  0  0
 15  9  1  0  0  0  0
 16  1  1  0  0  0  0
 16 19  1  0  0  0  0
 17  8  1  1  0  0  0
 18  6  1  0  0  0  0
 18 15  1  0  0  0  0
 19  7  1  0  0  0  0
 20 29  1  6  0  0  0
 20 10  1  0  0  0  0
 21  4  1  0  0  0  0
 22 21  1  1  0  0  0
 25  5  2  0  0  0  0
 27  5  1  6  0  0  0
 27 14  1  0  0  0  0
 28  9  1  0  0  0  0
 28 23  1  6  0  0  0
 29 30  1  0  0  0  0
 30 32  1  0  0  0  0
 31 30  2  0  0  0  0
M  END
>  <MODEL>
2

>  <REMARK>
 VINA RESULT:      -6.6      1.018      1.135
  Name = 
  1 active torsions:
  status: ('A' for Active; 'I' for Inactive)
    1  A    between atoms: C_20  and  N_29
                            x       y       z     vdW  Elec       q    Type
                         _______ _______ _______ _____ _____    ______ ____

>  <TORSDO>
F 1

$$$$
