=
 OpenBabel11122414183D

 34 40  0  0  1  0  0  0  0  0999 V2000
  160.8200  207.3040  154.1630 C   0  0  0  0  0  0  0  0  0  0  0  0
  161.4740  205.1330  153.0110 C   0  0  0  0  0  2  0  0  0  0  0  0
  158.3050  213.2550  154.2160 C   0  0  0  0  0  0  0  0  0  0  0  0
  159.8740  209.3600  154.9880 C   0  0  0  0  0  0  0  0  0  0  0  0
  159.9680  211.4500  153.5540 N   0  0  2  0  0  0  0  0  0  0  0  0
  159.7720  213.5170  152.2450 C   0  0  0  0  0  1  0  0  0  0  0  0
  157.1250  213.6370  154.0010 O   0  0  0  0  0  0  0  0  0  0  0  0
  160.2410  213.0910  155.8310 C   0  0  0  0  0  2  0  0  0  0  0  0
  162.0080  207.2330  151.9420 C   0  0  2  0  0  3  0  0  0  0  0  0
  161.1010  207.2720  148.8480 C   0  0  0  0  0  3  0  0  0  0  0  0
  159.9880  210.4780  152.4550 C   0  0  0  0  0  2  0  0  0  0  0  0
  160.2160  211.5770  156.0160 C   0  0  0  0  0  2  0  0  0  0  0  0
  161.1230  208.4230  151.5500 C   0  0  1  0  0  3  0  0  0  0  0  0
  162.1330  204.8310  151.6740 C   0  0  0  0  0  2  0  0  0  0  0  0
  159.5560  210.8340  154.8460 C   0  0  2  0  0  3  0  0  0  0  0  0
  158.9210  213.5790  155.4650 N   0  0  0  0  0  2  0  0  0  0  0  0
  160.9630  206.1760  149.8790 C   0  0  2  0  0  3  0  0  0  0  0  0
  160.5630  208.6700  153.9840 C   0  0  0  0  0  0  0  0  0  0  0  0
  159.0380  212.5120  153.1190 C   0  0  2  0  0  3  0  0  0  0  0  0
  161.0070  209.3870  152.7400 C   0  0  2  0  0  3  0  0  0  0  0  0
  159.7090  207.3590  156.2470 C   0  0  0  0  0  3  0  0  0  0  0  0
  161.3950  208.5110  149.0820 N   0  0  0  0  0  0  0  0  0  0  0  0
  159.4570  208.6850  156.0940 N   0  0  0  0  0  0  0  0  0  0  0  0
  161.7660  209.1080  150.3530 C   0  0  0  0  0  2  0  0  0  0  0  0
  162.1350  206.1400  150.8750 C   0  0  1  0  0  3  0  0  0  0  0  0
  160.3830  206.6750  155.2870 N   0  0  0  0  0  0  0  0  0  0  0  0
  161.4840  206.5750  153.1230 N   0  0  0  0  0  0  0  0  0  0  0  0
  160.8340  204.9510  149.2150 O   0  0  0  0  0  0  0  0  0  0  0  0
  161.4050  205.1650  147.9560 C   0  0  0  0  0  2  0  0  0  0  0  0
  160.9660  201.7780  146.9620 N   0  0  0  0  0  2  0  0  0  0  0  0
  161.5990  203.8020  145.8880 C   0  0  0  0  0  2  0  0  0  0  0  0
  161.8700  203.8450  147.3670 C   0  0  2  0  0  3  0  0  0  0  0  0
  160.8950  202.4880  145.6950 C   0  0  0  0  0  2  0  0  0  0  0  0
  161.1190  202.7520  147.9640 N   0  0  0  0  0  2  0  0  0  0  0  0
  1 26  1  0  0  0  0
  2 27  1  0  0  0  0
  3 16  1  0  0  0  0
  4 23  2  0  0  0  0
  5 11  1  6  0  0  0
  5 15  1  0  0  0  0
  7  3  2  0  0  0  0
  8 12  1  0  0  0  0
  9 27  1  1  0  0  0
 10 22  2  0  0  0  0
 10 17  1  0  0  0  0
 13 24  1  6  0  0  0
 13  9  1  0  0  0  0
 13 20  1  0  0  0  0
 14  2  1  0  0  0  0
 15  4  1  0  0  0  0
 15 12  1  1  0  0  0
 16  8  1  0  0  0  0
 17 28  1  6  0  0  0
 17 25  1  0  0  0  0
 18  1  2  0  0  0  0
 18  4  1  0  0  0  0
 19  6  1  1  0  0  0
 19  5  1  0  0  0  0
 19  3  1  0  0  0  0
 20 11  1  6  0  0  0
 20 18  1  0  0  0  0
 22 24  1  0  0  0  0
 23 21  1  0  0  0  0
 25 14  1  1  0  0  0
 25  9  1  0  0  0  0
 26 21  2  0  0  0  0
 27  1  1  0  0  0  0
 29 28  1  0  0  0  0
 30 34  1  0  0  0  0
 31 32  1  0  0  0  0
 32 29  1  1  0  0  0
 32 34  1  0  0  0  0
 33 31  1  0  0  0  0
 33 30  1  0  0  0  0
M  END
>  <MODEL>
1

>  <REMARK>
 VINA RESULT:      -9.0      0.000      0.000
  Name = 
  3 active torsions:
  status: ('A' for Active; 'I' for Inactive)
    1  A    between atoms: C_17  and  O_28
    2  A    between atoms: O_28  and  C_29
    3  A    between atoms: C_29  and  C_32
                            x       y       z     vdW  Elec       q    Type
                         _______ _______ _______ _____ _____    ______ ____

>  <TORSDO>
F 3

$$$$
=
 OpenBabel11122414183D

 34 40  0  0  1  0  0  0  0  0999 V2000
  160.9880  208.1270  153.9770 C   0  0  0  0  0  0  0  0  0  0  0  0
  162.0080  206.1190  152.7970 C   0  0  0  0  0  2  0  0  0  0  0  0
  157.7090  213.6940  154.0600 C   0  0  0  0  0  0  0  0  0  0  0  0
  159.7180  210.0000  154.8030 C   0  0  0  0  0  0  0  0  0  0  0  0
  159.6420  212.1540  153.4650 N   0  0  2  0  0  0  0  0  0  0  0  0
  159.2710  214.2400  152.2260 C   0  0  0  0  0  1  0  0  0  0  0  0
  156.5070  213.9300  153.7660 O   0  0  0  0  0  0  0  0  0  0  0  0
  159.5220  213.7020  155.8190 C   0  0  0  0  0  2  0  0  0  0  0  0
  162.3380  208.3210  151.8590 C   0  0  2  0  0  3  0  0  0  0  0  0
  161.6670  208.3950  148.7050 C   0  0  0  0  0  3  0  0  0  0  0  0
  159.8720  211.2480  152.3330 C   0  0  0  0  0  2  0  0  0  0  0  0
  159.6850  212.1900  155.9410 C   0  0  0  0  0  2  0  0  0  0  0  0
  161.3340  209.4050  151.4440 C   0  0  1  0  0  3  0  0  0  0  0  0
  162.8000  205.9720  151.5070 C   0  0  0  0  0  2  0  0  0  0  0  0
  159.2180  211.4270  154.6940 C   0  0  2  0  0  3  0  0  0  0  0  0
  158.1810  214.0330  155.3670 N   0  0  0  0  0  2  0  0  0  0  0  0
  161.6000  207.2400  149.6780 C   0  0  2  0  0  3  0  0  0  0  0  0
  160.5660  209.4560  153.8320 C   0  0  0  0  0  0  0  0  0  0  0  0
  158.6140  213.1070  152.9980 C   0  0  2  0  0  3  0  0  0  0  0  0
  161.0030  210.2860  152.6560 C   0  0  2  0  0  3  0  0  0  0  0  0
  159.7260  207.9350  155.9660 C   0  0  0  0  0  3  0  0  0  0  0  0
  161.7760  209.6480  149.0100 N   0  0  0  0  0  0  0  0  0  0  0  0
  159.3130  209.2240  155.8450 N   0  0  0  0  0  0  0  0  0  0  0  0
  161.9690  210.2240  150.3300 C   0  0  0  0  0  2  0  0  0  0  0  0
  162.6880  207.3070  150.7630 C   0  0  1  0  0  3  0  0  0  0  0  0
  160.5550  207.3920  155.0360 N   0  0  0  0  0  0  0  0  0  0  0  0
  161.8190  207.5420  152.9670 N   0  0  0  0  0  0  0  0  0  0  0  0
  161.6840  206.0440  148.9580 O   0  0  0  0  0  0  0  0  0  0  0  0
  160.6900  205.2260  149.5030 C   0  0  0  0  0  2  0  0  0  0  0  0
  160.3070  201.7300  150.0380 N   0  0  0  0  0  2  0  0  0  0  0  0
  161.1370  203.1070  148.2860 C   0  0  0  0  0  2  0  0  0  0  0  0
  161.1990  203.8010  149.6200 C   0  0  2  0  0  3  0  0  0  0  0  0
  160.4320  201.8140  148.5910 C   0  0  0  0  0  2  0  0  0  0  0  0
  160.3440  203.0490  150.5250 N   0  0  0  0  0  2  0  0  0  0  0  0
  1 26  1  0  0  0  0
  2 27  1  0  0  0  0
  3 16  1  0  0  0  0
  4 23  2  0  0  0  0
  5 11  1  6  0  0  0
  5 15  1  0  0  0  0
  7  3  2  0  0  0  0
  8 12  1  0  0  0  0
  9 27  1  1  0  0  0
 10 22  2  0  0  0  0
 10 17  1  0  0  0  0
 13 24  1  6  0  0  0
 13  9  1  0  0  0  0
 13 20  1  0  0  0  0
 14  2  1  0  0  0  0
 15  4  1  0  0  0  0
 15 12  1  1  0  0  0
 16  8  1  0  0  0  0
 17 28  1  6  0  0  0
 17 25  1  0  0  0  0
 18  1  2  0  0  0  0
 18  4  1  0  0  0  0
 19  6  1  1  0  0  0
 19  5  1  0  0  0  0
 19  3  1  0  0  0  0
 20 11  1  6  0  0  0
 20 18  1  0  0  0  0
 22 24  1  0  0  0  0
 23 21  1  0  0  0  0
 25 14  1  1  0  0  0
 25  9  1  0  0  0  0
 26 21  2  0  0  0  0
 27  1  1  0  0  0  0
 28 29  1  0  0  0  0
 30 34  1  0  0  0  0
 31 33  1  0  0  0  0
 31 32  1  0  0  0  0
 32 29  1  6  0  0  0
 32 34  1  0  0  0  0
 33 30  1  0  0  0  0
M  END
>  <MODEL>
2

>  <REMARK>
 VINA RESULT:      -7.8      1.315      1.410
  Name = 
  3 active torsions:
  status: ('A' for Active; 'I' for Inactive)
    1  A    between atoms: C_17  and  O_28
    2  A    between atoms: O_28  and  C_29
    3  A    between atoms: C_29  and  C_32
                            x       y       z     vdW  Elec       q    Type
                         _______ _______ _______ _____ _____    ______ ____

>  <TORSDO>
F 3

$$$$
=
 OpenBabel11122414183D

 34 40  0  0  1  0  0  0  0  0999 V2000
  161.4900  208.5650  149.6750 C   0  0  0  0  0  0  0  0  0  0  0  0
  161.6300  207.2450  147.5050 C   0  0  0  0  0  2  0  0  0  0  0  0
  161.7660  209.0990  156.1080 C   0  0  0  0  0  0  0  0  0  0  0  0
  161.6620  209.5550  151.8640 C   0  0  0  0  0  0  0  0  0  0  0  0
  160.8350  208.2750  153.8910 N   0  0  2  0  0  0  0  0  0  0  0  0
  160.2890  207.1220  155.9880 C   0  0  0  0  0  1  0  0  0  0  0  0
  162.7370  208.9380  156.8930 O   0  0  0  0  0  0  0  0  0  0  0  0
  160.0190  210.6580  155.1580 C   0  0  0  0  0  2  0  0  0  0  0  0
  160.3900  206.3200  149.3610 C   0  0  2  0  0  3  0  0  0  0  0  0
  161.2100  203.2560  149.9450 C   0  0  0  0  0  3  0  0  0  0  0  0
  161.1510  207.1070  153.0590 C   0  0  0  0  0  2  0  0  0  0  0  0
  160.5720  210.7330  153.7390 C   0  0  0  0  0  2  0  0  0  0  0  0
  160.8010  206.0340  150.8110 C   0  0  1  0  0  3  0  0  0  0  0  0
  161.1110  205.8760  147.0940 C   0  0  0  0  0  2  0  0  0  0  0  0
  161.4440  209.5270  153.3630 C   0  0  2  0  0  3  0  0  0  0  0  0
  161.0820  210.3560  156.1020 N   0  0  0  0  0  2  0  0  0  0  0  0
  161.7270  204.2080  148.8920 C   0  0  2  0  0  3  0  0  0  0  0  0
  161.2520  208.4900  151.0540 C   0  0  0  0  0  0  0  0  0  0  0  0
  161.3330  207.9370  155.2410 C   0  0  2  0  0  3  0  0  0  0  0  0
  160.5790  207.2910  151.6630 C   0  0  2  0  0  3  0  0  0  0  0  0
  162.5230  210.6700  149.9580 C   0  0  0  0  0  3  0  0  0  0  0  0
  160.5020  203.5730  150.9830 N   0  0  0  0  0  0  0  0  0  0  0  0
  162.2950  210.6190  151.2960 N   0  0  0  0  0  0  0  0  0  0  0  0
  159.9520  204.8760  151.3150 C   0  0  0  0  0  2  0  0  0  0  0  0
  160.6470  205.1740  148.3750 C   0  0  1  0  0  3  0  0  0  0  0  0
  162.1260  209.6490  149.1560 N   0  0  0  0  0  0  0  0  0  0  0  0
  161.1170  207.4610  148.8400 N   0  0  0  0  0  0  0  0  0  0  0  0
  162.2720  203.4600  147.8430 O   0  0  0  0  0  0  0  0  0  0  0  0
  161.3930  202.3870  147.6730 C   0  0  0  0  0  2  0  0  0  0  0  0
  160.0290  200.7180  144.8440 N   0  0  0  0  0  2  0  0  0  0  0  0
  160.6710  202.9470  145.3630 C   0  0  0  0  0  2  0  0  0  0  0  0
  161.3910  201.9430  146.2220 C   0  0  2  0  0  3  0  0  0  0  0  0
  159.7040  202.1090  144.5740 C   0  0  0  0  0  2  0  0  0  0  0  0
  160.6690  200.6870  146.0950 N   0  0  0  0  0  2  0  0  0  0  0  0
  1 18  1  0  0  0  0
  2 27  1  0  0  0  0
  3  7  2  0  0  0  0
  4 15  1  0  0  0  0
  5 11  1  6  0  0  0
  5 19  1  0  0  0  0
  8 16  1  0  0  0  0
  9 27  1  6  0  0  0
  9 13  1  0  0  0  0
 10 22  2  0  0  0  0
 12  8  1  0  0  0  0
 13 24  1  1  0  0  0
 13 20  1  0  0  0  0
 14  2  1  0  0  0  0
 15 12  1  6  0  0  0
 15  5  1  0  0  0  0
 16  3  1  0  0  0  0
 17 28  1  6  0  0  0
 17 10  1  0  0  0  0
 18 20  1  0  0  0  0
 18  4  2  0  0  0  0
 19  6  1  1  0  0  0
 19  3  1  0  0  0  0
 20 11  1  1  0  0  0
 21 23  2  0  0  0  0
 22 24  1  0  0  0  0
 23  4  1  0  0  0  0
 25 14  1  6  0  0  0
 25 17  1  0  0  0  0
 25  9  1  0  0  0  0
 26  1  2  0  0  0  0
 26 21  1  0  0  0  0
 27  1  1  0  0  0  0
 29 28  1  0  0  0  0
 30 34  1  0  0  0  0
 31 32  1  0  0  0  0
 32 29  1  1  0  0  0
 33 30  1  0  0  0  0
 33 31  1  0  0  0  0
 34 32  1  0  0  0  0
M  END
>  <MODEL>
3

>  <REMARK>
 VINA RESULT:      -7.3      2.314      4.365
  Name = 
  3 active torsions:
  status: ('A' for Active; 'I' for Inactive)
    1  A    between atoms: C_17  and  O_28
    2  A    between atoms: O_28  and  C_29
    3  A    between atoms: C_29  and  C_32
                            x       y       z     vdW  Elec       q    Type
                         _______ _______ _______ _____ _____    ______ ____

>  <TORSDO>
F 3

$$$$
=
 OpenBabel11122414183D

 34 40  0  0  1  0  0  0  0  0999 V2000
  161.6410  207.6000  149.1180 C   0  0  0  0  0  0  0  0  0  0  0  0
  161.8550  209.8860  150.2110 C   0  0  0  0  0  2  0  0  0  0  0  0
  159.7040  201.4360  149.0100 C   0  0  0  0  0  0  0  0  0  0  0  0
  161.0640  205.4170  148.2780 C   0  0  0  0  0  0  0  0  0  0  0  0
  161.0350  203.4310  149.8550 N   0  0  2  0  0  0  0  0  0  0  0  0
  160.7460  201.4330  151.2500 C   0  0  0  0  0  1  0  0  0  0  0  0
  158.5410  200.9530  149.0110 O   0  0  0  0  0  0  0  0  0  0  0  0
  161.9120  201.6980  147.8110 C   0  0  0  0  0  2  0  0  0  0  0  0
  162.3310  207.9130  151.5210 C   0  0  2  0  0  3  0  0  0  0  0  0
  160.8060  207.9610  154.3630 C   0  0  0  0  0  3  0  0  0  0  0  0
  160.7430  204.4610  150.8590 C   0  0  0  0  0  2  0  0  0  0  0  0
  161.7990  203.1890  147.5110 C   0  0  0  0  0  2  0  0  0  0  0  0
  161.4870  206.6650  151.8160 C   0  0  1  0  0  3  0  0  0  0  0  0
  162.1940  210.3260  151.6270 C   0  0  0  0  0  2  0  0  0  0  0  0
  160.8490  203.9290  148.4640 C   0  0  2  0  0  3  0  0  0  0  0  0
  160.5920  201.1040  147.9390 N   0  0  0  0  0  2  0  0  0  0  0  0
  160.7940  208.9780  153.2450 C   0  0  2  0  0  3  0  0  0  0  0  0
  161.4690  206.2270  149.3450 C   0  0  0  0  0  0  0  0  0  0  0  0
  160.1270  202.3090  150.1730 C   0  0  2  0  0  3  0  0  0  0  0  0
  161.7030  205.6290  150.7040 C   0  0  2  0  0  3  0  0  0  0  0  0
  160.9960  207.3180  146.8630 C   0  0  0  0  0  3  0  0  0  0  0  0
  161.2460  206.7450  154.2880 N   0  0  0  0  0  0  0  0  0  0  0  0
  160.8310  205.9830  147.0630 N   0  0  0  0  0  0  0  0  0  0  0  0
  161.9230  206.1170  153.1670 C   0  0  0  0  0  2  0  0  0  0  0  0
  162.1410  209.0720  152.5070 C   0  0  1  0  0  3  0  0  0  0  0  0
  161.3950  208.1180  147.8860 N   0  0  0  0  0  0  0  0  0  0  0  0
  162.0100  208.4480  150.2130 N   0  0  0  0  0  0  0  0  0  0  0  0
  160.4270  210.2190  153.7750 O   0  0  0  0  0  0  0  0  0  0  0  0
  160.0860  209.9550  155.1050 C   0  0  0  0  0  2  0  0  0  0  0  0
  158.7710  213.2590  155.0330 N   0  0  0  0  0  2  0  0  0  0  0  0
  157.8850  211.0770  155.3610 C   0  0  0  0  0  2  0  0  0  0  0  0
  159.3500  211.1420  155.6980 C   0  0  2  0  0  3  0  0  0  0  0  0
  157.5860  212.4450  154.8130 C   0  0  0  0  0  2  0  0  0  0  0  0
  159.8610  212.3740  155.1170 N   0  0  0  0  0  2  0  0  0  0  0  0
  1 18  1  0  0  0  0
  1 27  1  0  0  0  0
  2 27  1  0  0  0  0
  2 14  1  0  0  0  0
  3  7  2  0  0  0  0
  3 19  1  0  0  0  0
  4 15  1  0  0  0  0
  4 18  2  0  0  0  0
  5 19  1  0  0  0  0
  5 11  1  1  0  0  0
  8 16  1  0  0  0  0
  9 27  1  6  0  0  0
  9 13  1  0  0  0  0
  9 25  1  0  0  0  0
 12  8  1  0  0  0  0
 13 24  1  1  0  0  0
 15 12  1  6  0  0  0
 15  5  1  0  0  0  0
 16  3  1  0  0  0  0
 17 28  1  1  0  0  0
 17 10  1  0  0  0  0
 18 20  1  0  0  0  0
 19  6  1  1  0  0  0
 20 11  1  1  0  0  0
 20 13  1  0  0  0  0
 21 23  2  0  0  0  0
 21 26  1  0  0  0  0
 22 10  2  0  0  0  0
 23  4  1  0  0  0  0
 24 22  1  0  0  0  0
 25 14  1  6  0  0  0
 25 17  1  0  0  0  0
 26  1  2  0  0  0  0
 28 29  1  0  0  0  0
 30 34  1  0  0  0  0
 31 32  1  0  0  0  0
 32 29  1  6  0  0  0
 33 30  1  0  0  0  0
 33 31  1  0  0  0  0
 34 32  1  0  0  0  0
M  END
>  <MODEL>
4

>  <REMARK>
 VINA RESULT:      -6.8      2.013      9.226
  Name = 
  3 active torsions:
  status: ('A' for Active; 'I' for Inactive)
    1  A    between atoms: C_17  and  O_28
    2  A    between atoms: O_28  and  C_29
    3  A    between atoms: C_29  and  C_32
                            x       y       z     vdW  Elec       q    Type
                         _______ _______ _______ _____ _____    ______ ____

>  <TORSDO>
F 3

$$$$
=
 OpenBabel11122414183D

 34 40  0  0  1  0  0  0  0  0999 V2000
  161.7090  207.6860  149.5680 C   0  0  0  0  0  0  0  0  0  0  0  0
  161.8540  209.8360  150.9200 C   0  0  0  0  0  2  0  0  0  0  0  0
  159.7330  201.6060  148.6310 C   0  0  0  0  0  0  0  0  0  0  0  0
  161.1820  205.6180  148.4500 C   0  0  0  0  0  0  0  0  0  0  0  0
  161.0090  203.4730  149.7920 N   0  0  2  0  0  0  0  0  0  0  0  0
  160.5910  201.3400  150.9320 C   0  0  0  0  0  1  0  0  0  0  0  0
  158.5700  201.1460  148.4860 O   0  0  0  0  0  0  0  0  0  0  0  0
  162.0330  201.9580  147.6460 C   0  0  0  0  0  2  0  0  0  0  0  0
  162.2060  207.7230  152.0380 C   0  0  2  0  0  3  0  0  0  0  0  0
  160.4570  207.4890  154.7380 C   0  0  0  0  0  3  0  0  0  0  0  0
  160.6460  204.3920  150.8770 C   0  0  0  0  0  2  0  0  0  0  0  0
  161.9570  203.4750  147.5040 C   0  0  0  0  0  2  0  0  0  0  0  0
  161.3300  206.4660  152.1260 C   0  0  1  0  0  3  0  0  0  0  0  0
  162.0820  210.1130  152.3980 C   0  0  0  0  0  2  0  0  0  0  0  0
  160.9400  204.1230  148.4540 C   0  0  2  0  0  3  0  0  0  0  0  0
  160.7010  201.3770  147.6030 N   0  0  0  0  0  2  0  0  0  0  0  0
  160.5440  208.6210  153.7420 C   0  0  2  0  0  3  0  0  0  0  0  0
  161.5070  206.3010  149.6290 C   0  0  0  0  0  0  0  0  0  0  0  0
  160.0690  202.3390  149.9110 C   0  0  2  0  0  3  0  0  0  0  0  0
  161.6260  205.5530  150.9280 C   0  0  2  0  0  3  0  0  0  0  0  0
  161.2450  207.6630  147.2520 C   0  0  0  0  0  3  0  0  0  0  0  0
  160.8920  206.2810  154.5650 N   0  0  0  0  0  0  0  0  0  0  0  0
  161.0530  206.3180  147.2900 N   0  0  0  0  0  0  0  0  0  0  0  0
  161.6510  205.7660  153.4390 C   0  0  0  0  0  2  0  0  0  0  0  0
  161.9470  208.7720  153.1270 C   0  0  1  0  0  3  0  0  0  0  0  0
  161.5680  208.3390  148.3840 N   0  0  0  0  0  0  0  0  0  0  0  0
  161.9960  208.4040  150.7750 N   0  0  0  0  0  0  0  0  0  0  0  0
  160.1470  209.8040  154.3740 O   0  0  0  0  0  0  0  0  0  0  0  0
  159.9000  209.4360  155.7000 C   0  0  0  0  0  2  0  0  0  0  0  0
  163.0740  209.9560  157.2200 N   0  0  0  0  0  2  0  0  0  0  0  0
  161.5870  211.2500  155.8910 C   0  0  0  0  0  2  0  0  0  0  0  0
  160.8680  210.1500  156.6250 C   0  0  2  0  0  3  0  0  0  0  0  0
  163.0350  211.0010  156.2100 C   0  0  0  0  0  2  0  0  0  0  0  0
  161.8850  209.2170  157.0850 N   0  0  0  0  0  2  0  0  0  0  0  0
  1 18  1  0  0  0  0
  1 27  1  0  0  0  0
  2 14  1  0  0  0  0
  3 19  1  0  0  0  0
  4 15  1  0  0  0  0
  4 18  2  0  0  0  0
  5 19  1  0  0  0  0
  5 11  1  1  0  0  0
  7  3  2  0  0  0  0
  9 27  1  6  0  0  0
  9 13  1  0  0  0  0
  9 25  1  0  0  0  0
 12  8  1  0  0  0  0
 13 24  1  1  0  0  0
 15 12  1  6  0  0  0
 15  5  1  0  0  0  0
 16  8  1  0  0  0  0
 16  3  1  0  0  0  0
 17 28  1  1  0  0  0
 17 10  1  0  0  0  0
 18 20  1  0  0  0  0
 19  6  1  1  0  0  0
 20 11  1  6  0  0  0
 20 13  1  0  0  0  0
 21 23  2  0  0  0  0
 21 26  1  0  0  0  0
 22 10  2  0  0  0  0
 23  4  1  0  0  0  0
 24 22  1  0  0  0  0
 25 14  1  6  0  0  0
 25 17  1  0  0  0  0
 26  1  2  0  0  0  0
 27  2  1  0  0  0  0
 28 29  1  0  0  0  0
 31 33  1  0  0  0  0
 31 32  1  0  0  0  0
 32 29  1  6  0  0  0
 32 34  1  0  0  0  0
 33 30  1  0  0  0  0
 34 30  1  0  0  0  0
M  END
>  <MODEL>
5

>  <REMARK>
 VINA RESULT:      -6.4      2.398      9.107
  Name = 
  3 active torsions:
  status: ('A' for Active; 'I' for Inactive)
    1  A    between atoms: C_17  and  O_28
    2  A    between atoms: O_28  and  C_29
    3  A    between atoms: C_29  and  C_32
                            x       y       z     vdW  Elec       q    Type
                         _______ _______ _______ _____ _____    ______ ____

>  <TORSDO>
F 3

$$$$
