=
 OpenBabel11122414133D

 28 32  0  0  1  0  0  0  0  0999 V2000
  158.2010  212.0900  152.9760 C   0  0  0  0  0  0  0  0  0  0  0  0
  160.3950  209.3620  150.7180 O   0  0  0  0  0  0  0  0  0  0  0  0
  161.7140  212.1850  157.2600 O   0  0  0  0  0  0  0  0  0  0  0  0
  160.1910  213.2730  151.3970 C   0  0  0  0  0  3  0  0  0  0  0  0
  161.5910  209.9790  156.4640 N   0  0  0  0  0  0  0  0  0  0  0  0
  157.1460  211.5310  153.8850 C   0  0  0  0  0  2  0  0  0  0  0  0
  162.7430  208.9420  151.2690 O   0  0  0  0  0  0  0  0  0  0  0  0
  161.3250  208.7600  151.7320 S   0  0  0  0  0  0  0  0  0  0  0  0
  161.5730  206.6100  153.1240 C   0  0  2  0  0  3  0  0  0  0  0  0
  161.1260  209.5520  153.3380 C   0  0  2  0  0  3  0  0  0  0  0  0
  157.5320  214.0670  156.6430 O   0  0  0  0  0  1  0  0  0  0  0  0
  159.6400  210.1980  155.0990 C   0  0  1  0  0  3  0  0  0  0  0  0
  160.9010  207.3160  154.2920 C   0  0  0  0  0  2  0  0  0  0  0  0
  160.9860  207.0700  151.8770 N   0  0  0  0  0  2  0  0  0  0  0  0
  157.9840  213.0850  155.7630 C   0  0  1  0  0  3  0  0  0  0  0  0
  159.4690  211.4730  152.8710 C   0  0  0  0  0  0  0  0  0  0  0  0
  161.1410  211.3110  156.5550 C   0  0  0  0  0  0  0  0  0  0  0  0
  161.3570  205.1170  153.2540 C   0  0  0  0  0  1  0  0  0  0  0  0
  158.7820  212.0490  156.5400 C   0  0  0  0  0  2  0  0  0  0  0  0
  160.4590  212.0890  152.0860 C   0  0  0  0  0  3  0  0  0  0  0  0
  157.9390  213.2730  152.2720 C   0  0  0  0  0  3  0  0  0  0  0  0
  158.9280  213.8600  151.4840 C   0  0  0  0  0  3  0  0  0  0  0  0
  156.7820  212.4800  155.0330 C   0  0  0  0  0  2  0  0  0  0  0  0
  160.7060  209.2090  155.6120 C   0  0  1  0  0  3  0  0  0  0  0  0
  159.9620  211.5770  155.7060 C   0  0  2  0  0  3  0  0  0  0  0  0
  161.4430  208.6660  154.4720 N   0  0  2  0  0  0  0  0  0  0  0  0
  162.6630  209.4060  157.2610 C   0  0  0  0  0  1  0  0  0  0  0  0
  159.7500  210.1520  153.5780 C   0  0  1  0  0  3  0  0  0  0  0  0
  1  6  1  0  0  0  0
  2  8  2  0  0  0  0
  4 22  2  0  0  0  0
  4 20  1  0  0  0  0
  5 17  1  0  0  0  0
  5 27  1  0  0  0  0
  6 23  1  0  0  0  0
  7  8  2  0  0  0  0
  8 14  1  0  0  0  0
  9 18  1  1  0  0  0
  9 13  1  0  0  0  0
 10  8  1  6  0  0  0
 10 28  1  0  0  0  0
 10 26  1  0  0  0  0
 12 24  1  0  0  0  0
 12 25  1  0  0  0  0
 13 26  1  0  0  0  0
 14  9  1  0  0  0  0
 15 19  1  0  0  0  0
 15 11  1  0  0  0  0
 16  1  1  0  0  0  0
 16 28  1  0  0  0  0
 17  3  2  0  0  0  0
 20 16  2  0  0  0  0
 21  1  2  0  0  0  0
 22 21  1  0  0  0  0
 23 15  1  0  0  0  0
 24  5  1  0  0  0  0
 25 19  1  0  0  0  0
 25 17  1  0  0  0  0
 26 24  1  0  0  0  0
 28 12  1  0  0  0  0
M  END
>  <MODEL>
1

>  <REMARK>
 VINA RESULT:      -4.3      0.000      0.000
  Name = 
  0 active torsions:
  status: ('A' for Active; 'I' for Inactive)
                            x       y       z     vdW  Elec       q    Type
                         _______ _______ _______ _____ _____    ______ ____

>  <TORSDO>
F 0

$$$$
=
 OpenBabel11122414133D

 28 32  0  0  1  0  0  0  0  0999 V2000
  159.3300  213.9040  149.6290 C   0  0  0  0  0  0  0  0  0  0  0  0
  156.5990  214.4530  152.7270 O   0  0  0  0  0  0  0  0  0  0  0  0
  160.8800  208.8150  151.1790 O   0  0  0  0  0  0  0  0  0  0  0  0
  156.7760  212.8910  149.0760 C   0  0  0  0  0  3  0  0  0  0  0  0
  160.5730  210.1070  153.1160 N   0  0  0  0  0  0  0  0  0  0  0  0
  160.7340  214.3770  149.8670 C   0  0  0  0  0  2  0  0  0  0  0  0
  155.7970  212.5170  153.9950 O   0  0  0  0  0  0  0  0  0  0  0  0
  156.9890  213.3870  153.7110 S   0  0  0  0  0  0  0  0  0  0  0  0
  158.2660  213.1490  155.9320 C   0  0  2  0  0  3  0  0  0  0  0  0
  158.3190  212.3630  153.0540 C   0  0  2  0  0  3  0  0  0  0  0  0
  162.4640  211.6690  147.9000 O   0  0  0  0  0  1  0  0  0  0  0  0
  160.5100  212.2700  152.0980 C   0  0  1  0  0  3  0  0  0  0  0  0
  159.5100  212.7570  155.1490 C   0  0  0  0  0  2  0  0  0  0  0  0
  157.5110  214.1360  155.1790 N   0  0  0  0  0  2  0  0  0  0  0  0
  161.6140  212.1590  148.8900 C   0  0  1  0  0  3  0  0  0  0  0  0
  158.6160  213.2180  150.6400 C   0  0  0  0  0  0  0  0  0  0  0  0
  160.7300  209.9400  151.7260 C   0  0  0  0  0  0  0  0  0  0  0  0
  158.6820  213.7470  157.2590 C   0  0  0  0  0  1  0  0  0  0  0  0
  161.9380  211.4740  150.2090 C   0  0  0  0  0  2  0  0  0  0  0  0
  157.3420  212.7050  150.3380 C   0  0  0  0  0  3  0  0  0  0  0  0
  158.7490  214.0940  148.3690 C   0  0  0  0  0  3  0  0  0  0  0  0
  157.4760  213.5940  148.0950 C   0  0  0  0  0  3  0  0  0  0  0  0
  161.7590  213.6810  148.9630 C   0  0  0  0  0  2  0  0  0  0  0  0
  160.4640  211.5150  153.4420 C   0  0  1  0  0  3  0  0  0  0  0  0
  160.6560  211.2150  150.9840 C   0  0  2  0  0  3  0  0  0  0  0  0
  159.1850  211.7870  154.0990 N   0  0  2  0  0  0  0  0  0  0  0  0
  160.7020  209.0470  154.1010 C   0  0  0  0  0  1  0  0  0  0  0  0
  159.2060  213.0590  152.0350 C   0  0  1  0  0  3  0  0  0  0  0  0
  1  6  1  0  0  0  0
  1 16  1  0  0  0  0
  2  8  2  0  0  0  0
  3 17  2  0  0  0  0
  4 20  1  0  0  0  0
  5 24  1  0  0  0  0
  5 27  1  0  0  0  0
  8  7  2  0  0  0  0
  8 14  1  0  0  0  0
  9 18  1  1  0  0  0
 10  8  1  1  0  0  0
 10 26  1  0  0  0  0
 11 15  1  0  0  0  0
 12 24  1  0  0  0  0
 13  9  1  0  0  0  0
 14  9  1  0  0  0  0
 15 23  1  0  0  0  0
 15 19  1  0  0  0  0
 16 28  1  0  0  0  0
 17  5  1  0  0  0  0
 19 25  1  0  0  0  0
 20 16  2  0  0  0  0
 21  1  2  0  0  0  0
 22 21  1  0  0  0  0
 22  4  2  0  0  0  0
 23  6  1  0  0  0  0
 24 26  1  0  0  0  0
 25 17  1  0  0  0  0
 25 12  1  0  0  0  0
 26 13  1  0  0  0  0
 28 12  1  0  0  0  0
 28 10  1  0  0  0  0
M  END
>  <MODEL>
2

>  <REMARK>
 VINA RESULT:      -3.3      2.877      6.019
  Name = 
  0 active torsions:
  status: ('A' for Active; 'I' for Inactive)
                            x       y       z     vdW  Elec       q    Type
                         _______ _______ _______ _____ _____    ______ ____

>  <TORSDO>
F 0

$$$$
=
 OpenBabel11122414133D

 28 32  0  0  1  0  0  0  0  0999 V2000
  160.1400  213.8020  149.7200 C   0  0  0  0  0  0  0  0  0  0  0  0
  158.8540  212.9560  153.5910 O   0  0  0  0  0  0  0  0  0  0  0  0
  161.5410  208.5890  148.4700 O   0  0  0  0  0  0  0  0  0  0  0  0
  157.4640  212.9830  149.8670 C   0  0  0  0  0  3  0  0  0  0  0  0
  162.1380  208.9900  150.7060 N   0  0  0  0  0  0  0  0  0  0  0  0
  161.5770  214.2030  149.5520 C   0  0  0  0  0  2  0  0  0  0  0  0
  158.3610  210.6430  154.2270 O   0  0  0  0  0  0  0  0  0  0  0  0
  159.4540  211.6040  153.8550 S   0  0  0  0  0  0  0  0  0  0  0  0
  161.4310  210.5580  155.1270 C   0  0  2  0  0  3  0  0  0  0  0  0
  160.3100  210.9850  152.3960 C   0  0  2  0  0  3  0  0  0  0  0  0
  162.1100  212.5780  146.1950 O   0  0  0  0  0  1  0  0  0  0  0  0
  161.9560  211.3750  150.7040 C   0  0  1  0  0  3  0  0  0  0  0  0
  162.2350  210.5650  153.8360 C   0  0  0  0  0  2  0  0  0  0  0  0
  160.5720  211.7300  155.1680 N   0  0  0  0  0  2  0  0  0  0  0  0
  161.7570  212.5970  147.5430 C   0  0  1  0  0  3  0  0  0  0  0  0
  159.7800  212.7410  150.5840 C   0  0  0  0  0  0  0  0  0  0  0  0
  161.7420  209.3970  149.4160 C   0  0  0  0  0  0  0  0  0  0  0  0
  162.3810  210.5970  156.3050 C   0  0  0  0  0  1  0  0  0  0  0  0
  162.4670  211.4580  148.2610 C   0  0  0  0  0  2  0  0  0  0  0  0
  158.4350  212.3360  150.6320 C   0  0  0  0  0  3  0  0  0  0  0  0
  159.1570  214.4530  148.9640 C   0  0  0  0  0  3  0  0  0  0  0  0
  157.8240  214.0480  149.0390 C   0  0  0  0  0  3  0  0  0  0  0  0
  162.0990  213.9690  148.1290 C   0  0  0  0  0  2  0  0  0  0  0  0
  162.3260  210.1470  151.5590 C   0  0  1  0  0  3  0  0  0  0  0  0
  161.5470  210.8570  149.3110 C   0  0  2  0  0  3  0  0  0  0  0  0
  161.4290  210.0790  152.7120 N   0  0  2  0  0  0  0  0  0  0  0  0
  162.5000  207.6320  151.0760 C   0  0  0  0  0  1  0  0  0  0  0  0
  160.8260  212.0660  151.4620 C   0  0  1  0  0  3  0  0  0  0  0  0
  1 16  1  0  0  0  0
  2  8  2  0  0  0  0
  3 17  2  0  0  0  0
  4 20  1  0  0  0  0
  5 27  1  0  0  0  0
  5 24  1  0  0  0  0
  6  1  1  0  0  0  0
  8  7  2  0  0  0  0
  8 14  1  0  0  0  0
  9 14  1  0  0  0  0
  9 18  1  1  0  0  0
 10 26  1  0  0  0  0
 10  8  1  1  0  0  0
 11 15  1  0  0  0  0
 12 28  1  0  0  0  0
 12 24  1  0  0  0  0
 13  9  1  0  0  0  0
 15 23  1  0  0  0  0
 15 19  1  0  0  0  0
 16 20  2  0  0  0  0
 16 28  1  0  0  0  0
 17  5  1  0  0  0  0
 19 25  1  0  0  0  0
 21 22  1  0  0  0  0
 21  1  2  0  0  0  0
 22  4  2  0  0  0  0
 23  6  1  0  0  0  0
 24 26  1  0  0  0  0
 25 17  1  0  0  0  0
 25 12  1  0  0  0  0
 26 13  1  0  0  0  0
 28 10  1  0  0  0  0
M  END
>  <MODEL>
3

>  <REMARK>
 VINA RESULT:      -2.9      2.924      5.936
  Name = 
  0 active torsions:
  status: ('A' for Active; 'I' for Inactive)
                            x       y       z     vdW  Elec       q    Type
                         _______ _______ _______ _____ _____    ______ ____

>  <TORSDO>
F 0

$$$$
=
 OpenBabel11122414133D

 28 32  0  0  1  0  0  0  0  0999 V2000
  161.6140  209.4470  154.6700 C   0  0  0  0  0  0  0  0  0  0  0  0
  162.7890  208.4630  150.7960 O   0  0  0  0  0  0  0  0  0  0  0  0
  156.9360  212.0130  153.1740 O   0  0  0  0  0  0  0  0  0  0  0  0
  160.5220  207.0420  153.7350 C   0  0  0  0  0  3  0  0  0  0  0  0
  158.5950  212.5370  151.5950 N   0  0  0  0  0  0  0  0  0  0  0  0
  162.1200  210.7460  155.2260 C   0  0  0  0  0  2  0  0  0  0  0  0
  161.1530  208.5390  148.9760 O   0  0  0  0  0  0  0  0  0  0  0  0
  161.9420  209.3680  149.9480 S   0  0  0  0  0  0  0  0  0  0  0  0
  162.1520  211.5580  148.6130 C   0  0  2  0  0  3  0  0  0  0  0  0
  160.8010  210.3200  150.9680 C   0  0  2  0  0  3  0  0  0  0  0  0
  159.0640  211.5890  157.2610 O   0  0  0  0  0  1  0  0  0  0  0  0
  160.5080  211.8000  152.8260 C   0  0  1  0  0  3  0  0  0  0  0  0
  161.6050  212.3160  149.8130 C   0  0  0  0  0  2  0  0  0  0  0  0
  162.9700  210.4480  149.0730 N   0  0  0  0  0  2  0  0  0  0  0  0
  159.7470  211.2640  156.0900 C   0  0  1  0  0  3  0  0  0  0  0  0
  161.1500  209.3620  153.3360 C   0  0  0  0  0  0  0  0  0  0  0  0
  158.1500  212.0340  152.8340 C   0  0  0  0  0  0  0  0  0  0  0  0
  163.0040  212.4920  147.7810 C   0  0  0  0  0  1  0  0  0  0  0  0
  159.3410  212.2350  154.9910 C   0  0  0  0  0  2  0  0  0  0  0  0
  160.5920  208.1510  152.8910 C   0  0  0  0  0  3  0  0  0  0  0  0
  161.5490  208.3260  155.5060 C   0  0  0  0  0  3  0  0  0  0  0  0
  161.0080  207.1270  155.0400 C   0  0  0  0  0  3  0  0  0  0  0  0
  161.2520  211.2840  156.3700 C   0  0  0  0  0  2  0  0  0  0  0  0
  160.0400  212.4630  151.5150 C   0  0  1  0  0  3  0  0  0  0  0  0
  159.2490  211.5000  153.6630 C   0  0  2  0  0  3  0  0  0  0  0  0
  160.4440  211.6270  150.3850 N   0  0  2  0  0  0  0  0  0  0  0  0
  157.7540  213.2140  150.6210 C   0  0  0  0  0  1  0  0  0  0  0  0
  161.2730  210.5520  152.3930 C   0  0  1  0  0  3  0  0  0  0  0  0
  1  6  1  0  0  0  0
  1 21  1  0  0  0  0
  4 22  1  0  0  0  0
  5 17  1  0  0  0  0
  6 23  1  0  0  0  0
  7  8  2  0  0  0  0
  8  2  2  0  0  0  0
  9 18  1  6  0  0  0
  9 14  1  0  0  0  0
  9 13  1  0  0  0  0
 10  8  1  6  0  0  0
 10 28  1  0  0  0  0
 12 25  1  0  0  0  0
 13 26  1  0  0  0  0
 14  8  1  0  0  0  0
 15 23  1  0  0  0  0
 15 11  1  0  0  0  0
 16  1  2  0  0  0  0
 17  3  2  0  0  0  0
 17 25  1  0  0  0  0
 19 15  1  0  0  0  0
 20 16  1  0  0  0  0
 20  4  2  0  0  0  0
 22 21  2  0  0  0  0
 24  5  1  0  0  0  0
 24 12  1  0  0  0  0
 25 19  1  0  0  0  0
 26 10  1  0  0  0  0
 26 24  1  0  0  0  0
 27  5  1  0  0  0  0
 28 12  1  0  0  0  0
 28 16  1  0  0  0  0
M  END
>  <MODEL>
4

>  <REMARK>
 VINA RESULT:      -2.2      2.497      5.176
  Name = 
  0 active torsions:
  status: ('A' for Active; 'I' for Inactive)
                            x       y       z     vdW  Elec       q    Type
                         _______ _______ _______ _____ _____    ______ ____

>  <TORSDO>
F 0

$$$$
=
 OpenBabel11122414133D

 28 32  0  0  1  0  0  0  0  0999 V2000
  161.6730  208.9100  155.9510 C   0  0  0  0  0  0  0  0  0  0  0  0
  161.8790  206.0470  152.9320 O   0  0  0  0  0  0  0  0  0  0  0  0
  158.1020  212.2200  153.3060 O   0  0  0  0  0  0  0  0  0  0  0  0
  159.6620  206.9640  156.1020 C   0  0  0  0  0  3  0  0  0  0  0  0
  159.6110  211.3600  151.7240 N   0  0  0  0  0  0  0  0  0  0  0  0
  162.6870  210.0150  155.9130 C   0  0  0  0  0  2  0  0  0  0  0  0
  160.1560  205.9920  151.1920 O   0  0  0  0  0  0  0  0  0  0  0  0
  161.3160  206.7730  151.7430 S   0  0  0  0  0  0  0  0  0  0  0  0
  162.1320  207.9470  149.6040 C   0  0  2  0  0  3  0  0  0  0  0  0
  160.7490  208.4190  152.2050 C   0  0  2  0  0  3  0  0  0  0  0  0
  160.4510  212.7310  157.2590 O   0  0  0  0  0  1  0  0  0  0  0  0
  161.2680  210.5190  153.2300 C   0  0  1  0  0  3  0  0  0  0  0  0
  162.0650  209.2780  150.3360 C   0  0  0  0  0  2  0  0  0  0  0  0
  162.5420  206.9050  150.5300 N   0  0  0  0  0  2  0  0  0  0  0  0
  160.8060  211.7170  156.3720 C   0  0  1  0  0  3  0  0  0  0  0  0
  161.0360  208.4700  154.7670 C   0  0  0  0  0  0  0  0  0  0  0  0
  159.1820  211.6280  153.0400 C   0  0  0  0  0  0  0  0  0  0  0  0
  163.1480  208.0450  148.4850 C   0  0  0  0  0  1  0  0  0  0  0  0
  160.6400  212.2210  154.9460 C   0  0  0  0  0  2  0  0  0  0  0  0
  160.0200  207.5030  154.8650 C   0  0  0  0  0  3  0  0  0  0  0  0
  161.3140  208.3550  157.1860 C   0  0  0  0  0  3  0  0  0  0  0  0
  160.3160  207.3840  157.2610 C   0  0  0  0  0  3  0  0  0  0  0  0
  162.2370  211.2660  156.6760 C   0  0  0  0  0  2  0  0  0  0  0  0
  160.9040  210.7070  151.7430 C   0  0  1  0  0  3  0  0  0  0  0  0
  160.1100  211.1040  154.0620 C   0  0  2  0  0  3  0  0  0  0  0  0
  160.8200  209.3950  151.1020 N   0  0  2  0  0  0  0  0  0  0  0  0
  158.9540  211.8430  150.5210 C   0  0  0  0  0  1  0  0  0  0  0  0
  161.4590  209.0160  153.4090 C   0  0  1  0  0  3  0  0  0  0  0  0
  1 21  1  0  0  0  0
  4 22  1  0  0  0  0
  5 24  1  0  0  0  0
  5 17  1  0  0  0  0
  6  1  1  0  0  0  0
  6 23  1  0  0  0  0
  7  8  2  0  0  0  0
  8  2  2  0  0  0  0
  9 18  1  6  0  0  0
  9 13  1  0  0  0  0
  9 14  1  0  0  0  0
 10  8  1  6  0  0  0
 10 28  1  0  0  0  0
 12 28  1  0  0  0  0
 12 25  1  0  0  0  0
 13 26  1  0  0  0  0
 14  8  1  0  0  0  0
 15 23  1  0  0  0  0
 15 11  1  0  0  0  0
 16 20  1  0  0  0  0
 16  1  2  0  0  0  0
 17  3  2  0  0  0  0
 17 25  1  0  0  0  0
 19 15  1  0  0  0  0
 20  4  2  0  0  0  0
 21 22  2  0  0  0  0
 24 12  1  0  0  0  0
 25 19  1  0  0  0  0
 26 24  1  0  0  0  0
 26 10  1  0  0  0  0
 27  5  1  0  0  0  0
 28 16  1  0  0  0  0
M  END
>  <MODEL>
5

>  <REMARK>
 VINA RESULT:      -2.2      2.377      4.884
  Name = 
  0 active torsions:
  status: ('A' for Active; 'I' for Inactive)
                            x       y       z     vdW  Elec       q    Type
                         _______ _______ _______ _____ _____    ______ ____

>  <TORSDO>
F 0

$$$$
