=
 OpenBabel11122414133D

 28 32  0  0  1  0  0  0  0  0999 V2000
  160.7930  208.3230  155.0420 C   0  0  0  0  0  0  0  0  0  0  0  0
  158.0690  211.1290  153.7170 O   0  0  0  0  0  0  0  0  0  0  0  0
  161.3350  207.6570  148.8670 O   0  0  0  0  0  0  0  0  0  0  0  0
  162.5590  210.1570  156.2160 C   0  0  0  0  0  3  0  0  0  0  0  0
  161.6550  209.8420  149.6840 N   0  0  0  0  0  0  0  0  0  0  0  0
  159.8980  207.2840  154.4230 C   0  0  0  0  0  2  0  0  0  0  0  0
  160.1410  212.2290  154.4920 O   0  0  0  0  0  0  0  0  0  0  0  0
  159.3620  211.7680  153.2940 S   0  0  0  0  0  0  0  0  0  0  0  0
  159.7010  213.2070  150.9550 C   0  0  0  0  0  0  0  0  0  0  0  0
  160.2840  210.6660  152.2600 C   0  0  1  0  0  3  0  0  0  0  0  0
  162.9290  206.1950  153.2560 O   0  0  0  0  0  0  0  0  0  0  0  0
  162.2770  209.2810  151.9180 C   0  0  2  0  0  3  0  0  0  0  0  0
  160.6880  212.4210  150.6100 N   0  0  0  0  0  0  0  0  0  0  0  0
  159.0600  213.1100  152.2410 N   0  0  0  0  0  2  0  0  0  0  0  0
  161.7150  206.3660  152.9640 C   0  0  0  0  0  0  0  0  0  0  0  0
  161.3350  209.3750  154.2700 C   0  0  0  0  0  0  0  0  0  0  0  0
  161.6750  208.4300  149.8010 C   0  0  0  0  0  0  0  0  0  0  0  0
  159.1930  214.1970  149.9710 C   0  0  0  0  0  1  0  0  0  0  0  0
  161.3510  206.9730  151.7220 N   0  0  0  0  0  2  0  0  0  0  0  0
  162.2350  210.2730  154.8620 C   0  0  0  0  0  3  0  0  0  0  0  0
  161.1270  208.2140  156.3970 C   0  0  0  0  0  3  0  0  0  0  0  0
  162.0020  209.1310  156.9830 C   0  0  0  0  0  3  0  0  0  0  0  0
  160.6660  206.0360  153.9750 C   0  0  0  0  0  2  0  0  0  0  0  0
  162.2290  210.4350  150.8870 C   0  0  2  0  0  3  0  0  0  0  0  0
  162.2180  207.9710  151.0980 C   0  0  2  0  0  3  0  0  0  0  0  0
  161.3090  211.4680  151.5310 C   0  0  2  0  0  3  0  0  0  0  0  0
  161.5790  210.5320  148.4060 C   0  0  0  0  0  1  0  0  0  0  0  0
  161.0260  209.4550  152.8020 C   0  0  1  0  0  3  0  0  0  0  0  0
  1 21  1  0  0  0  0
  3 17  2  0  0  0  0
  4 22  1  0  0  0  0
  5 17  1  0  0  0  0
  5 24  1  0  0  0  0
  6  1  1  0  0  0  0
  8  2  2  0  0  0  0
  8  7  2  0  0  0  0
  9 14  1  0  0  0  0
 10 28  1  0  0  0  0
 10  8  1  1  0  0  0
 12 28  1  0  0  0  0
 13  9  2  0  0  0  0
 13 26  1  0  0  0  0
 14  8  1  0  0  0  0
 15 11  2  0  0  0  0
 15 23  1  0  0  0  0
 16 20  1  0  0  0  0
 16  1  2  0  0  0  0
 17 25  1  0  0  0  0
 18  9  1  0  0  0  0
 19 15  1  0  0  0  0
 20  4  2  0  0  0  0
 21 22  2  0  0  0  0
 23  6  1  0  0  0  0
 24 26  1  0  0  0  0
 24 12  1  0  0  0  0
 25 19  1  0  0  0  0
 25 12  1  0  0  0  0
 26 10  1  0  0  0  0
 27  5  1  0  0  0  0
 28 16  1  0  0  0  0
M  END
>  <MODEL>
1

>  <REMARK>
 VINA RESULT:      -4.8      0.000      0.000
  Name = 
  0 active torsions:
  status: ('A' for Active; 'I' for Inactive)
                            x       y       z     vdW  Elec       q    Type
                         _______ _______ _______ _____ _____    ______ ____

>  <TORSDO>
F 0

$$$$
