=
 OpenBabel11122414403D

 34 40  0  0  1  0  0  0  0  0999 V2000
  160.9020  208.7540  153.9320 C   0  0  1  0  0  3  0  0  0  0  0  0
  161.8950  206.6290  153.2830 C   0  0  0  0  0  2  0  0  0  0  0  0
  157.6500  213.9550  151.8820 C   0  0  1  0  0  3  0  0  0  0  0  0
  159.8010  210.9530  154.4390 C   0  0  2  0  0  3  0  0  0  0  0  0
  159.8560  212.7380  152.6450 C   0  0  2  0  0  3  0  0  0  0  0  0
  159.8730  214.4510  150.7360 C   0  0  0  0  0  1  0  0  0  0  0  0
  157.1620  212.8770  150.9290 C   0  0  0  0  0  1  0  0  0  0  0  0
  157.7460  214.2840  154.4210 C   0  0  0  0  0  2  0  0  0  0  0  0
  162.0090  208.4240  151.9250 C   0  0  2  0  0  3  0  0  0  0  0  0
  161.9980  208.1160  148.6880 C   0  0  0  0  0  2  0  0  0  0  0  0
  160.1260  211.6250  151.6310 C   0  0  0  0  0  2  0  0  0  0  0  0
  158.7120  213.1890  154.9020 C   0  0  0  0  0  2  0  0  0  0  0  0
  161.2980  209.5870  151.2270 C   0  0  1  0  0  3  0  0  0  0  0  0
  162.6100  206.1330  152.0250 C   0  0  0  0  0  2  0  0  0  0  0  0
  159.0670  212.1500  153.8300 C   0  0  2  0  0  3  0  0  0  0  0  0
  156.8990  213.8530  153.2200 C   0  0  0  0  0  2  0  0  0  0  0  0
  161.8480  207.0430  149.7870 C   0  0  1  0  0  3  0  0  0  0  0  0
  160.1590  209.9590  153.3190 C   0  0  1  0  0  3  0  0  0  0  0  0
  159.1870  213.9760  152.0090 C   0  0  1  0  0  3  0  0  0  0  0  0
  160.9610  210.5950  152.2500 N   0  0  2  0  0  0  0  0  0  0  0  0
  159.7270  209.3290  156.0330 C   0  0  0  0  0  2  0  0  0  0  0  0
  162.5560  209.4680  149.0810 C   0  0  0  0  0  3  0  0  0  0  0  0
  158.9610  210.3120  155.3740 O   0  0  0  0  0  0  0  0  0  0  0  0
  162.2250  210.1490  150.1890 C   0  0  0  0  0  3  0  0  0  0  0  0
  162.6340  207.3280  151.0810 C   0  0  1  0  0  3  0  0  0  0  0  0
  160.0610  208.1850  155.0720 C   0  0  0  0  0  2  0  0  0  0  0  0
  161.1130  207.7810  152.8640 N   0  0  2  0  0  0  0  0  0  0  0  0
  160.4910  206.8270  150.0500 O   0  0  0  0  0  0  0  0  0  0  0  0
  160.1350  205.7350  149.2540 C   0  0  0  0  0  2  0  0  0  0  0  0
  160.7120  202.3180  150.0440 O   0  0  0  0  0  0  0  0  0  0  0  0
  161.2590  203.7590  148.2550 C   0  0  0  0  0  2  0  0  0  0  0  0
  161.0980  204.5860  149.4970 C   0  0  2  0  0  3  0  0  0  0  0  0
  160.7070  202.4090  148.6450 C   0  0  0  0  0  2  0  0  0  0  0  0
  160.4970  203.6270  150.4970 C   0  0  0  0  0  2  0  0  0  0  0  0
  1 26  1  1  0  0  0
  3  7  1  6  0  0  0
  3 19  1  0  0  0  0
  3 16  1  0  0  0  0
  4 23  1  1  0  0  0
  5 11  1  6  0  0  0
  5 15  1  0  0  0  0
  6 19  1  0  0  0  0
  8 12  1  0  0  0  0
  9 27  1  0  0  0  0
 10 22  1  0  0  0  0
 10 17  1  0  0  0  0
 11 20  1  0  0  0  0
 13  9  1  0  0  0  0
 13 20  1  0  0  0  0
 14  2  1  0  0  0  0
 15  4  1  0  0  0  0
 15 12  1  0  0  0  0
 16  8  1  0  0  0  0
 17 28  1  0  0  0  0
 17 25  1  0  0  0  0
 18  1  1  0  0  0  0
 18  4  1  0  0  0  0
 19  5  1  0  0  0  0
 20 18  1  0  0  0  0
 22 24  2  0  0  0  0
 23 21  1  0  0  0  0
 24 13  1  0  0  0  0
 25  9  1  0  0  0  0
 25 14  1  0  0  0  0
 26 21  1  0  0  0  0
 27  2  1  0  0  0  0
 27  1  1  0  0  0  0
 29 32  1  0  0  0  0
 29 28  1  0  0  0  0
 30 34  1  0  0  0  0
 31 33  1  0  0  0  0
 31 32  1  0  0  0  0
 32 34  1  0  0  0  0
 33 30  1  0  0  0  0
M  END
>  <MODEL>
1

>  <REMARK>
 VINA RESULT:      -7.3      0.000      0.000
  Name = 
  3 active torsions:
  status: ('A' for Active; 'I' for Inactive)
    1  A    between atoms: C_17  and  O_28
    2  A    between atoms: O_28  and  C_29
    3  A    between atoms: C_29  and  C_32
                            x       y       z     vdW  Elec       q    Type
                         _______ _______ _______ _____ _____    ______ ____

>  <TORSDO>
F 3

$$$$
=
 OpenBabel11122414403D

 34 40  0  0  1  0  0  0  0  0999 V2000
  158.5940  213.9350  146.8550 C   0  0  1  0  0  3  0  0  0  0  0  0
  159.0100  213.5510  149.2230 C   0  0  0  0  0  2  0  0  0  0  0  0
  160.3520  212.3970  140.8250 C   0  0  1  0  0  3  0  0  0  0  0  0
  158.2740  214.1930  144.3790 C   0  0  2  0  0  3  0  0  0  0  0  0
  160.3210  214.0140  142.9020 C   0  0  2  0  0  3  0  0  0  0  0  0
  162.4330  213.7180  141.4750 C   0  0  0  0  0  1  0  0  0  0  0  0
  160.6710  211.1210  141.5860 C   0  0  0  0  0  1  0  0  0  0  0  0
  158.2970  213.8880  140.4770 C   0  0  0  0  0  2  0  0  0  0  0  0
  160.7110  213.6420  147.7470 C   0  0  2  0  0  3  0  0  0  0  0  0
  163.4090  211.8700  148.1450 C   0  0  0  0  0  2  0  0  0  0  0  0
  161.0110  213.2770  144.0520 C   0  0  0  0  0  2  0  0  0  0  0  0
  158.0060  214.4530  141.8770 C   0  0  0  0  0  2  0  0  0  0  0  0
  161.3170  213.1890  146.4160 C   0  0  1  0  0  3  0  0  0  0  0  0
  160.2680  213.2710  150.0460 C   0  0  0  0  0  2  0  0  0  0  0  0
  158.8020  213.7810  143.0030 C   0  0  2  0  0  3  0  0  0  0  0  0
  158.8480  212.4580  140.5090 C   0  0  0  0  0  2  0  0  0  0  0  0
  162.1090  211.9000  148.9770 C   0  0  1  0  0  3  0  0  0  0  0  0
  159.1240  213.5180  145.4690 C   0  0  1  0  0  3  0  0  0  0  0  0
  160.9130  213.6530  141.5220 C   0  0  1  0  0  3  0  0  0  0  0  0
  160.5620  213.8370  145.3270 N   0  0  2  0  0  0  0  0  0  0  0  0
  156.4320  214.3200  145.7130 C   0  0  0  0  0  2  0  0  0  0  0  0
  163.6760  213.0210  147.1970 C   0  0  0  0  0  3  0  0  0  0  0  0
  156.9330  213.7740  144.5130 O   0  0  0  0  0  0  0  0  0  0  0  0
  162.7630  213.5920  146.3970 C   0  0  0  0  0  3  0  0  0  0  0  0
  161.4130  213.2720  149.0410 C   0  0  1  0  0  3  0  0  0  0  0  0
  157.0960  213.6470  146.9180 C   0  0  0  0  0  2  0  0  0  0  0  0
  159.3430  213.1810  147.8560 N   0  0  2  0  0  0  0  0  0  0  0  0
  161.2380  210.9040  148.5210 O   0  0  0  0  0  0  0  0  0  0  0  0
  161.9670  209.7150  148.6050 C   0  0  0  0  0  2  0  0  0  0  0  0
  161.7040  206.5330  150.1640 O   0  0  0  0  0  0  0  0  0  0  0  0
  162.3210  208.7070  150.8470 C   0  0  0  0  0  2  0  0  0  0  0  0
  161.3780  208.8250  149.6850 C   0  0  2  0  0  3  0  0  0  0  0  0
  162.6850  207.2430  150.8700 C   0  0  0  0  0  2  0  0  0  0  0  0
  161.2630  207.4120  149.1650 C   0  0  0  0  0  2  0  0  0  0  0  0
  1 26  1  6  0  0  0
  1 27  1  0  0  0  0
  2 14  1  0  0  0  0
  3 19  1  0  0  0  0
  3  7  1  1  0  0  0
  4 23  1  6  0  0  0
  4 18  1  0  0  0  0
  5 15  1  0  0  0  0
  5 11  1  1  0  0  0
  6 19  1  0  0  0  0
  8 16  1  0  0  0  0
  8 12  1  0  0  0  0
  9 27  1  0  0  0  0
  9 25  1  0  0  0  0
 10 17  1  0  0  0  0
 11 20  1  0  0  0  0
 12 15  1  0  0  0  0
 13  9  1  0  0  0  0
 15  4  1  0  0  0  0
 16  3  1  0  0  0  0
 17 25  1  0  0  0  0
 18  1  1  0  0  0  0
 19  5  1  0  0  0  0
 20 18  1  0  0  0  0
 20 13  1  0  0  0  0
 21 26  1  0  0  0  0
 22 10  1  0  0  0  0
 23 21  1  0  0  0  0
 24 13  1  0  0  0  0
 24 22  2  0  0  0  0
 25 14  1  0  0  0  0
 27  2  1  0  0  0  0
 28 29  1  0  0  0  0
 28 17  1  0  0  0  0
 29 32  1  0  0  0  0
 30 33  1  0  0  0  0
 31 33  1  0  0  0  0
 32 31  1  0  0  0  0
 34 32  1  0  0  0  0
 34 30  1  0  0  0  0
M  END
>  <MODEL>
2

>  <REMARK>
 VINA RESULT:      -5.0      5.907      8.609
  Name = 
  3 active torsions:
  status: ('A' for Active; 'I' for Inactive)
    1  A    between atoms: C_17  and  O_28
    2  A    between atoms: O_28  and  C_29
    3  A    between atoms: C_29  and  C_32
                            x       y       z     vdW  Elec       q    Type
                         _______ _______ _______ _____ _____    ______ ____

>  <TORSDO>
F 3

$$$$
=
 OpenBabel11122414403D

 34 40  0  0  1  0  0  0  0  0999 V2000
  158.8310  212.6960  137.3280 C   0  0  1  0  0  3  0  0  0  0  0  0
  161.2370  212.9510  137.5940 C   0  0  0  0  0  2  0  0  0  0  0  0
  153.6860  209.0260  138.6950 C   0  0  1  0  0  3  0  0  0  0  0  0
  156.3570  212.3010  137.1740 C   0  0  2  0  0  3  0  0  0  0  0  0
  155.5530  209.9040  137.0620 C   0  0  2  0  0  3  0  0  0  0  0  0
  154.8230  207.4440  137.0520 C   0  0  0  0  0  1  0  0  0  0  0  0
  154.5880  208.7680  139.8900 C   0  0  0  0  0  1  0  0  0  0  0  0
  152.6580  211.0770  137.5520 C   0  0  0  0  0  2  0  0  0  0  0  0
  160.3160  210.9210  137.2690 C   0  0  2  0  0  3  0  0  0  0  0  0
  161.5960  208.2370  138.5870 C   0  0  0  0  0  2  0  0  0  0  0  0
  156.8990  209.4880  137.6570 C   0  0  0  0  0  2  0  0  0  0  0  0
  153.8740  211.8480  137.0110 C   0  0  0  0  0  2  0  0  0  0  0  0
  159.2510  209.8880  137.6480 C   0  0  1  0  0  3  0  0  0  0  0  0
  162.4070  211.9680  137.6570 C   0  0  0  0  0  2  0  0  0  0  0  0
  155.2240  211.3350  137.5270 C   0  0  2  0  0  3  0  0  0  0  0  0
  152.9430  210.3600  138.8770 C   0  0  0  0  0  2  0  0  0  0  0  0
  162.0100  209.7150  138.7450 C   0  0  1  0  0  3  0  0  0  0  0  0
  157.6890  211.7240  137.6860 C   0  0  1  0  0  3  0  0  0  0  0  0
  154.4310  208.8830  137.3530 C   0  0  1  0  0  3  0  0  0  0  0  0
  157.9490  210.3710  137.1480 N   0  0  2  0  0  0  0  0  0  0  0  0
  157.0880  214.4530  137.3110 C   0  0  0  0  0  2  0  0  0  0  0  0
  160.6930  207.8690  137.4280 C   0  0  0  0  0  3  0  0  0  0  0  0
  156.1240  213.5460  137.7960 O   0  0  0  0  0  0  0  0  0  0  0  0
  159.6260  208.5750  137.0240 C   0  0  0  0  0  3  0  0  0  0  0  0
  161.7800  210.5890  137.4980 C   0  0  1  0  0  3  0  0  0  0  0  0
  158.4750  214.0870  137.8460 C   0  0  0  0  0  2  0  0  0  0  0  0
  160.0540  212.1790  137.9360 N   0  0  2  0  0  0  0  0  0  0  0  0
  161.3880  210.2600  139.8740 O   0  0  0  0  0  0  0  0  0  0  0  0
  162.4250  210.8030  140.6360 C   0  0  0  0  0  2  0  0  0  0  0  0
  161.1140  213.9750  141.5590 O   0  0  0  0  0  0  0  0  0  0  0  0
  160.3560  211.7400  141.6390 C   0  0  0  0  0  2  0  0  0  0  0  0
  161.8550  211.7330  141.6930 C   0  0  2  0  0  3  0  0  0  0  0  0
  160.0130  213.1600  141.2590 C   0  0  0  0  0  2  0  0  0  0  0  0
  162.2370  213.1580  141.3670 C   0  0  0  0  0  2  0  0  0  0  0  0
  1 18  1  0  0  0  0
  1 26  1  1  0  0  0
  1 27  1  0  0  0  0
  2 14  1  0  0  0  0
  2 27  1  0  0  0  0
  3 16  1  0  0  0  0
  3  7  1  1  0  0  0
  4 15  1  0  0  0  0
  4 18  1  0  0  0  0
  4 23  1  1  0  0  0
  5 19  1  0  0  0  0
  5 15  1  0  0  0  0
  5 11  1  1  0  0  0
  6 19  1  0  0  0  0
  8 16  1  0  0  0  0
  9 25  1  0  0  0  0
  9 13  1  0  0  0  0
  9 27  1  0  0  0  0
 10 17  1  0  0  0  0
 12 15  1  0  0  0  0
 12  8  1  0  0  0  0
 17 28  1  0  0  0  0
 19  3  1  0  0  0  0
 20 13  1  0  0  0  0
 20 11  1  0  0  0  0
 20 18  1  0  0  0  0
 21 23  1  0  0  0  0
 21 26  1  0  0  0  0
 22 10  1  0  0  0  0
 24 22  2  0  0  0  0
 24 13  1  0  0  0  0
 25 14  1  0  0  0  0
 25 17  1  0  0  0  0
 28 29  1  0  0  0  0
 29 32  1  0  0  0  0
 31 32  1  0  0  0  0
 33 30  1  0  0  0  0
 33 31  1  0  0  0  0
 34 30  1  0  0  0  0
 34 32  1  0  0  0  0
M  END
>  <MODEL>
3

>  <REMARK>
 VINA RESULT:      -4.5     12.131     14.971
  Name = 
  3 active torsions:
  status: ('A' for Active; 'I' for Inactive)
    1  A    between atoms: C_17  and  O_28
    2  A    between atoms: O_28  and  C_29
    3  A    between atoms: C_29  and  C_32
                            x       y       z     vdW  Elec       q    Type
                         _______ _______ _______ _____ _____    ______ ____

>  <TORSDO>
F 3

$$$$
=
 OpenBabel11122414403D

 34 40  0  0  1  0  0  0  0  0999 V2000
  161.7990  213.5160  142.4420 C   0  0  1  0  0  3  0  0  0  0  0  0
  162.4330  212.9900  140.1510 C   0  0  0  0  0  2  0  0  0  0  0  0
  157.2530  212.8530  146.9920 C   0  0  1  0  0  3  0  0  0  0  0  0
  161.0090  213.9440  144.7870 C   0  0  2  0  0  3  0  0  0  0  0  0
  158.5240  214.2440  145.1550 C   0  0  2  0  0  3  0  0  0  0  0  0
  155.9820  214.4350  145.4500 C   0  0  0  0  0  1  0  0  0  0  0  0
  157.0760  211.5830  146.1770 C   0  0  0  0  0  1  0  0  0  0  0  0
  159.1700  214.0070  148.2410 C   0  0  0  0  0  2  0  0  0  0  0  0
  160.3010  213.4970  140.6770 C   0  0  2  0  0  3  0  0  0  0  0  0
  157.7920  212.1690  139.0900 C   0  0  0  0  0  2  0  0  0  0  0  0
  158.3020  213.5290  143.8200 C   0  0  0  0  0  2  0  0  0  0  0  0
  160.1630  214.3850  147.1290 C   0  0  0  0  0  2  0  0  0  0  0  0
  159.0850  213.2750  141.5820 C   0  0  1  0  0  3  0  0  0  0  0  0
  161.6550  212.8480  138.8420 C   0  0  0  0  0  2  0  0  0  0  0  0
  159.8500  213.7540  145.7660 C   0  0  2  0  0  3  0  0  0  0  0  0
  158.4320  212.6930  147.9660 C   0  0  0  0  0  2  0  0  0  0  0  0
  159.3060  211.9060  138.9510 C   0  0  1  0  0  3  0  0  0  0  0  0
  160.6320  213.3220  143.4300 C   0  0  1  0  0  3  0  0  0  0  0  0
  157.3160  214.1150  146.1090 C   0  0  1  0  0  3  0  0  0  0  0  0
  159.3750  213.8870  142.8930 N   0  0  2  0  0  0  0  0  0  0  0  0
  163.2410  213.6400  144.4500 C   0  0  0  0  0  2  0  0  0  0  0  0
  157.3500  213.4310  139.8020 C   0  0  0  0  0  3  0  0  0  0  0  0
  162.1590  213.2980  145.2870 O   0  0  0  0  0  0  0  0  0  0  0  0
  157.8930  213.9130  140.9300 C   0  0  0  0  0  3  0  0  0  0  0  0
  160.2030  213.1310  139.2070 C   0  0  1  0  0  3  0  0  0  0  0  0
  163.0790  212.9790  143.0790 C   0  0  0  0  0  2  0  0  0  0  0  0
  161.4560  212.8070  141.2130 N   0  0  2  0  0  0  0  0  0  0  0  0
  159.6710  210.8250  139.7620 O   0  0  0  0  0  0  0  0  0  0  0  0
  159.7750  209.7360  138.8940 C   0  0  0  0  0  2  0  0  0  0  0  0
  162.4380  207.5250  139.6990 O   0  0  0  0  0  0  0  0  0  0  0  0
  161.3810  208.2520  137.7170 C   0  0  0  0  0  2  0  0  0  0  0  0
  161.2300  209.3260  138.7540 C   0  0  2  0  0  3  0  0  0  0  0  0
  161.8860  207.0620  138.4970 C   0  0  0  0  0  2  0  0  0  0  0  0
  161.6910  208.6640  140.0320 C   0  0  0  0  0  2  0  0  0  0  0  0
  1 26  1  1  0  0  0
  1 18  1  0  0  0  0
  2 27  1  0  0  0  0
  3  7  1  6  0  0  0
  3 16  1  0  0  0  0
  4 23  1  1  0  0  0
  4 15  1  0  0  0  0
  5 11  1  6  0  0  0
  5 15  1  0  0  0  0
  5 19  1  0  0  0  0
  6 19  1  0  0  0  0
  9 27  1  0  0  0  0
  9 13  1  0  0  0  0
 10 22  1  0  0  0  0
 12  8  1  0  0  0  0
 13 20  1  0  0  0  0
 14 25  1  0  0  0  0
 14  2  1  0  0  0  0
 15 12  1  0  0  0  0
 16  8  1  0  0  0  0
 17 10  1  0  0  0  0
 17 25  1  0  0  0  0
 17 28  1  0  0  0  0
 18  4  1  0  0  0  0
 19  3  1  0  0  0  0
 20 18  1  0  0  0  0
 20 11  1  0  0  0  0
 21 23  1  0  0  0  0
 22 24  2  0  0  0  0
 24 13  1  0  0  0  0
 25  9  1  0  0  0  0
 26 21  1  0  0  0  0
 27  1  1  0  0  0  0
 29 28  1  0  0  0  0
 30 34  1  0  0  0  0
 31 33  1  0  0  0  0
 31 32  1  0  0  0  0
 32 29  1  0  0  0  0
 32 34  1  0  0  0  0
 33 30  1  0  0  0  0
M  END
>  <MODEL>
4

>  <REMARK>
 VINA RESULT:      -4.4      8.535     10.671
  Name = 
  3 active torsions:
  status: ('A' for Active; 'I' for Inactive)
    1  A    between atoms: C_17  and  O_28
    2  A    between atoms: O_28  and  C_29
    3  A    between atoms: C_29  and  C_32
                            x       y       z     vdW  Elec       q    Type
                         _______ _______ _______ _____ _____    ______ ____

>  <TORSDO>
F 3

$$$$
