=
 OpenBabel11122412473D

 32 37  0  0  1  0  0  0  0  0999 V2000
  161.7590  207.1890  150.4540 C   0  0  2  0  0  3  0  0  0  0  0  0
  161.3570  203.6040  153.0150 C   0  0  0  0  0  3  0  0  0  0  0  0
  160.4870  202.7540  152.1150 C   0  0  0  0  0  2  0  0  0  0  0  0
  162.0540  207.0220  147.8670 C   0  0  0  0  0  0  0  0  0  0  0  0
  161.9690  206.0910  146.7500 C   0  0  0  0  0  0  0  0  0  0  0  0
  161.1390  209.4660  151.0130 O   0  0  0  0  0  0  0  0  0  0  0  0
  160.9290  207.7310  152.7040 C   0  0  0  0  0  2  0  0  0  0  0  0
  161.5570  204.2380  145.7120 C   0  0  0  0  0  0  0  0  0  0  0  0
  161.3730  204.9380  152.8450 C   0  0  0  0  0  3  0  0  0  0  0  0
  160.7100  206.9620  151.4700 N   0  0  2  0  0  0  0  0  0  0  0  0
  160.4940  205.5280  151.7560 C   0  0  1  0  0  3  0  0  0  0  0  0
  160.8420  205.2050  149.1950 C   0  0  0  0  0  0  0  0  0  0  0  0
  162.2630  205.0470  144.8870 N   0  0  0  0  0  0  0  0  0  0  0  0
  161.2320  209.2060  152.3930 C   0  0  2  0  0  3  0  0  0  0  0  0
  162.5210  206.1850  145.5260 N   0  0  0  0  0  0  0  0  0  0  0  0
  160.5330  203.3070  150.7130 C   0  0  0  0  0  3  0  0  0  0  0  0
  160.5260  204.6380  150.5230 C   0  0  0  0  0  0  0  0  0  0  0  0
  160.8730  204.4180  148.1480 N   0  0  0  0  0  0  0  0  0  0  0  0
  162.1350  208.6840  150.4090 C   0  0  0  0  0  2  0  0  0  0  0  0
  162.7130  208.0900  147.7590 O   0  0  0  0  0  0  0  0  0  0  0  0
  161.1540  202.8440  145.3860 C   0  0  0  0  0  1  0  0  0  0  0  0
  161.2130  206.6960  149.1000 C   0  0  1  0  0  3  0  0  0  0  0  0
  161.3510  204.8990  146.8940 C   0  0  1  0  0  3  0  0  0  0  0  0
  160.8810  210.9010  154.3000 C   0  0  2  0  0  3  0  0  0  0  0  0
  160.2550  210.1010  153.1520 C   0  0  1  0  0  3  0  0  0  0  0  0
  160.6330  211.5550  152.9550 C   0  0  1  0  0  3  0  0  0  0  0  0
  162.3050  210.6480  154.4600 N   0  0  0  0  0  2  0  0  0  0  0  0
  162.6090  210.5230  156.1920 S   0  0  0  0  0  1  0  0  0  0  0  0
  159.3810  212.4130  153.0370 C   0  0  0  0  0  2  0  0  0  0  0  0
  159.0280  213.0770  151.7350 C   0  0  0  0  0  0  0  0  0  0  0  0
  160.0170  213.2360  150.6240 C   0  0  0  0  0  1  0  0  0  0  0  0
  157.8950  213.5000  151.5790 O   0  0  0  0  0  0  0  0  0  0  0  0
  1 19  1  6  0  0  0
  1 10  1  0  0  0  0
  3  2  1  0  0  0  0
  5 23  1  0  0  0  0
  5  4  1  0  0  0  0
  6 14  1  0  0  0  0
  9  2  2  0  0  0  0
 10 11  1  0  0  0  0
 10  7  1  1  0  0  0
 11  9  1  1  0  0  0
 12 17  1  0  0  0  0
 13 15  1  0  0  0  0
 13  8  2  0  0  0  0
 14  7  1  6  0  0  0
 15  5  2  0  0  0  0
 16  3  1  0  0  0  0
 17 16  2  0  0  0  0
 17 11  1  0  0  0  0
 18 12  2  0  0  0  0
 19  6  1  0  0  0  0
 20  4  2  0  0  0  0
 21  8  1  0  0  0  0
 22  4  1  6  0  0  0
 22 12  1  0  0  0  0
 22  1  1  0  0  0  0
 23  8  1  1  0  0  0
 23 18  1  0  0  0  0
 24 27  1  6  0  0  0
 25 14  1  6  0  0  0
 25 24  1  0  0  0  0
 26 29  1  1  0  0  0
 26 25  1  0  0  0  0
 26 24  1  0  0  0  0
 27 28  1  0  0  0  0
 30 29  1  0  0  0  0
 31 30  1  0  0  0  0
 32 30  2  0  0  0  0
M  END
>  <MODEL>
1

>  <REMARK>
 VINA RESULT:      -7.6      0.000      0.000
  Name = 
  4 active torsions:
  status: ('A' for Active; 'I' for Inactive)
    1  A    between atoms: C_1  and  N_16
    2  A    between atoms: C_10  and  C_17
    3  A    between atoms: C_20  and  C_29
    4  A    between atoms: C_29  and  C_30
                            x       y       z     vdW  Elec       q    Type
                         _______ _______ _______ _____ _____    ______ ____

>  <TORSDO>
F 4

$$$$
=
 OpenBabel11122412473D

 32 37  0  0  1  0  0  0  0  0999 V2000
  162.0010  208.2310  149.7370 C   0  0  2  0  0  3  0  0  0  0  0  0
  161.9600  207.8730  154.1460 C   0  0  0  0  0  3  0  0  0  0  0  0
  160.9090  206.7940  154.2960 C   0  0  0  0  0  2  0  0  0  0  0  0
  161.8040  206.1520  148.1730 C   0  0  0  0  0  0  0  0  0  0  0  0
  161.4820  204.7320  148.1700 C   0  0  0  0  0  0  0  0  0  0  0  0
  161.5720  210.2250  148.4260 O   0  0  0  0  0  0  0  0  0  0  0  0
  161.6220  210.3900  150.8500 C   0  0  0  0  0  2  0  0  0  0  0  0
  160.8220  202.8240  148.9500 C   0  0  0  0  0  0  0  0  0  0  0  0
  161.9880  208.6090  153.0220 C   0  0  0  0  0  3  0  0  0  0  0  0
  161.1510  209.0090  150.6630 N   0  0  2  0  0  0  0  0  0  0  0  0
  160.9440  208.3260  151.9570 C   0  0  1  0  0  3  0  0  0  0  0  0
  160.7990  206.1570  150.5230 C   0  0  0  0  0  0  0  0  0  0  0  0
  161.3890  202.6220  147.7380 N   0  0  0  0  0  0  0  0  0  0  0  0
  161.9110  211.0670  149.5010 C   0  0  2  0  0  3  0  0  0  0  0  0
  161.7990  203.7930  147.2590 N   0  0  0  0  0  0  0  0  0  0  0  0
  160.7120  206.1040  152.9710 C   0  0  0  0  0  3  0  0  0  0  0  0
  160.7160  206.8280  151.8380 C   0  0  0  0  0  0  0  0  0  0  0  0
  160.6080  204.8630  150.4450 N   0  0  0  0  0  0  0  0  0  0  0  0
  162.4120  209.1070  148.5360 C   0  0  0  0  0  2  0  0  0  0  0  0
  162.4670  206.6570  147.2290 O   0  0  0  0  0  0  0  0  0  0  0  0
  160.3180  201.7430  149.8390 C   0  0  0  0  0  1  0  0  0  0  0  0
  161.1960  206.9940  149.2930 C   0  0  1  0  0  3  0  0  0  0  0  0
  160.8610  204.1650  149.2270 C   0  0  1  0  0  3  0  0  0  0  0  0
  161.7460  213.4260  148.4800 C   0  0  2  0  0  3  0  0  0  0  0  0
  161.1230  212.3700  149.4020 C   0  0  1  0  0  3  0  0  0  0  0  0
  160.6070  212.5520  147.9890 C   0  0  1  0  0  3  0  0  0  0  0  0
  162.9910  212.9840  147.8700 N   0  0  0  0  0  2  0  0  0  0  0  0
  162.8030  213.1820  146.1280 S   0  0  0  0  0  1  0  0  0  0  0  0
  159.3120  213.3470  148.0270 C   0  0  0  0  0  2  0  0  0  0  0  0
  158.2690  212.8290  147.0760 C   0  0  0  0  0  0  0  0  0  0  0  0
  158.5340  212.6520  145.6150 C   0  0  0  0  0  1  0  0  0  0  0  0
  157.1660  212.5440  147.5130 O   0  0  0  0  0  0  0  0  0  0  0  0
  1 19  1  6  0  0  0
  1 10  1  0  0  0  0
  2  3  1  0  0  0  0
  5  4  1  0  0  0  0
  6 19  1  0  0  0  0
  6 14  1  0  0  0  0
  8 23  1  0  0  0  0
  8 21  1  0  0  0  0
  9  2  2  0  0  0  0
 10  7  1  1  0  0  0
 10 11  1  0  0  0  0
 11  9  1  1  0  0  0
 12 17  1  0  0  0  0
 13  8  2  0  0  0  0
 14  7  1  1  0  0  0
 15 13  1  0  0  0  0
 15  5  2  0  0  0  0
 16  3  1  0  0  0  0
 17 11  1  0  0  0  0
 17 16  2  0  0  0  0
 18 12  2  0  0  0  0
 20  4  2  0  0  0  0
 22  4  1  6  0  0  0
 22  1  1  0  0  0  0
 22 12  1  0  0  0  0
 23  5  1  1  0  0  0
 23 18  1  0  0  0  0
 24 27  1  6  0  0  0
 24 25  1  0  0  0  0
 25 14  1  6  0  0  0
 26 29  1  1  0  0  0
 26 24  1  0  0  0  0
 26 25  1  0  0  0  0
 28 27  1  0  0  0  0
 30 32  2  0  0  0  0
 30 29  1  0  0  0  0
 31 30  1  0  0  0  0
M  END
>  <MODEL>
2

>  <REMARK>
 VINA RESULT:      -7.5      3.109      4.119
  Name = 
  4 active torsions:
  status: ('A' for Active; 'I' for Inactive)
    1  A    between atoms: C_1  and  N_16
    2  A    between atoms: C_10  and  C_17
    3  A    between atoms: C_20  and  C_29
    4  A    between atoms: C_29  and  C_30
                            x       y       z     vdW  Elec       q    Type
                         _______ _______ _______ _____ _____    ______ ____

>  <TORSDO>
F 4

$$$$
=
 OpenBabel11122412473D

 32 37  0  0  1  0  0  0  0  0999 V2000
  161.9450  209.0220  149.7770 C   0  0  2  0  0  3  0  0  0  0  0  0
  162.0330  208.9650  154.2000 C   0  0  0  0  0  3  0  0  0  0  0  0
  161.0370  207.8540  154.4520 C   0  0  0  0  0  2  0  0  0  0  0  0
  161.8020  206.8350  148.3630 C   0  0  0  0  0  0  0  0  0  0  0  0
  161.5440  205.4040  148.4640 C   0  0  0  0  0  0  0  0  0  0  0  0
  161.3930  210.9010  148.3480 O   0  0  0  0  0  0  0  0  0  0  0  0
  161.4970  211.2330  150.7530 C   0  0  0  0  0  2  0  0  0  0  0  0
  160.9910  203.5280  149.3890 C   0  0  0  0  0  0  0  0  0  0  0  0
  162.0000  209.6220  153.0280 C   0  0  0  0  0  3  0  0  0  0  0  0
  161.0850  209.8240  150.6730 N   0  0  2  0  0  0  0  0  0  0  0  0
  160.9420  209.2220  152.0160 C   0  0  1  0  0  3  0  0  0  0  0  0
  160.8580  206.9560  150.7350 C   0  0  0  0  0  0  0  0  0  0  0  0
  161.5360  203.2680  148.1780 N   0  0  0  0  0  0  0  0  0  0  0  0
  161.7210  211.8280  149.3540 C   0  0  2  0  0  3  0  0  0  0  0  0
  161.8800  204.4200  147.6100 N   0  0  0  0  0  0  0  0  0  0  0  0
  160.8370  207.0670  153.1820 C   0  0  0  0  0  3  0  0  0  0  0  0
  160.7790  207.7110  152.0030 C   0  0  0  0  0  0  0  0  0  0  0  0
  160.7240  205.6530  150.7500 N   0  0  0  0  0  0  0  0  0  0  0  0
  162.2860  209.8300  148.5090 C   0  0  0  0  0  2  0  0  0  0  0  0
  162.4170  207.3020  147.3680 O   0  0  0  0  0  0  0  0  0  0  0  0
  160.5600  202.4890  150.3630 C   0  0  0  0  0  1  0  0  0  0  0  0
  161.1850  207.7230  149.4410 C   0  0  1  0  0  3  0  0  0  0  0  0
  160.9770  204.8850  149.5750 C   0  0  1  0  0  3  0  0  0  0  0  0
  161.5010  214.1710  148.3070 C   0  0  2  0  0  3  0  0  0  0  0  0
  160.8730  213.0870  149.1900 C   0  0  1  0  0  3  0  0  0  0  0  0
  160.4490  213.2350  147.7430 C   0  0  1  0  0  3  0  0  0  0  0  0
  162.8090  213.7960  147.7900 N   0  0  0  0  0  2  0  0  0  0  0  0
  162.6340  213.6170  146.0440 S   0  0  0  0  0  1  0  0  0  0  0  0
  159.1140  213.9590  147.6840 C   0  0  0  0  0  2  0  0  0  0  0  0
  157.9410  213.0670  147.9810 C   0  0  0  0  0  0  0  0  0  0  0  0
  157.1550  213.1730  149.2490 C   0  0  0  0  0  1  0  0  0  0  0  0
  157.6190  212.2250  147.1590 O   0  0  0  0  0  0  0  0  0  0  0  0
  1 19  1  6  0  0  0
  1 10  1  0  0  0  0
  2  3  1  0  0  0  0
  4  5  1  0  0  0  0
  6 19  1  0  0  0  0
  6 14  1  0  0  0  0
  8 23  1  0  0  0  0
  8 21  1  0  0  0  0
  9  2  2  0  0  0  0
 10  7  1  1  0  0  0
 10 11  1  0  0  0  0
 11  9  1  1  0  0  0
 12 18  2  0  0  0  0
 12 17  1  0  0  0  0
 13  8  2  0  0  0  0
 14  7  1  1  0  0  0
 15 13  1  0  0  0  0
 15  5  2  0  0  0  0
 16  3  1  0  0  0  0
 17 11  1  0  0  0  0
 17 16  2  0  0  0  0
 20  4  2  0  0  0  0
 22  4  1  6  0  0  0
 22  1  1  0  0  0  0
 22 12  1  0  0  0  0
 23  5  1  1  0  0  0
 23 18  1  0  0  0  0
 24 27  1  6  0  0  0
 24 25  1  0  0  0  0
 25 14  1  6  0  0  0
 26 29  1  1  0  0  0
 26 24  1  0  0  0  0
 26 25  1  0  0  0  0
 28 27  1  0  0  0  0
 29 30  1  0  0  0  0
 30 31  1  0  0  0  0
 32 30  2  0  0  0  0
M  END
>  <MODEL>
3

>  <REMARK>
 VINA RESULT:      -7.0      3.049      4.424
  Name = 
  4 active torsions:
  status: ('A' for Active; 'I' for Inactive)
    1  A    between atoms: C_1  and  N_16
    2  A    between atoms: C_10  and  C_17
    3  A    between atoms: C_20  and  C_29
    4  A    between atoms: C_29  and  C_30
                            x       y       z     vdW  Elec       q    Type
                         _______ _______ _______ _____ _____    ______ ____

>  <TORSDO>
F 4

$$$$
=
 OpenBabel11122412473D

 32 37  0  0  1  0  0  0  0  0999 V2000
  161.8120  207.0040  151.5330 C   0  0  2  0  0  3  0  0  0  0  0  0
  162.5410  210.4800  148.8940 C   0  0  0  0  0  3  0  0  0  0  0  0
  161.5790  211.4680  149.5170 C   0  0  0  0  0  2  0  0  0  0  0  0
  161.4400  207.2650  154.1020 C   0  0  0  0  0  0  0  0  0  0  0  0
  161.1820  208.2540  155.1400 C   0  0  0  0  0  0  0  0  0  0  0  0
  161.0800  204.7900  150.8690 O   0  0  0  0  0  0  0  0  0  0  0  0
  161.5370  206.4500  149.1540 C   0  0  0  0  0  2  0  0  0  0  0  0
  160.7470  210.1910  156.0000 C   0  0  0  0  0  0  0  0  0  0  0  0
  162.3460  209.1640  149.0870 C   0  0  0  0  0  3  0  0  0  0  0  0
  161.1010  207.3010  150.2720 N   0  0  2  0  0  0  0  0  0  0  0  0
  161.1470  208.7340  149.9140 C   0  0  1  0  0  3  0  0  0  0  0  0
  160.8520  209.1410  152.4690 C   0  0  0  0  0  0  0  0  0  0  0  0
  161.1070  209.3490  156.9960 N   0  0  0  0  0  0  0  0  0  0  0  0
  161.5620  204.9680  149.5600 C   0  0  2  0  0  3  0  0  0  0  0  0
  161.3790  208.1580  156.4680 N   0  0  0  0  0  2  0  0  0  0  0  0
  161.1870  210.9840  150.8900 C   0  0  0  0  0  3  0  0  0  0  0  0
  160.9660  209.6740  151.0950 C   0  0  0  0  0  0  0  0  0  0  0  0
  160.7060  209.9710  153.4720 N   0  0  0  0  0  0  0  0  0  0  0  0
  161.9740  205.4800  151.7020 C   0  0  0  0  0  2  0  0  0  0  0  0
  161.9090  206.1360  154.4000 O   0  0  0  0  0  0  0  0  0  0  0  0
  160.4500  211.6370  156.1820 C   0  0  0  0  0  1  0  0  0  0  0  0
  160.9960  207.6240  152.6850 C   0  0  1  0  0  3  0  0  0  0  0  0
  160.7760  209.5000  154.8170 C   0  0  0  0  0  0  0  0  0  0  0  0
  161.3340  203.9740  147.1950 C   0  0  2  0  0  3  0  0  0  0  0  0
  160.7140  204.1550  148.5850 C   0  0  1  0  0  3  0  0  0  0  0  0
  161.4320  202.8690  148.2300 C   0  0  1  0  0  3  0  0  0  0  0  0
  162.6280  204.6260  147.0600 N   0  0  0  0  0  2  0  0  0  0  0  0
  162.5940  205.5140  145.5360 S   0  0  0  0  0  1  0  0  0  0  0  0
  160.4060  201.7930  147.9140 C   0  0  0  0  0  2  0  0  0  0  0  0
  160.7400  200.9960  146.6830 C   0  0  0  0  0  0  0  0  0  0  0  0
  160.2240  201.3620  145.3280 C   0  0  0  0  0  1  0  0  0  0  0  0
  161.4580  200.0160  146.7950 O   0  0  0  0  0  0  0  0  0  0  0  0
  1 19  1  1  0  0  0
  1 22  1  0  0  0  0
  2  9  2  0  0  0  0
  2  3  1  0  0  0  0
  3 16  1  0  0  0  0
  4 20  2  0  0  0  0
  4  5  1  0  0  0  0
  5 15  1  0  0  0  0
  6 19  1  0  0  0  0
  8 21  1  0  0  0  0
  8 13  2  0  0  0  0
 10  7  1  6  0  0  0
 10  1  1  0  0  0  0
 11  9  1  1  0  0  0
 11 10  1  0  0  0  0
 11 17  1  0  0  0  0
 12 18  2  0  0  0  0
 14  7  1  6  0  0  0
 14  6  1  0  0  0  0
 15 13  1  0  0  0  0
 16 17  2  0  0  0  0
 17 12  1  0  0  0  0
 18 23  1  0  0  0  0
 22 12  1  1  0  0  0
 22  4  1  0  0  0  0
 23  5  2  0  0  0  0
 23  8  1  0  0  0  0
 24 27  1  1  0  0  0
 24 26  1  0  0  0  0
 24 25  1  0  0  0  0
 25 14  1  1  0  0  0
 26 29  1  6  0  0  0
 26 25  1  0  0  0  0
 28 27  1  0  0  0  0
 30 32  2  0  0  0  0
 30 29  1  0  0  0  0
 31 30  1  0  0  0  0
M  END
>  <MODEL>
4

>  <REMARK>
 VINA RESULT:      -5.7      3.359      8.871
  Name = 
  4 active torsions:
  status: ('A' for Active; 'I' for Inactive)
    1  A    between atoms: C_1  and  N_16
    2  A    between atoms: C_10  and  C_17
    3  A    between atoms: C_20  and  C_29
    4  A    between atoms: C_29  and  C_30
                            x       y       z     vdW  Elec       q    Type
                         _______ _______ _______ _____ _____    ______ ____

>  <TORSDO>
F 4

$$$$
=
 OpenBabel11122412473D

 32 37  0  0  1  0  0  0  0  0999 V2000
  161.9190  207.8150  150.6360 C   0  0  2  0  0  3  0  0  0  0  0  0
  161.4790  204.4770  153.5070 C   0  0  0  0  0  3  0  0  0  0  0  0
  160.5620  203.5810  152.7040 C   0  0  0  0  0  2  0  0  0  0  0  0
  162.1410  207.4170  148.0670 C   0  0  0  0  0  0  0  0  0  0  0  0
  162.0000  206.3960  147.0370 C   0  0  0  0  0  0  0  0  0  0  0  0
  161.3800  210.1490  151.0100 O   0  0  0  0  0  0  0  0  0  0  0  0
  161.1640  208.5740  152.8480 C   0  0  0  0  0  2  0  0  0  0  0  0
  161.5070  204.4750  146.1730 C   0  0  0  0  0  0  0  0  0  0  0  0
  161.5300  205.7900  153.2200 C   0  0  0  0  0  3  0  0  0  0  0  0
  160.8900  207.7080  151.6910 N   0  0  2  0  0  0  0  0  0  0  0  0
  160.6400  206.3110  152.1060 C   0  0  1  0  0  3  0  0  0  0  0  0
  160.9110  205.7590  149.5750 C   0  0  0  0  0  0  0  0  0  0  0  0
  162.2140  205.1870  145.2650 N   0  0  0  0  0  0  0  0  0  0  0  0
  161.5010  210.0060  152.4040 C   0  0  2  0  0  3  0  0  0  0  0  0
  162.5210  206.3670  145.7960 N   0  0  0  0  0  0  0  0  0  0  0  0
  160.5860  204.0100  151.2590 C   0  0  0  0  0  3  0  0  0  0  0  0
  160.6140  205.3190  150.9540 C   0  0  0  0  0  0  0  0  0  0  0  0
  160.8920  204.8840  148.6000 N   0  0  0  0  0  0  0  0  0  0  0  0
  162.3370  209.2880  150.4520 C   0  0  0  0  0  2  0  0  0  0  0  0
  162.8280  208.4490  147.8500 O   0  0  0  0  0  0  0  0  0  0  0  0
  161.0540  203.0710  145.9790 C   0  0  0  0  0  1  0  0  0  0  0  0
  161.3230  207.2240  149.3420 C   0  0  1  0  0  3  0  0  0  0  0  0
  161.3510  205.2410  147.2970 C   0  0  1  0  0  3  0  0  0  0  0  0
  160.1820  212.2140  152.2630 C   0  0  2  0  0  3  0  0  0  0  0  0
  160.5720  210.9930  153.1050 C   0  0  1  0  0  3  0  0  0  0  0  0
  159.2360  211.0360  152.3910 C   0  0  1  0  0  3  0  0  0  0  0  0
  160.7860  212.2080  150.9390 N   0  0  0  0  0  2  0  0  0  0  0  0
  160.1100  213.5840  150.0660 S   0  0  0  0  0  1  0  0  0  0  0  0
  158.1440  211.3750  153.3920 C   0  0  0  0  0  2  0  0  0  0  0  0
  157.8320  212.8440  153.4560 C   0  0  0  0  0  0  0  0  0  0  0  0
  158.1190  213.6720  154.6690 C   0  0  0  0  0  1  0  0  0  0  0  0
  157.3270  213.3810  152.4840 O   0  0  0  0  0  0  0  0  0  0  0  0
  1 19  1  6  0  0  0
  1 10  1  0  0  0  0
  3  2  1  0  0  0  0
  5 23  1  0  0  0  0
  5  4  1  0  0  0  0
  6 14  1  0  0  0  0
  9  2  2  0  0  0  0
 10 11  1  0  0  0  0
 10  7  1  1  0  0  0
 11  9  1  1  0  0  0
 12 17  1  0  0  0  0
 13 15  1  0  0  0  0
 13  8  2  0  0  0  0
 14  7  1  6  0  0  0
 15  5  2  0  0  0  0
 16  3  1  0  0  0  0
 17 16  2  0  0  0  0
 17 11  1  0  0  0  0
 18 12  2  0  0  0  0
 19  6  1  0  0  0  0
 20  4  2  0  0  0  0
 21  8  1  0  0  0  0
 22  4  1  6  0  0  0
 22 12  1  0  0  0  0
 22  1  1  0  0  0  0
 23  8  1  1  0  0  0
 23 18  1  0  0  0  0
 24 27  1  6  0  0  0
 24 26  1  0  0  0  0
 24 25  1  0  0  0  0
 25 14  1  6  0  0  0
 26 25  1  0  0  0  0
 26 29  1  1  0  0  0
 28 27  1  0  0  0  0
 29 30  1  0  0  0  0
 30 31  1  0  0  0  0
 32 30  2  0  0  0  0
M  END
>  <MODEL>
5

>  <REMARK>
 VINA RESULT:      -4.8      1.745      1.938
  Name = 
  4 active torsions:
  status: ('A' for Active; 'I' for Inactive)
    1  A    between atoms: C_1  and  N_16
    2  A    between atoms: C_10  and  C_17
    3  A    between atoms: C_20  and  C_29
    4  A    between atoms: C_29  and  C_30
                            x       y       z     vdW  Elec       q    Type
                         _______ _______ _______ _____ _____    ______ ____

>  <TORSDO>
F 4

$$$$
