=
 OpenBabel11122414103D

 28 32  0  0  1  0  0  0  0  0999 V2000
  160.4590  209.7870  155.8930 C   0  0  0  0  0  0  0  0  0  0  0  0
  155.6710  210.6110  154.7340 F   0  0  0  0  0  0  0  0  0  0  0  0
  161.0200  212.1980  151.3330 O   0  0  0  0  0  0  0  0  0  0  0  0
  161.3670  212.2020  157.0740 C   0  0  0  0  0  3  0  0  0  0  0  0
  158.7940  212.5720  151.9850 N   0  0  0  0  0  0  0  0  0  0  0  0
  160.0830  208.6760  155.1350 O   0  0  0  0  0  0  0  0  0  0  0  0
  155.9400  211.0820  157.0290 C   0  0  0  0  0  1  0  0  0  0  0  0
  156.0390  211.6180  155.6140 C   0  0  1  0  0  0  0  0  0  0  0  0
  155.1450  213.3710  154.0770 C   0  0  1  0  0  3  0  0  0  0  0  0
  157.4910  212.0850  155.3500 C   0  0  2  0  0  3  0  0  0  0  0  0
  162.7020  209.5490  153.4170 C   0  0  0  0  0  1  0  0  0  0  0  0
  158.5680  210.7850  153.5440 C   0  0  1  0  0  3  0  0  0  0  0  0
  156.5260  213.9770  153.8770 C   0  0  0  0  0  2  0  0  0  0  0  0
  155.0560  212.7750  155.4740 C   0  0  0  0  0  2  0  0  0  0  0  0
  161.4820  208.6910  153.1260 C   0  0  2  0  0  3  0  0  0  0  0  0
  159.6740  210.8800  155.8920 C   0  0  0  0  0  0  0  0  0  0  0  0
  160.0240  211.8830  152.0380 C   0  0  0  0  0  0  0  0  0  0  0  0
  154.0960  214.4500  153.9200 C   0  0  0  0  0  1  0  0  0  0  0  0
  160.3740  209.4560  152.3840 C   0  0  0  0  0  2  0  0  0  0  0  0
  160.1140  212.0910  156.6250 C   0  0  0  0  0  3  0  0  0  0  0  0
  161.7280  209.7570  156.7100 C   0  0  0  0  0  2  0  0  0  0  0  0
  162.3820  211.1400  156.7610 C   0  0  0  0  0  2  0  0  0  0  0  0
  161.0120  207.9230  154.3670 C   0  0  0  0  0  2  0  0  0  0  0  0
  157.8530  212.0040  152.9310 C   0  0  1  0  0  3  0  0  0  0  0  0
  160.0260  210.7950  153.0370 C   0  0  2  0  0  3  0  0  0  0  0  0
  157.6420  212.9520  154.0970 C   0  0  2  0  0  3  0  0  0  0  0  0
  158.4840  213.6520  151.0630 C   0  0  0  0  0  1  0  0  0  0  0  0
  158.3940  210.8820  155.0780 C   0  0  1  0  0  3  0  0  0  0  0  0
  1 21  1  0  0  0  0
  2  8  1  0  0  0  0
  3 17  2  0  0  0  0
  5 17  1  0  0  0  0
  5 24  1  0  0  0  0
  6  1  1  0  0  0  0
  8  7  1  1  0  0  0
  9 18  1  1  0  0  0
  9 14  1  0  0  0  0
 10  8  1  0  0  0  0
 12 28  1  0  0  0  0
 13  9  1  0  0  0  0
 13 26  1  0  0  0  0
 14  8  1  0  0  0  0
 15 11  1  0  0  0  0
 15 23  1  0  0  0  0
 16  1  2  0  0  0  0
 16 20  1  0  0  0  0
 17 25  1  0  0  0  0
 19 25  1  0  0  0  0
 19 15  1  0  0  0  0
 20  4  2  0  0  0  0
 21 22  1  0  0  0  0
 22  4  1  0  0  0  0
 23  6  1  0  0  0  0
 24 12  1  0  0  0  0
 24 26  1  0  0  0  0
 25 12  1  0  0  0  0
 26 10  1  0  0  0  0
 27  5  1  0  0  0  0
 28 10  1  0  0  0  0
 28 16  1  0  0  0  0
M  END
>  <MODEL>
1

>  <REMARK>
 VINA RESULT:      -2.7      0.000      0.000
  Name = 
  0 active torsions:
  status: ('A' for Active; 'I' for Inactive)
                            x       y       z     vdW  Elec       q    Type
                         _______ _______ _______ _____ _____    ______ ____

>  <TORSDO>
F 0

$$$$
=
 OpenBabel11122414103D

 28 32  0  0  1  0  0  0  0  0999 V2000
  157.5650  211.3810  156.5290 C   0  0  0  0  0  0  0  0  0  0  0  0
  161.7280  208.7510  155.6920 F   0  0  0  0  0  0  0  0  0  0  0  0
  159.1080  213.5050  152.0550 O   0  0  0  0  0  0  0  0  0  0  0  0
  155.5480  210.0870  155.0090 C   0  0  0  0  0  3  0  0  0  0  0  0
  160.3640  211.5330  152.2930 N   0  0  0  0  0  0  0  0  0  0  0  0
  158.5830  212.1360  157.1130 O   0  0  0  0  0  0  0  0  0  0  0  0
  160.0800  207.2500  156.4630 C   0  0  0  0  0  1  0  0  0  0  0  0
  160.6740  207.9600  155.2610 C   0  0  1  0  0  0  0  0  0  0  0  0
  161.7870  207.5690  153.0610 C   0  0  1  0  0  3  0  0  0  0  0  0
  159.5750  208.8170  154.5860 C   0  0  2  0  0  3  0  0  0  0  0  0
  157.3050  214.4530  155.2220 C   0  0  0  0  0  1  0  0  0  0  0  0
  160.1160  211.2280  154.6430 C   0  0  1  0  0  3  0  0  0  0  0  0
  160.6710  208.2770  152.3090 C   0  0  0  0  0  2  0  0  0  0  0  0
  161.2120  206.9040  154.3030 C   0  0  0  0  0  2  0  0  0  0  0  0
  158.6450  214.2720  155.9170 C   0  0  2  0  0  3  0  0  0  0  0  0
  157.8870  210.3890  155.6780 C   0  0  0  0  0  0  0  0  0  0  0  0
  159.5600  212.5830  152.7860 C   0  0  0  0  0  0  0  0  0  0  0  0
  162.4080  206.5180  152.1660 C   0  0  0  0  0  1  0  0  0  0  0  0
  159.7290  213.6990  154.9900 C   0  0  0  0  0  2  0  0  0  0  0  0
  156.8060  209.6420  154.9910 C   0  0  0  0  0  3  0  0  0  0  0  0
  156.1190  211.6670  156.8570 C   0  0  0  0  0  2  0  0  0  0  0  0
  155.2190  211.4060  155.6470 C   0  0  0  0  0  2  0  0  0  0  0  0
  158.5000  213.5470  157.2610 C   0  0  0  0  0  2  0  0  0  0  0  0
  160.7010  210.6100  153.3600 C   0  0  1  0  0  3  0  0  0  0  0  0
  159.2720  212.4530  154.2280 C   0  0  2  0  0  3  0  0  0  0  0  0
  159.9470  209.3040  153.1840 C   0  0  2  0  0  3  0  0  0  0  0  0
  160.8480  211.4270  150.9270 C   0  0  0  0  0  1  0  0  0  0  0  0
  159.3460  210.1050  155.3770 C   0  0  1  0  0  3  0  0  0  0  0  0
  1 21  1  0  0  0  0
  1  6  1  0  0  0  0
  3 17  2  0  0  0  0
  4 22  1  0  0  0  0
  5 17  1  0  0  0  0
  5 24  1  0  0  0  0
  6 23  1  0  0  0  0
  8  2  1  0  0  0  0
  8  7  1  1  0  0  0
  9 18  1  6  0  0  0
  9 14  1  0  0  0  0
 10  8  1  0  0  0  0
 10 28  1  0  0  0  0
 11 15  1  0  0  0  0
 12 28  1  0  0  0  0
 13  9  1  0  0  0  0
 13 26  1  0  0  0  0
 14  8  1  0  0  0  0
 15 23  1  0  0  0  0
 16  1  2  0  0  0  0
 17 25  1  0  0  0  0
 19 15  1  0  0  0  0
 20  4  2  0  0  0  0
 20 16  1  0  0  0  0
 22 21  1  0  0  0  0
 24 12  1  0  0  0  0
 25 12  1  0  0  0  0
 25 19  1  0  0  0  0
 26 24  1  0  0  0  0
 26 10  1  0  0  0  0
 27  5  1  0  0  0  0
 28 16  1  0  0  0  0
M  END
>  <MODEL>
2

>  <REMARK>
 VINA RESULT:      -2.6      2.332      5.615
  Name = 
  0 active torsions:
  status: ('A' for Active; 'I' for Inactive)
                            x       y       z     vdW  Elec       q    Type
                         _______ _______ _______ _____ _____    ______ ____

>  <TORSDO>
F 0

$$$$
=
 OpenBabel11122414103D

 28 32  0  0  1  0  0  0  0  0999 V2000
  161.5500  210.2900  154.2810 C   0  0  0  0  0  0  0  0  0  0  0  0
  160.3050  214.2920  151.5630 F   0  0  0  0  0  0  0  0  0  0  0  0
  156.7580  211.1610  156.0700 O   0  0  0  0  0  0  0  0  0  0  0  0
  160.4350  208.0750  152.9010 C   0  0  0  0  0  3  0  0  0  0  0  0
  156.9510  212.4420  154.1090 N   0  0  0  0  0  0  0  0  0  0  0  0
  161.9240  211.3820  155.0670 O   0  0  0  0  0  0  0  0  0  0  0  0
  161.4120  212.7760  150.1340 C   0  0  0  0  0  1  0  0  0  0  0  0
  160.0900  213.1870  150.7520 C   0  0  1  0  0  0  0  0  0  0  0  0
  157.7840  213.9680  150.1960 C   0  0  1  0  0  3  0  0  0  0  0  0
  159.5230  212.0000  151.5690 C   0  0  2  0  0  3  0  0  0  0  0  0
  160.0790  209.8380  157.2560 C   0  0  0  0  0  1  0  0  0  0  0  0
  159.3280  212.5400  153.9740 C   0  0  1  0  0  3  0  0  0  0  0  0
  157.1540  212.7530  150.8600 C   0  0  0  0  0  2  0  0  0  0  0  0
  159.1410  213.5820  149.6260 C   0  0  0  0  0  2  0  0  0  0  0  0
  160.5830  211.2650  157.1130 C   0  0  2  0  0  3  0  0  0  0  0  0
  160.7340  210.4860  153.2290 C   0  0  0  0  0  0  0  0  0  0  0  0
  157.4800  211.7170  155.1980 C   0  0  0  0  0  0  0  0  0  0  0  0
  156.8860  214.4530  149.0800 C   0  0  0  0  0  1  0  0  0  0  0  0
  159.5510  212.2030  156.4660 C   0  0  0  0  0  2  0  0  0  0  0  0
  160.2660  209.3190  152.4450 C   0  0  0  0  0  3  0  0  0  0  0  0
  162.0640  208.9080  154.6030 C   0  0  0  0  0  2  0  0  0  0  0  0
  161.0190  207.8410  154.2650 C   0  0  0  0  0  2  0  0  0  0  0  0
  161.9810  211.3190  156.4860 C   0  0  0  0  0  2  0  0  0  0  0  0
  158.0200  212.9320  153.2610 C   0  0  1  0  0  3  0  0  0  0  0  0
  158.9540  211.6420  155.1730 C   0  0  2  0  0  3  0  0  0  0  0  0
  158.0490  212.1630  151.9530 C   0  0  2  0  0  3  0  0  0  0  0  0
  155.5400  212.7220  153.9020 C   0  0  0  0  0  1  0  0  0  0  0  0
  160.2440  211.8870  152.9110 C   0  0  1  0  0  3  0  0  0  0  0  0
  1 21  1  0  0  0  0
  1  6  1  0  0  0  0
  4 22  1  0  0  0  0
  5 17  1  0  0  0  0
  6 23  1  0  0  0  0
  8  7  1  6  0  0  0
  8  2  1  0  0  0  0
  8 10  1  0  0  0  0
  9 18  1  6  0  0  0
  9 13  1  0  0  0  0
 10 26  1  0  0  0  0
 10 28  1  0  0  0  0
 12 25  1  0  0  0  0
 13 26  1  0  0  0  0
 14  9  1  0  0  0  0
 14  8  1  0  0  0  0
 15 11  1  0  0  0  0
 16  1  2  0  0  0  0
 17  3  2  0  0  0  0
 19 15  1  0  0  0  0
 20  4  2  0  0  0  0
 20 16  1  0  0  0  0
 22 21  1  0  0  0  0
 23 15  1  0  0  0  0
 24 12  1  0  0  0  0
 24  5  1  0  0  0  0
 25 17  1  0  0  0  0
 25 19  1  0  0  0  0
 26 24  1  0  0  0  0
 27  5  1  0  0  0  0
 28 16  1  0  0  0  0
 28 12  1  0  0  0  0
M  END
>  <MODEL>
3

>  <REMARK>
 VINA RESULT:      -2.1      2.098      4.655
  Name = 
  0 active torsions:
  status: ('A' for Active; 'I' for Inactive)
                            x       y       z     vdW  Elec       q    Type
                         _______ _______ _______ _____ _____    ______ ____

>  <TORSDO>
F 0

$$$$
=
 OpenBabel11122414103D

 28 32  0  0  1  0  0  0  0  0999 V2000
  160.5140  209.3070  156.0430 C   0  0  0  0  0  0  0  0  0  0  0  0
  157.5860  211.6600  152.7510 F   0  0  0  0  0  0  0  0  0  0  0  0
  162.8360  207.9430  151.6090 O   0  0  0  0  0  0  0  0  0  0  0  0
  162.7210  211.0440  156.4520 C   0  0  0  0  0  3  0  0  0  0  0  0
  161.3910  209.7110  151.0560 N   0  0  0  0  0  0  0  0  0  0  0  0
  159.5430  208.3660  155.6970 O   0  0  0  0  0  0  0  0  0  0  0  0
  157.9490  213.1310  154.5590 C   0  0  0  0  0  1  0  0  0  0  0  0
  158.4730  212.6110  153.2340 C   0  0  1  0  0  0  0  0  0  0  0  0
  159.0790  213.3120  150.9160 C   0  0  1  0  0  3  0  0  0  0  0  0
  159.8790  212.0010  153.4490 C   0  0  2  0  0  3  0  0  0  0  0  0
  162.1830  206.5760  155.0570 C   0  0  0  0  0  1  0  0  0  0  0  0
  159.9290  209.5840  152.9330 C   0  0  1  0  0  3  0  0  0  0  0  0
  160.5200  212.8630  151.0990 C   0  0  0  0  0  2  0  0  0  0  0  0
  158.5240  213.7780  152.2530 C   0  0  0  0  0  2  0  0  0  0  0  0
  160.7230  206.5000  154.6370 C   0  0  2  0  0  3  0  0  0  0  0  0
  160.6610  210.4100  155.2850 C   0  0  0  0  0  0  0  0  0  0  0  0
  161.8410  208.6640  151.8870 C   0  0  0  0  0  0  0  0  0  0  0  0
  159.0300  214.4530  149.9230 C   0  0  0  0  0  1  0  0  0  0  0  0
  160.4590  207.1380  153.2640 C   0  0  0  0  0  2  0  0  0  0  0  0
  161.7470  211.3680  155.5980 C   0  0  0  0  0  3  0  0  0  0  0  0
  161.3820  209.0950  157.2590 C   0  0  0  0  0  2  0  0  0  0  0  0
  162.7870  209.6630  157.0380 C   0  0  0  0  0  2  0  0  0  0  0  0
  159.7810  206.9650  155.7540 C   0  0  0  0  0  2  0  0  0  0  0  0
  160.2520  210.3800  151.6550 C   0  0  1  0  0  3  0  0  0  0  0  0
  161.0520  208.5420  153.1300 C   0  0  2  0  0  3  0  0  0  0  0  0
  160.6520  211.7580  152.1500 C   0  0  2  0  0  3  0  0  0  0  0  0
  161.9420  210.0320  149.7490 C   0  0  0  0  0  1  0  0  0  0  0  0
  159.7650  210.6130  154.0770 C   0  0  1  0  0  3  0  0  0  0  0  0
  1 21  1  0  0  0  0
  2  8  1  0  0  0  0
  3 17  2  0  0  0  0
  4 22  1  0  0  0  0
  5 24  1  0  0  0  0
  5 17  1  0  0  0  0
  6 23  1  0  0  0  0
  6  1  1  0  0  0  0
  8 10  1  0  0  0  0
  8  7  1  1  0  0  0
  9 18  1  6  0  0  0
  9 13  1  0  0  0  0
  9 14  1  0  0  0  0
 10 28  1  0  0  0  0
 12 25  1  0  0  0  0
 12 28  1  0  0  0  0
 13 26  1  0  0  0  0
 14  8  1  0  0  0  0
 15 11  1  0  0  0  0
 15 23  1  0  0  0  0
 16 20  1  0  0  0  0
 16  1  2  0  0  0  0
 17 25  1  0  0  0  0
 19 15  1  0  0  0  0
 20  4  2  0  0  0  0
 22 21  1  0  0  0  0
 24 26  1  0  0  0  0
 24 12  1  0  0  0  0
 25 19  1  0  0  0  0
 26 10  1  0  0  0  0
 27  5  1  0  0  0  0
 28 16  1  0  0  0  0
M  END
>  <MODEL>
4

>  <REMARK>
 VINA RESULT:      -1.9      2.174      3.367
  Name = 
  0 active torsions:
  status: ('A' for Active; 'I' for Inactive)
                            x       y       z     vdW  Elec       q    Type
                         _______ _______ _______ _____ _____    ______ ____

>  <TORSDO>
F 0

$$$$
=
 OpenBabel11122414103D

 28 32  0  0  1  0  0  0  0  0999 V2000
  162.3290  209.3720  151.5260 C   0  0  0  0  0  0  0  0  0  0  0  0
  163.3380  213.3390  148.6630 F   0  0  0  0  0  0  0  0  0  0  0  0
  157.8370  211.9420  151.9000 O   0  0  0  0  0  0  0  0  0  0  0  0
  160.9440  207.5640  149.8340 C   0  0  0  0  0  3  0  0  0  0  0  0
  158.9910  212.9280  150.1070 N   0  0  0  0  0  0  0  0  0  0  0  0
  162.8250  210.3310  152.4120 O   0  0  0  0  0  0  0  0  0  0  0  0
  164.2020  211.4340  147.5720 C   0  0  0  0  0  1  0  0  0  0  0  0
  162.9870  212.3130  147.7990 C   0  0  1  0  0  0  0  0  0  0  0  0
  161.3400  213.7800  146.6300 C   0  0  1  0  0  3  0  0  0  0  0  0
  161.8440  211.4530  148.3920 C   0  0  2  0  0  3  0  0  0  0  0  0
  160.0360  209.6710  153.9490 C   0  0  0  0  0  1  0  0  0  0  0  0
  161.1950  212.2090  150.6540 C   0  0  1  0  0  3  0  0  0  0  0  0
  160.1730  212.9030  147.0570 C   0  0  0  0  0  2  0  0  0  0  0  0
  162.5800  212.9170  146.4590 C   0  0  0  0  0  2  0  0  0  0  0  0
  161.0190  210.8300  153.9890 C   0  0  2  0  0  3  0  0  0  0  0  0
  161.9530  209.7510  150.2910 C   0  0  0  0  0  0  0  0  0  0  0  0
  158.9160  212.1530  151.2830 C   0  0  0  0  0  0  0  0  0  0  0  0
  161.0070  214.4530  145.3160 C   0  0  0  0  0  1  0  0  0  0  0  0
  160.5940  212.0080  153.0980 C   0  0  0  0  0  2  0  0  0  0  0  0
  161.3460  208.7530  149.3780 C   0  0  0  0  0  3  0  0  0  0  0  0
  162.2250  207.9270  151.9480 C   0  0  0  0  0  2  0  0  0  0  0  0
  161.0130  207.2520  151.3010 C   0  0  0  0  0  2  0  0  0  0  0  0
  162.4650  210.3610  153.7870 C   0  0  0  0  0  2  0  0  0  0  0  0
  160.3530  212.9630  149.6090 C   0  0  1  0  0  3  0  0  0  0  0  0
  160.2210  211.5840  151.6770 C   0  0  2  0  0  3  0  0  0  0  0  0
  160.4730  212.1320  148.3450 C   0  0  2  0  0  3  0  0  0  0  0  0
  157.8780  213.6510  149.5140 C   0  0  0  0  0  1  0  0  0  0  0  0
  162.0840  211.2060  149.8810 C   0  0  1  0  0  3  0  0  0  0  0  0
  1 21  1  0  0  0  0
  1  6  1  0  0  0  0
  4 22  1  0  0  0  0
  5 17  1  0  0  0  0
  6 23  1  0  0  0  0
  8  7  1  6  0  0  0
  8 10  1  0  0  0  0
  8  2  1  0  0  0  0
  9 18  1  6  0  0  0
  9 13  1  0  0  0  0
 10 28  1  0  0  0  0
 11 15  1  0  0  0  0
 12 25  1  0  0  0  0
 13 26  1  0  0  0  0
 14  9  1  0  0  0  0
 14  8  1  0  0  0  0
 16  1  2  0  0  0  0
 17 25  1  0  0  0  0
 17  3  2  0  0  0  0
 19 15  1  0  0  0  0
 20  4  2  0  0  0  0
 20 16  1  0  0  0  0
 22 21  1  0  0  0  0
 23 15  1  0  0  0  0
 24  5  1  0  0  0  0
 24 12  1  0  0  0  0
 25 19  1  0  0  0  0
 26 10  1  0  0  0  0
 26 24  1  0  0  0  0
 27  5  1  0  0  0  0
 28 16  1  0  0  0  0
 28 12  1  0  0  0  0
M  END
>  <MODEL>
5

>  <REMARK>
 VINA RESULT:      -1.4      3.853      6.844
  Name = 
  0 active torsions:
  status: ('A' for Active; 'I' for Inactive)
                            x       y       z     vdW  Elec       q    Type
                         _______ _______ _______ _____ _____    ______ ____

>  <TORSDO>
F 0

$$$$
=
 OpenBabel11122414103D

 28 32  0  0  1  0  0  0  0  0999 V2000
  159.4570  211.3790  139.7300 C   0  0  0  0  0  0  0  0  0  0  0  0
  159.7160  214.1460  143.8800 F   0  0  0  0  0  0  0  0  0  0  0  0
  164.0500  213.6820  139.0120 O   0  0  0  0  0  0  0  0  0  0  0  0
  160.9330  209.0260  140.3090 C   0  0  0  0  0  3  0  0  0  0  0  0
  163.5010  214.0400  141.2690 N   0  0  0  0  0  0  0  0  0  0  0  0
  158.9060  212.6100  139.3690 O   0  0  0  0  0  0  0  0  0  0  0  0
  158.8740  212.0270  144.4870 C   0  0  0  0  0  1  0  0  0  0  0  0
  160.1130  212.8660  144.2390 C   0  0  1  0  0  0  0  0  0  0  0  0
  162.1780  213.7470  145.3310 C   0  0  1  0  0  3  0  0  0  0  0  0
  160.9520  212.2090  143.1160 C   0  0  2  0  0  3  0  0  0  0  0  0
  161.1350  212.3840  137.0110 C   0  0  0  0  0  1  0  0  0  0  0  0
  161.1510  213.6710  141.1320 C   0  0  1  0  0  3  0  0  0  0  0  0
  163.0770  213.0150  144.3450 C   0  0  0  0  0  2  0  0  0  0  0  0
  160.9040  212.9430  145.5400 C   0  0  0  0  0  2  0  0  0  0  0  0
  160.3420  213.5330  137.6140 C   0  0  2  0  0  3  0  0  0  0  0  0
  160.1620  211.2830  140.8720 C   0  0  0  0  0  0  0  0  0  0  0  0
  163.1870  213.7210  139.9310 C   0  0  0  0  0  0  0  0  0  0  0  0
  162.9010  213.9020  146.6510 C   0  0  0  0  0  1  0  0  0  0  0  0
  161.1260  214.3040  138.6880 C   0  0  0  0  0  2  0  0  0  0  0  0
  160.8200  210.0000  141.2140 C   0  0  0  0  0  3  0  0  0  0  0  0
  159.2550  210.1670  138.8520 C   0  0  0  0  0  2  0  0  0  0  0  0
  160.4780  209.2480  138.8950 C   0  0  0  0  0  2  0  0  0  0  0  0
  158.9330  213.0990  138.0340 C   0  0  0  0  0  2  0  0  0  0  0  0
  162.3130  213.9690  142.0980 C   0  0  1  0  0  3  0  0  0  0  0  0
  161.7600  213.3930  139.7410 C   0  0  2  0  0  3  0  0  0  0  0  0
  162.3770  212.7570  143.0090 C   0  0  2  0  0  3  0  0  0  0  0  0
  164.8120  214.4530  141.7410 C   0  0  0  0  0  1  0  0  0  0  0  0
  160.3370  212.5090  141.7490 C   0  0  1  0  0  3  0  0  0  0  0  0
  1 16  2  0  0  0  0
  2  8  1  0  0  0  0
  3 17  2  0  0  0  0
  4 20  2  0  0  0  0
  5 27  1  0  0  0  0
  5 24  1  0  0  0  0
  6  1  1  0  0  0  0
  8  7  1  1  0  0  0
  8 14  1  0  0  0  0
  9 14  1  0  0  0  0
  9 18  1  1  0  0  0
 10  8  1  0  0  0  0
 11 15  1  0  0  0  0
 12 28  1  0  0  0  0
 12 24  1  0  0  0  0
 13  9  1  0  0  0  0
 15 23  1  0  0  0  0
 15 19  1  0  0  0  0
 16 20  1  0  0  0  0
 16 28  1  0  0  0  0
 17  5  1  0  0  0  0
 19 25  1  0  0  0  0
 21 22  1  0  0  0  0
 21  1  1  0  0  0  0
 22  4  1  0  0  0  0
 23  6  1  0  0  0  0
 24 26  1  0  0  0  0
 25 17  1  0  0  0  0
 25 12  1  0  0  0  0
 26 10  1  0  0  0  0
 26 13  1  0  0  0  0
 28 10  1  0  0  0  0
M  END
>  <MODEL>
6

>  <REMARK>
 VINA RESULT:      -1.2     10.855     14.091
  Name = 
  0 active torsions:
  status: ('A' for Active; 'I' for Inactive)
                            x       y       z     vdW  Elec       q    Type
                         _______ _______ _______ _____ _____    ______ ____

>  <TORSDO>
F 0

$$$$
