=
 OpenBabel11122413353D

 37 43  0  0  1  0  0  0  0  0999 V2000
  160.7880  209.1910  150.7200 C   0  0  0  0  0  2  0  0  0  0  0  0
  160.5910  210.5850  155.9120 C   0  0  0  0  0  0  0  0  0  0  0  0
  159.4420  212.8150  152.6010 C   0  0  0  0  0  0  0  0  0  0  0  0
  161.5420  208.0150  150.0970 C   0  0  2  0  0  3  0  0  0  0  0  0
  161.4910  213.0900  149.7740 C   0  0  0  0  0  2  0  0  0  0  0  0
  159.4040  212.5750  154.9970 C   0  0  0  0  0  0  0  0  0  0  0  0
  160.1270  212.1560  151.5810 C   0  0  0  0  0  0  0  0  0  0  0  0
  162.2670  209.7890  148.3540 C   0  0  2  0  0  3  0  0  0  0  0  0
  159.8480  212.2310  153.7510 C   0  0  0  0  0  0  0  0  0  0  0  0
  160.1290  212.5060  150.1110 C   0  0  1  0  0  3  0  0  0  0  0  0
  158.4670  213.6200  155.0870 C   0  0  0  0  0  3  0  0  0  0  0  0
  162.5460  208.4290  149.0110 C   0  0  0  0  0  2  0  0  0  0  0  0
  160.7240  211.2500  153.4790 C   0  0  0  0  0  0  0  0  0  0  0  0
  159.5620  209.4700  155.9400 C   0  0  0  0  0  1  0  0  0  0  0  0
  157.9270  214.3970  151.3630 C   0  0  0  0  0  2  0  0  0  0  0  0
  157.9940  214.2370  153.8960 C   0  0  0  0  0  3  0  0  0  0  0  0
  161.3980  210.4830  154.5790 C   0  0  0  0  0  2  0  0  0  0  0  0
  162.6250  210.9300  149.2130 N   0  0  1  0  0  0  0  0  0  0  0  0
  162.2020  212.2490  148.7250 C   0  0  0  0  0  2  0  0  0  0  0  0
  158.4690  213.8170  152.6270 C   0  0  0  0  0  0  0  0  0  0  0  0
  160.9220  211.1900  152.1400 N   0  0  0  0  0  0  0  0  0  0  0  0
  159.9100  211.8550  156.0880 O   0  0  0  0  0  0  0  0  0  0  0  0
  159.0550  213.5160  149.6630 C   0  0  2  0  0  3  0  0  0  0  0  0
  161.5430  210.3780  157.0700 C   0  0  0  0  0  1  0  0  0  0  0  0
  162.8820  210.7440  150.6550 C   0  0  0  0  0  2  0  0  0  0  0  0
  160.9420  209.8750  147.9110 O   0  0  0  0  0  1  0  0  0  0  0  0
  161.7050  210.1610  151.4600 C   0  0  2  0  0  3  0  0  0  0  0  0
  157.8580  213.3980  150.3810 O   0  0  0  0  0  0  0  0  0  0  0  0
  159.5480  214.1080  147.2620 C   0  0  0  0  0  3  0  0  0  0  0  0
  158.7880  213.3880  148.1960 C   0  0  0  0  0  0  0  0  0  0  0  0
  157.7520  212.5580  147.7550 C   0  0  0  0  0  3  0  0  0  0  0  0
  156.4760  211.6370  145.9650 F   0  0  0  0  0  0  0  0  0  0  0  0
  158.2400  213.1590  145.4600 C   0  0  0  0  0  3  0  0  0  0  0  0
  157.4790  212.4420  146.3890 C   0  0  0  0  0  0  0  0  0  0  0  0
  159.2730  213.9920  145.8970 C   0  0  0  0  0  3  0  0  0  0  0  0
  161.3160  206.2350  148.5980 C   0  0  0  0  0  1  0  0  0  0  0  0
  160.5890  207.0730  149.5360 N   0  0  0  0  0  2  0  0  0  0  0  0
  1 27  1  0  0  0  0
  2 14  1  0  0  0  0
  2 22  1  0  0  0  0
  2 24  1  0  0  0  0
  3 20  1  0  0  0  0
  3  9  1  0  0  0  0
  4 37  1  6  0  0  0
  4  1  1  0  0  0  0
  6 11  2  0  0  0  0
  6 22  1  0  0  0  0
  7 21  1  0  0  0  0
  7  3  2  0  0  0  0
  8 26  1  1  0  0  0
  8 12  1  0  0  0  0
  8 18  1  0  0  0  0
  9  6  1  0  0  0  0
 10  5  1  1  0  0  0
 10  7  1  0  0  0  0
 12  4  1  0  0  0  0
 13  9  2  0  0  0  0
 13 17  1  0  0  0  0
 15 20  1  0  0  0  0
 16 11  1  0  0  0  0
 17  2  1  0  0  0  0
 18 19  1  1  0  0  0
 18 25  1  0  0  0  0
 19  5  1  0  0  0  0
 20 16  2  0  0  0  0
 21 13  1  0  0  0  0
 23 30  1  6  0  0  0
 23 10  1  0  0  0  0
 23 28  1  0  0  0  0
 27 25  1  6  0  0  0
 27 21  1  0  0  0  0
 28 15  1  0  0  0  0
 29 30  1  0  0  0  0
 31 30  2  0  0  0  0
 32 34  1  0  0  0  0
 33 35  1  0  0  0  0
 33 34  2  0  0  0  0
 34 31  1  0  0  0  0
 35 29  2  0  0  0  0
 36 37  1  0  0  0  0
M  END
>  <MODEL>
1

>  <REMARK>
 VINA RESULT:      -2.6      0.000      0.000
  Name = 
  2 active torsions:
  status: ('A' for Active; 'I' for Inactive)
    1  A    between atoms: C_4  and  N_37
    2  A    between atoms: C_23  and  C_30
                            x       y       z     vdW  Elec       q    Type
                         _______ _______ _______ _____ _____    ______ ____

>  <TORSDO>
F 2

$$$$
=
 OpenBabel11122413353D

 37 43  0  0  1  0  0  0  0  0999 V2000
  160.7460  208.6470  150.7640 C   0  0  0  0  0  2  0  0  0  0  0  0
  160.4960  208.6960  156.1370 C   0  0  0  0  0  0  0  0  0  0  0  0
  159.2050  211.6090  153.4720 C   0  0  0  0  0  0  0  0  0  0  0  0
  161.5630  207.7080  149.8750 C   0  0  2  0  0  3  0  0  0  0  0  0
  161.2200  212.6930  150.8220 C   0  0  0  0  0  2  0  0  0  0  0  0
  159.1930  210.7800  155.7330 C   0  0  0  0  0  0  0  0  0  0  0  0
  159.9210  211.2650  152.3270 C   0  0  0  0  0  0  0  0  0  0  0  0
  162.1770  209.8970  148.6330 C   0  0  2  0  0  3  0  0  0  0  0  0
  159.6490  210.7820  154.4450 C   0  0  0  0  0  0  0  0  0  0  0  0
  159.8960  211.9680  150.9900 C   0  0  1  0  0  3  0  0  0  0  0  0
  158.1980  211.7160  156.0710 C   0  0  0  0  0  3  0  0  0  0  0  0
  162.5360  208.4350  148.9350 C   0  0  0  0  0  2  0  0  0  0  0  0
  160.5790  209.9500  153.9460 C   0  0  0  0  0  0  0  0  0  0  0  0
  159.5320  207.5520  155.8780 C   0  0  0  0  0  1  0  0  0  0  0  0
  157.5960  213.3610  152.6510 C   0  0  0  0  0  2  0  0  0  0  0  0
  157.6850  212.5810  155.0660 C   0  0  0  0  0  3  0  0  0  0  0  0
  161.3000  208.9730  154.8280 C   0  0  0  0  0  2  0  0  0  0  0  0
  162.4730  210.8080  149.7530 N   0  0  1  0  0  0  0  0  0  0  0  0
  161.9730  212.1800  149.6030 C   0  0  0  0  0  2  0  0  0  0  0  0
  158.1760  212.5170  153.7370 C   0  0  0  0  0  0  0  0  0  0  0  0
  160.7730  210.2360  152.6370 N   0  0  0  0  0  0  0  0  0  0  0  0
  159.7440  209.8410  156.6160 O   0  0  0  0  0  0  0  0  0  0  0  0
  158.7640  212.9950  150.7970 C   0  0  2  0  0  3  0  0  0  0  0  0
  161.4640  208.2620  157.2160 C   0  0  0  0  0  1  0  0  0  0  0  0
  162.7480  210.2840  151.1050 C   0  0  0  0  0  2  0  0  0  0  0  0
  160.8470  210.0160  148.2140 O   0  0  0  0  0  1  0  0  0  0  0  0
  161.6100  209.4540  151.7300 C   0  0  2  0  0  3  0  0  0  0  0  0
  157.5790  212.6350  151.4520 O   0  0  0  0  0  0  0  0  0  0  0  0
  157.2550  212.8930  148.7800 C   0  0  0  0  0  3  0  0  0  0  0  0
  158.4970  213.2210  149.3410 C   0  0  0  0  0  0  0  0  0  0  0  0
  159.5100  213.7430  148.5300 C   0  0  0  0  0  3  0  0  0  0  0  0
  160.2640  214.4490  146.3820 F   0  0  0  0  0  0  0  0  0  0  0  0
  158.0410  213.6170  146.6080 C   0  0  0  0  0  3  0  0  0  0  0  0
  159.2820  213.9420  147.1650 C   0  0  0  0  0  0  0  0  0  0  0  0
  157.0280  213.0920  147.4150 C   0  0  0  0  0  3  0  0  0  0  0  0
  160.7150  205.5410  149.6430 C   0  0  0  0  0  1  0  0  0  0  0  0
  160.6620  206.8820  149.0880 N   0  0  0  0  0  2  0  0  0  0  0  0
  2 22  1  0  0  0  0
  2 24  1  0  0  0  0
  3 20  1  0  0  0  0
  3  9  1  0  0  0  0
  4 37  1  6  0  0  0
  4  1  1  0  0  0  0
  6 11  2  0  0  0  0
  6 22  1  0  0  0  0
  7 21  1  0  0  0  0
  7  3  2  0  0  0  0
  8 26  1  1  0  0  0
  8 12  1  0  0  0  0
  8 18  1  0  0  0  0
  9  6  1  0  0  0  0
 10  5  1  1  0  0  0
 10  7  1  0  0  0  0
 12  4  1  0  0  0  0
 13  9  2  0  0  0  0
 13 17  1  0  0  0  0
 14  2  1  0  0  0  0
 15 20  1  0  0  0  0
 16 11  1  0  0  0  0
 17  2  1  0  0  0  0
 18 19  1  1  0  0  0
 18 25  1  0  0  0  0
 19  5  1  0  0  0  0
 20 16  2  0  0  0  0
 21 13  1  0  0  0  0
 23 30  1  6  0  0  0
 23 10  1  0  0  0  0
 23 28  1  0  0  0  0
 25 27  1  0  0  0  0
 27  1  1  6  0  0  0
 27 21  1  0  0  0  0
 28 15  1  0  0  0  0
 29 30  1  0  0  0  0
 31 30  2  0  0  0  0
 32 34  1  0  0  0  0
 33 34  2  0  0  0  0
 33 35  1  0  0  0  0
 34 31  1  0  0  0  0
 35 29  2  0  0  0  0
 37 36  1  0  0  0  0
M  END
>  <MODEL>
2

>  <REMARK>
 VINA RESULT:      -1.9      1.397      1.733
  Name = 
  2 active torsions:
  status: ('A' for Active; 'I' for Inactive)
    1  A    between atoms: C_4  and  N_37
    2  A    between atoms: C_23  and  C_30
                            x       y       z     vdW  Elec       q    Type
                         _______ _______ _______ _____ _____    ______ ____

>  <TORSDO>
F 2

$$$$
=
 OpenBabel11122413353D

 37 43  0  0  1  0  0  0  0  0999 V2000
  160.4770  210.5280  147.9170 C   0  0  0  0  0  2  0  0  0  0  0  0
  161.5610  205.5070  146.3200 C   0  0  0  0  0  0  0  0  0  0  0  0
  161.3690  206.9920  150.1950 C   0  0  0  0  0  0  0  0  0  0  0  0
  160.4570  211.7950  147.0630 C   0  0  2  0  0  3  0  0  0  0  0  0
  162.9640  209.9760  151.0960 C   0  0  0  0  0  2  0  0  0  0  0  0
  161.4650  205.0540  148.7680 C   0  0  0  0  0  0  0  0  0  0  0  0
  161.5120  208.3600  149.9670 C   0  0  0  0  0  0  0  0  0  0  0  0
  161.7970  212.7940  149.0420 C   0  0  2  0  0  3  0  0  0  0  0  0
  161.5380  206.4010  148.9900 C   0  0  0  0  0  0  0  0  0  0  0  0
  161.5390  209.4580  151.0040 C   0  0  1  0  0  3  0  0  0  0  0  0
  161.2060  204.2260  149.8750 C   0  0  0  0  0  3  0  0  0  0  0  0
  161.4120  212.8920  147.5590 C   0  0  0  0  0  2  0  0  0  0  0  0
  161.7600  207.3350  148.0510 C   0  0  0  0  0  0  0  0  0  0  0  0
  160.1170  205.5810  145.8590 C   0  0  0  0  0  1  0  0  0  0  0  0
  160.7510  206.8650  152.6310 C   0  0  0  0  0  2  0  0  0  0  0  0
  160.9920  204.8150  151.1520 C   0  0  0  0  0  3  0  0  0  0  0  0
  162.0590  206.9530  146.6310 C   0  0  0  0  0  2  0  0  0  0  0  0
  162.7740  211.7260  149.3160 N   0  0  1  0  0  0  0  0  0  0  0  0
  163.0330  211.4530  150.7360 C   0  0  0  0  0  2  0  0  0  0  0  0
  161.0510  206.2220  151.3170 C   0  0  0  0  0  0  0  0  0  0  0  0
  161.7580  208.5580  148.6340 N   0  0  0  0  0  0  0  0  0  0  0  0
  161.6440  204.6030  147.4530 O   0  0  0  0  0  0  0  0  0  0  0  0
  161.0890  209.0510  152.4210 C   0  0  2  0  0  3  0  0  0  0  0  0
  162.3900  204.9440  145.1860 C   0  0  0  0  0  1  0  0  0  0  0  0
  163.0500  210.6750  148.3170 C   0  0  0  0  0  2  0  0  0  0  0  0
  160.6630  212.6730  149.8540 O   0  0  0  0  0  1  0  0  0  0  0  0
  161.8320  209.8250  147.9080 C   0  0  2  0  0  3  0  0  0  0  0  0
  160.0810  208.0770  152.4160 O   0  0  0  0  0  0  0  0  0  0  0  0
  161.2490  210.5790  154.4190 C   0  0  0  0  0  3  0  0  0  0  0  0
  160.6420  210.2490  153.1990 C   0  0  0  0  0  0  0  0  0  0  0  0
  159.5910  211.0320  152.7120 C   0  0  0  0  0  3  0  0  0  0  0  0
  158.1340  212.9020  152.9610 F   0  0  0  0  0  0  0  0  0  0  0  0
  159.7590  212.4730  154.6510 C   0  0  0  0  0  3  0  0  0  0  0  0
  159.1510  212.1440  153.4350 C   0  0  0  0  0  0  0  0  0  0  0  0
  160.8080  211.6910  155.1430 C   0  0  0  0  0  3  0  0  0  0  0  0
  158.7940  212.5800  145.6180 C   0  0  0  0  0  1  0  0  0  0  0  0
  159.1040  212.3240  147.0140 N   0  0  0  0  0  2  0  0  0  0  0  0
  2 17  1  0  0  0  0
  2 22  1  0  0  0  0
  3 20  1  0  0  0  0
  4 37  1  1  0  0  0
  4 12  1  0  0  0  0
  4  1  1  0  0  0  0
  6  9  1  0  0  0  0
  6 11  2  0  0  0  0
  7  3  2  0  0  0  0
  7 10  1  0  0  0  0
  8 18  1  0  0  0  0
  8 26  1  1  0  0  0
  9  3  1  0  0  0  0
 10  5  1  1  0  0  0
 10 23  1  0  0  0  0
 11 16  1  0  0  0  0
 12  8  1  0  0  0  0
 13 21  1  0  0  0  0
 13  9  2  0  0  0  0
 14  2  1  0  0  0  0
 16 20  2  0  0  0  0
 17 13  1  0  0  0  0
 18 25  1  1  0  0  0
 18 19  1  0  0  0  0
 19  5  1  0  0  0  0
 20 15  1  0  0  0  0
 21  7  1  0  0  0  0
 22  6  1  0  0  0  0
 23 30  1  6  0  0  0
 24  2  1  0  0  0  0
 27  1  1  1  0  0  0
 27 25  1  0  0  0  0
 27 21  1  0  0  0  0
 28 23  1  0  0  0  0
 28 15  1  0  0  0  0
 29 35  1  0  0  0  0
 30 29  2  0  0  0  0
 31 30  1  0  0  0  0
 31 34  2  0  0  0  0
 32 34  1  0  0  0  0
 33 35  2  0  0  0  0
 34 33  1  0  0  0  0
 36 37  1  0  0  0  0
M  END
>  <MODEL>
3

>  <REMARK>
 VINA RESULT:      -0.7      2.501      7.301
  Name = 
  2 active torsions:
  status: ('A' for Active; 'I' for Inactive)
    1  A    between atoms: C_4  and  N_37
    2  A    between atoms: C_23  and  C_30
                            x       y       z     vdW  Elec       q    Type
                         _______ _______ _______ _____ _____    ______ ____

>  <TORSDO>
F 2

$$$$
=
 OpenBabel11122413353D

 37 43  0  0  1  0  0  0  0  0999 V2000
  160.5260  210.5090  147.9040 C   0  0  0  0  0  2  0  0  0  0  0  0
  161.6580  205.4640  146.4190 C   0  0  0  0  0  0  0  0  0  0  0  0
  161.3690  207.0150  150.2620 C   0  0  0  0  0  0  0  0  0  0  0  0
  160.5250  211.7620  147.0270 C   0  0  2  0  0  3  0  0  0  0  0  0
  162.9360  210.0180  151.1510 C   0  0  0  0  0  2  0  0  0  0  0  0
  161.5030  205.0540  148.8720 C   0  0  0  0  0  0  0  0  0  0  0  0
  161.5150  208.3790  150.0150 C   0  0  0  0  0  0  0  0  0  0  0  0
  161.8150  212.7980  149.0210 C   0  0  2  0  0  3  0  0  0  0  0  0
  161.5690  206.4040  149.0730 C   0  0  0  0  0  0  0  0  0  0  0  0
  161.5140  209.4950  151.0330 C   0  0  1  0  0  3  0  0  0  0  0  0
  161.2190  204.2440  149.9860 C   0  0  0  0  0  3  0  0  0  0  0  0
  161.4650  212.8690  147.5280 C   0  0  0  0  0  2  0  0  0  0  0  0
  161.8110  207.3230  148.1240 C   0  0  0  0  0  0  0  0  0  0  0  0
  160.2260  205.5280  145.9220 C   0  0  0  0  0  1  0  0  0  0  0  0
  160.6910  206.9280  152.6840 C   0  0  0  0  0  2  0  0  0  0  0  0
  160.9720  204.8540  151.2470 C   0  0  0  0  0  3  0  0  0  0  0  0
  162.1460  206.9170  146.7180 C   0  0  0  0  0  2  0  0  0  0  0  0
  162.7870  211.7360  149.3380 N   0  0  1  0  0  0  0  0  0  0  0  0
  163.0110  211.4880  150.7680 C   0  0  0  0  0  2  0  0  0  0  0  0
  161.0250  206.2640  151.3890 C   0  0  0  0  0  0  0  0  0  0  0  0
  161.7930  208.5550  148.6850 N   0  0  0  0  0  0  0  0  0  0  0  0
  161.7150  204.5810  147.5690 O   0  0  0  0  0  0  0  0  0  0  0  0
  161.0300  209.1110  152.4460 C   0  0  2  0  0  3  0  0  0  0  0  0
  162.5160  204.8850  145.3160 C   0  0  0  0  0  1  0  0  0  0  0  0
  163.0880  210.6690  148.3640 C   0  0  0  0  0  2  0  0  0  0  0  0
  160.6610  212.6870  149.8070 O   0  0  0  0  0  1  0  0  0  0  0  0
  161.8820  209.8090  147.9390 C   0  0  2  0  0  3  0  0  0  0  0  0
  160.0250  208.1360  152.4330 O   0  0  0  0  0  0  0  0  0  0  0  0
  159.6730  211.2300  152.6000 C   0  0  0  0  0  3  0  0  0  0  0  0
  160.5630  210.3210  153.1910 C   0  0  0  0  0  0  0  0  0  0  0  0
  161.0390  210.5580  154.4850 C   0  0  0  0  0  3  0  0  0  0  0  0
  161.0880  211.9200  156.4400 F   0  0  0  0  0  0  0  0  0  0  0  0
  159.7360  212.5970  154.5970 C   0  0  0  0  0  3  0  0  0  0  0  0
  160.6260  211.6930  155.1880 C   0  0  0  0  0  0  0  0  0  0  0  0
  159.2610  212.3650  153.3030 C   0  0  0  0  0  3  0  0  0  0  0  0
  159.0280  212.8720  145.6150 C   0  0  0  0  0  1  0  0  0  0  0  0
  159.1720  212.2870  146.9360 N   0  0  0  0  0  2  0  0  0  0  0  0
  2 17  1  0  0  0  0
  2 22  1  0  0  0  0
  3 20  1  0  0  0  0
  4 37  1  1  0  0  0
  4 12  1  0  0  0  0
  4  1  1  0  0  0  0
  6  9  1  0  0  0  0
  6 11  2  0  0  0  0
  7  3  2  0  0  0  0
  7 10  1  0  0  0  0
  8 18  1  0  0  0  0
  8 26  1  1  0  0  0
  9  3  1  0  0  0  0
 10  5  1  1  0  0  0
 10 23  1  0  0  0  0
 11 16  1  0  0  0  0
 12  8  1  0  0  0  0
 13 21  1  0  0  0  0
 13  9  2  0  0  0  0
 14  2  1  0  0  0  0
 16 20  2  0  0  0  0
 17 13  1  0  0  0  0
 18 25  1  6  0  0  0
 18 19  1  0  0  0  0
 19  5  1  0  0  0  0
 20 15  1  0  0  0  0
 21  7  1  0  0  0  0
 22  6  1  0  0  0  0
 23 30  1  6  0  0  0
 24  2  1  0  0  0  0
 27  1  1  1  0  0  0
 27 25  1  0  0  0  0
 27 21  1  0  0  0  0
 28 23  1  0  0  0  0
 28 15  1  0  0  0  0
 29 30  2  0  0  0  0
 29 35  1  0  0  0  0
 30 31  1  0  0  0  0
 31 34  2  0  0  0  0
 33 34  1  0  0  0  0
 34 32  1  0  0  0  0
 35 33  2  0  0  0  0
 36 37  1  0  0  0  0
M  END
>  <MODEL>
4

>  <REMARK>
 VINA RESULT:      -0.6      2.887      7.412
  Name = 
  2 active torsions:
  status: ('A' for Active; 'I' for Inactive)
    1  A    between atoms: C_4  and  N_37
    2  A    between atoms: C_23  and  C_30
                            x       y       z     vdW  Elec       q    Type
                         _______ _______ _______ _____ _____    ______ ____

>  <TORSDO>
F 2

$$$$
