=
 OpenBabel11122413233D

 31 35  0  0  1  0  0  0  0  0999 V2000
  160.7710  206.2380  146.4380 C   0  0  0  0  0  0  0  0  0  0  0  0
  160.1230  205.0890  149.9540 C   0  0  2  0  0  3  0  0  0  0  0  0
  160.6690  203.6810  149.7590 C   0  0  0  0  0  0  0  0  0  0  0  0
  161.4470  201.8540  148.3550 C   0  0  0  0  0  0  0  0  0  0  0  0
  160.5620  206.1340  148.9150 C   0  0  2  0  0  3  0  0  0  0  0  0
  162.1370  206.8710  146.5450 C   0  0  0  0  0  2  0  0  0  0  0  0
  161.0310  203.1810  148.4990 C   0  0  0  0  0  3  0  0  0  0  0  0
  161.9750  205.9730  151.4660 C   0  0  2  0  0  3  0  0  0  0  0  0
  160.2490  205.9830  145.1780 O   0  0  0  0  0  1  0  0  0  0  0  0
  160.2930  203.3230  152.1880 C   0  0  0  0  0  3  0  0  0  0  0  0
  161.8180  201.3760  147.1060 O   0  0  0  0  0  1  0  0  0  0  0  0
  162.3730  206.9800  150.3820 C   0  0  0  0  0  2  0  0  0  0  0  0
  160.4820  205.6050  151.3690 C   0  0  2  0  0  3  0  0  0  0  0  0
  160.0800  205.8560  147.5170 C   0  0  0  0  0  3  0  0  0  0  0  0
  161.4810  201.0070  149.4650 C   0  0  0  0  0  3  0  0  0  0  0  0
  162.0610  206.4240  149.0000 C   0  0  2  0  0  3  0  0  0  0  0  0
  162.4240  207.4470  147.9330 C   0  0  0  0  0  2  0  0  0  0  0  0
  160.1510  204.6010  152.3890 N   0  0  0  0  0  0  0  0  0  0  0  0
  160.7010  202.8170  150.8710 C   0  0  0  0  0  0  0  0  0  0  0  0
  161.1030  201.4870  150.7230 C   0  0  0  0  0  3  0  0  0  0  0  0
  160.5100  208.0810  152.7230 O   0  0  0  0  0  0  0  0  0  0  0  0
  161.4770  207.5820  153.3590 C   0  0  0  0  0  0  0  0  0  0  0  0
  162.2590  206.5330  152.7800 N   0  0  0  0  0  2  0  0  0  0  0  0
  159.7230  209.7110  155.8170 C   0  0  1  0  0  3  0  0  0  0  0  0
  160.8950  207.5060  155.7900 C   0  0  0  0  0  2  0  0  0  0  0  0
  162.6530  210.3220  153.7980 C   0  0  0  0  0  1  0  0  0  0  0  0
  158.3700  210.3900  155.8470 C   0  0  0  0  0  1  0  0  0  0  0  0
  159.5290  208.1940  155.8130 C   0  0  0  0  0  2  0  0  0  0  0  0
  161.7440  209.6540  154.8140 C   0  0  2  0  0  3  0  0  0  0  0  0
  161.8080  208.1160  154.7220 C   0  0  2  0  0  3  0  0  0  0  0  0
  160.4210  210.1110  154.6630 O   0  0  0  0  0  0  0  0  0  0  0  0
  1  6  1  0  0  0  0
  1 14  2  0  0  0  0
  2  3  1  6  0  0  0
  2 13  1  0  0  0  0
  3 19  1  0  0  0  0
  4  7  1  0  0  0  0
  4 15  2  0  0  0  0
  5 14  1  6  0  0  0
  5 16  1  0  0  0  0
  5  2  1  0  0  0  0
  6 17  1  0  0  0  0
  7  3  2  0  0  0  0
  8 23  1  1  0  0  0
  9  1  1  0  0  0  0
 10 18  2  0  0  0  0
 11  4  1  0  0  0  0
 12  8  1  0  0  0  0
 13  8  1  0  0  0  0
 13 18  1  1  0  0  0
 15 20  1  0  0  0  0
 16 17  1  6  0  0  0
 16 12  1  0  0  0  0
 19 10  1  0  0  0  0
 20 19  2  0  0  0  0
 21 22  2  0  0  0  0
 23 22  1  0  0  0  0
 24 27  1  6  0  0  0
 25 28  1  0  0  0  0
 28 24  1  0  0  0  0
 29 26  1  6  0  0  0
 30 22  1  6  0  0  0
 30 29  1  0  0  0  0
 30 25  1  0  0  0  0
 31 29  1  0  0  0  0
 31 24  1  0  0  0  0
M  END
>  <MODEL>
1

>  <REMARK>
 VINA RESULT:      -6.1      0.000      0.000
  Name = 
  2 active torsions:
  status: ('A' for Active; 'I' for Inactive)
    1  A    between atoms: C_5  and  C_30
    2  A    between atoms: C_10  and  N_16
                            x       y       z     vdW  Elec       q    Type
                         _______ _______ _______ _____ _____    ______ ____

>  <TORSDO>
F 2

$$$$
=
 OpenBabel11122413233D

 31 35  0  0  1  0  0  0  0  0999 V2000
  161.2240  208.6590  156.3240 C   0  0  0  0  0  0  0  0  0  0  0  0
  161.9970  209.7290  152.8090 C   0  0  2  0  0  3  0  0  0  0  0  0
  161.6080  208.4090  152.1570 C   0  0  0  0  0  0  0  0  0  0  0  0
  161.0300  206.0500  152.2620 C   0  0  0  0  0  0  0  0  0  0  0  0
  161.4470  209.9730  154.2240 C   0  0  2  0  0  3  0  0  0  0  0  0
  159.7980  209.1190  156.5020 C   0  0  0  0  0  2  0  0  0  0  0  0
  161.2990  207.2620  152.9030 C   0  0  0  0  0  3  0  0  0  0  0  0
  160.0630  211.1370  151.9290 C   0  0  2  0  0  3  0  0  0  0  0  0
  161.7690  207.7920  157.2610 O   0  0  0  0  0  1  0  0  0  0  0  0
  162.0240  209.5020  149.9650 C   0  0  0  0  0  3  0  0  0  0  0  0
  160.7110  204.9250  153.0100 O   0  0  0  0  0  1  0  0  0  0  0  0
  159.5570  211.3280  153.3620 C   0  0  0  0  0  2  0  0  0  0  0  0
  161.5880  210.9120  151.8980 C   0  0  2  0  0  3  0  0  0  0  0  0
  161.9540  209.0070  155.2590 C   0  0  0  0  0  3  0  0  0  0  0  0
  161.0890  205.9670  150.8690 C   0  0  0  0  0  3  0  0  0  0  0  0
  159.9250  210.1260  154.2210 C   0  0  2  0  0  3  0  0  0  0  0  0
  159.4520  210.3430  155.6510 C   0  0  0  0  0  2  0  0  0  0  0  0
  162.0270  210.6810  150.5160 N   0  0  0  0  0  0  0  0  0  0  0  0
  161.6710  208.3130  150.7530 C   0  0  0  0  0  0  0  0  0  0  0  0
  161.4140  207.0970  150.1140 C   0  0  0  0  0  3  0  0  0  0  0  0
  157.7530  212.7790  152.2950 O   0  0  0  0  0  0  0  0  0  0  0  0
  158.5540  213.0960  151.3750 C   0  0  0  0  0  0  0  0  0  0  0  0
  159.7230  212.3060  151.1320 N   0  0  0  0  0  2  0  0  0  0  0  0
  157.6520  213.6220  147.8310 C   0  0  1  0  0  3  0  0  0  0  0  0
  156.7940  214.3050  150.0740 C   0  0  0  0  0  2  0  0  0  0  0  0
  160.6420  214.4520  149.6770 C   0  0  0  0  0  1  0  0  0  0  0  0
  157.4300  212.6970  146.6520 C   0  0  0  0  0  1  0  0  0  0  0  0
  156.5750  213.3670  148.8850 C   0  0  0  0  0  2  0  0  0  0  0  0
  159.1730  214.4230  149.2930 C   0  0  2  0  0  3  0  0  0  0  0  0
  158.2570  214.2980  150.5270 C   0  0  2  0  0  3  0  0  0  0  0  0
  158.9270  213.3830  148.3770 O   0  0  0  0  0  0  0  0  0  0  0  0
  1  6  1  0  0  0  0
  1  9  1  0  0  0  0
  2  3  1  6  0  0  0
  2  5  1  0  0  0  0
  3  7  1  0  0  0  0
  4  7  2  0  0  0  0
  4 11  1  0  0  0  0
  5 14  1  1  0  0  0
  8 23  1  6  0  0  0
  8 12  1  0  0  0  0
 10 18  2  0  0  0  0
 10 19  1  0  0  0  0
 13 18  1  6  0  0  0
 13  8  1  0  0  0  0
 13  2  1  0  0  0  0
 14  1  2  0  0  0  0
 15  4  1  0  0  0  0
 16 12  1  6  0  0  0
 16  5  1  0  0  0  0
 16 17  1  0  0  0  0
 17  6  1  0  0  0  0
 19  3  2  0  0  0  0
 20 19  1  0  0  0  0
 20 15  2  0  0  0  0
 22 21  2  0  0  0  0
 23 22  1  0  0  0  0
 24 27  1  6  0  0  0
 24 31  1  0  0  0  0
 24 28  1  0  0  0  0
 25 30  1  0  0  0  0
 28 25  1  0  0  0  0
 29 26  1  1  0  0  0
 29 30  1  0  0  0  0
 30 22  1  6  0  0  0
 31 29  1  0  0  0  0
M  END
>  <MODEL>
2

>  <REMARK>
 VINA RESULT:      -6.0      4.362      7.508
  Name = 
  2 active torsions:
  status: ('A' for Active; 'I' for Inactive)
    1  A    between atoms: C_5  and  C_30
    2  A    between atoms: C_10  and  N_16
                            x       y       z     vdW  Elec       q    Type
                         _______ _______ _______ _____ _____    ______ ____

>  <TORSDO>
F 2

$$$$
=
 OpenBabel11122413233D

 31 35  0  0  1  0  0  0  0  0999 V2000
  161.4000  208.4940  138.0910 C   0  0  0  0  0  0  0  0  0  0  0  0
  160.0240  211.9000  138.8720 C   0  0  2  0  0  3  0  0  0  0  0  0
  158.5660  211.4650  138.9400 C   0  0  0  0  0  0  0  0  0  0  0  0
  156.7860  209.8510  138.5670 C   0  0  0  0  0  0  0  0  0  0  0  0
  161.0700  210.7820  139.0110 C   0  0  2  0  0  3  0  0  0  0  0  0
  161.7390  207.9540  139.4580 C   0  0  0  0  0  2  0  0  0  0  0  0
  158.1450  210.1790  138.5700 C   0  0  0  0  0  3  0  0  0  0  0  0
  160.3610  212.3770  141.3530 C   0  0  2  0  0  3  0  0  0  0  0  0
  161.3890  207.6220  137.0110 O   0  0  0  0  0  1  0  0  0  0  0  0
  158.0270  213.7870  139.6390 C   0  0  0  0  0  3  0  0  0  0  0  0
  156.3830  208.5710  138.2130 O   0  0  0  0  0  1  0  0  0  0  0  0
  161.3830  211.2390  141.4280 C   0  0  0  0  0  2  0  0  0  0  0  0
  160.3030  212.9870  139.9390 C   0  0  2  0  0  3  0  0  0  0  0  0
  161.0440  209.7690  137.8990 C   0  0  0  0  0  3  0  0  0  0  0  0
  155.8340  210.8120  138.9120 C   0  0  0  0  0  3  0  0  0  0  0  0
  161.0520  210.1590  140.4080 C   0  0  2  0  0  3  0  0  0  0  0  0
  162.0940  209.0520  140.4650 C   0  0  0  0  0  2  0  0  0  0  0  0
  159.2790  214.0370  139.8920 N   0  0  0  0  0  0  0  0  0  0  0  0
  157.5970  212.4290  139.2800 C   0  0  0  0  0  0  0  0  0  0  0  0
  156.2380  212.1030  139.2640 C   0  0  0  0  0  3  0  0  0  0  0  0
  159.9060  212.2350  144.1710 O   0  0  0  0  0  0  0  0  0  0  0  0
  160.4650  213.2710  143.7220 C   0  0  0  0  0  0  0  0  0  0  0  0
  160.7090  213.4090  142.3190 N   0  0  0  0  0  2  0  0  0  0  0  0
  161.6480  213.3750  147.2210 C   0  0  1  0  0  3  0  0  0  0  0  0
  162.3470  214.2990  145.0090 C   0  0  0  0  0  2  0  0  0  0  0  0
  158.5460  214.4530  145.7210 C   0  0  0  0  0  1  0  0  0  0  0  0
  161.9390  212.3180  148.2660 C   0  0  0  0  0  1  0  0  0  0  0  0
  162.6350  213.2270  146.0630 C   0  0  0  0  0  2  0  0  0  0  0  0
  160.0380  214.3600  145.9830 C   0  0  2  0  0  3  0  0  0  0  0  0
  160.8540  214.3640  144.6750 C   0  0  2  0  0  3  0  0  0  0  0  0
  160.3300  213.2180  146.7530 O   0  0  0  0  0  0  0  0  0  0  0  0
  1  6  1  0  0  0  0
  2  3  1  1  0  0  0
  2  5  1  0  0  0  0
  2 13  1  0  0  0  0
  3 19  1  0  0  0  0
  4  7  1  0  0  0  0
  4 15  2  0  0  0  0
  5 14  1  6  0  0  0
  5 16  1  0  0  0  0
  6 17  1  0  0  0  0
  7  3  2  0  0  0  0
  8 12  1  0  0  0  0
  8 23  1  1  0  0  0
  9  1  1  0  0  0  0
 10 18  2  0  0  0  0
 11  4  1  0  0  0  0
 13 18  1  1  0  0  0
 13  8  1  0  0  0  0
 14  1  2  0  0  0  0
 15 20  1  0  0  0  0
 16 17  1  6  0  0  0
 16 12  1  0  0  0  0
 19 10  1  0  0  0  0
 20 19  2  0  0  0  0
 22 21  2  0  0  0  0
 23 22  1  0  0  0  0
 24 27  1  1  0  0  0
 25 28  1  0  0  0  0
 28 24  1  0  0  0  0
 29 26  1  6  0  0  0
 29 31  1  0  0  0  0
 30 22  1  6  0  0  0
 30 25  1  0  0  0  0
 30 29  1  0  0  0  0
 31 24  1  0  0  0  0
M  END
>  <MODEL>
3

>  <REMARK>
 VINA RESULT:      -5.8      8.716     11.867
  Name = 
  2 active torsions:
  status: ('A' for Active; 'I' for Inactive)
    1  A    between atoms: C_5  and  C_30
    2  A    between atoms: C_10  and  N_16
                            x       y       z     vdW  Elec       q    Type
                         _______ _______ _______ _____ _____    ______ ____

>  <TORSDO>
F 2

$$$$
=
 OpenBabel11122413233D

 31 35  0  0  1  0  0  0  0  0999 V2000
  160.9420  204.2110  145.1420 C   0  0  0  0  0  0  0  0  0  0  0  0
  160.3650  205.1970  148.7200 C   0  0  2  0  0  3  0  0  0  0  0  0
  160.8320  203.8780  149.3200 C   0  0  0  0  0  0  0  0  0  0  0  0
  161.4660  201.5380  149.1340 C   0  0  0  0  0  0  0  0  0  0  0  0
  160.8170  205.4810  147.2780 C   0  0  2  0  0  3  0  0  0  0  0  0
  162.3400  204.7150  144.8830 C   0  0  0  0  0  2  0  0  0  0  0  0
  161.1230  202.7540  148.5340 C   0  0  0  0  0  3  0  0  0  0  0  0
  162.3120  206.6440  149.5020 C   0  0  2  0  0  3  0  0  0  0  0  0
  160.3620  203.3450  144.2260 O   0  0  0  0  0  1  0  0  0  0  0  0
  160.5260  204.9210  151.5540 C   0  0  0  0  0  3  0  0  0  0  0  0
  161.7670  200.4370  148.3450 O   0  0  0  0  0  1  0  0  0  0  0  0
  162.7200  206.8750  148.0430 C   0  0  0  0  0  2  0  0  0  0  0  0
  160.8000  206.3760  149.6250 C   0  0  2  0  0  3  0  0  0  0  0  0
  160.2720  204.5190  146.2580 C   0  0  0  0  0  3  0  0  0  0  0  0
  161.4980  201.4300  150.5260 C   0  0  0  0  0  3  0  0  0  0  0  0
  162.3310  205.6780  147.1860 C   0  0  2  0  0  3  0  0  0  0  0  0
  162.7060  205.9330  145.7340 C   0  0  0  0  0  2  0  0  0  0  0  0
  160.4560  206.1080  151.0280 N   0  0  0  0  0  0  0  0  0  0  0  0
  160.8610  203.7560  150.7230 C   0  0  0  0  0  0  0  0  0  0  0  0
  161.1910  202.5370  151.3220 C   0  0  0  0  0  3  0  0  0  0  0  0
  161.5700  209.3430  148.9220 O   0  0  0  0  0  0  0  0  0  0  0  0
  162.2560  209.1360  149.9600 C   0  0  0  0  0  0  0  0  0  0  0  0
  162.6710  207.8090  150.2980 N   0  0  0  0  0  2  0  0  0  0  0  0
  160.4560  211.3650  152.2920 C   0  0  1  0  0  3  0  0  0  0  0  0
  162.5150  209.9530  152.3090 C   0  0  0  0  0  2  0  0  0  0  0  0
  161.9570  212.0000  149.0710 C   0  0  0  0  0  1  0  0  0  0  0  0
  159.0190  211.4600  152.7610 C   0  0  0  0  0  1  0  0  0  0  0  0
  161.0610  210.0470  152.7760 C   0  0  0  0  0  2  0  0  0  0  0  0
  161.8440  211.5830  150.5260 C   0  0  2  0  0  3  0  0  0  0  0  0
  162.6460  210.3000  150.8230 C   0  0  2  0  0  3  0  0  0  0  0  0
  160.4930  211.4260  150.8870 O   0  0  0  0  0  0  0  0  0  0  0  0
  1 14  2  0  0  0  0
  2  3  1  1  0  0  0
  2 13  1  0  0  0  0
  3 19  1  0  0  0  0
  4 15  2  0  0  0  0
  5 14  1  6  0  0  0
  5  2  1  0  0  0  0
  6  1  1  0  0  0  0
  6 17  1  0  0  0  0
  7  4  1  0  0  0  0
  7  3  2  0  0  0  0
  8 13  1  0  0  0  0
  8 23  1  1  0  0  0
  9  1  1  0  0  0  0
 11  4  1  0  0  0  0
 12  8  1  0  0  0  0
 13 18  1  1  0  0  0
 15 20  1  0  0  0  0
 16 17  1  6  0  0  0
 16  5  1  0  0  0  0
 16 12  1  0  0  0  0
 18 10  2  0  0  0  0
 19 20  2  0  0  0  0
 19 10  1  0  0  0  0
 21 22  2  0  0  0  0
 22 23  1  0  0  0  0
 24 27  1  6  0  0  0
 24 28  1  0  0  0  0
 25 28  1  0  0  0  0
 29 26  1  6  0  0  0
 29 30  1  0  0  0  0
 29 31  1  0  0  0  0
 30 22  1  6  0  0  0
 30 25  1  0  0  0  0
 31 24  1  0  0  0  0
M  END
>  <MODEL>
4

>  <REMARK>
 VINA RESULT:      -5.6      2.232      2.870
  Name = 
  2 active torsions:
  status: ('A' for Active; 'I' for Inactive)
    1  A    between atoms: C_5  and  C_30
    2  A    between atoms: C_10  and  N_16
                            x       y       z     vdW  Elec       q    Type
                         _______ _______ _______ _____ _____    ______ ____

>  <TORSDO>
F 2

$$$$
=
 OpenBabel11122413233D

 31 35  0  0  1  0  0  0  0  0999 V2000
  161.0380  203.8530  145.6540 C   0  0  0  0  0  0  0  0  0  0  0  0
  160.4060  205.9040  148.7350 C   0  0  2  0  0  3  0  0  0  0  0  0
  160.8870  204.8510  149.7230 C   0  0  0  0  0  0  0  0  0  0  0  0
  161.5630  202.5840  150.2870 C   0  0  0  0  0  0  0  0  0  0  0  0
  160.8690  205.7280  147.2790 C   0  0  2  0  0  3  0  0  0  0  0  0
  162.4300  204.2760  145.2570 C   0  0  0  0  0  2  0  0  0  0  0  0
  161.2060  203.5420  149.3330 C   0  0  0  0  0  3  0  0  0  0  0  0
  162.3200  207.5610  149.0310 C   0  0  2  0  0  3  0  0  0  0  0  0
  160.4820  202.7310  145.0540 O   0  0  0  0  0  1  0  0  0  0  0  0
  160.5400  206.5380  151.5130 C   0  0  0  0  0  3  0  0  0  0  0  0
  161.8910  201.2960  149.8880 O   0  0  0  0  0  1  0  0  0  0  0  0
  162.7400  207.3280  147.5760 C   0  0  0  0  0  2  0  0  0  0  0  0
  160.8110  207.3160  149.2250 C   0  0  2  0  0  3  0  0  0  0  0  0
  160.3510  204.4830  146.6120 C   0  0  0  0  0  3  0  0  0  0  0  0
  161.5810  202.9200  151.6430 C   0  0  0  0  0  3  0  0  0  0  0  0
  162.3800  205.9150  147.1390 C   0  0  2  0  0  3  0  0  0  0  0  0
  162.7670  205.7070  145.6820 C   0  0  0  0  0  2  0  0  0  0  0  0
  160.4560  207.4980  150.6390 N   0  0  0  0  0  0  0  0  0  0  0  0
  160.9030  205.1780  151.0930 C   0  0  0  0  0  0  0  0  0  0  0  0
  161.2470  204.2160  152.0470 C   0  0  0  0  0  3  0  0  0  0  0  0
  161.2060  209.9310  147.8860 O   0  0  0  0  0  0  0  0  0  0  0  0
  162.0460  210.0710  148.8160 C   0  0  0  0  0  0  0  0  0  0  0  0
  162.6500  208.9240  149.4210 N   0  0  0  0  0  2  0  0  0  0  0  0
  161.1210  213.4870  147.7540 C   0  0  1  0  0  3  0  0  0  0  0  0
  161.2140  212.1770  149.8780 C   0  0  0  0  0  2  0  0  0  0  0  0
  164.2360  211.6780  147.5110 C   0  0  0  0  0  1  0  0  0  0  0  0
  160.2040  214.0470  146.6870 C   0  0  0  0  0  1  0  0  0  0  0  0
  160.2890  212.7370  148.7950 C   0  0  0  0  0  2  0  0  0  0  0  0
  163.0170  212.3260  148.1430 C   0  0  2  0  0  3  0  0  0  0  0  0
  162.4170  211.4550  149.2640 C   0  0  2  0  0  3  0  0  0  0  0  0
  162.0510  212.6150  147.1600 O   0  0  0  0  0  0  0  0  0  0  0  0
  1 14  2  0  0  0  0
  2 13  1  0  0  0  0
  2  3  1  1  0  0  0
  3 19  1  0  0  0  0
  4 15  2  0  0  0  0
  5 14  1  1  0  0  0
  5  2  1  0  0  0  0
  6  1  1  0  0  0  0
  6 17  1  0  0  0  0
  7  3  2  0  0  0  0
  7  4  1  0  0  0  0
  8 13  1  0  0  0  0
  8 23  1  6  0  0  0
  9  1  1  0  0  0  0
 11  4  1  0  0  0  0
 12  8  1  0  0  0  0
 13 18  1  1  0  0  0
 15 20  1  0  0  0  0
 16 17  1  6  0  0  0
 16  5  1  0  0  0  0
 16 12  1  0  0  0  0
 18 10  2  0  0  0  0
 19 10  1  0  0  0  0
 19 20  2  0  0  0  0
 21 22  2  0  0  0  0
 22 23  1  0  0  0  0
 24 27  1  6  0  0  0
 24 28  1  0  0  0  0
 28 25  1  0  0  0  0
 29 26  1  6  0  0  0
 29 30  1  0  0  0  0
 30 22  1  6  0  0  0
 30 25  1  0  0  0  0
 31 24  1  0  0  0  0
 31 29  1  0  0  0  0
M  END
>  <MODEL>
5

>  <REMARK>
 VINA RESULT:      -5.3      3.416      4.800
  Name = 
  2 active torsions:
  status: ('A' for Active; 'I' for Inactive)
    1  A    between atoms: C_5  and  C_30
    2  A    between atoms: C_10  and  N_16
                            x       y       z     vdW  Elec       q    Type
                         _______ _______ _______ _____ _____    ______ ____

>  <TORSDO>
F 2

$$$$
=
 OpenBabel11122413233D

 31 35  0  0  1  0  0  0  0  0999 V2000
  162.0440  203.5130  151.9890 C   0  0  0  0  0  0  0  0  0  0  0  0
  162.5310  207.0500  150.8260 C   0  0  2  0  0  3  0  0  0  0  0  0
  161.8730  206.8580  149.4670 C   0  0  0  0  0  0  0  0  0  0  0  0
  160.9690  205.4570  147.6970 C   0  0  0  0  0  0  0  0  0  0  0  0
  162.2010  205.9940  151.8940 C   0  0  2  0  0  3  0  0  0  0  0  0
  160.7350  203.5890  152.7350 C   0  0  0  0  0  2  0  0  0  0  0  0
  161.4920  205.5960  148.9860 C   0  0  0  0  0  3  0  0  0  0  0  0
  160.7340  208.5200  151.8790 C   0  0  2  0  0  3  0  0  0  0  0  0
  162.5650  202.2650  151.6770 O   0  0  0  0  0  1  0  0  0  0  0  0
  162.1750  209.2970  149.1050 C   0  0  0  0  0  3  0  0  0  0  0  0
  160.5810  204.2060  147.2380 O   0  0  0  0  0  1  0  0  0  0  0  0
  160.4420  207.4200  152.9040 C   0  0  0  0  0  2  0  0  0  0  0  0
  162.1930  208.4540  151.3860 C   0  0  2  0  0  3  0  0  0  0  0  0
  162.6820  204.6080  151.5610 C   0  0  0  0  0  3  0  0  0  0  0  0
  160.8450  206.5740  146.8680 C   0  0  0  0  0  3  0  0  0  0  0  0
  160.7300  206.0490  152.3090 C   0  0  2  0  0  3  0  0  0  0  0  0
  160.4720  204.9670  153.3470 C   0  0  0  0  0  2  0  0  0  0  0  0
  162.4200  209.4880  150.3690 N   0  0  0  0  0  0  0  0  0  0  0  0
  161.7490  207.9770  148.6200 C   0  0  0  0  0  0  0  0  0  0  0  0
  161.2390  207.8340  147.3270 C   0  0  0  0  0  3  0  0  0  0  0  0
  161.5460  209.3390  154.4940 O   0  0  0  0  0  0  0  0  0  0  0  0
  160.9210  210.1760  153.7880 C   0  0  0  0  0  0  0  0  0  0  0  0
  160.4750  209.8230  152.4740 N   0  0  0  0  0  2  0  0  0  0  0  0
  157.8980  211.8910  155.0410 C   0  0  1  0  0  3  0  0  0  0  0  0
  160.2290  211.4540  155.8230 C   0  0  0  0  0  2  0  0  0  0  0  0
  159.9120  212.4580  152.0980 C   0  0  0  0  0  1  0  0  0  0  0  0
  156.4470  211.4890  155.1970 C   0  0  0  0  0  1  0  0  0  0  0  0
  158.7630  211.0430  155.9740 C   0  0  0  0  0  2  0  0  0  0  0  0
  159.5540  212.3120  153.5670 C   0  0  2  0  0  3  0  0  0  0  0  0
  160.6350  211.5390  154.3490 C   0  0  2  0  0  3  0  0  0  0  0  0
  158.2960  211.6970  153.7050 O   0  0  0  0  0  0  0  0  0  0  0  0
  1  6  1  0  0  0  0
  2  3  1  6  0  0  0
  2 13  1  0  0  0  0
  2  5  1  0  0  0  0
  4  7  2  0  0  0  0
  5 14  1  6  0  0  0
  5 16  1  0  0  0  0
  6 17  1  0  0  0  0
  7  3  1  0  0  0  0
  8 23  1  1  0  0  0
  8 12  1  0  0  0  0
  9  1  1  0  0  0  0
 10 18  2  0  0  0  0
 11  4  1  0  0  0  0
 13 18  1  6  0  0  0
 13  8  1  0  0  0  0
 14  1  2  0  0  0  0
 15 20  2  0  0  0  0
 15  4  1  0  0  0  0
 16 12  1  1  0  0  0
 16 17  1  0  0  0  0
 19 10  1  0  0  0  0
 19  3  2  0  0  0  0
 20 19  1  0  0  0  0
 22 21  2  0  0  0  0
 23 22  1  0  0  0  0
 24 27  1  6  0  0  0
 24 28  1  0  0  0  0
 25 28  1  0  0  0  0
 29 26  1  6  0  0  0
 29 31  1  0  0  0  0
 29 30  1  0  0  0  0
 30 22  1  6  0  0  0
 30 25  1  0  0  0  0
 31 24  1  0  0  0  0
M  END
>  <MODEL>
6

>  <REMARK>
 VINA RESULT:      -4.9      2.254      4.550
  Name = 
  2 active torsions:
  status: ('A' for Active; 'I' for Inactive)
    1  A    between atoms: C_5  and  C_30
    2  A    between atoms: C_10  and  N_16
                            x       y       z     vdW  Elec       q    Type
                         _______ _______ _______ _____ _____    ______ ____

>  <TORSDO>
F 2

$$$$
=
 OpenBabel11122413233D

 31 35  0  0  1  0  0  0  0  0999 V2000
  161.7680  213.7630  147.8160 C   0  0  0  0  0  0  0  0  0  0  0  0
  159.5430  214.3620  150.7820 C   0  0  2  0  0  3  0  0  0  0  0  0
  158.2320  214.2220  150.0220 C   0  0  0  0  0  0  0  0  0  0  0  0
  156.9480  214.0760  147.9620 C   0  0  0  0  0  0  0  0  0  0  0  0
  160.7870  213.7650  150.1020 C   0  0  2  0  0  3  0  0  0  0  0  0
  162.0150  212.2770  147.8850 C   0  0  0  0  0  2  0  0  0  0  0  0
  158.1780  214.1180  148.6240 C   0  0  0  0  0  3  0  0  0  0  0  0
  159.3880  212.2140  152.1450 C   0  0  2  0  0  3  0  0  0  0  0  0
  162.1190  214.4480  146.6610 O   0  0  0  0  0  1  0  0  0  0  0  0
  157.0740  214.4530  152.2080 C   0  0  0  0  0  3  0  0  0  0  0  0
  156.9080  213.9580  146.5800 O   0  0  0  0  0  1  0  0  0  0  0  0
  160.6220  211.6700  151.4190 C   0  0  0  0  0  2  0  0  0  0  0  0
  159.4030  213.7550  152.1990 C   0  0  2  0  0  3  0  0  0  0  0  0
  161.1610  214.4290  148.8050 C   0  0  0  0  0  3  0  0  0  0  0  0
  155.7590  214.1610  148.6900 C   0  0  0  0  0  3  0  0  0  0  0  0
  160.7050  212.2410  150.0100 C   0  0  2  0  0  3  0  0  0  0  0  0
  161.9540  211.7240  149.3110 C   0  0  0  0  0  2  0  0  0  0  0  0
  158.1820  214.2400  152.8550 N   0  0  0  0  0  0  0  0  0  0  0  0
  157.0270  214.3130  150.7460 C   0  0  0  0  0  0  0  0  0  0  0  0
  155.7970  214.2840  150.0820 C   0  0  0  0  0  3  0  0  0  0  0  0
  160.1150  209.5540  152.8980 O   0  0  0  0  0  0  0  0  0  0  0  0
  159.7320  210.3350  153.8110 C   0  0  0  0  0  0  0  0  0  0  0  0
  159.3420  211.6760  153.4970 N   0  0  0  0  0  2  0  0  0  0  0  0
  162.0560  210.3740  156.6830 C   0  0  1  0  0  3  0  0  0  0  0  0
  159.6820  210.9990  156.2220 C   0  0  0  0  0  2  0  0  0  0  0  0
  160.8340  207.6570  154.6430 C   0  0  0  0  0  1  0  0  0  0  0  0
  163.4550  210.9110  156.8990 C   0  0  0  0  0  1  0  0  0  0  0  0
  161.0980  211.5390  156.4330 C   0  0  0  0  0  2  0  0  0  0  0  0
  160.8070  208.8530  155.5780 C   0  0  2  0  0  3  0  0  0  0  0  0
  159.6730  209.8360  155.2250 C   0  0  2  0  0  3  0  0  0  0  0  0
  162.0550  209.5030  155.5770 O   0  0  0  0  0  0  0  0  0  0  0  0
  1  6  1  0  0  0  0
  1 14  2  0  0  0  0
  2  3  1  6  0  0  0
  2 13  1  0  0  0  0
  3 19  1  0  0  0  0
  4  7  1  0  0  0  0
  4 15  2  0  0  0  0
  5 14  1  6  0  0  0
  5  2  1  0  0  0  0
  6 17  1  0  0  0  0
  7  3  2  0  0  0  0
  8 13  1  0  0  0  0
  8 23  1  1  0  0  0
  9  1  1  0  0  0  0
 10 18  2  0  0  0  0
 11  4  1  0  0  0  0
 12  8  1  0  0  0  0
 13 18  1  6  0  0  0
 15 20  1  0  0  0  0
 16 17  1  1  0  0  0
 16  5  1  0  0  0  0
 16 12  1  0  0  0  0
 19 10  1  0  0  0  0
 20 19  2  0  0  0  0
 21 22  2  0  0  0  0
 23 22  1  0  0  0  0
 24 27  1  6  0  0  0
 25 28  1  0  0  0  0
 28 24  1  0  0  0  0
 29 26  1  6  0  0  0
 30 22  1  6  0  0  0
 30 29  1  0  0  0  0
 30 25  1  0  0  0  0
 31 29  1  0  0  0  0
 31 24  1  0  0  0  0
M  END
>  <MODEL>
7

>  <REMARK>
 VINA RESULT:      -4.8      5.546      8.224
  Name = 
  2 active torsions:
  status: ('A' for Active; 'I' for Inactive)
    1  A    between atoms: C_5  and  C_30
    2  A    between atoms: C_10  and  N_16
                            x       y       z     vdW  Elec       q    Type
                         _______ _______ _______ _____ _____    ______ ____

>  <TORSDO>
F 2

$$$$
=
 OpenBabel11122413233D

 31 35  0  0  1  0  0  0  0  0999 V2000
  162.1270  212.8800  147.6430 C   0  0  0  0  0  0  0  0  0  0  0  0
  159.7580  214.1040  150.2870 C   0  0  2  0  0  3  0  0  0  0  0  0
  158.4850  213.7380  149.5350 C   0  0  0  0  0  0  0  0  0  0  0  0
  157.2990  213.0540  147.5250 C   0  0  0  0  0  0  0  0  0  0  0  0
  161.0440  213.4020  149.8210 C   0  0  2  0  0  3  0  0  0  0  0  0
  162.4070  211.4630  148.0810 C   0  0  0  0  0  2  0  0  0  0  0  0
  158.4980  213.2970  148.2030 C   0  0  0  0  0  3  0  0  0  0  0  0
  159.5930  212.3460  152.1260 C   0  0  2  0  0  3  0  0  0  0  0  0
  162.5140  213.2750  146.3700 O   0  0  0  0  0  1  0  0  0  0  0  0
  157.2250  214.4530  151.5530 C   0  0  0  0  0  3  0  0  0  0  0  0
  157.3240  212.6030  146.2130 O   0  0  0  0  0  1  0  0  0  0  0  0
  160.8710  211.6840  151.6010 C   0  0  0  0  0  2  0  0  0  0  0  0
  159.5680  213.8530  151.8030 C   0  0  2  0  0  3  0  0  0  0  0  0
  161.4600  213.7440  148.4160 C   0  0  0  0  0  3  0  0  0  0  0  0
  156.0770  213.2730  148.1650 C   0  0  0  0  0  3  0  0  0  0  0  0
  161.0030  211.8990  150.0990 C   0  0  2  0  0  3  0  0  0  0  0  0
  162.2940  211.2710  149.5960 C   0  0  0  0  0  2  0  0  0  0  0  0
  158.3080  214.4410  152.2750 N   0  0  0  0  0  0  0  0  0  0  0  0
  157.2470  213.9610  150.1680 C   0  0  0  0  0  0  0  0  0  0  0  0
  156.0500  213.7310  149.4850 C   0  0  0  0  0  3  0  0  0  0  0  0
  157.2370  211.5630  153.5420 O   0  0  0  0  0  0  0  0  0  0  0  0
  158.2890  211.7450  154.2140 C   0  0  0  0  0  0  0  0  0  0  0  0
  159.4980  212.1500  153.5650 N   0  0  0  0  0  2  0  0  0  0  0  0
  156.1960  213.0610  156.9590 C   0  0  1  0  0  3  0  0  0  0  0  0
  156.9650  210.8350  156.1310 C   0  0  0  0  0  2  0  0  0  0  0  0
  159.6710  213.6030  156.1410 C   0  0  0  0  0  1  0  0  0  0  0  0
  155.0240  214.0180  157.0250 C   0  0  0  0  0  1  0  0  0  0  0  0
  155.7840  211.8050  156.1910 C   0  0  0  0  0  2  0  0  0  0  0  0
  158.3970  212.8590  156.4990 C   0  0  2  0  0  3  0  0  0  0  0  0
  158.2510  211.5480  155.7010 C   0  0  2  0  0  3  0  0  0  0  0  0
  157.2760  213.6900  156.3110 O   0  0  0  0  0  0  0  0  0  0  0  0
  1  6  1  0  0  0  0
  1 14  2  0  0  0  0
  2  3  1  6  0  0  0
  2 13  1  0  0  0  0
  3 19  1  0  0  0  0
  4 15  2  0  0  0  0
  4  7  1  0  0  0  0
  5 14  1  6  0  0  0
  5 16  1  0  0  0  0
  5  2  1  0  0  0  0
  6 17  1  0  0  0  0
  7  3  2  0  0  0  0
  8 23  1  1  0  0  0
  9  1  1  0  0  0  0
 10 18  2  0  0  0  0
 11  4  1  0  0  0  0
 12  8  1  0  0  0  0
 13  8  1  0  0  0  0
 13 18  1  6  0  0  0
 15 20  1  0  0  0  0
 16 17  1  1  0  0  0
 16 12  1  0  0  0  0
 19 10  1  0  0  0  0
 20 19  2  0  0  0  0
 21 22  2  0  0  0  0
 23 22  1  0  0  0  0
 24 27  1  6  0  0  0
 25 28  1  0  0  0  0
 28 24  1  0  0  0  0
 29 26  1  6  0  0  0
 30 22  1  6  0  0  0
 30 25  1  0  0  0  0
 30 29  1  0  0  0  0
 31 29  1  0  0  0  0
 31 24  1  0  0  0  0
M  END
>  <MODEL>
8

>  <REMARK>
 VINA RESULT:      -3.6      6.495      8.137
  Name = 
  2 active torsions:
  status: ('A' for Active; 'I' for Inactive)
    1  A    between atoms: C_5  and  C_30
    2  A    between atoms: C_10  and  N_16
                            x       y       z     vdW  Elec       q    Type
                         _______ _______ _______ _____ _____    ______ ____

>  <TORSDO>
F 2

$$$$
