=
 OpenBabel11122412303D

 30 35  0  0  1  0  0  0  0  0999 V2000
  161.4810  206.3800  150.4640 C   0  0  0  0  0  0  0  0  0  0  0  0
  161.1760  203.9160  150.3100 C   0  0  0  0  0  0  0  0  0  0  0  0
  160.7180  206.3350  154.5860 N   0  0  0  0  0  2  0  0  0  0  0  0
  161.4790  207.5620  151.2460 C   0  0  0  0  0  0  0  0  0  0  0  0
  161.7380  206.4750  149.0920 O   0  0  0  0  0  0  0  0  0  0  0  0
  162.1600  209.9660  148.5970 O   0  0  0  0  0  0  0  0  0  0  0  0
  160.2470  210.3110  152.0240 C   0  0  1  0  0  3  0  0  0  0  0  0
  162.0540  208.8670  149.2070 C   0  0  0  0  0  0  0  0  0  0  0  0
  160.0530  209.5260  153.3350 C   0  0  2  0  0  3  0  0  0  0  0  0
  160.8220  207.7420  154.9540 C   0  0  1  0  0  3  0  0  0  0  0  0
  162.4030  207.5890  148.5020 C   0  0  2  0  0  3  0  0  0  0  0  0
  161.6950  208.8410  150.6000 N   0  0  0  0  0  0  0  0  0  0  0  0
  160.9000  202.7010  150.9440 C   0  0  0  0  0  3  0  0  0  0  0  0
  159.9880  210.6060  154.3570 C   0  0  0  0  0  3  0  0  0  0  0  0
  160.0520  211.7730  152.4140 C   0  0  0  0  0  2  0  0  0  0  0  0
  161.4240  203.9030  148.9420 O   0  0  0  0  0  1  0  0  0  0  0  0
  160.9550  206.2320  153.1970 C   0  0  0  0  0  0  0  0  0  0  0  0
  160.6460  202.6550  152.3140 C   0  0  0  0  0  3  0  0  0  0  0  0
  161.1980  205.1190  151.0580 C   0  0  0  0  0  0  0  0  0  0  0  0
  161.2090  207.4450  152.6200 C   0  0  0  0  0  0  0  0  0  0  0  0
  161.9430  207.9240  155.9590 C   0  0  0  0  0  1  0  0  0  0  0  0
  161.1550  208.5150  153.6590 C   0  0  1  0  0  3  0  0  0  0  0  0
  159.9830  211.7770  153.8480 N   0  0  0  0  0  0  0  0  0  0  0  0
  162.8370  210.4370  152.1190 C   0  0  0  0  0  1  0  0  0  0  0  0
  160.6640  203.8270  153.0680 C   0  0  0  0  0  3  0  0  0  0  0  0
  160.9360  205.0530  152.4530 C   0  0  0  0  0  0  0  0  0  0  0  0
  161.5910  210.1280  151.2950 C   0  0  2  0  0  3  0  0  0  0  0  0
  162.0570  207.6690  147.0890 N   0  0  0  0  0  2  0  0  0  0  0  0
  162.3230  205.6820  145.7150 C   0  0  0  0  0  1  0  0  0  0  0  0
  161.4420  206.4070  146.7140 C   0  0  0  0  0  2  0  0  0  0  0  0
  1 19  2  0  0  0  0
  1  4  1  0  0  0  0
  2 13  2  0  0  0  0
  2 19  1  0  0  0  0
  3 10  1  0  0  0  0
  4 20  2  0  0  0  0
  5  1  1  0  0  0  0
  6  8  2  0  0  0  0
  7 15  1  1  0  0  0
  7  9  1  0  0  0  0
  8 12  1  0  0  0  0
  9 22  1  0  0  0  0
  9 14  1  1  0  0  0
 10 21  1  1  0  0  0
 11 28  1  6  0  0  0
 11  5  1  0  0  0  0
 11  8  1  0  0  0  0
 12  4  1  0  0  0  0
 12 27  1  0  0  0  0
 13 18  1  0  0  0  0
 15 23  1  0  0  0  0
 16  2  1  0  0  0  0
 17  3  1  0  0  0  0
 18 25  2  0  0  0  0
 19 26  1  0  0  0  0
 20 17  1  0  0  0  0
 22 20  1  6  0  0  0
 22 10  1  0  0  0  0
 23 14  2  0  0  0  0
 26 25  1  0  0  0  0
 26 17  2  0  0  0  0
 27  7  1  0  0  0  0
 27 24  1  1  0  0  0
 29 30  1  0  0  0  0
 30 28  1  0  0  0  0
M  END
>  <MODEL>
1

>  <REMARK>
 VINA RESULT:      -7.7      0.000      0.000
  Name = 
  2 active torsions:
  status: ('A' for Active; 'I' for Inactive)
    1  A    between atoms: C_11  and  N_28
    2  A    between atoms: N_28  and  C_30
                            x       y       z     vdW  Elec       q    Type
                         _______ _______ _______ _____ _____    ______ ____

>  <TORSDO>
F 2

$$$$
=
 OpenBabel11122412303D

 30 35  0  0  1  0  0  0  0  0999 V2000
  160.7250  210.6860  151.6210 C   0  0  0  0  0  0  0  0  0  0  0  0
  161.9420  208.7580  150.6270 C   0  0  0  0  0  0  0  0  0  0  0  0
  160.1020  208.5990  155.2020 N   0  0  0  0  0  2  0  0  0  0  0  0
  160.0160  211.2500  152.7110 C   0  0  0  0  0  0  0  0  0  0  0  0
  160.8880  211.4420  150.4540 O   0  0  0  0  0  0  0  0  0  0  0  0
  159.1620  214.4530  151.2040 O   0  0  0  0  0  0  0  0  0  0  0  0
  157.3870  212.3100  153.9930 C   0  0  1  0  0  3  0  0  0  0  0  0
  159.7230  213.3390  151.3910 C   0  0  0  0  0  0  0  0  0  0  0  0
  157.6840  211.1010  154.9010 C   0  0  2  0  0  3  0  0  0  0  0  0
  159.3480  209.5510  156.0100 C   0  0  1  0  0  3  0  0  0  0  0  0
  160.7670  212.8620  150.4250 C   0  0  2  0  0  3  0  0  0  0  0  0
  159.4370  212.5710  152.5740 N   0  0  0  0  0  0  0  0  0  0  0  0
  162.4350  207.4560  150.7570 C   0  0  0  0  0  3  0  0  0  0  0  0
  156.9830  211.4600  156.1640 C   0  0  0  0  0  3  0  0  0  0  0  0
  156.3600  213.1320  154.7660 C   0  0  0  0  0  2  0  0  0  0  0  0
  162.1610  209.4270  149.4270 O   0  0  0  0  0  1  0  0  0  0  0  0
  160.3660  209.2040  153.9530 C   0  0  0  0  0  0  0  0  0  0  0  0
  162.2450  206.7380  151.9380 C   0  0  0  0  0  3  0  0  0  0  0  0
  161.2400  209.3630  151.6980 C   0  0  0  0  0  0  0  0  0  0  0  0
  159.8560  210.4700  153.8690 C   0  0  0  0  0  0  0  0  0  0  0  0
  160.1340  209.8920  157.2610 C   0  0  0  0  0  1  0  0  0  0  0  0
  159.1690  210.8190  155.1460 C   0  0  1  0  0  3  0  0  0  0  0  0
  156.2900  212.5260  156.0660 N   0  0  0  0  0  0  0  0  0  0  0  0
  159.3970  213.7660  154.7480 C   0  0  0  0  0  1  0  0  0  0  0  0
  161.5590  207.3160  153.0040 C   0  0  0  0  0  3  0  0  0  0  0  0
  161.0560  208.6170  152.8940 C   0  0  0  0  0  0  0  0  0  0  0  0
  158.5840  213.1910  153.5930 C   0  0  2  0  0  3  0  0  0  0  0  0
  160.4540  213.2970  149.0710 N   0  0  0  0  0  2  0  0  0  0  0  0
  162.5700  213.3140  147.8760 C   0  0  0  0  0  1  0  0  0  0  0  0
  161.2970  212.5400  148.1600 C   0  0  0  0  0  2  0  0  0  0  0  0
  1 19  2  0  0  0  0
  1  4  1  0  0  0  0
  2 13  2  0  0  0  0
  2 19  1  0  0  0  0
  3 10  1  0  0  0  0
  4 20  2  0  0  0  0
  5  1  1  0  0  0  0
  6  8  2  0  0  0  0
  7 15  1  1  0  0  0
  7  9  1  0  0  0  0
  8 12  1  0  0  0  0
  9 22  1  0  0  0  0
  9 14  1  1  0  0  0
 10 21  1  1  0  0  0
 11 28  1  6  0  0  0
 11  5  1  0  0  0  0
 11  8  1  0  0  0  0
 12  4  1  0  0  0  0
 12 27  1  0  0  0  0
 13 18  1  0  0  0  0
 15 23  1  0  0  0  0
 16  2  1  0  0  0  0
 17  3  1  0  0  0  0
 18 25  2  0  0  0  0
 19 26  1  0  0  0  0
 20 17  1  0  0  0  0
 22 20  1  6  0  0  0
 22 10  1  0  0  0  0
 23 14  2  0  0  0  0
 26 25  1  0  0  0  0
 26 17  2  0  0  0  0
 27  7  1  0  0  0  0
 27 24  1  1  0  0  0
 29 30  1  0  0  0  0
 30 28  1  0  0  0  0
M  END
>  <MODEL>
2

>  <REMARK>
 VINA RESULT:      -6.2      2.947      4.698
  Name = 
  2 active torsions:
  status: ('A' for Active; 'I' for Inactive)
    1  A    between atoms: C_11  and  N_28
    2  A    between atoms: N_28  and  C_30
                            x       y       z     vdW  Elec       q    Type
                         _______ _______ _______ _____ _____    ______ ____

>  <TORSDO>
F 2

$$$$
=
 OpenBabel11122412303D

 30 35  0  0  1  0  0  0  0  0999 V2000
  161.2610  208.1130  151.3480 C   0  0  0  0  0  0  0  0  0  0  0  0
  161.4940  205.8710  150.2970 C   0  0  0  0  0  0  0  0  0  0  0  0
  160.4980  206.4060  155.1000 N   0  0  0  0  0  2  0  0  0  0  0  0
  161.0000  208.9000  152.4980 C   0  0  0  0  0  0  0  0  0  0  0  0
  161.5010  208.7540  150.1280 O   0  0  0  0  0  0  0  0  0  0  0  0
  161.1670  212.1930  150.9520 O   0  0  0  0  0  0  0  0  0  0  0  0
  159.2010  210.8690  154.0990 C   0  0  1  0  0  3  0  0  0  0  0  0
  161.2950  210.9490  151.1170 C   0  0  0  0  0  0  0  0  0  0  0  0
  159.1710  209.6350  155.0210 C   0  0  2  0  0  3  0  0  0  0  0  0
  160.2940  207.5700  155.9550 C   0  0  1  0  0  3  0  0  0  0  0  0
  161.9150  210.1150  150.0340 C   0  0  2  0  0  3  0  0  0  0  0  0
  160.9410  210.3420  152.3730 N   0  0  0  0  0  0  0  0  0  0  0  0
  161.4810  204.4780  150.4280 C   0  0  0  0  0  3  0  0  0  0  0  0
  158.8690  210.2280  156.3530 C   0  0  0  0  0  3  0  0  0  0  0  0
  158.6940  212.0150  154.9690 C   0  0  0  0  0  2  0  0  0  0  0  0
  161.7480  206.4100  149.0410 O   0  0  0  0  0  1  0  0  0  0  0  0
  160.7610  206.8700  153.7910 C   0  0  0  0  0  0  0  0  0  0  0  0
  161.2330  203.8830  151.6650 C   0  0  0  0  0  3  0  0  0  0  0  0
  161.2520  206.6930  151.4240 C   0  0  0  0  0  0  0  0  0  0  0  0
  160.7520  208.2340  153.7110 C   0  0  0  0  0  0  0  0  0  0  0  0
  161.3430  207.5870  157.0500 C   0  0  0  0  0  1  0  0  0  0  0  0
  160.4630  208.8140  155.0550 C   0  0  1  0  0  3  0  0  0  0  0  0
  158.6160  211.4780  156.2970 N   0  0  0  0  0  0  0  0  0  0  0  0
  161.7030  211.4590  154.4530 C   0  0  0  0  0  1  0  0  0  0  0  0
  160.9940  204.6740  152.7860 C   0  0  0  0  0  3  0  0  0  0  0  0
  161.0010  206.0690  152.6770 C   0  0  0  0  0  0  0  0  0  0  0  0
  160.5580  211.2350  153.4710 C   0  0  2  0  0  3  0  0  0  0  0  0
  161.5700  210.6390  148.7190 N   0  0  0  0  0  2  0  0  0  0  0  0
  162.0880  212.7040  147.5460 C   0  0  0  0  0  1  0  0  0  0  0  0
  162.6520  211.5130  148.2960 C   0  0  0  0  0  2  0  0  0  0  0  0
  1 19  2  0  0  0  0
  1  4  1  0  0  0  0
  2 13  2  0  0  0  0
  2 19  1  0  0  0  0
  3 10  1  0  0  0  0
  4 20  2  0  0  0  0
  5  1  1  0  0  0  0
  6  8  2  0  0  0  0
  7 15  1  1  0  0  0
  7  9  1  0  0  0  0
  8 12  1  0  0  0  0
  9 22  1  0  0  0  0
  9 14  1  1  0  0  0
 10 21  1  1  0  0  0
 11 28  1  6  0  0  0
 11  5  1  0  0  0  0
 11  8  1  0  0  0  0
 12  4  1  0  0  0  0
 12 27  1  0  0  0  0
 13 18  1  0  0  0  0
 15 23  1  0  0  0  0
 16  2  1  0  0  0  0
 17  3  1  0  0  0  0
 18 25  2  0  0  0  0
 19 26  1  0  0  0  0
 20 17  1  0  0  0  0
 22 20  1  6  0  0  0
 22 10  1  0  0  0  0
 23 14  2  0  0  0  0
 26 25  1  0  0  0  0
 26 17  2  0  0  0  0
 27  7  1  0  0  0  0
 27 24  1  1  0  0  0
 29 30  1  0  0  0  0
 30 28  1  0  0  0  0
M  END
>  <MODEL>
3

>  <REMARK>
 VINA RESULT:      -5.9      1.843      2.700
  Name = 
  2 active torsions:
  status: ('A' for Active; 'I' for Inactive)
    1  A    between atoms: C_11  and  N_28
    2  A    between atoms: N_28  and  C_30
                            x       y       z     vdW  Elec       q    Type
                         _______ _______ _______ _____ _____    ______ ____

>  <TORSDO>
F 2

$$$$
=
 OpenBabel11122412303D

 30 35  0  0  1  0  0  0  0  0999 V2000
  161.5210  207.5090  151.3370 C   0  0  0  0  0  0  0  0  0  0  0  0
  161.6540  209.9610  150.9380 C   0  0  0  0  0  0  0  0  0  0  0  0
  162.1960  206.6940  147.2810 N   0  0  0  0  0  2  0  0  0  0  0  0
  161.5560  206.1870  150.8260 C   0  0  0  0  0  0  0  0  0  0  0  0
  161.2840  207.7030  152.7020 O   0  0  0  0  0  0  0  0  0  0  0  0
  160.8490  204.3940  153.9160 O   0  0  0  0  0  0  0  0  0  0  0  0
  160.1570  203.4930  150.1440 C   0  0  1  0  0  3  0  0  0  0  0  0
  161.1620  205.3280  153.1290 C   0  0  0  0  0  0  0  0  0  0  0  0
  160.5620  203.9730  148.7370 C   0  0  2  0  0  3  0  0  0  0  0  0
  162.1480  205.2370  147.2260 C   0  0  1  0  0  3  0  0  0  0  0  0
  161.4910  206.6850  153.6790 C   0  0  2  0  0  3  0  0  0  0  0  0
  161.2990  205.0750  151.7190 N   0  0  0  0  0  0  0  0  0  0  0  0
  161.8400  211.0220  150.0460 C   0  0  0  0  0  3  0  0  0  0  0  0
  160.6380  202.7020  147.9660 C   0  0  0  0  0  3  0  0  0  0  0  0
  159.8300  202.0130  149.9690 C   0  0  0  0  0  2  0  0  0  0  0  0
  161.4300  210.2590  152.2780 O   0  0  0  0  0  1  0  0  0  0  0  0
  161.9720  207.0850  148.6200 C   0  0  0  0  0  0  0  0  0  0  0  0
  162.0690  210.7800  148.6920 C   0  0  0  0  0  3  0  0  0  0  0  0
  161.6960  208.6240  150.4720 C   0  0  0  0  0  0  0  0  0  0  0  0
  161.7860  206.0160  149.4510 C   0  0  0  0  0  0  0  0  0  0  0  0
  163.4840  204.7020  146.7480 C   0  0  0  0  0  1  0  0  0  0  0  0
  161.8800  204.7500  148.6670 C   0  0  1  0  0  3  0  0  0  0  0  0
  160.2430  201.6890  148.6340 N   0  0  0  0  0  0  0  0  0  0  0  0
  162.5570  203.0530  151.0240 C   0  0  0  0  0  1  0  0  0  0  0  0
  162.1150  209.4730  148.2130 C   0  0  0  0  0  3  0  0  0  0  0  0
  161.9300  208.3970  149.0880 C   0  0  0  0  0  0  0  0  0  0  0  0
  161.1900  203.6830  151.2690 C   0  0  2  0  0  3  0  0  0  0  0  0
  160.6860  206.9720  154.8580 N   0  0  0  0  0  2  0  0  0  0  0  0
  159.9480  209.1180  155.7290 C   0  0  0  0  0  1  0  0  0  0  0  0
  161.1410  208.2410  155.4030 C   0  0  0  0  0  2  0  0  0  0  0  0
  1  5  1  0  0  0  0
  2 16  1  0  0  0  0
  3 17  1  0  0  0  0
  4  1  1  0  0  0  0
  4 12  1  0  0  0  0
  5 11  1  0  0  0  0
  7 15  1  6  0  0  0
  7 27  1  0  0  0  0
  8 11  1  0  0  0  0
  8  6  2  0  0  0  0
  9 14  1  6  0  0  0
  9  7  1  0  0  0  0
 10 21  1  1  0  0  0
 10  3  1  0  0  0  0
 10 22  1  0  0  0  0
 11 28  1  1  0  0  0
 12  8  1  0  0  0  0
 13  2  2  0  0  0  0
 14 23  2  0  0  0  0
 17 26  2  0  0  0  0
 17 20  1  0  0  0  0
 18 13  1  0  0  0  0
 19  2  1  0  0  0  0
 19  1  2  0  0  0  0
 20  4  2  0  0  0  0
 22  9  1  0  0  0  0
 22 20  1  1  0  0  0
 23 15  1  0  0  0  0
 25 18  2  0  0  0  0
 25 26  1  0  0  0  0
 26 19  1  0  0  0  0
 27 24  1  6  0  0  0
 27 12  1  0  0  0  0
 28 30  1  0  0  0  0
 30 29  1  0  0  0  0
M  END
>  <MODEL>
4

>  <REMARK>
 VINA RESULT:      -5.8      2.246      7.249
  Name = 
  2 active torsions:
  status: ('A' for Active; 'I' for Inactive)
    1  A    between atoms: C_11  and  N_28
    2  A    between atoms: N_28  and  C_30
                            x       y       z     vdW  Elec       q    Type
                         _______ _______ _______ _____ _____    ______ ____

>  <TORSDO>
F 2

$$$$
=
 OpenBabel11122412303D

 30 35  0  0  1  0  0  0  0  0999 V2000
  161.3940  208.1350  150.1950 C   0  0  0  0  0  0  0  0  0  0  0  0
  161.4100  206.1090  148.7500 C   0  0  0  0  0  0  0  0  0  0  0  0
  160.6910  205.8290  153.6240 N   0  0  0  0  0  2  0  0  0  0  0  0
  161.2480  208.7150  151.4790 C   0  0  0  0  0  0  0  0  0  0  0  0
  161.6210  208.9690  149.0950 O   0  0  0  0  0  0  0  0  0  0  0  0
  161.5810  212.2160  150.5330 O   0  0  0  0  0  0  0  0  0  0  0  0
  159.6790  210.4720  153.5110 C   0  0  1  0  0  3  0  0  0  0  0  0
  161.6260  210.9570  150.4680 C   0  0  0  0  0  0  0  0  0  0  0  0
  159.6030  209.0970  154.2000 C   0  0  2  0  0  3  0  0  0  0  0  0
  160.6160  206.8300  154.6820 C   0  0  1  0  0  3  0  0  0  0  0  0
  162.1290  210.2960  149.2180 C   0  0  2  0  0  3  0  0  0  0  0  0
  161.2890  210.1570  151.6150 N   0  0  0  0  0  0  0  0  0  0  0  0
  161.3010  204.7200  148.6330 C   0  0  0  0  0  3  0  0  0  0  0  0
  159.4110  209.4570  155.6310 C   0  0  0  0  0  3  0  0  0  0  0  0
  159.3010  211.4720  154.5990 C   0  0  0  0  0  2  0  0  0  0  0  0
  161.6420  206.8500  147.5970 O   0  0  0  0  0  1  0  0  0  0  0  0
  160.9240  206.5040  152.4050 C   0  0  0  0  0  0  0  0  0  0  0  0
  161.0700  203.9270  149.7580 C   0  0  0  0  0  3  0  0  0  0  0  0
  161.2840  206.7270  150.0180 C   0  0  0  0  0  0  0  0  0  0  0  0
  161.0120  207.8580  152.5680 C   0  0  0  0  0  0  0  0  0  0  0  0
  161.7150  206.5810  155.6970 C   0  0  0  0  0  1  0  0  0  0  0  0
  160.8310  208.2030  154.0090 C   0  0  1  0  0  3  0  0  0  0  0  0
  159.2490  210.7100  155.8140 N   0  0  0  0  0  0  0  0  0  0  0  0
  162.2320  210.8280  153.8100 C   0  0  0  0  0  1  0  0  0  0  0  0
  160.9450  204.5160  151.0140 C   0  0  0  0  0  3  0  0  0  0  0  0
  161.0490  205.9040  151.1530 C   0  0  0  0  0  0  0  0  0  0  0  0
  161.0270  210.8590  152.8750 C   0  0  2  0  0  3  0  0  0  0  0  0
  161.7590  211.0700  148.0410 N   0  0  0  0  0  2  0  0  0  0  0  0
  162.2450  213.2200  147.0170 C   0  0  0  0  0  1  0  0  0  0  0  0
  162.8000  212.0610  147.8220 C   0  0  0  0  0  2  0  0  0  0  0  0
  1  4  1  0  0  0  0
  2 19  1  0  0  0  0
  3 10  1  0  0  0  0
  4 12  1  0  0  0  0
  4 20  2  0  0  0  0
  5 11  1  0  0  0  0
  5  1  1  0  0  0  0
  7  9  1  0  0  0  0
  7 15  1  1  0  0  0
  8  6  2  0  0  0  0
  8 12  1  0  0  0  0
  9 14  1  1  0  0  0
 10 21  1  1  0  0  0
 11 28  1  6  0  0  0
 11  8  1  0  0  0  0
 12 27  1  0  0  0  0
 13  2  2  0  0  0  0
 13 18  1  0  0  0  0
 14 23  2  0  0  0  0
 15 23  1  0  0  0  0
 16  2  1  0  0  0  0
 17 20  1  0  0  0  0
 17  3  1  0  0  0  0
 18 25  2  0  0  0  0
 19  1  2  0  0  0  0
 19 26  1  0  0  0  0
 22 20  1  6  0  0  0
 22  9  1  0  0  0  0
 22 10  1  0  0  0  0
 25 26  1  0  0  0  0
 26 17  2  0  0  0  0
 27  7  1  0  0  0  0
 27 24  1  1  0  0  0
 29 30  1  0  0  0  0
 30 28  1  0  0  0  0
M  END
>  <MODEL>
5

>  <REMARK>
 VINA RESULT:      -5.6      1.834      2.706
  Name = 
  2 active torsions:
  status: ('A' for Active; 'I' for Inactive)
    1  A    between atoms: C_11  and  N_28
    2  A    between atoms: N_28  and  C_30
                            x       y       z     vdW  Elec       q    Type
                         _______ _______ _______ _____ _____    ______ ____

>  <TORSDO>
F 2

$$$$
=
 OpenBabel11122412303D

 30 35  0  0  1  0  0  0  0  0999 V2000
  161.5370  207.9300  150.9090 C   0  0  0  0  0  0  0  0  0  0  0  0
  162.1120  208.7500  148.6310 C   0  0  0  0  0  0  0  0  0  0  0  0
  160.8310  211.8330  152.2650 N   0  0  0  0  0  2  0  0  0  0  0  0
  161.1550  208.2090  152.2440 C   0  0  0  0  0  0  0  0  0  0  0  0
  161.7610  206.6020  150.5300 O   0  0  0  0  0  0  0  0  0  0  0  0
  161.2030  204.8070  153.5430 O   0  0  0  0  0  0  0  0  0  0  0  0
  161.7720  208.2910  155.2930 C   0  0  1  0  0  3  0  0  0  0  0  0
  161.1960  205.7680  152.7260 C   0  0  0  0  0  0  0  0  0  0  0  0
  161.5770  209.7900  154.9970 C   0  0  2  0  0  3  0  0  0  0  0  0
  160.4710  211.6340  153.6640 C   0  0  1  0  0  3  0  0  0  0  0  0
  161.2380  205.4900  151.2520 C   0  0  2  0  0  3  0  0  0  0  0  0
  161.0540  207.1210  153.1950 N   0  0  0  0  0  0  0  0  0  0  0  0
  162.2680  209.8230  147.7480 C   0  0  0  0  0  3  0  0  0  0  0  0
  161.1800  210.3370  156.3230 C   0  0  0  0  0  3  0  0  0  0  0  0
  161.6790  208.1800  156.8110 C   0  0  0  0  0  2  0  0  0  0  0  0
  162.3540  207.4660  148.1560 O   0  0  0  0  0  1  0  0  0  0  0  0
  161.0990  210.5650  151.7020 C   0  0  0  0  0  0  0  0  0  0  0  0
  162.0370  211.1320  148.1710 C   0  0  0  0  0  3  0  0  0  0  0  0
  161.7170  208.9850  149.9710 C   0  0  0  0  0  0  0  0  0  0  0  0
  160.9440  209.5510  152.6050 C   0  0  0  0  0  0  0  0  0  0  0  0
  159.0610  212.1360  153.9040 C   0  0  0  0  0  1  0  0  0  0  0  0
  160.5330  210.1130  153.9240 C   0  0  1  0  0  3  0  0  0  0  0  0
  161.2480  209.4730  157.2600 N   0  0  0  0  0  0  0  0  0  0  0  0
  159.3100  207.5740  154.9010 C   0  0  0  0  0  1  0  0  0  0  0  0
  161.6470  211.3840  149.4840 C   0  0  0  0  0  3  0  0  0  0  0  0
  161.4870  210.3250  150.3850 C   0  0  0  0  0  0  0  0  0  0  0  0
  160.7870  207.3150  154.6240 C   0  0  2  0  0  3  0  0  0  0  0  0
  162.0400  204.3060  150.9730 N   0  0  0  0  0  2  0  0  0  0  0  0
  161.2050  203.7290  148.7650 C   0  0  0  0  0  1  0  0  0  0  0  0
  161.2040  203.3710  150.2380 C   0  0  0  0  0  2  0  0  0  0  0  0
  1  4  1  0  0  0  0
  2 19  1  0  0  0  0
  3 10  1  0  0  0  0
  4 20  2  0  0  0  0
  4 12  1  0  0  0  0
  5  1  1  0  0  0  0
  5 11  1  0  0  0  0
  7 15  1  1  0  0  0
  8 12  1  0  0  0  0
  8  6  2  0  0  0  0
  9  7  1  0  0  0  0
  9 14  1  1  0  0  0
 10 21  1  6  0  0  0
 10 22  1  0  0  0  0
 11 28  1  1  0  0  0
 11  8  1  0  0  0  0
 12 27  1  0  0  0  0
 13 18  1  0  0  0  0
 13  2  2  0  0  0  0
 14 23  2  0  0  0  0
 15 23  1  0  0  0  0
 16  2  1  0  0  0  0
 17  3  1  0  0  0  0
 17 20  1  0  0  0  0
 18 25  2  0  0  0  0
 19 26  1  0  0  0  0
 19  1  2  0  0  0  0
 22 20  1  6  0  0  0
 22  9  1  0  0  0  0
 25 26  1  0  0  0  0
 26 17  2  0  0  0  0
 27 24  1  6  0  0  0
 27  7  1  0  0  0  0
 29 30  1  0  0  0  0
 30 28  1  0  0  0  0
M  END
>  <MODEL>
6

>  <REMARK>
 VINA RESULT:      -5.1      1.934      4.906
  Name = 
  2 active torsions:
  status: ('A' for Active; 'I' for Inactive)
    1  A    between atoms: C_11  and  N_28
    2  A    between atoms: N_28  and  C_30
                            x       y       z     vdW  Elec       q    Type
                         _______ _______ _______ _____ _____    ______ ____

>  <TORSDO>
F 2

$$$$
=
 OpenBabel11122412303D

 30 35  0  0  1  0  0  0  0  0999 V2000
  160.9500  210.7550  151.3230 C   0  0  0  0  0  0  0  0  0  0  0  0
  161.6970  211.4460  149.0530 C   0  0  0  0  0  0  0  0  0  0  0  0
  159.0670  214.4450  151.9570 N   0  0  0  0  0  2  0  0  0  0  0  0
  160.2800  211.0640  152.5330 C   0  0  0  0  0  0  0  0  0  0  0  0
  161.5610  209.5030  151.1860 O   0  0  0  0  0  0  0  0  0  0  0  0
  160.9410  207.9630  154.3250 O   0  0  0  0  0  0  0  0  0  0  0  0
  160.3080  211.6410  155.5900 C   0  0  1  0  0  3  0  0  0  0  0  0
  160.8410  208.7920  153.3790 C   0  0  0  0  0  0  0  0  0  0  0  0
  159.8020  212.9900  155.0460 C   0  0  2  0  0  3  0  0  0  0  0  0
  158.5270  214.3100  153.3050 C   0  0  1  0  0  3  0  0  0  0  0  0
  161.2110  208.3760  151.9860 C   0  0  2  0  0  3  0  0  0  0  0  0
  160.2860  210.0990  153.6130 N   0  0  0  0  0  0  0  0  0  0  0  0
  161.7350  212.4190  148.0480 C   0  0  0  0  0  3  0  0  0  0  0  0
  159.0530  213.5500  156.2040 C   0  0  0  0  0  3  0  0  0  0  0  0
  159.9780  211.6750  157.0790 C   0  0  0  0  0  2  0  0  0  0  0  0
  162.3310  210.2310  148.8170 O   0  0  0  0  0  1  0  0  0  0  0  0
  159.7380  213.2430  151.6370 C   0  0  0  0  0  0  0  0  0  0  0  0
  161.1150  213.6550  148.2310 C   0  0  0  0  0  3  0  0  0  0  0  0
  161.0260  211.7100  150.2720 C   0  0  0  0  0  0  0  0  0  0  0  0
  159.6820  212.3300  152.6520 C   0  0  0  0  0  0  0  0  0  0  0  0
  157.0160  214.4360  153.2620 C   0  0  0  0  0  1  0  0  0  0  0  0
  158.9170  212.9000  153.7990 C   0  0  1  0  0  3  0  0  0  0  0  0
  159.1660  212.8440  157.2610 N   0  0  0  0  0  0  0  0  0  0  0  0
  158.2100  210.2480  154.9650 C   0  0  0  0  0  1  0  0  0  0  0  0
  160.4490  213.9330  149.4220 C   0  0  0  0  0  3  0  0  0  0  0  0
  160.4000  212.9750  150.4400 C   0  0  0  0  0  0  0  0  0  0  0  0
  159.7310  210.3680  154.9430 C   0  0  2  0  0  3  0  0  0  0  0  0
  162.3180  207.4310  152.0060 N   0  0  0  0  0  2  0  0  0  0  0  0
  161.2290  206.1930  150.2200 C   0  0  0  0  0  1  0  0  0  0  0  0
  161.7930  206.1290  151.6260 C   0  0  0  0  0  2  0  0  0  0  0  0
  1  4  1  0  0  0  0
  2 19  1  0  0  0  0
  3 10  1  0  0  0  0
  4 20  2  0  0  0  0
  4 12  1  0  0  0  0
  5  1  1  0  0  0  0
  5 11  1  0  0  0  0
  7 15  1  1  0  0  0
  8 12  1  0  0  0  0
  8  6  2  0  0  0  0
  9  7  1  0  0  0  0
  9 14  1  1  0  0  0
 10 21  1  6  0  0  0
 10 22  1  0  0  0  0
 11 28  1  1  0  0  0
 11  8  1  0  0  0  0
 12 27  1  0  0  0  0
 13 18  1  0  0  0  0
 13  2  2  0  0  0  0
 14 23  2  0  0  0  0
 15 23  1  0  0  0  0
 16  2  1  0  0  0  0
 17  3  1  0  0  0  0
 17 20  1  0  0  0  0
 18 25  2  0  0  0  0
 19 26  1  0  0  0  0
 19  1  2  0  0  0  0
 22 20  1  6  0  0  0
 22  9  1  0  0  0  0
 25 26  1  0  0  0  0
 26 17  2  0  0  0  0
 27 24  1  6  0  0  0
 27  7  1  0  0  0  0
 29 30  1  0  0  0  0
 30 28  1  0  0  0  0
M  END
>  <MODEL>
7

>  <REMARK>
 VINA RESULT:      -5.0      2.650      6.322
  Name = 
  2 active torsions:
  status: ('A' for Active; 'I' for Inactive)
    1  A    between atoms: C_11  and  N_28
    2  A    between atoms: N_28  and  C_30
                            x       y       z     vdW  Elec       q    Type
                         _______ _______ _______ _____ _____    ______ ____

>  <TORSDO>
F 2

$$$$
=
 OpenBabel11122412303D

 30 35  0  0  1  0  0  0  0  0999 V2000
  161.2120  210.6560  150.7220 C   0  0  0  0  0  0  0  0  0  0  0  0
  161.2270  212.2220  148.7880 C   0  0  0  0  0  0  0  0  0  0  0  0
  159.3860  213.5210  153.1780 N   0  0  0  0  0  2  0  0  0  0  0  0
  160.9060  210.4020  152.0820 C   0  0  0  0  0  0  0  0  0  0  0  0
  161.8280  209.6530  149.9660 O   0  0  0  0  0  0  0  0  0  0  0  0
  162.2350  207.0190  152.3130 O   0  0  0  0  0  0  0  0  0  0  0  0
  161.7860  209.8510  155.0150 C   0  0  1  0  0  3  0  0  0  0  0  0
  161.8180  208.1010  151.8170 C   0  0  0  0  0  0  0  0  0  0  0  0
  161.0670  211.2040  155.1780 C   0  0  2  0  0  3  0  0  0  0  0  0
  159.2680  212.8290  154.4560 C   0  0  1  0  0  3  0  0  0  0  0  0
  161.7900  208.2740  150.3270 C   0  0  2  0  0  3  0  0  0  0  0  0
  161.2800  209.1310  152.6670 N   0  0  0  0  0  0  0  0  0  0  0  0
  160.9170  213.4790  148.2620 C   0  0  0  0  0  3  0  0  0  0  0  0
  160.6550  211.1860  156.6080 C   0  0  0  0  0  3  0  0  0  0  0  0
  161.9000  209.3000  156.4330 C   0  0  0  0  0  2  0  0  0  0  0  0
  161.8350  211.2910  147.9520 O   0  0  0  0  0  1  0  0  0  0  0  0
  160.0020  212.6380  152.2630 C   0  0  0  0  0  0  0  0  0  0  0  0
  160.3060  214.4510  149.0550 C   0  0  0  0  0  3  0  0  0  0  0  0
  160.9250  211.9220  150.1390 C   0  0  0  0  0  0  0  0  0  0  0  0
  160.2960  211.4270  152.8250 C   0  0  0  0  0  0  0  0  0  0  0  0
  157.8050  212.7130  154.8390 C   0  0  0  0  0  1  0  0  0  0  0  0
  159.8650  211.4200  154.2530 C   0  0  1  0  0  3  0  0  0  0  0  0
  161.1100  210.1790  157.2470 N   0  0  0  0  0  0  0  0  0  0  0  0
  159.6810  208.4490  154.4380 C   0  0  0  0  0  1  0  0  0  0  0  0
  159.9990  214.1750  150.3860 C   0  0  0  0  0  3  0  0  0  0  0  0
  160.3030  212.9240  150.9320 C   0  0  0  0  0  0  0  0  0  0  0  0
  161.1200  208.8160  154.0910 C   0  0  2  0  0  3  0  0  0  0  0  0
  162.9090  207.5780  149.7070 N   0  0  0  0  0  2  0  0  0  0  0  0
  161.3110  206.3990  148.3040 C   0  0  0  0  0  1  0  0  0  0  0  0
  162.5390  207.2890  148.3310 C   0  0  0  0  0  2  0  0  0  0  0  0
  1  4  1  0  0  0  0
  2 19  1  0  0  0  0
  3 10  1  0  0  0  0
  4 12  1  0  0  0  0
  4 20  2  0  0  0  0
  5 11  1  0  0  0  0
  5  1  1  0  0  0  0
  7  9  1  0  0  0  0
  7 15  1  1  0  0  0
  8  6  2  0  0  0  0
  8 12  1  0  0  0  0
  9 14  1  1  0  0  0
 10 21  1  6  0  0  0
 11 28  1  6  0  0  0
 11  8  1  0  0  0  0
 12 27  1  0  0  0  0
 13  2  2  0  0  0  0
 13 18  1  0  0  0  0
 14 23  2  0  0  0  0
 15 23  1  0  0  0  0
 16  2  1  0  0  0  0
 17 20  1  0  0  0  0
 17  3  1  0  0  0  0
 18 25  2  0  0  0  0
 19  1  2  0  0  0  0
 19 26  1  0  0  0  0
 22 20  1  6  0  0  0
 22 10  1  0  0  0  0
 22  9  1  0  0  0  0
 25 26  1  0  0  0  0
 26 17  2  0  0  0  0
 27 24  1  1  0  0  0
 27  7  1  0  0  0  0
 29 30  1  0  0  0  0
 30 28  1  0  0  0  0
M  END
>  <MODEL>
8

>  <REMARK>
 VINA RESULT:      -5.0      2.591      5.815
  Name = 
  2 active torsions:
  status: ('A' for Active; 'I' for Inactive)
    1  A    between atoms: C_11  and  N_28
    2  A    between atoms: N_28  and  C_30
                            x       y       z     vdW  Elec       q    Type
                         _______ _______ _______ _____ _____    ______ ____

>  <TORSDO>
F 2

$$$$
