=
 OpenBabel11122414243D

 34 41  0  0  1  0  0  0  0  0999 V2000
  161.1340  203.9840  151.1970 C   0  0  0  0  0  0  0  0  0  0  0  0
  161.0500  205.8490  152.9870 C   0  0  0  0  0  3  0  0  0  0  0  0
  159.9710  202.2960  145.3310 C   0  0  1  0  0  3  0  0  0  0  0  0
  161.1900  202.4160  149.3250 C   0  0  0  0  0  0  0  0  0  0  0  0
  161.1120  203.4060  147.0780 C   0  0  0  0  0  0  0  0  0  0  0  0
  160.8060  204.1480  144.6610 N   0  0  0  0  0  2  0  0  0  0  0  0
  159.8170  203.2040  144.1360 C   0  0  0  0  0  2  0  0  0  0  0  0
  161.0030  200.2550  146.2690 C   0  0  0  0  0  3  0  0  0  0  0  0
  161.0070  206.4330  150.7950 C   0  0  0  0  0  0  0  0  0  0  0  0
  162.5220  208.9140  149.8270 C   0  0  0  0  0  3  0  0  0  0  0  0
  161.0710  204.6610  147.5460 C   0  0  0  0  0  3  0  0  0  0  0  0
  161.2730  200.7940  147.4870 C   0  0  0  0  0  3  0  0  0  0  0  0
  161.0010  206.2630  149.4750 C   0  0  0  0  0  0  0  0  0  0  0  0
  160.9940  207.1840  152.9570 C   0  0  0  0  0  3  0  0  0  0  0  0
  161.1710  202.2110  147.9940 C   0  0  0  0  0  0  0  0  0  0  0  0
  160.4560  200.9540  145.1340 N   0  0  0  0  0  2  0  0  0  0  0  0
  162.2960  208.4730  151.2610 C   0  0  2  0  0  3  0  0  0  0  0  0
  161.1270  203.7880  149.8650 C   0  0  2  0  0  3  0  0  0  0  0  0
  161.1680  203.1230  145.6290 C   0  0  2  0  0  3  0  0  0  0  0  0
  161.0600  204.9140  148.9570 N   0  0  0  0  0  0  0  0  0  0  0  0
  161.2660  201.5860  151.6700 C   0  0  0  0  0  3  0  0  0  0  0  0
  161.9460  208.4580  148.6990 C   0  0  0  0  0  3  0  0  0  0  0  0
  161.2620  201.3270  150.2580 N   0  0  0  0  0  0  0  0  0  0  0  0
  160.8310  207.4530  148.5830 C   0  0  0  0  0  2  0  0  0  0  0  0
  160.9900  207.7170  151.5390 C   0  0  1  0  0  3  0  0  0  0  0  0
  161.2060  202.8390  152.1320 C   0  0  0  0  0  3  0  0  0  0  0  0
  161.0750  205.3330  151.6700 N   0  0  0  0  0  0  0  0  0  0  0  0
  162.4060  209.5800  152.1070 O   0  0  0  0  0  0  0  0  0  0  0  0
  161.2970  210.3750  151.8080 C   0  0  0  0  0  2  0  0  0  0  0  0
  159.4090  210.3280  154.6110 O   0  0  0  0  0  0  0  0  0  0  0  0
  161.5780  210.6510  154.2480 C   0  0  0  0  0  3  0  0  0  0  0  0
  160.8890  211.1760  153.0310 C   0  0  2  0  0  3  0  0  0  0  0  0
  160.6920  210.1860  155.1050 C   0  0  0  0  0  3  0  0  0  0  0  0
  159.4120  210.9310  153.3290 C   0  0  0  0  0  2  0  0  0  0  0  0
  1 27  1  0  0  0  0
  1 26  2  0  0  0  0
  3  7  1  6  0  0  0
  3 19  1  0  0  0  0
  4 23  1  0  0  0  0
  5 11  2  0  0  0  0
  5 15  1  0  0  0  0
  7  6  1  0  0  0  0
  8 12  2  0  0  0  0
  9 25  1  0  0  0  0
  9 27  1  0  0  0  0
 10 17  1  0  0  0  0
 11 20  1  0  0  0  0
 12 15  1  0  0  0  0
 13  9  2  0  0  0  0
 14  2  2  0  0  0  0
 15  4  2  0  0  0  0
 16  3  1  0  0  0  0
 16  8  1  0  0  0  0
 17 25  1  0  0  0  0
 17 28  1  1  0  0  0
 18  4  1  6  0  0  0
 18  1  1  0  0  0  0
 19  6  1  6  0  0  0
 19  5  1  0  0  0  0
 20 13  1  0  0  0  0
 20 18  1  0  0  0  0
 21 26  1  0  0  0  0
 22 10  2  0  0  0  0
 23 21  2  0  0  0  0
 24 22  1  0  0  0  0
 24 13  1  0  0  0  0
 25 14  1  1  0  0  0
 27  2  1  0  0  0  0
 29 28  1  0  0  0  0
 30 33  1  0  0  0  0
 31 33  2  0  0  0  0
 32 29  1  6  0  0  0
 32 34  1  0  0  0  0
 32 31  1  0  0  0  0
 34 30  1  0  0  0  0
M  END
>  <MODEL>
1

>  <REMARK>
 VINA RESULT:      -8.9      0.000      0.000
  Name = 
  3 active torsions:
  status: ('A' for Active; 'I' for Inactive)
    1  A    between atoms: C_17  and  O_28
    2  A    between atoms: O_28  and  C_29
    3  A    between atoms: C_29  and  C_32
                            x       y       z     vdW  Elec       q    Type
                         _______ _______ _______ _____ _____    ______ ____

>  <TORSDO>
F 3

$$$$
=
 OpenBabel11122414243D

 34 41  0  0  1  0  0  0  0  0999 V2000
  161.7480  208.8870  151.1150 C   0  0  0  0  0  0  0  0  0  0  0  0
  162.0410  210.6400  152.9930 C   0  0  0  0  0  3  0  0  0  0  0  0
  161.6210  202.8800  149.5270 C   0  0  1  0  0  3  0  0  0  0  0  0
  161.4240  207.0530  149.5340 C   0  0  0  0  0  0  0  0  0  0  0  0
  160.8200  204.8780  150.5020 C   0  0  0  0  0  0  0  0  0  0  0  0
  160.4230  202.4770  151.2520 N   0  0  0  0  0  2  0  0  0  0  0  0
  161.3600  201.7040  150.4340 C   0  0  0  0  0  2  0  0  0  0  0  0
  161.1150  204.0010  147.3820 C   0  0  0  0  0  3  0  0  0  0  0  0
  161.4680  208.5170  153.5560 C   0  0  0  0  0  0  0  0  0  0  0  0
  159.4640  208.0070  155.8180 C   0  0  0  0  0  3  0  0  0  0  0  0
  160.8200  205.3480  151.7570 C   0  0  0  0  0  3  0  0  0  0  0  0
  161.0900  205.2580  147.8950 C   0  0  0  0  0  3  0  0  0  0  0  0
  161.1670  207.2340  153.3750 C   0  0  0  0  0  0  0  0  0  0  0  0
  161.9230  210.6240  154.3250 C   0  0  0  0  0  3  0  0  0  0  0  0
  161.1390  205.7550  149.3190 C   0  0  0  0  0  0  0  0  0  0  0  0
  161.2720  202.7810  148.1330 N   0  0  0  0  0  2  0  0  0  0  0  0
  160.0920  209.3310  155.4240 C   0  0  2  0  0  3  0  0  0  0  0  0
  161.4490  207.5900  150.9080 C   0  0  0  0  0  0  0  0  0  0  0  0
  160.4410  203.4820  150.2000 C   0  0  2  0  0  3  0  0  0  0  0  0
  161.1490  206.7180  152.0240 N   0  0  0  0  0  0  0  0  0  0  0  0
  162.0350  209.3260  148.7240 C   0  0  0  0  0  3  0  0  0  0  0  0
  159.7950  206.7620  155.4260 C   0  0  0  0  0  3  0  0  0  0  0  0
  161.7210  207.9520  148.4540 N   0  0  0  0  0  2  0  0  0  0  0  0
  160.9620  206.3530  154.5680 C   0  0  0  0  0  2  0  0  0  0  0  0
  161.5080  209.2610  154.8400 C   0  0  1  0  0  3  0  0  0  0  0  0
  162.0530  209.7860  149.9800 C   0  0  0  0  0  3  0  0  0  0  0  0
  161.7550  209.3580  152.4660 N   0  0  0  0  0  0  0  0  0  0  0  0
  160.0580  210.2010  156.5160 O   0  0  0  0  0  0  0  0  0  0  0  0
  158.8010  210.8090  156.4560 C   0  0  0  0  0  2  0  0  0  0  0  0
  156.8430  212.9160  154.6810 O   0  0  0  0  0  0  0  0  0  0  0  0
  159.0220  212.8780  155.1230 C   0  0  0  0  0  3  0  0  0  0  0  0
  158.5970  211.4460  155.0930 C   0  0  2  0  0  3  0  0  0  0  0  0
  157.9900  213.6600  154.8830 C   0  0  0  0  0  3  0  0  0  0  0  0
  157.1040  211.5270  154.7890 C   0  0  0  0  0  2  0  0  0  0  0  0
  1 27  1  0  0  0  0
  2 14  2  0  0  0  0
  3 19  1  0  0  0  0
  3  7  1  1  0  0  0
  4 18  1  0  0  0  0
  5 11  2  0  0  0  0
  7  6  1  0  0  0  0
  8 12  2  0  0  0  0
  8 16  1  0  0  0  0
  9 25  1  0  0  0  0
 11 20  1  0  0  0  0
 12 15  1  0  0  0  0
 13  9  2  0  0  0  0
 13 24  1  0  0  0  0
 15  4  2  0  0  0  0
 15  5  1  0  0  0  0
 16  3  1  0  0  0  0
 17 10  1  0  0  0  0
 17 28  1  1  0  0  0
 18  1  2  0  0  0  0
 18 20  1  0  0  0  0
 19  5  1  1  0  0  0
 19  6  1  0  0  0  0
 20 13  1  0  0  0  0
 21 26  2  0  0  0  0
 22 10  2  0  0  0  0
 23 21  1  0  0  0  0
 23  4  1  0  0  0  0
 24 22  1  0  0  0  0
 25 14  1  6  0  0  0
 25 17  1  0  0  0  0
 26  1  1  0  0  0  0
 27  2  1  0  0  0  0
 27  9  1  0  0  0  0
 29 28  1  0  0  0  0
 30 34  1  0  0  0  0
 30 33  1  0  0  0  0
 32 31  1  0  0  0  0
 32 29  1  1  0  0  0
 33 31  2  0  0  0  0
 34 32  1  0  0  0  0
M  END
>  <MODEL>
2

>  <REMARK>
 VINA RESULT:      -8.1      2.067      4.984
  Name = 
  3 active torsions:
  status: ('A' for Active; 'I' for Inactive)
    1  A    between atoms: C_17  and  O_28
    2  A    between atoms: O_28  and  C_29
    3  A    between atoms: C_29  and  C_32
                            x       y       z     vdW  Elec       q    Type
                         _______ _______ _______ _____ _____    ______ ____

>  <TORSDO>
F 3

$$$$
=
 OpenBabel11122414243D

 34 41  0  0  1  0  0  0  0  0999 V2000
  161.5770  208.4220  149.3580 C   0  0  0  0  0  0  0  0  0  0  0  0
  161.2620  207.1530  147.1270 C   0  0  0  0  0  3  0  0  0  0  0  0
  160.1720  208.8340  155.3970 C   0  0  1  0  0  3  0  0  0  0  0  0
  161.7850  209.4020  151.5850 C   0  0  0  0  0  0  0  0  0  0  0  0
  161.2120  207.9390  153.4730 C   0  0  0  0  0  0  0  0  0  0  0  0
  160.4570  206.7220  155.5800 N   0  0  0  0  0  2  0  0  0  0  0  0
  159.6670  207.7290  156.2920 C   0  0  0  0  0  2  0  0  0  0  0  0
  161.7620  210.7030  155.1000 C   0  0  0  0  0  3  0  0  0  0  0  0
  160.8240  206.0710  149.0740 C   0  0  0  0  0  0  0  0  0  0  0  0
  161.5810  203.1210  149.4060 C   0  0  0  0  0  3  0  0  0  0  0  0
  160.9280  206.8960  152.6810 C   0  0  0  0  0  3  0  0  0  0  0  0
  162.0370  210.4340  153.7970 C   0  0  0  0  0  3  0  0  0  0  0  0
  160.7050  205.9020  150.3880 C   0  0  0  0  0  0  0  0  0  0  0  0
  160.8850  205.9150  146.7910 C   0  0  0  0  0  3  0  0  0  0  0  0
  161.6600  209.2660  152.9190 C   0  0  0  0  0  0  0  0  0  0  0  0
  160.9360  209.9100  155.9740 N   0  0  0  0  0  2  0  0  0  0  0  0
  161.6350  203.9490  148.1360 C   0  0  2  0  0  3  0  0  0  0  0  0
  161.4610  208.2750  150.6910 C   0  0  2  0  0  3  0  0  0  0  0  0
  161.1640  207.8250  154.9460 C   0  0  2  0  0  3  0  0  0  0  0  0
  161.0220  207.0150  151.2550 N   0  0  0  0  0  0  0  0  0  0  0  0
  162.3310  210.7430  149.5610 C   0  0  0  0  0  3  0  0  0  0  0  0
  161.0020  203.4150  150.5860 C   0  0  0  0  0  3  0  0  0  0  0  0
  162.2230  210.6320  150.9870 N   0  0  0  0  0  0  0  0  0  0  0  0
  160.1530  204.6130  150.9140 C   0  0  0  0  0  2  0  0  0  0  0  0
  160.5890  205.0640  148.0090 C   0  0  1  0  0  3  0  0  0  0  0  0
  162.0280  209.7050  148.7730 C   0  0  0  0  0  3  0  0  0  0  0  0
  161.2540  207.2980  148.5350 N   0  0  0  0  0  0  0  0  0  0  0  0
  161.5770  203.1000  147.0280 O   0  0  0  0  0  0  0  0  0  0  0  0
  161.8720  201.8300  147.5310 C   0  0  0  0  0  2  0  0  0  0  0  0
  160.4560  200.2730  144.8860 O   0  0  0  0  0  0  0  0  0  0  0  0
  161.4080  199.5310  146.7530 C   0  0  0  0  0  3  0  0  0  0  0  0
  160.7950  200.8440  147.1140 C   0  0  2  0  0  3  0  0  0  0  0  0
  161.1830  199.2610  145.4830 C   0  0  0  0  0  3  0  0  0  0  0  0
  160.1600  201.3090  145.8070 C   0  0  0  0  0  2  0  0  0  0  0  0
  2 27  1  0  0  0  0
  3 16  1  0  0  0  0
  3  7  1  1  0  0  0
  4 15  2  0  0  0  0
  6  7  1  0  0  0  0
  8 16  1  0  0  0  0
  9 13  2  0  0  0  0
 10 22  2  0  0  0  0
 11  5  2  0  0  0  0
 12  8  2  0  0  0  0
 13 24  1  0  0  0  0
 13 20  1  0  0  0  0
 14  2  2  0  0  0  0
 15  5  1  0  0  0  0
 15 12  1  0  0  0  0
 17 28  1  6  0  0  0
 17 10  1  0  0  0  0
 18  1  1  1  0  0  0
 18 20  1  0  0  0  0
 18  4  1  0  0  0  0
 19  5  1  6  0  0  0
 19  3  1  0  0  0  0
 19  6  1  0  0  0  0
 20 11  1  0  0  0  0
 21 23  2  0  0  0  0
 22 24  1  0  0  0  0
 23  4  1  0  0  0  0
 25 14  1  6  0  0  0
 25 17  1  0  0  0  0
 25  9  1  0  0  0  0
 26  1  2  0  0  0  0
 26 21  1  0  0  0  0
 27  9  1  0  0  0  0
 27  1  1  0  0  0  0
 28 29  1  0  0  0  0
 30 33  1  0  0  0  0
 30 34  1  0  0  0  0
 31 32  1  0  0  0  0
 32 29  1  6  0  0  0
 33 31  2  0  0  0  0
 34 32  1  0  0  0  0
M  END
>  <MODEL>
3

>  <REMARK>
 VINA RESULT:      -7.4      3.209      9.141
  Name = 
  3 active torsions:
  status: ('A' for Active; 'I' for Inactive)
    1  A    between atoms: C_17  and  O_28
    2  A    between atoms: O_28  and  C_29
    3  A    between atoms: C_29  and  C_32
                            x       y       z     vdW  Elec       q    Type
                         _______ _______ _______ _____ _____    ______ ____

>  <TORSDO>
F 3

$$$$
=
 OpenBabel11122414243D

 34 41  0  0  1  0  0  0  0  0999 V2000
  161.7800  208.0770  149.9850 C   0  0  0  0  0  0  0  0  0  0  0  0
  162.2460  210.0020  151.6480 C   0  0  0  0  0  3  0  0  0  0  0  0
  161.5640  201.9470  148.9940 C   0  0  1  0  0  3  0  0  0  0  0  0
  161.3160  206.1010  148.6270 C   0  0  0  0  0  0  0  0  0  0  0  0
  160.8450  204.0270  149.8550 C   0  0  0  0  0  0  0  0  0  0  0  0
  160.5590  201.7060  150.8660 N   0  0  0  0  0  2  0  0  0  0  0  0
  161.4150  200.8610  150.0310 C   0  0  0  0  0  2  0  0  0  0  0  0
  160.8220  202.8560  146.8180 C   0  0  0  0  0  3  0  0  0  0  0  0
  161.7610  207.9420  152.4670 C   0  0  0  0  0  0  0  0  0  0  0  0
  160.0120  207.6440  154.9650 C   0  0  0  0  0  3  0  0  0  0  0  0
  160.9700  204.6130  151.0530 C   0  0  0  0  0  3  0  0  0  0  0  0
  160.8350  204.1570  147.2100 C   0  0  0  0  0  3  0  0  0  0  0  0
  161.4600  206.6460  152.4400 C   0  0  0  0  0  0  0  0  0  0  0  0
  162.2670  210.1130  152.9800 C   0  0  0  0  0  3  0  0  0  0  0  0
  161.0260  204.7870  148.5670 C   0  0  0  0  0  0  0  0  0  0  0  0
  161.0730  201.7140  147.6600 N   0  0  0  0  0  2  0  0  0  0  0  0
  160.5780  208.9260  154.3830 C   0  0  2  0  0  3  0  0  0  0  0  0
  161.4780  206.7660  149.9340 C   0  0  0  0  0  0  0  0  0  0  0  0
  160.4540  202.6070  149.7280 C   0  0  2  0  0  3  0  0  0  0  0  0
  161.3080  206.0030  151.1530 N   0  0  0  0  0  0  0  0  0  0  0  0
  161.8100  208.2880  147.5460 C   0  0  0  0  0  3  0  0  0  0  0  0
  160.3160  206.3680  154.6600 C   0  0  0  0  0  3  0  0  0  0  0  0
  161.4870  206.8940  147.4420 N   0  0  0  0  0  2  0  0  0  0  0  0
  161.3920  205.8820  153.7260 C   0  0  0  0  0  2  0  0  0  0  0  0
  161.9270  208.8050  153.6630 C   0  0  1  0  0  3  0  0  0  0  0  0
  161.9520  208.8650  148.7440 C   0  0  0  0  0  3  0  0  0  0  0  0
  161.9220  208.6760  151.2770 N   0  0  0  0  0  0  0  0  0  0  0  0
  160.6480  209.8960  155.3860 O   0  0  0  0  0  0  0  0  0  0  0  0
  159.3510  210.4070  155.4850 C   0  0  0  0  0  2  0  0  0  0  0  0
  157.3950  212.8630  154.2350 O   0  0  0  0  0  0  0  0  0  0  0  0
  159.5960  212.5510  154.2810 C   0  0  0  0  0  3  0  0  0  0  0  0
  159.0010  211.1820  154.2280 C   0  0  2  0  0  3  0  0  0  0  0  0
  158.6410  213.4590  154.2820 C   0  0  0  0  0  3  0  0  0  0  0  0
  157.4990  211.4510  154.1980 C   0  0  0  0  0  2  0  0  0  0  0  0
  1 27  1  0  0  0  0
  2 14  2  0  0  0  0
  3 19  1  0  0  0  0
  3  7  1  1  0  0  0
  4 18  1  0  0  0  0
  5 11  2  0  0  0  0
  7  6  1  0  0  0  0
  8 12  2  0  0  0  0
  8 16  1  0  0  0  0
  9 25  1  0  0  0  0
 11 20  1  0  0  0  0
 12 15  1  0  0  0  0
 13  9  2  0  0  0  0
 13 24  1  0  0  0  0
 15  4  2  0  0  0  0
 15  5  1  0  0  0  0
 16  3  1  0  0  0  0
 17 10  1  0  0  0  0
 17 28  1  1  0  0  0
 18  1  2  0  0  0  0
 18 20  1  0  0  0  0
 19  5  1  1  0  0  0
 19  6  1  0  0  0  0
 20 13  1  0  0  0  0
 21 26  2  0  0  0  0
 22 10  2  0  0  0  0
 23 21  1  0  0  0  0
 23  4  1  0  0  0  0
 24 22  1  0  0  0  0
 25 14  1  6  0  0  0
 25 17  1  0  0  0  0
 26  1  1  0  0  0  0
 27  2  1  0  0  0  0
 27  9  1  0  0  0  0
 28 29  1  0  0  0  0
 30 33  1  0  0  0  0
 31 33  2  0  0  0  0
 32 31  1  0  0  0  0
 32 29  1  1  0  0  0
 34 32  1  0  0  0  0
 34 30  1  0  0  0  0
M  END
>  <MODEL>
4

>  <REMARK>
 VINA RESULT:      -7.4      1.723      4.303
  Name = 
  3 active torsions:
  status: ('A' for Active; 'I' for Inactive)
    1  A    between atoms: C_17  and  O_28
    2  A    between atoms: O_28  and  C_29
    3  A    between atoms: C_29  and  C_32
                            x       y       z     vdW  Elec       q    Type
                         _______ _______ _______ _____ _____    ______ ____

>  <TORSDO>
F 3

$$$$
=
 OpenBabel11122414243D

 34 41  0  0  1  0  0  0  0  0999 V2000
  160.6560  207.9560  154.2380 C   0  0  0  0  0  0  0  0  0  0  0  0
  161.7970  205.6880  153.7480 C   0  0  0  0  0  3  0  0  0  0  0  0
  159.7430  213.8480  152.4880 C   0  0  1  0  0  3  0  0  0  0  0  0
  159.6220  210.1590  154.4450 C   0  0  0  0  0  0  0  0  0  0  0  0
  159.5020  211.5000  152.3900 C   0  0  0  0  0  0  0  0  0  0  0  0
  159.4630  213.1800  150.4760 N   0  0  0  0  0  2  0  0  0  0  0  0
  159.9120  214.4240  151.1040 C   0  0  0  0  0  2  0  0  0  0  0  0
  158.3260  213.6750  154.5070 C   0  0  0  0  0  3  0  0  0  0  0  0
  161.5190  207.1630  152.0460 C   0  0  0  0  0  0  0  0  0  0  0  0
  160.7660  206.1690  149.2470 C   0  0  0  0  0  3  0  0  0  0  0  0
  160.0810  210.5510  151.6430 C   0  0  0  0  0  3  0  0  0  0  0  0
  158.5540  212.3520  154.7120 C   0  0  0  0  0  3  0  0  0  0  0  0
  161.1530  208.2910  151.4410 C   0  0  0  0  0  0  0  0  0  0  0  0
  162.3000  205.1010  152.6570 C   0  0  0  0  0  3  0  0  0  0  0  0
  159.2540  211.3180  153.8650 C   0  0  0  0  0  0  0  0  0  0  0  0
  158.7940  214.4530  153.3880 N   0  0  0  0  0  2  0  0  0  0  0  0
  161.1590  205.3310  150.4480 C   0  0  2  0  0  3  0  0  0  0  0  0
  160.2800  209.1070  153.6480 C   0  0  2  0  0  3  0  0  0  0  0  0
  159.0100  212.7590  151.7940 C   0  0  2  0  0  3  0  0  0  0  0  0
  160.5130  209.3180  152.2340 N   0  0  0  0  0  0  0  0  0  0  0  0
  159.8220  208.6670  156.4270 C   0  0  0  0  0  3  0  0  0  0  0  0
  160.8650  207.5010  149.0740 C   0  0  0  0  0  3  0  0  0  0  0  0
  159.4030  209.9090  155.8420 N   0  0  0  0  0  0  0  0  0  0  0  0
  161.5050  208.4990  150.0020 C   0  0  0  0  0  2  0  0  0  0  0  0
  162.1510  205.9720  151.4260 C   0  0  1  0  0  3  0  0  0  0  0  0
  160.4180  207.7310  155.6810 C   0  0  0  0  0  3  0  0  0  0  0  0
  161.2850  206.9650  153.4190 N   0  0  0  0  0  0  0  0  0  0  0  0
  161.6400  204.0940  150.0100 O   0  0  0  0  0  0  0  0  0  0  0  0
  160.8270  203.7540  148.9260 C   0  0  0  0  0  2  0  0  0  0  0  0
  160.6290  202.0120  146.0370 O   0  0  0  0  0  0  0  0  0  0  0  0
  161.7920  203.8040  146.6510 C   0  0  0  0  0  3  0  0  0  0  0  0
  161.6330  202.9880  147.8920 C   0  0  2  0  0  3  0  0  0  0  0  0
  161.2060  203.2020  145.6360 C   0  0  0  0  0  3  0  0  0  0  0  0
  160.8320  201.7780  147.4190 C   0  0  0  0  0  2  0  0  0  0  0  0
  1 26  2  0  0  0  0
  3  7  1  6  0  0  0
  3 16  1  0  0  0  0
  4 23  1  0  0  0  0
  5 15  1  0  0  0  0
  6  7  1  0  0  0  0
  8 12  2  0  0  0  0
  9 27  1  0  0  0  0
 10 17  1  0  0  0  0
 11 20  1  0  0  0  0
 11  5  2  0  0  0  0
 13  9  2  0  0  0  0
 13 20  1  0  0  0  0
 14  2  2  0  0  0  0
 15  4  2  0  0  0  0
 15 12  1  0  0  0  0
 16  8  1  0  0  0  0
 17 28  1  6  0  0  0
 17 25  1  0  0  0  0
 18  1  1  6  0  0  0
 18  4  1  0  0  0  0
 19  6  1  6  0  0  0
 19  5  1  0  0  0  0
 19  3  1  0  0  0  0
 20 18  1  0  0  0  0
 22 10  2  0  0  0  0
 22 24  1  0  0  0  0
 23 21  2  0  0  0  0
 24 13  1  0  0  0  0
 25  9  1  0  0  0  0
 25 14  1  1  0  0  0
 26 21  1  0  0  0  0
 27  2  1  0  0  0  0
 27  1  1  0  0  0  0
 29 28  1  0  0  0  0
 30 34  1  0  0  0  0
 31 32  1  0  0  0  0
 32 29  1  1  0  0  0
 33 30  1  0  0  0  0
 33 31  2  0  0  0  0
 34 32  1  0  0  0  0
M  END
>  <MODEL>
5

>  <REMARK>
 VINA RESULT:      -7.1      3.564      8.972
  Name = 
  3 active torsions:
  status: ('A' for Active; 'I' for Inactive)
    1  A    between atoms: C_17  and  O_28
    2  A    between atoms: O_28  and  C_29
    3  A    between atoms: C_29  and  C_32
                            x       y       z     vdW  Elec       q    Type
                         _______ _______ _______ _____ _____    ______ ____

>  <TORSDO>
F 3

$$$$
=
 OpenBabel11122414243D

 34 41  0  0  1  0  0  0  0  0999 V2000
  161.8220  207.7060  149.5570 C   0  0  0  0  0  0  0  0  0  0  0  0
  162.3060  209.7530  151.0620 C   0  0  0  0  0  3  0  0  0  0  0  0
  161.5810  201.5180  149.0470 C   0  0  1  0  0  3  0  0  0  0  0  0
  161.3420  205.6320  148.3600 C   0  0  0  0  0  0  0  0  0  0  0  0
  160.8740  203.6610  149.7490 C   0  0  0  0  0  0  0  0  0  0  0  0
  160.5910  201.4270  150.9400 N   0  0  0  0  0  2  0  0  0  0  0  0
  161.4380  200.5170  150.1660 C   0  0  0  0  0  2  0  0  0  0  0  0
  160.8240  202.2580  146.8130 C   0  0  0  0  0  3  0  0  0  0  0  0
  161.8230  207.7640  152.0410 C   0  0  0  0  0  0  0  0  0  0  0  0
  160.0940  207.6670  154.5690 C   0  0  0  0  0  3  0  0  0  0  0  0
  161.0110  204.3380  150.8970 C   0  0  0  0  0  3  0  0  0  0  0  0
  160.8440  203.5850  147.1020 C   0  0  0  0  0  3  0  0  0  0  0  0
  161.5180  206.4710  152.1180 C   0  0  0  0  0  0  0  0  0  0  0  0
  162.3390  209.9670  152.3810 C   0  0  0  0  0  3  0  0  0  0  0  0
  161.0470  204.3180  148.4050 C   0  0  0  0  0  0  0  0  0  0  0  0
  161.0790  201.1840  147.7390 N   0  0  0  0  0  2  0  0  0  0  0  0
  160.6580  208.8970  153.8850 C   0  0  2  0  0  3  0  0  0  0  0  0
  161.5160  206.3960  149.6100 C   0  0  0  0  0  0  0  0  0  0  0  0
  160.4790  202.2360  149.7360 C   0  0  2  0  0  3  0  0  0  0  0  0
  161.3530  205.7310  150.8860 N   0  0  0  0  0  0  0  0  0  0  0  0
  161.8320  207.7270  147.1090 C   0  0  0  0  0  3  0  0  0  0  0  0
  160.3910  206.3700  154.3620 C   0  0  0  0  0  3  0  0  0  0  0  0
  161.5050  206.3290  147.1160 N   0  0  0  0  0  2  0  0  0  0  0  0
  161.4580  205.8090  153.4600 C   0  0  0  0  0  2  0  0  0  0  0  0
  162.0000  208.7160  153.1660 C   0  0  1  0  0  3  0  0  0  0  0  0
  161.9860  208.3940  148.2570 C   0  0  0  0  0  3  0  0  0  0  0  0
  161.9760  208.4030  150.7970 N   0  0  0  0  0  0  0  0  0  0  0  0
  160.7390  209.9420  154.8090 O   0  0  0  0  0  0  0  0  0  0  0  0
  160.0790  209.4710  155.9470 C   0  0  0  0  0  2  0  0  0  0  0  0
  163.2010  209.8530  157.1840 O   0  0  0  0  0  0  0  0  0  0  0  0
  161.4360  211.2000  157.0760 C   0  0  0  0  0  3  0  0  0  0  0  0
  160.8760  209.8200  157.1910 C   0  0  2  0  0  3  0  0  0  0  0  0
  162.7530  211.1560  157.0790 C   0  0  0  0  0  3  0  0  0  0  0  0
  162.1210  208.9400  157.2610 C   0  0  0  0  0  2  0  0  0  0  0  0
  1 18  2  0  0  0  0
  1 27  1  0  0  0  0
  2 14  2  0  0  0  0
  3 19  1  0  0  0  0
  3  7  1  1  0  0  0
  4 15  2  0  0  0  0
  4 18  1  0  0  0  0
  5 11  2  0  0  0  0
  7  6  1  0  0  0  0
  8 12  2  0  0  0  0
  8 16  1  0  0  0  0
  9 13  2  0  0  0  0
  9 25  1  0  0  0  0
 12 15  1  0  0  0  0
 13 24  1  0  0  0  0
 15  5  1  0  0  0  0
 16  3  1  0  0  0  0
 17 10  1  0  0  0  0
 17 28  1  1  0  0  0
 18 20  1  0  0  0  0
 19  5  1  1  0  0  0
 19  6  1  0  0  0  0
 20 11  1  0  0  0  0
 20 13  1  0  0  0  0
 21 23  1  0  0  0  0
 21 26  2  0  0  0  0
 22 10  2  0  0  0  0
 23  4  1  0  0  0  0
 24 22  1  0  0  0  0
 25 14  1  6  0  0  0
 25 17  1  0  0  0  0
 26  1  1  0  0  0  0
 27  2  1  0  0  0  0
 27  9  1  0  0  0  0
 28 29  1  0  0  0  0
 30 34  1  0  0  0  0
 31 33  2  0  0  0  0
 31 32  1  0  0  0  0
 32 29  1  6  0  0  0
 32 34  1  0  0  0  0
 33 30  1  0  0  0  0
M  END
>  <MODEL>
6

>  <REMARK>
 VINA RESULT:      -6.8      1.800      4.298
  Name = 
  3 active torsions:
  status: ('A' for Active; 'I' for Inactive)
    1  A    between atoms: C_17  and  O_28
    2  A    between atoms: O_28  and  C_29
    3  A    between atoms: C_29  and  C_32
                            x       y       z     vdW  Elec       q    Type
                         _______ _______ _______ _____ _____    ______ ____

>  <TORSDO>
F 3

$$$$
=
 OpenBabel11122414243D

 34 41  0  0  1  0  0  0  0  0999 V2000
  161.8070  209.6640  150.4450 C   0  0  0  0  0  0  0  0  0  0  0  0
  162.3230  211.0240  148.3060 C   0  0  0  0  0  3  0  0  0  0  0  0
  160.3700  209.7510  156.4900 C   0  0  1  0  0  3  0  0  0  0  0  0
  161.2110  208.6020  152.5620 C   0  0  0  0  0  0  0  0  0  0  0  0
  159.9890  210.0000  154.1710 C   0  0  0  0  0  0  0  0  0  0  0  0
  158.9340  211.2870  156.0990 N   0  0  0  0  0  2  0  0  0  0  0  0
  159.7330  210.8820  157.2580 C   0  0  0  0  0  2  0  0  0  0  0  0
  160.3880  207.3300  155.9900 C   0  0  0  0  0  3  0  0  0  0  0  0
  161.1870  212.0280  149.9950 C   0  0  0  0  0  0  0  0  0  0  0  0
  158.8910  213.9610  149.3760 C   0  0  0  0  0  3  0  0  0  0  0  0
  159.9720  211.0630  153.3560 C   0  0  0  0  0  3  0  0  0  0  0  0
  160.6200  207.4740  154.6590 C   0  0  0  0  0  3  0  0  0  0  0  0
  160.5990  212.1490  151.1830 C   0  0  0  0  0  0  0  0  0  0  0  0
  162.0640  212.2690  147.8950 C   0  0  0  0  0  3  0  0  0  0  0  0
  160.6380  208.6980  153.7770 C   0  0  0  0  0  0  0  0  0  0  0  0
  160.1580  208.3970  156.9320 N   0  0  0  0  0  2  0  0  0  0  0  0
  159.8640  213.3400  148.3920 C   0  0  2  0  0  3  0  0  0  0  0  0
  161.2220  209.7640  151.6530 C   0  0  2  0  0  3  0  0  0  0  0  0
  159.3120  210.0230  155.4850 C   0  0  2  0  0  3  0  0  0  0  0  0
  160.5990  211.0040  152.0670 N   0  0  0  0  0  0  0  0  0  0  0  0
  162.4460  207.3300  150.8160 C   0  0  0  0  0  3  0  0  0  0  0  0
  158.9430  213.9810  150.7220 C   0  0  0  0  0  3  0  0  0  0  0  0
  161.8330  207.3890  152.1120 N   0  0  0  0  0  0  0  0  0  0  0  0
  160.0580  213.4800  151.6010 C   0  0  0  0  0  2  0  0  0  0  0  0
  161.2730  213.0510  148.9230 C   0  0  1  0  0  3  0  0  0  0  0  0
  162.4430  208.4000  150.0130 C   0  0  0  0  0  3  0  0  0  0  0  0
  161.7870  210.8180  149.6000 N   0  0  0  0  0  0  0  0  0  0  0  0
  159.9300  214.1350  147.2450 O   0  0  0  0  0  0  0  0  0  0  0  0
  158.8940  213.6780  146.4270 C   0  0  0  0  0  2  0  0  0  0  0  0
  161.3190  213.1570  144.1320 O   0  0  0  0  0  0  0  0  0  0  0  0
  159.1820  212.5530  144.2460 C   0  0  0  0  0  3  0  0  0  0  0  0
  159.2660  213.8590  144.9670 C   0  0  2  0  0  3  0  0  0  0  0  0
  160.3720  212.2090  143.7960 C   0  0  0  0  0  3  0  0  0  0  0  0
  160.7430  214.2270  144.8610 C   0  0  0  0  0  2  0  0  0  0  0  0
  2 27  1  0  0  0  0
  3 16  1  0  0  0  0
  3  7  1  1  0  0  0
  4 15  2  0  0  0  0
  6  7  1  0  0  0  0
  8 16  1  0  0  0  0
  9 13  2  0  0  0  0
 10 22  2  0  0  0  0
 11  5  2  0  0  0  0
 12  8  2  0  0  0  0
 13 24  1  0  0  0  0
 13 20  1  0  0  0  0
 14  2  2  0  0  0  0
 15  5  1  0  0  0  0
 15 12  1  0  0  0  0
 17 28  1  6  0  0  0
 17 25  1  0  0  0  0
 17 10  1  0  0  0  0
 18  1  1  6  0  0  0
 18 20  1  0  0  0  0
 18  4  1  0  0  0  0
 19  5  1  6  0  0  0
 19  6  1  0  0  0  0
 19  3  1  0  0  0  0
 20 11  1  0  0  0  0
 21 23  2  0  0  0  0
 22 24  1  0  0  0  0
 23  4  1  0  0  0  0
 25 14  1  6  0  0  0
 25  9  1  0  0  0  0
 26  1  2  0  0  0  0
 26 21  1  0  0  0  0
 27  9  1  0  0  0  0
 27  1  1  0  0  0  0
 29 28  1  0  0  0  0
 30 34  1  0  0  0  0
 31 32  1  0  0  0  0
 32 29  1  1  0  0  0
 33 30  1  0  0  0  0
 33 31  2  0  0  0  0
 34 32  1  0  0  0  0
M  END
>  <MODEL>
7

>  <REMARK>
 VINA RESULT:      -6.2      5.086      8.970
  Name = 
  3 active torsions:
  status: ('A' for Active; 'I' for Inactive)
    1  A    between atoms: C_17  and  O_28
    2  A    between atoms: O_28  and  C_29
    3  A    between atoms: C_29  and  C_32
                            x       y       z     vdW  Elec       q    Type
                         _______ _______ _______ _____ _____    ______ ____

>  <TORSDO>
F 3

$$$$
