=
 OpenBabel11122412343D

 30 35  0  0  1  0  0  0  0  0999 V2000
  161.0900  204.8220  148.6010 C   0  0  1  0  0  3  0  0  0  0  0  0
  161.0580  202.3320  148.0180 C   0  0  0  0  0  0  0  0  0  0  0  0
  161.1670  203.8790  152.5990 N   0  0  0  0  0  0  0  0  0  0  0  0
  161.4570  205.7960  149.7530 C   0  0  1  0  0  3  0  0  0  0  0  0
  161.9610  205.0380  147.5150 O   0  0  0  0  0  0  0  0  0  0  0  0
  161.6720  208.6650  147.5000 O   0  0  0  0  0  1  0  0  0  0  0  0
  160.6370  208.5250  151.2980 C   0  0  1  0  0  3  0  0  0  0  0  0
  161.9920  207.4130  148.0330 C   0  0  2  0  0  3  0  0  0  0  0  0
  160.5100  207.5550  152.4770 C   0  0  2  0  0  3  0  0  0  0  0  0
  161.2100  205.1840  153.1410 C   0  0  0  0  0  0  0  0  0  0  0  0
  161.6980  206.3230  146.9910 C   0  0  2  0  0  3  0  0  0  0  0  0
  161.2490  207.1850  149.2850 N   0  0  2  0  0  0  0  0  0  0  0  0
  161.0090  200.9870  148.4020 C   0  0  0  0  0  3  0  0  0  0  0  0
  161.2910  208.2000  153.6030 C   0  0  0  0  0  2  0  0  0  0  0  0
  160.9230  209.8910  151.9050 C   0  0  0  0  0  2  0  0  0  0  0  0
  161.1060  202.6360  146.6630 O   0  0  0  0  0  1  0  0  0  0  0  0
  160.8350  204.0450  151.3620 C   0  0  0  0  0  0  0  0  0  0  0  0
  160.9270  200.6410  149.7510 C   0  0  0  0  0  3  0  0  0  0  0  0
  161.0530  203.3510  148.9960 C   0  0  0  0  0  0  0  0  0  0  0  0
  160.5880  205.4710  150.9740 C   0  0  1  0  0  3  0  0  0  0  0  0
  161.4230  205.4100  154.3610 O   0  0  0  0  0  0  0  0  0  0  0  0
  160.9880  206.2050  152.1700 N   0  0  0  0  0  0  0  0  0  0  0  0
  161.1100  209.6870  153.3980 C   0  0  0  0  0  2  0  0  0  0  0  0
  163.1170  207.9090  150.8350 C   0  0  0  0  0  1  0  0  0  0  0  0
  160.8740  201.6370  150.7250 C   0  0  0  0  0  3  0  0  0  0  0  0
  160.9120  202.9860  150.3530 C   0  0  0  0  0  0  0  0  0  0  0  0
  161.7190  208.1810  150.2630 C   0  0  2  0  0  3  0  0  0  0  0  0
  160.3880  206.4140  146.5010 O   0  0  0  0  0  0  0  0  0  0  0  0
  160.3970  204.9400  144.6370 C   0  0  0  0  0  1  0  0  0  0  0  0
  160.5200  206.3720  145.1130 C   0  0  0  0  0  2  0  0  0  0  0  0
  1  5  1  6  0  0  0
  1 19  1  0  0  0  0
  1  4  1  0  0  0  0
  2 13  2  0  0  0  0
  2 19  1  0  0  0  0
  3 10  1  0  0  0  0
  4 20  1  0  0  0  0
  6  8  1  0  0  0  0
  7 15  1  0  0  0  0
  7  9  1  0  0  0  0
  8 12  1  0  0  0  0
  9 14  1  0  0  0  0
 10 21  2  0  0  0  0
 11  5  1  0  0  0  0
 11  8  1  0  0  0  0
 12  4  1  0  0  0  0
 12 27  1  0  0  0  0
 13 18  1  0  0  0  0
 15 23  1  0  0  0  0
 16  2  1  0  0  0  0
 17  3  2  0  0  0  0
 18 25  2  0  0  0  0
 19 26  2  0  0  0  0
 20 17  1  0  0  0  0
 20 22  1  0  0  0  0
 22  9  1  0  0  0  0
 22 10  1  0  0  0  0
 23 14  1  0  0  0  0
 26 25  1  0  0  0  0
 26 17  1  0  0  0  0
 27 24  1  0  0  0  0
 27  7  1  0  0  0  0
 28 11  1  0  0  0  0
 29 30  1  0  0  0  0
 30 28  1  0  0  0  0
M  END
>  <MODEL>
1

>  <REMARK>
 VINA RESULT:      -8.2      0.000      0.000
  Name = 
  2 active torsions:
  status: ('A' for Active; 'I' for Inactive)
    1  A    between atoms: C_11  and  O_28
    2  A    between atoms: O_28  and  C_30
                            x       y       z     vdW  Elec       q    Type
                         _______ _______ _______ _____ _____    ______ ____

>  <TORSDO>
F 2

$$$$
=
 OpenBabel11122412343D

 30 35  0  0  1  0  0  0  0  0999 V2000
  161.1920  205.6830  149.5040 C   0  0  1  0  0  3  0  0  0  0  0  0
  161.2620  203.1450  149.1950 C   0  0  0  0  0  0  0  0  0  0  0  0
  161.1620  205.1800  153.5820 N   0  0  0  0  0  0  0  0  0  0  0  0
  161.4870  206.7880  150.5540 C   0  0  1  0  0  3  0  0  0  0  0  0
  162.0930  205.8130  148.4280 O   0  0  0  0  0  0  0  0  0  0  0  0
  161.6860  209.4040  148.0100 O   0  0  0  0  0  1  0  0  0  0  0  0
  160.5260  209.6370  151.7670 C   0  0  1  0  0  3  0  0  0  0  0  0
  162.0280  208.2290  148.6850 C   0  0  2  0  0  3  0  0  0  0  0  0
  160.3890  208.7950  153.0390 C   0  0  2  0  0  3  0  0  0  0  0  0
  161.1430  206.5360  153.9790 C   0  0  0  0  0  0  0  0  0  0  0  0
  161.8070  207.0230  147.7600 C   0  0  2  0  0  3  0  0  0  0  0  0
  161.2500  208.1100  149.9310 N   0  0  2  0  0  0  0  0  0  0  0  0
  161.2440  201.8490  149.7220 C   0  0  0  0  0  3  0  0  0  0  0  0
  161.1100  209.5850  154.1120 C   0  0  0  0  0  2  0  0  0  0  0  0
  160.7450  211.0690  152.2290 C   0  0  0  0  0  2  0  0  0  0  0  0
  161.3470  203.3030  147.8170 O   0  0  0  0  0  1  0  0  0  0  0  0
  160.8680  205.2000  152.3240 C   0  0  0  0  0  0  0  0  0  0  0  0
  161.1270  201.6470  151.0970 C   0  0  0  0  0  3  0  0  0  0  0  0
  161.1900  204.2620  150.0560 C   0  0  0  0  0  0  0  0  0  0  0  0
  160.5870  206.5650  151.7750 C   0  0  1  0  0  3  0  0  0  0  0  0
  161.3060  206.9000  155.1730 O   0  0  0  0  0  0  0  0  0  0  0  0
  160.9220  207.4380  152.8960 N   0  0  0  0  0  0  0  0  0  0  0  0
  160.8870  211.0340  153.7410 C   0  0  0  0  0  2  0  0  0  0  0  0
  163.0390  209.0640  151.4500 C   0  0  0  0  0  1  0  0  0  0  0  0
  161.0070  202.7400  151.9550 C   0  0  0  0  0  3  0  0  0  0  0  0
  161.0140  204.0410  151.4400 C   0  0  0  0  0  0  0  0  0  0  0  0
  161.6530  209.2230  150.8090 C   0  0  2  0  0  3  0  0  0  0  0  0
  160.5110  207.0130  147.2220 O   0  0  0  0  0  0  0  0  0  0  0  0
  162.0650  206.0300  145.7170 C   0  0  0  0  0  1  0  0  0  0  0  0
  160.6070  206.2320  146.0710 C   0  0  0  0  0  2  0  0  0  0  0  0
  1  5  1  6  0  0  0
  1 19  1  0  0  0  0
  1  4  1  0  0  0  0
  2 13  2  0  0  0  0
  2 19  1  0  0  0  0
  3 10  1  0  0  0  0
  4 20  1  0  0  0  0
  6  8  1  0  0  0  0
  7 15  1  0  0  0  0
  7  9  1  0  0  0  0
  8 12  1  0  0  0  0
  9 14  1  0  0  0  0
 10 21  2  0  0  0  0
 11  5  1  0  0  0  0
 11  8  1  0  0  0  0
 12  4  1  0  0  0  0
 12 27  1  0  0  0  0
 13 18  1  0  0  0  0
 15 23  1  0  0  0  0
 16  2  1  0  0  0  0
 17  3  2  0  0  0  0
 18 25  2  0  0  0  0
 19 26  2  0  0  0  0
 20 17  1  0  0  0  0
 20 22  1  0  0  0  0
 22  9  1  0  0  0  0
 22 10  1  0  0  0  0
 23 14  1  0  0  0  0
 26 25  1  0  0  0  0
 26 17  1  0  0  0  0
 27 24  1  0  0  0  0
 27  7  1  0  0  0  0
 28 11  1  0  0  0  0
 29 30  1  0  0  0  0
 30 28  1  0  0  0  0
M  END
>  <MODEL>
2

>  <REMARK>
 VINA RESULT:      -7.1      1.163      1.398
  Name = 
  2 active torsions:
  status: ('A' for Active; 'I' for Inactive)
    1  A    between atoms: C_11  and  O_28
    2  A    between atoms: O_28  and  C_30
                            x       y       z     vdW  Elec       q    Type
                         _______ _______ _______ _____ _____    ______ ____

>  <TORSDO>
F 2

$$$$
=
 OpenBabel11122412343D

 30 35  0  0  1  0  0  0  0  0999 V2000
  161.3200  207.7880  151.5290 C   0  0  1  0  0  3  0  0  0  0  0  0
  161.8080  210.2410  150.9890 C   0  0  0  0  0  0  0  0  0  0  0  0
  161.9500  206.8040  147.5890 N   0  0  0  0  0  0  0  0  0  0  0  0
  161.5530  206.3550  150.9810 C   0  0  1  0  0  3  0  0  0  0  0  0
  162.0240  207.9420  152.7390 O   0  0  0  0  0  0  0  0  0  0  0  0
  160.9180  204.8140  154.2330 O   0  0  0  0  0  1  0  0  0  0  0  0
  160.2680  203.4010  150.6150 C   0  0  1  0  0  3  0  0  0  0  0  0
  161.5580  205.6210  153.2870 C   0  0  2  0  0  3  0  0  0  0  0  0
  160.4650  203.7430  149.1350 C   0  0  2  0  0  3  0  0  0  0  0  0
  161.7400  205.4080  147.6670 C   0  0  0  0  0  0  0  0  0  0  0  0
  161.4330  207.0950  153.7010 C   0  0  2  0  0  3  0  0  0  0  0  0
  160.9950  205.3810  151.9460 N   0  0  2  0  0  0  0  0  0  0  0  0
  162.0980  211.2560  150.0710 C   0  0  0  0  0  3  0  0  0  0  0  0
  161.1720  202.5400  148.5440 C   0  0  0  0  0  2  0  0  0  0  0  0
  160.2860  201.8820  150.7030 C   0  0  0  0  0  2  0  0  0  0  0  0
  161.6690  210.5750  152.3310 O   0  0  0  0  0  1  0  0  0  0  0  0
  161.4850  207.2700  148.7010 C   0  0  0  0  0  0  0  0  0  0  0  0
  162.2120  210.9660  148.7110 C   0  0  0  0  0  3  0  0  0  0  0  0
  161.6540  208.9080  150.5490 C   0  0  0  0  0  0  0  0  0  0  0  0
  160.8870  206.2350  149.6040 C   0  0  1  0  0  3  0  0  0  0  0  0
  161.9990  204.6260  146.7150 O   0  0  0  0  0  0  0  0  0  0  0  0
  161.2100  204.9860  148.9220 N   0  0  0  0  0  0  0  0  0  0  0  0
  160.6400  201.3580  149.3220 C   0  0  0  0  0  2  0  0  0  0  0  0
  162.7750  203.7370  151.2050 C   0  0  0  0  0  1  0  0  0  0  0  0
  162.0160  209.6630  148.2570 C   0  0  0  0  0  3  0  0  0  0  0  0
  161.7150  208.6410  149.1630 C   0  0  0  0  0  0  0  0  0  0  0  0
  161.3080  203.9880  151.5810 C   0  0  2  0  0  3  0  0  0  0  0  0
  160.0990  207.4530  153.9440 O   0  0  0  0  0  0  0  0  0  0  0  0
  159.7920  207.3390  156.2970 C   0  0  0  0  0  1  0  0  0  0  0  0
  160.1390  208.2150  155.1120 C   0  0  0  0  0  2  0  0  0  0  0  0
  1 19  1  6  0  0  0
  1  5  1  0  0  0  0
  2 16  1  0  0  0  0
  3 10  1  0  0  0  0
  3 17  2  0  0  0  0
  4  1  1  0  0  0  0
  4 12  1  0  0  0  0
  5 11  1  0  0  0  0
  7 15  1  0  0  0  0
  7 27  1  0  0  0  0
  8 11  1  0  0  0  0
  8  6  1  0  0  0  0
  9  7  1  0  0  0  0
 10 22  1  0  0  0  0
 11 28  1  0  0  0  0
 12  8  1  0  0  0  0
 13  2  2  0  0  0  0
 14  9  1  0  0  0  0
 14 23  1  0  0  0  0
 17 26  1  0  0  0  0
 17 20  1  0  0  0  0
 18 13  1  0  0  0  0
 19  2  1  0  0  0  0
 20  4  1  0  0  0  0
 21 10  2  0  0  0  0
 22  9  1  0  0  0  0
 22 20  1  0  0  0  0
 23 15  1  0  0  0  0
 24 27  1  0  0  0  0
 25 18  2  0  0  0  0
 25 26  1  0  0  0  0
 26 19  2  0  0  0  0
 27 12  1  0  0  0  0
 28 30  1  0  0  0  0
 30 29  1  0  0  0  0
M  END
>  <MODEL>
3

>  <REMARK>
 VINA RESULT:      -6.2      1.886      7.040
  Name = 
  2 active torsions:
  status: ('A' for Active; 'I' for Inactive)
    1  A    between atoms: C_11  and  O_28
    2  A    between atoms: O_28  and  C_30
                            x       y       z     vdW  Elec       q    Type
                         _______ _______ _______ _____ _____    ______ ____

>  <TORSDO>
F 2

$$$$
=
 OpenBabel11122412343D

 30 35  0  0  1  0  0  0  0  0999 V2000
  161.4550  208.1490  149.2790 C   0  0  1  0  0  3  0  0  0  0  0  0
  161.6540  206.0890  147.7750 C   0  0  0  0  0  0  0  0  0  0  0  0
  161.1030  205.7080  152.5650 N   0  0  0  0  0  0  0  0  0  0  0  0
  161.6160  208.5940  150.7570 C   0  0  1  0  0  3  0  0  0  0  0  0
  162.4370  208.7840  148.4930 O   0  0  0  0  0  0  0  0  0  0  0  0
  161.9230  212.1210  149.8500 O   0  0  0  0  0  1  0  0  0  0  0  0
  160.4420  210.4860  153.1140 C   0  0  1  0  0  3  0  0  0  0  0  0
  162.2540  210.7630  149.8920 C   0  0  2  0  0  3  0  0  0  0  0  0
  160.2330  209.1290  153.7920 C   0  0  2  0  0  3  0  0  0  0  0  0
  160.9960  206.6950  153.5720 C   0  0  0  0  0  0  0  0  0  0  0  0
  162.1600  210.1680  148.4790 C   0  0  2  0  0  3  0  0  0  0  0  0
  161.3790  210.0530  150.8430 N   0  0  2  0  0  0  0  0  0  0  0  0
  161.6430  204.7010  147.5960 C   0  0  0  0  0  3  0  0  0  0  0  0
  160.8280  209.2860  155.1770 C   0  0  0  0  0  2  0  0  0  0  0  0
  160.5640  211.5060  154.2360 C   0  0  0  0  0  2  0  0  0  0  0  0
  161.8470  206.9030  146.6660 O   0  0  0  0  0  1  0  0  0  0  0  0
  160.9150  206.3450  151.4570 C   0  0  0  0  0  0  0  0  0  0  0  0
  161.4190  203.8510  148.6790 C   0  0  0  0  0  3  0  0  0  0  0  0
  161.4640  206.6400  149.0620 C   0  0  0  0  0  0  0  0  0  0  0  0
  160.6260  207.8060  151.6240 C   0  0  1  0  0  3  0  0  0  0  0  0
  161.0430  206.4240  154.8010 O   0  0  0  0  0  0  0  0  0  0  0  0
  160.8300  208.0140  153.0540 N   0  0  0  0  0  0  0  0  0  0  0  0
  160.5790  210.7320  155.5430 C   0  0  0  0  0  2  0  0  0  0  0  0
  162.9940  210.1280  152.7930 C   0  0  0  0  0  1  0  0  0  0  0  0
  161.1840  204.3820  149.9460 C   0  0  0  0  0  3  0  0  0  0  0  0
  161.1810  205.7690  150.1370 C   0  0  0  0  0  0  0  0  0  0  0  0
  161.6620  210.5890  152.1860 C   0  0  2  0  0  3  0  0  0  0  0  0
  160.9160  210.4320  147.8880 O   0  0  0  0  0  0  0  0  0  0  0  0
  159.8330  212.3810  147.0650 C   0  0  0  0  0  1  0  0  0  0  0  0
  161.1180  211.5820  147.1250 C   0  0  0  0  0  2  0  0  0  0  0  0
  1  5  1  6  0  0  0
  1  4  1  0  0  0  0
  2 19  1  0  0  0  0
  3 10  1  0  0  0  0
  4 12  1  0  0  0  0
  4 20  1  0  0  0  0
  6  8  1  0  0  0  0
  7  9  1  0  0  0  0
  7 15  1  0  0  0  0
  8 12  1  0  0  0  0
  9 14  1  0  0  0  0
 10 21  2  0  0  0  0
 11  5  1  0  0  0  0
 11  8  1  0  0  0  0
 12 27  1  0  0  0  0
 13  2  2  0  0  0  0
 13 18  1  0  0  0  0
 14 23  1  0  0  0  0
 15 23  1  0  0  0  0
 16  2  1  0  0  0  0
 17 20  1  0  0  0  0
 17  3  2  0  0  0  0
 18 25  2  0  0  0  0
 19  1  1  0  0  0  0
 19 26  2  0  0  0  0
 20 22  1  0  0  0  0
 22 10  1  0  0  0  0
 22  9  1  0  0  0  0
 25 26  1  0  0  0  0
 26 17  1  0  0  0  0
 27 24  1  0  0  0  0
 27  7  1  0  0  0  0
 28 11  1  0  0  0  0
 29 30  1  0  0  0  0
 30 28  1  0  0  0  0
M  END
>  <MODEL>
4

>  <REMARK>
 VINA RESULT:      -5.8      2.142      3.486
  Name = 
  2 active torsions:
  status: ('A' for Active; 'I' for Inactive)
    1  A    between atoms: C_11  and  O_28
    2  A    between atoms: O_28  and  C_30
                            x       y       z     vdW  Elec       q    Type
                         _______ _______ _______ _____ _____    ______ ____

>  <TORSDO>
F 2

$$$$
=
 OpenBabel11122412343D

 30 35  0  0  1  0  0  0  0  0999 V2000
  161.2170  208.8270  151.5610 C   0  0  1  0  0  3  0  0  0  0  0  0
  161.6290  211.1670  150.6120 C   0  0  0  0  0  0  0  0  0  0  0  0
  162.0500  207.1960  147.8830 N   0  0  0  0  0  0  0  0  0  0  0  0
  161.5290  207.3320  151.2850 C   0  0  1  0  0  3  0  0  0  0  0  0
  161.8630  209.2240  152.7490 O   0  0  0  0  0  0  0  0  0  0  0  0
  160.8190  206.3590  154.7350 O   0  0  0  0  0  1  0  0  0  0  0  0
  160.3780  204.3030  151.4040 C   0  0  1  0  0  3  0  0  0  0  0  0
  161.4660  207.0160  153.6840 C   0  0  2  0  0  3  0  0  0  0  0  0
  160.6240  204.3890  149.8950 C   0  0  2  0  0  3  0  0  0  0  0  0
  161.8920  205.8270  148.2000 C   0  0  0  0  0  0  0  0  0  0  0  0
  161.2660  208.5320  153.8250 C   0  0  2  0  0  3  0  0  0  0  0  0
  160.9700  206.5180  152.3880 N   0  0  2  0  0  0  0  0  0  0  0  0
  161.9180  212.0170  149.5390 C   0  0  0  0  0  3  0  0  0  0  0  0
  161.4010  203.1350  149.5510 C   0  0  0  0  0  2  0  0  0  0  0  0
  160.4520  202.8260  151.7610 C   0  0  0  0  0  2  0  0  0  0  0  0
  161.4220  211.7250  151.8680 O   0  0  0  0  0  1  0  0  0  0  0  0
  161.5210  207.8280  148.8780 C   0  0  0  0  0  0  0  0  0  0  0  0
  162.1010  211.4990  148.2570 C   0  0  0  0  0  3  0  0  0  0  0  0
  161.5470  209.7710  150.4110 C   0  0  0  0  0  0  0  0  0  0  0  0
  160.9270  206.9420  149.9290 C   0  0  1  0  0  3  0  0  0  0  0  0
  162.2220  204.9030  147.4110 O   0  0  0  0  0  0  0  0  0  0  0  0
  161.3270  205.6090  149.4910 N   0  0  0  0  0  0  0  0  0  0  0  0
  160.8840  202.0850  150.5080 C   0  0  0  0  0  2  0  0  0  0  0  0
  162.8420  204.8540  152.0110 C   0  0  0  0  0  1  0  0  0  0  0  0
  161.9760  210.1280  148.0340 C   0  0  0  0  0  3  0  0  0  0  0  0
  161.6770  209.2680  149.0970 C   0  0  0  0  0  0  0  0  0  0  0  0
  161.3520  205.0990  152.2860 C   0  0  2  0  0  3  0  0  0  0  0  0
  159.9090  208.8650  153.9540 O   0  0  0  0  0  0  0  0  0  0  0  0
  158.9550  211.0230  154.2390 C   0  0  0  0  0  1  0  0  0  0  0  0
  159.8920  209.9740  154.8010 C   0  0  0  0  0  2  0  0  0  0  0  0
  1 19  1  6  0  0  0
  1  5  1  0  0  0  0
  2 16  1  0  0  0  0
  3 10  1  0  0  0  0
  3 17  2  0  0  0  0
  4  1  1  0  0  0  0
  4 12  1  0  0  0  0
  5 11  1  0  0  0  0
  7 15  1  0  0  0  0
  7 27  1  0  0  0  0
  8 11  1  0  0  0  0
  8  6  1  0  0  0  0
  9  7  1  0  0  0  0
 10 22  1  0  0  0  0
 11 28  1  0  0  0  0
 12  8  1  0  0  0  0
 13  2  2  0  0  0  0
 14  9  1  0  0  0  0
 14 23  1  0  0  0  0
 17 26  1  0  0  0  0
 17 20  1  0  0  0  0
 18 13  1  0  0  0  0
 19  2  1  0  0  0  0
 20  4  1  0  0  0  0
 21 10  2  0  0  0  0
 22  9  1  0  0  0  0
 22 20  1  0  0  0  0
 23 15  1  0  0  0  0
 24 27  1  0  0  0  0
 25 18  2  0  0  0  0
 25 26  1  0  0  0  0
 26 19  2  0  0  0  0
 27 12  1  0  0  0  0
 28 30  1  0  0  0  0
 29 30  1  0  0  0  0
M  END
>  <MODEL>
5

>  <REMARK>
 VINA RESULT:      -5.6      2.147      7.050
  Name = 
  2 active torsions:
  status: ('A' for Active; 'I' for Inactive)
    1  A    between atoms: C_11  and  O_28
    2  A    between atoms: O_28  and  C_30
                            x       y       z     vdW  Elec       q    Type
                         _______ _______ _______ _____ _____    ______ ____

>  <TORSDO>
F 2

$$$$
