=
 OpenBabel11122412313D

 30 35  0  0  1  0  0  0  0  0999 V2000
  161.4880  210.2720  150.9140 C   0  0  0  0  0  0  0  0  0  0  0  0
  161.9510  211.2330  148.6410 C   0  0  0  0  0  0  0  0  0  0  0  0
  159.3010  213.7300  152.1180 C   0  0  0  0  0  2  0  0  0  0  0  0
  160.8740  210.4200  152.1800 C   0  0  0  0  0  0  0  0  0  0  0  0
  162.3480  209.0600  150.6800 C   0  0  0  0  0  2  0  0  0  0  0  0
  160.8600  206.8560  153.1740 O   0  0  0  0  0  0  0  0  0  0  0  0
  161.5410  210.7500  155.0280 C   0  0  1  0  0  3  0  0  0  0  0  0
  161.1210  207.9150  152.5420 C   0  0  0  0  0  0  0  0  0  0  0  0
  160.6290  211.9710  154.9200 C   0  0  2  0  0  3  0  0  0  0  0  0
  158.9650  213.2330  153.5370 C   0  0  1  0  0  3  0  0  0  0  0  0
  161.7750  207.8500  151.2680 N   0  0  0  0  0  0  0  0  0  0  0  0
  160.6630  209.2350  153.0940 C   0  0  1  0  0  3  0  0  0  0  0  0
  161.7830  212.2810  147.7310 C   0  0  0  0  0  3  0  0  0  0  0  0
  159.8880  212.0550  156.2350 C   0  0  0  0  0  2  0  0  0  0  0  0
  161.9180  210.7030  156.5000 C   0  0  0  0  0  2  0  0  0  0  0  0
  162.6820  210.1270  148.2260 O   0  0  0  0  0  1  0  0  0  0  0  0
  160.0810  212.6030  151.5450 C   0  0  0  0  0  0  0  0  0  0  0  0
  161.0530  213.4170  148.0740 C   0  0  0  0  0  3  0  0  0  0  0  0
  161.3770  211.3150  149.9390 C   0  0  0  0  0  0  0  0  0  0  0  0
  160.2440  211.6280  152.4800 C   0  0  0  0  0  0  0  0  0  0  0  0
  157.4840  212.9220  153.6300 C   0  0  0  0  0  1  0  0  0  0  0  0
  159.7420  212.0090  153.7540 N   0  0  0  0  0  0  0  0  0  0  0  0
  160.8680  211.5110  157.2600 C   0  0  0  0  0  2  0  0  0  0  0  0
  159.6740  209.0190  155.3760 C   0  0  0  0  0  1  0  0  0  0  0  0
  160.4800  213.5190  149.3390 C   0  0  0  0  0  3  0  0  0  0  0  0
  160.6330  212.4870  150.2690 C   0  0  0  0  0  0  0  0  0  0  0  0
  160.9250  209.4030  154.5950 C   0  0  2  0  0  3  0  0  0  0  0  0
  162.0150  206.5420  150.6540 C   0  0  0  0  0  2  0  0  0  0  0  0
  160.8170  205.1220  149.4640 C   0  0  0  0  0  1  0  0  0  0  0  0
  161.3340  206.4160  149.4410 O   0  0  0  0  0  0  0  0  0  0  0  0
  1  4  1  0  0  0  0
  2 19  1  0  0  0  0
  3 10  1  0  0  0  0
  4 20  2  0  0  0  0
  5  1  1  0  0  0  0
  5 11  1  0  0  0  0
  7 15  1  1  0  0  0
  8 12  1  0  0  0  0
  8  6  2  0  0  0  0
  9  7  1  0  0  0  0
  9 14  1  1  0  0  0
 10 21  1  6  0  0  0
 10 22  1  0  0  0  0
 11  8  1  0  0  0  0
 12  4  1  6  0  0  0
 12 27  1  0  0  0  0
 13 18  1  0  0  0  0
 13  2  2  0  0  0  0
 14 23  1  0  0  0  0
 15 23  1  0  0  0  0
 16  2  1  0  0  0  0
 17  3  1  0  0  0  0
 17 20  1  0  0  0  0
 18 25  2  0  0  0  0
 19 26  1  0  0  0  0
 19  1  2  0  0  0  0
 20 22  1  0  0  0  0
 22  9  1  0  0  0  0
 25 26  1  0  0  0  0
 26 17  2  0  0  0  0
 27  7  1  0  0  0  0
 27 24  1  1  0  0  0
 28 11  1  0  0  0  0
 30 29  1  0  0  0  0
 30 28  1  0  0  0  0
M  END
>  <MODEL>
1

>  <REMARK>
 VINA RESULT:      -6.1      0.000      0.000
  Name = 
  2 active torsions:
  status: ('A' for Active; 'I' for Inactive)
    1  A    between atoms: N_11  and  C_28
    2  A    between atoms: C_28  and  O_30
                            x       y       z     vdW  Elec       q    Type
                         _______ _______ _______ _____ _____    ______ ____

>  <TORSDO>
F 2

$$$$
=
 OpenBabel11122412313D

 30 35  0  0  1  0  0  0  0  0999 V2000
  160.5160  209.1980  153.4460 C   0  0  0  0  0  0  0  0  0  0  0  0
  160.8600  207.1610  154.8720 C   0  0  0  0  0  0  0  0  0  0  0  0
  159.2360  211.5270  156.7820 C   0  0  0  0  0  2  0  0  0  0  0  0
  160.1490  210.5630  153.3650 C   0  0  0  0  0  0  0  0  0  0  0  0
  160.8080  208.4660  152.1650 C   0  0  0  0  0  2  0  0  0  0  0  0
  161.7090  211.3330  150.1000 O   0  0  0  0  0  0  0  0  0  0  0  0
  158.0500  212.3120  152.2720 C   0  0  1  0  0  3  0  0  0  0  0  0
  161.2610  210.6810  151.0820 C   0  0  0  0  0  0  0  0  0  0  0  0
  157.9640  212.8170  153.7120 C   0  0  2  0  0  3  0  0  0  0  0  0
  158.9910  212.8290  155.9960 C   0  0  1  0  0  3  0  0  0  0  0  0
  161.5600  209.2850  151.2150 N   0  0  0  0  0  0  0  0  0  0  0  0
  160.4900  211.3980  152.1530 C   0  0  1  0  0  3  0  0  0  0  0  0
  160.8320  206.5720  156.1400 C   0  0  0  0  0  3  0  0  0  0  0  0
  157.6880  214.2990  153.6180 C   0  0  0  0  0  2  0  0  0  0  0  0
  157.0710  213.1960  151.5150 C   0  0  0  0  0  2  0  0  0  0  0  0
  161.2650  206.3720  153.8020 O   0  0  0  0  0  1  0  0  0  0  0  0
  159.7060  210.5860  155.7320 C   0  0  0  0  0  0  0  0  0  0  0  0
  160.4470  207.3040  157.2610 C   0  0  0  0  0  3  0  0  0  0  0  0
  160.4900  208.5230  154.7080 C   0  0  0  0  0  0  0  0  0  0  0  0
  159.6820  211.1970  154.5160 C   0  0  0  0  0  0  0  0  0  0  0  0
  160.0460  213.8540  156.3670 C   0  0  0  0  0  1  0  0  0  0  0  0
  159.1050  212.4950  154.5740 N   0  0  0  0  0  0  0  0  0  0  0  0
  156.8570  214.4530  152.3550 C   0  0  0  0  0  2  0  0  0  0  0  0
  160.0360  213.7810  151.5630 C   0  0  0  0  0  1  0  0  0  0  0  0
  160.0810  208.6410  157.1260 C   0  0  0  0  0  3  0  0  0  0  0  0
  160.0990  209.2540  155.8690 C   0  0  0  0  0  0  0  0  0  0  0  0
  159.4430  212.3780  151.6120 C   0  0  2  0  0  3  0  0  0  0  0  0
  162.4920  208.6610  150.2730 C   0  0  0  0  0  2  0  0  0  0  0  0
  161.5560  207.6570  148.5440 C   0  0  0  0  0  1  0  0  0  0  0  0
  162.0200  207.4200  149.8380 O   0  0  0  0  0  0  0  0  0  0  0  0
  1 19  1  0  0  0  0
  2 13  1  0  0  0  0
  4  1  2  0  0  0  0
  4 20  1  0  0  0  0
  5  1  1  0  0  0  0
  6  8  2  0  0  0  0
  7 15  1  6  0  0  0
  7  9  1  0  0  0  0
  8 11  1  0  0  0  0
  9 14  1  6  0  0  0
  9 22  1  0  0  0  0
 10 21  1  1  0  0  0
 10  3  1  0  0  0  0
 11  5  1  0  0  0  0
 12  8  1  6  0  0  0
 12  4  1  0  0  0  0
 13 18  2  0  0  0  0
 15 23  1  0  0  0  0
 16  2  1  0  0  0  0
 17 26  1  0  0  0  0
 17  3  1  0  0  0  0
 19  2  2  0  0  0  0
 19 26  1  0  0  0  0
 20 22  1  0  0  0  0
 20 17  2  0  0  0  0
 22 10  1  0  0  0  0
 23 14  1  0  0  0  0
 25 18  1  0  0  0  0
 26 25  2  0  0  0  0
 27 24  1  1  0  0  0
 27 12  1  0  0  0  0
 27  7  1  0  0  0  0
 28 11  1  0  0  0  0
 29 30  1  0  0  0  0
 30 28  1  0  0  0  0
M  END
>  <MODEL>
2

>  <REMARK>
 VINA RESULT:      -5.1      1.737      5.323
  Name = 
  2 active torsions:
  status: ('A' for Active; 'I' for Inactive)
    1  A    between atoms: N_11  and  C_28
    2  A    between atoms: C_28  and  O_30
                            x       y       z     vdW  Elec       q    Type
                         _______ _______ _______ _____ _____    ______ ____

>  <TORSDO>
F 2

$$$$
=
 OpenBabel11122412313D

 30 35  0  0  1  0  0  0  0  0999 V2000
  161.0650  207.9050  151.2950 C   0  0  0  0  0  0  0  0  0  0  0  0
  161.3980  205.5680  150.4440 C   0  0  0  0  0  0  0  0  0  0  0  0
  160.6730  206.5640  155.3250 C   0  0  0  0  0  2  0  0  0  0  0  0
  160.8590  208.7660  152.4000 C   0  0  0  0  0  0  0  0  0  0  0  0
  161.0410  208.5050  149.9160 C   0  0  0  0  0  2  0  0  0  0  0  0
  161.9150  211.9320  150.8030 O   0  0  0  0  0  0  0  0  0  0  0  0
  158.8330  210.5510  153.5690 C   0  0  1  0  0  3  0  0  0  0  0  0
  161.5680  210.7280  150.9470 C   0  0  0  0  0  0  0  0  0  0  0  0
  159.0580  209.7020  154.8190 C   0  0  2  0  0  3  0  0  0  0  0  0
  160.4570  207.9570  155.9470 C   0  0  1  0  0  3  0  0  0  0  0  0
  161.7120  209.8030  149.8610 N   0  0  0  0  0  0  0  0  0  0  0  0
  161.0860  210.2550  152.2890 C   0  0  1  0  0  3  0  0  0  0  0  0
  161.5180  204.2020  150.7190 C   0  0  0  0  0  3  0  0  0  0  0  0
  158.9530  210.6500  155.9920 C   0  0  0  0  0  2  0  0  0  0  0  0
  157.8530  211.6210  154.0250 C   0  0  0  0  0  2  0  0  0  0  0  0
  161.5140  205.9720  149.1200 O   0  0  0  0  0  1  0  0  0  0  0  0
  160.8370  206.8660  153.8790 C   0  0  0  0  0  0  0  0  0  0  0  0
  161.4240  203.7240  152.0240 C   0  0  0  0  0  3  0  0  0  0  0  0
  161.1750  206.4930  151.4990 C   0  0  0  0  0  0  0  0  0  0  0  0
  160.6780  208.2000  153.6620 C   0  0  0  0  0  0  0  0  0  0  0  0
  161.6770  208.3460  156.7600 C   0  0  0  0  0  1  0  0  0  0  0  0
  160.2830  208.8960  154.8360 N   0  0  0  0  0  0  0  0  0  0  0  0
  157.9420  211.6940  155.5480 C   0  0  0  0  0  2  0  0  0  0  0  0
  160.8310  212.1280  153.9200 C   0  0  0  0  0  1  0  0  0  0  0  0
  161.2060  204.6110  153.0750 C   0  0  0  0  0  3  0  0  0  0  0  0
  161.0820  205.9820  152.8280 C   0  0  0  0  0  0  0  0  0  0  0  0
  160.0890  211.2070  152.9590 C   0  0  2  0  0  3  0  0  0  0  0  0
  162.3850  210.2390  148.6360 C   0  0  0  0  0  2  0  0  0  0  0  0
  162.4010  212.2030  147.6300 C   0  0  0  0  0  1  0  0  0  0  0  0
  161.5800  211.1090  147.8950 O   0  0  0  0  0  0  0  0  0  0  0  0
  1 19  2  0  0  0  0
  1  4  1  0  0  0  0
  2 13  2  0  0  0  0
  2 19  1  0  0  0  0
  3 10  1  0  0  0  0
  4 20  2  0  0  0  0
  5  1  1  0  0  0  0
  6  8  2  0  0  0  0
  7 15  1  1  0  0  0
  7  9  1  0  0  0  0
  9 22  1  0  0  0  0
  9 14  1  1  0  0  0
 10 21  1  6  0  0  0
 11  5  1  0  0  0  0
 11  8  1  0  0  0  0
 12  8  1  6  0  0  0
 12  4  1  0  0  0  0
 12 27  1  0  0  0  0
 13 18  1  0  0  0  0
 15 23  1  0  0  0  0
 16  2  1  0  0  0  0
 17  3  1  0  0  0  0
 18 25  2  0  0  0  0
 19 26  1  0  0  0  0
 20 17  1  0  0  0  0
 20 22  1  0  0  0  0
 22 10  1  0  0  0  0
 23 14  1  0  0  0  0
 26 25  1  0  0  0  0
 26 17  2  0  0  0  0
 27  7  1  0  0  0  0
 27 24  1  1  0  0  0
 28 11  1  0  0  0  0
 29 30  1  0  0  0  0
 30 28  1  0  0  0  0
M  END
>  <MODEL>
3

>  <REMARK>
 VINA RESULT:      -4.8      1.868      5.336
  Name = 
  2 active torsions:
  status: ('A' for Active; 'I' for Inactive)
    1  A    between atoms: N_11  and  C_28
    2  A    between atoms: C_28  and  O_30
                            x       y       z     vdW  Elec       q    Type
                         _______ _______ _______ _____ _____    ______ ____

>  <TORSDO>
F 2

$$$$
=
 OpenBabel11122412313D

 30 35  0  0  1  0  0  0  0  0999 V2000
  160.5990  210.3460  151.7460 C   0  0  0  0  0  0  0  0  0  0  0  0
  161.7640  208.3400  150.7880 C   0  0  0  0  0  0  0  0  0  0  0  0
  160.4120  208.5960  155.6310 C   0  0  0  0  0  2  0  0  0  0  0  0
  160.0380  210.9870  152.8770 C   0  0  0  0  0  0  0  0  0  0  0  0
  160.4660  211.0250  150.4100 C   0  0  0  0  0  2  0  0  0  0  0  0
  160.0620  214.4530  151.5840 O   0  0  0  0  0  0  0  0  0  0  0  0
  157.4510  211.8820  153.9570 C   0  0  1  0  0  3  0  0  0  0  0  0
  160.1350  213.1950  151.6200 C   0  0  0  0  0  0  0  0  0  0  0  0
  157.8660  211.0480  155.1690 C   0  0  2  0  0  3  0  0  0  0  0  0
  159.6940  209.7750  156.3140 C   0  0  1  0  0  3  0  0  0  0  0  0
  160.6590  212.4720  150.4990 N   0  0  0  0  0  0  0  0  0  0  0  0
  159.7520  212.4700  152.8790 C   0  0  1  0  0  3  0  0  0  0  0  0
  162.3210  207.0730  150.9890 C   0  0  0  0  0  3  0  0  0  0  0  0
  157.3650  211.7980  156.3820 C   0  0  0  0  0  2  0  0  0  0  0  0
  156.1370  212.5190  154.3830 C   0  0  0  0  0  2  0  0  0  0  0  0
  161.8250  208.8770  149.5080 O   0  0  0  0  0  1  0  0  0  0  0  0
  160.5620  209.0630  154.2290 C   0  0  0  0  0  0  0  0  0  0  0  0
  162.3060  206.4770  152.2480 C   0  0  0  0  0  3  0  0  0  0  0  0
  161.1680  209.0390  151.8720 C   0  0  0  0  0  0  0  0  0  0  0  0
  159.9750  210.2820  154.0790 C   0  0  0  0  0  0  0  0  0  0  0  0
  160.6510  210.4750  157.2610 C   0  0  0  0  0  1  0  0  0  0  0  0
  159.2870  210.6990  155.2510 N   0  0  0  0  0  0  0  0  0  0  0  0
  156.0930  212.4800  155.9100 C   0  0  0  0  0  2  0  0  0  0  0  0
  158.7660  213.9970  154.5910 C   0  0  0  0  0  1  0  0  0  0  0  0
  161.7290  207.1430  153.3260 C   0  0  0  0  0  3  0  0  0  0  0  0
  161.1640  208.4100  153.1530 C   0  0  0  0  0  0  0  0  0  0  0  0
  158.4480  212.9710  153.5100 C   0  0  2  0  0  3  0  0  0  0  0  0
  161.2250  213.2140  149.3710 C   0  0  0  0  0  2  0  0  0  0  0  0
  162.7590  212.6000  147.9080 C   0  0  0  0  0  1  0  0  0  0  0  0
  161.4290  212.3840  148.2660 O   0  0  0  0  0  0  0  0  0  0  0  0
  1 19  2  0  0  0  0
  1  4  1  0  0  0  0
  2 13  2  0  0  0  0
  2 19  1  0  0  0  0
  3 10  1  0  0  0  0
  4 12  1  0  0  0  0
  4 20  2  0  0  0  0
  5 11  1  0  0  0  0
  5  1  1  0  0  0  0
  6  8  2  0  0  0  0
  7 15  1  1  0  0  0
  7  9  1  0  0  0  0
  9 22  1  0  0  0  0
  9 14  1  1  0  0  0
 10 21  1  1  0  0  0
 11  8  1  0  0  0  0
 12  8  1  6  0  0  0
 12 27  1  0  0  0  0
 13 18  1  0  0  0  0
 15 23  1  0  0  0  0
 16  2  1  0  0  0  0
 17  3  1  0  0  0  0
 18 25  2  0  0  0  0
 19 26  1  0  0  0  0
 20 17  1  0  0  0  0
 20 22  1  0  0  0  0
 22 10  1  0  0  0  0
 23 14  1  0  0  0  0
 26 25  1  0  0  0  0
 26 17  2  0  0  0  0
 27  7  1  0  0  0  0
 27 24  1  1  0  0  0
 28 11  1  0  0  0  0
 29 30  1  0  0  0  0
 30 28  1  0  0  0  0
M  END
>  <MODEL>
4

>  <REMARK>
 VINA RESULT:      -4.7      1.895      5.037
  Name = 
  2 active torsions:
  status: ('A' for Active; 'I' for Inactive)
    1  A    between atoms: N_11  and  C_28
    2  A    between atoms: C_28  and  O_30
                            x       y       z     vdW  Elec       q    Type
                         _______ _______ _______ _____ _____    ______ ____

>  <TORSDO>
F 2

$$$$
=
 OpenBabel11122412313D

 30 35  0  0  1  0  0  0  0  0999 V2000
  159.4370  212.5910  152.5460 C   0  0  0  0  0  0  0  0  0  0  0  0
  159.5790  211.9350  154.9650 C   0  0  0  0  0  0  0  0  0  0  0  0
  162.3360  209.6760  151.4090 C   0  0  0  0  0  2  0  0  0  0  0  0
  159.8630  212.3750  151.2130 C   0  0  0  0  0  0  0  0  0  0  0  0
  158.5160  213.7490  152.8170 C   0  0  0  0  0  2  0  0  0  0  0  0
  157.0660  214.0740  149.4860 O   0  0  0  0  0  0  0  0  0  0  0  0
  161.3930  213.6690  149.0580 C   0  0  1  0  0  3  0  0  0  0  0  0
  157.8460  213.6920  150.4020 C   0  0  0  0  0  0  0  0  0  0  0  0
  162.1810  212.3600  149.0680 C   0  0  2  0  0  3  0  0  0  0  0  0
  162.3250  210.0030  149.9040 C   0  0  1  0  0  3  0  0  0  0  0  0
  157.5000  213.9070  151.7760 N   0  0  0  0  0  0  0  0  0  0  0  0
  159.0910  212.9340  150.0410 C   0  0  1  0  0  3  0  0  0  0  0  0
  160.1260  211.1030  155.9460 C   0  0  0  0  0  3  0  0  0  0  0  0
  162.5330  212.0740  147.6270 C   0  0  0  0  0  2  0  0  0  0  0  0
  162.0000  214.4530  147.9040 C   0  0  0  0  0  2  0  0  0  0  0  0
  158.6500  212.8860  155.3680 O   0  0  0  0  0  1  0  0  0  0  0  0
  161.3430  210.6310  151.9660 C   0  0  0  0  0  0  0  0  0  0  0  0
  161.0550  210.1190  155.6150 C   0  0  0  0  0  3  0  0  0  0  0  0
  159.9700  211.7900  153.6060 C   0  0  0  0  0  0  0  0  0  0  0  0
  160.8690  211.4370  150.9780 C   0  0  0  0  0  0  0  0  0  0  0  0
  161.6690  208.8680  149.1410 C   0  0  0  0  0  1  0  0  0  0  0  0
  161.5370  211.2280  149.7410 N   0  0  0  0  0  0  0  0  0  0  0  0
  162.7030  213.4460  146.9960 C   0  0  0  0  0  2  0  0  0  0  0  0
  159.4650  212.8390  147.5740 C   0  0  0  0  0  1  0  0  0  0  0  0
  161.4520  209.9570  154.2900 C   0  0  0  0  0  3  0  0  0  0  0  0
  160.9230  210.7770  153.2890 C   0  0  0  0  0  0  0  0  0  0  0  0
  159.8670  213.5410  148.8660 C   0  0  2  0  0  3  0  0  0  0  0  0
  156.1820  214.4530  152.1050 C   0  0  0  0  0  2  0  0  0  0  0  0
  154.4940  214.3230  153.5210 C   0  0  0  0  0  1  0  0  0  0  0  0
  155.8860  214.2890  153.4610 O   0  0  0  0  0  0  0  0  0  0  0  0
  1  5  1  0  0  0  0
  1 19  1  0  0  0  0
  2 16  1  0  0  0  0
  2 13  1  0  0  0  0
  3 17  1  0  0  0  0
  4  1  2  0  0  0  0
  6  8  2  0  0  0  0
  7 15  1  6  0  0  0
  7  9  1  0  0  0  0
  8 11  1  0  0  0  0
  9 14  1  6  0  0  0
  9 22  1  0  0  0  0
 10 21  1  6  0  0  0
 10  3  1  0  0  0  0
 11 28  1  0  0  0  0
 11  5  1  0  0  0  0
 12  8  1  1  0  0  0
 12  4  1  0  0  0  0
 17 26  1  0  0  0  0
 18 13  2  0  0  0  0
 19  2  2  0  0  0  0
 20  4  1  0  0  0  0
 20 17  2  0  0  0  0
 22 10  1  0  0  0  0
 22 20  1  0  0  0  0
 23 14  1  0  0  0  0
 23 15  1  0  0  0  0
 25 18  1  0  0  0  0
 26 19  1  0  0  0  0
 26 25  2  0  0  0  0
 27 24  1  6  0  0  0
 27  7  1  0  0  0  0
 27 12  1  0  0  0  0
 28 30  1  0  0  0  0
 30 29  1  0  0  0  0
M  END
>  <MODEL>
5

>  <REMARK>
 VINA RESULT:      -4.3      2.919      7.246
  Name = 
  2 active torsions:
  status: ('A' for Active; 'I' for Inactive)
    1  A    between atoms: N_11  and  C_28
    2  A    between atoms: C_28  and  O_30
                            x       y       z     vdW  Elec       q    Type
                         _______ _______ _______ _____ _____    ______ ____

>  <TORSDO>
F 2

$$$$
=
 OpenBabel11122412313D

 30 35  0  0  1  0  0  0  0  0999 V2000
  160.9880  206.9390  151.0620 C   0  0  0  0  0  0  0  0  0  0  0  0
  160.9330  204.4790  150.5670 C   0  0  0  0  0  0  0  0  0  0  0  0
  160.7460  206.2720  155.2680 C   0  0  0  0  0  2  0  0  0  0  0  0
  160.9910  207.9730  152.0300 C   0  0  0  0  0  0  0  0  0  0  0  0
  160.9330  207.3290  149.6100 C   0  0  0  0  0  2  0  0  0  0  0  0
  162.3320  210.6840  149.8990 O   0  0  0  0  0  0  0  0  0  0  0  0
  159.3250  210.1850  153.0250 C   0  0  1  0  0  3  0  0  0  0  0  0
  161.8370  209.5780  150.2490 C   0  0  0  0  0  0  0  0  0  0  0  0
  159.5350  209.5040  154.3770 C   0  0  2  0  0  3  0  0  0  0  0  0
  160.7720  207.7560  155.6770 C   0  0  1  0  0  3  0  0  0  0  0  0
  161.7670  208.4930  149.3140 N   0  0  0  0  0  0  0  0  0  0  0  0
  161.4070  209.3810  151.6740 C   0  0  1  0  0  3  0  0  0  0  0  0
  160.8880  203.1660  151.0440 C   0  0  0  0  0  3  0  0  0  0  0  0
  159.6540  210.6180  155.3910 C   0  0  0  0  0  2  0  0  0  0  0  0
  158.5390  211.4420  153.3670 C   0  0  0  0  0  2  0  0  0  0  0  0
  160.9940  204.6650  149.1920 O   0  0  0  0  0  1  0  0  0  0  0  0
  160.8320  206.3320  153.7860 C   0  0  0  0  0  0  0  0  0  0  0  0
  160.8370  202.9020  152.4110 C   0  0  0  0  0  3  0  0  0  0  0  0
  160.9230  205.5710  151.4770 C   0  0  0  0  0  0  0  0  0  0  0  0
  160.8370  207.6290  153.3730 C   0  0  0  0  0  0  0  0  0  0  0  0
  162.0950  208.0780  156.3450 C   0  0  0  0  0  1  0  0  0  0  0  0
  160.6360  208.5390  154.4450 N   0  0  0  0  0  0  0  0  0  0  0  0
  158.7610  211.7220  154.8520 C   0  0  0  0  0  2  0  0  0  0  0  0
  161.5400  211.4880  153.0070 C   0  0  0  0  0  1  0  0  0  0  0  0
  160.8270  203.9550  153.3220 C   0  0  0  0  0  3  0  0  0  0  0  0
  160.8690  205.2780  152.8720 C   0  0  0  0  0  0  0  0  0  0  0  0
  160.6050  210.5560  152.2470 C   0  0  2  0  0  3  0  0  0  0  0  0
  162.3910  208.6430  147.9980 C   0  0  0  0  0  2  0  0  0  0  0  0
  161.6390  206.9570  146.7870 C   0  0  0  0  0  1  0  0  0  0  0  0
  162.7690  207.4060  147.4700 O   0  0  0  0  0  0  0  0  0  0  0  0
  1 19  2  0  0  0  0
  1  4  1  0  0  0  0
  2 13  2  0  0  0  0
  2 19  1  0  0  0  0
  3 10  1  0  0  0  0
  4 20  2  0  0  0  0
  5  1  1  0  0  0  0
  6  8  2  0  0  0  0
  7 15  1  1  0  0  0
  7  9  1  0  0  0  0
  9 22  1  0  0  0  0
  9 14  1  1  0  0  0
 10 21  1  6  0  0  0
 11  5  1  0  0  0  0
 11  8  1  0  0  0  0
 12  8  1  6  0  0  0
 12  4  1  0  0  0  0
 12 27  1  0  0  0  0
 13 18  1  0  0  0  0
 15 23  1  0  0  0  0
 16  2  1  0  0  0  0
 17  3  1  0  0  0  0
 18 25  2  0  0  0  0
 19 26  1  0  0  0  0
 20 17  1  0  0  0  0
 20 22  1  0  0  0  0
 22 10  1  0  0  0  0
 23 14  1  0  0  0  0
 26 25  1  0  0  0  0
 26 17  2  0  0  0  0
 27 24  1  1  0  0  0
 27  7  1  0  0  0  0
 28 11  1  0  0  0  0
 29 30  1  0  0  0  0
 30 28  1  0  0  0  0
M  END
>  <MODEL>
6

>  <REMARK>
 VINA RESULT:      -4.2      2.345      5.517
  Name = 
  2 active torsions:
  status: ('A' for Active; 'I' for Inactive)
    1  A    between atoms: N_11  and  C_28
    2  A    between atoms: C_28  and  O_30
                            x       y       z     vdW  Elec       q    Type
                         _______ _______ _______ _____ _____    ______ ____

>  <TORSDO>
F 2

$$$$
=
 OpenBabel11122412313D

 30 35  0  0  1  0  0  0  0  0999 V2000
  161.4120  210.0330  150.3160 C   0  0  0  0  0  0  0  0  0  0  0  0
  162.3410  207.7240  149.9910 C   0  0  0  0  0  0  0  0  0  0  0  0
  160.4780  209.2660  154.4070 C   0  0  0  0  0  2  0  0  0  0  0  0
  160.8320  210.9850  151.1890 C   0  0  0  0  0  0  0  0  0  0  0  0
  161.5530  210.3960  148.8630 C   0  0  0  0  0  2  0  0  0  0  0  0
  161.5740  214.0260  149.2160 O   0  0  0  0  0  0  0  0  0  0  0  0
  158.3140  212.4380  151.6480 C   0  0  1  0  0  3  0  0  0  0  0  0
  161.4360  212.8110  149.5270 C   0  0  0  0  0  0  0  0  0  0  0  0
  158.4400  211.8590  153.0560 C   0  0  2  0  0  3  0  0  0  0  0  0
  159.8860  210.6550  154.7090 C   0  0  1  0  0  3  0  0  0  0  0  0
  161.9660  211.7870  148.6750 N   0  0  0  0  0  0  0  0  0  0  0  0
  160.7930  212.4530  150.8350 C   0  0  1  0  0  3  0  0  0  0  0  0
  162.6560  206.4760  150.5360 C   0  0  0  0  0  3  0  0  0  0  0  0
  157.9260  212.9280  153.9940 C   0  0  0  0  0  2  0  0  0  0  0  0
  157.0800  213.3250  151.7250 C   0  0  0  0  0  2  0  0  0  0  0  0
  162.6410  207.9380  148.6520 O   0  0  0  0  0  1  0  0  0  0  0  0
  160.8690  209.3730  152.9770 C   0  0  0  0  0  0  0  0  0  0  0  0
  162.3940  206.1930  151.8750 C   0  0  0  0  0  3  0  0  0  0  0  0
  161.7420  208.7270  150.8000 C   0  0  0  0  0  0  0  0  0  0  0  0
  160.5100  210.5910  152.4880 C   0  0  0  0  0  0  0  0  0  0  0  0
  160.8230  211.4210  155.6230 C   0  0  0  0  0  1  0  0  0  0  0  0
  159.7650  211.3540  153.4270 N   0  0  0  0  0  0  0  0  0  0  0  0
  156.8470  213.6450  153.2000 C   0  0  0  0  0  2  0  0  0  0  0  0
  159.8700  214.4500  152.0180 C   0  0  0  0  0  1  0  0  0  0  0  0
  161.8080  207.1590  152.6870 C   0  0  0  0  0  3  0  0  0  0  0  0
  161.4810  208.4150  152.1680 C   0  0  0  0  0  0  0  0  0  0  0  0
  159.5210  213.2540  151.1400 C   0  0  2  0  0  3  0  0  0  0  0  0
  162.7760  212.1680  147.5170 C   0  0  0  0  0  2  0  0  0  0  0  0
  162.8090  213.3880  145.6780 C   0  0  0  0  0  1  0  0  0  0  0  0
  161.9750  212.5780  146.4480 O   0  0  0  0  0  0  0  0  0  0  0  0
  1 19  2  0  0  0  0
  1  4  1  0  0  0  0
  2 13  2  0  0  0  0
  2 19  1  0  0  0  0
  3 10  1  0  0  0  0
  4 20  2  0  0  0  0
  5  1  1  0  0  0  0
  6  8  2  0  0  0  0
  7 15  1  1  0  0  0
  7  9  1  0  0  0  0
  9 22  1  0  0  0  0
  9 14  1  1  0  0  0
 10 21  1  1  0  0  0
 11  5  1  0  0  0  0
 11  8  1  0  0  0  0
 12  8  1  6  0  0  0
 12 27  1  0  0  0  0
 12  4  1  0  0  0  0
 13 18  1  0  0  0  0
 15 23  1  0  0  0  0
 16  2  1  0  0  0  0
 17  3  1  0  0  0  0
 18 25  2  0  0  0  0
 19 26  1  0  0  0  0
 20 17  1  0  0  0  0
 20 22  1  0  0  0  0
 22 10  1  0  0  0  0
 23 14  1  0  0  0  0
 26 25  1  0  0  0  0
 26 17  2  0  0  0  0
 27  7  1  0  0  0  0
 27 24  1  1  0  0  0
 28 11  1  0  0  0  0
 29 30  1  0  0  0  0
 30 28  1  0  0  0  0
M  END
>  <MODEL>
7

>  <REMARK>
 VINA RESULT:      -4.1      1.716      5.177
  Name = 
  2 active torsions:
  status: ('A' for Active; 'I' for Inactive)
    1  A    between atoms: N_11  and  C_28
    2  A    between atoms: C_28  and  O_30
                            x       y       z     vdW  Elec       q    Type
                         _______ _______ _______ _____ _____    ______ ____

>  <TORSDO>
F 2

$$$$
