=
 OpenBabel11122412593D

 32 37  0  0  1  0  0  0  0  0999 V2000
  160.4940  210.1170  152.0040 C   0  0  2  0  0  3  0  0  0  0  0  0
  160.7040  206.4120  155.2640 C   0  0  0  0  0  3  0  0  0  0  0  0
  160.2830  207.2710  156.2760 C   0  0  0  0  0  3  0  0  0  0  0  0
  159.7370  212.3310  152.9460 C   0  0  0  0  0  0  0  0  0  0  0  0
  159.3310  213.1950  154.1090 C   0  0  1  0  0  3  0  0  0  0  0  0
  161.8610  209.7920  150.0110 N   0  0  0  0  0  0  0  0  0  0  0  0
  161.4120  207.8360  151.3440 C   0  0  0  0  0  3  0  0  0  0  0  0
  158.8520  213.2570  156.3470 N   0  0  0  0  0  0  0  0  0  0  0  0
  160.8900  206.9000  153.9710 C   0  0  0  0  0  3  0  0  0  0  0  0
  160.8470  208.7030  152.4030 C   0  0  0  0  0  0  0  0  0  0  0  0
  160.6510  208.2520  153.6610 C   0  0  0  0  0  0  0  0  0  0  0  0
  160.0530  210.4420  154.4680 C   0  0  0  0  0  0  0  0  0  0  0  0
  157.6800  213.6570  155.6600 N   0  0  0  0  0  2  0  0  0  0  0  0
  161.8540  208.3570  150.1900 C   0  0  0  0  0  0  0  0  0  0  0  0
  157.8650  213.3650  154.2490 C   0  0  0  0  0  2  0  0  0  0  0  0
  160.0560  208.6190  155.9960 C   0  0  0  0  0  3  0  0  0  0  0  0
  160.2360  209.1280  154.6980 C   0  0  0  0  0  0  0  0  0  0  0  0
  159.6610  211.3240  155.5240 N   0  0  0  0  0  2  0  0  0  0  0  0
  161.6300  210.6780  151.1510 C   0  0  0  0  0  2  0  0  0  0  0  0
  159.6520  212.8060  151.7810 O   0  0  0  0  0  0  0  0  0  0  0  0
  159.4480  214.4530  156.9220 C   0  0  0  0  0  1  0  0  0  0  0  0
  160.1920  210.9830  153.1510 N   0  0  0  0  0  0  0  0  0  0  0  0
  159.7750  212.7250  155.4190 N   0  0  1  0  0  0  0  0  0  0  0  0
  161.8520  206.1670  149.2240 O   0  0  0  0  0  0  0  0  0  0  0  0
  162.4410  207.4480  149.1470 C   0  0  1  0  0  3  0  0  0  0  0  0
  161.3970  207.0060  148.1920 C   0  0  1  0  0  3  0  0  0  0  0  0
  162.0410  206.5760  146.8880 C   0  0  0  0  0  2  0  0  0  0  0  0
  161.1210  205.6780  146.1360 C   0  0  0  0  0  0  0  0  0  0  0  0
  161.2200  204.4300  146.2580 O   0  0  0  0  0  1  0  0  0  0  0  0
  160.1310  206.2200  145.3280 O   0  0  0  0  0  0  0  0  0  0  0  0
  162.0410  211.7920  148.8260 O   0  0  0  0  0  1  0  0  0  0  0  0
  162.1690  210.4060  148.7280 C   0  0  0  0  0  2  0  0  0  0  0  0
  1 19  1  1  0  0  0
  1 10  1  0  0  0  0
  1 22  1  0  0  0  0
  2  3  1  0  0  0  0
  4 22  1  0  0  0  0
  4  5  1  0  0  0  0
  5 15  1  1  0  0  0
  5 23  1  0  0  0  0
  6 14  1  0  0  0  0
  6 19  1  0  0  0  0
  7 10  1  0  0  0  0
  8 21  1  0  0  0  0
  9  2  2  0  0  0  0
 10 11  2  0  0  0  0
 11  9  1  0  0  0  0
 11 17  1  0  0  0  0
 12 17  2  0  0  0  0
 12 18  1  0  0  0  0
 13  8  1  0  0  0  0
 14  7  2  0  0  0  0
 15 13  1  0  0  0  0
 16  3  2  0  0  0  0
 17 16  1  0  0  0  0
 20  4  2  0  0  0  0
 22 12  1  0  0  0  0
 23 18  1  6  0  0  0
 23  8  1  0  0  0  0
 25 24  1  0  0  0  0
 25 14  1  1  0  0  0
 26 27  1  6  0  0  0
 26 25  1  0  0  0  0
 26 24  1  0  0  0  0
 28 29  1  0  0  0  0
 28 27  1  0  0  0  0
 30 28  2  0  0  0  0
 32 31  1  0  0  0  0
 32  6  1  0  0  0  0
M  END
>  <MODEL>
1

>  <REMARK>
 VINA RESULT:      -7.7      0.000      0.000
  Name = 
  4 active torsions:
  status: ('A' for Active; 'I' for Inactive)
    1  A    between atoms: N_7  and  C_19
    2  A    between atoms: C_10  and  C_17
    3  A    between atoms: C_20  and  C_29
    4  A    between atoms: C_29  and  C_30
                            x       y       z     vdW  Elec       q    Type
                         _______ _______ _______ _____ _____    ______ ____

>  <TORSDO>
F 4

$$$$
=
 OpenBabel11122412593D

 32 37  0  0  1  0  0  0  0  0999 V2000
  161.9050  207.1380  150.1730 C   0  0  2  0  0  3  0  0  0  0  0  0
  160.6740  203.0950  152.7280 C   0  0  0  0  0  3  0  0  0  0  0  0
  160.5860  202.3660  151.5450 C   0  0  0  0  0  3  0  0  0  0  0  0
  162.0500  206.8240  147.6750 C   0  0  0  0  0  0  0  0  0  0  0  0
  161.8860  205.9710  146.4450 C   0  0  1  0  0  3  0  0  0  0  0  0
  161.4880  209.2400  151.3380 N   0  0  0  0  0  0  0  0  0  0  0  0
  161.5050  207.2420  152.6850 C   0  0  0  0  0  3  0  0  0  0  0  0
  161.4150  203.8820  145.6370 N   0  0  0  0  0  0  0  0  0  0  0  0
  160.9910  204.4520  152.6880 C   0  0  0  0  0  3  0  0  0  0  0  0
  161.5280  206.4250  151.4500 C   0  0  0  0  0  0  0  0  0  0  0  0
  161.2330  205.1070  151.4650 C   0  0  0  0  0  0  0  0  0  0  0  0
  161.2890  204.9570  149.0610 C   0  0  0  0  0  0  0  0  0  0  0  0
  162.7320  204.2000  145.2230 N   0  0  0  0  0  2  0  0  0  0  0  0
  161.5290  208.5820  152.6240 C   0  0  0  0  0  0  0  0  0  0  0  0
  163.1540  205.3880  145.9440 C   0  0  0  0  0  2  0  0  0  0  0  0
  160.8050  202.9980  150.3210 C   0  0  0  0  0  3  0  0  0  0  0  0
  161.1260  204.3650  150.2590 C   0  0  0  0  0  0  0  0  0  0  0  0
  161.1540  204.2090  147.8500 N   0  0  0  0  0  2  0  0  0  0  0  0
  161.1720  208.4770  150.1300 C   0  0  0  0  0  2  0  0  0  0  0  0
  162.5630  207.9690  147.5530 O   0  0  0  0  0  0  0  0  0  0  0  0
  160.5500  204.0110  144.4740 C   0  0  0  0  0  1  0  0  0  0  0  0
  161.6530  206.3380  148.9680 N   0  0  0  0  0  0  0  0  0  0  0  0
  160.9880  204.8300  146.5940 N   0  0  1  0  0  0  0  0  0  0  0  0
  160.3320  210.1940  153.9270 O   0  0  0  0  0  0  0  0  0  0  0  0
  161.4830  209.3780  153.8990 C   0  0  1  0  0  3  0  0  0  0  0  0
  160.2860  209.0190  154.6960 C   0  0  1  0  0  3  0  0  0  0  0  0
  160.5120  209.3740  156.1530 C   0  0  0  0  0  2  0  0  0  0  0  0
  160.9670  208.1730  156.9060 C   0  0  0  0  0  0  0  0  0  0  0  0
  162.1710  208.0700  157.2590 O   0  0  0  0  0  1  0  0  0  0  0  0
  160.0570  207.1830  157.2480 O   0  0  0  0  0  0  0  0  0  0  0  0
  161.9930  210.9850  149.8780 O   0  0  0  0  0  1  0  0  0  0  0  0
  161.6780  210.6750  151.2010 C   0  0  0  0  0  2  0  0  0  0  0  0
  1 19  1  6  0  0  0
  1 10  1  0  0  0  0
  3  2  1  0  0  0  0
  4 22  1  0  0  0  0
  5 15  1  1  0  0  0
  5 23  1  0  0  0  0
  5  4  1  0  0  0  0
  6 14  1  0  0  0  0
  8 23  1  0  0  0  0
  9  2  2  0  0  0  0
 10 11  2  0  0  0  0
 10  7  1  0  0  0  0
 11  9  1  0  0  0  0
 12 17  2  0  0  0  0
 13  8  1  0  0  0  0
 13 15  1  0  0  0  0
 14  7  2  0  0  0  0
 16  3  2  0  0  0  0
 17 16  1  0  0  0  0
 17 11  1  0  0  0  0
 18 12  1  0  0  0  0
 19  6  1  0  0  0  0
 20  4  2  0  0  0  0
 21  8  1  0  0  0  0
 22 12  1  0  0  0  0
 22  1  1  0  0  0  0
 23 18  1  1  0  0  0
 24 26  1  0  0  0  0
 25 14  1  6  0  0  0
 25 24  1  0  0  0  0
 25 26  1  0  0  0  0
 26 27  1  1  0  0  0
 27 28  1  0  0  0  0
 28 30  2  0  0  0  0
 28 29  1  0  0  0  0
 31 32  1  0  0  0  0
 32  6  1  0  0  0  0
M  END
>  <MODEL>
2

>  <REMARK>
 VINA RESULT:      -7.6      3.772      8.472
  Name = 
  4 active torsions:
  status: ('A' for Active; 'I' for Inactive)
    1  A    between atoms: N_7  and  C_19
    2  A    between atoms: C_10  and  C_17
    3  A    between atoms: C_20  and  C_29
    4  A    between atoms: C_29  and  C_30
                            x       y       z     vdW  Elec       q    Type
                         _______ _______ _______ _____ _____    ______ ____

>  <TORSDO>
F 4

$$$$
=
 OpenBabel11122412593D

 32 37  0  0  1  0  0  0  0  0999 V2000
  161.5110  206.5640  150.5190 C   0  0  2  0  0  3  0  0  0  0  0  0
  160.6430  201.9220  151.9630 C   0  0  0  0  0  3  0  0  0  0  0  0
  160.6840  201.4950  150.6370 C   0  0  0  0  0  3  0  0  0  0  0  0
  161.7890  206.8790  148.0320 C   0  0  0  0  0  0  0  0  0  0  0  0
  161.7710  206.3370  146.6280 C   0  0  1  0  0  3  0  0  0  0  0  0
  160.8130  208.2700  152.1170 N   0  0  0  0  0  0  0  0  0  0  0  0
  161.0020  206.0180  152.9540 C   0  0  0  0  0  3  0  0  0  0  0  0
  161.5700  204.4680  145.3210 N   0  0  0  0  0  0  0  0  0  0  0  0
  160.8060  203.2730  152.2640 C   0  0  0  0  0  3  0  0  0  0  0  0
  161.1660  205.5300  151.5650 C   0  0  0  0  0  0  0  0  0  0  0  0
  161.0210  204.2250  151.2490 C   0  0  0  0  0  0  0  0  0  0  0  0
  161.1880  204.6670  148.8870 C   0  0  0  0  0  0  0  0  0  0  0  0
  162.8590  205.0070  145.0810 N   0  0  0  0  0  2  0  0  0  0  0  0
  160.8770  207.3280  153.2120 C   0  0  0  0  0  0  0  0  0  0  0  0
  163.1150  206.0220  146.0880 C   0  0  0  0  0  2  0  0  0  0  0  0
  160.8790  202.4230  149.6140 C   0  0  0  0  0  3  0  0  0  0  0  0
  161.0460  203.7890  149.8980 C   0  0  0  0  0  0  0  0  0  0  0  0
  161.1870  204.2240  147.5270 N   0  0  0  0  0  2  0  0  0  0  0  0
  160.6340  207.7940  150.7460 C   0  0  0  0  0  2  0  0  0  0  0  0
  162.1740  208.0650  148.2180 O   0  0  0  0  0  0  0  0  0  0  0  0
  160.7430  204.7870  144.1680 C   0  0  0  0  0  1  0  0  0  0  0  0
  161.3980  206.0580  149.1450 N   0  0  0  0  0  0  0  0  0  0  0  0
  161.0020  205.1090  146.4450 N   0  0  1  0  0  0  0  0  0  0  0  0
  161.4140  206.9530  155.5150 O   0  0  0  0  0  0  0  0  0  0  0  0
  160.6910  207.7840  154.6320 C   0  0  1  0  0  3  0  0  0  0  0  0
  161.9860  208.2030  155.2210 C   0  0  1  0  0  3  0  0  0  0  0  0
  161.7420  209.1420  156.3870 C   0  0  0  0  0  2  0  0  0  0  0  0
  162.2530  210.5020  156.0610 C   0  0  0  0  0  0  0  0  0  0  0  0
  163.4410  210.8110  156.3370 O   0  0  0  0  0  1  0  0  0  0  0  0
  161.4290  211.4170  155.4210 O   0  0  0  0  0  0  0  0  0  0  0  0
  162.1620  210.1660  152.2630 O   0  0  0  0  0  1  0  0  0  0  0  0
  160.8460  209.7080  152.3350 C   0  0  0  0  0  2  0  0  0  0  0  0
  1 19  1  6  0  0  0
  1 10  1  0  0  0  0
  2  9  2  0  0  0  0
  3  2  1  0  0  0  0
  4 20  2  0  0  0  0
  4 22  1  0  0  0  0
  5 15  1  1  0  0  0
  5  4  1  0  0  0  0
  6 32  1  0  0  0  0
  6 14  1  0  0  0  0
  7 14  2  0  0  0  0
  8 23  1  0  0  0  0
 10  7  1  0  0  0  0
 11 10  2  0  0  0  0
 11  9  1  0  0  0  0
 12 22  1  0  0  0  0
 12 17  2  0  0  0  0
 13  8  1  0  0  0  0
 13 15  1  0  0  0  0
 16 17  1  0  0  0  0
 16  3  2  0  0  0  0
 17 11  1  0  0  0  0
 18 12  1  0  0  0  0
 19  6  1  0  0  0  0
 21  8  1  0  0  0  0
 22  1  1  0  0  0  0
 23  5  1  0  0  0  0
 23 18  1  1  0  0  0
 25 14  1  6  0  0  0
 25 26  1  0  0  0  0
 25 24  1  0  0  0  0
 26 24  1  0  0  0  0
 26 27  1  1  0  0  0
 28 29  1  0  0  0  0
 28 27  1  0  0  0  0
 30 28  2  0  0  0  0
 31 32  1  0  0  0  0
M  END
>  <MODEL>
3

>  <REMARK>
 VINA RESULT:      -7.5      3.883      8.622
  Name = 
  4 active torsions:
  status: ('A' for Active; 'I' for Inactive)
    1  A    between atoms: N_7  and  C_19
    2  A    between atoms: C_10  and  C_17
    3  A    between atoms: C_20  and  C_29
    4  A    between atoms: C_29  and  C_30
                            x       y       z     vdW  Elec       q    Type
                         _______ _______ _______ _____ _____    ______ ____

>  <TORSDO>
F 4

$$$$
=
 OpenBabel11122412593D

 32 37  0  0  1  0  0  0  0  0999 V2000
  161.5760  206.5860  151.7090 C   0  0  2  0  0  3  0  0  0  0  0  0
  162.1430  210.4350  148.6670 C   0  0  0  0  0  3  0  0  0  0  0  0
  161.8610  211.3110  149.7130 C   0  0  0  0  0  3  0  0  0  0  0  0
  161.0120  207.1790  154.0940 C   0  0  0  0  0  0  0  0  0  0  0  0
  160.6750  208.1950  155.1520 C   0  0  1  0  0  3  0  0  0  0  0  0
  161.0720  204.4770  150.5920 N   0  0  0  0  0  0  0  0  0  0  0  0
  161.9560  206.2450  149.2140 C   0  0  0  0  0  3  0  0  0  0  0  0
  160.4650  210.4220  155.6420 N   0  0  0  0  0  0  0  0  0  0  0  0
  162.1150  209.0590  148.8860 C   0  0  0  0  0  3  0  0  0  0  0  0
  161.7820  207.1920  150.3400 C   0  0  0  0  0  0  0  0  0  0  0  0
  161.8130  208.5290  150.1550 C   0  0  0  0  0  0  0  0  0  0  0  0
  161.1590  208.9670  152.4320 C   0  0  0  0  0  0  0  0  0  0  0  0
  161.4820  209.9050  156.4820 N   0  0  0  0  0  2  0  0  0  0  0  0
  161.6560  204.9450  149.3550 C   0  0  0  0  0  0  0  0  0  0  0  0
  161.8250  208.5760  156.0080 C   0  0  0  0  0  2  0  0  0  0  0  0
  161.5440  210.8080  150.9750 C   0  0  0  0  0  3  0  0  0  0  0  0
  161.5120  209.4230  151.2160 C   0  0  0  0  0  0  0  0  0  0  0  0
  160.8310  209.8740  153.4880 N   0  0  0  0  0  2  0  0  0  0  0  0
  160.5820  205.4330  151.5840 C   0  0  0  0  0  2  0  0  0  0  0  0
  161.1890  205.9790  154.4420 O   0  0  0  0  0  0  0  0  0  0  0  0
  159.2790  210.6130  156.4620 C   0  0  0  0  0  1  0  0  0  0  0  0
  161.1530  207.5650  152.7180 N   0  0  0  0  0  0  0  0  0  0  0  0
  160.1500  209.4630  154.6530 N   0  0  1  0  0  0  0  0  0  0  0  0
  160.5730  203.5170  147.7690 O   0  0  0  0  0  0  0  0  0  0  0  0
  161.8250  204.0190  148.1830 C   0  0  1  0  0  3  0  0  0  0  0  0
  161.1220  204.5510  146.9910 C   0  0  1  0  0  3  0  0  0  0  0  0
  161.7210  203.9550  145.7320 C   0  0  0  0  0  2  0  0  0  0  0  0
  160.9740  204.4350  144.5360 C   0  0  0  0  0  0  0  0  0  0  0  0
  159.8990  203.8740  144.1970 O   0  0  0  0  0  1  0  0  0  0  0  0
  161.4450  205.5230  143.8160 O   0  0  0  0  0  0  0  0  0  0  0  0
  160.8920  202.8390  152.2420 O   0  0  0  0  0  1  0  0  0  0  0  0
  160.8800  203.0610  150.8650 C   0  0  0  0  0  2  0  0  0  0  0  0
  1 19  1  6  0  0  0
  1 22  1  0  0  0  0
  2  9  2  0  0  0  0
  2  3  1  0  0  0  0
  3 16  2  0  0  0  0
  4 20  2  0  0  0  0
  4  5  1  0  0  0  0
  5 15  1  6  0  0  0
  6 32  1  0  0  0  0
  6 19  1  0  0  0  0
  7 14  2  0  0  0  0
  7 10  1  0  0  0  0
  8 21  1  0  0  0  0
  8 13  1  0  0  0  0
  9 11  1  0  0  0  0
 10  1  1  0  0  0  0
 11 10  2  0  0  0  0
 11 17  1  0  0  0  0
 12 22  1  0  0  0  0
 12 18  1  0  0  0  0
 14  6  1  0  0  0  0
 15 13  1  0  0  0  0
 16 17  1  0  0  0  0
 17 12  2  0  0  0  0
 22  4  1  0  0  0  0
 23 18  1  6  0  0  0
 23  5  1  0  0  0  0
 23  8  1  0  0  0  0
 24 25  1  0  0  0  0
 25 14  1  1  0  0  0
 26 27  1  6  0  0  0
 26 24  1  0  0  0  0
 26 25  1  0  0  0  0
 28 27  1  0  0  0  0
 29 28  1  0  0  0  0
 30 28  2  0  0  0  0
 32 31  1  0  0  0  0
M  END
>  <MODEL>
4

>  <REMARK>
 VINA RESULT:      -7.3      2.901      4.912
  Name = 
  4 active torsions:
  status: ('A' for Active; 'I' for Inactive)
    1  A    between atoms: N_7  and  C_19
    2  A    between atoms: C_10  and  C_17
    3  A    between atoms: C_20  and  C_29
    4  A    between atoms: C_29  and  C_30
                            x       y       z     vdW  Elec       q    Type
                         _______ _______ _______ _____ _____    ______ ____

>  <TORSDO>
F 4

$$$$
=
 OpenBabel11122412593D

 32 37  0  0  1  0  0  0  0  0999 V2000
  161.9370  207.1390  150.1470 C   0  0  2  0  0  3  0  0  0  0  0  0
  160.7510  203.1260  152.7700 C   0  0  0  0  0  3  0  0  0  0  0  0
  160.6360  202.3860  151.5960 C   0  0  0  0  0  3  0  0  0  0  0  0
  162.0290  206.7990  147.6500 C   0  0  0  0  0  0  0  0  0  0  0  0
  161.8370  205.9350  146.4330 C   0  0  1  0  0  3  0  0  0  0  0  0
  161.5480  209.2540  151.2980 N   0  0  0  0  0  0  0  0  0  0  0  0
  161.5900  207.2710  152.6660 C   0  0  0  0  0  3  0  0  0  0  0  0
  161.3450  203.8380  145.6570 N   0  0  0  0  0  0  0  0  0  0  0  0
  161.0690  204.4820  152.7080 C   0  0  0  0  0  3  0  0  0  0  0  0
  161.5840  206.4410  151.4400 C   0  0  0  0  0  0  0  0  0  0  0  0
  161.2870  205.1240  151.4740 C   0  0  0  0  0  0  0  0  0  0  0  0
  161.2930  204.9490  149.0710 C   0  0  0  0  0  0  0  0  0  0  0  0
  162.6540  204.1490  145.2120 N   0  0  0  0  0  2  0  0  0  0  0  0
  161.6150  208.6100  152.5910 C   0  0  0  0  0  0  0  0  0  0  0  0
  163.0930  205.3440  145.9120 C   0  0  0  0  0  2  0  0  0  0  0  0
  160.8310  203.0050  150.3610 C   0  0  0  0  0  3  0  0  0  0  0  0
  161.1540  204.3700  150.2780 C   0  0  0  0  0  0  0  0  0  0  0  0
  161.1310  204.1890  147.8710 N   0  0  0  0  0  2  0  0  0  0  0  0
  161.2060  208.4800  150.1060 C   0  0  0  0  0  2  0  0  0  0  0  0
  162.5420  207.9420  147.5050 O   0  0  0  0  0  0  0  0  0  0  0  0
  160.4560  203.9580  144.5110 C   0  0  0  0  0  1  0  0  0  0  0  0
  161.6580  206.3280  148.9560 N   0  0  0  0  0  0  0  0  0  0  0  0
  160.9400  204.7970  146.6120 N   0  0  1  0  0  0  0  0  0  0  0  0
  160.6230  210.4370  153.7770 O   0  0  0  0  0  0  0  0  0  0  0  0
  161.5970  209.4190  153.8580 C   0  0  1  0  0  3  0  0  0  0  0  0
  160.2830  209.3030  154.5340 C   0  0  1  0  0  3  0  0  0  0  0  0
  160.4310  209.6310  156.0070 C   0  0  0  0  0  2  0  0  0  0  0  0
  159.6730  210.8700  156.3320 C   0  0  0  0  0  0  0  0  0  0  0  0
  158.4180  210.8870  156.2300 O   0  0  0  0  0  0  0  0  0  0  0  0
  160.3470  211.9970  156.7810 O   0  0  0  0  0  1  0  0  0  0  0  0
  161.9560  210.9920  149.7990 O   0  0  0  0  0  1  0  0  0  0  0  0
  161.7390  210.6880  151.1430 C   0  0  0  0  0  2  0  0  0  0  0  0
  1 19  1  6  0  0  0
  1 10  1  0  0  0  0
  3  2  1  0  0  0  0
  4 22  1  0  0  0  0
  5 15  1  1  0  0  0
  5 23  1  0  0  0  0
  5  4  1  0  0  0  0
  6 14  1  0  0  0  0
  8 23  1  0  0  0  0
  9  2  2  0  0  0  0
 10 11  2  0  0  0  0
 10  7  1  0  0  0  0
 11  9  1  0  0  0  0
 12 17  2  0  0  0  0
 13  8  1  0  0  0  0
 13 15  1  0  0  0  0
 14  7  2  0  0  0  0
 16  3  2  0  0  0  0
 17 16  1  0  0  0  0
 17 11  1  0  0  0  0
 18 12  1  0  0  0  0
 19  6  1  0  0  0  0
 20  4  2  0  0  0  0
 21  8  1  0  0  0  0
 22 12  1  0  0  0  0
 22  1  1  0  0  0  0
 23 18  1  1  0  0  0
 24 25  1  0  0  0  0
 24 26  1  0  0  0  0
 25 14  1  6  0  0  0
 25 26  1  0  0  0  0
 26 27  1  1  0  0  0
 27 28  1  0  0  0  0
 28 30  1  0  0  0  0
 29 28  2  0  0  0  0
 31 32  1  0  0  0  0
 32  6  1  0  0  0  0
M  END
>  <MODEL>
5

>  <REMARK>
 VINA RESULT:      -7.3      3.482      8.552
  Name = 
  4 active torsions:
  status: ('A' for Active; 'I' for Inactive)
    1  A    between atoms: N_7  and  C_19
    2  A    between atoms: C_10  and  C_17
    3  A    between atoms: C_20  and  C_29
    4  A    between atoms: C_29  and  C_30
                            x       y       z     vdW  Elec       q    Type
                         _______ _______ _______ _____ _____    ______ ____

>  <TORSDO>
F 4

$$$$
=
 OpenBabel11122412593D

 32 37  0  0  1  0  0  0  0  0999 V2000
  161.7000  207.5080  151.6500 C   0  0  2  0  0  3  0  0  0  0  0  0
  162.0360  211.1640  148.3470 C   0  0  0  0  0  3  0  0  0  0  0  0
  161.7510  212.0970  149.3420 C   0  0  0  0  0  3  0  0  0  0  0  0
  161.1790  208.2380  154.0070 C   0  0  0  0  0  0  0  0  0  0  0  0
  160.8340  209.3090  155.0060 C   0  0  1  0  0  3  0  0  0  0  0  0
  161.2460  205.3120  150.6890 N   0  0  0  0  0  0  0  0  0  0  0  0
  162.0240  207.0160  149.1730 C   0  0  0  0  0  3  0  0  0  0  0  0
  160.5520  211.5550  155.3550 N   0  0  0  0  0  0  0  0  0  0  0  0
  162.0660  209.8050  148.6570 C   0  0  0  0  0  3  0  0  0  0  0  0
  161.8450  208.0280  150.2390 C   0  0  0  0  0  0  0  0  0  0  0  0
  161.8200  209.3510  149.9660 C   0  0  0  0  0  0  0  0  0  0  0  0
  161.2120  209.9160  152.2280 C   0  0  0  0  0  0  0  0  0  0  0  0
  161.6110  211.1330  156.1960 N   0  0  0  0  0  2  0  0  0  0  0  0
  161.7770  205.7180  149.4070 C   0  0  0  0  0  0  0  0  0  0  0  0
  161.9910  209.7880  155.8000 C   0  0  0  0  0  2  0  0  0  0  0  0
  161.4870  211.6680  150.6430 C   0  0  0  0  0  3  0  0  0  0  0  0
  161.5140  210.3020  150.9740 C   0  0  0  0  0  0  0  0  0  0  0  0
  160.8790  210.8790  153.2320 N   0  0  0  0  0  2  0  0  0  0  0  0
  160.7480  206.3140  151.6310 C   0  0  0  0  0  2  0  0  0  0  0  0
  161.4110  207.0710  154.4280 O   0  0  0  0  0  0  0  0  0  0  0  0
  159.3820  211.7570  156.1960 C   0  0  0  0  0  1  0  0  0  0  0  0
  161.2680  208.5360  152.6050 N   0  0  0  0  0  0  0  0  0  0  0  0
  160.2470  210.5210  154.4410 N   0  0  1  0  0  0  0  0  0  0  0  0
  160.6940  204.3550  147.7660 O   0  0  0  0  0  0  0  0  0  0  0  0
  161.9490  204.7230  148.2940 C   0  0  1  0  0  3  0  0  0  0  0  0
  161.4430  205.2770  147.0150 C   0  0  1  0  0  3  0  0  0  0  0  0
  162.0900  204.5530  145.8500 C   0  0  0  0  0  2  0  0  0  0  0  0
  161.2250  204.6580  144.6420 C   0  0  0  0  0  0  0  0  0  0  0  0
  161.4560  205.5420  143.7760 O   0  0  0  0  0  0  0  0  0  0  0  0
  160.1850  203.7580  144.4540 O   0  0  0  0  0  1  0  0  0  0  0  0
  160.6900  203.8110  152.3840 O   0  0  0  0  0  1  0  0  0  0  0  0
  161.1160  203.9120  151.0600 C   0  0  0  0  0  2  0  0  0  0  0  0
  1 19  1  6  0  0  0
  1 22  1  0  0  0  0
  2  9  2  0  0  0  0
  2  3  1  0  0  0  0
  3 16  2  0  0  0  0
  4 20  2  0  0  0  0
  4  5  1  0  0  0  0
  5 15  1  6  0  0  0
  6 32  1  0  0  0  0
  6 19  1  0  0  0  0
  7 14  2  0  0  0  0
  7 10  1  0  0  0  0
  8 21  1  0  0  0  0
  8 13  1  0  0  0  0
  9 11  1  0  0  0  0
 10  1  1  0  0  0  0
 11 10  2  0  0  0  0
 11 17  1  0  0  0  0
 12 22  1  0  0  0  0
 12 18  1  0  0  0  0
 14  6  1  0  0  0  0
 15 13  1  0  0  0  0
 16 17  1  0  0  0  0
 17 12  2  0  0  0  0
 22  4  1  0  0  0  0
 23 18  1  6  0  0  0
 23  5  1  0  0  0  0
 23  8  1  0  0  0  0
 24 25  1  0  0  0  0
 25 14  1  1  0  0  0
 26 27  1  6  0  0  0
 26 24  1  0  0  0  0
 26 25  1  0  0  0  0
 28 27  1  0  0  0  0
 29 28  2  0  0  0  0
 30 28  1  0  0  0  0
 32 31  1  0  0  0  0
M  END
>  <MODEL>
6

>  <REMARK>
 VINA RESULT:      -7.1      2.501      4.582
  Name = 
  4 active torsions:
  status: ('A' for Active; 'I' for Inactive)
    1  A    between atoms: N_7  and  C_19
    2  A    between atoms: C_10  and  C_17
    3  A    between atoms: C_20  and  C_29
    4  A    between atoms: C_29  and  C_30
                            x       y       z     vdW  Elec       q    Type
                         _______ _______ _______ _____ _____    ______ ____

>  <TORSDO>
F 4

$$$$
=
 OpenBabel11122412593D

 32 37  0  0  1  0  0  0  0  0999 V2000
  161.4130  206.3660  151.2400 C   0  0  2  0  0  3  0  0  0  0  0  0
  162.0850  210.5080  148.6360 C   0  0  0  0  0  3  0  0  0  0  0  0
  161.9530  211.2660  149.7960 C   0  0  0  0  0  3  0  0  0  0  0  0
  161.0700  206.7010  153.7160 C   0  0  0  0  0  0  0  0  0  0  0  0
  160.8960  207.6020  154.9100 C   0  0  1  0  0  3  0  0  0  0  0  0
  160.6550  204.4550  149.9280 N   0  0  0  0  0  0  0  0  0  0  0  0
  161.5860  206.3080  148.7010 C   0  0  0  0  0  3  0  0  0  0  0  0
  160.9090  209.7600  155.6720 N   0  0  0  0  0  0  0  0  0  0  0  0
  161.9570  209.1210  148.6930 C   0  0  0  0  0  3  0  0  0  0  0  0
  161.5720  207.1190  149.9400 C   0  0  0  0  0  0  0  0  0  0  0  0
  161.7020  208.4630  149.9110 C   0  0  0  0  0  0  0  0  0  0  0  0
  161.2490  208.6650  152.2690 C   0  0  0  0  0  0  0  0  0  0  0  0
  161.9350  209.0690  156.3620 N   0  0  0  0  0  2  0  0  0  0  0  0
  161.1870  205.0270  148.7110 C   0  0  0  0  0  0  0  0  0  0  0  0
  162.1310  207.7870  155.7090 C   0  0  0  0  0  2  0  0  0  0  0  0
  161.6840  210.6370  151.0120 C   0  0  0  0  0  3  0  0  0  0  0  0
  161.5530  209.2400  151.0900 C   0  0  0  0  0  0  0  0  0  0  0  0
  161.0740  209.4570  153.4470 N   0  0  0  0  0  2  0  0  0  0  0  0
  160.3190  205.3160  151.0610 C   0  0  0  0  0  2  0  0  0  0  0  0
  161.1690  205.4580  153.9060 O   0  0  0  0  0  0  0  0  0  0  0  0
  159.8030  209.9370  156.6010 C   0  0  0  0  0  1  0  0  0  0  0  0
  161.1460  207.2430  152.3870 N   0  0  0  0  0  0  0  0  0  0  0  0
  160.4450  208.9570  154.6060 N   0  0  1  0  0  0  0  0  0  0  0  0
  162.5110  203.8640  147.0920 O   0  0  0  0  0  0  0  0  0  0  0  0
  161.1950  204.2430  147.4290 C   0  0  1  0  0  3  0  0  0  0  0  0
  161.6990  202.8680  147.6600 C   0  0  1  0  0  3  0  0  0  0  0  0
  161.2060  201.9480  146.5600 C   0  0  0  0  0  2  0  0  0  0  0  0
  161.3480  200.5270  146.9830 C   0  0  0  0  0  0  0  0  0  0  0  0
  161.5640  200.2480  148.1910 O   0  0  0  0  0  1  0  0  0  0  0  0
  161.2070  199.5090  146.0510 O   0  0  0  0  0  0  0  0  0  0  0  0
  161.1070  202.4870  151.0940 O   0  0  0  0  0  1  0  0  0  0  0  0
  160.3650  203.0340  150.0470 C   0  0  0  0  0  2  0  0  0  0  0  0
  1 19  1  6  0  0  0
  1 22  1  0  0  0  0
  2  9  2  0  0  0  0
  2  3  1  0  0  0  0
  3 16  2  0  0  0  0
  4 20  2  0  0  0  0
  4  5  1  0  0  0  0
  5 15  1  6  0  0  0
  6 32  1  0  0  0  0
  6 19  1  0  0  0  0
  7 14  2  0  0  0  0
  7 10  1  0  0  0  0
  8 13  1  0  0  0  0
  8 21  1  0  0  0  0
  9 11  1  0  0  0  0
 10  1  1  0  0  0  0
 11 10  2  0  0  0  0
 11 17  1  0  0  0  0
 12 22  1  0  0  0  0
 12 18  1  0  0  0  0
 14  6  1  0  0  0  0
 15 13  1  0  0  0  0
 16 17  1  0  0  0  0
 17 12  2  0  0  0  0
 22  4  1  0  0  0  0
 23 18  1  6  0  0  0
 23  5  1  0  0  0  0
 23  8  1  0  0  0  0
 24 25  1  0  0  0  0
 24 26  1  0  0  0  0
 25 26  1  0  0  0  0
 25 14  1  1  0  0  0
 26 27  1  6  0  0  0
 27 28  1  0  0  0  0
 28 29  1  0  0  0  0
 30 28  2  0  0  0  0
 32 31  1  0  0  0  0
M  END
>  <MODEL>
7

>  <REMARK>
 VINA RESULT:      -6.8      3.191      5.440
  Name = 
  4 active torsions:
  status: ('A' for Active; 'I' for Inactive)
    1  A    between atoms: N_7  and  C_19
    2  A    between atoms: C_10  and  C_17
    3  A    between atoms: C_20  and  C_29
    4  A    between atoms: C_29  and  C_30
                            x       y       z     vdW  Elec       q    Type
                         _______ _______ _______ _____ _____    ______ ____

>  <TORSDO>
F 4

$$$$
=
 OpenBabel11122412593D

 32 37  0  0  1  0  0  0  0  0999 V2000
  160.8460  207.7880  150.8080 C   0  0  2  0  0  3  0  0  0  0  0  0
  160.8120  202.9030  151.5350 C   0  0  0  0  0  3  0  0  0  0  0  0
  160.8580  203.1020  152.9130 C   0  0  0  0  0  3  0  0  0  0  0  0
  160.9090  209.1840  152.9070 C   0  0  0  0  0  0  0  0  0  0  0  0
  161.0050  209.3030  154.4050 C   0  0  1  0  0  3  0  0  0  0  0  0
  161.6110  208.4790  148.5970 N   0  0  0  0  0  0  0  0  0  0  0  0
  160.9800  206.1670  148.8490 C   0  0  0  0  0  3  0  0  0  0  0  0
  161.0630  208.1730  156.3950 N   0  0  0  0  0  0  0  0  0  0  0  0
  160.8270  203.9990  150.6730 C   0  0  0  0  0  3  0  0  0  0  0  0
  160.9040  206.3610  150.3150 C   0  0  0  0  0  0  0  0  0  0  0  0
  160.8810  205.3160  151.1700 C   0  0  0  0  0  0  0  0  0  0  0  0
  161.0570  206.7500  153.0980 C   0  0  0  0  0  0  0  0  0  0  0  0
  159.9100  208.9970  156.4180 N   0  0  0  0  0  2  0  0  0  0  0  0
  161.2760  207.1900  148.0330 C   0  0  0  0  0  0  0  0  0  0  0  0
  159.6990  209.5110  155.0760 C   0  0  0  0  0  2  0  0  0  0  0  0
  160.9290  204.3970  153.4270 C   0  0  0  0  0  3  0  0  0  0  0  0
  160.9440  205.5150  152.5740 C   0  0  0  0  0  0  0  0  0  0  0  0
  161.1470  206.9400  154.5130 N   0  0  0  0  0  2  0  0  0  0  0  0
  161.8710  208.6110  150.0300 C   0  0  0  0  0  2  0  0  0  0  0  0
  160.6940  210.2260  152.2300 O   0  0  0  0  0  0  0  0  0  0  0  0
  162.0570  208.7920  157.2580 C   0  0  0  0  0  1  0  0  0  0  0  0
  161.0370  207.9080  152.2580 N   0  0  0  0  0  0  0  0  0  0  0  0
  161.5900  208.1510  155.0840 N   0  0  1  0  0  0  0  0  0  0  0  0
  162.6350  206.4360  146.2130 O   0  0  0  0  0  0  0  0  0  0  0  0
  161.3650  206.9490  146.5520 C   0  0  1  0  0  3  0  0  0  0  0  0
  161.5800  205.5100  146.2690 C   0  0  1  0  0  3  0  0  0  0  0  0
  161.1300  205.1910  144.8560 C   0  0  0  0  0  2  0  0  0  0  0  0
  160.5590  203.8170  144.8010 C   0  0  0  0  0  0  0  0  0  0  0  0
  159.5140  203.5950  144.1360 O   0  0  0  0  0  0  0  0  0  0  0  0
  161.1990  202.7740  145.4550 O   0  0  0  0  0  1  0  0  0  0  0  0
  162.4010  210.6700  148.5010 O   0  0  0  0  0  1  0  0  0  0  0  0
  161.7760  209.6620  147.7670 C   0  0  0  0  0  2  0  0  0  0  0  0
  1 19  1  6  0  0  0
  1 22  1  0  0  0  0
  2  3  1  0  0  0  0
  3 16  2  0  0  0  0
  4  5  1  0  0  0  0
  5 15  1  1  0  0  0
  5 23  1  0  0  0  0
  6 19  1  0  0  0  0
  7 10  1  0  0  0  0
  8 13  1  0  0  0  0
  8 21  1  0  0  0  0
  9 11  1  0  0  0  0
  9  2  2  0  0  0  0
 10  1  1  0  0  0  0
 10 11  2  0  0  0  0
 11 17  1  0  0  0  0
 12 18  1  0  0  0  0
 14  6  1  0  0  0  0
 14  7  2  0  0  0  0
 15 13  1  0  0  0  0
 17 12  2  0  0  0  0
 17 16  1  0  0  0  0
 20  4  2  0  0  0  0
 22  4  1  0  0  0  0
 22 12  1  0  0  0  0
 23 18  1  6  0  0  0
 23  8  1  0  0  0  0
 24 26  1  0  0  0  0
 24 25  1  0  0  0  0
 25 14  1  1  0  0  0
 26 27  1  6  0  0  0
 26 25  1  0  0  0  0
 28 27  1  0  0  0  0
 28 30  1  0  0  0  0
 29 28  2  0  0  0  0
 32 31  1  0  0  0  0
 32  6  1  0  0  0  0
M  END
>  <MODEL>
8

>  <REMARK>
 VINA RESULT:      -6.5      2.598      3.801
  Name = 
  4 active torsions:
  status: ('A' for Active; 'I' for Inactive)
    1  A    between atoms: N_7  and  C_19
    2  A    between atoms: C_10  and  C_17
    3  A    between atoms: C_20  and  C_29
    4  A    between atoms: C_29  and  C_30
                            x       y       z     vdW  Elec       q    Type
                         _______ _______ _______ _____ _____    ______ ____

>  <TORSDO>
F 4

$$$$
=
 OpenBabel11122412593D

 32 37  0  0  1  0  0  0  0  0999 V2000
  160.7670  205.9900  152.0830 C   0  0  2  0  0  3  0  0  0  0  0  0
  161.9560  208.8830  148.2610 C   0  0  0  0  0  3  0  0  0  0  0  0
  162.0090  207.7680  147.4270 C   0  0  0  0  0  3  0  0  0  0  0  0
  160.5720  203.5330  151.5480 C   0  0  0  0  0  0  0  0  0  0  0  0
  160.6960  202.3830  150.5840 C   0  0  1  0  0  3  0  0  0  0  0  0
  161.2490  206.9520  154.2720 N   0  0  0  0  0  0  0  0  0  0  0  0
  161.2120  208.4760  152.4050 C   0  0  0  0  0  3  0  0  0  0  0  0
  161.1090  201.7610  148.4200 N   0  0  0  0  0  0  0  0  0  0  0  0
  161.6680  208.7240  149.6150 C   0  0  0  0  0  3  0  0  0  0  0  0
  161.1510  207.3210  151.4800 C   0  0  0  0  0  0  0  0  0  0  0  0
  161.4190  207.4510  150.1630 C   0  0  0  0  0  0  0  0  0  0  0  0
  161.3180  205.0710  149.7980 C   0  0  0  0  0  0  0  0  0  0  0  0
  159.7920  201.3400  148.7290 N   0  0  0  0  0  2  0  0  0  0  0  0
  161.2160  208.2940  153.7340 C   0  0  0  0  0  0  0  0  0  0  0  0
  159.4080  201.9570  149.9870 C   0  0  0  0  0  2  0  0  0  0  0  0
  161.7820  206.4960  147.9500 C   0  0  0  0  0  3  0  0  0  0  0  0
  161.4880  206.3150  149.3130 C   0  0  0  0  0  0  0  0  0  0  0  0
  161.4150  203.9310  148.9410 N   0  0  0  0  0  2  0  0  0  0  0  0
  161.5270  205.8150  153.3960 C   0  0  0  0  0  2  0  0  0  0  0  0
  160.0810  203.3160  152.6890 O   0  0  0  0  0  0  0  0  0  0  0  0
  161.9560  200.5780  148.4240 C   0  0  0  0  0  1  0  0  0  0  0  0
  160.9810  204.8580  151.1720 N   0  0  0  0  0  0  0  0  0  0  0  0
  161.5730  202.6210  149.4410 N   0  0  1  0  0  0  0  0  0  0  0  0
  161.0240  210.6730  153.9220 O   0  0  0  0  0  0  0  0  0  0  0  0
  161.3010  209.4900  154.6410 C   0  0  1  0  0  3  0  0  0  0  0  0
  159.9890  210.1730  154.7300 C   0  0  1  0  0  3  0  0  0  0  0  0
  159.9200  210.9910  156.0050 C   0  0  0  0  0  2  0  0  0  0  0  0
  158.8180  211.9880  155.9120 C   0  0  0  0  0  0  0  0  0  0  0  0
  158.9700  213.0350  155.2300 O   0  0  0  0  0  0  0  0  0  0  0  0
  157.6090  211.7460  156.5490 O   0  0  0  0  0  1  0  0  0  0  0  0
  159.7710  206.9530  156.0740 O   0  0  0  0  0  1  0  0  0  0  0  0
  161.0860  206.6890  155.6930 C   0  0  0  0  0  2  0  0  0  0  0  0
  1 19  1  1  0  0  0
  2  9  2  0  0  0  0
  3 16  2  0  0  0  0
  3  2  1  0  0  0  0
  4 20  2  0  0  0  0
  5 15  1  6  0  0  0
  5  4  1  0  0  0  0
  6 32  1  0  0  0  0
  7 14  2  0  0  0  0
  8 21  1  0  0  0  0
  8 13  1  0  0  0  0
  8 23  1  0  0  0  0
  9 11  1  0  0  0  0
 10  1  1  0  0  0  0
 10  7  1  0  0  0  0
 11 10  2  0  0  0  0
 12 22  1  0  0  0  0
 13 15  1  0  0  0  0
 14  6  1  0  0  0  0
 16 17  1  0  0  0  0
 17 12  2  0  0  0  0
 17 11  1  0  0  0  0
 18 12  1  0  0  0  0
 19  6  1  0  0  0  0
 22  4  1  0  0  0  0
 22  1  1  0  0  0  0
 23 18  1  6  0  0  0
 23  5  1  0  0  0  0
 24 25  1  0  0  0  0
 24 26  1  0  0  0  0
 25 14  1  6  0  0  0
 25 26  1  0  0  0  0
 26 27  1  1  0  0  0
 28 27  1  0  0  0  0
 28 30  1  0  0  0  0
 29 28  2  0  0  0  0
 32 31  1  0  0  0  0
M  END
>  <MODEL>
9

>  <REMARK>
 VINA RESULT:      -5.8      4.121      9.165
  Name = 
  4 active torsions:
  status: ('A' for Active; 'I' for Inactive)
    1  A    between atoms: N_7  and  C_19
    2  A    between atoms: C_10  and  C_17
    3  A    between atoms: C_20  and  C_29
    4  A    between atoms: C_29  and  C_30
                            x       y       z     vdW  Elec       q    Type
                         _______ _______ _______ _____ _____    ______ ____

>  <TORSDO>
F 4

$$$$
