=
 OpenBabel11122414303D

 34 40  0  0  1  0  0  0  0  0999 V2000
  161.2790  207.3000  154.7250 C   0  0  0  0  0  0  0  0  0  0  0  0
  160.9300  205.4030  153.1310 C   0  0  0  0  0  2  0  0  0  0  0  0
  158.1530  213.1330  155.2870 C   0  0  2  0  0  3  0  0  0  0  0  0
  159.9930  209.0580  155.7980 C   0  0  0  0  0  0  0  0  0  0  0  0
  158.8870  210.7690  154.4610 C   0  0  0  0  0  0  0  0  0  0  0  0
  156.5350  211.5430  154.2220 C   0  0  0  0  0  1  0  0  0  0  0  0
  158.0210  214.4530  154.5560 C   0  0  0  0  0  1  0  0  0  0  0  0
  159.4150  212.1680  157.2610 C   0  0  0  0  0  2  0  0  0  0  0  0
  161.9200  207.4380  152.2680 C   0  0  2  0  0  3  0  0  0  0  0  0
  162.1970  208.1090  149.2280 C   0  0  0  0  0  2  0  0  0  0  0  0
  159.4030  210.1790  153.3070 C   0  0  0  0  0  3  0  0  0  0  0  0
  158.6810  210.8550  156.9760 C   0  0  0  0  0  2  0  0  0  0  0  0
  160.7480  208.4390  152.0770 C   0  0  1  0  0  3  0  0  0  0  0  0
  161.1700  205.1910  151.6470 C   0  0  0  0  0  2  0  0  0  0  0  0
  159.1870  210.2060  155.7210 C   0  0  0  0  0  0  0  0  0  0  0  0
  159.4750  213.1080  156.0510 C   0  0  0  0  0  2  0  0  0  0  0  0
  161.4430  206.8870  149.7650 C   0  0  2  0  0  3  0  0  0  0  0  0
  160.5030  208.4670  154.6160 C   0  0  0  0  0  0  0  0  0  0  0  0
  157.9880  211.9730  154.2830 C   0  0  1  0  0  3  0  0  0  0  0  0
  160.2360  209.0520  153.3640 C   0  0  0  0  0  0  0  0  0  0  0  0
  161.0410  207.3830  157.1240 C   0  0  0  0  0  3  0  0  0  0  0  0
  162.3360  209.2730  150.2090 C   0  0  0  0  0  2  0  0  0  0  0  0
  160.2810  208.5030  157.0090 N   0  0  0  0  0  0  0  0  0  0  0  0
  161.0690  209.5310  151.0300 C   0  0  0  0  0  2  0  0  0  0  0  0
  161.9620  206.3960  151.1380 C   0  0  1  0  0  3  0  0  0  0  0  0
  161.5470  206.7610  155.9850 C   0  0  0  0  0  3  0  0  0  0  0  0
  161.7960  206.5800  153.5170 C   0  0  1  0  0  3  0  0  0  0  0  0
  161.5220  205.8110  148.7280 C   0  0  0  0  0  3  0  0  0  0  0  0
  160.8030  205.8880  147.6090 C   0  0  0  0  0  3  0  0  0  0  0  0
  162.2140  205.4450  144.7200 O   0  0  0  0  0  0  0  0  0  0  0  0
  162.1990  204.1040  146.6600 C   0  0  0  0  0  2  0  0  0  0  0  0
  160.8780  204.8140  146.5740 C   0  0  2  0  0  3  0  0  0  0  0  0
  162.8180  204.3220  145.3010 C   0  0  0  0  0  2  0  0  0  0  0  0
  160.8950  205.4400  145.1980 C   0  0  0  0  0  2  0  0  0  0  0  0
  1 26  1  0  0  0  0
  2 27  1  0  0  0  0
  3  7  1  6  0  0  0
  3 16  1  0  0  0  0
  4 23  2  0  0  0  0
  5 15  2  0  0  0  0
  6 19  1  0  0  0  0
  9 27  1  0  0  0  0
 10 17  1  0  0  0  0
 10 22  1  0  0  0  0
 11 20  2  0  0  0  0
 11  5  1  0  0  0  0
 12  8  1  0  0  0  0
 13  9  1  0  0  0  0
 13 20  1  0  0  0  0
 14  2  1  0  0  0  0
 15  4  1  0  0  0  0
 15 12  1  0  0  0  0
 16  8  1  0  0  0  0
 17 25  1  0  0  0  0
 18  1  2  0  0  0  0
 18  4  1  0  0  0  0
 19  5  1  0  0  0  0
 19  3  1  0  0  0  0
 20 18  1  0  0  0  0
 22 24  1  0  0  0  0
 23 21  1  0  0  0  0
 24 13  1  0  0  0  0
 25 14  1  0  0  0  0
 25  9  1  0  0  0  0
 26 21  2  0  0  0  0
 27  1  1  0  0  0  0
 28 17  1  0  0  0  0
 29 28  2  0  0  0  0
 30 34  1  0  0  0  0
 30 33  1  0  0  0  0
 32 31  1  0  0  0  0
 32 29  1  0  0  0  0
 33 31  1  0  0  0  0
 34 32  1  0  0  0  0
M  END
>  <MODEL>
1

>  <REMARK>
 VINA RESULT:      -8.0      0.000      0.000
  Name = 
  2 active torsions:
  status: ('A' for Active; 'I' for Inactive)
    1  A    between atoms: C_17  and  C_28
    2  A    between atoms: C_29  and  C_32
                            x       y       z     vdW  Elec       q    Type
                         _______ _______ _______ _____ _____    ______ ____

>  <TORSDO>
F 2

$$$$
=
 OpenBabel11122414303D

 34 40  0  0  1  0  0  0  0  0999 V2000
  161.4410  207.4590  154.8880 C   0  0  0  0  0  0  0  0  0  0  0  0
  161.0660  205.3470  153.6000 C   0  0  0  0  0  2  0  0  0  0  0  0
  158.1990  213.2540  154.7660 C   0  0  2  0  0  3  0  0  0  0  0  0
  160.1620  209.3300  155.7610 C   0  0  0  0  0  0  0  0  0  0  0  0
  158.9530  210.8100  154.2500 C   0  0  0  0  0  0  0  0  0  0  0  0
  156.5730  211.4980  154.0190 C   0  0  0  0  0  1  0  0  0  0  0  0
  158.0000  214.4530  153.8610 C   0  0  0  0  0  1  0  0  0  0  0  0
  159.5740  212.6060  156.7920 C   0  0  0  0  0  2  0  0  0  0  0  0
  161.9640  207.2550  152.4080 C   0  0  2  0  0  3  0  0  0  0  0  0
  162.0850  207.4870  149.2940 C   0  0  0  0  0  2  0  0  0  0  0  0
  159.4300  210.0700  153.1680 C   0  0  0  0  0  3  0  0  0  0  0  0
  158.8610  211.2530  156.7340 C   0  0  0  0  0  2  0  0  0  0  0  0
  160.7600  208.1960  152.1340 C   0  0  1  0  0  3  0  0  0  0  0  0
  161.2430  204.9290  152.1510 C   0  0  0  0  0  2  0  0  0  0  0  0
  159.3240  210.4400  155.5610 C   0  0  0  0  0  0  0  0  0  0  0  0
  159.5550  213.3640  155.4590 C   0  0  0  0  0  2  0  0  0  0  0  0
  161.3870  206.3410  150.0360 C   0  0  2  0  0  3  0  0  0  0  0  0
  160.6320  208.5840  154.6520 C   0  0  0  0  0  0  0  0  0  0  0  0
  158.0170  211.9600  153.9470 C   0  0  1  0  0  3  0  0  0  0  0  0
  160.2930  208.9790  153.3440 C   0  0  0  0  0  0  0  0  0  0  0  0
  161.3110  207.8820  157.2600 C   0  0  0  0  0  3  0  0  0  0  0  0
  162.2390  208.7830  150.0910 C   0  0  0  0  0  2  0  0  0  0  0  0
  160.5200  208.9600  157.0230 N   0  0  0  0  0  0  0  0  0  0  0  0
  161.0060  209.1320  150.9270 C   0  0  0  0  0  2  0  0  0  0  0  0
  161.9800  206.0620  151.4370 C   0  0  1  0  0  3  0  0  0  0  0  0
  161.7800  207.1130  156.1980 C   0  0  0  0  0  3  0  0  0  0  0  0
  161.9200  206.5830  153.7710 C   0  0  1  0  0  3  0  0  0  0  0  0
  161.4450  205.1290  149.1600 C   0  0  0  0  0  3  0  0  0  0  0  0
  160.6530  204.0830  149.3900 C   0  0  0  0  0  3  0  0  0  0  0  0
  161.3350  200.9270  149.7230 O   0  0  0  0  0  0  0  0  0  0  0  0
  159.4930  202.0190  148.7340 C   0  0  0  0  0  2  0  0  0  0  0  0
  160.7110  202.8710  148.5180 C   0  0  2  0  0  3  0  0  0  0  0  0
  160.0520  200.7000  149.2080 C   0  0  0  0  0  2  0  0  0  0  0  0
  161.8540  201.9850  148.9620 C   0  0  0  0  0  2  0  0  0  0  0  0
  1 26  1  0  0  0  0
  2 27  1  0  0  0  0
  3  7  1  6  0  0  0
  3 16  1  0  0  0  0
  4 23  2  0  0  0  0
  5 15  2  0  0  0  0
  9 27  1  0  0  0  0
 10 17  1  0  0  0  0
 10 22  1  0  0  0  0
 11 20  2  0  0  0  0
 11  5  1  0  0  0  0
 12  8  1  0  0  0  0
 13  9  1  0  0  0  0
 13 20  1  0  0  0  0
 14  2  1  0  0  0  0
 15  4  1  0  0  0  0
 15 12  1  0  0  0  0
 16  8  1  0  0  0  0
 17 25  1  0  0  0  0
 18  1  2  0  0  0  0
 18  4  1  0  0  0  0
 19  6  1  0  0  0  0
 19  5  1  0  0  0  0
 19  3  1  0  0  0  0
 20 18  1  0  0  0  0
 22 24  1  0  0  0  0
 23 21  1  0  0  0  0
 24 13  1  0  0  0  0
 25 14  1  0  0  0  0
 25  9  1  0  0  0  0
 26 21  2  0  0  0  0
 27  1  1  0  0  0  0
 28 29  2  0  0  0  0
 28 17  1  0  0  0  0
 31 33  1  0  0  0  0
 32 31  1  0  0  0  0
 32 34  1  0  0  0  0
 32 29  1  0  0  0  0
 33 30  1  0  0  0  0
 34 30  1  0  0  0  0
M  END
>  <MODEL>
2

>  <REMARK>
 VINA RESULT:      -6.1      1.804      2.068
  Name = 
  2 active torsions:
  status: ('A' for Active; 'I' for Inactive)
    1  A    between atoms: C_17  and  C_28
    2  A    between atoms: C_29  and  C_32
                            x       y       z     vdW  Elec       q    Type
                         _______ _______ _______ _____ _____    ______ ____

>  <TORSDO>
F 2

$$$$
