=
 OpenBabel11122414053D

 28 32  0  0  1  0  0  0  0  0999 V2000
  158.7570  210.8160  139.1040 C   0  0  0  0  0  0  0  0  0  0  0  0
  158.8610  212.7000  142.7880 F   0  0  0  0  0  0  0  0  0  0  0  0
  164.6660  211.5260  138.6200 O   0  0  0  0  0  0  0  0  0  0  0  0
  157.0360  213.0040  138.7020 C   0  0  0  0  0  3  0  0  0  0  0  0
  163.7970  213.5150  139.6890 C   0  0  2  0  0  3  0  0  0  0  0  0
  159.5690  209.6380  139.2660 N   0  0  0  0  0  2  0  0  0  0  0  0
  160.7050  211.4190  142.6200 F   0  0  0  0  0  0  0  0  0  0  0  0
  160.2270  212.7200  142.5830 C   0  0  0  0  0  0  0  0  0  0  0  0
  162.3400  213.8920  143.3510 C   0  0  1  0  0  3  0  0  0  0  0  0
  160.5310  213.3800  141.2200 C   0  0  1  0  0  3  0  0  0  0  0  0
  161.7370  208.3200  137.7240 C   0  0  0  0  0  1  0  0  0  0  0  0
  161.4540  212.9760  139.0430 C   0  0  1  0  0  3  0  0  0  0  0  0
  162.6840  213.4400  142.0630 O   0  0  0  0  0  0  0  0  0  0  0  0
  160.8930  213.5130  143.7100 C   0  0  0  0  0  2  0  0  0  0  0  0
  161.9560  209.5330  138.6070 C   0  0  1  0  0  3  0  0  0  0  0  0
  159.1630  212.1220  139.4920 C   0  0  0  0  0  0  0  0  0  0  0  0
  163.6850  212.2570  138.9210 C   0  0  0  0  0  0  0  0  0  0  0  0
  163.2870  213.2890  144.3670 C   0  0  0  0  0  1  0  0  0  0  0  0
  161.9290  210.8040  137.7660 C   0  0  0  0  0  2  0  0  0  0  0  0
  158.2940  213.2030  139.2690 C   0  0  0  0  0  3  0  0  0  0  0  0
  157.4890  210.6380  138.5400 C   0  0  0  0  0  3  0  0  0  0  0  0
  156.6310  211.7210  138.3400 C   0  0  0  0  0  3  0  0  0  0  0  0
  160.9430  209.5670  139.7540 C   0  0  0  0  0  2  0  0  0  0  0  0
  162.3280  213.9750  139.8150 C   0  0  1  0  0  3  0  0  0  0  0  0
  162.3540  211.9500  138.5600 N   0  0  0  0  0  0  0  0  0  0  0  0
  161.8320  214.0750  141.2030 N   0  0  1  0  0  0  0  0  0  0  0  0
  164.5150  214.4530  138.9480 O   0  0  0  0  0  1  0  0  0  0  0  0
  160.5210  212.3900  140.0710 C   0  0  2  0  0  3  0  0  0  0  0  0
  1  6  1  0  0  0  0
  1 16  1  0  0  0  0
  3 17  2  0  0  0  0
  4 20  1  0  0  0  0
  5 27  1  6  0  0  0
  5 24  1  0  0  0  0
  6 23  1  0  0  0  0
  8  7  1  0  0  0  0
  8  2  1  0  0  0  0
  8 14  1  0  0  0  0
  9 14  1  0  0  0  0
  9 18  1  1  0  0  0
 10  8  1  1  0  0  0
 12 25  1  1  0  0  0
 12 24  1  0  0  0  0
 12 28  1  0  0  0  0
 13  9  1  0  0  0  0
 15 11  1  6  0  0  0
 15 23  1  0  0  0  0
 16 28  1  0  0  0  0
 17  5  1  0  0  0  0
 19 25  1  0  0  0  0
 19 15  1  0  0  0  0
 20 16  2  0  0  0  0
 21  1  2  0  0  0  0
 22 21  1  0  0  0  0
 22  4  2  0  0  0  0
 24 26  1  0  0  0  0
 25 17  1  0  0  0  0
 26 10  1  0  0  0  0
 26 13  1  0  0  0  0
 28 10  1  0  0  0  0
M  END
>  <MODEL>
1

>  <REMARK>
 VINA RESULT:      -5.0      0.000      0.000
  Name = 
  0 active torsions:
  status: ('A' for Active; 'I' for Inactive)
                            x       y       z     vdW  Elec       q    Type
                         _______ _______ _______ _____ _____    ______ ____

>  <TORSDO>
F 0

$$$$
=
 OpenBabel11122414053D

 28 32  0  0  1  0  0  0  0  0999 V2000
  160.2400  211.0600  154.7260 C   0  0  0  0  0  0  0  0  0  0  0  0
  161.3300  207.2610  153.4970 F   0  0  0  0  0  0  0  0  0  0  0  0
  159.9180  212.7710  149.0150 O   0  0  0  0  0  0  0  0  0  0  0  0
  162.7460  210.7310  155.9610 C   0  0  0  0  0  3  0  0  0  0  0  0
  161.7910  211.2500  149.1960 C   0  0  2  0  0  3  0  0  0  0  0  0
  158.9230  211.2640  154.1820 N   0  0  0  0  0  2  0  0  0  0  0  0
  159.7850  208.0320  152.0530 F   0  0  0  0  0  0  0  0  0  0  0  0
  161.1340  207.7670  152.2270 C   0  0  0  0  0  0  0  0  0  0  0  0
  161.7230  207.3380  149.7990 C   0  0  1  0  0  3  0  0  0  0  0  0
  161.9740  209.0510  152.0520 C   0  0  1  0  0  3  0  0  0  0  0  0
  157.5450  213.4370  152.7020 C   0  0  0  0  0  1  0  0  0  0  0  0
  161.8310  211.4160  151.6800 C   0  0  1  0  0  3  0  0  0  0  0  0
  161.4710  208.7230  149.8190 O   0  0  0  0  0  0  0  0  0  0  0  0
  161.5580  206.7180  151.1960 C   0  0  0  0  0  2  0  0  0  0  0  0
  158.5050  212.4590  152.0510 C   0  0  1  0  0  3  0  0  0  0  0  0
  161.3490  210.5860  153.9730 C   0  0  0  0  0  0  0  0  0  0  0  0
  160.7470  212.1500  149.7320 C   0  0  0  0  0  0  0  0  0  0  0  0
  160.7700  206.6660  148.8320 C   0  0  0  0  0  1  0  0  0  0  0  0
  159.8950  213.0740  151.9560 C   0  0  0  0  0  2  0  0  0  0  0  0
  162.5950  210.4430  154.6060 C   0  0  0  0  0  3  0  0  0  0  0  0
  160.4130  211.3390  156.0870 C   0  0  0  0  0  3  0  0  0  0  0  0
  161.6540  211.1760  156.7040 C   0  0  0  0  0  3  0  0  0  0  0  0
  158.5060  211.1180  152.7910 C   0  0  0  0  0  2  0  0  0  0  0  0
  162.4840  210.7260  150.4730 C   0  0  1  0  0  3  0  0  0  0  0  0
  160.7680  212.2380  151.1420 N   0  0  0  0  0  0  0  0  0  0  0  0
  162.4060  209.2620  150.6570 N   0  0  1  0  0  0  0  0  0  0  0  0
  162.7040  211.9900  148.4440 O   0  0  0  0  0  1  0  0  0  0  0  0
  161.2440  210.3000  152.5040 C   0  0  2  0  0  3  0  0  0  0  0  0
  1 21  1  0  0  0  0
  3 17  2  0  0  0  0
  4 22  1  0  0  0  0
  5 27  1  6  0  0  0
  5 17  1  0  0  0  0
  5 24  1  0  0  0  0
  6  1  1  0  0  0  0
  7  8  1  0  0  0  0
  8  2  1  0  0  0  0
  9 18  1  6  0  0  0
  9 13  1  0  0  0  0
  9 14  1  0  0  0  0
 10  8  1  6  0  0  0
 10 28  1  0  0  0  0
 12 25  1  6  0  0  0
 12 28  1  0  0  0  0
 13 26  1  0  0  0  0
 14  8  1  0  0  0  0
 15 11  1  1  0  0  0
 15 23  1  0  0  0  0
 16 20  1  0  0  0  0
 16  1  2  0  0  0  0
 17 25  1  0  0  0  0
 19 15  1  0  0  0  0
 20  4  2  0  0  0  0
 21 22  2  0  0  0  0
 23  6  1  0  0  0  0
 24 26  1  0  0  0  0
 24 12  1  0  0  0  0
 25 19  1  0  0  0  0
 26 10  1  0  0  0  0
 28 16  1  0  0  0  0
M  END
>  <MODEL>
2

>  <REMARK>
 VINA RESULT:      -3.6      9.954     13.161
  Name = 
  0 active torsions:
  status: ('A' for Active; 'I' for Inactive)
                            x       y       z     vdW  Elec       q    Type
                         _______ _______ _______ _____ _____    ______ ____

>  <TORSDO>
F 0

$$$$
