=
 OpenBabel11122413213D

 31 35  0  0  0  0  0  0  0  0999 V2000
  161.0500  201.7770  150.4580 C   0  0  0  0  0  0  0  0  0  0  0  0
  161.1980  205.4680  149.7320 C   0  0  0  0  0  0  0  0  0  0  0  0
  161.3160  205.6170  148.3190 C   0  0  0  0  0  0  0  0  0  0  0  0
  160.8210  206.8430  154.8000 O   0  0  0  0  0  0  0  0  0  0  0  0
  160.9020  207.8900  154.1020 C   0  0  0  0  0  0  0  0  0  0  0  0
  161.4780  204.7200  146.0540 C   0  0  0  0  0  0  0  0  0  0  0  0
  161.1120  204.2180  150.4150 C   0  0  0  0  0  0  0  0  0  0  0  0
  160.9370  201.7910  151.8480 C   0  0  0  0  0  3  0  0  0  0  0  0
  161.3620  204.5280  147.4320 C   0  0  0  0  0  3  0  0  0  0  0  0
  161.0480  206.5870  151.9060 C   0  0  0  0  0  0  0  0  0  0  0  0
  161.0760  200.5680  149.7770 O   0  0  0  0  0  1  0  0  0  0  0  0
  161.3520  208.0000  148.5890 N   0  0  0  0  0  0  0  0  0  0  0  0
  161.5320  203.3400  144.9800 Cl  0  0  0  0  0  0  0  0  0  0  0  0
  160.9700  205.3780  152.5190 N   0  0  0  0  0  0  0  0  0  0  0  0
  161.1640  206.6550  150.5110 C   0  0  0  0  0  0  0  0  0  0  0  0
  161.0150  207.7980  152.6760 N   0  0  0  0  0  2  0  0  0  0  0  0
  161.1360  202.9780  149.7520 C   0  0  0  0  0  3  0  0  0  0  0  0
  161.5520  206.0130  145.5330 C   0  0  0  0  0  3  0  0  0  0  0  0
  160.9970  204.2140  151.8290 C   0  0  0  0  0  0  0  0  0  0  0  0
  160.9110  203.0070  152.5300 C   0  0  0  0  0  3  0  0  0  0  0  0
  161.2420  207.8700  149.9090 N   0  0  0  0  0  0  0  0  0  0  0  0
  161.3920  206.9200  147.7730 C   0  0  0  0  0  0  0  0  0  0  0  0
  161.5090  207.1100  146.3920 C   0  0  0  0  0  3  0  0  0  0  0  0
  160.7890  211.7920  155.8920 C   0  0  0  0  0  0  0  0  0  0  0  0
  160.2250  210.2790  154.0940 C   0  0  0  0  0  3  0  0  0  0  0  0
  162.1630  208.4710  156.6900 O   0  0  0  0  0  1  0  0  0  0  0  0
  160.7460  213.0290  156.4430 F   0  0  0  0  0  0  0  0  0  0  0  0
  160.1790  211.5540  154.6610 C   0  0  0  0  0  3  0  0  0  0  0  0
  161.4990  209.4750  155.9960 C   0  0  0  0  0  0  0  0  0  0  0  0
  160.8820  209.2240  154.7480 C   0  0  0  0  0  0  0  0  0  0  0  0
  161.4470  210.7560  156.5560 C   0  0  0  0  0  3  0  0  0  0  0  0
  1  8  1  0  0  0  0
  2  7  1  0  0  0  0
  2 15  1  0  0  0  0
  3  2  2  0  0  0  0
  5 30  1  0  0  0  0
  5  4  2  0  0  0  0
  6  9  2  0  0  0  0
  7 19  2  0  0  0  0
  8 20  2  0  0  0  0
  9  3  1  0  0  0  0
 10 14  2  0  0  0  0
 10 16  1  0  0  0  0
 11  1  1  0  0  0  0
 12 21  1  0  0  0  0
 13  6  1  0  0  0  0
 15 10  1  0  0  0  0
 16  5  1  0  0  0  0
 17  7  1  0  0  0  0
 17  1  2  0  0  0  0
 18  6  1  0  0  0  0
 18 23  2  0  0  0  0
 19 14  1  0  0  0  0
 19 20  1  0  0  0  0
 21 15  2  0  0  0  0
 22  3  1  0  0  0  0
 22 12  2  0  0  0  0
 23 22  1  0  0  0  0
 24 27  1  0  0  0  0
 24 31  1  0  0  0  0
 25 28  1  0  0  0  0
 25 30  2  0  0  0  0
 28 24  2  0  0  0  0
 29 31  2  0  0  0  0
 29 26  1  0  0  0  0
 30 29  1  0  0  0  0
M  END
>  <MODEL>
1

>  <REMARK>
 VINA RESULT:      -9.2      0.000      0.000
  Name = 
  1 active torsions:
  status: ('A' for Active; 'I' for Inactive)
    1  A    between atoms: C_5  and  C_30
                            x       y       z     vdW  Elec       q    Type
                         _______ _______ _______ _____ _____    ______ ____

>  <TORSDO>
F 1

$$$$
=
 OpenBabel11122413213D

 31 35  0  0  0  0  0  0  0  0999 V2000
  161.0810  207.5150  154.0640 C   0  0  0  0  0  0  0  0  0  0  0  0
  161.3150  207.0750  150.3320 C   0  0  0  0  0  0  0  0  0  0  0  0
  161.2310  205.6770  150.0650 C   0  0  0  0  0  0  0  0  0  0  0  0
  161.7650  212.2350  149.3930 O   0  0  0  0  0  0  0  0  0  0  0  0
  161.7970  211.6200  148.2930 C   0  0  0  0  0  0  0  0  0  0  0  0
  161.0090  203.3480  150.7660 C   0  0  0  0  0  0  0  0  0  0  0  0
  161.2660  207.6600  151.6330 C   0  0  0  0  0  0  0  0  0  0  0  0
  161.1760  208.9030  154.1670 C   0  0  0  0  0  3  0  0  0  0  0  0
  161.0870  204.7080  151.0740 C   0  0  0  0  0  3  0  0  0  0  0  0
  161.5490  209.3290  149.4030 C   0  0  0  0  0  0  0  0  0  0  0  0
  160.9420  206.7430  155.2090 O   0  0  0  0  0  1  0  0  0  0  0  0
  161.4320  206.1290  147.7190 N   0  0  0  0  0  0  0  0  0  0  0  0
  160.8300  202.1710  152.0480 Cl  0  0  0  0  0  0  0  0  0  0  0  0
  161.4970  209.8470  150.6570 N   0  0  0  0  0  0  0  0  0  0  0  0
  161.4600  207.9430  149.2180 C   0  0  0  0  0  0  0  0  0  0  0  0
  161.6940  210.1900  148.2640 N   0  0  0  0  0  2  0  0  0  0  0  0
  161.1250  206.9030  152.8100 C   0  0  0  0  0  3  0  0  0  0  0  0
  161.0730  202.9290  149.4370 C   0  0  0  0  0  3  0  0  0  0  0  0
  161.3610  209.0690  151.7560 C   0  0  0  0  0  0  0  0  0  0  0  0
  161.3160  209.6770  153.0150 C   0  0  0  0  0  3  0  0  0  0  0  0
  161.5120  207.4350  147.9590 N   0  0  0  0  0  0  0  0  0  0  0  0
  161.2940  205.2320  148.7230 C   0  0  0  0  0  0  0  0  0  0  0  0
  161.2150  203.8700  148.4180 C   0  0  0  0  0  3  0  0  0  0  0  0
  162.3240  213.7710  144.6140 C   0  0  0  0  0  0  0  0  0  0  0  0
  163.2350  212.5910  146.5160 C   0  0  0  0  0  3  0  0  0  0  0  0
  159.5330  212.6680  146.7450 O   0  0  0  0  0  1  0  0  0  0  0  0
  162.5070  214.4490  143.4540 F   0  0  0  0  0  0  0  0  0  0  0  0
  163.4250  213.2890  145.3210 C   0  0  0  0  0  3  0  0  0  0  0  0
  160.8340  212.8600  146.2960 C   0  0  0  0  0  0  0  0  0  0  0  0
  161.9440  212.3660  147.0210 C   0  0  0  0  0  0  0  0  0  0  0  0
  161.0330  213.5580  145.1000 C   0  0  0  0  0  3  0  0  0  0  0  0
  1  8  1  0  0  0  0
  1 11  1  0  0  0  0
  2  7  1  0  0  0  0
  3  2  1  0  0  0  0
  3  9  1  0  0  0  0
  5  4  2  0  0  0  0
  6  9  2  0  0  0  0
  6 13  1  0  0  0  0
  7 19  2  0  0  0  0
  7 17  1  0  0  0  0
 10 14  2  0  0  0  0
 12 21  2  0  0  0  0
 12 22  1  0  0  0  0
 14 19  1  0  0  0  0
 15 10  1  0  0  0  0
 15  2  2  0  0  0  0
 16  5  1  0  0  0  0
 16 10  1  0  0  0  0
 17  1  2  0  0  0  0
 18  6  1  0  0  0  0
 19 20  1  0  0  0  0
 20  8  2  0  0  0  0
 21 15  1  0  0  0  0
 22  3  2  0  0  0  0
 23 22  1  0  0  0  0
 23 18  2  0  0  0  0
 24 31  2  0  0  0  0
 24 28  1  0  0  0  0
 25 30  1  0  0  0  0
 27 24  1  0  0  0  0
 28 25  2  0  0  0  0
 29 26  1  0  0  0  0
 29 30  2  0  0  0  0
 30  5  1  0  0  0  0
 31 29  1  0  0  0  0
M  END
>  <MODEL>
2

>  <REMARK>
 VINA RESULT:      -9.2      4.681      6.996
  Name = 
  1 active torsions:
  status: ('A' for Active; 'I' for Inactive)
    1  A    between atoms: C_5  and  C_30
                            x       y       z     vdW  Elec       q    Type
                         _______ _______ _______ _____ _____    ______ ____

>  <TORSDO>
F 1

$$$$
=
 OpenBabel11122413213D

 31 35  0  0  0  0  0  0  0  0999 V2000
  161.2100  205.4470  145.6650 C   0  0  0  0  0  0  0  0  0  0  0  0
  161.1460  204.4260  149.2880 C   0  0  0  0  0  0  0  0  0  0  0  0
  161.1430  203.0000  149.3250 C   0  0  0  0  0  0  0  0  0  0  0  0
  161.1180  209.3840  151.0550 O   0  0  0  0  0  0  0  0  0  0  0  0
  161.1010  208.6030  152.0440 C   0  0  0  0  0  0  0  0  0  0  0  0
  161.1600  200.8060  148.2530 C   0  0  0  0  0  0  0  0  0  0  0  0
  161.1670  205.2090  148.0950 C   0  0  0  0  0  0  0  0  0  0  0  0
  161.2090  206.8370  145.7880 C   0  0  0  0  0  3  0  0  0  0  0  0
  161.1630  202.2000  148.1700 C   0  0  0  0  0  3  0  0  0  0  0  0
  161.1250  206.5100  150.5730 C   0  0  0  0  0  0  0  0  0  0  0  0
  161.2320  204.8630  144.4060 O   0  0  0  0  0  1  0  0  0  0  0  0
  161.1020  203.0790  151.7220 N   0  0  0  0  0  0  0  0  0  0  0  0
  161.1850  199.8430  146.7940 Cl  0  0  0  0  0  0  0  0  0  0  0  0
  161.1460  207.2200  149.4170 N   0  0  0  0  0  0  0  0  0  0  0  0
  161.1240  205.1090  150.5320 C   0  0  0  0  0  0  0  0  0  0  0  0
  161.1030  207.1830  151.8410 N   0  0  0  0  0  2  0  0  0  0  0  0
  161.1900  204.6450  146.8070 C   0  0  0  0  0  3  0  0  0  0  0  0
  161.1380  200.1820  149.5010 C   0  0  0  0  0  3  0  0  0  0  0  0
  161.1670  206.6230  148.2010 C   0  0  0  0  0  0  0  0  0  0  0  0
  161.1880  207.4220  147.0540 C   0  0  0  0  0  3  0  0  0  0  0  0
  161.1030  204.4090  151.6960 N   0  0  0  0  0  0  0  0  0  0  0  0
  161.1210  202.3490  150.5820 C   0  0  0  0  0  0  0  0  0  0  0  0
  161.1180  200.9530  150.6630 C   0  0  0  0  0  3  0  0  0  0  0  0
  161.0620  210.2550  156.0080 C   0  0  0  0  0  0  0  0  0  0  0  0
  161.4200  210.4870  153.6300 C   0  0  0  0  0  3  0  0  0  0  0  0
  160.3760  207.0130  154.4040 O   0  0  0  0  0  1  0  0  0  0  0  0
  161.0550  210.7910  157.2530 F   0  0  0  0  0  0  0  0  0  0  0  0
  161.4120  211.0410  154.9110 C   0  0  0  0  0  3  0  0  0  0  0  0
  160.7240  208.3510  154.5440 C   0  0  0  0  0  0  0  0  0  0  0  0
  161.0770  209.1410  153.4250 C   0  0  0  0  0  0  0  0  0  0  0  0
  160.7190  208.9140  155.8250 C   0  0  0  0  0  3  0  0  0  0  0  0
  1  8  2  0  0  0  0
  1 17  1  0  0  0  0
  2  3  2  0  0  0  0
  2 15  1  0  0  0  0
  3 22  1  0  0  0  0
  4  5  2  0  0  0  0
  5 30  1  0  0  0  0
  6 18  1  0  0  0  0
  7 19  1  0  0  0  0
  7  2  1  0  0  0  0
  8 20  1  0  0  0  0
  9  6  2  0  0  0  0
  9  3  1  0  0  0  0
 10 16  1  0  0  0  0
 11  1  1  0  0  0  0
 13  6  1  0  0  0  0
 14 10  2  0  0  0  0
 15 10  1  0  0  0  0
 15 21  2  0  0  0  0
 16  5  1  0  0  0  0
 17  7  2  0  0  0  0
 18 23  2  0  0  0  0
 19 14  1  0  0  0  0
 20 19  2  0  0  0  0
 21 12  1  0  0  0  0
 22 23  1  0  0  0  0
 22 12  2  0  0  0  0
 24 27  1  0  0  0  0
 25 28  1  0  0  0  0
 26 29  1  0  0  0  0
 28 24  2  0  0  0  0
 29 31  2  0  0  0  0
 30 25  2  0  0  0  0
 30 29  1  0  0  0  0
 31 24  1  0  0  0  0
M  END
>  <MODEL>
3

>  <REMARK>
 VINA RESULT:      -8.7      2.039      4.189
  Name = 
  1 active torsions:
  status: ('A' for Active; 'I' for Inactive)
    1  A    between atoms: C_5  and  C_30
                            x       y       z     vdW  Elec       q    Type
                         _______ _______ _______ _____ _____    ______ ____

>  <TORSDO>
F 1

$$$$
=
 OpenBabel11122413213D

 31 35  0  0  0  0  0  0  0  0999 V2000
  161.8360  210.6400  149.9970 C   0  0  0  0  0  0  0  0  0  0  0  0
  161.3020  207.1750  151.3680 C   0  0  0  0  0  0  0  0  0  0  0  0
  161.1510  207.2980  152.7810 C   0  0  0  0  0  0  0  0  0  0  0  0
  161.6020  204.8730  146.6440 O   0  0  0  0  0  0  0  0  0  0  0  0
  161.4040  203.9830  147.5150 C   0  0  0  0  0  0  0  0  0  0  0  0
  161.0530  208.6030  154.8420 C   0  0  0  0  0  0  0  0  0  0  0  0
  161.5230  208.2660  150.4750 C   0  0  0  0  0  0  0  0  0  0  0  0
  161.9640  210.3630  148.6360 C   0  0  0  0  0  3  0  0  0  0  0  0
  161.2060  208.5300  153.4560 C   0  0  0  0  0  3  0  0  0  0  0  0
  161.3630  205.6710  149.4360 C   0  0  0  0  0  0  0  0  0  0  0  0
  161.9250  211.9500  150.4490 O   0  0  0  0  0  1  0  0  0  0  0  0
  160.8760  204.9220  152.9430 N   0  0  0  0  0  0  0  0  0  0  0  0
  161.1270  210.1540  155.6490 Cl  0  0  0  0  0  0  0  0  0  0  0  0
  161.5730  206.7350  148.6200 N   0  0  0  0  0  0  0  0  0  0  0  0
  161.2250  205.8700  150.8170 C   0  0  0  0  0  0  0  0  0  0  0  0
  161.2820  204.3430  148.8980 N   0  0  0  0  0  2  0  0  0  0  0  0
  161.6180  209.6020  150.9040 C   0  0  0  0  0  3  0  0  0  0  0  0
  160.8420  207.4400  155.5840 C   0  0  0  0  0  3  0  0  0  0  0  0
  161.6560  208.0020  149.0880 C   0  0  0  0  0  0  0  0  0  0  0  0
  161.8730  209.0470  148.1840 C   0  0  0  0  0  3  0  0  0  0  0  0
  161.0150  204.7980  151.6250 N   0  0  0  0  0  0  0  0  0  0  0  0
  160.9360  206.1290  153.5500 C   0  0  0  0  0  0  0  0  0  0  0  0
  160.7830  206.2060  154.9380 C   0  0  0  0  0  3  0  0  0  0  0  0
  161.1260  199.8280  146.4660 C   0  0  0  0  0  0  0  0  0  0  0  0
  161.6650  201.5720  148.0490 C   0  0  0  0  0  3  0  0  0  0  0  0
  160.4560  203.0840  144.8850 O   0  0  0  0  0  1  0  0  0  0  0  0
  161.0450  198.5120  146.1500 F   0  0  0  0  0  0  0  0  0  0  0  0
  161.5810  200.2160  147.7260 C   0  0  0  0  0  3  0  0  0  0  0  0
  160.8360  202.1540  145.8450 C   0  0  0  0  0  0  0  0  0  0  0  0
  161.2960  202.5580  147.1210 C   0  0  0  0  0  0  0  0  0  0  0  0
  160.7550  200.7940  145.5300 C   0  0  0  0  0  3  0  0  0  0  0  0
  1 11  1  0  0  0  0
  1 17  1  0  0  0  0
  2  3  1  0  0  0  0
  3  9  2  0  0  0  0
  3 22  1  0  0  0  0
  4  5  2  0  0  0  0
  5 16  1  0  0  0  0
  6 18  2  0  0  0  0
  6 13  1  0  0  0  0
  7 17  2  0  0  0  0
  7  2  1  0  0  0  0
  8  1  2  0  0  0  0
  9  6  1  0  0  0  0
 10 15  1  0  0  0  0
 12 22  1  0  0  0  0
 14 19  1  0  0  0  0
 14 10  2  0  0  0  0
 15  2  2  0  0  0  0
 15 21  1  0  0  0  0
 16 10  1  0  0  0  0
 19  7  1  0  0  0  0
 20  8  1  0  0  0  0
 20 19  2  0  0  0  0
 21 12  2  0  0  0  0
 22 23  2  0  0  0  0
 23 18  1  0  0  0  0
 24 28  1  0  0  0  0
 26 29  1  0  0  0  0
 27 24  1  0  0  0  0
 28 25  2  0  0  0  0
 29 30  2  0  0  0  0
 30  5  1  0  0  0  0
 30 25  1  0  0  0  0
 31 29  1  0  0  0  0
 31 24  2  0  0  0  0
M  END
>  <MODEL>
4

>  <REMARK>
 VINA RESULT:      -8.6      4.833      9.329
  Name = 
  1 active torsions:
  status: ('A' for Active; 'I' for Inactive)
    1  A    between atoms: C_5  and  C_30
                            x       y       z     vdW  Elec       q    Type
                         _______ _______ _______ _____ _____    ______ ____

>  <TORSDO>
F 1

$$$$
=
 OpenBabel11122413213D

 31 35  0  0  0  0  0  0  0  0999 V2000
  161.8380  210.7310  149.9930 C   0  0  0  0  0  0  0  0  0  0  0  0
  161.3200  207.2860  151.4200 C   0  0  0  0  0  0  0  0  0  0  0  0
  161.1850  207.4290  152.8320 C   0  0  0  0  0  0  0  0  0  0  0  0
  161.5670  204.9160  146.7260 O   0  0  0  0  0  0  0  0  0  0  0  0
  161.3790  204.0390  147.6120 C   0  0  0  0  0  0  0  0  0  0  0  0
  161.1100  208.7630  154.8760 C   0  0  0  0  0  0  0  0  0  0  0  0
  161.5320  208.3640  150.5090 C   0  0  0  0  0  0  0  0  0  0  0  0
  161.9510  210.4350  148.6350 C   0  0  0  0  0  3  0  0  0  0  0  0
  161.2480  208.6700  153.4890 C   0  0  0  0  0  3  0  0  0  0  0  0
  161.3600  205.7550  149.5090 C   0  0  0  0  0  0  0  0  0  0  0  0
  161.9320  212.0470  150.4250 O   0  0  0  0  0  1  0  0  0  0  0  0
  160.9120  205.0550  153.0310 N   0  0  0  0  0  0  0  0  0  0  0  0
  161.1930  210.3250  155.6590 Cl  0  0  0  0  0  0  0  0  0  0  0  0
  161.5610  206.8060  148.6750 N   0  0  0  0  0  0  0  0  0  0  0  0
  161.2370  205.9720  150.8880 C   0  0  0  0  0  0  0  0  0  0  0  0
  161.2730  204.4190  148.9910 N   0  0  0  0  0  2  0  0  0  0  0  0
  161.6310  209.7060  150.9170 C   0  0  0  0  0  3  0  0  0  0  0  0
  160.9070  207.6110  155.6360 C   0  0  0  0  0  3  0  0  0  0  0  0
  161.6480  208.0800  149.1240 C   0  0  0  0  0  0  0  0  0  0  0  0
  161.8560  209.1120  148.2030 C   0  0  0  0  0  3  0  0  0  0  0  0
  161.0370  204.9120  151.7130 N   0  0  0  0  0  0  0  0  0  0  0  0
  160.9790  206.2710  153.6200 C   0  0  0  0  0  0  0  0  0  0  0  0
  160.8410  206.3680  155.0080 C   0  0  0  0  0  3  0  0  0  0  0  0
  161.0370  199.9240  146.4340 C   0  0  0  0  0  0  0  0  0  0  0  0
  161.0130  202.2800  145.8980 C   0  0  0  0  0  3  0  0  0  0  0  0
  161.6560  201.8270  149.5230 O   0  0  0  0  0  1  0  0  0  0  0  0
  160.9250  198.6290  146.0460 F   0  0  0  0  0  0  0  0  0  0  0  0
  160.8990  200.9470  145.4970 C   0  0  0  0  0  3  0  0  0  0  0  0
  161.4040  201.5630  148.1820 C   0  0  0  0  0  0  0  0  0  0  0  0
  161.2670  202.6090  147.2390 C   0  0  0  0  0  0  0  0  0  0  0  0
  161.2880  200.2310  147.7720 C   0  0  0  0  0  3  0  0  0  0  0  0
  1 11  1  0  0  0  0
  1 17  1  0  0  0  0
  2  3  1  0  0  0  0
  3  9  2  0  0  0  0
  3 22  1  0  0  0  0
  4  5  2  0  0  0  0
  5 16  1  0  0  0  0
  6 18  2  0  0  0  0
  6 13  1  0  0  0  0
  7 17  2  0  0  0  0
  7  2  1  0  0  0  0
  8  1  2  0  0  0  0
  9  6  1  0  0  0  0
 10 15  1  0  0  0  0
 12 22  1  0  0  0  0
 14 19  1  0  0  0  0
 14 10  2  0  0  0  0
 15  2  2  0  0  0  0
 15 21  1  0  0  0  0
 16 10  1  0  0  0  0
 19  7  1  0  0  0  0
 20  8  1  0  0  0  0
 20 19  2  0  0  0  0
 21 12  2  0  0  0  0
 22 23  2  0  0  0  0
 23 18  1  0  0  0  0
 24 31  1  0  0  0  0
 25 30  2  0  0  0  0
 27 24  1  0  0  0  0
 28 25  1  0  0  0  0
 28 24  2  0  0  0  0
 29 26  1  0  0  0  0
 30  5  1  0  0  0  0
 30 29  1  0  0  0  0
 31 29  2  0  0  0  0
M  END
>  <MODEL>
5

>  <REMARK>
 VINA RESULT:      -7.9      4.737      9.156
  Name = 
  1 active torsions:
  status: ('A' for Active; 'I' for Inactive)
    1  A    between atoms: C_5  and  C_30
                            x       y       z     vdW  Elec       q    Type
                         _______ _______ _______ _____ _____    ______ ____

>  <TORSDO>
F 1

$$$$
=
 OpenBabel11122413213D

 31 35  0  0  0  0  0  0  0  0999 V2000
  160.9080  210.3410  154.4080 C   0  0  0  0  0  0  0  0  0  0  0  0
  161.2890  209.2520  150.8240 C   0  0  0  0  0  0  0  0  0  0  0  0
  161.4230  210.4320  150.0350 C   0  0  0  0  0  0  0  0  0  0  0  0
  160.9710  204.1250  151.9750 O   0  0  0  0  0  0  0  0  0  0  0  0
  161.1220  204.2510  150.7300 C   0  0  0  0  0  0  0  0  0  0  0  0
  161.5400  212.8570  149.7690 C   0  0  0  0  0  0  0  0  0  0  0  0
  161.1220  209.2340  152.2420 C   0  0  0  0  0  0  0  0  0  0  0  0
  160.7890  209.1050  155.0430 C   0  0  0  0  0  3  0  0  0  0  0  0
  161.4050  211.7280  150.5800 C   0  0  0  0  0  3  0  0  0  0  0  0
  161.1990  206.8050  150.8530 C   0  0  0  0  0  0  0  0  0  0  0  0
  160.8620  211.5110  155.1540 O   0  0  0  0  0  1  0  0  0  0  0  0
  161.6060  209.0760  148.0660 N   0  0  0  0  0  0  0  0  0  0  0  0
  161.5130  214.4530  150.4830 Cl  0  0  0  0  0  0  0  0  0  0  0  0
  161.0410  206.8290  152.2010 N   0  0  0  0  0  0  0  0  0  0  0  0
  161.3240  208.0070  150.1430 C   0  0  0  0  0  0  0  0  0  0  0  0
  161.2370  205.5560  150.1460 N   0  0  0  0  0  2  0  0  0  0  0  0
  161.0720  210.4020  153.0230 C   0  0  0  0  0  3  0  0  0  0  0  0
  161.6960  212.7110  148.3910 C   0  0  0  0  0  3  0  0  0  0  0  0
  161.0000  207.9860  152.9030 C   0  0  0  0  0  0  0  0  0  0  0  0
  160.8360  207.9310  154.2910 C   0  0  0  0  0  3  0  0  0  0  0  0
  161.4810  207.9690  148.7940 N   0  0  0  0  0  0  0  0  0  0  0  0
  161.5820  210.3040  148.6350 C   0  0  0  0  0  0  0  0  0  0  0  0
  161.7180  211.4360  147.8250 C   0  0  0  0  0  3  0  0  0  0  0  0
  161.2930  200.7240  148.2850 C   0  0  0  0  0  0  0  0  0  0  0  0
  161.1860  201.7830  150.4540 C   0  0  0  0  0  3  0  0  0  0  0  0
  161.2330  204.3720  147.7980 O   0  0  0  0  0  1  0  0  0  0  0  0
  161.3470  199.6010  147.5270 F   0  0  0  0  0  0  0  0  0  0  0  0
  161.2410  200.6260  149.6750 C   0  0  0  0  0  3  0  0  0  0  0  0
  161.2350  203.1430  148.4460 C   0  0  0  0  0  0  0  0  0  0  0  0
  161.1820  203.0540  149.8570 C   0  0  0  0  0  0  0  0  0  0  0  0
  161.2900  201.9790  147.6730 C   0  0  0  0  0  3  0  0  0  0  0  0
  1  8  1  0  0  0  0
  1 11  1  0  0  0  0
  2  7  1  0  0  0  0
  3  9  1  0  0  0  0
  3  2  2  0  0  0  0
  5  4  2  0  0  0  0
  6 13  1  0  0  0  0
  6  9  2  0  0  0  0
  7 19  2  0  0  0  0
  7 17  1  0  0  0  0
 10 14  2  0  0  0  0
 12 22  2  0  0  0  0
 12 21  1  0  0  0  0
 14 19  1  0  0  0  0
 15  2  1  0  0  0  0
 15 10  1  0  0  0  0
 16  5  1  0  0  0  0
 16 10  1  0  0  0  0
 17  1  2  0  0  0  0
 18  6  1  0  0  0  0
 19 20  1  0  0  0  0
 20  8  2  0  0  0  0
 21 15  2  0  0  0  0
 22  3  1  0  0  0  0
 23 18  2  0  0  0  0
 23 22  1  0  0  0  0
 24 28  1  0  0  0  0
 26 29  1  0  0  0  0
 27 24  1  0  0  0  0
 28 25  2  0  0  0  0
 29 30  2  0  0  0  0
 30 25  1  0  0  0  0
 30  5  1  0  0  0  0
 31 24  2  0  0  0  0
 31 29  1  0  0  0  0
M  END
>  <MODEL>
6

>  <REMARK>
 VINA RESULT:      -6.6      4.497      8.044
  Name = 
  1 active torsions:
  status: ('A' for Active; 'I' for Inactive)
    1  A    between atoms: C_5  and  C_30
                            x       y       z     vdW  Elec       q    Type
                         _______ _______ _______ _____ _____    ______ ____

>  <TORSDO>
F 1

$$$$
=
 OpenBabel11122413213D

 31 35  0  0  0  0  0  0  0  0999 V2000
  158.3780  212.2940  155.9640 C   0  0  0  0  0  0  0  0  0  0  0  0
  160.2360  210.4390  153.2650 C   0  0  0  0  0  0  0  0  0  0  0  0
  160.5470  209.1460  153.7780 C   0  0  0  0  0  0  0  0  0  0  0  0
  160.0190  214.4510  149.8640 O   0  0  0  0  0  0  0  0  0  0  0  0
  160.6290  213.4920  149.3190 C   0  0  0  0  0  0  0  0  0  0  0  0
  160.5110  207.4450  155.5300 C   0  0  0  0  0  0  0  0  0  0  0  0
  159.5320  211.4530  153.9830 C   0  0  0  0  0  0  0  0  0  0  0  0
  158.1480  213.5130  155.3280 C   0  0  0  0  0  3  0  0  0  0  0  0
  160.1860  208.7230  155.0690 C   0  0  0  0  0  3  0  0  0  0  0  0
  160.3910  211.9860  151.3730 C   0  0  0  0  0  0  0  0  0  0  0  0
  157.9260  212.0910  157.2610 O   0  0  0  0  0  1  0  0  0  0  0  0
  161.6200  208.5990  151.7050 N   0  0  0  0  0  0  0  0  0  0  0  0
  160.0460  206.9540  157.1430 Cl  0  0  0  0  0  0  0  0  0  0  0  0
  159.7190  212.9230  152.0880 N   0  0  0  0  0  0  0  0  0  0  0  0
  160.6610  210.7350  151.9430 C   0  0  0  0  0  0  0  0  0  0  0  0
  160.8290  212.2650  150.0350 N   0  0  0  0  0  2  0  0  0  0  0  0
  159.0620  211.2760  155.2970 C   0  0  0  0  0  3  0  0  0  0  0  0
  161.2070  206.5620  154.7050 C   0  0  0  0  0  3  0  0  0  0  0  0
  159.2890  212.6990  153.3520 C   0  0  0  0  0  0  0  0  0  0  0  0
  158.6030  213.7140  154.0250 C   0  0  0  0  0  3  0  0  0  0  0  0
  161.3350  209.8040  151.2180 N   0  0  0  0  0  0  0  0  0  0  0  0
  161.2520  208.2350  152.9550 C   0  0  0  0  0  0  0  0  0  0  0  0
  161.5770  206.9570  153.4190 C   0  0  0  0  0  3  0  0  0  0  0  0
  162.2130  213.9110  145.3490 C   0  0  0  0  0  0  0  0  0  0  0  0
  162.4060  214.2090  147.7390 C   0  0  0  0  0  3  0  0  0  0  0  0
  159.1680  212.5870  146.9380 O   0  0  0  0  0  1  0  0  0  0  0  0
  162.7260  214.0510  144.1020 F   0  0  0  0  0  0  0  0  0  0  0  0
  162.9370  214.3530  146.4560 C   0  0  0  0  0  3  0  0  0  0  0  0
  160.4190  213.1770  146.8060 C   0  0  0  0  0  0  0  0  0  0  0  0
  161.1460  213.6210  147.9360 C   0  0  0  0  0  0  0  0  0  0  0  0
  160.9580  213.3250  145.5240 C   0  0  0  0  0  3  0  0  0  0  0  0
  1 11  1  0  0  0  0
  2  3  1  0  0  0  0
  2  7  1  0  0  0  0
  3  9  1  0  0  0  0
  5  4  2  0  0  0  0
  5 16  1  0  0  0  0
  6 13  1  0  0  0  0
  7 17  1  0  0  0  0
  8  1  1  0  0  0  0
  9  6  2  0  0  0  0
 10 15  1  0  0  0  0
 10 14  2  0  0  0  0
 12 22  1  0  0  0  0
 14 19  1  0  0  0  0
 15  2  2  0  0  0  0
 16 10  1  0  0  0  0
 17  1  2  0  0  0  0
 18  6  1  0  0  0  0
 19  7  2  0  0  0  0
 19 20  1  0  0  0  0
 20  8  2  0  0  0  0
 21 12  2  0  0  0  0
 21 15  1  0  0  0  0
 22 23  1  0  0  0  0
 22  3  2  0  0  0  0
 23 18  2  0  0  0  0
 24 31  2  0  0  0  0
 24 28  1  0  0  0  0
 25 30  1  0  0  0  0
 27 24  1  0  0  0  0
 28 25  2  0  0  0  0
 29 26  1  0  0  0  0
 29 30  2  0  0  0  0
 30  5  1  0  0  0  0
 31 29  1  0  0  0  0
M  END
>  <MODEL>
7

>  <REMARK>
 VINA RESULT:      -6.4      5.712      9.118
  Name = 
  1 active torsions:
  status: ('A' for Active; 'I' for Inactive)
    1  A    between atoms: C_5  and  C_30
                            x       y       z     vdW  Elec       q    Type
                         _______ _______ _______ _____ _____    ______ ____

>  <TORSDO>
F 1

$$$$
=
 OpenBabel11122413213D

 31 35  0  0  0  0  0  0  0  0999 V2000
  161.6780  212.1240  149.5790 C   0  0  0  0  0  0  0  0  0  0  0  0
  161.2010  208.7860  151.2550 C   0  0  0  0  0  0  0  0  0  0  0  0
  161.0570  209.0310  152.6520 C   0  0  0  0  0  0  0  0  0  0  0  0
  161.5090  206.0790  146.7500 O   0  0  0  0  0  0  0  0  0  0  0  0
  161.3280  205.2670  147.6980 C   0  0  0  0  0  0  0  0  0  0  0  0
  160.9510  210.5120  154.5910 C   0  0  0  0  0  0  0  0  0  0  0  0
  161.4030  209.7970  150.2670 C   0  0  0  0  0  0  0  0  0  0  0  0
  161.8030  211.7290  148.2470 C   0  0  0  0  0  3  0  0  0  0  0  0
  161.0980  210.3190  153.2160 C   0  0  0  0  0  3  0  0  0  0  0  0
  161.2740  207.1180  149.4630 C   0  0  0  0  0  0  0  0  0  0  0  0
  161.7510  213.4690  149.9130 O   0  0  0  0  0  1  0  0  0  0  0  0
  160.8160  206.6750  153.0250 N   0  0  0  0  0  0  0  0  0  0  0  0
  161.0070  212.1290  155.2570 Cl  0  0  0  0  0  0  0  0  0  0  0  0
  161.4640  208.1080  148.5540 N   0  0  0  0  0  0  0  0  0  0  0  0
  161.1400  207.4360  150.8220 C   0  0  0  0  0  0  0  0  0  0  0  0
  161.2090  205.7470  149.0450 N   0  0  0  0  0  2  0  0  0  0  0  0
  161.4800  211.1670  150.5760 C   0  0  0  0  0  3  0  0  0  0  0  0
  160.7600  209.4170  155.4340 C   0  0  0  0  0  3  0  0  0  0  0  0
  161.5310  209.4130  148.9080 C   0  0  0  0  0  0  0  0  0  0  0  0
  161.7290  210.3770  147.9140 C   0  0  0  0  0  3  0  0  0  0  0  0
  160.9500  206.4370  151.7230 N   0  0  0  0  0  0  0  0  0  0  0  0
  160.8620  207.9330  153.5230 C   0  0  0  0  0  0  0  0  0  0  0  0
  160.7160  208.1290  154.8990 C   0  0  0  0  0  3  0  0  0  0  0  0
  161.0770  201.0700  146.8260 C   0  0  0  0  0  0  0  0  0  0  0  0
  161.3120  203.3640  146.1040 C   0  0  0  0  0  3  0  0  0  0  0  0
  161.0010  203.2410  149.7980 O   0  0  0  0  0  1  0  0  0  0  0  0
  160.9990  199.7490  146.5340 F   0  0  0  0  0  0  0  0  0  0  0  0
  161.2320  202.0030  145.8010 C   0  0  0  0  0  3  0  0  0  0  0  0
  161.0800  202.8580  148.4650 C   0  0  0  0  0  0  0  0  0  0  0  0
  161.2380  203.8120  147.4320 C   0  0  0  0  0  0  0  0  0  0  0  0
  161.0010  201.4970  148.1530 C   0  0  0  0  0  3  0  0  0  0  0  0
  1 11  1  0  0  0  0
  1 17  1  0  0  0  0
  2  3  1  0  0  0  0
  3  9  2  0  0  0  0
  3 22  1  0  0  0  0
  4  5  2  0  0  0  0
  5 16  1  0  0  0  0
  6 13  1  0  0  0  0
  6 18  2  0  0  0  0
  7 17  2  0  0  0  0
  7  2  1  0  0  0  0
  8  1  2  0  0  0  0
  9  6  1  0  0  0  0
 10 15  1  0  0  0  0
 12 22  1  0  0  0  0
 14 19  1  0  0  0  0
 14 10  2  0  0  0  0
 15  2  2  0  0  0  0
 15 21  1  0  0  0  0
 16 10  1  0  0  0  0
 19  7  1  0  0  0  0
 20  8  1  0  0  0  0
 20 19  2  0  0  0  0
 21 12  2  0  0  0  0
 22 23  2  0  0  0  0
 23 18  1  0  0  0  0
 24 31  1  0  0  0  0
 25 30  2  0  0  0  0
 27 24  1  0  0  0  0
 28 25  1  0  0  0  0
 28 24  2  0  0  0  0
 29 26  1  0  0  0  0
 30  5  1  0  0  0  0
 30 29  1  0  0  0  0
 31 29  2  0  0  0  0
M  END
>  <MODEL>
8

>  <REMARK>
 VINA RESULT:      -6.4      4.816      9.121
  Name = 
  1 active torsions:
  status: ('A' for Active; 'I' for Inactive)
    1  A    between atoms: C_5  and  C_30
                            x       y       z     vdW  Elec       q    Type
                         _______ _______ _______ _____ _____    ______ ____

>  <TORSDO>
F 1

$$$$
