=
 OpenBabel11122414023D

 37 41  0  0  1  0  0  0  0  0999 V2000
  160.5330  205.2080  150.8710 C   0  0  1  0  0  3  0  0  0  0  0  0
  161.5140  208.3850  149.1510 C   0  0  0  0  0  2  0  0  0  0  0  0
  160.5820  202.7750  150.0810 C   0  0  2  0  0  3  0  0  0  0  0  0
  161.1950  205.9940  149.8550 N   0  0  2  0  0  0  0  0  0  0  0  0
  159.8100  204.1100  150.1190 C   0  0  2  0  0  3  0  0  0  0  0  0
  161.0500  207.4120  150.2430 C   0  0  1  0  0  3  0  0  0  0  0  0
  161.0350  202.4100  151.4630 C   0  0  0  0  0  3  0  0  0  0  0  0
  159.5730  204.5930  148.8250 O   0  0  0  0  0  0  0  0  0  0  0  0
  162.1560  205.6680  152.7710 C   0  0  0  0  0  2  0  0  0  0  0  0
  161.5080  203.3470  152.2760 C   0  0  0  0  0  3  0  0  0  0  0  0
  163.1480  206.7940  148.2600 O   0  0  0  0  0  0  0  0  0  0  0  0
  162.9490  208.1240  148.6700 C   0  0  0  0  0  2  0  0  0  0  0  0
  161.4970  204.7220  151.8760 N   0  0  0  0  0  0  0  0  0  0  0  0
  160.4090  205.7220  148.6390 C   0  0  2  0  0  3  0  0  0  0  0  0
  161.7480  207.7140  151.5050 N   0  0  0  0  0  0  0  0  0  0  0  0
  162.3240  206.5970  147.1460 C   0  0  0  0  0  2  0  0  0  0  0  0
  161.3030  205.4840  147.4020 C   0  0  2  0  0  3  0  0  0  0  0  0
  162.7910  206.8110  151.9930 C   0  0  0  0  0  2  0  0  0  0  0  0
  161.3250  210.1370  151.7880 C   0  0  0  0  0  3  0  0  0  0  0  0
  161.3320  208.8340  152.3150 C   0  0  0  0  0  0  0  0  0  0  0  0
  160.9240  208.6410  153.6460 C   0  0  0  0  0  3  0  0  0  0  0  0
  160.0920  209.5050  155.8370 C   0  0  0  0  0  1  0  0  0  0  0  0
  160.5190  211.0140  153.8950 C   0  0  0  0  0  3  0  0  0  0  0  0
  160.5200  209.7260  154.4310 C   0  0  0  0  0  0  0  0  0  0  0  0
  160.9220  211.2210  152.5730 C   0  0  0  0  0  3  0  0  0  0  0  0
  160.4830  205.3940  146.2600 O   0  0  0  0  0  0  0  0  0  0  0  0
  161.0070  204.4450  145.3530 C   0  0  1  0  0  3  0  0  0  0  0  0
  160.3690  202.4490  144.8640 O   0  0  0  0  0  1  0  0  0  0  0  0
  160.0090  203.7040  144.7030 O   0  0  0  0  0  0  0  0  0  0  0  0
  161.9730  205.0840  144.3650 C   0  0  0  0  0  2  0  0  0  0  0  0
  161.2280  205.9140  143.3330 C   0  0  0  0  0  2  0  0  0  0  0  0
  161.9730  206.0030  142.1560 O   0  0  0  0  0  1  0  0  0  0  0  0
  161.6930  202.8720  149.2170 O   0  0  0  0  0  0  0  0  0  0  0  0
  161.5640  201.9210  148.1800 C   0  0  0  0  0  0  0  0  0  0  0  0
  162.2470  202.3440  147.0520 F   0  0  0  0  0  0  0  0  0  0  0  0
  162.0330  200.6720  148.5620 F   0  0  0  0  0  0  0  0  0  0  0  0
  160.2260  201.8040  147.8570 F   0  0  0  0  0  0  0  0  0  0  0  0
  1 13  1  1  0  0  0
  2  6  1  0  0  0  0
  3 33  1  6  0  0  0
  3  5  1  0  0  0  0
  3  7  1  0  0  0  0
  4  6  1  0  0  0  0
  4  1  1  0  0  0  0
  5  1  1  0  0  0  0
  6 15  1  0  0  0  0
  7 10  2  0  0  0  0
  8  5  1  0  0  0  0
 11 12  1  0  0  0  0
 12  2  1  0  0  0  0
 13 10  1  0  0  0  0
 13  9  1  0  0  0  0
 14  8  1  0  0  0  0
 14  4  1  0  0  0  0
 15 18  1  0  0  0  0
 15 20  1  0  0  0  0
 16 17  1  0  0  0  0
 16 11  1  0  0  0  0
 17 14  1  0  0  0  0
 18  9  1  0  0  0  0
 19 20  2  0  0  0  0
 19 25  1  0  0  0  0
 20 21  1  0  0  0  0
 21 24  2  0  0  0  0
 23 24  1  0  0  0  0
 24 22  1  0  0  0  0
 25 23  2  0  0  0  0
 26 17  1  0  0  0  0
 27 26  1  0  0  0  0
 29 28  1  0  0  0  0
 29 27  1  0  0  0  0
 30 27  1  0  0  0  0
 31 30  1  0  0  0  0
 32 31  1  0  0  0  0
 34 36  1  0  0  0  0
 34 33  1  0  0  0  0
 35 34  1  0  0  0  0
 37 34  1  0  0  0  0
M  END
>  <MODEL>
1

>  <REMARK>
 VINA RESULT:      -3.8      0.000      0.000
  Name = 
  8 active torsions:
  status: ('A' for Active; 'I' for Inactive)
    1  A    between atoms: O_1  and  C_4
    2  A    between atoms: O_1  and  C_27
    3  A    between atoms: C_2  and  O_22
    4  A    between atoms: C_4  and  C_12
    5  A    between atoms: C_4  and  O_37
    6  A    between atoms: C_6  and  O_22
    7  A    between atoms: C_8  and  C_12
    8  A    between atoms: N_23  and  C_30
                            x       y       z     vdW  Elec       q    Type
                         _______ _______ _______ _____ _____    ______ ____

>  <TORSDO>
F 8

$$$$
=
 OpenBabel11122414023D

 37 41  0  0  1  0  0  0  0  0999 V2000
  160.0170  212.6590  151.7550 C   0  0  1  0  0  3  0  0  0  0  0  0
  162.5660  209.9330  151.4580 C   0  0  0  0  0  2  0  0  0  0  0  0
  158.7300  213.9680  149.9740 C   0  0  2  0  0  3  0  0  0  0  0  0
  160.7330  211.6070  151.0700 N   0  0  2  0  0  0  0  0  0  0  0  0
  160.0250  213.8350  150.8020 C   0  0  2  0  0  3  0  0  0  0  0  0
  161.5810  210.9350  152.0750 C   0  0  1  0  0  3  0  0  0  0  0  0
  157.5370  213.8890  150.8800 C   0  0  0  0  0  3  0  0  0  0  0  0
  161.1400  213.6750  149.9680 O   0  0  0  0  0  0  0  0  0  0  0  0
  158.5190  211.1820  153.1790 C   0  0  0  0  0  2  0  0  0  0  0  0
  157.5180  213.0130  151.8780 C   0  0  0  0  0  3  0  0  0  0  0  0
  161.0850  209.4590  149.5670 O   0  0  0  0  0  0  0  0  0  0  0  0
  161.8900  208.8820  150.5650 C   0  0  0  0  0  2  0  0  0  0  0  0
  158.6700  212.2090  152.1550 N   0  0  0  0  0  0  0  0  0  0  0  0
  161.5760  212.3330  150.1040 C   0  0  2  0  0  3  0  0  0  0  0  0
  160.7800  210.2660  153.1150 N   0  0  0  0  0  0  0  0  0  0  0  0
  161.9470  210.1790  148.7320 C   0  0  0  0  0  2  0  0  0  0  0  0
  161.5830  211.6660  148.7110 C   0  0  2  0  0  3  0  0  0  0  0  0
  159.3720  209.9610  152.8650 C   0  0  0  0  0  2  0  0  0  0  0  0
  162.3540  210.8450  154.9370 C   0  0  0  0  0  3  0  0  0  0  0  0
  161.3490  210.0110  154.4180 C   0  0  0  0  0  0  0  0  0  0  0  0
  160.9060  208.9240  155.1910 C   0  0  0  0  0  3  0  0  0  0  0  0
  160.9770  207.5250  157.2590 C   0  0  0  0  0  1  0  0  0  0  0  0
  162.4540  209.5150  156.9560 C   0  0  0  0  0  3  0  0  0  0  0  0
  161.4560  208.6780  156.4530 C   0  0  0  0  0  0  0  0  0  0  0  0
  162.9040  210.5980  156.1970 C   0  0  0  0  0  3  0  0  0  0  0  0
  162.5310  212.3200  147.8990 O   0  0  0  0  0  0  0  0  0  0  0  0
  161.9310  212.7520  146.6940 C   0  0  1  0  0  3  0  0  0  0  0  0
  160.2390  212.1030  145.5350 O   0  0  0  0  0  1  0  0  0  0  0  0
  160.5340  212.6260  146.7060 O   0  0  0  0  0  0  0  0  0  0  0  0
  162.3700  214.1610  146.3200 C   0  0  0  0  0  2  0  0  0  0  0  0
  162.6880  214.2580  144.8370 C   0  0  0  0  0  2  0  0  0  0  0  0
  163.4390  213.1530  144.4320 O   0  0  0  0  0  1  0  0  0  0  0  0
  158.6630  212.9540  148.9960 O   0  0  0  0  0  0  0  0  0  0  0  0
  157.6310  213.2560  148.0780 C   0  0  0  0  0  0  0  0  0  0  0  0
  156.4150  213.3460  148.7340 F   0  0  0  0  0  0  0  0  0  0  0  0
  157.8760  214.4400  147.3950 F   0  0  0  0  0  0  0  0  0  0  0  0
  157.5510  212.2300  147.1560 F   0  0  0  0  0  0  0  0  0  0  0  0
  1 13  1  6  0  0  0
  2  6  1  0  0  0  0
  3 33  1  6  0  0  0
  3  5  1  0  0  0  0
  3  7  1  0  0  0  0
  4  1  1  0  0  0  0
  4  6  1  0  0  0  0
  5  1  1  0  0  0  0
  6 15  1  0  0  0  0
  7 10  2  0  0  0  0
  8 14  1  0  0  0  0
  8  5  1  0  0  0  0
 10 13  1  0  0  0  0
 11 12  1  0  0  0  0
 12  2  1  0  0  0  0
 13  9  1  0  0  0  0
 14  4  1  0  0  0  0
 15 20  1  0  0  0  0
 16 11  1  0  0  0  0
 17 16  1  0  0  0  0
 17 14  1  0  0  0  0
 18 15  1  0  0  0  0
 18  9  1  0  0  0  0
 19 25  1  0  0  0  0
 20 19  2  0  0  0  0
 20 21  1  0  0  0  0
 21 24  2  0  0  0  0
 24 23  1  0  0  0  0
 24 22  1  0  0  0  0
 25 23  2  0  0  0  0
 26 17  1  0  0  0  0
 27 29  1  0  0  0  0
 27 26  1  0  0  0  0
 28 29  1  0  0  0  0
 30 27  1  0  0  0  0
 31 30  1  0  0  0  0
 32 31  1  0  0  0  0
 34 35  1  0  0  0  0
 34 33  1  0  0  0  0
 36 34  1  0  0  0  0
 37 34  1  0  0  0  0
M  END
>  <MODEL>
2

>  <REMARK>
 VINA RESULT:      -3.7      5.708      7.825
  Name = 
  8 active torsions:
  status: ('A' for Active; 'I' for Inactive)
    1  A    between atoms: O_1  and  C_4
    2  A    between atoms: O_1  and  C_27
    3  A    between atoms: C_2  and  O_22
    4  A    between atoms: C_4  and  C_12
    5  A    between atoms: C_4  and  O_37
    6  A    between atoms: C_6  and  O_22
    7  A    between atoms: C_8  and  C_12
    8  A    between atoms: N_23  and  C_30
                            x       y       z     vdW  Elec       q    Type
                         _______ _______ _______ _____ _____    ______ ____

>  <TORSDO>
F 8

$$$$
=
 OpenBabel11122414023D

 37 41  0  0  1  0  0  0  0  0999 V2000
  160.3870  205.3760  151.1110 C   0  0  1  0  0  3  0  0  0  0  0  0
  161.5320  208.6240  149.6440 C   0  0  0  0  0  2  0  0  0  0  0  0
  160.4820  202.9870  150.2040 C   0  0  2  0  0  3  0  0  0  0  0  0
  161.1370  206.2050  150.1960 N   0  0  2  0  0  0  0  0  0  0  0  0
  159.7200  204.3270  150.2470 C   0  0  2  0  0  3  0  0  0  0  0  0
  160.9710  207.6040  150.6420 C   0  0  1  0  0  3  0  0  0  0  0  0
  160.8150  202.5470  151.5980 C   0  0  0  0  0  3  0  0  0  0  0  0
  159.5960  204.8770  148.9640 O   0  0  0  0  0  0  0  0  0  0  0  0
  161.8480  205.7210  153.1610 C   0  0  0  0  0  2  0  0  0  0  0  0
  161.2250  203.4360  152.4950 C   0  0  0  0  0  3  0  0  0  0  0  0
  163.2220  207.0610  148.8120 O   0  0  0  0  0  0  0  0  0  0  0  0
  163.0010  208.3710  149.2710 C   0  0  0  0  0  2  0  0  0  0  0  0
  161.2590  204.8290  152.1670 N   0  0  0  0  0  0  0  0  0  0  0  0
  160.4540  206.0040  148.9060 C   0  0  2  0  0  3  0  0  0  0  0  0
  161.5640  207.8330  151.9720 N   0  0  0  0  0  0  0  0  0  0  0  0
  162.4940  206.9300  147.6240 C   0  0  0  0  0  2  0  0  0  0  0  0
  161.4460  205.8180  147.7370 C   0  0  2  0  0  3  0  0  0  0  0  0
  162.5550  206.8940  152.4980 C   0  0  0  0  0  2  0  0  0  0  0  0
  160.9480  210.2120  152.2760 C   0  0  0  0  0  3  0  0  0  0  0  0
  161.0890  208.9150  152.8010 C   0  0  0  0  0  0  0  0  0  0  0  0
  160.7600  208.6920  154.1490 C   0  0  0  0  0  3  0  0  0  0  0  0
  159.9550  209.4880  156.3750 C   0  0  0  0  0  1  0  0  0  0  0  0
  160.1640  211.0230  154.4170 C   0  0  0  0  0  3  0  0  0  0  0  0
  160.2990  209.7410  154.9520 C   0  0  0  0  0  0  0  0  0  0  0  0
  160.4890  211.2590  153.0790 C   0  0  0  0  0  3  0  0  0  0  0  0
  160.7240  205.7960  146.5280 O   0  0  0  0  0  0  0  0  0  0  0  0
  161.6080  205.6870  145.4300 C   0  0  1  0  0  3  0  0  0  0  0  0
  163.1960  204.3140  144.9590 O   0  0  0  0  0  1  0  0  0  0  0  0
  162.8950  205.2750  145.8060 O   0  0  0  0  0  0  0  0  0  0  0  0
  161.0310  204.8090  144.3280 C   0  0  0  0  0  2  0  0  0  0  0  0
  159.9490  203.8900  144.8720 C   0  0  0  0  0  2  0  0  0  0  0  0
  160.3910  202.5670  144.8610 O   0  0  0  0  0  1  0  0  0  0  0  0
  161.6620  203.1140  149.4420 O   0  0  0  0  0  0  0  0  0  0  0  0
  161.6020  202.2360  148.3360 C   0  0  0  0  0  0  0  0  0  0  0  0
  162.2900  202.7710  147.2600 F   0  0  0  0  0  0  0  0  0  0  0  0
  162.1210  200.9850  148.6390 F   0  0  0  0  0  0  0  0  0  0  0  0
  160.2790  202.0820  147.9710 F   0  0  0  0  0  0  0  0  0  0  0  0
  1 13  1  1  0  0  0
  2  6  1  0  0  0  0
  3 33  1  6  0  0  0
  3  5  1  0  0  0  0
  3  7  1  0  0  0  0
  4  6  1  0  0  0  0
  4  1  1  0  0  0  0
  5  1  1  0  0  0  0
  6 15  1  0  0  0  0
  7 10  2  0  0  0  0
  8  5  1  0  0  0  0
 11 12  1  0  0  0  0
 12  2  1  0  0  0  0
 13 10  1  0  0  0  0
 13  9  1  0  0  0  0
 14  8  1  0  0  0  0
 14  4  1  0  0  0  0
 15 18  1  0  0  0  0
 15 20  1  0  0  0  0
 16 17  1  0  0  0  0
 16 11  1  0  0  0  0
 17 14  1  0  0  0  0
 18  9  1  0  0  0  0
 19 20  2  0  0  0  0
 19 25  1  0  0  0  0
 20 21  1  0  0  0  0
 21 24  2  0  0  0  0
 23 24  1  0  0  0  0
 24 22  1  0  0  0  0
 25 23  2  0  0  0  0
 26 17  1  0  0  0  0
 27 29  1  0  0  0  0
 27 26  1  0  0  0  0
 28 29  1  0  0  0  0
 30 31  1  0  0  0  0
 30 27  1  0  0  0  0
 32 31  1  0  0  0  0
 34 36  1  0  0  0  0
 34 33  1  0  0  0  0
 35 34  1  0  0  0  0
 37 34  1  0  0  0  0
M  END
>  <MODEL>
3

>  <REMARK>
 VINA RESULT:      -3.6      0.866      1.308
  Name = 
  8 active torsions:
  status: ('A' for Active; 'I' for Inactive)
    1  A    between atoms: O_1  and  C_4
    2  A    between atoms: O_1  and  C_27
    3  A    between atoms: C_2  and  O_22
    4  A    between atoms: C_4  and  C_12
    5  A    between atoms: C_4  and  O_37
    6  A    between atoms: C_6  and  O_22
    7  A    between atoms: C_8  and  C_12
    8  A    between atoms: N_23  and  C_30
                            x       y       z     vdW  Elec       q    Type
                         _______ _______ _______ _____ _____    ______ ____

>  <TORSDO>
F 8

$$$$
=
 OpenBabel11122414023D

 37 41  0  0  1  0  0  0  0  0999 V2000
  162.0080  205.1200  150.9500 C   0  0  1  0  0  3  0  0  0  0  0  0
  161.3130  205.3320  147.2770 C   0  0  0  0  0  2  0  0  0  0  0  0
  162.0500  206.9210  152.7670 C   0  0  2  0  0  3  0  0  0  0  0  0
  161.5060  205.7470  149.7480 N   0  0  2  0  0  0  0  0  0  0  0  0
  162.8220  206.1900  151.6480 C   0  0  2  0  0  3  0  0  0  0  0  0
  161.6070  204.7470  148.6640 C   0  0  1  0  0  3  0  0  0  0  0  0
  161.4020  205.9190  153.6740 C   0  0  0  0  0  3  0  0  0  0  0  0
  163.2450  207.0890  150.6590 O   0  0  0  0  0  0  0  0  0  0  0  0
  160.1360  203.4330  151.2650 C   0  0  0  0  0  2  0  0  0  0  0  0
  160.8270  204.8350  153.1650 C   0  0  0  0  0  3  0  0  0  0  0  0
  159.8080  207.0380  148.1830 O   0  0  0  0  0  0  0  0  0  0  0  0
  159.9590  206.0520  147.1920 C   0  0  0  0  0  2  0  0  0  0  0  0
  160.9070  204.5690  151.7600 N   0  0  0  0  0  0  0  0  0  0  0  0
  162.4540  206.8480  149.5080 C   0  0  2  0  0  3  0  0  0  0  0  0
  160.7390  203.5820  148.9060 N   0  0  0  0  0  0  0  0  0  0  0  0
  160.7800  208.0100  147.9240 C   0  0  0  0  0  2  0  0  0  0  0  0
  161.7440  208.1590  149.1050 C   0  0  2  0  0  3  0  0  0  0  0  0
  159.6290  203.6840  149.8530 C   0  0  0  0  0  2  0  0  0  0  0  0
  161.7550  201.3260  149.0070 C   0  0  0  0  0  3  0  0  0  0  0  0
  161.0460  202.3090  148.2960 C   0  0  0  0  0  0  0  0  0  0  0  0
  160.6400  202.0310  146.9790 C   0  0  0  0  0  3  0  0  0  0  0  0
  160.5000  200.5190  144.9960 C   0  0  0  0  0  1  0  0  0  0  0  0
  161.6420  199.8310  147.1070 C   0  0  0  0  0  3  0  0  0  0  0  0
  160.9370  200.7980  146.3890 C   0  0  0  0  0  0  0  0  0  0  0  0
  162.0520  200.0940  148.4160 C   0  0  0  0  0  3  0  0  0  0  0  0
  162.7180  209.1080  148.7370 O   0  0  0  0  0  0  0  0  0  0  0  0
  162.2480  210.4170  148.9910 C   0  0  1  0  0  3  0  0  0  0  0  0
  161.1810  211.4970  150.5160 O   0  0  0  0  0  1  0  0  0  0  0  0
  162.2450  210.7400  150.3560 O   0  0  0  0  0  0  0  0  0  0  0  0
  162.9960  211.4540  148.1650 C   0  0  0  0  0  2  0  0  0  0  0  0
  162.0310  212.4260  147.5060 C   0  0  0  0  0  2  0  0  0  0  0  0
  160.8230  211.7880  147.2240 O   0  0  0  0  0  1  0  0  0  0  0  0
  161.0750  207.7770  152.2160 O   0  0  0  0  0  0  0  0  0  0  0  0
  160.9060  208.8980  153.0600 C   0  0  0  0  0  0  0  0  0  0  0  0
  160.4690  208.4970  154.3110 F   0  0  0  0  0  0  0  0  0  0  0  0
  162.0790  209.6280  153.1930 F   0  0  0  0  0  0  0  0  0  0  0  0
  159.9420  209.7200  152.5080 F   0  0  0  0  0  0  0  0  0  0  0  0
  1  5  1  0  0  0  0
  1 13  1  1  0  0  0
  2  6  1  0  0  0  0
  3 33  1  6  0  0  0
  3  7  1  0  0  0  0
  4  1  1  0  0  0  0
  5  3  1  0  0  0  0
  6 15  1  0  0  0  0
  6  4  1  0  0  0  0
  8  5  1  0  0  0  0
  9 13  1  0  0  0  0
 10  7  2  0  0  0  0
 12  2  1  0  0  0  0
 12 11  1  0  0  0  0
 13 10  1  0  0  0  0
 14  4  1  0  0  0  0
 14  8  1  0  0  0  0
 15 18  1  0  0  0  0
 16 11  1  0  0  0  0
 16 17  1  0  0  0  0
 17 14  1  0  0  0  0
 18  9  1  0  0  0  0
 20 15  1  0  0  0  0
 20 19  2  0  0  0  0
 21 20  1  0  0  0  0
 22 24  1  0  0  0  0
 23 25  2  0  0  0  0
 24 21  2  0  0  0  0
 24 23  1  0  0  0  0
 25 19  1  0  0  0  0
 26 27  1  0  0  0  0
 26 17  1  0  0  0  0
 27 29  1  0  0  0  0
 29 28  1  0  0  0  0
 30 27  1  0  0  0  0
 31 30  1  0  0  0  0
 32 31  1  0  0  0  0
 33 34  1  0  0  0  0
 34 36  1  0  0  0  0
 34 35  1  0  0  0  0
 37 34  1  0  0  0  0
M  END
>  <MODEL>
4

>  <REMARK>
 VINA RESULT:      -2.8      3.654      7.260
  Name = 
  8 active torsions:
  status: ('A' for Active; 'I' for Inactive)
    1  A    between atoms: O_1  and  C_4
    2  A    between atoms: O_1  and  C_27
    3  A    between atoms: C_2  and  O_22
    4  A    between atoms: C_4  and  C_12
    5  A    between atoms: C_4  and  O_37
    6  A    between atoms: C_6  and  O_22
    7  A    between atoms: C_8  and  C_12
    8  A    between atoms: N_23  and  C_30
                            x       y       z     vdW  Elec       q    Type
                         _______ _______ _______ _____ _____    ______ ____

>  <TORSDO>
F 8

$$$$
=
 OpenBabel11122414023D

 37 41  0  0  1  0  0  0  0  0999 V2000
  160.6440  206.8840  151.3990 C   0  0  1  0  0  3  0  0  0  0  0  0
  161.5890  208.5000  148.1570 C   0  0  0  0  0  2  0  0  0  0  0  0
  160.7890  204.4520  152.1780 C   0  0  2  0  0  3  0  0  0  0  0  0
  161.3160  206.9580  150.1220 N   0  0  2  0  0  0  0  0  0  0  0  0
  159.9770  205.5240  151.4220 C   0  0  2  0  0  3  0  0  0  0  0  0
  161.1170  208.3280  149.6060 C   0  0  1  0  0  3  0  0  0  0  0  0
  161.2060  204.9810  153.5180 C   0  0  0  0  0  3  0  0  0  0  0  0
  159.7700  205.1510  150.0870 O   0  0  0  0  0  0  0  0  0  0  0  0
  162.1880  208.4350  152.6880 C   0  0  0  0  0  2  0  0  0  0  0  0
  161.6240  206.2360  153.6350 C   0  0  0  0  0  3  0  0  0  0  0  0
  163.2960  206.7600  148.3790 O   0  0  0  0  0  0  0  0  0  0  0  0
  163.0460  208.0700  147.9330 C   0  0  0  0  0  2  0  0  0  0  0  0
  161.5870  207.1180  152.5080 N   0  0  0  0  0  0  0  0  0  0  0  0
  160.5790  205.9940  149.2860 C   0  0  2  0  0  3  0  0  0  0  0  0
  161.7640  209.3380  150.4620 N   0  0  0  0  0  0  0  0  0  0  0  0
  162.5160  205.9150  147.5820 C   0  0  0  0  0  2  0  0  0  0  0  0
  161.5190  205.1180  148.4290 C   0  0  2  0  0  3  0  0  0  0  0  0
  162.8160  208.9360  151.3950 C   0  0  0  0  0  2  0  0  0  0  0  0
  161.5810  211.5630  149.3880 C   0  0  0  0  0  3  0  0  0  0  0  0
  161.2890  210.7020  150.4610 C   0  0  0  0  0  0  0  0  0  0  0  0
  160.5250  211.1940  151.5330 C   0  0  0  0  0  3  0  0  0  0  0  0
  159.2570  213.0180  152.6740 C   0  0  0  0  0  1  0  0  0  0  0  0
  160.3610  213.3570  150.4600 C   0  0  0  0  0  3  0  0  0  0  0  0
  160.0640  212.5140  151.5320 C   0  0  0  0  0  0  0  0  0  0  0  0
  161.1200  212.8820  149.3880 C   0  0  0  0  0  3  0  0  0  0  0  0
  160.7410  204.3440  147.5470 O   0  0  0  0  0  0  0  0  0  0  0  0
  161.5540  203.7890  146.5320 C   0  0  1  0  0  3  0  0  0  0  0  0
  160.8320  201.7870  146.8530 O   0  0  0  0  0  1  0  0  0  0  0  0
  161.9540  202.4740  146.8140 O   0  0  0  0  0  0  0  0  0  0  0  0
  160.8990  203.9010  145.1620 C   0  0  0  0  0  2  0  0  0  0  0  0
  161.2230  205.2360  144.5110 C   0  0  0  0  0  2  0  0  0  0  0  0
  160.2990  206.2030  144.9110 O   0  0  0  0  0  1  0  0  0  0  0  0
  161.9240  204.0750  151.4320 O   0  0  0  0  0  0  0  0  0  0  0  0
  161.9260  202.6720  151.2580 C   0  0  0  0  0  0  0  0  0  0  0  0
  161.9690  202.3540  149.9120 F   0  0  0  0  0  0  0  0  0  0  0  0
  162.9940  202.0710  151.9090 F   0  0  0  0  0  0  0  0  0  0  0  0
  160.7540  202.1650  151.7850 F   0  0  0  0  0  0  0  0  0  0  0  0
  1  5  1  0  0  0  0
  1 13  1  1  0  0  0
  2  6  1  0  0  0  0
  3 33  1  6  0  0  0
  3  7  1  0  0  0  0
  4  1  1  0  0  0  0
  5  3  1  0  0  0  0
  6  4  1  0  0  0  0
  6 15  1  0  0  0  0
  7 10  2  0  0  0  0
  8  5  1  0  0  0  0
 12  2  1  0  0  0  0
 12 11  1  0  0  0  0
 13  9  1  0  0  0  0
 13 10  1  0  0  0  0
 14  8  1  0  0  0  0
 14  4  1  0  0  0  0
 15 18  1  0  0  0  0
 16 11  1  0  0  0  0
 16 17  1  0  0  0  0
 17 14  1  0  0  0  0
 18  9  1  0  0  0  0
 19 25  2  0  0  0  0
 19 20  1  0  0  0  0
 20 15  1  0  0  0  0
 20 21  2  0  0  0  0
 23 24  2  0  0  0  0
 24 21  1  0  0  0  0
 24 22  1  0  0  0  0
 25 23  1  0  0  0  0
 26 17  1  0  0  0  0
 27 29  1  0  0  0  0
 27 26  1  0  0  0  0
 29 28  1  0  0  0  0
 30 27  1  0  0  0  0
 31 32  1  0  0  0  0
 31 30  1  0  0  0  0
 34 33  1  0  0  0  0
 34 37  1  0  0  0  0
 34 36  1  0  0  0  0
 35 34  1  0  0  0  0
M  END
>  <MODEL>
5

>  <REMARK>
 VINA RESULT:      -2.4      1.848      2.604
  Name = 
  8 active torsions:
  status: ('A' for Active; 'I' for Inactive)
    1  A    between atoms: O_1  and  C_4
    2  A    between atoms: O_1  and  C_27
    3  A    between atoms: C_2  and  O_22
    4  A    between atoms: C_4  and  C_12
    5  A    between atoms: C_4  and  O_37
    6  A    between atoms: C_6  and  O_22
    7  A    between atoms: C_8  and  C_12
    8  A    between atoms: N_23  and  C_30
                            x       y       z     vdW  Elec       q    Type
                         _______ _______ _______ _____ _____    ______ ____

>  <TORSDO>
F 8

$$$$
=
 OpenBabel11122414023D

 37 41  0  0  1  0  0  0  0  0999 V2000
  159.1580  212.0460  152.2190 C   0  0  1  0  0  3  0  0  0  0  0  0
  161.2050  210.7580  149.3610 C   0  0  0  0  0  2  0  0  0  0  0  0
  159.3290  211.6370  154.7380 C   0  0  2  0  0  3  0  0  0  0  0  0
  160.3190  211.4360  151.6130 N   0  0  2  0  0  0  0  0  0  0  0  0
  158.7910  211.1450  153.3790 C   0  0  2  0  0  3  0  0  0  0  0  0
  160.1550  211.5520  150.1490 C   0  0  1  0  0  3  0  0  0  0  0  0
  158.9900  213.0860  154.9240 C   0  0  0  0  0  3  0  0  0  0  0  0
  159.2860  209.8690  153.0740 O   0  0  0  0  0  0  0  0  0  0  0  0
  159.6550  214.4500  151.5660 C   0  0  0  0  0  2  0  0  0  0  0  0
  159.0920  213.9290  153.9030 C   0  0  0  0  0  3  0  0  0  0  0  0
  162.8810  210.9850  151.1310 O   0  0  0  0  0  0  0  0  0  0  0  0
  162.6500  211.1020  149.7490 C   0  0  0  0  0  2  0  0  0  0  0  0
  159.4320  213.4450  152.5990 N   0  0  0  0  0  0  0  0  0  0  0  0
  160.2200  210.0230  152.0190 C   0  0  2  0  0  3  0  0  0  0  0  0
  160.1590  212.9570  149.7030 N   0  0  0  0  0  0  0  0  0  0  0  0
  162.7070  209.6330  151.4470 C   0  0  0  0  0  2  0  0  0  0  0  0
  161.5800  209.4440  152.4670 C   0  0  2  0  0  3  0  0  0  0  0  0
  160.7140  213.9940  150.5720 C   0  0  0  0  0  2  0  0  0  0  0  0
  158.1170  213.3300  148.3530 C   0  0  0  0  0  3  0  0  0  0  0  0
  159.5180  213.3260  148.4630 C   0  0  0  0  0  0  0  0  0  0  0  0
  160.2850  213.6900  147.3430 C   0  0  0  0  0  3  0  0  0  0  0  0
  160.4900  214.4320  144.9670 C   0  0  0  0  0  1  0  0  0  0  0  0
  158.2730  214.0480  146.0470 C   0  0  0  0  0  3  0  0  0  0  0  0
  159.6650  214.0490  146.1420 C   0  0  0  0  0  0  0  0  0  0  0  0
  157.4980  213.6880  147.1520 C   0  0  0  0  0  3  0  0  0  0  0  0
  161.4350  208.0590  152.6820 O   0  0  0  0  0  0  0  0  0  0  0  0
  161.9790  207.3340  151.5970 C   0  0  1  0  0  3  0  0  0  0  0  0
  161.9460  205.6390  152.9230 O   0  0  0  0  0  1  0  0  0  0  0  0
  162.7030  206.2040  152.0060 O   0  0  0  0  0  0  0  0  0  0  0  0
  160.9170  206.9830  150.5640 C   0  0  0  0  0  2  0  0  0  0  0  0
  161.5510  206.4500  149.2900 C   0  0  0  0  0  2  0  0  0  0  0  0
  162.3160  207.4450  148.6790 O   0  0  0  0  0  1  0  0  0  0  0  0
  160.7260  211.4540  154.8120 O   0  0  0  0  0  0  0  0  0  0  0  0
  161.0370  210.6840  155.9550 C   0  0  0  0  0  0  0  0  0  0  0  0
  159.9800  209.8500  156.2760 F   0  0  0  0  0  0  0  0  0  0  0  0
  162.1840  209.9250  155.7710 F   0  0  0  0  0  0  0  0  0  0  0  0
  161.2490  211.5420  157.0160 F   0  0  0  0  0  0  0  0  0  0  0  0
  1 13  1  1  0  0  0
  1  5  1  0  0  0  0
  2 12  1  0  0  0  0
  2  6  1  0  0  0  0
  3 33  1  6  0  0  0
  3  7  1  0  0  0  0
  4 14  1  0  0  0  0
  4  1  1  0  0  0  0
  5  3  1  0  0  0  0
  6  4  1  0  0  0  0
  8  5  1  0  0  0  0
  9 13  1  0  0  0  0
 10  7  2  0  0  0  0
 11 16  1  0  0  0  0
 12 11  1  0  0  0  0
 13 10  1  0  0  0  0
 14 17  1  0  0  0  0
 14  8  1  0  0  0  0
 15  6  1  0  0  0  0
 15 18  1  0  0  0  0
 16 17  1  0  0  0  0
 17 26  1  0  0  0  0
 18  9  1  0  0  0  0
 19 20  1  0  0  0  0
 20 15  1  0  0  0  0
 21 20  2  0  0  0  0
 22 24  1  0  0  0  0
 23 24  2  0  0  0  0
 23 25  1  0  0  0  0
 24 21  1  0  0  0  0
 25 19  2  0  0  0  0
 27 29  1  0  0  0  0
 27 26  1  0  0  0  0
 29 28  1  0  0  0  0
 30 27  1  0  0  0  0
 31 30  1  0  0  0  0
 32 31  1  0  0  0  0
 33 34  1  0  0  0  0
 34 35  1  0  0  0  0
 34 37  1  0  0  0  0
 36 34  1  0  0  0  0
M  END
>  <MODEL>
6

>  <REMARK>
 VINA RESULT:      -1.9      5.469      8.257
  Name = 
  8 active torsions:
  status: ('A' for Active; 'I' for Inactive)
    1  A    between atoms: O_1  and  C_4
    2  A    between atoms: O_1  and  C_27
    3  A    between atoms: C_2  and  O_22
    4  A    between atoms: C_4  and  C_12
    5  A    between atoms: C_4  and  O_37
    6  A    between atoms: C_6  and  O_22
    7  A    between atoms: C_8  and  C_12
    8  A    between atoms: N_23  and  C_30
                            x       y       z     vdW  Elec       q    Type
                         _______ _______ _______ _____ _____    ______ ____

>  <TORSDO>
F 8

$$$$
=
 OpenBabel11122414023D

 37 41  0  0  1  0  0  0  0  0999 V2000
  161.9790  210.9450  150.4790 C   0  0  1  0  0  3  0  0  0  0  0  0
  161.6380  207.4180  151.6870 C   0  0  0  0  0  2  0  0  0  0  0  0
  161.7270  211.9620  148.1450 C   0  0  2  0  0  3  0  0  0  0  0  0
  161.5590  209.5660  150.3850 N   0  0  2  0  0  0  0  0  0  0  0  0
  162.6490  211.2500  149.1560 C   0  0  2  0  0  3  0  0  0  0  0  0
  161.8300  208.9400  151.6960 C   0  0  1  0  0  3  0  0  0  0  0  0
  161.0560  213.1300  148.8050 C   0  0  0  0  0  3  0  0  0  0  0  0
  163.1100  210.0290  148.6430 O   0  0  0  0  0  0  0  0  0  0  0  0
  160.1960  211.7360  152.1060 C   0  0  0  0  0  2  0  0  0  0  0  0
  160.6050  213.0210  150.0490 C   0  0  0  0  0  3  0  0  0  0  0  0
  159.9450  207.5210  149.9220 O   0  0  0  0  0  0  0  0  0  0  0  0
  160.2550  206.9790  151.1820 C   0  0  0  0  0  2  0  0  0  0  0  0
  160.8400  211.8250  150.8000 N   0  0  0  0  0  0  0  0  0  0  0  0
  162.4540  208.9990  149.3620 C   0  0  2  0  0  3  0  0  0  0  0  0
  161.0180  209.5370  152.7710 N   0  0  0  0  0  0  0  0  0  0  0  0
  160.8740  206.9860  149.0220 C   0  0  0  0  0  2  0  0  0  0  0  0
  161.7050  208.0910  148.3620 C   0  0  2  0  0  3  0  0  0  0  0  0
  159.8160  210.3000  152.4370 C   0  0  0  0  0  2  0  0  0  0  0  0
  162.3890  210.3970  154.6450 C   0  0  0  0  0  3  0  0  0  0  0  0
  161.4650  209.4650  154.1420 C   0  0  0  0  0  0  0  0  0  0  0  0
  160.9810  208.4630  155.0010 C   0  0  0  0  0  3  0  0  0  0  0  0
  160.8910  207.3280  157.2240 C   0  0  0  0  0  1  0  0  0  0  0  0
  162.3310  209.3260  156.8140 C   0  0  0  0  0  3  0  0  0  0  0  0
  161.4120  208.3940  156.3290 C   0  0  0  0  0  0  0  0  0  0  0  0
  162.8210  210.3280  155.9720 C   0  0  0  0  0  3  0  0  0  0  0  0
  162.6480  207.4640  147.5230 O   0  0  0  0  0  0  0  0  0  0  0  0
  162.0820  206.3190  146.9180 C   0  0  1  0  0  3  0  0  0  0  0  0
  160.4560  206.3740  145.5110 O   0  0  0  0  0  1  0  0  0  0  0  0
  161.7620  206.5180  145.5670 O   0  0  0  0  0  0  0  0  0  0  0  0
  162.9550  205.0870  147.1180 C   0  0  0  0  0  2  0  0  0  0  0  0
  162.1150  203.8200  147.1340 C   0  0  0  0  0  2  0  0  0  0  0  0
  161.5800  203.6130  148.4060 O   0  0  0  0  0  1  0  0  0  0  0  0
  160.7580  211.0670  147.6460 O   0  0  0  0  0  0  0  0  0  0  0  0
  160.0640  211.6770  146.5770 C   0  0  0  0  0  0  0  0  0  0  0  0
  158.7440  211.9060  146.9290 F   0  0  0  0  0  0  0  0  0  0  0  0
  160.6520  212.8740  146.1930 F   0  0  0  0  0  0  0  0  0  0  0  0
  160.0800  210.8170  145.4960 F   0  0  0  0  0  0  0  0  0  0  0  0
  1 13  1  6  0  0  0
  2  6  1  0  0  0  0
  3 33  1  1  0  0  0
  3  7  1  0  0  0  0
  3  5  1  0  0  0  0
  4  1  1  0  0  0  0
  4  6  1  0  0  0  0
  5  1  1  0  0  0  0
  6 15  1  0  0  0  0
  7 10  2  0  0  0  0
  8  5  1  0  0  0  0
  8 14  1  0  0  0  0
  9 18  1  0  0  0  0
 10 13  1  0  0  0  0
 11 12  1  0  0  0  0
 12  2  1  0  0  0  0
 13  9  1  0  0  0  0
 14  4  1  0  0  0  0
 15 20  1  0  0  0  0
 16 11  1  0  0  0  0
 17 16  1  0  0  0  0
 17 14  1  0  0  0  0
 18 15  1  0  0  0  0
 19 25  1  0  0  0  0
 20 19  2  0  0  0  0
 20 21  1  0  0  0  0
 21 24  2  0  0  0  0
 24 23  1  0  0  0  0
 24 22  1  0  0  0  0
 25 23  2  0  0  0  0
 26 17  1  0  0  0  0
 27 30  1  0  0  0  0
 27 26  1  0  0  0  0
 28 29  1  0  0  0  0
 29 27  1  0  0  0  0
 30 31  1  0  0  0  0
 31 32  1  0  0  0  0
 34 35  1  0  0  0  0
 34 33  1  0  0  0  0
 36 34  1  0  0  0  0
 37 34  1  0  0  0  0
M  END
>  <MODEL>
7

>  <REMARK>
 VINA RESULT:      -1.9      3.674      6.031
  Name = 
  8 active torsions:
  status: ('A' for Active; 'I' for Inactive)
    1  A    between atoms: O_1  and  C_4
    2  A    between atoms: O_1  and  C_27
    3  A    between atoms: C_2  and  O_22
    4  A    between atoms: C_4  and  C_12
    5  A    between atoms: C_4  and  O_37
    6  A    between atoms: C_6  and  O_22
    7  A    between atoms: C_8  and  C_12
    8  A    between atoms: N_23  and  C_30
                            x       y       z     vdW  Elec       q    Type
                         _______ _______ _______ _____ _____    ______ ____

>  <TORSDO>
F 8

$$$$
=
 OpenBabel11122414023D

 37 41  0  0  1  0  0  0  0  0999 V2000
  161.0820  208.5770  150.5430 C   0  0  1  0  0  3  0  0  0  0  0  0
  160.9790  204.8480  150.8520 C   0  0  0  0  0  2  0  0  0  0  0  0
  161.4540  210.4070  152.2920 C   0  0  2  0  0  3  0  0  0  0  0  0
  161.3250  207.3120  151.1980 N   0  0  2  0  0  0  0  0  0  0  0  0
  160.4520  209.4610  151.5990 C   0  0  2  0  0  3  0  0  0  0  0  0
  160.9810  206.2500  150.2300 C   0  0  1  0  0  3  0  0  0  0  0  0
  162.2680  211.1280  151.2600 C   0  0  0  0  0  3  0  0  0  0  0  0
  159.8390  208.6080  152.5280 O   0  0  0  0  0  0  0  0  0  0  0  0
  162.9560  208.4410  148.8330 C   0  0  0  0  0  2  0  0  0  0  0  0
  162.7070  210.4800  150.1870 C   0  0  0  0  0  3  0  0  0  0  0  0
  162.6650  205.4540  152.5200 O   0  0  0  0  0  0  0  0  0  0  0  0
  162.2930  204.4930  151.5630 C   0  0  0  0  0  2  0  0  0  0  0  0
  162.3250  209.1190  149.9610 N   0  0  0  0  0  0  0  0  0  0  0  0
  160.3610  207.3090  152.3130 C   0  0  2  0  0  3  0  0  0  0  0  0
  161.8650  206.2700  149.0520 N   0  0  0  0  0  0  0  0  0  0  0  0
  161.6740  205.4340  153.5070 C   0  0  0  0  0  2  0  0  0  0  0  0
  160.9870  206.7970  153.6290 C   0  0  2  0  0  3  0  0  0  0  0  0
  163.1530  206.9600  149.1200 C   0  0  0  0  0  2  0  0  0  0  0  0
  160.8710  206.5300  146.7990 C   0  0  0  0  0  3  0  0  0  0  0  0
  161.4180  205.7070  147.7990 C   0  0  0  0  0  0  0  0  0  0  0  0
  161.5220  204.3270  147.5580 C   0  0  0  0  0  3  0  0  0  0  0  0
  161.2080  202.3210  146.1040 C   0  0  0  0  0  1  0  0  0  0  0  0
  160.5490  204.6110  145.3600 C   0  0  0  0  0  3  0  0  0  0  0  0
  161.0900  203.7820  146.3440 C   0  0  0  0  0  0  0  0  0  0  0  0
  160.4380  205.9850  145.5870 C   0  0  0  0  0  3  0  0  0  0  0  0
  159.9700  206.6710  154.5960 O   0  0  0  0  0  0  0  0  0  0  0  0
  160.2310  207.5180  155.6970 C   0  0  1  0  0  3  0  0  0  0  0  0
  161.7080  207.4070  157.2580 O   0  0  0  0  0  1  0  0  0  0  0  0
  161.6000  207.6510  155.9690 O   0  0  0  0  0  0  0  0  0  0  0  0
  159.5500  208.8710  155.5410 C   0  0  0  0  0  2  0  0  0  0  0  0
  159.7060  209.7090  156.8000 C   0  0  0  0  0  2  0  0  0  0  0  0
  159.3140  211.0250  156.5530 O   0  0  0  0  0  1  0  0  0  0  0  0
  162.3000  209.6820  153.1560 O   0  0  0  0  0  0  0  0  0  0  0  0
  162.5900  210.4670  154.2950 C   0  0  0  0  0  0  0  0  0  0  0  0
  161.6330  211.4540  154.4550 F   0  0  0  0  0  0  0  0  0  0  0  0
  162.6590  209.7000  155.4500 F   0  0  0  0  0  0  0  0  0  0  0  0
  163.8140  211.0780  154.1050 F   0  0  0  0  0  0  0  0  0  0  0  0
  1 13  1  1  0  0  0
  1  4  1  0  0  0  0
  1  5  1  0  0  0  0
  2 12  1  0  0  0  0
  3 33  1  1  0  0  0
  4 14  1  0  0  0  0
  5  3  1  0  0  0  0
  5  8  1  0  0  0  0
  6  2  1  0  0  0  0
  6  4  1  0  0  0  0
  7  3  1  0  0  0  0
  9 18  1  0  0  0  0
  9 13  1  0  0  0  0
 10  7  2  0  0  0  0
 11 16  1  0  0  0  0
 12 11  1  0  0  0  0
 13 10  1  0  0  0  0
 14  8  1  0  0  0  0
 14 17  1  0  0  0  0
 15 18  1  0  0  0  0
 15  6  1  0  0  0  0
 16 17  1  0  0  0  0
 17 26  1  0  0  0  0
 19 20  1  0  0  0  0
 20 15  1  0  0  0  0
 21 20  2  0  0  0  0
 22 24  1  0  0  0  0
 23 25  1  0  0  0  0
 23 24  2  0  0  0  0
 24 21  1  0  0  0  0
 25 19  2  0  0  0  0
 26 27  1  0  0  0  0
 27 29  1  0  0  0  0
 29 28  1  0  0  0  0
 30 27  1  0  0  0  0
 30 31  1  0  0  0  0
 32 31  1  0  0  0  0
 33 34  1  0  0  0  0
 34 35  1  0  0  0  0
 34 36  1  0  0  0  0
 37 34  1  0  0  0  0
M  END
>  <MODEL>
8

>  <REMARK>
 VINA RESULT:      -1.4      4.679      8.598
  Name = 
  8 active torsions:
  status: ('A' for Active; 'I' for Inactive)
    1  A    between atoms: O_1  and  C_4
    2  A    between atoms: O_1  and  C_27
    3  A    between atoms: C_2  and  O_22
    4  A    between atoms: C_4  and  C_12
    5  A    between atoms: C_4  and  O_37
    6  A    between atoms: C_6  and  O_22
    7  A    between atoms: C_8  and  C_12
    8  A    between atoms: N_23  and  C_30
                            x       y       z     vdW  Elec       q    Type
                         _______ _______ _______ _____ _____    ______ ____

>  <TORSDO>
F 8

$$$$
=
 OpenBabel11122414023D

 37 41  0  0  1  0  0  0  0  0999 V2000
  162.2100  210.2070  150.9470 C   0  0  1  0  0  3  0  0  0  0  0  0
  160.1060  213.2930  150.6980 C   0  0  0  0  0  2  0  0  0  0  0  0
  162.1690  208.2660  152.6130 C   0  0  2  0  0  3  0  0  0  0  0  0
  161.0540  211.0280  151.2290 N   0  0  2  0  0  0  0  0  0  0  0  0
  162.6710  209.6890  152.2940 C   0  0  2  0  0  3  0  0  0  0  0  0
  161.1480  212.2200  150.3600 C   0  0  1  0  0  3  0  0  0  0  0  0
  162.4440  207.3580  151.4520 C   0  0  0  0  0  3  0  0  0  0  0  0
  162.2260  210.6070  153.2550 O   0  0  0  0  0  0  0  0  0  0  0  0
  161.5660  209.5080  148.5910 C   0  0  0  0  0  2  0  0  0  0  0  0
  162.2560  207.7900  150.2110 C   0  0  0  0  0  3  0  0  0  0  0  0
  158.4990  211.6440  151.5300 O   0  0  0  0  0  0  0  0  0  0  0  0
  158.6630  212.7660  150.6990 C   0  0  0  0  0  2  0  0  0  0  0  0
  161.8830  209.1520  149.9700 N   0  0  0  0  0  0  0  0  0  0  0  0
  161.2410  211.4160  152.6380 C   0  0  2  0  0  3  0  0  0  0  0  0
  161.0560  211.8700  148.9320 N   0  0  0  0  0  0  0  0  0  0  0  0
  158.7530  212.0790  152.8350 C   0  0  0  0  0  2  0  0  0  0  0  0
  159.9320  211.3190  153.4530 C   0  0  2  0  0  3  0  0  0  0  0  0
  160.4890  210.5810  148.5340 C   0  0  0  0  0  2  0  0  0  0  0  0
  162.6850  213.6070  148.2540 C   0  0  0  0  0  3  0  0  0  0  0  0
  161.6220  212.7450  147.9320 C   0  0  0  0  0  0  0  0  0  0  0  0
  161.1220  212.7480  146.6190 C   0  0  0  0  0  3  0  0  0  0  0  0
  161.1310  213.5860  144.2660 C   0  0  0  0  0  1  0  0  0  0  0  0
  162.7260  214.4460  145.9840 C   0  0  0  0  0  3  0  0  0  0  0  0
  161.6710  213.5940  145.6510 C   0  0  0  0  0  0  0  0  0  0  0  0
  163.2330  214.4530  147.2860 C   0  0  0  0  0  3  0  0  0  0  0  0
  160.1540  211.8580  154.7350 O   0  0  0  0  0  0  0  0  0  0  0  0
  159.6770  210.9730  155.7290 C   0  0  1  0  0  3  0  0  0  0  0  0
  160.0910  209.5090  157.2500 O   0  0  0  0  0  1  0  0  0  0  0  0
  160.7040  210.2450  156.3480 O   0  0  0  0  0  0  0  0  0  0  0  0
  158.7980  211.6890  156.7450 C   0  0  0  0  0  2  0  0  0  0  0  0
  157.3250  211.5080  156.4150 C   0  0  0  0  0  2  0  0  0  0  0  0
  156.7730  212.7190  155.9960 O   0  0  0  0  0  1  0  0  0  0  0  0
  160.7880  208.2820  152.8980 O   0  0  0  0  0  0  0  0  0  0  0  0
  160.5440  207.5380  154.0750 C   0  0  0  0  0  0  0  0  0  0  0  0
  160.4280  206.1910  153.7770 F   0  0  0  0  0  0  0  0  0  0  0  0
  161.5460  207.7180  155.0180 F   0  0  0  0  0  0  0  0  0  0  0  0
  159.3500  207.9650  154.6230 F   0  0  0  0  0  0  0  0  0  0  0  0
  1 13  1  6  0  0  0
  1  4  1  0  0  0  0
  1  5  1  0  0  0  0
  2 12  1  0  0  0  0
  3 33  1  6  0  0  0
  4 14  1  0  0  0  0
  5  3  1  0  0  0  0
  5  8  1  0  0  0  0
  6  2  1  0  0  0  0
  6  4  1  0  0  0  0
  7  3  1  0  0  0  0
  9 13  1  0  0  0  0
 10  7  2  0  0  0  0
 11 16  1  0  0  0  0
 12 11  1  0  0  0  0
 13 10  1  0  0  0  0
 14  8  1  0  0  0  0
 14 17  1  0  0  0  0
 15  6  1  0  0  0  0
 16 17  1  0  0  0  0
 17 26  1  0  0  0  0
 18  9  1  0  0  0  0
 18 15  1  0  0  0  0
 20 19  1  0  0  0  0
 20 15  1  0  0  0  0
 21 20  2  0  0  0  0
 22 24  1  0  0  0  0
 23 25  1  0  0  0  0
 24 23  2  0  0  0  0
 24 21  1  0  0  0  0
 25 19  2  0  0  0  0
 26 27  1  0  0  0  0
 27 29  1  0  0  0  0
 27 30  1  0  0  0  0
 29 28  1  0  0  0  0
 31 30  1  0  0  0  0
 32 31  1  0  0  0  0
 33 34  1  0  0  0  0
 34 37  1  0  0  0  0
 34 36  1  0  0  0  0
 35 34  1  0  0  0  0
M  END
>  <MODEL>
9

>  <REMARK>
 VINA RESULT:      -1.1      5.441      8.844
  Name = 
  8 active torsions:
  status: ('A' for Active; 'I' for Inactive)
    1  A    between atoms: O_1  and  C_4
    2  A    between atoms: O_1  and  C_27
    3  A    between atoms: C_2  and  O_22
    4  A    between atoms: C_4  and  C_12
    5  A    between atoms: C_4  and  O_37
    6  A    between atoms: C_6  and  O_22
    7  A    between atoms: C_8  and  C_12
    8  A    between atoms: N_23  and  C_30
                            x       y       z     vdW  Elec       q    Type
                         _______ _______ _______ _____ _____    ______ ____

>  <TORSDO>
F 8

$$$$
