=
 OpenBabel11122412423D

 30 35  0  0  1  0  0  0  0  0999 V2000
  161.4750  204.3440  148.6420 C   0  0  0  0  0  0  0  0  0  0  0  0
  160.9080  201.9140  148.6450 C   0  0  0  0  0  0  0  0  0  0  0  0
  160.8250  204.6270  152.7740 N   0  0  0  0  0  2  0  0  0  0  0  0
  161.6170  205.5550  149.3600 C   0  0  0  0  0  0  0  0  0  0  0  0
  161.7280  204.3590  147.2310 N   0  0  0  0  0  2  0  0  0  0  0  0
  160.3430  207.0370  146.8060 C   0  0  0  0  0  1  0  0  0  0  0  0
  161.2820  208.6200  150.1940 C   0  0  1  0  0  3  0  0  0  0  0  0
  161.8020  206.8150  147.1900 C   0  0  2  0  0  3  0  0  0  0  0  0
  160.6690  207.7990  151.2640 N   0  0  2  0  0  0  0  0  0  0  0  0
  161.0610  206.0440  153.0380 C   0  0  1  0  0  3  0  0  0  0  0  0
  162.3590  205.5150  146.5980 C   0  0  2  0  0  3  0  0  0  0  0  0
  161.9200  206.7740  148.6480 N   0  0  0  0  0  0  0  0  0  0  0  0
  160.5170  200.7780  149.3600 C   0  0  0  0  0  3  0  0  0  0  0  0
  160.4560  208.7220  152.3850 C   0  0  0  0  0  2  0  0  0  0  0  0
  161.7260  209.9370  150.7820 C   0  0  0  0  0  2  0  0  0  0  0  0
  161.1110  201.7880  147.2760 O   0  0  0  0  0  1  0  0  0  0  0  0
  161.0340  204.4070  151.3940 C   0  0  0  0  0  0  0  0  0  0  0  0
  160.2970  200.8430  150.7360 C   0  0  0  0  0  3  0  0  0  0  0  0
  161.0830  203.1510  149.3140 C   0  0  0  0  0  0  0  0  0  0  0  0
  161.4130  205.5440  150.7430 C   0  0  0  0  0  0  0  0  0  0  0  0
  162.1480  206.1900  154.0840 C   0  0  0  0  0  1  0  0  0  0  0  0
  161.5300  206.6840  151.7020 C   0  0  1  0  0  3  0  0  0  0  0  0
  160.7970  210.1270  151.9420 C   0  0  0  0  0  2  0  0  0  0  0  0
  163.5600  207.7400  150.0350 O   0  0  0  0  0  1  0  0  0  0  0  0
  160.4660  202.0480  151.4150 C   0  0  0  0  0  3  0  0  0  0  0  0
  160.8580  203.1970  150.7210 C   0  0  0  0  0  0  0  0  0  0  0  0
  162.3820  207.9840  149.3220 C   0  0  2  0  0  3  0  0  0  0  0  0
  162.2120  205.4530  145.0810 C   0  0  0  0  0  2  0  0  0  0  0  0
  160.0820  204.3290  144.4320 C   0  0  0  0  0  1  0  0  0  0  0  0
  161.5730  204.1450  144.6430 C   0  0  0  0  0  2  0  0  0  0  0  0
  1 19  2  0  0  0  0
  1  4  1  0  0  0  0
  2 19  1  0  0  0  0
  2 13  2  0  0  0  0
  3 10  1  0  0  0  0
  4 20  2  0  0  0  0
  5  1  1  0  0  0  0
  7 15  1  1  0  0  0
  7  9  1  0  0  0  0
  8  6  1  1  0  0  0
  8 12  1  0  0  0  0
  9 22  1  0  0  0  0
  9 14  1  1  0  0  0
 10 21  1  1  0  0  0
 11 28  1  6  0  0  0
 11  8  1  0  0  0  0
 11  5  1  0  0  0  0
 12 27  1  0  0  0  0
 12  4  1  0  0  0  0
 13 18  1  0  0  0  0
 15 23  1  0  0  0  0
 16  2  1  0  0  0  0
 17  3  1  0  0  0  0
 18 25  2  0  0  0  0
 19 26  1  0  0  0  0
 20 17  1  0  0  0  0
 22 20  1  6  0  0  0
 22 10  1  0  0  0  0
 23 14  1  0  0  0  0
 26 17  2  0  0  0  0
 26 25  1  0  0  0  0
 27 24  1  1  0  0  0
 27  7  1  0  0  0  0
 29 30  1  0  0  0  0
 30 28  1  0  0  0  0
M  END
>  <MODEL>
1

>  <REMARK>
 VINA RESULT:      -5.7      0.000      0.000
  Name = 
  2 active torsions:
  status: ('A' for Active; 'I' for Inactive)
    1  A    between atoms: C_11  and  C_28
    2  A    between atoms: C_28  and  C_30
                            x       y       z     vdW  Elec       q    Type
                         _______ _______ _______ _____ _____    ______ ____

>  <TORSDO>
F 2

$$$$
=
 OpenBabel11122412423D

 30 35  0  0  1  0  0  0  0  0999 V2000
  160.3910  211.6560  151.6480 C   0  0  0  0  0  0  0  0  0  0  0  0
  161.7690  209.7850  150.7390 C   0  0  0  0  0  0  0  0  0  0  0  0
  159.6000  209.5270  155.1710 N   0  0  0  0  0  2  0  0  0  0  0  0
  159.5830  212.1690  152.6890 C   0  0  0  0  0  0  0  0  0  0  0  0
  160.6000  212.4710  150.4870 N   0  0  0  0  0  2  0  0  0  0  0  0
  157.7170  213.4470  150.4020 C   0  0  0  0  0  1  0  0  0  0  0  0
  157.0950  213.4770  154.2080 C   0  0  1  0  0  3  0  0  0  0  0  0
  158.8650  214.0620  151.1950 C   0  0  2  0  0  3  0  0  0  0  0  0
  157.2370  212.0870  154.7020 N   0  0  2  0  0  0  0  0  0  0  0  0
  158.7230  210.4350  155.9030 C   0  0  1  0  0  3  0  0  0  0  0  0
  160.2130  213.8810  150.4860 C   0  0  2  0  0  3  0  0  0  0  0  0
  158.9270  213.4450  152.5210 N   0  0  0  0  0  0  0  0  0  0  0  0
  162.3040  208.5030  150.9040 C   0  0  0  0  0  3  0  0  0  0  0  0
  156.3820  212.0120  155.8920 C   0  0  0  0  0  2  0  0  0  0  0  0
  156.4220  214.3080  155.2720 C   0  0  0  0  0  2  0  0  0  0  0  0
  162.0460  210.4630  149.5570 O   0  0  0  0  0  1  0  0  0  0  0  0
  159.9500  210.1540  153.9540 C   0  0  0  0  0  0  0  0  0  0  0  0
  162.0600  207.7740  152.0670 C   0  0  0  0  0  3  0  0  0  0  0  0
  160.9680  210.3580  151.7570 C   0  0  0  0  0  0  0  0  0  0  0  0
  159.4050  211.4000  153.8420 C   0  0  0  0  0  0  0  0  0  0  0  0
  159.3260  210.7390  157.2600 C   0  0  0  0  0  1  0  0  0  0  0  0
  158.6230  211.7430  155.0690 C   0  0  1  0  0  3  0  0  0  0  0  0
  155.6080  213.3040  156.0300 C   0  0  0  0  0  2  0  0  0  0  0  0
  159.3020  214.4530  154.6150 O   0  0  0  0  0  1  0  0  0  0  0  0
  161.2770  208.3190  153.0830 C   0  0  0  0  0  3  0  0  0  0  0  0
  160.7320  209.5990  152.9400 C   0  0  0  0  0  0  0  0  0  0  0  0
  158.3410  214.1820  153.6360 C   0  0  2  0  0  3  0  0  0  0  0  0
  160.2080  214.4430  149.0680 C   0  0  0  0  0  2  0  0  0  0  0  0
  162.3910  214.1740  147.8920 C   0  0  0  0  0  1  0  0  0  0  0  0
  161.0200  213.5690  148.1260 C   0  0  0  0  0  2  0  0  0  0  0  0
  1 19  2  0  0  0  0
  1  4  1  0  0  0  0
  2 13  2  0  0  0  0
  2 19  1  0  0  0  0
  3 10  1  0  0  0  0
  4 20  2  0  0  0  0
  5  1  1  0  0  0  0
  7  9  1  0  0  0  0
  7 15  1  1  0  0  0
  8  6  1  6  0  0  0
  8 12  1  0  0  0  0
  9 22  1  0  0  0  0
  9 14  1  1  0  0  0
 10 21  1  1  0  0  0
 11 28  1  6  0  0  0
 11  5  1  0  0  0  0
 11  8  1  0  0  0  0
 12  4  1  0  0  0  0
 12 27  1  0  0  0  0
 13 18  1  0  0  0  0
 14 23  1  0  0  0  0
 15 23  1  0  0  0  0
 16  2  1  0  0  0  0
 17  3  1  0  0  0  0
 18 25  2  0  0  0  0
 19 26  1  0  0  0  0
 20 17  1  0  0  0  0
 22 20  1  6  0  0  0
 22 10  1  0  0  0  0
 26 25  1  0  0  0  0
 26 17  2  0  0  0  0
 27  7  1  0  0  0  0
 27 24  1  1  0  0  0
 29 30  1  0  0  0  0
 30 28  1  0  0  0  0
M  END
>  <MODEL>
2

>  <REMARK>
 VINA RESULT:      -5.6      5.204      7.918
  Name = 
  2 active torsions:
  status: ('A' for Active; 'I' for Inactive)
    1  A    between atoms: C_11  and  C_28
    2  A    between atoms: C_28  and  C_30
                            x       y       z     vdW  Elec       q    Type
                         _______ _______ _______ _____ _____    ______ ____

>  <TORSDO>
F 2

$$$$
=
 OpenBabel11122412423D

 30 35  0  0  1  0  0  0  0  0999 V2000
  161.4390  208.5720  151.6220 C   0  0  0  0  0  0  0  0  0  0  0  0
  161.4830  206.5120  150.2150 C   0  0  0  0  0  0  0  0  0  0  0  0
  160.3540  206.3760  155.0230 N   0  0  0  0  0  2  0  0  0  0  0  0
  161.2130  209.1730  152.8830 C   0  0  0  0  0  0  0  0  0  0  0  0
  161.8120  209.4180  150.5250 N   0  0  0  0  0  2  0  0  0  0  0  0
  159.8620  211.6250  151.3000 C   0  0  0  0  0  1  0  0  0  0  0  0
  160.0640  211.1420  155.1200 C   0  0  1  0  0  3  0  0  0  0  0  0
  161.2880  211.4470  151.8100 C   0  0  2  0  0  3  0  0  0  0  0  0
  159.5720  209.7790  155.4320 N   0  0  2  0  0  0  0  0  0  0  0  0
  160.2110  207.4130  156.0410 C   0  0  1  0  0  3  0  0  0  0  0  0
  162.1990  210.8080  150.7530 C   0  0  2  0  0  3  0  0  0  0  0  0
  161.2760  210.6100  153.0100 N   0  0  0  0  0  0  0  0  0  0  0  0
  161.3150  205.1270  150.1160 C   0  0  0  0  0  3  0  0  0  0  0  0
  159.0360  209.8650  156.7960 C   0  0  0  0  0  2  0  0  0  0  0  0
  160.1170  211.9470  156.3950 C   0  0  0  0  0  2  0  0  0  0  0  0
  161.8390  207.2120  149.0680 O   0  0  0  0  0  1  0  0  0  0  0  0
  160.7390  207.0060  153.8180 C   0  0  0  0  0  0  0  0  0  0  0  0
  160.9580  204.3720  151.2320 C   0  0  0  0  0  3  0  0  0  0  0  0
  161.2880  207.1650  151.4570 C   0  0  0  0  0  0  0  0  0  0  0  0
  160.8890  208.3540  153.9680 C   0  0  0  0  0  0  0  0  0  0  0  0
  161.1270  207.1050  157.2100 C   0  0  0  0  0  1  0  0  0  0  0  0
  160.6340  208.7570  155.3840 C   0  0  1  0  0  3  0  0  0  0  0  0
  159.0650  211.3080  157.2500 C   0  0  0  0  0  2  0  0  0  0  0  0
  162.4920  210.8580  155.0100 O   0  0  0  0  0  1  0  0  0  0  0  0
  160.7640  204.9930  152.4640 C   0  0  0  0  0  3  0  0  0  0  0  0
  160.9270  206.3760  152.5870 C   0  0  0  0  0  0  0  0  0  0  0  0
  161.3630  211.2820  154.3020 C   0  0  2  0  0  3  0  0  0  0  0  0
  162.2140  211.5920  149.4440 C   0  0  0  0  0  2  0  0  0  0  0  0
  160.8400  211.7600  147.3690 C   0  0  0  0  0  1  0  0  0  0  0  0
  161.5340  210.8130  148.3300 C   0  0  0  0  0  2  0  0  0  0  0  0
  1  4  1  0  0  0  0
  2 19  1  0  0  0  0
  3 10  1  0  0  0  0
  4 12  1  0  0  0  0
  4 20  2  0  0  0  0
  5 11  1  0  0  0  0
  5  1  1  0  0  0  0
  7  9  1  0  0  0  0
  7 15  1  1  0  0  0
  8  6  1  6  0  0  0
  8 12  1  0  0  0  0
  9 14  1  1  0  0  0
 10 21  1  1  0  0  0
 11 28  1  6  0  0  0
 11  8  1  0  0  0  0
 12 27  1  0  0  0  0
 13  2  2  0  0  0  0
 13 18  1  0  0  0  0
 14 23  1  0  0  0  0
 15 23  1  0  0  0  0
 16  2  1  0  0  0  0
 17 20  1  0  0  0  0
 17  3  1  0  0  0  0
 18 25  2  0  0  0  0
 19  1  2  0  0  0  0
 19 26  1  0  0  0  0
 22 20  1  6  0  0  0
 22  9  1  0  0  0  0
 22 10  1  0  0  0  0
 25 26  1  0  0  0  0
 26 17  2  0  0  0  0
 27 24  1  1  0  0  0
 27  7  1  0  0  0  0
 29 30  1  0  0  0  0
 30 28  1  0  0  0  0
M  END
>  <MODEL>
3

>  <REMARK>
 VINA RESULT:      -5.5      3.146      5.381
  Name = 
  2 active torsions:
  status: ('A' for Active; 'I' for Inactive)
    1  A    between atoms: C_11  and  C_28
    2  A    between atoms: C_28  and  C_30
                            x       y       z     vdW  Elec       q    Type
                         _______ _______ _______ _____ _____    ______ ____

>  <TORSDO>
F 2

$$$$
=
 OpenBabel11122412423D

 30 35  0  0  1  0  0  0  0  0999 V2000
  160.8190  209.6870  152.4270 C   0  0  0  0  0  0  0  0  0  0  0  0
  161.9700  209.5440  150.2180 C   0  0  0  0  0  0  0  0  0  0  0  0
  159.6490  213.6470  151.7000 N   0  0  0  0  0  2  0  0  0  0  0  0
  160.0800  210.4530  153.3600 C   0  0  0  0  0  0  0  0  0  0  0  0
  161.1620  208.3400  152.7760 N   0  0  0  0  0  2  0  0  0  0  0  0
  161.8220  209.0400  155.6650 C   0  0  0  0  0  1  0  0  0  0  0  0
  159.2100  211.8440  156.1010 C   0  0  1  0  0  3  0  0  0  0  0  0
  160.4510  208.6780  155.1050 C   0  0  2  0  0  3  0  0  0  0  0  0
  159.5380  212.9220  155.1390 N   0  0  2  0  0  0  0  0  0  0  0  0
  158.9550  214.0060  152.9330 C   0  0  1  0  0  3  0  0  0  0  0  0
  160.5530  207.6910  153.9350 C   0  0  2  0  0  3  0  0  0  0  0  0
  159.7720  209.8940  154.6560 N   0  0  0  0  0  0  0  0  0  0  0  0
  162.3310  210.1590  149.0150 C   0  0  0  0  0  3  0  0  0  0  0  0
  159.0240  214.1540  155.7510 C   0  0  0  0  0  2  0  0  0  0  0  0
  158.2300  212.3750  157.1170 C   0  0  0  0  0  2  0  0  0  0  0  0
  162.3770  208.2320  150.4300 O   0  0  0  0  0  1  0  0  0  0  0  0
  160.0810  212.3070  151.8250 C   0  0  0  0  0  0  0  0  0  0  0  0
  161.9520  211.4740  148.7460 C   0  0  0  0  0  3  0  0  0  0  0  0
  161.2140  210.2560  151.1820 C   0  0  0  0  0  0  0  0  0  0  0  0
  159.7050  211.7540  153.0140 C   0  0  0  0  0  0  0  0  0  0  0  0
  157.5430  214.4530  152.6080 C   0  0  0  0  0  1  0  0  0  0  0  0
  158.9100  212.7290  153.8190 C   0  0  1  0  0  3  0  0  0  0  0  0
  158.5250  213.8440  157.1450 C   0  0  0  0  0  2  0  0  0  0  0  0
  157.5190  210.5250  154.9220 O   0  0  0  0  0  1  0  0  0  0  0  0
  161.2060  212.1910  149.6780 C   0  0  0  0  0  3  0  0  0  0  0  0
  160.8330  211.5970  150.8880 C   0  0  0  0  0  0  0  0  0  0  0  0
  158.7700  210.4750  155.5450 C   0  0  2  0  0  3  0  0  0  0  0  0
  161.3090  206.4190  154.3080 C   0  0  0  0  0  2  0  0  0  0  0  0
  161.2060  204.7030  152.5000 C   0  0  0  0  0  1  0  0  0  0  0  0
  162.0230  205.8310  153.1020 C   0  0  0  0  0  2  0  0  0  0  0  0
  1  5  1  0  0  0  0
  1  4  1  0  0  0  0
  2 16  1  0  0  0  0
  2 19  1  0  0  0  0
  3 17  1  0  0  0  0
  3 10  1  0  0  0  0
  4 12  1  0  0  0  0
  5 11  1  0  0  0  0
  7 15  1  1  0  0  0
  8  6  1  6  0  0  0
  9 14  1  1  0  0  0
  9  7  1  0  0  0  0
 10 21  1  6  0  0  0
 10 22  1  0  0  0  0
 11 28  1  1  0  0  0
 11  8  1  0  0  0  0
 12  8  1  0  0  0  0
 12 27  1  0  0  0  0
 13  2  2  0  0  0  0
 14 23  1  0  0  0  0
 15 23  1  0  0  0  0
 17 20  1  0  0  0  0
 18 13  1  0  0  0  0
 18 25  2  0  0  0  0
 19  1  2  0  0  0  0
 20  4  2  0  0  0  0
 22 20  1  6  0  0  0
 22  9  1  0  0  0  0
 25 26  1  0  0  0  0
 26 19  1  0  0  0  0
 26 17  2  0  0  0  0
 27 24  1  6  0  0  0
 27  7  1  0  0  0  0
 29 30  1  0  0  0  0
 30 28  1  0  0  0  0
M  END
>  <MODEL>
4

>  <REMARK>
 VINA RESULT:      -5.4      4.040      8.061
  Name = 
  2 active torsions:
  status: ('A' for Active; 'I' for Inactive)
    1  A    between atoms: C_11  and  C_28
    2  A    between atoms: C_28  and  C_30
                            x       y       z     vdW  Elec       q    Type
                         _______ _______ _______ _____ _____    ______ ____

>  <TORSDO>
F 2

$$$$
=
 OpenBabel11122412423D

 30 35  0  0  1  0  0  0  0  0999 V2000
  161.3750  207.7880  150.7780 C   0  0  0  0  0  0  0  0  0  0  0  0
  161.3730  208.0080  153.2630 C   0  0  0  0  0  0  0  0  0  0  0  0
  160.9200  203.6280  151.0200 N   0  0  0  0  0  2  0  0  0  0  0  0
  161.3120  206.9560  149.6360 C   0  0  0  0  0  0  0  0  0  0  0  0
  161.5260  209.2000  150.5800 N   0  0  0  0  0  2  0  0  0  0  0  0
  163.5270  208.8730  148.3080 C   0  0  0  0  0  1  0  0  0  0  0  0
  162.0710  205.6200  146.8350 C   0  0  1  0  0  3  0  0  0  0  0  0
  162.0070  208.8930  148.1890 C   0  0  2  0  0  3  0  0  0  0  0  0
  162.1730  204.5670  147.8720 N   0  0  2  0  0  0  0  0  0  0  0  0
  160.9380  203.2230  149.6180 C   0  0  1  0  0  3  0  0  0  0  0  0
  161.3610  209.7900  149.2530 C   0  0  2  0  0  3  0  0  0  0  0  0
  161.4890  207.5310  148.3230 N   0  0  0  0  0  0  0  0  0  0  0  0
  161.2950  207.3950  154.5180 C   0  0  0  0  0  3  0  0  0  0  0  0
  162.2700  203.3030  147.1310 C   0  0  0  0  0  2  0  0  0  0  0  0
  161.7840  204.9700  145.5040 C   0  0  0  0  0  2  0  0  0  0  0  0
  161.5280  209.3880  153.2170 O   0  0  0  0  0  1  0  0  0  0  0  0
  161.0520  205.0340  151.0630 C   0  0  0  0  0  0  0  0  0  0  0  0
  161.1400  206.0140  154.6280 C   0  0  0  0  0  3  0  0  0  0  0  0
  161.2970  207.2250  152.0840 C   0  0  0  0  0  0  0  0  0  0  0  0
  161.1240  205.5820  149.8150 C   0  0  0  0  0  0  0  0  0  0  0  0
  159.6660  202.4630  149.2930 C   0  0  0  0  0  1  0  0  0  0  0  0
  161.0030  204.5230  148.7690 C   0  0  1  0  0  3  0  0  0  0  0  0
  162.3790  203.6040  145.6520 C   0  0  0  0  0  2  0  0  0  0  0  0
  159.7870  206.4590  147.1000 O   0  0  0  0  0  1  0  0  0  0  0  0
  161.0610  205.2250  153.4820 C   0  0  0  0  0  3  0  0  0  0  0  0
  161.1350  205.8160  152.2160 C   0  0  0  0  0  0  0  0  0  0  0  0
  161.1380  206.8190  147.0980 C   0  0  2  0  0  3  0  0  0  0  0  0
  161.8990  211.2170  149.2200 C   0  0  0  0  0  2  0  0  0  0  0  0
  162.6500  212.8360  147.4770 C   0  0  0  0  0  1  0  0  0  0  0  0
  161.5310  211.9130  147.9190 C   0  0  0  0  0  2  0  0  0  0  0  0
  1 19  1  0  0  0  0
  2 13  1  0  0  0  0
  3 17  1  0  0  0  0
  4 20  1  0  0  0  0
  4  1  2  0  0  0  0
  5  1  1  0  0  0  0
  7 15  1  6  0  0  0
  7 27  1  0  0  0  0
  7  9  1  0  0  0  0
  8  6  1  1  0  0  0
  8 12  1  0  0  0  0
  8 11  1  0  0  0  0
  9 14  1  6  0  0  0
  9 22  1  0  0  0  0
 10 21  1  6  0  0  0
 10  3  1  0  0  0  0
 11 28  1  1  0  0  0
 11  5  1  0  0  0  0
 12  4  1  0  0  0  0
 13 18  2  0  0  0  0
 15 23  1  0  0  0  0
 16  2  1  0  0  0  0
 17 26  1  0  0  0  0
 19 26  1  0  0  0  0
 19  2  2  0  0  0  0
 20 17  2  0  0  0  0
 22 10  1  0  0  0  0
 22 20  1  1  0  0  0
 23 14  1  0  0  0  0
 25 18  1  0  0  0  0
 26 25  2  0  0  0  0
 27 24  1  1  0  0  0
 27 12  1  0  0  0  0
 29 30  1  0  0  0  0
 30 28  1  0  0  0  0
M  END
>  <MODEL>
5

>  <REMARK>
 VINA RESULT:      -5.1      1.960      5.720
  Name = 
  2 active torsions:
  status: ('A' for Active; 'I' for Inactive)
    1  A    between atoms: C_11  and  C_28
    2  A    between atoms: C_28  and  C_30
                            x       y       z     vdW  Elec       q    Type
                         _______ _______ _______ _____ _____    ______ ____

>  <TORSDO>
F 2

$$$$
=
 OpenBabel11122412423D

 30 35  0  0  1  0  0  0  0  0999 V2000
  160.2910  210.9170  152.6150 C   0  0  0  0  0  0  0  0  0  0  0  0
  161.5730  211.2430  150.5000 C   0  0  0  0  0  0  0  0  0  0  0  0
  158.0190  214.3700  151.9170 N   0  0  0  0  0  2  0  0  0  0  0  0
  159.2940  211.3730  153.5090 C   0  0  0  0  0  0  0  0  0  0  0  0
  161.0050  209.7200  152.9500 N   0  0  0  0  0  2  0  0  0  0  0  0
  161.2300  210.4350  155.9010 C   0  0  0  0  0  1  0  0  0  0  0  0
  157.8640  212.2920  156.2140 C   0  0  1  0  0  3  0  0  0  0  0  0
  160.0740  209.7060  155.2240 C   0  0  2  0  0  3  0  0  0  0  0  0
  157.9090  213.4670  155.3130 N   0  0  2  0  0  0  0  0  0  0  0  0
  157.1690  214.4370  153.1020 C   0  0  1  0  0  3  0  0  0  0  0  0
  160.5490  208.8570  154.0380 C   0  0  2  0  0  3  0  0  0  0  0  0
  159.0870  210.6810  154.7600 N   0  0  0  0  0  0  0  0  0  0  0  0
  161.8070  212.0010  149.3470 C   0  0  0  0  0  3  0  0  0  0  0  0
  157.0050  214.4520  155.9200 C   0  0  0  0  0  2  0  0  0  0  0  0
  156.7050  212.4480  157.1660 C   0  0  0  0  0  2  0  0  0  0  0  0
  162.3460  210.1060  150.7040 O   0  0  0  0  0  1  0  0  0  0  0  0
  158.8300  213.2190  152.0350 C   0  0  0  0  0  0  0  0  0  0  0  0
  161.0630  213.1510  149.0880 C   0  0  0  0  0  3  0  0  0  0  0  0
  160.5740  211.6420  151.4220 C   0  0  0  0  0  0  0  0  0  0  0  0
  158.5640  212.5160  153.1740 C   0  0  0  0  0  0  0  0  0  0  0  0
  155.7120  214.4530  152.6810 C   0  0  0  0  0  1  0  0  0  0  0  0
  157.4570  213.1630  153.9430 C   0  0  1  0  0  3  0  0  0  0  0  0
  156.5340  213.9340  157.2600 C   0  0  0  0  0  2  0  0  0  0  0  0
  156.7370  210.5860  154.8680 O   0  0  0  0  0  1  0  0  0  0  0  0
  160.0750  213.5600  149.9810 C   0  0  0  0  0  3  0  0  0  0  0  0
  159.8220  212.8180  151.1390 C   0  0  0  0  0  0  0  0  0  0  0  0
  157.9000  210.8850  155.5850 C   0  0  2  0  0  3  0  0  0  0  0  0
  161.6310  207.8560  154.4310 C   0  0  0  0  0  2  0  0  0  0  0  0
  161.5360  206.4130  152.3970 C   0  0  0  0  0  1  0  0  0  0  0  0
  161.3150  206.4680  153.8970 C   0  0  0  0  0  2  0  0  0  0  0  0
  1  5  1  0  0  0  0
  1  4  1  0  0  0  0
  2 16  1  0  0  0  0
  2 19  1  0  0  0  0
  3 17  1  0  0  0  0
  3 10  1  0  0  0  0
  4 12  1  0  0  0  0
  5 11  1  0  0  0  0
  7 15  1  6  0  0  0
  8  6  1  6  0  0  0
  9 14  1  1  0  0  0
  9  7  1  0  0  0  0
 10 21  1  6  0  0  0
 10 22  1  0  0  0  0
 11 28  1  1  0  0  0
 11  8  1  0  0  0  0
 12  8  1  0  0  0  0
 12 27  1  0  0  0  0
 13  2  2  0  0  0  0
 14 23  1  0  0  0  0
 15 23  1  0  0  0  0
 17 20  1  0  0  0  0
 18 13  1  0  0  0  0
 18 25  2  0  0  0  0
 19  1  2  0  0  0  0
 20  4  2  0  0  0  0
 22 20  1  6  0  0  0
 22  9  1  0  0  0  0
 25 26  1  0  0  0  0
 26 19  1  0  0  0  0
 26 17  2  0  0  0  0
 27 24  1  6  0  0  0
 27  7  1  0  0  0  0
 29 30  1  0  0  0  0
 30 28  1  0  0  0  0
M  END
>  <MODEL>
6

>  <REMARK>
 VINA RESULT:      -5.1      4.933      9.055
  Name = 
  2 active torsions:
  status: ('A' for Active; 'I' for Inactive)
    1  A    between atoms: C_11  and  C_28
    2  A    between atoms: C_28  and  C_30
                            x       y       z     vdW  Elec       q    Type
                         _______ _______ _______ _____ _____    ______ ____

>  <TORSDO>
F 2

$$$$
=
 OpenBabel11122412423D

 30 35  0  0  1  0  0  0  0  0999 V2000
  161.0860  204.8450  149.6570 C   0  0  0  0  0  0  0  0  0  0  0  0
  161.2850  203.3030  151.6090 C   0  0  0  0  0  0  0  0  0  0  0  0
  160.9750  201.6290  146.9700 N   0  0  0  0  0  2  0  0  0  0  0  0
  160.9880  205.0180  148.2570 C   0  0  0  0  0  0  0  0  0  0  0  0
  161.1100  206.0150  150.4860 N   0  0  0  0  0  2  0  0  0  0  0  0
  162.9240  207.5640  148.5930 C   0  0  0  0  0  1  0  0  0  0  0  0
  161.5990  206.0590  145.2990 C   0  0  1  0  0  3  0  0  0  0  0  0
  161.4020  207.4840  148.5370 C   0  0  2  0  0  3  0  0  0  0  0  0
  161.8720  204.6040  145.3240 N   0  0  2  0  0  0  0  0  0  0  0  0
  160.9020  202.2980  145.6740 C   0  0  1  0  0  3  0  0  0  0  0  0
  160.7850  207.3280  149.9330 C   0  0  2  0  0  3  0  0  0  0  0  0
  161.0050  206.3510  147.7010 N   0  0  0  0  0  0  0  0  0  0  0  0
  161.3640  201.9940  152.0960 C   0  0  0  0  0  3  0  0  0  0  0  0
  162.0000  204.2120  143.9150 C   0  0  0  0  0  2  0  0  0  0  0  0
  161.2470  206.4680  143.8900 C   0  0  0  0  0  2  0  0  0  0  0  0
  161.3280  204.3470  152.5260 O   0  0  0  0  0  1  0  0  0  0  0  0
  161.0020  202.6290  147.9690 C   0  0  0  0  0  0  0  0  0  0  0  0
  161.3260  200.9060  151.2260 C   0  0  0  0  0  3  0  0  0  0  0  0
  161.1660  203.5370  150.2160 C   0  0  0  0  0  0  0  0  0  0  0  0
  160.9220  203.8850  147.4420 C   0  0  0  0  0  0  0  0  0  0  0  0
  159.6680  201.8260  144.9290 C   0  0  0  0  0  1  0  0  0  0  0  0
  160.7920  203.8230  145.9550 C   0  0  1  0  0  3  0  0  0  0  0  0
  161.9570  205.4520  143.0490 C   0  0  0  0  0  2  0  0  0  0  0  0
  159.2900  206.2180  146.0930 O   0  0  0  0  0  1  0  0  0  0  0  0
  161.2080  201.1130  149.8530 C   0  0  0  0  0  3  0  0  0  0  0  0
  161.1250  202.4120  149.3420 C   0  0  0  0  0  0  0  0  0  0  0  0
  160.6040  206.6350  146.3260 C   0  0  2  0  0  3  0  0  0  0  0  0
  161.2070  208.4410  150.8860 C   0  0  0  0  0  2  0  0  0  0  0  0
  160.8310  209.0010  153.2880 C   0  0  0  0  0  1  0  0  0  0  0  0
  161.2990  207.9340  152.3170 C   0  0  0  0  0  2  0  0  0  0  0  0
  1 19  1  0  0  0  0
  1  5  1  0  0  0  0
  2 13  1  0  0  0  0
  2 16  1  0  0  0  0
  3 17  1  0  0  0  0
  4  1  2  0  0  0  0
  7 15  1  6  0  0  0
  7  9  1  0  0  0  0
  7 27  1  0  0  0  0
  8  6  1  1  0  0  0
  8 11  1  0  0  0  0
  9 14  1  6  0  0  0
  9 22  1  0  0  0  0
 10 21  1  1  0  0  0
 10 22  1  0  0  0  0
 10  3  1  0  0  0  0
 11  5  1  0  0  0  0
 11 28  1  1  0  0  0
 12  4  1  0  0  0  0
 12  8  1  0  0  0  0
 17 26  1  0  0  0  0
 18 13  2  0  0  0  0
 19  2  2  0  0  0  0
 20 17  2  0  0  0  0
 20  4  1  0  0  0  0
 22 20  1  1  0  0  0
 23 15  1  0  0  0  0
 23 14  1  0  0  0  0
 25 18  1  0  0  0  0
 26 25  2  0  0  0  0
 26 19  1  0  0  0  0
 27 24  1  6  0  0  0
 27 12  1  0  0  0  0
 28 30  1  0  0  0  0
 30 29  1  0  0  0  0
M  END
>  <MODEL>
7

>  <REMARK>
 VINA RESULT:      -3.7      1.880      5.786
  Name = 
  2 active torsions:
  status: ('A' for Active; 'I' for Inactive)
    1  A    between atoms: C_11  and  C_28
    2  A    between atoms: C_28  and  C_30
                            x       y       z     vdW  Elec       q    Type
                         _______ _______ _______ _____ _____    ______ ____

>  <TORSDO>
F 2

$$$$
=
 OpenBabel11122412423D

 30 35  0  0  1  0  0  0  0  0999 V2000
  161.7700  207.6700  151.5760 C   0  0  0  0  0  0  0  0  0  0  0  0
  161.8990  210.0900  150.9810 C   0  0  0  0  0  0  0  0  0  0  0  0
  161.7520  206.5490  147.5370 N   0  0  0  0  0  2  0  0  0  0  0  0
  161.6900  206.3220  151.1540 C   0  0  0  0  0  0  0  0  0  0  0  0
  161.7750  207.9410  152.9840 N   0  0  0  0  0  2  0  0  0  0  0  0
  159.6580  205.8400  153.6010 C   0  0  0  0  0  1  0  0  0  0  0  0
  160.6690  203.3080  150.8730 C   0  0  1  0  0  3  0  0  0  0  0  0
  161.1650  205.6190  153.5120 C   0  0  2  0  0  3  0  0  0  0  0  0
  160.4880  203.9640  149.5570 N   0  0  2  0  0  0  0  0  0  0  0  0
  161.6310  205.0960  147.6090 C   0  0  1  0  0  3  0  0  0  0  0  0
  161.9520  206.8600  153.9520 C   0  0  2  0  0  3  0  0  0  0  0  0
  161.5270  205.2760  152.1370 N   0  0  0  0  0  0  0  0  0  0  0  0
  161.9570  211.0760  149.9920 C   0  0  0  0  0  3  0  0  0  0  0  0
  160.2170  202.8700  148.6150 C   0  0  0  0  0  2  0  0  0  0  0  0
  160.8250  201.8230  150.6630 C   0  0  0  0  0  2  0  0  0  0  0  0
  161.9020  210.4940  152.3110 O   0  0  0  0  0  1  0  0  0  0  0  0
  161.7850  207.0440  148.8600 C   0  0  0  0  0  0  0  0  0  0  0  0
  161.9560  210.7320  148.6410 C   0  0  0  0  0  3  0  0  0  0  0  0
  161.8360  208.7210  150.6170 C   0  0  0  0  0  0  0  0  0  0  0  0
  161.7260  206.0430  149.7860 C   0  0  0  0  0  0  0  0  0  0  0  0
  162.7920  204.4530  146.8770 C   0  0  0  0  0  1  0  0  0  0  0  0
  161.6810  204.7090  149.1140 C   0  0  1  0  0  3  0  0  0  0  0  0
  160.0820  201.5750  149.3850 C   0  0  0  0  0  2  0  0  0  0  0  0
  163.0430  203.6510  151.3580 O   0  0  0  0  0  1  0  0  0  0  0  0
  161.8970  209.3930  148.2610 C   0  0  0  0  0  3  0  0  0  0  0  0
  161.8390  208.3890  149.2320 C   0  0  0  0  0  0  0  0  0  0  0  0
  161.7430  203.8660  151.8280 C   0  0  2  0  0  3  0  0  0  0  0  0
  161.5810  207.3200  155.3580 C   0  0  0  0  0  2  0  0  0  0  0  0
  159.7520  208.9330  155.8840 C   0  0  0  0  0  1  0  0  0  0  0  0
  161.1700  208.7840  155.3670 C   0  0  0  0  0  2  0  0  0  0  0  0
  1  5  1  0  0  0  0
  2 16  1  0  0  0  0
  3 10  1  0  0  0  0
  3 17  1  0  0  0  0
  4  1  1  0  0  0  0
  4 12  1  0  0  0  0
  5 11  1  0  0  0  0
  7 15  1  6  0  0  0
  7 27  1  0  0  0  0
  8  6  1  6  0  0  0
  8 11  1  0  0  0  0
  9 14  1  6  0  0  0
  9  7  1  0  0  0  0
 10 21  1  6  0  0  0
 10 22  1  0  0  0  0
 11 28  1  1  0  0  0
 12  8  1  0  0  0  0
 13  2  2  0  0  0  0
 14 23  1  0  0  0  0
 17 26  2  0  0  0  0
 17 20  1  0  0  0  0
 18 13  1  0  0  0  0
 19  2  1  0  0  0  0
 19  1  2  0  0  0  0
 20  4  2  0  0  0  0
 22  9  1  0  0  0  0
 22 20  1  1  0  0  0
 23 15  1  0  0  0  0
 25 18  2  0  0  0  0
 25 26  1  0  0  0  0
 26 19  1  0  0  0  0
 27 24  1  6  0  0  0
 27 12  1  0  0  0  0
 28 30  1  0  0  0  0
 30 29  1  0  0  0  0
M  END
>  <MODEL>
8

>  <REMARK>
 VINA RESULT:      -3.7      1.843      7.245
  Name = 
  2 active torsions:
  status: ('A' for Active; 'I' for Inactive)
    1  A    between atoms: C_11  and  C_28
    2  A    between atoms: C_28  and  C_30
                            x       y       z     vdW  Elec       q    Type
                         _______ _______ _______ _____ _____    ______ ____

>  <TORSDO>
F 2

$$$$
=
 OpenBabel11122412423D

 30 35  0  0  1  0  0  0  0  0999 V2000
  161.3640  207.7210  150.6350 C   0  0  0  0  0  0  0  0  0  0  0  0
  161.7650  208.7820  148.4120 C   0  0  0  0  0  0  0  0  0  0  0  0
  161.3550  211.4490  152.5510 N   0  0  0  0  0  2  0  0  0  0  0  0
  161.1860  207.8660  152.0310 C   0  0  0  0  0  0  0  0  0  0  0  0
  161.3440  206.3990  150.0820 N   0  0  0  0  0  2  0  0  0  0  0  0
  162.9490  205.1970  152.3740 C   0  0  0  0  0  1  0  0  0  0  0  0
  161.5790  207.4650  155.1750 C   0  0  1  0  0  3  0  0  0  0  0  0
  161.4360  205.3780  152.3160 C   0  0  2  0  0  3  0  0  0  0  0  0
  161.9560  208.8610  154.8540 N   0  0  2  0  0  0  0  0  0  0  0  0
  161.1710  211.0870  153.9540 C   0  0  1  0  0  3  0  0  0  0  0  0
  160.8990  205.2610  150.8840 C   0  0  2  0  0  3  0  0  0  0  0  0
  161.0810  206.6890  152.8610 N   0  0  0  0  0  0  0  0  0  0  0  0
  161.9620  209.9440  147.6600 C   0  0  0  0  0  3  0  0  0  0  0  0
  162.0440  209.5450  156.1500 C   0  0  0  0  0  2  0  0  0  0  0  0
  161.1320  207.3980  156.6140 C   0  0  0  0  0  2  0  0  0  0  0  0
  161.7780  207.5610  147.7470 O   0  0  0  0  0  1  0  0  0  0  0  0
  161.3580  210.2550  151.7960 C   0  0  0  0  0  0  0  0  0  0  0  0
  161.9600  211.1970  148.2700 C   0  0  0  0  0  3  0  0  0  0  0  0
  161.5640  208.8670  149.8120 C   0  0  0  0  0  0  0  0  0  0  0  0
  161.1630  209.1520  152.5750 C   0  0  0  0  0  0  0  0  0  0  0  0
  159.9400  211.7840  154.5000 C   0  0  0  0  0  1  0  0  0  0  0  0
  160.9670  209.5470  154.0030 C   0  0  1  0  0  3  0  0  0  0  0  0
  161.8710  208.5300  157.2590 C   0  0  0  0  0  2  0  0  0  0  0  0
  159.3050  207.2740  154.2920 O   0  0  0  0  0  1  0  0  0  0  0  0
  161.7610  211.3050  149.6460 C   0  0  0  0  0  3  0  0  0  0  0  0
  161.5620  210.1560  150.4180 C   0  0  0  0  0  0  0  0  0  0  0  0
  160.5950  206.7380  154.2370 C   0  0  2  0  0  3  0  0  0  0  0  0
  161.2860  203.9420  150.2220 C   0  0  0  0  0  2  0  0  0  0  0  0
  161.1420  202.6540  148.0890 C   0  0  0  0  0  1  0  0  0  0  0  0
  161.1910  204.0390  148.7070 C   0  0  0  0  0  2  0  0  0  0  0  0
  1  4  1  0  0  0  0
  2 19  1  0  0  0  0
  3 10  1  0  0  0  0
  4 20  2  0  0  0  0
  4 12  1  0  0  0  0
  5  1  1  0  0  0  0
  5 11  1  0  0  0  0
  7 15  1  1  0  0  0
  8  6  1  6  0  0  0
  8 12  1  0  0  0  0
  9  7  1  0  0  0  0
  9 14  1  1  0  0  0
 10 22  1  0  0  0  0
 10 21  1  6  0  0  0
 11 28  1  6  0  0  0
 11  8  1  0  0  0  0
 12 27  1  0  0  0  0
 13 18  1  0  0  0  0
 13  2  2  0  0  0  0
 14 23  1  0  0  0  0
 15 23  1  0  0  0  0
 16  2  1  0  0  0  0
 17  3  1  0  0  0  0
 17 20  1  0  0  0  0
 18 25  2  0  0  0  0
 19 26  1  0  0  0  0
 19  1  2  0  0  0  0
 22 20  1  6  0  0  0
 22  9  1  0  0  0  0
 25 26  1  0  0  0  0
 26 17  2  0  0  0  0
 27 24  1  6  0  0  0
 27  7  1  0  0  0  0
 29 30  1  0  0  0  0
 30 28  1  0  0  0  0
M  END
>  <MODEL>
9

>  <REMARK>
 VINA RESULT:      -3.7      2.438      5.899
  Name = 
  2 active torsions:
  status: ('A' for Active; 'I' for Inactive)
    1  A    between atoms: C_11  and  C_28
    2  A    between atoms: C_28  and  C_30
                            x       y       z     vdW  Elec       q    Type
                         _______ _______ _______ _____ _____    ______ ____

>  <TORSDO>
F 2

$$$$
