=
 OpenBabel11122414093D

 28 32  0  0  1  0  0  0  0  0999 V2000
  160.4270  209.7830  156.2290 C   0  0  0  0  0  0  0  0  0  0  0  0
  155.6820  210.7990  154.5370 F   0  0  0  0  0  0  0  0  0  0  0  0
  161.5960  211.3170  152.1000 O   0  0  0  0  0  0  0  0  0  0  0  0
  161.4400  212.2260  157.0290 N   0  0  0  0  0  0  0  0  0  0  0  0
  159.5860  212.5870  152.5260 C   0  0  2  0  0  3  0  0  0  0  0  0
  159.9380  208.5350  155.7340 N   0  0  0  0  0  2  0  0  0  0  0  0
  155.6990  211.2720  156.8390 C   0  0  0  0  0  1  0  0  0  0  0  0
  156.0200  211.7920  155.4500 C   0  0  1  0  0  0  0  0  0  0  0  0
  155.4940  213.3880  153.9220 C   0  0  1  0  0  3  0  0  0  0  0  0
  157.5350  212.1330  155.3950 C   0  0  2  0  0  3  0  0  0  0  0  0
  162.2940  209.1120  153.8350 O   0  0  0  0  0  1  0  0  0  0  0  0
  158.5110  210.7160  153.7190 C   0  0  1  0  0  3  0  0  0  0  0  0
  156.8960  213.9750  153.8620 C   0  0  0  0  0  2  0  0  0  0  0  0
  155.2360  212.9420  155.2270 O   0  0  0  0  0  0  0  0  0  0  0  0
  161.2160  208.2450  153.6420 C   0  0  2  0  0  3  0  0  0  0  0  0
  159.6870  210.9530  155.9970 C   0  0  0  0  0  0  0  0  0  0  0  0
  160.4400  211.3820  152.6000 C   0  0  0  0  0  0  0  0  0  0  0  0
  154.4870  214.4530  153.5420 C   0  0  0  0  0  1  0  0  0  0  0  0
  160.0800  208.9110  152.8520 C   0  0  0  0  0  2  0  0  0  0  0  0
  160.2330  212.1800  156.4070 C   0  0  0  0  0  3  0  0  0  0  0  0
  161.6750  209.8580  156.8550 C   0  0  0  0  0  3  0  0  0  0  0  0
  162.1650  211.0990  157.2600 C   0  0  0  0  0  3  0  0  0  0  0  0
  160.7690  207.6200  154.9680 C   0  0  0  0  0  2  0  0  0  0  0  0
  158.2690  212.1230  153.1490 C   0  0  1  0  0  3  0  0  0  0  0  0
  159.8310  210.2920  153.2700 N   0  0  0  0  0  0  0  0  0  0  0  0
  157.9160  212.9980  154.2650 N   0  0  2  0  0  0  0  0  0  0  0  0
  159.3450  212.9720  151.0790 C   0  0  0  0  0  1  0  0  0  0  0  0
  158.3730  210.8700  155.2420 C   0  0  1  0  0  3  0  0  0  0  0  0
  1 21  1  0  0  0  0
  2  8  1  0  0  0  0
  3 17  2  0  0  0  0
  4 22  1  0  0  0  0
  5 27  1  6  0  0  0
  5 17  1  0  0  0  0
  5 24  1  0  0  0  0
  6  1  1  0  0  0  0
  8  7  1  1  0  0  0
  9 18  1  1  0  0  0
  9 14  1  0  0  0  0
 10  8  1  0  0  0  0
 12 28  1  0  0  0  0
 13  9  1  0  0  0  0
 13 26  1  0  0  0  0
 14  8  1  0  0  0  0
 15 11  1  0  0  0  0
 15 23  1  0  0  0  0
 16  1  2  0  0  0  0
 16 20  1  0  0  0  0
 17 25  1  0  0  0  0
 19 25  1  0  0  0  0
 19 15  1  0  0  0  0
 20  4  2  0  0  0  0
 21 22  2  0  0  0  0
 23  6  1  0  0  0  0
 24 12  1  0  0  0  0
 24 26  1  0  0  0  0
 25 12  1  0  0  0  0
 26 10  1  0  0  0  0
 28 10  1  0  0  0  0
 28 16  1  0  0  0  0
M  END
>  <MODEL>
1

>  <REMARK>
 VINA RESULT:      -3.6      0.000      0.000
  Name = 
  0 active torsions:
  status: ('A' for Active; 'I' for Inactive)
                            x       y       z     vdW  Elec       q    Type
                         _______ _______ _______ _____ _____    ______ ____

>  <TORSDO>
F 0

$$$$
=
 OpenBabel11122414093D

 28 32  0  0  1  0  0  0  0  0999 V2000
  160.8690  208.9610  155.8770 C   0  0  0  0  0  0  0  0  0  0  0  0
  157.2670  211.2040  152.9800 F   0  0  0  0  0  0  0  0  0  0  0  0
  162.9160  208.3780  151.8480 O   0  0  0  0  0  0  0  0  0  0  0  0
  162.8320  210.8800  156.1930 N   0  0  0  0  0  0  0  0  0  0  0  0
  161.6920  210.4250  151.4660 C   0  0  2  0  0  3  0  0  0  0  0  0
  159.8990  207.9400  155.6420 N   0  0  0  0  0  2  0  0  0  0  0  0
  157.3290  212.3760  155.0150 C   0  0  0  0  0  1  0  0  0  0  0  0
  157.9550  212.2140  153.6430 C   0  0  1  0  0  0  0  0  0  0  0  0
  158.3390  213.2630  151.6650 C   0  0  1  0  0  3  0  0  0  0  0  0
  159.4570  211.8580  153.8310 C   0  0  2  0  0  3  0  0  0  0  0  0
  162.3880  206.8130  154.2210 O   0  0  0  0  0  1  0  0  0  0  0  0
  159.7910  209.6890  152.8530 C   0  0  1  0  0  3  0  0  0  0  0  0
  159.8540  213.1600  151.7580 C   0  0  0  0  0  2  0  0  0  0  0  0
  157.8090  213.4340  152.9530 O   0  0  0  0  0  0  0  0  0  0  0  0
  161.0510  206.4580  154.0370 C   0  0  2  0  0  3  0  0  0  0  0  0
  160.7710  210.1770  155.1840 C   0  0  0  0  0  0  0  0  0  0  0  0
  161.8870  209.0780  152.0460 C   0  0  0  0  0  0  0  0  0  0  0  0
  157.9670  214.4500  150.8020 C   0  0  0  0  0  1  0  0  0  0  0  0
  160.4110  207.2220  152.8680 C   0  0  0  0  0  2  0  0  0  0  0  0
  161.7890  211.1280  155.3570 C   0  0  0  0  0  3  0  0  0  0  0  0
  161.9610  208.7220  156.7180 C   0  0  0  0  0  3  0  0  0  0  0  0
  162.9360  209.7070  156.8710 C   0  0  0  0  0  3  0  0  0  0  0  0
  160.2690  206.5630  155.3510 C   0  0  0  0  0  2  0  0  0  0  0  0
  160.2670  210.7870  151.8880 C   0  0  1  0  0  3  0  0  0  0  0  0
  160.7970  208.6350  152.8340 N   0  0  0  0  0  0  0  0  0  0  0  0
  160.2760  212.0500  152.6210 N   0  0  2  0  0  0  0  0  0  0  0  0
  161.7640  210.3610  149.9530 C   0  0  0  0  0  1  0  0  0  0  0  0
  159.6270  210.3920  154.2100 C   0  0  1  0  0  3  0  0  0  0  0  0
  1 21  1  0  0  0  0
  2  8  1  0  0  0  0
  3 17  2  0  0  0  0
  4 22  1  0  0  0  0
  5 27  1  6  0  0  0
  5 24  1  0  0  0  0
  5 17  1  0  0  0  0
  6  1  1  0  0  0  0
  8 10  1  0  0  0  0
  8  7  1  1  0  0  0
  9 18  1  6  0  0  0
  9 13  1  0  0  0  0
  9 14  1  0  0  0  0
 10 28  1  0  0  0  0
 12 28  1  0  0  0  0
 13 26  1  0  0  0  0
 14  8  1  0  0  0  0
 15 11  1  0  0  0  0
 15 23  1  0  0  0  0
 16 20  1  0  0  0  0
 16  1  2  0  0  0  0
 17 25  1  0  0  0  0
 19 15  1  0  0  0  0
 20  4  2  0  0  0  0
 21 22  2  0  0  0  0
 23  6  1  0  0  0  0
 24 26  1  0  0  0  0
 24 12  1  0  0  0  0
 25 12  1  0  0  0  0
 25 19  1  0  0  0  0
 26 10  1  0  0  0  0
 28 16  1  0  0  0  0
M  END
>  <MODEL>
2

>  <REMARK>
 VINA RESULT:      -2.6      1.965      2.561
  Name = 
  0 active torsions:
  status: ('A' for Active; 'I' for Inactive)
                            x       y       z     vdW  Elec       q    Type
                         _______ _______ _______ _____ _____    ______ ____

>  <TORSDO>
F 0

$$$$
=
 OpenBabel11122414093D

 28 32  0  0  1  0  0  0  0  0999 V2000
  157.5450  211.5510  156.3820 C   0  0  0  0  0  0  0  0  0  0  0  0
  162.0160  209.4240  155.0050 F   0  0  0  0  0  0  0  0  0  0  0  0
  158.1450  213.9000  152.5230 O   0  0  0  0  0  0  0  0  0  0  0  0
  155.6360  210.2470  154.8690 N   0  0  0  0  0  0  0  0  0  0  0  0
  159.2520  211.8210  151.9890 C   0  0  2  0  0  3  0  0  0  0  0  0
  158.5380  212.2860  157.0990 N   0  0  0  0  0  2  0  0  0  0  0  0
  160.7560  207.7400  156.0540 C   0  0  0  0  0  1  0  0  0  0  0  0
  161.0170  208.4880  154.7600 C   0  0  1  0  0  0  0  0  0  0  0  0
  161.7470  208.2560  152.6210 C   0  0  1  0  0  3  0  0  0  0  0  0
  159.6910  209.1660  154.3130 C   0  0  2  0  0  3  0  0  0  0  0  0
  157.3420  214.4390  155.2490 O   0  0  0  0  0  1  0  0  0  0  0  0
  160.0890  211.5350  154.2910 C   0  0  1  0  0  3  0  0  0  0  0  0
  160.4490  208.7370  151.9900 C   0  0  0  0  0  2  0  0  0  0  0  0
  161.4540  207.5530  153.8000 O   0  0  0  0  0  0  0  0  0  0  0  0
  158.5710  214.4510  155.9110 C   0  0  2  0  0  3  0  0  0  0  0  0
  157.9440  210.6350  155.3970 C   0  0  0  0  0  0  0  0  0  0  0  0
  158.8440  212.9190  152.8930 C   0  0  0  0  0  0  0  0  0  0  0  0
  162.4690  207.3430  151.6530 C   0  0  0  0  0  1  0  0  0  0  0  0
  159.7100  213.9440  155.0140 C   0  0  0  0  0  2  0  0  0  0  0  0
  156.9510  209.9950  154.6380 C   0  0  0  0  0  3  0  0  0  0  0  0
  156.1860  211.8070  156.5890 C   0  0  0  0  0  3  0  0  0  0  0  0
  155.2370  211.1320  155.8210 C   0  0  0  0  0  3  0  0  0  0  0  0
  158.4750  213.7310  157.2600 C   0  0  0  0  0  2  0  0  0  0  0  0
  160.1720  210.9690  152.8640 C   0  0  1  0  0  3  0  0  0  0  0  0
  159.3290  212.7760  154.2170 N   0  0  0  0  0  0  0  0  0  0  0  0
  159.6810  209.5930  152.9030 N   0  0  2  0  0  0  0  0  0  0  0  0
  160.0440  212.3720  150.8190 C   0  0  0  0  0  1  0  0  0  0  0  0
  159.4230  210.4270  155.1240 C   0  0  1  0  0  3  0  0  0  0  0  0
  1 21  1  0  0  0  0
  1  6  1  0  0  0  0
  3 17  2  0  0  0  0
  4 22  1  0  0  0  0
  5 27  1  6  0  0  0
  5 24  1  0  0  0  0
  5 17  1  0  0  0  0
  6 23  1  0  0  0  0
  8  2  1  0  0  0  0
  8  7  1  1  0  0  0
  9 18  1  6  0  0  0
  9 14  1  0  0  0  0
 10  8  1  0  0  0  0
 10 28  1  0  0  0  0
 11 15  1  0  0  0  0
 12 28  1  0  0  0  0
 13  9  1  0  0  0  0
 13 26  1  0  0  0  0
 14  8  1  0  0  0  0
 15 23  1  0  0  0  0
 16  1  2  0  0  0  0
 17 25  1  0  0  0  0
 19 15  1  0  0  0  0
 20  4  2  0  0  0  0
 20 16  1  0  0  0  0
 22 21  2  0  0  0  0
 24 26  1  0  0  0  0
 24 12  1  0  0  0  0
 25 12  1  0  0  0  0
 25 19  1  0  0  0  0
 26 10  1  0  0  0  0
 28 16  1  0  0  0  0
M  END
>  <MODEL>
3

>  <REMARK>
 VINA RESULT:      -1.9      2.393      5.513
  Name = 
  0 active torsions:
  status: ('A' for Active; 'I' for Inactive)
                            x       y       z     vdW  Elec       q    Type
                         _______ _______ _______ _____ _____    ______ ____

>  <TORSDO>
F 0

$$$$
