=
 OpenBabel11122412543D

 32 38  0  0  1  0  0  0  0  0999 V2000
  161.4390  201.7550  150.0110 C   0  0  1  0  0  3  0  0  0  0  0  0
  161.0640  206.4180  152.4280 C   0  0  0  0  0  0  0  0  0  0  0  0
  162.2010  209.5530  148.8980 C   0  0  0  0  0  3  0  0  0  0  0  0
  162.0110  210.6900  149.8180 C   0  0  0  0  0  3  0  0  0  0  0  0
  160.8680  207.1410  154.7970 C   0  0  1  0  0  3  0  0  0  0  0  0
  161.5830  208.1600  155.6200 C   0  0  0  0  0  0  0  0  0  0  0  0
  160.6440  204.0070  151.8530 C   0  0  1  0  0  3  0  0  0  0  0  0
  161.0620  205.6180  150.0250 C   0  0  0  0  0  2  0  0  0  0  0  0
  162.4120  210.0330  156.2010 C   0  0  0  0  0  0  0  0  0  0  0  0
  161.3330  203.1860  149.4840 C   0  0  2  0  0  3  0  0  0  0  0  0
  161.8020  208.3220  149.2330 C   0  0  0  0  0  3  0  0  0  0  0  0
  161.2250  206.6940  151.0120 N   0  0  0  0  0  0  0  0  0  0  0  0
  161.0400  208.0640  150.5140 C   0  0  1  0  0  3  0  0  0  0  0  0
  161.2400  208.8400  152.8660 C   0  0  0  0  0  0  0  0  0  0  0  0
  162.5360  209.1540  157.2600 C   0  0  0  0  0  3  0  0  0  0  0  0
  161.6500  201.6670  151.5380 C   0  0  0  0  0  2  0  0  0  0  0  0
  161.4610  204.2620  150.5830 C   0  0  2  0  0  3  0  0  0  0  0  0
  162.0040  207.9650  156.8880 N   0  0  0  0  0  0  0  0  0  0  0  0
  160.7520  202.5750  152.3860 C   0  0  0  0  0  2  0  0  0  0  0  0
  160.0840  202.3190  149.5990 C   0  0  1  0  0  3  0  0  0  0  0  0
  161.6110  210.4930  151.0760 C   0  0  0  0  0  3  0  0  0  0  0  0
  161.3230  209.1230  151.5560 C   0  0  0  0  0  0  0  0  0  0  0  0
  161.4020  209.9420  153.8900 C   0  0  0  0  0  2  0  0  0  0  0  0
  161.0700  204.9920  152.9270 C   0  0  0  0  0  2  0  0  0  0  0  0
  159.3920  207.1390  155.1540 C   0  0  0  0  0  1  0  0  0  0  0  0
  162.8430  211.4570  156.1960 C   0  0  0  0  0  1  0  0  0  0  0  0
  161.0420  207.4300  153.3200 C   0  0  0  0  0  0  0  0  0  0  0  0
  161.8230  209.4010  155.1760 N   0  0  0  0  0  0  0  0  0  0  0  0
  159.7190  201.7910  148.2260 C   0  0  0  0  0  2  0  0  0  0  0  0
  160.9440  201.6590  147.3920 C   0  0  0  0  0  0  0  0  0  0  0  0
  161.3920  202.7570  146.6060 N   0  0  0  0  0  1  0  0  0  0  0  0
  161.5660  200.5650  147.3530 O   0  0  0  0  0  0  0  0  0  0  0  0
  1 16  1  1  0  0  0
  2 24  1  0  0  0  0
  2 27  2  0  0  0  0
  3 11  2  0  0  0  0
  3  4  1  0  0  0  0
  4 21  2  0  0  0  0
  5 25  1  1  0  0  0
  5  6  1  0  0  0  0
  6 18  2  0  0  0  0
  7 19  1  1  0  0  0
  7 24  1  0  0  0  0
  8 17  1  0  0  0  0
  8 12  1  0  0  0  0
  9 15  2  0  0  0  0
 10 20  1  0  0  0  0
 10  1  1  0  0  0  0
 10 17  1  0  0  0  0
 11 13  1  0  0  0  0
 12  2  1  0  0  0  0
 13 12  1  0  0  0  0
 13 22  1  0  0  0  0
 14 27  1  0  0  0  0
 14 23  1  0  0  0  0
 16 19  1  0  0  0  0
 17  7  1  0  0  0  0
 18 15  1  0  0  0  0
 20  1  1  0  0  0  0
 21 22  1  0  0  0  0
 22 14  2  0  0  0  0
 23 28  1  0  0  0  0
 26  9  1  0  0  0  0
 27  5  1  0  0  0  0
 28  6  1  0  0  0  0
 28  9  1  0  0  0  0
 29 20  1  0  0  0  0
 30 29  1  0  0  0  0
 31 30  1  0  0  0  0
 32 30  2  0  0  0  0
M  END
>  <MODEL>
1

>  <REMARK>
 VINA RESULT:      -8.3      0.000      0.000
  Name = 
  2 active torsions:
  status: ('A' for Active; 'I' for Inactive)
    1  A    between atoms: C_20  and  C_29
    2  A    between atoms: C_29  and  C_30
                            x       y       z     vdW  Elec       q    Type
                         _______ _______ _______ _____ _____    ______ ____

>  <TORSDO>
F 2

$$$$
=
 OpenBabel11122412543D

 32 38  0  0  1  0  0  0  0  0999 V2000
  159.8270  209.0680  156.0990 C   0  0  1  0  0  3  0  0  0  0  0  0
  161.2540  206.1360  151.9660 C   0  0  0  0  0  0  0  0  0  0  0  0
  161.9410  209.4490  148.4820 C   0  0  0  0  0  3  0  0  0  0  0  0
  162.3150  208.3930  147.5220 C   0  0  0  0  0  3  0  0  0  0  0  0
  161.2120  203.7040  151.4580 C   0  0  1  0  0  3  0  0  0  0  0  0
  160.7320  202.9080  150.2910 C   0  0  0  0  0  0  0  0  0  0  0  0
  160.9510  206.8870  154.3450 C   0  0  1  0  0  3  0  0  0  0  0  0
  161.4590  208.5760  152.6120 C   0  0  0  0  0  2  0  0  0  0  0  0
  160.4780  202.2780  148.2730 C   0  0  0  0  0  0  0  0  0  0  0  0
  160.5050  209.4130  154.7730 C   0  0  2  0  0  3  0  0  0  0  0  0
  161.8330  209.1850  149.7890 C   0  0  0  0  0  3  0  0  0  0  0  0
  161.4750  207.5210  151.5900 N   0  0  0  0  0  0  0  0  0  0  0  0
  162.1990  207.8300  150.3500 C   0  0  1  0  0  3  0  0  0  0  0  0
  161.8130  205.4760  149.6540 C   0  0  0  0  0  0  0  0  0  0  0  0
  159.8640  201.3550  149.0990 C   0  0  0  0  0  3  0  0  0  0  0  0
  159.3040  207.6180  156.1740 C   0  0  0  0  0  2  0  0  0  0  0  0
  160.5300  208.2420  153.7670 C   0  0  2  0  0  3  0  0  0  0  0  0
  160.0310  201.7580  150.3820 N   0  0  0  0  0  0  0  0  0  0  0  0
  160.2690  206.5380  155.6710 C   0  0  0  0  0  2  0  0  0  0  0  0
  161.3460  209.1830  156.0240 C   0  0  1  0  0  3  0  0  0  0  0  0
  162.3720  207.1140  147.9010 C   0  0  0  0  0  3  0  0  0  0  0  0
  162.0870  206.7420  149.3040 C   0  0  0  0  0  0  0  0  0  0  0  0
  161.8310  204.3810  148.6100 C   0  0  0  0  0  2  0  0  0  0  0  0
  160.6750  205.8010  153.3210 C   0  0  0  0  0  2  0  0  0  0  0  0
  162.5030  203.1050  151.9880 C   0  0  0  0  0  1  0  0  0  0  0  0
  160.5560  202.2020  146.7890 C   0  0  0  0  0  1  0  0  0  0  0  0
  161.4370  205.1490  151.0640 C   0  0  0  0  0  0  0  0  0  0  0  0
  161.0110  203.2500  149.0260 N   0  0  0  0  0  0  0  0  0  0  0  0
  161.7750  210.5230  156.5870 C   0  0  0  0  0  2  0  0  0  0  0  0
  163.1980  210.7860  156.2390 C   0  0  0  0  0  0  0  0  0  0  0  0
  164.1300  211.1210  157.2610 N   0  0  0  0  0  1  0  0  0  0  0  0
  163.5710  210.7460  155.0380 O   0  0  0  0  0  0  0  0  0  0  0  0
  1 16  1  6  0  0  0
  2 24  1  0  0  0  0
  3 11  2  0  0  0  0
  4 21  2  0  0  0  0
  4  3  1  0  0  0  0
  5 25  1  6  0  0  0
  6 18  2  0  0  0  0
  6  5  1  0  0  0  0
  7 24  1  6  0  0  0
  7 19  1  0  0  0  0
  8 17  1  0  0  0  0
  9 28  1  0  0  0  0
  9 15  2  0  0  0  0
 10 20  1  0  0  0  0
 10  1  1  0  0  0  0
 11 13  1  0  0  0  0
 12  2  1  0  0  0  0
 12  8  1  0  0  0  0
 13 12  1  0  0  0  0
 14 27  1  0  0  0  0
 15 18  1  0  0  0  0
 17  7  1  0  0  0  0
 17 10  1  0  0  0  0
 19 16  1  0  0  0  0
 20  1  1  0  0  0  0
 20 29  1  0  0  0  0
 21 22  1  0  0  0  0
 22 14  2  0  0  0  0
 22 13  1  0  0  0  0
 23 28  1  0  0  0  0
 23 14  1  0  0  0  0
 26  9  1  0  0  0  0
 27  5  1  0  0  0  0
 27  2  2  0  0  0  0
 28  6  1  0  0  0  0
 30 29  1  0  0  0  0
 30 31  1  0  0  0  0
 32 30  2  0  0  0  0
M  END
>  <MODEL>
2

>  <REMARK>
 VINA RESULT:      -7.5      2.747      7.765
  Name = 
  2 active torsions:
  status: ('A' for Active; 'I' for Inactive)
    1  A    between atoms: C_20  and  C_29
    2  A    between atoms: C_29  and  C_30
                            x       y       z     vdW  Elec       q    Type
                         _______ _______ _______ _____ _____    ______ ____

>  <TORSDO>
F 2

$$$$
=
 OpenBabel11122412543D

 32 38  0  0  1  0  0  0  0  0999 V2000
  158.9190  210.8580  156.3920 C   0  0  1  0  0  3  0  0  0  0  0  0
  161.1130  208.7610  152.0900 C   0  0  0  0  0  0  0  0  0  0  0  0
  161.2520  212.5170  149.0140 C   0  0  0  0  0  3  0  0  0  0  0  0
  161.8820  211.6740  147.9800 C   0  0  0  0  0  3  0  0  0  0  0  0
  161.6020  206.4440  151.3370 C   0  0  1  0  0  3  0  0  0  0  0  0
  161.3520  205.7050  150.0650 C   0  0  0  0  0  0  0  0  0  0  0  0
  160.5510  209.1620  154.5070 C   0  0  1  0  0  3  0  0  0  0  0  0
  160.7750  211.1040  152.9920 C   0  0  0  0  0  2  0  0  0  0  0  0
  161.3280  205.2690  147.9820 C   0  0  0  0  0  0  0  0  0  0  0  0
  159.5690  211.4800  155.1570 C   0  0  2  0  0  3  0  0  0  0  0  0
  161.1420  212.0910  150.2770 C   0  0  0  0  0  3  0  0  0  0  0  0
  161.0570  210.1960  151.8720 N   0  0  0  0  0  0  0  0  0  0  0  0
  161.7560  210.7830  150.7220 C   0  0  1  0  0  3  0  0  0  0  0  0
  161.9030  208.4940  149.7670 C   0  0  0  0  0  0  0  0  0  0  0  0
  160.8820  204.1540  148.6660 C   0  0  0  0  0  3  0  0  0  0  0  0
  158.7060  209.3330  156.2840 C   0  0  0  0  0  2  0  0  0  0  0  0
  159.8840  210.4600  154.0420 C   0  0  2  0  0  3  0  0  0  0  0  0
  160.9030  204.4350  149.9920 N   0  0  0  0  0  0  0  0  0  0  0  0
  159.8980  208.5340  155.7420 C   0  0  0  0  0  2  0  0  0  0  0  0
  160.3810  211.2850  156.4320 C   0  0  1  0  0  3  0  0  0  0  0  0
  162.1860  210.3990  148.2300 C   0  0  0  0  0  3  0  0  0  0  0  0
  161.9220  209.8210  149.5660 C   0  0  0  0  0  0  0  0  0  0  0  0
  162.1960  207.5500  148.6210 C   0  0  0  0  0  2  0  0  0  0  0  0
  160.5550  208.1660  153.3620 C   0  0  0  0  0  2  0  0  0  0  0  0
  162.9640  206.0630  151.8900 C   0  0  0  0  0  1  0  0  0  0  0  0
  161.4880  205.3790  146.5060 C   0  0  0  0  0  1  0  0  0  0  0  0
  161.5380  207.9410  151.1070 C   0  0  0  0  0  0  0  0  0  0  0  0
  161.6110  206.2380  148.8630 N   0  0  0  0  0  0  0  0  0  0  0  0
  160.4950  212.6120  157.1560 C   0  0  0  0  0  2  0  0  0  0  0  0
  159.4460  213.5480  156.6660 C   0  0  0  0  0  0  0  0  0  0  0  0
  158.1540  213.5420  157.2610 N   0  0  0  0  0  1  0  0  0  0  0  0
  159.6910  214.3210  155.7040 O   0  0  0  0  0  0  0  0  0  0  0  0
  1 16  1  6  0  0  0
  1 20  1  0  0  0  0
  2 24  1  0  0  0  0
  3 11  2  0  0  0  0
  4 21  2  0  0  0  0
  4  3  1  0  0  0  0
  5 25  1  6  0  0  0
  6  5  1  0  0  0  0
  7 24  1  6  0  0  0
  7 19  1  0  0  0  0
  8 17  1  0  0  0  0
  9 15  2  0  0  0  0
  9 28  1  0  0  0  0
 10  1  1  0  0  0  0
 10 20  1  0  0  0  0
 11 13  1  0  0  0  0
 12  2  1  0  0  0  0
 12  8  1  0  0  0  0
 13 12  1  0  0  0  0
 14 27  1  0  0  0  0
 15 18  1  0  0  0  0
 17  7  1  0  0  0  0
 17 10  1  0  0  0  0
 18  6  2  0  0  0  0
 19 16  1  0  0  0  0
 20 29  1  0  0  0  0
 21 22  1  0  0  0  0
 22 14  2  0  0  0  0
 22 13  1  0  0  0  0
 23 28  1  0  0  0  0
 23 14  1  0  0  0  0
 26  9  1  0  0  0  0
 27  5  1  0  0  0  0
 27  2  2  0  0  0  0
 28  6  1  0  0  0  0
 30 29  1  0  0  0  0
 30 31  1  0  0  0  0
 32 30  2  0  0  0  0
M  END
>  <MODEL>
3

>  <REMARK>
 VINA RESULT:      -6.8      3.696      8.282
  Name = 
  2 active torsions:
  status: ('A' for Active; 'I' for Inactive)
    1  A    between atoms: C_20  and  C_29
    2  A    between atoms: C_29  and  C_30
                            x       y       z     vdW  Elec       q    Type
                         _______ _______ _______ _____ _____    ______ ____

>  <TORSDO>
F 2

$$$$
=
 OpenBabel11122412543D

 32 38  0  0  1  0  0  0  0  0999 V2000
  160.4070  203.4560  149.7680 C   0  0  1  0  0  3  0  0  0  0  0  0
  160.9180  208.0760  152.2420 C   0  0  0  0  0  0  0  0  0  0  0  0
  159.8590  206.9530  156.8460 C   0  0  0  0  0  3  0  0  0  0  0  0
  160.0830  208.3510  157.2610 C   0  0  0  0  0  3  0  0  0  0  0  0
  161.1410  210.4360  151.4960 C   0  0  1  0  0  3  0  0  0  0  0  0
  160.4570  211.7030  151.8870 C   0  0  0  0  0  0  0  0  0  0  0  0
  161.2700  206.2330  150.5680 C   0  0  1  0  0  3  0  0  0  0  0  0
  160.8910  205.6410  152.9390 C   0  0  0  0  0  2  0  0  0  0  0  0
  159.6820  213.2550  153.1220 C   0  0  0  0  0  0  0  0  0  0  0  0
  160.5510  203.8270  151.2440 C   0  0  2  0  0  3  0  0  0  0  0  0
  160.2250  206.5280  155.6330 C   0  0  0  0  0  3  0  0  0  0  0  0
  160.7610  207.0660  153.2730 N   0  0  0  0  0  0  0  0  0  0  0  0
  160.9820  207.4250  154.6800 C   0  0  1  0  0  3  0  0  0  0  0  0
  160.8110  209.8080  153.9960 C   0  0  0  0  0  0  0  0  0  0  0  0
  159.5370  213.6350  151.8010 C   0  0  0  0  0  3  0  0  0  0  0  0
  160.1980  204.6700  148.8380 C   0  0  0  0  0  2  0  0  0  0  0  0
  160.4560  205.3440  151.5140 C   0  0  2  0  0  3  0  0  0  0  0  0
  160.0350  212.6470  151.0190 N   0  0  0  0  0  0  0  0  0  0  0  0
  161.1230  205.8670  149.0890 C   0  0  0  0  0  2  0  0  0  0  0  0
  161.7760  203.4100  150.4380 C   0  0  1  0  0  3  0  0  0  0  0  0
  160.4810  209.2710  156.3780 C   0  0  0  0  0  3  0  0  0  0  0  0
  160.7320  208.8890  154.9720 C   0  0  0  0  0  0  0  0  0  0  0  0
  160.6830  211.2780  154.3300 C   0  0  0  0  0  2  0  0  0  0  0  0
  160.8740  207.6830  150.7830 C   0  0  0  0  0  2  0  0  0  0  0  0
  162.6170  210.7030  151.2610 C   0  0  0  0  0  1  0  0  0  0  0  0
  159.2910  214.0630  154.3090 C   0  0  0  0  0  1  0  0  0  0  0  0
  160.9710  209.3830  152.5720 C   0  0  0  0  0  0  0  0  0  0  0  0
  160.2500  212.0410  153.1670 N   0  0  0  0  0  0  0  0  0  0  0  0
  162.1230  201.9720  150.7690 C   0  0  0  0  0  2  0  0  0  0  0  0
  161.2530  201.0490  149.9900 C   0  0  0  0  0  0  0  0  0  0  0  0
  161.5820  200.7290  148.6430 N   0  0  0  0  0  1  0  0  0  0  0  0
  160.2080  200.5780  150.5100 O   0  0  0  0  0  0  0  0  0  0  0  0
  1 16  1  6  0  0  0
  1 20  1  0  0  0  0
  1 10  1  0  0  0  0
  2 27  2  0  0  0  0
  2 12  1  0  0  0  0
  3  4  1  0  0  0  0
  5 25  1  1  0  0  0
  5  6  1  0  0  0  0
  5 27  1  0  0  0  0
  6 28  1  0  0  0  0
  7 19  1  6  0  0  0
  7 24  1  0  0  0  0
  7 17  1  0  0  0  0
  8 12  1  0  0  0  0
  9 28  1  0  0  0  0
  9 26  1  0  0  0  0
 10 17  1  0  0  0  0
 11  3  2  0  0  0  0
 12 13  1  0  0  0  0
 13 22  1  0  0  0  0
 13 11  1  0  0  0  0
 14 23  1  0  0  0  0
 14 22  2  0  0  0  0
 15  9  2  0  0  0  0
 16 19  1  0  0  0  0
 17  8  1  0  0  0  0
 18 15  1  0  0  0  0
 18  6  2  0  0  0  0
 20 29  1  0  0  0  0
 20 10  1  0  0  0  0
 21  4  2  0  0  0  0
 22 21  1  0  0  0  0
 24  2  1  0  0  0  0
 27 14  1  0  0  0  0
 28 23  1  0  0  0  0
 30 32  2  0  0  0  0
 30 29  1  0  0  0  0
 31 30  1  0  0  0  0
M  END
>  <MODEL>
4

>  <REMARK>
 VINA RESULT:      -5.8      2.205      4.538
  Name = 
  2 active torsions:
  status: ('A' for Active; 'I' for Inactive)
    1  A    between atoms: C_20  and  C_29
    2  A    between atoms: C_29  and  C_30
                            x       y       z     vdW  Elec       q    Type
                         _______ _______ _______ _____ _____    ______ ____

>  <TORSDO>
F 2

$$$$
=
 OpenBabel11122412543D

 32 38  0  0  1  0  0  0  0  0999 V2000
  161.0520  213.4850  146.7340 C   0  0  1  0  0  3  0  0  0  0  0  0
  161.5350  210.1520  150.7810 C   0  0  0  0  0  0  0  0  0  0  0  0
  161.0140  205.8120  148.6670 C   0  0  0  0  0  3  0  0  0  0  0  0
  161.1960  205.1340  149.9640 C   0  0  0  0  0  3  0  0  0  0  0  0
  161.5420  210.4040  153.2530 C   0  0  1  0  0  3  0  0  0  0  0  0
  160.8270  209.6980  154.3560 C   0  0  0  0  0  0  0  0  0  0  0  0
  161.8250  212.1990  149.3490 C   0  0  1  0  0  3  0  0  0  0  0  0
  161.7230  209.9810  148.2600 C   0  0  0  0  0  2  0  0  0  0  0  0
  160.0900  208.1030  155.5590 C   0  0  0  0  0  0  0  0  0  0  0  0
  161.3220  211.9820  146.8070 C   0  0  2  0  0  3  0  0  0  0  0  0
  161.2800  207.1140  148.5270 C   0  0  0  0  0  3  0  0  0  0  0  0
  161.5430  209.3460  149.5730 N   0  0  0  0  0  0  0  0  0  0  0  0
  161.8840  207.9190  149.6550 C   0  0  1  0  0  3  0  0  0  0  0  0
  161.5030  208.0710  152.1060 C   0  0  0  0  0  0  0  0  0  0  0  0
  159.7910  209.2980  156.1870 C   0  0  0  0  0  3  0  0  0  0  0  0
  160.6790  214.1190  148.0900 C   0  0  0  0  0  2  0  0  0  0  0  0
  161.1650  211.3940  148.2260 C   0  0  2  0  0  3  0  0  0  0  0  0
  160.2650  210.3090  155.4200 N   0  0  0  0  0  0  0  0  0  0  0  0
  161.5520  213.7040  149.2800 C   0  0  0  0  0  2  0  0  0  0  0  0
  162.4820  212.9610  146.6600 C   0  0  1  0  0  3  0  0  0  0  0  0
  161.4470  205.8350  151.0720 C   0  0  0  0  0  3  0  0  0  0  0  0
  161.5780  207.3070  151.0050 C   0  0  0  0  0  0  0  0  0  0  0  0
  161.3230  207.4270  153.4630 C   0  0  0  0  0  2  0  0  0  0  0  0
  161.3680  211.6510  150.6890 C   0  0  0  0  0  2  0  0  0  0  0  0
  162.9690  210.7030  153.6770 C   0  0  0  0  0  1  0  0  0  0  0  0
  159.7730  206.7440  156.0760 C   0  0  0  0  0  1  0  0  0  0  0  0
  161.5440  209.5610  151.9930 C   0  0  0  0  0  0  0  0  0  0  0  0
  160.7310  208.3630  154.4110 N   0  0  0  0  0  0  0  0  0  0  0  0
  162.9440  212.9700  145.2170 C   0  0  0  0  0  2  0  0  0  0  0  0
  161.7980  213.2790  144.3190 C   0  0  0  0  0  0  0  0  0  0  0  0
  161.2310  212.2560  143.5100 N   0  0  0  0  0  1  0  0  0  0  0  0
  161.3510  214.4530  144.2510 O   0  0  0  0  0  0  0  0  0  0  0  0
  1 10  1  0  0  0  0
  1 16  1  1  0  0  0
  2 27  2  0  0  0  0
  3  4  1  0  0  0  0
  4 21  2  0  0  0  0
  5 25  1  1  0  0  0
  5  6  1  0  0  0  0
  6 28  1  0  0  0  0
  6 18  2  0  0  0  0
  7 19  1  6  0  0  0
  7 24  1  0  0  0  0
  8 12  1  0  0  0  0
  9 26  1  0  0  0  0
  9 15  2  0  0  0  0
 10 17  1  0  0  0  0
 11  3  2  0  0  0  0
 11 13  1  0  0  0  0
 12 13  1  0  0  0  0
 12  2  1  0  0  0  0
 13 22  1  0  0  0  0
 14 23  1  0  0  0  0
 16 19  1  0  0  0  0
 17  8  1  0  0  0  0
 17  7  1  0  0  0  0
 18 15  1  0  0  0  0
 20  1  1  0  0  0  0
 20 10  1  0  0  0  0
 22 21  1  0  0  0  0
 22 14  2  0  0  0  0
 23 28  1  0  0  0  0
 24  2  1  0  0  0  0
 27 14  1  0  0  0  0
 27  5  1  0  0  0  0
 28  9  1  0  0  0  0
 29 20  1  0  0  0  0
 30 29  1  0  0  0  0
 31 30  1  0  0  0  0
 32 30  2  0  0  0  0
M  END
>  <MODEL>
5

>  <REMARK>
 VINA RESULT:      -5.7      3.817      7.253
  Name = 
  2 active torsions:
  status: ('A' for Active; 'I' for Inactive)
    1  A    between atoms: C_20  and  C_29
    2  A    between atoms: C_29  and  C_30
                            x       y       z     vdW  Elec       q    Type
                         _______ _______ _______ _____ _____    ______ ____

>  <TORSDO>
F 2

$$$$
=
 OpenBabel11122412543D

 32 38  0  0  1  0  0  0  0  0999 V2000
  159.3610  209.0890  156.4780 C   0  0  1  0  0  3  0  0  0  0  0  0
  161.2320  206.7590  152.1430 C   0  0  0  0  0  0  0  0  0  0  0  0
  161.8890  210.4960  149.1120 C   0  0  0  0  0  3  0  0  0  0  0  0
  162.3930  209.5870  148.0660 C   0  0  0  0  0  3  0  0  0  0  0  0
  161.3920  204.4060  151.3620 C   0  0  1  0  0  3  0  0  0  0  0  0
  161.0380  203.7250  150.0820 C   0  0  0  0  0  0  0  0  0  0  0  0
  160.7370  207.2050  154.5680 C   0  0  1  0  0  3  0  0  0  0  0  0
  161.2270  209.1150  153.0750 C   0  0  0  0  0  2  0  0  0  0  0  0
  160.9490  203.3220  147.9930 C   0  0  0  0  0  0  0  0  0  0  0  0
  160.0900  209.6300  155.2480 C   0  0  2  0  0  3  0  0  0  0  0  0
  161.7230  210.0750  150.3700 C   0  0  0  0  0  3  0  0  0  0  0  0
  161.3770  208.1900  151.9430 N   0  0  0  0  0  0  0  0  0  0  0  0
  162.1500  208.6880  150.7970 C   0  0  1  0  0  3  0  0  0  0  0  0
  161.9720  206.4130  149.8150 C   0  0  0  0  0  0  0  0  0  0  0  0
  160.3540  202.2720  148.6670 C   0  0  0  0  0  3  0  0  0  0  0  0
  158.9380  207.6100  156.3530 C   0  0  0  0  0  2  0  0  0  0  0  0
  160.2570  208.5890  154.1200 C   0  0  2  0  0  3  0  0  0  0  0  0
  160.4160  202.5310  149.9950 N   0  0  0  0  0  0  0  0  0  0  0  0
  160.0050  206.6590  155.7970 C   0  0  0  0  0  2  0  0  0  0  0  0
  160.8700  209.3070  156.5180 C   0  0  1  0  0  3  0  0  0  0  0  0
  162.5170  208.2780  148.3000 C   0  0  0  0  0  3  0  0  0  0  0  0
  162.1770  207.7270  149.6300 C   0  0  0  0  0  0  0  0  0  0  0  0
  162.1290  205.4520  148.6570 C   0  0  0  0  0  2  0  0  0  0  0  0
  160.6000  206.2320  153.4100 C   0  0  0  0  0  2  0  0  0  0  0  0
  162.6880  203.8320  151.9050 C   0  0  0  0  0  1  0  0  0  0  0  0
  161.1200  203.4260  146.5190 C   0  0  0  0  0  1  0  0  0  0  0  0
  161.5370  205.9000  151.1500 C   0  0  0  0  0  0  0  0  0  0  0  0
  161.3670  204.2310  148.8860 N   0  0  0  0  0  0  0  0  0  0  0  0
  161.1690  210.5960  157.2570 C   0  0  0  0  0  2  0  0  0  0  0  0
  160.6500  211.7570  156.4830 C   0  0  0  0  0  0  0  0  0  0  0  0
  159.7120  212.6470  157.0770 N   0  0  0  0  0  1  0  0  0  0  0  0
  161.0130  211.9320  155.2910 O   0  0  0  0  0  0  0  0  0  0  0  0
  1 16  1  6  0  0  0
  1 20  1  0  0  0  0
  2 24  1  0  0  0  0
  3 11  2  0  0  0  0
  4 21  2  0  0  0  0
  4  3  1  0  0  0  0
  5 25  1  6  0  0  0
  6  5  1  0  0  0  0
  7 24  1  6  0  0  0
  7 19  1  0  0  0  0
  8 17  1  0  0  0  0
  9 15  2  0  0  0  0
  9 28  1  0  0  0  0
 10  1  1  0  0  0  0
 10 20  1  0  0  0  0
 11 13  1  0  0  0  0
 12  2  1  0  0  0  0
 12  8  1  0  0  0  0
 13 12  1  0  0  0  0
 14 27  1  0  0  0  0
 15 18  1  0  0  0  0
 17  7  1  0  0  0  0
 17 10  1  0  0  0  0
 18  6  2  0  0  0  0
 19 16  1  0  0  0  0
 20 29  1  0  0  0  0
 21 22  1  0  0  0  0
 22 14  2  0  0  0  0
 22 13  1  0  0  0  0
 23 28  1  0  0  0  0
 23 14  1  0  0  0  0
 26  9  1  0  0  0  0
 27  5  1  0  0  0  0
 27  2  2  0  0  0  0
 28  6  1  0  0  0  0
 30 31  1  0  0  0  0
 30 29  1  0  0  0  0
 32 30  2  0  0  0  0
M  END
>  <MODEL>
6

>  <REMARK>
 VINA RESULT:      -5.6      2.999      7.800
  Name = 
  2 active torsions:
  status: ('A' for Active; 'I' for Inactive)
    1  A    between atoms: C_20  and  C_29
    2  A    between atoms: C_29  and  C_30
                            x       y       z     vdW  Elec       q    Type
                         _______ _______ _______ _____ _____    ______ ____

>  <TORSDO>
F 2

$$$$
