=
 OpenBabel11122413513D

 37 42  0  0  1  0  0  0  0  0999 V2000
  161.6980  205.1760  146.6570 C   0  0  0  0  0  0  0  0  0  0  0  0
  161.1220  206.5400  150.5790 C   0  0  0  0  0  0  0  0  0  0  0  0
  162.8740  209.9310  151.3620 C   0  0  0  0  0  2  0  0  0  0  0  0
  161.2800  204.6330  149.1150 C   0  0  0  0  0  0  0  0  0  0  0  0
  161.3450  208.0250  150.4950 C   0  0  1  0  0  3  0  0  0  0  0  0
  161.3190  205.9970  149.3490 C   0  0  0  0  0  0  0  0  0  0  0  0
  162.2830  208.5290  151.5990 C   0  0  2  0  0  3  0  0  0  0  0  0
  160.9940  203.8010  150.2040 C   0  0  0  0  0  3  0  0  0  0  0  0
  161.7050  206.9390  148.3830 N   0  0  0  0  0  0  0  0  0  0  0  0
  160.2780  205.4200  146.1760 C   0  0  0  0  0  1  0  0  0  0  0  0
  160.5990  206.2090  153.0540 C   0  0  0  0  0  2  0  0  0  0  0  0
  160.7690  204.3470  151.4400 N   0  0  0  0  0  0  0  0  0  0  0  0
  162.3200  206.5080  147.1320 C   0  0  0  0  0  2  0  0  0  0  0  0
  162.1220  211.5420  149.5440 C   0  0  1  0  0  3  0  0  0  0  0  0
  161.8170  210.9350  150.9130 C   0  0  0  0  0  2  0  0  0  0  0  0
  160.8380  205.6950  151.6670 C   0  0  0  0  0  0  0  0  0  0  0  0
  161.9810  208.1860  149.0880 C   0  0  1  0  0  3  0  0  0  0  0  0
  161.6930  204.1000  147.7680 C   0  0  0  0  0  2  0  0  0  0  0  0
  161.6660  208.3910  152.9220 N   0  0  0  0  0  0  0  0  0  0  0  0
  162.5110  204.6570  145.4900 C   0  0  0  0  0  1  0  0  0  0  0  0
  162.4050  210.5290  148.4250 C   0  0  0  0  0  2  0  0  0  0  0  0
  161.4040  209.3820  148.3500 C   0  0  0  0  0  2  0  0  0  0  0  0
  161.7500  207.0790  153.5460 C   0  0  0  0  0  2  0  0  0  0  0  0
  159.8080  209.9810  152.5710 C   0  0  0  0  0  3  0  0  0  0  0  0
  160.6910  209.3140  153.4350 C   0  0  0  0  0  0  0  0  0  0  0  0
  160.5700  209.5010  154.8180 C   0  0  0  0  0  3  0  0  0  0  0  0
  159.4890  210.5590  156.7360 N   0  0  0  0  0  1  0  0  0  0  0  0
  158.7350  211.0400  154.4630 C   0  0  0  0  0  3  0  0  0  0  0  0
  159.6000  210.3670  155.3310 C   0  0  0  0  0  0  0  0  0  0  0  0
  158.8380  210.8460  153.0840 C   0  0  0  0  0  3  0  0  0  0  0  0
  159.0490  214.2640  147.9830 O   0  0  0  0  0  0  0  0  0  0  0  0
  159.7240  213.5160  147.2260 C   0  0  0  0  0  0  0  0  0  0  0  0
  161.0460  212.4970  149.1440 C   0  0  0  0  0  0  0  0  0  0  0  0
  160.7250  212.6390  147.7560 N   0  0  0  0  0  2  0  0  0  0  0  0
  160.4300  213.1610  150.0220 O   0  0  0  0  0  0  0  0  0  0  0  0
  159.6040  212.2350  145.1970 N   0  0  0  0  0  1  0  0  0  0  0  0
  159.5050  213.5710  145.7570 C   0  0  0  0  0  2  0  0  0  0  0  0
  1 13  1  0  0  0  0
  1 18  1  0  0  0  0
  2 16  1  0  0  0  0
  4  6  1  0  0  0  0
  4  8  2  0  0  0  0
  5  2  1  1  0  0  0
  5  7  1  0  0  0  0
  6  2  2  0  0  0  0
  7  3  1  6  0  0  0
  7 19  1  0  0  0  0
  8 12  1  0  0  0  0
  9 17  1  0  0  0  0
  9  6  1  0  0  0  0
 10  1  1  0  0  0  0
 11 23  1  0  0  0  0
 12 16  2  0  0  0  0
 13  9  1  0  0  0  0
 14 33  1  6  0  0  0
 14 15  1  0  0  0  0
 15  3  1  0  0  0  0
 16 11  1  0  0  0  0
 17 22  1  6  0  0  0
 17  5  1  0  0  0  0
 18  4  1  0  0  0  0
 19 25  1  0  0  0  0
 19 23  1  0  0  0  0
 20  1  1  0  0  0  0
 21 14  1  0  0  0  0
 22 21  1  0  0  0  0
 24 30  2  0  0  0  0
 24 25  1  0  0  0  0
 25 26  2  0  0  0  0
 26 29  1  0  0  0  0
 28 29  2  0  0  0  0
 29 27  1  0  0  0  0
 30 28  1  0  0  0  0
 32 34  1  0  0  0  0
 32 31  2  0  0  0  0
 33 35  2  0  0  0  0
 34 33  1  0  0  0  0
 36 37  1  0  0  0  0
 37 32  1  0  0  0  0
M  END
>  <MODEL>
1

>  <REMARK>
 VINA RESULT:      -8.1      0.000      0.000
  Name = 
  3 active torsions:
  status: ('A' for Active; 'I' for Inactive)
    1  A    between atoms: C_4  and  C_37
    2  A    between atoms: C_8  and  C_18
    3  A    between atoms: N_23  and  C_30
                            x       y       z     vdW  Elec       q    Type
                         _______ _______ _______ _____ _____    ______ ____

>  <TORSDO>
F 3

$$$$
=
 OpenBabel11122413513D

 37 42  0  0  1  0  0  0  0  0999 V2000
  161.7060  205.2760  146.6750 C   0  0  0  0  0  0  0  0  0  0  0  0
  161.1210  206.6230  150.6020 C   0  0  0  0  0  0  0  0  0  0  0  0
  162.8840  210.0030  151.4080 C   0  0  0  0  0  2  0  0  0  0  0  0
  161.2760  204.7230  149.1290 C   0  0  0  0  0  0  0  0  0  0  0  0
  161.3510  208.1070  150.5270 C   0  0  1  0  0  3  0  0  0  0  0  0
  161.3210  206.0850  149.3700 C   0  0  0  0  0  0  0  0  0  0  0  0
  162.2870  208.6020  151.6370 C   0  0  2  0  0  3  0  0  0  0  0  0
  160.9830  203.8860  150.2130 C   0  0  0  0  0  3  0  0  0  0  0  0
  161.7140  207.0310  148.4100 N   0  0  0  0  0  0  0  0  0  0  0  0
  160.2890  205.5280  146.1910 C   0  0  0  0  0  1  0  0  0  0  0  0
  160.5880  206.2820  153.0730 C   0  0  0  0  0  2  0  0  0  0  0  0
  160.7560  204.4270  151.4510 N   0  0  0  0  0  0  0  0  0  0  0  0
  162.3320  206.6030  147.1590 C   0  0  0  0  0  2  0  0  0  0  0  0
  162.1460  211.6260  149.5960 C   0  0  1  0  0  3  0  0  0  0  0  0
  161.8340  211.0130  150.9610 C   0  0  0  0  0  2  0  0  0  0  0  0
  160.8300  205.7740  151.6850 C   0  0  0  0  0  0  0  0  0  0  0  0
  161.9930  208.2730  149.1230 C   0  0  1  0  0  3  0  0  0  0  0  0
  161.6920  204.1950  147.7810 C   0  0  0  0  0  2  0  0  0  0  0  0
  161.6650  208.4600  152.9560 N   0  0  0  0  0  0  0  0  0  0  0  0
  162.5210  204.7600  145.5090 C   0  0  0  0  0  1  0  0  0  0  0  0
  162.4290  210.6170  148.4720 C   0  0  0  0  0  2  0  0  0  0  0  0
  161.4240  209.4750  148.3890 C   0  0  0  0  0  2  0  0  0  0  0  0
  161.7410  207.1440  153.5740 C   0  0  0  0  0  2  0  0  0  0  0  0
  159.7820  210.0230  152.6120 C   0  0  0  0  0  3  0  0  0  0  0  0
  160.6920  209.3840  153.4700 C   0  0  0  0  0  0  0  0  0  0  0  0
  160.6000  209.6020  154.8510 C   0  0  0  0  0  3  0  0  0  0  0  0
  159.5510  210.6920  156.7680 N   0  0  0  0  0  1  0  0  0  0  0  0
  158.7410  211.1140  154.5040 C   0  0  0  0  0  3  0  0  0  0  0  0
  159.6320  210.4700  155.3660 C   0  0  0  0  0  0  0  0  0  0  0  0
  158.8150  210.8900  153.1270 C   0  0  0  0  0  3  0  0  0  0  0  0
  158.8510  214.4170  148.7970 O   0  0  0  0  0  0  0  0  0  0  0  0
  159.0630  213.9470  149.9470 C   0  0  0  0  0  0  0  0  0  0  0  0
  161.0750  212.5870  149.1960 C   0  0  0  0  0  0  0  0  0  0  0  0
  160.1410  213.0340  150.1840 N   0  0  0  0  0  2  0  0  0  0  0  0
  161.0050  212.9980  148.0050 O   0  0  0  0  0  0  0  0  0  0  0  0
  158.9260  214.4530  152.2910 N   0  0  0  0  0  1  0  0  0  0  0  0
  158.1580  214.3160  151.0670 C   0  0  0  0  0  2  0  0  0  0  0  0
  1 13  1  0  0  0  0
  1 18  1  0  0  0  0
  2 16  1  0  0  0  0
  4  6  1  0  0  0  0
  4  8  2  0  0  0  0
  5  2  1  1  0  0  0
  5  7  1  0  0  0  0
  6  2  2  0  0  0  0
  7  3  1  6  0  0  0
  7 19  1  0  0  0  0
  8 12  1  0  0  0  0
  9 17  1  0  0  0  0
  9  6  1  0  0  0  0
 10  1  1  0  0  0  0
 11 23  1  0  0  0  0
 12 16  2  0  0  0  0
 13  9  1  0  0  0  0
 14 33  1  6  0  0  0
 14 15  1  0  0  0  0
 15  3  1  0  0  0  0
 16 11  1  0  0  0  0
 17 22  1  6  0  0  0
 17  5  1  0  0  0  0
 18  4  1  0  0  0  0
 19 25  1  0  0  0  0
 19 23  1  0  0  0  0
 20  1  1  0  0  0  0
 21 14  1  0  0  0  0
 22 21  1  0  0  0  0
 24 30  2  0  0  0  0
 24 25  1  0  0  0  0
 25 26  2  0  0  0  0
 26 29  1  0  0  0  0
 28 29  2  0  0  0  0
 29 27  1  0  0  0  0
 30 28  1  0  0  0  0
 31 32  2  0  0  0  0
 32 34  1  0  0  0  0
 32 37  1  0  0  0  0
 33 34  1  0  0  0  0
 35 33  2  0  0  0  0
 37 36  1  0  0  0  0
M  END
>  <MODEL>
2

>  <REMARK>
 VINA RESULT:      -8.0      1.283      1.694
  Name = 
  3 active torsions:
  status: ('A' for Active; 'I' for Inactive)
    1  A    between atoms: C_4  and  C_37
    2  A    between atoms: C_8  and  C_18
    3  A    between atoms: N_23  and  C_30
                            x       y       z     vdW  Elec       q    Type
                         _______ _______ _______ _____ _____    ______ ____

>  <TORSDO>
F 3

$$$$
=
 OpenBabel11122413513D

 37 42  0  0  1  0  0  0  0  0999 V2000
  160.5560  210.1160  155.7120 C   0  0  0  0  0  0  0  0  0  0  0  0
  159.8840  212.2710  152.1800 C   0  0  0  0  0  0  0  0  0  0  0  0
  162.3550  211.4120  149.2930 C   0  0  0  0  0  2  0  0  0  0  0  0
  159.7130  212.2440  154.5830 C   0  0  0  0  0  0  0  0  0  0  0  0
  160.4970  211.4230  151.1010 C   0  0  1  0  0  3  0  0  0  0  0  0
  160.0800  211.6650  153.3810 C   0  0  0  0  0  0  0  0  0  0  0  0
  161.3930  212.2420  150.1630 C   0  0  2  0  0  3  0  0  0  0  0  0
  159.0890  213.4960  154.5310 C   0  0  0  0  0  3  0  0  0  0  0  0
  160.8140  210.4730  153.2840 N   0  0  0  0  0  0  0  0  0  0  0  0
  159.3190  209.2400  155.6210 C   0  0  0  0  0  1  0  0  0  0  0  0
  158.9950  214.2660  150.8610 C   0  0  0  0  0  2  0  0  0  0  0  0
  158.8670  214.0990  153.3220 N   0  0  0  0  0  0  0  0  0  0  0  0
  161.4430  209.8930  154.4670 C   0  0  0  0  0  2  0  0  0  0  0  0
  162.2790  208.8840  149.0370 C   0  0  1  0  0  3  0  0  0  0  0  0
  161.6610  210.2230  148.6370 C   0  0  0  0  0  2  0  0  0  0  0  0
  159.2580  213.5310  152.1390 C   0  0  0  0  0  0  0  0  0  0  0  0
  161.3200  210.3910  151.9190 C   0  0  1  0  0  3  0  0  0  0  0  0
  160.1330  211.5950  155.8760 C   0  0  0  0  0  2  0  0  0  0  0  0
  160.6050  213.2000  149.3820 N   0  0  0  0  0  0  0  0  0  0  0  0
  161.3400  209.7020  156.9390 C   0  0  0  0  0  1  0  0  0  0  0  0
  162.4210  208.6520  150.5490 C   0  0  0  0  0  2  0  0  0  0  0  0
  161.1710  208.9880  151.3540 C   0  0  0  0  0  2  0  0  0  0  0  0
  160.2650  214.4530  150.0380 C   0  0  0  0  0  2  0  0  0  0  0  0
  158.4580  212.6720  148.2790 C   0  0  0  0  0  3  0  0  0  0  0  0
  159.8510  212.8310  148.2150 C   0  0  0  0  0  0  0  0  0  0  0  0
  160.5010  212.6950  146.9810 C   0  0  0  0  0  3  0  0  0  0  0  0
  160.4400  212.2300  144.5840 N   0  0  0  0  0  1  0  0  0  0  0  0
  158.3880  212.2010  145.9070 C   0  0  0  0  0  3  0  0  0  0  0  0
  159.7730  212.3740  145.8320 C   0  0  0  0  0  0  0  0  0  0  0  0
  157.7310  212.3510  147.1300 C   0  0  0  0  0  3  0  0  0  0  0  0
  160.4080  205.5770  146.8340 O   0  0  0  0  0  0  0  0  0  0  0  0
  161.5060  206.0800  146.4760 C   0  0  0  0  0  0  0  0  0  0  0  0
  161.5480  207.7550  148.3880 C   0  0  0  0  0  0  0  0  0  0  0  0
  162.0970  207.1610  147.2070 N   0  0  0  0  0  2  0  0  0  0  0  0
  160.4660  207.3340  148.8820 O   0  0  0  0  0  0  0  0  0  0  0  0
  161.2100  205.4050  144.1900 N   0  0  0  0  0  1  0  0  0  0  0  0
  162.1820  205.5690  145.2550 C   0  0  0  0  0  2  0  0  0  0  0  0
  1 18  1  0  0  0  0
  1 20  1  0  0  0  0
  2  6  1  0  0  0  0
  4 18  1  0  0  0  0
  5 17  1  0  0  0  0
  5  2  1  1  0  0  0
  6  4  2  0  0  0  0
  7  3  1  6  0  0  0
  7  5  1  0  0  0  0
  8  4  1  0  0  0  0
  9  6  1  0  0  0  0
  9 13  1  0  0  0  0
 10  1  1  0  0  0  0
 11 16  1  0  0  0  0
 12  8  2  0  0  0  0
 13  1  1  0  0  0  0
 14 33  1  1  0  0  0
 14 21  1  0  0  0  0
 15 14  1  0  0  0  0
 15  3  1  0  0  0  0
 16  2  2  0  0  0  0
 16 12  1  0  0  0  0
 17 22  1  6  0  0  0
 17  9  1  0  0  0  0
 19 23  1  0  0  0  0
 19  7  1  0  0  0  0
 21 22  1  0  0  0  0
 23 11  1  0  0  0  0
 25 24  1  0  0  0  0
 25 19  1  0  0  0  0
 26 25  2  0  0  0  0
 27 29  1  0  0  0  0
 28 30  1  0  0  0  0
 29 28  2  0  0  0  0
 29 26  1  0  0  0  0
 30 24  2  0  0  0  0
 32 31  2  0  0  0  0
 32 34  1  0  0  0  0
 33 35  2  0  0  0  0
 34 33  1  0  0  0  0
 36 37  1  0  0  0  0
 37 32  1  0  0  0  0
M  END
>  <MODEL>
3

>  <REMARK>
 VINA RESULT:      -5.8      2.564      7.648
  Name = 
  3 active torsions:
  status: ('A' for Active; 'I' for Inactive)
    1  A    between atoms: C_4  and  C_37
    2  A    between atoms: C_8  and  C_18
    3  A    between atoms: N_23  and  C_30
                            x       y       z     vdW  Elec       q    Type
                         _______ _______ _______ _____ _____    ______ ____

>  <TORSDO>
F 3

$$$$
=
 OpenBabel11122413513D

 37 42  0  0  1  0  0  0  0  0999 V2000
  161.4410  205.2640  145.7680 C   0  0  0  0  0  0  0  0  0  0  0  0
  161.2130  205.5110  149.9470 C   0  0  0  0  0  0  0  0  0  0  0  0
  163.2030  208.4900  151.4790 C   0  0  0  0  0  2  0  0  0  0  0  0
  161.1620  204.0780  148.0110 C   0  0  0  0  0  0  0  0  0  0  0  0
  161.5140  206.9520  150.2530 C   0  0  1  0  0  3  0  0  0  0  0  0
  161.2940  205.3220  148.6040 C   0  0  0  0  0  0  0  0  0  0  0  0
  162.5520  207.0990  151.3730 C   0  0  2  0  0  3  0  0  0  0  0  0
  160.9050  202.9880  148.8520 C   0  0  0  0  0  3  0  0  0  0  0  0
  161.6650  206.4800  147.9040 N   0  0  0  0  0  0  0  0  0  0  0  0
  160.0070  205.6810  145.4900 C   0  0  0  0  0  1  0  0  0  0  0  0
  160.8430  204.5280  152.2720 C   0  0  0  0  0  2  0  0  0  0  0  0
  160.7970  203.1790  150.2030 N   0  0  0  0  0  0  0  0  0  0  0  0
  162.1680  206.3900  146.5360 C   0  0  0  0  0  2  0  0  0  0  0  0
  162.4200  210.5660  150.2370 C   0  0  1  0  0  3  0  0  0  0  0  0
  162.1760  209.6150  151.4090 C   0  0  0  0  0  2  0  0  0  0  0  0
  160.9570  204.4090  150.7830 C   0  0  0  0  0  0  0  0  0  0  0  0
  162.0590  207.4730  148.8970 C   0  0  1  0  0  3  0  0  0  0  0  0
  161.4510  203.9240  146.5410 C   0  0  0  0  0  2  0  0  0  0  0  0
  162.0210  206.6220  152.6540 N   0  0  0  0  0  0  0  0  0  0  0  0
  162.1400  205.0590  144.4420 C   0  0  0  0  0  1  0  0  0  0  0  0
  162.5680  209.8920  148.8650 C   0  0  0  0  0  2  0  0  0  0  0  0
  161.5010  208.8460  148.5620 C   0  0  0  0  0  2  0  0  0  0  0  0
  162.0730  205.1870  152.8870 C   0  0  0  0  0  2  0  0  0  0  0  0
  160.4060  208.4720  152.9350 C   0  0  0  0  0  3  0  0  0  0  0  0
  161.1370  207.4020  153.4760 C   0  0  0  0  0  0  0  0  0  0  0  0
  160.9450  207.0500  154.8190 C   0  0  0  0  0  3  0  0  0  0  0  0
  159.8760  207.4200  156.9840 N   0  0  0  0  0  1  0  0  0  0  0  0
  159.3480  208.8520  155.0770 C   0  0  0  0  0  3  0  0  0  0  0  0
  160.0590  207.7770  155.6190 C   0  0  0  0  0  0  0  0  0  0  0  0
  159.5200  209.1980  153.7350 C   0  0  0  0  0  3  0  0  0  0  0  0
  159.4910  213.8040  149.7700 O   0  0  0  0  0  0  0  0  0  0  0  0
  160.2860  213.4860  148.8460 C   0  0  0  0  0  0  0  0  0  0  0  0
  161.3750  211.6320  150.2020 C   0  0  0  0  0  0  0  0  0  0  0  0
  161.2370  212.4290  149.0220 N   0  0  0  0  0  2  0  0  0  0  0  0
  160.6250  211.8160  151.2000 O   0  0  0  0  0  0  0  0  0  0  0  0
  161.5140  214.0440  146.8580 N   0  0  0  0  0  1  0  0  0  0  0  0
  160.2630  214.2430  147.5670 C   0  0  0  0  0  2  0  0  0  0  0  0
  1 13  1  0  0  0  0
  1 18  1  0  0  0  0
  2 16  1  0  0  0  0
  4  6  1  0  0  0  0
  4  8  2  0  0  0  0
  5  2  1  6  0  0  0
  5  7  1  0  0  0  0
  6  2  2  0  0  0  0
  7  3  1  1  0  0  0
  7 19  1  0  0  0  0
  8 12  1  0  0  0  0
  9  6  1  0  0  0  0
  9 17  1  0  0  0  0
 10  1  1  0  0  0  0
 11 23  1  0  0  0  0
 12 16  2  0  0  0  0
 13  9  1  0  0  0  0
 14 33  1  6  0  0  0
 14 15  1  0  0  0  0
 15  3  1  0  0  0  0
 16 11  1  0  0  0  0
 17 22  1  6  0  0  0
 17  5  1  0  0  0  0
 18  4  1  0  0  0  0
 19 23  1  0  0  0  0
 19 25  1  0  0  0  0
 20  1  1  0  0  0  0
 21 14  1  0  0  0  0
 22 21  1  0  0  0  0
 24 25  2  0  0  0  0
 24 30  1  0  0  0  0
 25 26  1  0  0  0  0
 26 29  2  0  0  0  0
 28 29  1  0  0  0  0
 29 27  1  0  0  0  0
 30 28  2  0  0  0  0
 32 34  1  0  0  0  0
 32 31  2  0  0  0  0
 33 35  2  0  0  0  0
 34 33  1  0  0  0  0
 36 37  1  0  0  0  0
 37 32  1  0  0  0  0
M  END
>  <MODEL>
4

>  <REMARK>
 VINA RESULT:      -5.6      1.396      1.689
  Name = 
  3 active torsions:
  status: ('A' for Active; 'I' for Inactive)
    1  A    between atoms: C_4  and  C_37
    2  A    between atoms: C_8  and  C_18
    3  A    between atoms: N_23  and  C_30
                            x       y       z     vdW  Elec       q    Type
                         _______ _______ _______ _____ _____    ______ ____

>  <TORSDO>
F 3

$$$$
