=
 OpenBabel11122413453D

 37 44  0  0  1  0  0  0  0  0999 V2000
  160.7060  207.0750  151.3560 C   0  0  0  0  0  2  0  0  0  0  0  0
  160.1830  207.9090  156.0790 C   0  0  0  0  0  0  0  0  0  0  0  0
  160.1860  211.1880  153.4200 C   0  0  0  0  0  0  0  0  0  0  0  0
  161.4490  205.9310  150.8290 N   0  0  0  0  0  0  0  0  0  0  0  0
  161.6460  210.8550  149.8730 C   0  0  0  0  0  2  0  0  0  0  0  0
  159.8940  210.4170  155.7210 C   0  0  0  0  0  0  0  0  0  0  0  0
  160.6900  210.6200  152.2480 C   0  0  0  0  0  0  0  0  0  0  0  0
  161.6330  207.1640  148.6830 C   0  0  1  0  0  3  0  0  0  0  0  0
  160.2940  210.1980  154.4290 C   0  0  0  0  0  0  0  0  0  0  0  0
  160.7910  211.3260  150.9730 N   0  0  0  0  0  0  0  0  0  0  0  0
  159.3950  211.6480  156.0370 N   0  0  0  0  0  2  0  0  0  0  0  0
  162.0910  205.9680  149.5160 C   0  0  0  0  0  2  0  0  0  0  0  0
  160.8030  209.0550  153.9210 C   0  0  0  0  0  0  0  0  0  0  0  0
  158.7810  207.4340  155.7370 C   0  0  0  0  0  1  0  0  0  0  0  0
  159.4200  213.5110  152.7290 C   0  0  0  0  0  2  0  0  0  0  0  0
  159.2630  212.6410  155.0940 C   0  0  0  0  0  3  0  0  0  0  0  0
  161.0630  207.8650  154.7980 C   0  0  0  0  0  2  0  0  0  0  0  0
  162.3630  208.4610  149.0350 C   0  0  1  0  0  3  0  0  0  0  0  0
  161.3580  209.4050  149.6520 C   0  0  1  0  0  3  0  0  0  0  0  0
  159.6660  212.4440  153.7520 C   0  0  0  0  0  0  0  0  0  0  0  0
  161.0760  209.2730  152.5720 C   0  0  0  0  0  0  0  0  0  0  0  0
  160.1010  209.3200  156.7330 C   0  0  0  0  0  2  0  0  0  0  0  0
  160.0130  212.5660  150.8090 C   0  0  1  0  0  3  0  0  0  0  0  0
  160.7690  206.9480  157.0910 C   0  0  0  0  0  1  0  0  0  0  0  0
  162.4410  208.8080  150.5230 C   0  0  1  0  0  3  0  0  0  0  0  0
  161.8250  206.8840  147.3310 O   0  0  0  0  0  1  0  0  0  0  0  0
  161.6820  208.1990  151.6940 C   0  0  2  0  0  3  0  0  0  0  0  0
  160.4210  213.5170  151.7520 O   0  0  0  0  0  0  0  0  0  0  0  0
  161.1870  204.6950  152.8390 N   0  0  0  0  0  2  0  0  0  0  0  0
  161.6790  204.7810  151.6460 C   0  0  0  0  0  3  0  0  0  0  0  0
  161.1450  213.8910  149.0110 C   0  0  0  0  0  3  0  0  0  0  0  0
  160.0400  213.1360  149.4200 C   0  0  0  0  0  0  0  0  0  0  0  0
  158.9590  212.9590  148.5440 C   0  0  0  0  0  3  0  0  0  0  0  0
  157.6420  213.2960  146.1750 Cl  0  0  0  0  0  0  0  0  0  0  0  0
  160.1020  214.2690  146.8580 C   0  0  0  0  0  3  0  0  0  0  0  0
  158.9930  213.5220  147.2650 C   0  0  0  0  0  0  0  0  0  0  0  0
  161.1780  214.4530  147.7310 C   0  0  0  0  0  3  0  0  0  0  0  0
  1 27  1  0  0  0  0
  2 22  1  0  0  0  0
  2 24  1  0  0  0  0
  3 20  1  0  0  0  0
  3  9  1  0  0  0  0
  4  1  1  0  0  0  0
  4 30  1  0  0  0  0
  5 10  1  0  0  0  0
  6 11  1  0  0  0  0
  6 22  1  0  0  0  0
  7 21  1  0  0  0  0
  7  3  2  0  0  0  0
  8 26  1  6  0  0  0
  8 18  1  0  0  0  0
  8 12  1  0  0  0  0
  9  6  2  0  0  0  0
 10  7  1  0  0  0  0
 12  4  1  0  0  0  0
 13  9  1  0  0  0  0
 13 17  1  0  0  0  0
 14  2  1  0  0  0  0
 15 20  1  0  0  0  0
 16 11  1  0  0  0  0
 17  2  1  0  0  0  0
 18 19  1  0  0  0  0
 18 25  1  0  0  0  0
 19  5  1  0  0  0  0
 19 25  1  0  0  0  0
 20 16  2  0  0  0  0
 21 13  2  0  0  0  0
 23 10  1  0  0  0  0
 23 28  1  0  0  0  0
 25 27  1  0  0  0  0
 27 21  1  0  0  0  0
 28 15  1  0  0  0  0
 30 29  2  0  0  0  0
 31 32  1  0  0  0  0
 32 23  1  0  0  0  0
 33 32  2  0  0  0  0
 34 36  1  0  0  0  0
 35 36  2  0  0  0  0
 35 37  1  0  0  0  0
 36 33  1  0  0  0  0
 37 31  2  0  0  0  0
M  END
>  <MODEL>
1

>  <REMARK>
 VINA RESULT:      -5.9      0.000      0.000
  Name = 
  1 active torsions:
  status: ('A' for Active; 'I' for Inactive)
    1  A    between atoms: C_23  and  C_30
                            x       y       z     vdW  Elec       q    Type
                         _______ _______ _______ _____ _____    ______ ____

>  <TORSDO>
F 1

$$$$
=
 OpenBabel11122413453D

 37 44  0  0  1  0  0  0  0  0999 V2000
  160.7980  208.0090  151.6170 C   0  0  0  0  0  2  0  0  0  0  0  0
  159.8820  210.4090  155.7010 C   0  0  0  0  0  0  0  0  0  0  0  0
  160.0300  212.5530  152.0680 C   0  0  0  0  0  0  0  0  0  0  0  0
  161.6030  206.7890  151.5760 N   0  0  0  0  0  0  0  0  0  0  0  0
  161.7750  211.0760  148.9710 C   0  0  0  0  0  2  0  0  0  0  0  0
  159.5720  212.6190  154.4680 C   0  0  0  0  0  0  0  0  0  0  0  0
  160.6380  211.6370  151.2060 C   0  0  0  0  0  0  0  0  0  0  0  0
  161.9320  207.2060  149.1510 C   0  0  1  0  0  3  0  0  0  0  0  0
  160.0780  211.9830  153.3650 C   0  0  0  0  0  0  0  0  0  0  0  0
  160.8250  211.8590  149.7750 N   0  0  0  0  0  0  0  0  0  0  0  0
  159.0240  213.8580  154.2980 N   0  0  0  0  0  2  0  0  0  0  0  0
  162.3470  206.3970  150.3790 C   0  0  0  0  0  2  0  0  0  0  0  0
  160.6490  210.7600  153.3260 C   0  0  0  0  0  0  0  0  0  0  0  0
  158.5220  209.7790  155.4530 C   0  0  0  0  0  1  0  0  0  0  0  0
  159.2750  214.4520  150.5570 C   0  0  0  0  0  2  0  0  0  0  0  0
  158.9470  214.4530  153.0600 C   0  0  0  0  0  3  0  0  0  0  0  0
  160.8630  209.9630  154.5790 C   0  0  0  0  0  2  0  0  0  0  0  0
  162.6060  208.5760  149.0750 C   0  0  1  0  0  3  0  0  0  0  0  0
  161.5360  209.6280  149.2530 C   0  0  1  0  0  3  0  0  0  0  0  0
  159.4600  213.8210  151.9030 C   0  0  0  0  0  0  0  0  0  0  0  0
  161.0240  210.5080  152.0070 C   0  0  0  0  0  0  0  0  0  0  0  0
  159.7200  211.9530  155.8120 C   0  0  0  0  0  2  0  0  0  0  0  0
  160.0380  212.9270  149.1350 C   0  0  1  0  0  3  0  0  0  0  0  0
  160.4050  209.8880  157.0230 C   0  0  0  0  0  1  0  0  0  0  0  0
  162.5580  209.4230  150.3480 C   0  0  1  0  0  3  0  0  0  0  0  0
  162.2370  206.4820  148.0000 O   0  0  0  0  0  1  0  0  0  0  0  0
  161.7200  209.2240  151.6040 C   0  0  2  0  0  3  0  0  0  0  0  0
  160.3510  214.1650  149.7100 O   0  0  0  0  0  0  0  0  0  0  0  0
  161.2070  206.3190  153.8690 N   0  0  0  0  0  2  0  0  0  0  0  0
  161.7910  206.0070  152.7580 C   0  0  0  0  0  3  0  0  0  0  0  0
  159.0770  212.5990  146.8450 C   0  0  0  0  0  3  0  0  0  0  0  0
  160.1650  212.9790  147.6380 C   0  0  0  0  0  0  0  0  0  0  0  0
  161.3680  213.3610  147.0280 C   0  0  0  0  0  3  0  0  0  0  0  0
  162.9770  213.8550  144.8770 Cl  0  0  0  0  0  0  0  0  0  0  0  0
  160.3820  213.0020  144.8460 C   0  0  0  0  0  3  0  0  0  0  0  0
  161.4740  213.3750  145.6340 C   0  0  0  0  0  0  0  0  0  0  0  0
  159.1840  212.6130  145.4510 C   0  0  0  0  0  3  0  0  0  0  0  0
  2 22  1  0  0  0  0
  2 24  1  0  0  0  0
  3  9  1  0  0  0  0
  4  1  1  0  0  0  0
  4 30  1  0  0  0  0
  5 19  1  0  0  0  0
  5 10  1  0  0  0  0
  6 22  1  0  0  0  0
  7 21  1  0  0  0  0
  7  3  2  0  0  0  0
  8 26  1  6  0  0  0
  8 12  1  0  0  0  0
  9  6  2  0  0  0  0
 10  7  1  0  0  0  0
 11  6  1  0  0  0  0
 12  4  1  0  0  0  0
 13  9  1  0  0  0  0
 13 17  1  0  0  0  0
 14  2  1  0  0  0  0
 15 20  1  0  0  0  0
 16 11  1  0  0  0  0
 17  2  1  0  0  0  0
 18  8  1  0  0  0  0
 18 19  1  0  0  0  0
 18 25  1  0  0  0  0
 19 25  1  0  0  0  0
 20  3  1  0  0  0  0
 20 16  2  0  0  0  0
 21 13  2  0  0  0  0
 23 28  1  0  0  0  0
 23 10  1  0  0  0  0
 25 27  1  0  0  0  0
 27  1  1  0  0  0  0
 27 21  1  0  0  0  0
 28 15  1  0  0  0  0
 30 29  2  0  0  0  0
 31 32  1  0  0  0  0
 32 23  1  0  0  0  0
 33 32  2  0  0  0  0
 34 36  1  0  0  0  0
 35 37  1  0  0  0  0
 35 36  2  0  0  0  0
 36 33  1  0  0  0  0
 37 31  2  0  0  0  0
M  END
>  <MODEL>
2

>  <REMARK>
 VINA RESULT:      -5.4      1.627      2.231
  Name = 
  1 active torsions:
  status: ('A' for Active; 'I' for Inactive)
    1  A    between atoms: C_23  and  C_30
                            x       y       z     vdW  Elec       q    Type
                         _______ _______ _______ _____ _____    ______ ____

>  <TORSDO>
F 1

$$$$
