=
 OpenBabel11122413213D

 31 35  0  0  1  0  0  0  0  0999 V2000
  161.0690  207.7090  154.3740 C   0  0  0  0  0  0  0  0  0  0  0  0
  161.3770  207.3080  150.6420 C   0  0  0  0  0  0  0  0  0  0  0  0
  161.2390  205.9160  150.3540 C   0  0  0  0  0  0  0  0  0  0  0  0
  160.8990  203.5920  151.0340 C   0  0  0  0  0  0  0  0  0  0  0  0
  161.3200  207.8790  151.9490 C   0  0  0  0  0  0  0  0  0  0  0  0
  161.2210  209.0900  154.4990 C   0  0  0  0  0  3  0  0  0  0  0  0
  161.0290  204.9450  151.3520 C   0  0  0  0  0  3  0  0  0  0  0  0
  161.7280  209.5650  149.7540 C   0  0  0  0  0  0  0  0  0  0  0  0
  160.8730  206.9470  155.4760 F   0  0  0  0  0  0  0  0  0  0  0  0
  161.5210  206.3880  147.9890 C   0  0  0  0  0  3  0  0  0  0  0  0
  160.6930  202.6600  152.0410 O   0  0  0  0  0  1  0  0  0  0  0  0
  161.6690  210.0680  151.0120 N   0  0  0  0  0  0  0  0  0  0  0  0
  161.5860  208.1880  149.5420 C   0  0  0  0  0  0  0  0  0  0  0  0
  161.9400  210.4410  148.6430 N   0  0  0  0  0  2  0  0  0  0  0  0
  161.1180  207.1140  153.1120 C   0  0  0  0  0  3  0  0  0  0  0  0
  160.9780  203.1760  149.7050 C   0  0  0  0  0  3  0  0  0  0  0  0
  161.4720  209.2810  152.0970 C   0  0  0  0  0  0  0  0  0  0  0  0
  161.4230  209.8730  153.3630 C   0  0  0  0  0  3  0  0  0  0  0  0
  161.6500  207.7050  148.2720 N   0  0  0  0  0  0  0  0  0  0  0  0
  161.3150  205.4710  149.0100 C   0  0  0  0  0  0  0  0  0  0  0  0
  161.1850  204.1160  148.6940 C   0  0  0  0  0  3  0  0  0  0  0  0
  161.1030  212.3980  149.8450 C   0  0  0  0  0  1  0  0  0  0  0  0
  162.0650  211.8870  148.7850 C   0  0  2  0  0  3  0  0  0  0  0  0
  161.3430  213.8370  145.0190 C   0  0  0  0  0  0  0  0  0  0  0  0
  160.7780  212.1220  146.6290 C   0  0  0  0  0  3  0  0  0  0  0  0
  163.6140  214.0910  147.8730 F   0  0  0  0  0  0  0  0  0  0  0  0
  161.1180  214.4530  143.8340 F   0  0  0  0  0  0  0  0  0  0  0  0
  160.5460  212.7580  145.4080 C   0  0  0  0  0  3  0  0  0  0  0  0
  162.6090  213.6460  147.0770 C   0  0  0  0  0  0  0  0  0  0  0  0
  161.8110  212.5620  147.4720 C   0  0  0  0  0  0  0  0  0  0  0  0
  162.3730  214.2800  145.8530 C   0  0  0  0  0  3  0  0  0  0  0  0
  1  6  1  0  0  0  0
  1  9  1  0  0  0  0
  2  5  1  0  0  0  0
  3  2  1  0  0  0  0
  3  7  1  0  0  0  0
  4  7  2  0  0  0  0
  4 11  1  0  0  0  0
  5 17  2  0  0  0  0
  5 15  1  0  0  0  0
  8 12  2  0  0  0  0
 10 19  2  0  0  0  0
 10 20  1  0  0  0  0
 12 17  1  0  0  0  0
 13  8  1  0  0  0  0
 13  2  2  0  0  0  0
 14 23  1  0  0  0  0
 14  8  1  0  0  0  0
 15  1  2  0  0  0  0
 16  4  1  0  0  0  0
 17 18  1  0  0  0  0
 18  6  2  0  0  0  0
 19 13  1  0  0  0  0
 20  3  2  0  0  0  0
 21 20  1  0  0  0  0
 21 16  2  0  0  0  0
 23 22  1  1  0  0  0
 24 28  2  0  0  0  0
 24 31  1  0  0  0  0
 25 30  2  0  0  0  0
 27 24  1  0  0  0  0
 28 25  1  0  0  0  0
 29 30  1  0  0  0  0
 29 26  1  0  0  0  0
 30 23  1  0  0  0  0
 31 29  2  0  0  0  0
M  END
>  <MODEL>
1

>  <REMARK>
 VINA RESULT:     -10.5      0.000      0.000
  Name = 
  2 active torsions:
  status: ('A' for Active; 'I' for Inactive)
    1  A    between atoms: C_5  and  N_16
    2  A    between atoms: C_5  and  C_30
                            x       y       z     vdW  Elec       q    Type
                         _______ _______ _______ _____ _____    ______ ____

>  <TORSDO>
F 2

$$$$
=
 OpenBabel11122413213D

 31 35  0  0  1  0  0  0  0  0999 V2000
  161.0340  201.7080  150.4980 C   0  0  0  0  0  0  0  0  0  0  0  0
  161.2120  205.2260  149.1630 C   0  0  0  0  0  0  0  0  0  0  0  0
  161.1650  205.1390  147.7380 C   0  0  0  0  0  0  0  0  0  0  0  0
  161.0260  203.8690  145.6530 C   0  0  0  0  0  0  0  0  0  0  0  0
  161.1690  204.1060  150.0480 C   0  0  0  0  0  0  0  0  0  0  0  0
  161.0900  201.9490  151.8700 C   0  0  0  0  0  3  0  0  0  0  0  0
  161.0700  203.9160  147.0480 C   0  0  0  0  0  3  0  0  0  0  0  0
  161.3580  206.6800  151.1300 C   0  0  0  0  0  0  0  0  0  0  0  0
  160.9420  200.4390  150.0370 F   0  0  0  0  0  0  0  0  0  0  0  0
  161.3100  207.5590  147.5970 C   0  0  0  0  0  3  0  0  0  0  0  0
  160.9310  202.6470  145.0020 O   0  0  0  0  0  1  0  0  0  0  0  0
  161.3160  205.5910  151.9370 N   0  0  0  0  0  0  0  0  0  0  0  0
  161.3080  206.5250  149.7390 C   0  0  0  0  0  0  0  0  0  0  0  0
  161.4580  207.9890  151.6990 N   0  0  0  0  0  2  0  0  0  0  0  0
  161.0730  202.7770  149.6000 C   0  0  0  0  0  3  0  0  0  0  0  0
  161.0780  205.0510  144.9130 C   0  0  0  0  0  3  0  0  0  0  0  0
  161.2240  204.3310  151.4470 C   0  0  0  0  0  0  0  0  0  0  0  0
  161.1850  203.2580  152.3430 C   0  0  0  0  0  3  0  0  0  0  0  0
  161.3540  207.6300  148.9480 N   0  0  0  0  0  0  0  0  0  0  0  0
  161.2150  206.3270  146.9650 C   0  0  0  0  0  0  0  0  0  0  0  0
  161.1720  206.2780  145.5690 C   0  0  0  0  0  3  0  0  0  0  0  0
  160.6970  207.1490  153.8660 C   0  0  0  0  0  1  0  0  0  0  0  0
  161.4810  208.2290  153.1370 C   0  0  2  0  0  3  0  0  0  0  0  0
  159.8870  212.1200  154.0410 C   0  0  0  0  0  0  0  0  0  0  0  0
  160.0450  210.2180  152.5550 C   0  0  0  0  0  3  0  0  0  0  0  0
  162.1300  209.6400  155.5200 F   0  0  0  0  0  0  0  0  0  0  0  0
  159.3870  213.3460  154.3290 F   0  0  0  0  0  0  0  0  0  0  0  0
  159.5290  211.4810  152.8520 C   0  0  0  0  0  3  0  0  0  0  0  0
  161.2820  210.2310  154.6410 C   0  0  0  0  0  0  0  0  0  0  0  0
  160.9250  209.5850  153.4470 C   0  0  0  0  0  0  0  0  0  0  0  0
  160.7620  211.4960  154.9340 C   0  0  0  0  0  3  0  0  0  0  0  0
  1  6  1  0  0  0  0
  2 13  1  0  0  0  0
  2  5  1  0  0  0  0
  3  2  2  0  0  0  0
  4  7  2  0  0  0  0
  5 17  2  0  0  0  0
  6 18  2  0  0  0  0
  7  3  1  0  0  0  0
  8 14  1  0  0  0  0
  8 12  2  0  0  0  0
  9  1  1  0  0  0  0
 10 19  1  0  0  0  0
 11  4  1  0  0  0  0
 13  8  1  0  0  0  0
 14 23  1  0  0  0  0
 15  5  1  0  0  0  0
 15  1  2  0  0  0  0
 16 21  2  0  0  0  0
 16  4  1  0  0  0  0
 17 12  1  0  0  0  0
 17 18  1  0  0  0  0
 19 13  2  0  0  0  0
 20 10  2  0  0  0  0
 20  3  1  0  0  0  0
 21 20  1  0  0  0  0
 23 30  1  0  0  0  0
 23 22  1  1  0  0  0
 24 27  1  0  0  0  0
 24 31  1  0  0  0  0
 25 28  1  0  0  0  0
 25 30  2  0  0  0  0
 28 24  2  0  0  0  0
 29 31  2  0  0  0  0
 29 26  1  0  0  0  0
 30 29  1  0  0  0  0
M  END
>  <MODEL>
2

>  <REMARK>
 VINA RESULT:     -10.3      4.088      6.154
  Name = 
  2 active torsions:
  status: ('A' for Active; 'I' for Inactive)
    1  A    between atoms: C_5  and  N_16
    2  A    between atoms: C_5  and  C_30
                            x       y       z     vdW  Elec       q    Type
                         _______ _______ _______ _____ _____    ______ ____

>  <TORSDO>
F 2

$$$$
=
 OpenBabel11122413213D

 31 35  0  0  1  0  0  0  0  0999 V2000
  161.2130  205.2600  145.6060 C   0  0  0  0  0  0  0  0  0  0  0  0
  161.1150  204.4880  149.2910 C   0  0  0  0  0  0  0  0  0  0  0  0
  161.1470  203.0650  149.4250 C   0  0  0  0  0  0  0  0  0  0  0  0
  161.2340  200.8080  148.4900 C   0  0  0  0  0  0  0  0  0  0  0  0
  161.1370  205.1890  148.0470 C   0  0  0  0  0  0  0  0  0  0  0  0
  161.1760  206.6540  145.6330 C   0  0  0  0  0  3  0  0  0  0  0  0
  161.2040  202.1940  148.3220 C   0  0  0  0  0  3  0  0  0  0  0  0
  161.0250  206.6570  150.4260 C   0  0  0  0  0  0  0  0  0  0  0  0
  161.2670  204.6070  144.4210 F   0  0  0  0  0  0  0  0  0  0  0  0
  161.0640  203.3020  151.8400 C   0  0  0  0  0  3  0  0  0  0  0  0
  161.2900  199.9750  147.3820 O   0  0  0  0  0  1  0  0  0  0  0  0
  161.0460  207.2860  149.2240 N   0  0  0  0  0  0  0  0  0  0  0  0
  161.0580  205.2580  150.4870 C   0  0  0  0  0  0  0  0  0  0  0  0
  160.9650  207.4230  151.6330 N   0  0  0  0  0  2  0  0  0  0  0  0
  161.1940  204.5390  146.8010 C   0  0  0  0  0  3  0  0  0  0  0  0
  161.2060  200.2600  149.7730 C   0  0  0  0  0  3  0  0  0  0  0  0
  161.1010  206.6060  148.0540 C   0  0  0  0  0  0  0  0  0  0  0  0
  161.1190  207.3240  146.8540 C   0  0  0  0  0  3  0  0  0  0  0  0
  161.0350  204.6480  151.7020 N   0  0  0  0  0  0  0  0  0  0  0  0
  161.1210  202.4870  150.7190 C   0  0  0  0  0  0  0  0  0  0  0  0
  161.1500  201.0990  150.8860 C   0  0  0  0  0  3  0  0  0  0  0  0
  162.3310  209.4180  151.2670 C   0  0  0  0  0  1  0  0  0  0  0  0
  160.9600  208.8810  151.6470 C   0  0  2  0  0  3  0  0  0  0  0  0
  159.7880  210.3440  155.5190 C   0  0  0  0  0  0  0  0  0  0  0  0
  160.8300  208.6400  154.1540 C   0  0  0  0  0  3  0  0  0  0  0  0
  159.6090  211.3580  152.0110 F   0  0  0  0  0  0  0  0  0  0  0  0
  159.4180  210.8080  156.7370 F   0  0  0  0  0  0  0  0  0  0  0  0
  160.4490  209.1180  155.4100 C   0  0  0  0  0  3  0  0  0  0  0  0
  159.8890  210.6180  153.1130 C   0  0  0  0  0  0  0  0  0  0  0  0
  160.5520  209.3860  152.9980 C   0  0  0  0  0  0  0  0  0  0  0  0
  159.5090  211.0920  154.3720 C   0  0  0  0  0  3  0  0  0  0  0  0
  1  6  2  0  0  0  0
  1 15  1  0  0  0  0
  2  3  2  0  0  0  0
  2 13  1  0  0  0  0
  3 20  1  0  0  0  0
  4 16  1  0  0  0  0
  5 17  1  0  0  0  0
  5  2  1  0  0  0  0
  6 18  1  0  0  0  0
  7  4  2  0  0  0  0
  7  3  1  0  0  0  0
  8 13  1  0  0  0  0
  8 14  1  0  0  0  0
  9  1  1  0  0  0  0
 11  4  1  0  0  0  0
 12  8  2  0  0  0  0
 13 19  2  0  0  0  0
 14 23  1  0  0  0  0
 15  5  2  0  0  0  0
 16 21  2  0  0  0  0
 17 12  1  0  0  0  0
 18 17  2  0  0  0  0
 19 10  1  0  0  0  0
 20 21  1  0  0  0  0
 20 10  2  0  0  0  0
 23 22  1  1  0  0  0
 23 30  1  0  0  0  0
 24 27  1  0  0  0  0
 25 28  2  0  0  0  0
 26 29  1  0  0  0  0
 28 24  1  0  0  0  0
 29 31  1  0  0  0  0
 30 29  2  0  0  0  0
 30 25  1  0  0  0  0
 31 24  2  0  0  0  0
M  END
>  <MODEL>
3

>  <REMARK>
 VINA RESULT:      -9.9      3.780      6.704
  Name = 
  2 active torsions:
  status: ('A' for Active; 'I' for Inactive)
    1  A    between atoms: C_5  and  N_16
    2  A    between atoms: C_5  and  C_30
                            x       y       z     vdW  Elec       q    Type
                         _______ _______ _______ _____ _____    ______ ____

>  <TORSDO>
F 2

$$$$
=
 OpenBabel11122413213D

 31 35  0  0  1  0  0  0  0  0999 V2000
  161.8910  207.4340  147.6830 C   0  0  0  0  0  0  0  0  0  0  0  0
  161.2900  205.8880  151.0650 C   0  0  0  0  0  0  0  0  0  0  0  0
  161.1400  204.4810  150.8650 C   0  0  0  0  0  0  0  0  0  0  0  0
  161.0680  202.4960  149.4400 C   0  0  0  0  0  0  0  0  0  0  0  0
  161.5330  206.8370  150.0250 C   0  0  0  0  0  0  0  0  0  0  0  0
  162.0140  208.7790  148.0320 C   0  0  0  0  0  3  0  0  0  0  0  0
  161.2190  203.8760  149.5980 C   0  0  0  0  0  3  0  0  0  0  0  0
  161.3250  207.7450  152.6640 C   0  0  0  0  0  0  0  0  0  0  0  0
  162.0030  207.0580  146.3870 F   0  0  0  0  0  0  0  0  0  0  0  0
  160.8130  204.1890  153.2530 C   0  0  0  0  0  3  0  0  0  0  0  0
  161.1520  201.9290  148.1760 O   0  0  0  0  0  1  0  0  0  0  0  0
  161.5550  208.6140  151.6480 N   0  0  0  0  0  0  0  0  0  0  0  0
  161.1880  206.3760  152.3990 C   0  0  0  0  0  0  0  0  0  0  0  0
  161.2190  208.2270  154.0070 N   0  0  0  0  0  2  0  0  0  0  0  0
  161.6540  206.4760  148.6710 C   0  0  0  0  0  3  0  0  0  0  0  0
  160.8320  201.6880  150.5520 C   0  0  0  0  0  3  0  0  0  0  0  0
  161.6610  208.2080  150.3600 C   0  0  0  0  0  0  0  0  0  0  0  0
  161.8990  209.1640  149.3670 C   0  0  0  0  0  3  0  0  0  0  0  0
  160.9570  205.5230  153.4320 N   0  0  0  0  0  0  0  0  0  0  0  0
  160.9010  203.6410  151.9820 C   0  0  0  0  0  0  0  0  0  0  0  0
  160.7490  202.2610  151.8220 C   0  0  0  0  0  3  0  0  0  0  0  0
  162.0870  209.7590  155.7020 C   0  0  0  0  0  1  0  0  0  0  0  0
  161.3830  209.6310  154.3610 C   0  0  2  0  0  3  0  0  0  0  0  0
  157.5640  211.6080  154.4530 C   0  0  0  0  0  0  0  0  0  0  0  0
  159.2160  210.1990  155.5190 C   0  0  0  0  0  3  0  0  0  0  0  0
  160.4190  211.2170  152.2050 F   0  0  0  0  0  0  0  0  0  0  0  0
  156.3610  212.2330  154.4790 F   0  0  0  0  0  0  0  0  0  0  0  0
  157.9770  210.8430  155.5470 C   0  0  0  0  0  3  0  0  0  0  0  0
  159.6310  211.0870  153.3020 C   0  0  0  0  0  0  0  0  0  0  0  0
  160.0510  210.3160  154.3970 C   0  0  0  0  0  0  0  0  0  0  0  0
  158.3900  211.7300  153.3330 C   0  0  0  0  0  3  0  0  0  0  0  0
  1  6  2  0  0  0  0
  1 15  1  0  0  0  0
  2 13  1  0  0  0  0
  3  2  2  0  0  0  0
  3 20  1  0  0  0  0
  4  7  2  0  0  0  0
  4 16  1  0  0  0  0
  5 17  1  0  0  0  0
  5  2  1  0  0  0  0
  6 18  1  0  0  0  0
  7  3  1  0  0  0  0
  8 14  1  0  0  0  0
  9  1  1  0  0  0  0
 10 19  1  0  0  0  0
 11  4  1  0  0  0  0
 12  8  2  0  0  0  0
 13  8  1  0  0  0  0
 13 19  2  0  0  0  0
 14 23  1  0  0  0  0
 15  5  2  0  0  0  0
 16 21  2  0  0  0  0
 17 12  1  0  0  0  0
 18 17  2  0  0  0  0
 20 10  2  0  0  0  0
 21 20  1  0  0  0  0
 23 30  1  0  0  0  0
 23 22  1  1  0  0  0
 24 27  1  0  0  0  0
 24 28  1  0  0  0  0
 25 28  2  0  0  0  0
 26 29  1  0  0  0  0
 29 31  1  0  0  0  0
 29 30  2  0  0  0  0
 30 25  1  0  0  0  0
 31 24  2  0  0  0  0
M  END
>  <MODEL>
4

>  <REMARK>
 VINA RESULT:      -9.9      3.383      6.097
  Name = 
  2 active torsions:
  status: ('A' for Active; 'I' for Inactive)
    1  A    between atoms: C_5  and  N_16
    2  A    between atoms: C_5  and  C_30
                            x       y       z     vdW  Elec       q    Type
                         _______ _______ _______ _____ _____    ______ ____

>  <TORSDO>
F 2

$$$$
=
 OpenBabel11122413213D

 31 35  0  0  1  0  0  0  0  0999 V2000
  160.9250  201.9590  150.6470 C   0  0  0  0  0  0  0  0  0  0  0  0
  161.1950  205.3330  148.9960 C   0  0  0  0  0  0  0  0  0  0  0  0
  161.1710  205.1150  147.5840 C   0  0  0  0  0  0  0  0  0  0  0  0
  161.0430  203.6600  145.6240 C   0  0  0  0  0  0  0  0  0  0  0  0
  161.1140  204.3020  149.9800 C   0  0  0  0  0  0  0  0  0  0  0  0
  160.9620  202.3250  151.9920 C   0  0  0  0  0  3  0  0  0  0  0  0
  161.0630  203.8360  147.0090 C   0  0  0  0  0  3  0  0  0  0  0  0
  161.3360  206.9610  150.8220 C   0  0  0  0  0  0  0  0  0  0  0  0
  160.8160  200.6540  150.3040 F   0  0  0  0  0  0  0  0  0  0  0  0
  161.3660  207.5080  147.2230 C   0  0  0  0  0  3  0  0  0  0  0  0
  160.9350  202.3850  145.0880 O   0  0  0  0  0  1  0  0  0  0  0  0
  161.2590  205.9530  151.7260 N   0  0  0  0  0  0  0  0  0  0  0  0
  161.3070  206.6780  149.4510 C   0  0  0  0  0  0  0  0  0  0  0  0
  161.4520  208.3150  151.2700 N   0  0  0  0  0  2  0  0  0  0  0  0
  161.0000  202.9380  149.6550 C   0  0  0  0  0  3  0  0  0  0  0  0
  161.1310  204.7660  144.7790 C   0  0  0  0  0  3  0  0  0  0  0  0
  161.1500  204.6550  151.3530 C   0  0  0  0  0  0  0  0  0  0  0  0
  161.0740  203.6700  152.3430 C   0  0  0  0  0  3  0  0  0  0  0  0
  161.3880  207.7040  148.5620 N   0  0  0  0  0  0  0  0  0  0  0  0
  161.2580  206.2250  146.7060 C   0  0  0  0  0  0  0  0  0  0  0  0
  161.2380  206.0470  145.3200 C   0  0  0  0  0  3  0  0  0  0  0  0
  160.8570  207.5720  153.5210 C   0  0  0  0  0  1  0  0  0  0  0  0
  161.4560  208.6870  152.6790 C   0  0  2  0  0  3  0  0  0  0  0  0
  159.2970  212.3640  153.2500 C   0  0  0  0  0  0  0  0  0  0  0  0
  159.8970  210.1490  154.0170 C   0  0  0  0  0  3  0  0  0  0  0  0
  161.5690  210.8410  150.8240 F   0  0  0  0  0  0  0  0  0  0  0  0
  158.6190  213.5230  153.4280 F   0  0  0  0  0  0  0  0  0  0  0  0
  159.1980  211.3440  154.2000 C   0  0  0  0  0  3  0  0  0  0  0  0
  160.7980  210.9930  151.9300 C   0  0  0  0  0  0  0  0  0  0  0  0
  160.7010  209.9650  152.8810 C   0  0  0  0  0  0  0  0  0  0  0  0
  160.0960  212.1880  152.1180 C   0  0  0  0  0  3  0  0  0  0  0  0
  1  6  1  0  0  0  0
  2 13  1  0  0  0  0
  2  5  1  0  0  0  0
  3  2  2  0  0  0  0
  4  7  2  0  0  0  0
  5 17  2  0  0  0  0
  6 18  2  0  0  0  0
  7  3  1  0  0  0  0
  8 14  1  0  0  0  0
  8 12  2  0  0  0  0
  9  1  1  0  0  0  0
 10 19  1  0  0  0  0
 11  4  1  0  0  0  0
 13  8  1  0  0  0  0
 14 23  1  0  0  0  0
 15  5  1  0  0  0  0
 15  1  2  0  0  0  0
 16 21  2  0  0  0  0
 16  4  1  0  0  0  0
 17 12  1  0  0  0  0
 17 18  1  0  0  0  0
 19 13  2  0  0  0  0
 20 10  2  0  0  0  0
 20  3  1  0  0  0  0
 21 20  1  0  0  0  0
 23 30  1  0  0  0  0
 23 22  1  1  0  0  0
 24 27  1  0  0  0  0
 24 28  1  0  0  0  0
 25 28  2  0  0  0  0
 26 29  1  0  0  0  0
 29 31  1  0  0  0  0
 29 30  2  0  0  0  0
 30 25  1  0  0  0  0
 31 24  2  0  0  0  0
M  END
>  <MODEL>
5

>  <REMARK>
 VINA RESULT:      -9.9      3.719      5.666
  Name = 
  2 active torsions:
  status: ('A' for Active; 'I' for Inactive)
    1  A    between atoms: C_5  and  N_16
    2  A    between atoms: C_5  and  C_30
                            x       y       z     vdW  Elec       q    Type
                         _______ _______ _______ _____ _____    ______ ____

>  <TORSDO>
F 2

$$$$
=
 OpenBabel11122413213D

 31 35  0  0  1  0  0  0  0  0999 V2000
  161.9590  209.4150  148.9400 C   0  0  0  0  0  0  0  0  0  0  0  0
  161.3670  206.4670  151.2090 C   0  0  0  0  0  0  0  0  0  0  0  0
  161.2250  205.3150  150.3750 C   0  0  0  0  0  0  0  0  0  0  0  0
  161.1620  204.2250  148.1880 C   0  0  0  0  0  0  0  0  0  0  0  0
  161.6050  207.7920  150.7320 C   0  0  0  0  0  0  0  0  0  0  0  0
  162.0750  210.4420  149.8760 C   0  0  0  0  0  3  0  0  0  0  0  0
  161.3060  205.3720  148.9710 C   0  0  0  0  0  3  0  0  0  0  0  0
  161.3950  207.3630  153.4890 C   0  0  0  0  0  0  0  0  0  0  0  0
  162.0710  209.6880  147.6190 F   0  0  0  0  0  0  0  0  0  0  0  0
  160.9020  203.9400  152.3500 C   0  0  0  0  0  3  0  0  0  0  0  0
  161.2480  204.3140  146.8060 O   0  0  0  0  0  1  0  0  0  0  0  0
  161.6190  208.6060  152.9970 N   0  0  0  0  0  0  0  0  0  0  0  0
  161.2650  206.2760  152.6160 C   0  0  0  0  0  0  0  0  0  0  0  0
  161.2870  207.1610  154.9020 N   0  0  0  0  0  2  0  0  0  0  0  0
  161.7270  208.1060  149.3670 C   0  0  0  0  0  3  0  0  0  0  0  0
  160.9320  202.9900  148.7940 C   0  0  0  0  0  3  0  0  0  0  0  0
  161.7270  208.8500  151.6690 C   0  0  0  0  0  0  0  0  0  0  0  0
  161.9590  210.1590  151.2370 C   0  0  0  0  0  3  0  0  0  0  0  0
  161.0380  205.0370  153.1300 N   0  0  0  0  0  0  0  0  0  0  0  0
  160.9910  204.0500  150.9700 C   0  0  0  0  0  0  0  0  0  0  0  0
  160.8460  202.9030  150.1840 C   0  0  0  0  0  3  0  0  0  0  0  0
  161.0550  207.7600  157.2610 C   0  0  0  0  0  1  0  0  0  0  0  0
  161.4440  208.2390  155.8710 C   0  0  2  0  0  3  0  0  0  0  0  0
  159.0830  211.6460  154.7220 C   0  0  0  0  0  0  0  0  0  0  0  0
  159.2150  209.3570  155.4930 C   0  0  0  0  0  3  0  0  0  0  0  0
  162.6000  210.7010  155.0380 F   0  0  0  0  0  0  0  0  0  0  0  0
  158.3420  212.7210  154.3590 F   0  0  0  0  0  0  0  0  0  0  0  0
  158.4510  210.4650  155.1200 C   0  0  0  0  0  3  0  0  0  0  0  0
  161.2460  210.6110  155.0690 C   0  0  0  0  0  0  0  0  0  0  0  0
  160.6170  209.4220  155.4700 C   0  0  0  0  0  0  0  0  0  0  0  0
  160.4780  211.7180  154.6970 C   0  0  0  0  0  3  0  0  0  0  0  0
  1 15  2  0  0  0  0
  1  6  1  0  0  0  0
  2 13  1  0  0  0  0
  3 20  1  0  0  0  0
  3  2  2  0  0  0  0
  4 16  1  0  0  0  0
  4  7  2  0  0  0  0
  5  2  1  0  0  0  0
  5 17  2  0  0  0  0
  6 18  2  0  0  0  0
  7  3  1  0  0  0  0
  8 14  1  0  0  0  0
  9  1  1  0  0  0  0
 10 19  1  0  0  0  0
 11  4  1  0  0  0  0
 12  8  2  0  0  0  0
 13 19  2  0  0  0  0
 13  8  1  0  0  0  0
 14 23  1  0  0  0  0
 15  5  1  0  0  0  0
 16 21  2  0  0  0  0
 17 12  1  0  0  0  0
 18 17  1  0  0  0  0
 20 10  2  0  0  0  0
 21 20  1  0  0  0  0
 23 22  1  1  0  0  0
 24 28  1  0  0  0  0
 26 29  1  0  0  0  0
 27 24  1  0  0  0  0
 28 25  2  0  0  0  0
 29 30  2  0  0  0  0
 30 25  1  0  0  0  0
 30 23  1  0  0  0  0
 31 24  2  0  0  0  0
 31 29  1  0  0  0  0
M  END
>  <MODEL>
6

>  <REMARK>
 VINA RESULT:      -9.8      3.188      6.256
  Name = 
  2 active torsions:
  status: ('A' for Active; 'I' for Inactive)
    1  A    between atoms: C_5  and  N_16
    2  A    between atoms: C_5  and  C_30
                            x       y       z     vdW  Elec       q    Type
                         _______ _______ _______ _____ _____    ______ ____

>  <TORSDO>
F 2

$$$$
=
 OpenBabel11122413213D

 31 35  0  0  1  0  0  0  0  0999 V2000
  160.8780  204.3570  152.4320 C   0  0  0  0  0  0  0  0  0  0  0  0
  161.4990  205.6080  148.9340 C   0  0  0  0  0  0  0  0  0  0  0  0
  161.3920  204.4830  148.0590 C   0  0  0  0  0  0  0  0  0  0  0  0
  161.0050  202.1070  147.6300 C   0  0  0  0  0  0  0  0  0  0  0  0
  161.3310  205.5550  150.3510 C   0  0  0  0  0  0  0  0  0  0  0  0
  161.0140  205.5410  153.1580 C   0  0  0  0  0  3  0  0  0  0  0  0
  161.1030  203.1840  148.5140 C   0  0  0  0  0  3  0  0  0  0  0  0
  161.9140  208.0130  149.1480 C   0  0  0  0  0  0  0  0  0  0  0  0
  160.5940  203.1990  153.0730 F   0  0  0  0  0  0  0  0  0  0  0  0
  161.8680  205.9260  146.1650 C   0  0  0  0  0  3  0  0  0  0  0  0
  160.7190  200.8380  148.1110 O   0  0  0  0  0  1  0  0  0  0  0  0
  161.7480  207.9210  150.4910 N   0  0  0  0  0  0  0  0  0  0  0  0
  161.7950  206.8700  148.3470 C   0  0  0  0  0  0  0  0  0  0  0  0
  162.2150  209.2770  148.5490 N   0  0  0  0  0  2  0  0  0  0  0  0
  161.0350  204.3680  151.0450 C   0  0  0  0  0  3  0  0  0  0  0  0
  161.1960  202.3090  146.2630 C   0  0  0  0  0  3  0  0  0  0  0  0
  161.4650  206.7480  151.1060 C   0  0  0  0  0  0  0  0  0  0  0  0
  161.3070  206.7320  152.4950 C   0  0  0  0  0  3  0  0  0  0  0  0
  161.9680  206.9850  147.0020 N   0  0  0  0  0  0  0  0  0  0  0  0
  161.5810  204.6650  146.6660 C   0  0  0  0  0  0  0  0  0  0  0  0
  161.4840  203.5860  145.7820 C   0  0  0  0  0  3  0  0  0  0  0  0
  162.0090  210.2540  150.7810 C   0  0  0  0  0  1  0  0  0  0  0  0
  162.3220  210.5130  149.3160 C   0  0  2  0  0  3  0  0  0  0  0  0
  159.6700  213.5000  147.7200 C   0  0  0  0  0  0  0  0  0  0  0  0
  161.2190  211.6750  147.3690 C   0  0  0  0  0  3  0  0  0  0  0  0
  160.8660  212.3160  150.9650 F   0  0  0  0  0  0  0  0  0  0  0  0
  158.8340  214.4420  147.2200 F   0  0  0  0  0  0  0  0  0  0  0  0
  160.3570  212.6460  146.8540 C   0  0  0  0  0  3  0  0  0  0  0  0
  160.7080  212.4140  149.6210 C   0  0  0  0  0  0  0  0  0  0  0  0
  161.4010  211.5530  148.7560 C   0  0  0  0  0  0  0  0  0  0  0  0
  159.8460  213.3840  149.1010 C   0  0  0  0  0  3  0  0  0  0  0  0
  1  9  1  0  0  0  0
  1  6  1  0  0  0  0
  2  5  1  0  0  0  0
  3  7  1  0  0  0  0
  3  2  2  0  0  0  0
  4 11  1  0  0  0  0
  4  7  2  0  0  0  0
  5 15  1  0  0  0  0
  5 17  2  0  0  0  0
  8 12  2  0  0  0  0
 10 20  2  0  0  0  0
 10 19  1  0  0  0  0
 12 17  1  0  0  0  0
 13  2  1  0  0  0  0
 13  8  1  0  0  0  0
 14  8  1  0  0  0  0
 14 23  1  0  0  0  0
 15  1  2  0  0  0  0
 16  4  1  0  0  0  0
 17 18  1  0  0  0  0
 18  6  2  0  0  0  0
 19 13  2  0  0  0  0
 20  3  1  0  0  0  0
 21 16  2  0  0  0  0
 21 20  1  0  0  0  0
 23 22  1  1  0  0  0
 24 31  1  0  0  0  0
 25 30  2  0  0  0  0
 27 24  1  0  0  0  0
 28 25  1  0  0  0  0
 28 24  2  0  0  0  0
 29 26  1  0  0  0  0
 30 23  1  0  0  0  0
 30 29  1  0  0  0  0
 31 29  2  0  0  0  0
M  END
>  <MODEL>
7

>  <REMARK>
 VINA RESULT:      -9.3      2.129      3.011
  Name = 
  2 active torsions:
  status: ('A' for Active; 'I' for Inactive)
    1  A    between atoms: C_5  and  N_16
    2  A    between atoms: C_5  and  C_30
                            x       y       z     vdW  Elec       q    Type
                         _______ _______ _______ _____ _____    ______ ____

>  <TORSDO>
F 2

$$$$
=
 OpenBabel11122413213D

 31 35  0  0  1  0  0  0  0  0999 V2000
  161.2060  208.2870  153.9120 C   0  0  0  0  0  0  0  0  0  0  0  0
  161.3890  207.4890  150.2360 C   0  0  0  0  0  0  0  0  0  0  0  0
  161.2080  206.0790  150.1010 C   0  0  0  0  0  0  0  0  0  0  0  0
  160.8310  203.8490  151.0310 C   0  0  0  0  0  0  0  0  0  0  0  0
  161.3870  208.1950  151.4770 C   0  0  0  0  0  0  0  0  0  0  0  0
  161.3960  209.6690  153.8870 C   0  0  0  0  0  3  0  0  0  0  0  0
  161.0040  205.2240  151.2000 C   0  0  0  0  0  3  0  0  0  0  0  0
  161.7700  209.6300  149.1060 C   0  0  0  0  0  0  0  0  0  0  0  0
  161.0250  207.6510  155.0930 F   0  0  0  0  0  0  0  0  0  0  0  0
  161.4290  206.2920  147.6920 C   0  0  0  0  0  3  0  0  0  0  0  0
  160.6310  203.0340  152.1360 O   0  0  0  0  0  1  0  0  0  0  0  0
  161.7620  210.2630  150.3050 N   0  0  0  0  0  0  0  0  0  0  0  0
  161.5860  208.2430  149.0440 C   0  0  0  0  0  0  0  0  0  0  0  0
  161.9700  210.3790  147.9030 N   0  0  0  0  0  2  0  0  0  0  0  0
  161.2010  207.5620  152.7190 C   0  0  0  0  0  3  0  0  0  0  0  0
  160.8580  203.2950  149.7510 C   0  0  0  0  0  3  0  0  0  0  0  0
  161.5790  209.6000  151.4720 C   0  0  0  0  0  0  0  0  0  0  0  0
  161.5830  210.3220  152.6690 C   0  0  0  0  0  3  0  0  0  0  0  0
  161.5990  207.6270  147.8310 N   0  0  0  0  0  0  0  0  0  0  0  0
  161.2310  205.4940  148.8100 C   0  0  0  0  0  0  0  0  0  0  0  0
  161.0580  204.1170  148.6420 C   0  0  0  0  0  3  0  0  0  0  0  0
  163.1530  212.2530  148.9330 C   0  0  0  0  0  1  0  0  0  0  0  0
  162.1350  211.8270  147.8880 C   0  0  2  0  0  3  0  0  0  0  0  0
  158.3540  213.7660  148.5590 C   0  0  0  0  0  0  0  0  0  0  0  0
  160.5640  213.1640  149.3380 C   0  0  0  0  0  3  0  0  0  0  0  0
  160.0510  211.8460  145.9520 F   0  0  0  0  0  0  0  0  0  0  0  0
  157.1620  214.3760  148.7670 F   0  0  0  0  0  0  0  0  0  0  0  0
  159.3350  213.7930  149.5530 C   0  0  0  0  0  3  0  0  0  0  0  0
  159.8300  212.4780  147.1310 C   0  0  0  0  0  0  0  0  0  0  0  0
  160.8190  212.5020  148.1270 C   0  0  0  0  0  0  0  0  0  0  0  0
  158.6010  213.1100  147.3510 C   0  0  0  0  0  3  0  0  0  0  0  0
  1  9  1  0  0  0  0
  2  5  1  0  0  0  0
  3  2  1  0  0  0  0
  3  7  1  0  0  0  0
  4  7  2  0  0  0  0
  4 11  1  0  0  0  0
  5 15  1  0  0  0  0
  6  1  1  0  0  0  0
  8 12  2  0  0  0  0
 10 19  2  0  0  0  0
 10 20  1  0  0  0  0
 12 17  1  0  0  0  0
 13  8  1  0  0  0  0
 13  2  2  0  0  0  0
 14  8  1  0  0  0  0
 15  1  2  0  0  0  0
 16  4  1  0  0  0  0
 17  5  2  0  0  0  0
 17 18  1  0  0  0  0
 18  6  2  0  0  0  0
 19 13  1  0  0  0  0
 20  3  2  0  0  0  0
 21 20  1  0  0  0  0
 21 16  2  0  0  0  0
 23 14  1  0  0  0  0
 23 30  1  0  0  0  0
 23 22  1  1  0  0  0
 24 27  1  0  0  0  0
 24 28  1  0  0  0  0
 25 28  2  0  0  0  0
 26 29  1  0  0  0  0
 29 31  1  0  0  0  0
 29 30  2  0  0  0  0
 30 25  1  0  0  0  0
 31 24  2  0  0  0  0
M  END
>  <MODEL>
8

>  <REMARK>
 VINA RESULT:      -9.1      1.676      2.214
  Name = 
  2 active torsions:
  status: ('A' for Active; 'I' for Inactive)
    1  A    between atoms: C_5  and  N_16
    2  A    between atoms: C_5  and  C_30
                            x       y       z     vdW  Elec       q    Type
                         _______ _______ _______ _____ _____    ______ ____

>  <TORSDO>
F 2

$$$$
=
 OpenBabel11122413213D

 31 35  0  0  1  0  0  0  0  0999 V2000
  160.8330  203.8050  152.4630 C   0  0  0  0  0  0  0  0  0  0  0  0
  161.4370  206.2050  149.6250 C   0  0  0  0  0  0  0  0  0  0  0  0
  161.4270  205.4420  148.4170 C   0  0  0  0  0  0  0  0  0  0  0  0
  161.2180  203.3350  147.1930 C   0  0  0  0  0  0  0  0  0  0  0  0
  161.2430  205.6640  150.9320 C   0  0  0  0  0  0  0  0  0  0  0  0
  160.8700  204.6760  153.5510 C   0  0  0  0  0  3  0  0  0  0  0  0
  161.2210  204.0500  148.3930 C   0  0  0  0  0  3  0  0  0  0  0  0
  161.6780  208.4140  150.6580 C   0  0  0  0  0  0  0  0  0  0  0  0
  160.6170  202.4830  152.6620 F   0  0  0  0  0  0  0  0  0  0  0  0
  161.8410  207.4680  147.1450 C   0  0  0  0  0  3  0  0  0  0  0  0
  161.0110  201.9630  147.2040 O   0  0  0  0  0  1  0  0  0  0  0  0
  161.4910  207.8610  151.8820 N   0  0  0  0  0  0  0  0  0  0  0  0
  161.6570  207.6080  149.5130 C   0  0  0  0  0  0  0  0  0  0  0  0
  161.9020  209.8220  150.5350 N   0  0  0  0  0  2  0  0  0  0  0  0
  161.0170  204.2960  151.1700 C   0  0  0  0  0  3  0  0  0  0  0  0
  161.4220  204.0000  145.9850 C   0  0  0  0  0  3  0  0  0  0  0  0
  161.2770  206.5340  152.0500 C   0  0  0  0  0  0  0  0  0  0  0  0
  161.0920  206.0370  153.3440 C   0  0  0  0  0  3  0  0  0  0  0  0
  161.8490  208.1820  148.2950 N   0  0  0  0  0  0  0  0  0  0  0  0
  161.6330  206.0970  147.1770 C   0  0  0  0  0  0  0  0  0  0  0  0
  161.6300  205.3800  145.9770 C   0  0  0  0  0  3  0  0  0  0  0  0
  162.2200  209.9630  152.9550 C   0  0  0  0  0  1  0  0  0  0  0  0
  161.9060  210.7270  151.6780 C   0  0  2  0  0  3  0  0  0  0  0  0
  158.1200  212.7440  151.9970 C   0  0  0  0  0  0  0  0  0  0  0  0
  159.6610  211.0520  152.7810 C   0  0  0  0  0  3  0  0  0  0  0  0
  161.1420  212.8460  149.9420 F   0  0  0  0  0  0  0  0  0  0  0  0
  156.9280  213.3820  152.0950 F   0  0  0  0  0  0  0  0  0  0  0  0
  158.4330  211.7090  152.8820 C   0  0  0  0  0  3  0  0  0  0  0  0
  160.2660  212.4660  150.9060 C   0  0  0  0  0  0  0  0  0  0  0  0
  160.5860  211.4250  151.7920 C   0  0  0  0  0  0  0  0  0  0  0  0
  159.0350  213.1210  151.0110 C   0  0  0  0  0  3  0  0  0  0  0  0
  1  9  1  0  0  0  0
  1  6  1  0  0  0  0
  2  5  1  0  0  0  0
  3  2  2  0  0  0  0
  4 11  1  0  0  0  0
  4  7  2  0  0  0  0
  5 15  1  0  0  0  0
  5 17  2  0  0  0  0
  7  3  1  0  0  0  0
  8 12  2  0  0  0  0
 10 20  2  0  0  0  0
 10 19  1  0  0  0  0
 12 17  1  0  0  0  0
 13  2  1  0  0  0  0
 13  8  1  0  0  0  0
 14  8  1  0  0  0  0
 14 23  1  0  0  0  0
 15  1  2  0  0  0  0
 16  4  1  0  0  0  0
 17 18  1  0  0  0  0
 18  6  2  0  0  0  0
 19 13  2  0  0  0  0
 20  3  1  0  0  0  0
 21 16  2  0  0  0  0
 21 20  1  0  0  0  0
 23 30  1  0  0  0  0
 23 22  1  1  0  0  0
 24 27  1  0  0  0  0
 24 28  1  0  0  0  0
 25 28  2  0  0  0  0
 26 29  1  0  0  0  0
 29 31  1  0  0  0  0
 29 30  2  0  0  0  0
 30 25  1  0  0  0  0
 31 24  2  0  0  0  0
M  END
>  <MODEL>
9

>  <REMARK>
 VINA RESULT:      -9.0      3.093      4.302
  Name = 
  2 active torsions:
  status: ('A' for Active; 'I' for Inactive)
    1  A    between atoms: C_5  and  N_16
    2  A    between atoms: C_5  and  C_30
                            x       y       z     vdW  Elec       q    Type
                         _______ _______ _______ _____ _____    ______ ____

>  <TORSDO>
F 2

$$$$
