=
 OpenBabel11122414073D

 28 32  0  0  1  0  0  0  0  0999 V2000
  162.0520  209.5180  137.6290 C   0  0  0  0  0  0  0  0  0  0  0  0
  158.3850  210.0910  137.4520 O   0  0  0  0  0  0  0  0  0  0  0  0
  162.0720  214.4080  141.6660 O   0  0  0  0  0  0  0  0  0  0  0  0
  161.6990  206.9930  138.7930 C   0  0  0  0  0  3  0  0  0  0  0  0
  160.9820  212.4420  142.5830 C   0  0  2  0  0  3  0  0  0  0  0  0
  162.3310  210.8520  137.0150 C   0  0  0  0  0  2  0  0  0  0  0  0
  156.7990  209.5080  139.2410 O   0  0  0  0  0  0  0  0  0  0  0  0
  157.9130  210.4310  138.8380 S   0  0  0  0  0  0  0  0  0  0  0  0
  157.9710  212.9970  139.7760 C   0  0  0  0  0  0  0  0  0  0  0  0
  159.2460  210.2930  140.0040 C   0  0  2  0  0  3  0  0  0  0  0  0
  164.7270  212.6530  139.1170 O   0  0  0  0  0  0  0  0  0  0  0  0
  161.4570  211.0790  140.6000 C   0  0  2  0  0  3  0  0  0  0  0  0
  158.7730  212.6270  140.7310 N   0  0  0  0  0  0  0  0  0  0  0  0
  157.3640  212.0590  138.8900 N   0  0  0  0  0  2  0  0  0  0  0  0
  163.6200  212.3440  138.6070 C   0  0  0  0  0  0  0  0  0  0  0  0
  161.2510  209.3860  138.7830 C   0  0  0  0  0  0  0  0  0  0  0  0
  161.7010  213.2090  141.5410 C   0  0  0  0  0  0  0  0  0  0  0  0
  157.7280  214.4470  139.5610 C   0  0  0  0  0  1  0  0  0  0  0  0
  162.3740  212.9980  139.1100 C   0  0  0  0  0  2  0  0  0  0  0  0
  161.0960  208.1150  139.3640 C   0  0  0  0  0  3  0  0  0  0  0  0
  162.6580  208.3890  137.0680 C   0  0  0  0  0  3  0  0  0  0  0  0
  162.4790  207.1290  137.6430 C   0  0  0  0  0  3  0  0  0  0  0  0
  163.5750  211.3870  137.5480 N   0  0  0  0  0  2  0  0  0  0  0  0
  160.4970  211.2000  141.8000 C   0  0  2  0  0  3  0  0  0  0  0  0
  161.9750  212.4290  140.3920 N   0  0  0  0  0  0  0  0  0  0  0  0
  159.0920  211.2550  141.1700 C   0  0  2  0  0  3  0  0  0  0  0  0
  159.8900  213.2360  143.2890 C   0  0  0  0  0  1  0  0  0  0  0  0
  160.6170  210.5940  139.4180 C   0  0  1  0  0  3  0  0  0  0  0  0
  1 16  1  0  0  0  0
  2  8  2  0  0  0  0
  4 20  1  0  0  0  0
  5 27  1  6  0  0  0
  6 23  1  0  0  0  0
  6  1  1  0  0  0  0
  8 14  1  0  0  0  0
  8  7  2  0  0  0  0
  9 13  2  0  0  0  0
 10  8  1  6  0  0  0
 10 26  1  0  0  0  0
 12 25  1  6  0  0  0
 12 24  1  0  0  0  0
 13 26  1  0  0  0  0
 14  9  1  0  0  0  0
 15 19  1  0  0  0  0
 15 11  2  0  0  0  0
 16 20  2  0  0  0  0
 16 28  1  0  0  0  0
 17  3  2  0  0  0  0
 17  5  1  0  0  0  0
 18  9  1  0  0  0  0
 19 25  1  0  0  0  0
 21  1  2  0  0  0  0
 21 22  1  0  0  0  0
 22  4  2  0  0  0  0
 23 15  1  0  0  0  0
 24  5  1  0  0  0  0
 25 17  1  0  0  0  0
 26 24  1  0  0  0  0
 28 10  1  0  0  0  0
 28 12  1  0  0  0  0
M  END
>  <MODEL>
1

>  <REMARK>
 VINA RESULT:      -2.8      0.000      0.000
  Name = 
  0 active torsions:
  status: ('A' for Active; 'I' for Inactive)
                            x       y       z     vdW  Elec       q    Type
                         _______ _______ _______ _____ _____    ______ ____

>  <TORSDO>
F 0

$$$$
=
 OpenBabel11122414073D

 28 32  0  0  1  0  0  0  0  0999 V2000
  157.9120  213.2910  153.7060 C   0  0  0  0  0  0  0  0  0  0  0  0
  160.1600  212.2540  156.4770 O   0  0  0  0  0  0  0  0  0  0  0  0
  162.2440  210.6270  149.9200 O   0  0  0  0  0  0  0  0  0  0  0  0
  155.8720  211.5860  154.5930 C   0  0  0  0  0  3  0  0  0  0  0  0
  161.0450  208.9970  151.2600 C   0  0  2  0  0  3  0  0  0  0  0  0
  158.9450  214.2250  153.1630 C   0  0  0  0  0  2  0  0  0  0  0  0
  160.4220  209.9360  157.2610 O   0  0  0  0  0  0  0  0  0  0  0  0
  160.6980  210.8920  156.1360 S   0  0  0  0  0  0  0  0  0  0  0  0
  162.9370  210.5870  154.5990 C   0  0  0  0  0  0  0  0  0  0  0  0
  159.9550  210.2800  154.6440 C   0  0  2  0  0  3  0  0  0  0  0  0
  159.4100  213.5410  149.5960 O   0  0  0  0  0  0  0  0  0  0  0  0
  159.5990  210.6930  152.2850 C   0  0  2  0  0  3  0  0  0  0  0  0
  162.2400  209.9290  153.7190 N   0  0  0  0  0  0  0  0  0  0  0  0
  162.3920  210.9820  155.8550 N   0  0  0  0  0  2  0  0  0  0  0  0
  159.6610  213.5440  150.8290 C   0  0  0  0  0  0  0  0  0  0  0  0
  158.1890  211.9260  153.9290 C   0  0  0  0  0  0  0  0  0  0  0  0
  161.3660  210.3620  150.7840 C   0  0  0  0  0  0  0  0  0  0  0  0
  164.3250  210.9920  154.2600 C   0  0  0  0  0  1  0  0  0  0  0  0
  160.8340  212.7730  151.3400 C   0  0  0  0  0  2  0  0  0  0  0  0
  157.1520  211.0800  154.3600 C   0  0  0  0  0  3  0  0  0  0  0  0
  156.6240  213.7870  153.9370 C   0  0  0  0  0  3  0  0  0  0  0  0
  155.6080  212.9410  154.3850 C   0  0  0  0  0  3  0  0  0  0  0  0
  158.8290  214.2960  151.7140 N   0  0  0  0  0  2  0  0  0  0  0  0
  160.1750  209.2810  152.5070 C   0  0  2  0  0  3  0  0  0  0  0  0
  160.5370  211.3460  151.3750 N   0  0  0  0  0  0  0  0  0  0  0  0
  160.8860  209.3610  153.8720 C   0  0  2  0  0  3  0  0  0  0  0  0
  162.2710  208.1260  151.5040 C   0  0  0  0  0  1  0  0  0  0  0  0
  159.5610  211.3680  153.6560 C   0  0  1  0  0  3  0  0  0  0  0  0
  1 16  2  0  0  0  0
  1 21  1  0  0  0  0
  3 17  2  0  0  0  0
  5 27  1  1  0  0  0
  5 24  1  0  0  0  0
  6  1  1  0  0  0  0
  8  2  2  0  0  0  0
  8  7  2  0  0  0  0
  9 14  1  0  0  0  0
 10  8  1  1  0  0  0
 11 15  2  0  0  0  0
 12 25  1  6  0  0  0
 12 24  1  0  0  0  0
 12 28  1  0  0  0  0
 13 26  1  0  0  0  0
 13  9  2  0  0  0  0
 14  8  1  0  0  0  0
 15 19  1  0  0  0  0
 15 23  1  0  0  0  0
 16 20  1  0  0  0  0
 17  5  1  0  0  0  0
 17 25  1  0  0  0  0
 18  9  1  0  0  0  0
 19 25  1  0  0  0  0
 20  4  2  0  0  0  0
 21 22  2  0  0  0  0
 22  4  1  0  0  0  0
 23  6  1  0  0  0  0
 24 26  1  0  0  0  0
 26 10  1  0  0  0  0
 28 16  1  0  0  0  0
 28 10  1  0  0  0  0
M  END
>  <MODEL>
2

>  <REMARK>
 VINA RESULT:      -1.5     11.795     14.814
  Name = 
  0 active torsions:
  status: ('A' for Active; 'I' for Inactive)
                            x       y       z     vdW  Elec       q    Type
                         _______ _______ _______ _____ _____    ______ ____

>  <TORSDO>
F 0

$$$$
=
 OpenBabel11122414073D

 28 32  0  0  1  0  0  0  0  0999 V2000
  159.1970  211.8420  152.3300 C   0  0  0  0  0  0  0  0  0  0  0  0
  156.7210  212.3340  149.6050 O   0  0  0  0  0  0  0  0  0  0  0  0
  163.5140  211.9380  147.6880 O   0  0  0  0  0  0  0  0  0  0  0  0
  158.5880  214.3320  153.4650 C   0  0  0  0  0  3  0  0  0  0  0  0
  162.4670  214.1000  148.0360 C   0  0  2  0  0  3  0  0  0  0  0  0
  159.5850  210.5030  151.7910 C   0  0  0  0  0  2  0  0  0  0  0  0
  156.3830  214.4530  148.3990 O   0  0  0  0  0  0  0  0  0  0  0  0
  157.3190  213.2990  148.6190 S   0  0  0  0  0  0  0  0  0  0  0  0
  158.9410  212.4470  146.5920 C   0  0  0  0  0  0  0  0  0  0  0  0
  158.8790  213.9090  149.2090 C   0  0  2  0  0  3  0  0  0  0  0  0
  163.2270  210.3700  151.4410 O   0  0  0  0  0  0  0  0  0  0  0  0
  161.1130  213.3000  149.9180 C   0  0  2  0  0  3  0  0  0  0  0  0
  159.9090  213.1770  147.0630 N   0  0  0  0  0  0  0  0  0  0  0  0
  157.6200  212.5040  147.1250 N   0  0  0  0  0  2  0  0  0  0  0  0
  162.0210  210.4640  151.0950 C   0  0  0  0  0  0  0  0  0  0  0  0
  159.2360  213.0030  151.5310 C   0  0  0  0  0  0  0  0  0  0  0  0
  162.6930  212.6630  148.3110 C   0  0  0  0  0  0  0  0  0  0  0  0
  159.2340  211.4770  145.5050 C   0  0  0  0  0  1  0  0  0  0  0  0
  161.6900  210.7790  149.6730 C   0  0  0  0  0  2  0  0  0  0  0  0
  158.9430  214.2470  152.1170 C   0  0  0  0  0  3  0  0  0  0  0  0
  158.8470  211.9380  153.6810 C   0  0  0  0  0  3  0  0  0  0  0  0
  158.5370  213.1770  154.2470 C   0  0  0  0  0  3  0  0  0  0  0  0
  160.9930  210.2540  152.0630 N   0  0  0  0  0  2  0  0  0  0  0  0
  161.1680  214.3850  148.8260 C   0  0  2  0  0  3  0  0  0  0  0  0
  161.9100  212.1940  149.3940 N   0  0  0  0  0  0  0  0  0  0  0  0
  159.8300  214.2490  148.0730 C   0  0  2  0  0  3  0  0  0  0  0  0
  162.4180  214.4430  146.5520 C   0  0  0  0  0  1  0  0  0  0  0  0
  159.6410  212.9230  150.0820 C   0  0  1  0  0  3  0  0  0  0  0  0
  1 21  1  0  0  0  0
  3 17  2  0  0  0  0
  4 22  1  0  0  0  0
  5 27  1  6  0  0  0
  5 17  1  0  0  0  0
  5 24  1  0  0  0  0
  6 23  1  0  0  0  0
  6  1  1  0  0  0  0
  7  8  2  0  0  0  0
  8  2  2  0  0  0  0
  9 13  2  0  0  0  0
  9 14  1  0  0  0  0
 10  8  1  6  0  0  0
 10 28  1  0  0  0  0
 12 25  1  6  0  0  0
 12 28  1  0  0  0  0
 13 26  1  0  0  0  0
 14  8  1  0  0  0  0
 15 11  2  0  0  0  0
 15 23  1  0  0  0  0
 16 20  1  0  0  0  0
 16  1  2  0  0  0  0
 17 25  1  0  0  0  0
 18  9  1  0  0  0  0
 19 15  1  0  0  0  0
 20  4  2  0  0  0  0
 21 22  2  0  0  0  0
 24 12  1  0  0  0  0
 25 19  1  0  0  0  0
 26 24  1  0  0  0  0
 26 10  1  0  0  0  0
 28 16  1  0  0  0  0
M  END
>  <MODEL>
3

>  <REMARK>
 VINA RESULT:      -0.8      8.024     11.389
  Name = 
  0 active torsions:
  status: ('A' for Active; 'I' for Inactive)
                            x       y       z     vdW  Elec       q    Type
                         _______ _______ _______ _____ _____    ______ ____

>  <TORSDO>
F 0

$$$$
=
 OpenBabel11122414073D

 28 32  0  0  1  0  0  0  0  0999 V2000
  158.7720  213.6500  151.9420 C   0  0  0  0  0  0  0  0  0  0  0  0
  159.7060  213.8050  155.5350 O   0  0  0  0  0  0  0  0  0  0  0  0
  162.5030  208.5280  151.7520 O   0  0  0  0  0  0  0  0  0  0  0  0
  156.0820  213.1630  152.5630 C   0  0  0  0  0  3  0  0  0  0  0  0
  160.4820  208.1650  153.0470 C   0  0  2  0  0  3  0  0  0  0  0  0
  160.1840  213.9040  151.5220 C   0  0  0  0  0  2  0  0  0  0  0  0
  158.8530  212.2720  157.2610 O   0  0  0  0  0  0  0  0  0  0  0  0
  159.7390  212.3950  156.0550 S   0  0  0  0  0  0  0  0  0  0  0  0
  161.9820  210.8480  155.8410 C   0  0  0  0  0  0  0  0  0  0  0  0
  159.1980  211.2550  154.8050 C   0  0  2  0  0  3  0  0  0  0  0  0
  161.1870  211.3400  149.1090 O   0  0  0  0  0  0  0  0  0  0  0  0
  159.6070  210.4070  152.5740 C   0  0  2  0  0  3  0  0  0  0  0  0
  161.3170  209.9870  155.1260 N   0  0  0  0  0  0  0  0  0  0  0  0
  161.3490  211.9580  156.4720 N   0  0  0  0  0  2  0  0  0  0  0  0
  161.1160  211.9480  150.2080 C   0  0  0  0  0  0  0  0  0  0  0  0
  158.4360  212.5940  152.8140 C   0  0  0  0  0  0  0  0  0  0  0  0
  161.4110  208.9590  152.2110 C   0  0  0  0  0  0  0  0  0  0  0  0
  163.4560  210.7030  155.9530 C   0  0  0  0  0  1  0  0  0  0  0  0
  161.7390  211.3420  151.4220 C   0  0  0  0  0  2  0  0  0  0  0  0
  157.0810  212.3520  153.1050 C   0  0  0  0  0  3  0  0  0  0  0  0
  157.7630  214.4530  151.3990 C   0  0  0  0  0  3  0  0  0  0  0  0
  156.4230  214.2160  151.7120 C   0  0  0  0  0  3  0  0  0  0  0  0
  160.4550  213.2130  150.2710 N   0  0  0  0  0  2  0  0  0  0  0  0
  159.5190  209.2490  153.5860 C   0  0  2  0  0  3  0  0  0  0  0  0
  160.9130  210.2560  151.9380 N   0  0  0  0  0  0  0  0  0  0  0  0
  159.8560  209.8930  154.9460 C   0  0  2  0  0  3  0  0  0  0  0  0
  161.1770  207.3220  154.1090 C   0  0  0  0  0  1  0  0  0  0  0  0
  159.5060  211.7000  153.3830 C   0  0  1  0  0  3  0  0  0  0  0  0
  1 16  1  0  0  0  0
  2  8  2  0  0  0  0
  3 17  2  0  0  0  0
  4 20  1  0  0  0  0
  5 24  1  0  0  0  0
  5 27  1  1  0  0  0
  6  1  1  0  0  0  0
  8 14  1  0  0  0  0
  8  7  2  0  0  0  0
  9 18  1  0  0  0  0
  9 14  1  0  0  0  0
 10 26  1  0  0  0  0
 10  8  1  1  0  0  0
 11 15  2  0  0  0  0
 12 25  1  1  0  0  0
 12 28  1  0  0  0  0
 12 24  1  0  0  0  0
 13  9  2  0  0  0  0
 15 23  1  0  0  0  0
 15 19  1  0  0  0  0
 16 20  2  0  0  0  0
 16 28  1  0  0  0  0
 17  5  1  0  0  0  0
 19 25  1  0  0  0  0
 21 22  1  0  0  0  0
 21  1  2  0  0  0  0
 22  4  2  0  0  0  0
 23  6  1  0  0  0  0
 24 26  1  0  0  0  0
 25 17  1  0  0  0  0
 26 13  1  0  0  0  0
 28 10  1  0  0  0  0
M  END
>  <MODEL>
4

>  <REMARK>
 VINA RESULT:      -0.7     11.524     14.642
  Name = 
  0 active torsions:
  status: ('A' for Active; 'I' for Inactive)
                            x       y       z     vdW  Elec       q    Type
                         _______ _______ _______ _____ _____    ______ ____

>  <TORSDO>
F 0

$$$$
=
 OpenBabel11122414073D

 28 32  0  0  1  0  0  0  0  0999 V2000
  159.2650  213.0030  151.8570 C   0  0  0  0  0  0  0  0  0  0  0  0
  160.0220  214.4240  155.2060 O   0  0  0  0  0  0  0  0  0  0  0  0
  161.8680  207.6850  154.1250 O   0  0  0  0  0  0  0  0  0  0  0  0
  156.5040  213.2650  152.2630 C   0  0  0  0  0  3  0  0  0  0  0  0
  159.7510  208.2170  155.1870 C   0  0  2  0  0  3  0  0  0  0  0  0
  160.7190  212.8270  151.5590 C   0  0  0  0  0  2  0  0  0  0  0  0
  158.7820  213.8770  157.2600 O   0  0  0  0  0  0  0  0  0  0  0  0
  159.7370  213.3560  156.2250 S   0  0  0  0  0  0  0  0  0  0  0  0
  161.6220  211.5000  156.9120 C   0  0  0  0  0  0  0  0  0  0  0  0
  159.0390  211.9200  155.4470 C   0  0  2  0  0  3  0  0  0  0  0  0
  161.2990  209.3820  150.4620 O   0  0  0  0  0  0  0  0  0  0  0  0
  159.3820  210.1940  153.7840 C   0  0  2  0  0  3  0  0  0  0  0  0
  160.8330  210.5500  156.5010 N   0  0  0  0  0  0  0  0  0  0  0  0
  161.1980  212.8590  156.9820 N   0  0  0  0  0  2  0  0  0  0  0  0
  161.2970  210.3820  151.2250 C   0  0  0  0  0  0  0  0  0  0  0  0
  158.6740  212.4570  153.0150 C   0  0  0  0  0  0  0  0  0  0  0  0
  160.8660  208.4410  154.2390 C   0  0  0  0  0  0  0  0  0  0  0  0
  163.0270  211.1670  157.2610 C   0  0  0  0  0  1  0  0  0  0  0  0
  161.7180  210.2170  152.6490 C   0  0  0  0  0  2  0  0  0  0  0  0
  157.2860  212.5830  153.1980 C   0  0  0  0  0  3  0  0  0  0  0  0
  158.4730  213.6790  150.9230 C   0  0  0  0  0  3  0  0  0  0  0  0
  157.0980  213.8150  151.1260 C   0  0  0  0  0  3  0  0  0  0  0  0
  160.9080  211.6570  150.7130 N   0  0  0  0  0  2  0  0  0  0  0  0
  159.0040  209.5700  155.1410 C   0  0  2  0  0  3  0  0  0  0  0  0
  160.6600  209.5830  153.4290 N   0  0  0  0  0  0  0  0  0  0  0  0
  159.3950  210.6380  156.1820 C   0  0  2  0  0  3  0  0  0  0  0  0
  160.2010  207.7650  156.5710 C   0  0  0  0  0  1  0  0  0  0  0  0
  159.5060  211.7000  154.0160 C   0  0  1  0  0  3  0  0  0  0  0  0
  1 16  1  0  0  0  0
  2  8  2  0  0  0  0
  3 17  2  0  0  0  0
  4 20  1  0  0  0  0
  5 27  1  1  0  0  0
  6  1  1  0  0  0  0
  8 14  1  0  0  0  0
  8  7  2  0  0  0  0
  9 14  1  0  0  0  0
  9 18  1  0  0  0  0
 10 26  1  0  0  0  0
 10  8  1  1  0  0  0
 11 15  2  0  0  0  0
 12 25  1  1  0  0  0
 12 28  1  0  0  0  0
 12 24  1  0  0  0  0
 13  9  2  0  0  0  0
 15 19  1  0  0  0  0
 16 20  2  0  0  0  0
 16 28  1  0  0  0  0
 17  5  1  0  0  0  0
 19 25  1  0  0  0  0
 21 22  1  0  0  0  0
 21  1  2  0  0  0  0
 22  4  2  0  0  0  0
 23 15  1  0  0  0  0
 23  6  1  0  0  0  0
 24  5  1  0  0  0  0
 24 26  1  0  0  0  0
 25 17  1  0  0  0  0
 26 13  1  0  0  0  0
 28 10  1  0  0  0  0
M  END
>  <MODEL>
5

>  <REMARK>
 VINA RESULT:      -0.6     12.306     15.319
  Name = 
  0 active torsions:
  status: ('A' for Active; 'I' for Inactive)
                            x       y       z     vdW  Elec       q    Type
                         _______ _______ _______ _____ _____    ______ ____

>  <TORSDO>
F 0

$$$$
