=
 OpenBabel11122414023D

 37 43  0  0  1  0  0  0  0  0999 V2000
  160.7570  206.2390  150.0550 C   0  0  1  0  0  3  0  0  0  0  0  0
  160.4730  208.9900  151.9810 O   0  0  0  0  0  0  0  0  0  0  0  0
  160.8430  205.5230  147.5250 C   0  0  2  0  0  3  0  0  0  0  0  0
  161.5270  207.4420  150.4920 C   0  0  2  0  0  3  0  0  0  0  0  0
  160.5490  206.6060  148.5800 C   0  0  2  0  0  3  0  0  0  0  0  0
  161.3210  207.8700  151.9470 C   0  0  2  0  0  3  0  0  0  0  0  0
  161.8040  204.4530  148.0120 C   0  0  0  0  0  2  0  0  0  0  0  0
  161.2040  207.8300  148.3360 O   0  0  0  0  0  0  0  0  0  0  0  0
  161.2140  204.5670  151.6520 C   0  0  0  0  0  2  0  0  0  0  0  0
  161.3530  203.9970  149.3840 C   0  0  0  0  0  2  0  0  0  0  0  0
  162.7220  210.2030  151.8920 C   0  0  0  0  0  2  0  0  0  0  0  0
  161.2020  210.2160  152.0270 C   0  0  1  0  0  3  0  0  0  0  0  0
  161.6020  205.0710  150.3350 N   0  0  1  0  0  0  0  0  0  0  0  0
  161.1620  208.4750  149.5390 N   0  0  2  0  0  0  0  0  0  0  0  0
  160.8330  206.7500  152.8860 C   0  0  1  0  0  3  0  0  0  0  0  0
  161.8830  210.5810  150.6830 C   0  0  2  0  0  3  0  0  0  0  0  0
  162.1870  209.5210  149.6020 C   0  0  2  0  0  3  0  0  0  0  0  0
  161.6980  205.4870  152.7770 C   0  0  0  0  0  2  0  0  0  0  0  0
  159.9000  206.6160  155.2000 C   0  0  0  0  0  3  0  0  0  0  0  0
  160.7870  207.2240  154.3050 C   0  0  0  0  0  0  0  0  0  0  0  0
  161.6120  208.2710  154.7470 C   0  0  0  0  0  3  0  0  0  0  0  0
  162.3820  209.7630  156.5200 N   0  0  0  0  0  1  0  0  0  0  0  0
  160.6580  208.0910  156.9660 C   0  0  0  0  0  3  0  0  0  0  0  0
  161.5460  208.7020  156.0750 C   0  0  0  0  0  0  0  0  0  0  0  0
  159.8360  207.0480  156.5280 C   0  0  0  0  0  3  0  0  0  0  0  0
  162.3410  210.2440  148.2660 C   0  0  0  0  0  2  0  0  0  0  0  0
  162.1310  211.7410  148.4370 C   0  0  0  0  0  0  0  0  0  0  0  0
  163.3920  212.5710  148.4120 C   0  0  0  0  0  2  0  0  0  0  0  0
  162.4430  212.5780  147.2190 C   0  0  0  0  0  2  0  0  0  0  0  0
  161.0070  212.2850  149.3130 C   0  0  0  0  0  2  0  0  0  0  0  0
  160.4370  213.5810  148.7550 C   0  0  0  0  0  2  0  0  0  0  0  0
  159.1520  213.3670  148.2580 O   0  0  0  0  0  1  0  0  0  0  0  0
  161.3140  206.0880  146.3270 O   0  0  0  0  0  0  0  0  0  0  0  0
  160.6000  205.5120  145.2580 C   0  0  0  0  0  0  0  0  0  0  0  0
  160.6760  204.1290  145.3000 F   0  0  0  0  0  0  0  0  0  0  0  0
  159.2720  205.9110  145.2810 F   0  0  0  0  0  0  0  0  0  0  0  0
  161.1620  205.9440  144.0720 F   0  0  0  0  0  0  0  0  0  0  0  0
  1 13  1  0  0  0  0
  1  4  1  0  0  0  0
  2 12  1  0  0  0  0
  3  7  1  0  0  0  0
  3  5  1  0  0  0  0
  4  6  1  0  0  0  0
  5  1  1  0  0  0  0
  6  2  1  0  0  0  0
  6 15  1  0  0  0  0
  7 10  1  0  0  0  0
  8  5  1  0  0  0  0
  8 14  1  0  0  0  0
  9 18  1  0  0  0  0
 10 13  1  0  0  0  0
 11 12  1  0  0  0  0
 13  9  1  0  0  0  0
 14 17  1  0  0  0  0
 14  4  1  0  0  0  0
 15 20  1  0  0  0  0
 16 11  1  0  0  0  0
 16 12  1  0  0  0  0
 17 16  1  0  0  0  0
 18 15  1  0  0  0  0
 19 25  1  0  0  0  0
 20 21  1  0  0  0  0
 20 19  2  0  0  0  0
 21 24  2  0  0  0  0
 24 22  1  0  0  0  0
 24 23  1  0  0  0  0
 25 23  2  0  0  0  0
 26 27  1  0  0  0  0
 26 17  1  0  0  0  0
 27 30  1  0  0  0  0
 28 27  1  0  0  0  0
 29 28  1  0  0  0  0
 29 27  1  0  0  0  0
 31 30  1  0  0  0  0
 32 31  1  0  0  0  0
 33  3  1  0  0  0  0
 34 36  1  0  0  0  0
 34 35  1  0  0  0  0
 34 33  1  0  0  0  0
 37 34  1  0  0  0  0
M  END
>  <MODEL>
1

>  <REMARK>
 VINA RESULT:      -8.3      0.000      0.000
  Name = 
  7 active torsions:
  status: ('A' for Active; 'I' for Inactive)
    1  A    between atoms: C_1  and  C_4
    2  A    between atoms: C_1  and  C_27
    3  A    between atoms: C_2  and  O_22
    4  A    between atoms: C_4  and  C_12
    5  A    between atoms: C_6  and  O_22
    6  A    between atoms: C_8  and  C_12
    7  A    between atoms: C_23  and  C_30
                            x       y       z     vdW  Elec       q    Type
                         _______ _______ _______ _____ _____    ______ ____

>  <TORSDO>
F 7

$$$$
=
 OpenBabel11122414023D

 37 43  0  0  1  0  0  0  0  0999 V2000
  161.4440  211.6260  150.6700 C   0  0  1  0  0  3  0  0  0  0  0  0
  162.5720  208.8780  152.2620 O   0  0  0  0  0  0  0  0  0  0  0  0
  161.4540  212.7510  148.2930 C   0  0  2  0  0  3  0  0  0  0  0  0
  161.2030  210.1560  150.7730 C   0  0  2  0  0  3  0  0  0  0  0  0
  162.0150  211.6800  149.2470 C   0  0  2  0  0  3  0  0  0  0  0  0
  161.3440  209.5550  152.1740 C   0  0  2  0  0  3  0  0  0  0  0  0
  160.0660  213.2330  148.6750 C   0  0  0  0  0  2  0  0  0  0  0  0
  161.9900  210.3750  148.7150 O   0  0  0  0  0  0  0  0  0  0  0  0
  160.0770  212.6190  152.3130 C   0  0  0  0  0  2  0  0  0  0  0  0
  160.0600  213.5380  150.1590 C   0  0  0  0  0  2  0  0  0  0  0  0
  161.0980  206.9240  151.5210 C   0  0  0  0  0  2  0  0  0  0  0  0
  162.4380  207.4820  151.9940 C   0  0  1  0  0  3  0  0  0  0  0  0
  160.1500  212.2830  150.8920 N   0  0  1  0  0  0  0  0  0  0  0  0
  162.1160  209.5680  149.8090 N   0  0  2  0  0  0  0  0  0  0  0  0
  161.1560  210.5600  153.3270 C   0  0  1  0  0  3  0  0  0  0  0  0
  162.1940  207.1630  150.4970 C   0  0  2  0  0  3  0  0  0  0  0  0
  161.6380  208.2140  149.5110 C   0  0  2  0  0  3  0  0  0  0  0  0
  159.8630  211.3740  153.1800 C   0  0  0  0  0  2  0  0  0  0  0  0
  162.0460  210.3200  155.6500 C   0  0  0  0  0  3  0  0  0  0  0  0
  161.1790  209.8620  154.6510 C   0  0  0  0  0  0  0  0  0  0  0  0
  160.3530  208.7550  154.9040 C   0  0  0  0  0  3  0  0  0  0  0  0
  159.5610  206.9930  156.3980 N   0  0  0  0  0  1  0  0  0  0  0  0
  161.2660  208.5770  157.1400 C   0  0  0  0  0  3  0  0  0  0  0  0
  160.3980  208.1150  156.1460 C   0  0  0  0  0  0  0  0  0  0  0  0
  162.0890  209.6790  156.8920 C   0  0  0  0  0  3  0  0  0  0  0  0
  162.0170  207.7780  148.0970 C   0  0  0  0  0  2  0  0  0  0  0  0
  161.3780  206.4400  147.7570 C   0  0  0  0  0  0  0  0  0  0  0  0
  160.9230  206.2940  146.3260 C   0  0  0  0  0  2  0  0  0  0  0  0
  162.1720  205.5700  146.8120 C   0  0  0  0  0  2  0  0  0  0  0  0
  160.5530  205.6750  148.7880 C   0  0  0  0  0  2  0  0  0  0  0  0
  160.9520  204.2080  148.8490 C   0  0  0  0  0  2  0  0  0  0  0  0
  160.7880  203.7180  150.1440 O   0  0  0  0  0  1  0  0  0  0  0  0
  161.4600  212.3040  146.9600 O   0  0  0  0  0  0  0  0  0  0  0  0
  161.9430  213.3490  146.1470 C   0  0  0  0  0  0  0  0  0  0  0  0
  162.7160  214.2320  146.8830 F   0  0  0  0  0  0  0  0  0  0  0  0
  162.6840  212.8470  145.0870 F   0  0  0  0  0  0  0  0  0  0  0  0
  160.8630  214.0400  145.6320 F   0  0  0  0  0  0  0  0  0  0  0  0
  1  4  1  0  0  0  0
  1 13  1  0  0  0  0
  3  7  1  0  0  0  0
  3  5  1  0  0  0  0
  4  6  1  0  0  0  0
  5  1  1  0  0  0  0
  6  2  1  0  0  0  0
  6 15  1  0  0  0  0
  7 10  1  0  0  0  0
  8  5  1  0  0  0  0
  8 14  1  0  0  0  0
  9 18  1  0  0  0  0
 10 13  1  0  0  0  0
 11 12  1  0  0  0  0
 12  2  1  0  0  0  0
 13  9  1  0  0  0  0
 14  4  1  0  0  0  0
 15 20  1  0  0  0  0
 16 11  1  0  0  0  0
 16 12  1  0  0  0  0
 17 14  1  0  0  0  0
 17 16  1  0  0  0  0
 18 15  1  0  0  0  0
 19 25  1  0  0  0  0
 20 21  1  0  0  0  0
 20 19  2  0  0  0  0
 21 24  2  0  0  0  0
 24 22  1  0  0  0  0
 24 23  1  0  0  0  0
 25 23  2  0  0  0  0
 26 17  1  0  0  0  0
 27 26  1  0  0  0  0
 27 30  1  0  0  0  0
 28 29  1  0  0  0  0
 28 27  1  0  0  0  0
 29 27  1  0  0  0  0
 30 31  1  0  0  0  0
 31 32  1  0  0  0  0
 33  3  1  0  0  0  0
 34 35  1  0  0  0  0
 34 33  1  0  0  0  0
 36 34  1  0  0  0  0
 37 34  1  0  0  0  0
M  END
>  <MODEL>
2

>  <REMARK>
 VINA RESULT:      -8.0      2.949      5.890
  Name = 
  7 active torsions:
  status: ('A' for Active; 'I' for Inactive)
    1  A    between atoms: C_1  and  C_4
    2  A    between atoms: C_1  and  C_27
    3  A    between atoms: C_2  and  O_22
    4  A    between atoms: C_4  and  C_12
    5  A    between atoms: C_6  and  O_22
    6  A    between atoms: C_8  and  C_12
    7  A    between atoms: C_23  and  C_30
                            x       y       z     vdW  Elec       q    Type
                         _______ _______ _______ _____ _____    ______ ____

>  <TORSDO>
F 7

$$$$
=
 OpenBabel11122414023D

 37 43  0  0  1  0  0  0  0  0999 V2000
  159.8270  213.2390  150.7950 C   0  0  1  0  0  3  0  0  0  0  0  0
  160.3870  212.2210  153.9590 O   0  0  0  0  0  0  0  0  0  0  0  0
  160.9050  213.1280  148.3980 C   0  0  2  0  0  3  0  0  0  0  0  0
  159.8220  212.0100  151.6430 C   0  0  2  0  0  3  0  0  0  0  0  0
  161.0470  212.9250  149.9180 C   0  0  2  0  0  3  0  0  0  0  0  0
  159.2980  212.1890  153.0700 C   0  0  2  0  0  3  0  0  0  0  0  0
  159.4670  213.0710  147.9130 C   0  0  0  0  0  2  0  0  0  0  0  0
  161.5300  211.6520  150.2800 O   0  0  0  0  0  0  0  0  0  0  0  0
  157.6510  214.1330  150.9440 C   0  0  0  0  0  2  0  0  0  0  0  0
  158.6240  213.9420  148.8220 C   0  0  0  0  0  2  0  0  0  0  0  0
  159.8880  209.7140  154.0390 C   0  0  0  0  0  2  0  0  0  0  0  0
  160.6550  210.9400  154.5280 C   0  0  1  0  0  3  0  0  0  0  0  0
  158.5220  213.2940  150.1220 N   0  0  1  0  0  0  0  0  0  0  0  0
  161.1920  211.5300  151.5970 N   0  0  2  0  0  0  0  0  0  0  0  0
  158.3590  213.3950  153.2650 C   0  0  1  0  0  3  0  0  0  0  0  0
  161.3010  209.9450  153.5310 C   0  0  2  0  0  3  0  0  0  0  0  0
  161.1830  210.1200  152.0010 C   0  0  2  0  0  3  0  0  0  0  0  0
  157.2250  213.4180  152.2310 C   0  0  0  0  0  2  0  0  0  0  0  0
  158.2010  214.4140  155.5420 C   0  0  0  0  0  3  0  0  0  0  0  0
  157.7950  213.4130  154.6510 C   0  0  0  0  0  0  0  0  0  0  0  0
  156.8740  212.4410  155.0740 C   0  0  0  0  0  3  0  0  0  0  0  0
  155.4350  211.4870  156.8000 N   0  0  0  0  0  1  0  0  0  0  0  0
  156.7750  213.4760  157.2610 C   0  0  0  0  0  3  0  0  0  0  0  0
  156.3670  212.4740  156.3760 C   0  0  0  0  0  0  0  0  0  0  0  0
  157.6920  214.4460  156.8430 C   0  0  0  0  0  3  0  0  0  0  0  0
  162.3220  209.3380  151.3500 C   0  0  0  0  0  2  0  0  0  0  0  0
  161.7980  208.0650  150.7000 C   0  0  0  0  0  0  0  0  0  0  0  0
  162.3650  206.7830  151.2590 C   0  0  0  0  0  2  0  0  0  0  0  0
  160.9360  207.1990  151.5870 C   0  0  0  0  0  2  0  0  0  0  0  0
  161.4310  208.0300  149.2200 C   0  0  0  0  0  2  0  0  0  0  0  0
  161.4830  206.6140  148.6630 C   0  0  0  0  0  2  0  0  0  0  0  0
  160.2150  206.2150  148.2440 O   0  0  0  0  0  1  0  0  0  0  0  0
  161.6930  212.2100  147.6830 O   0  0  0  0  0  0  0  0  0  0  0  0
  162.8080  212.8970  147.1630 C   0  0  0  0  0  0  0  0  0  0  0  0
  162.9350  214.1480  147.7470 F   0  0  0  0  0  0  0  0  0  0  0  0
  163.9710  212.1670  147.3580 F   0  0  0  0  0  0  0  0  0  0  0  0
  162.6250  213.0670  145.8040 F   0  0  0  0  0  0  0  0  0  0  0  0
  1  4  1  0  0  0  0
  2 12  1  0  0  0  0
  3  5  1  0  0  0  0
  4  6  1  0  0  0  0
  5  8  1  0  0  0  0
  5  1  1  0  0  0  0
  6 15  1  0  0  0  0
  6  2  1  0  0  0  0
  7  3  1  0  0  0  0
  7 10  1  0  0  0  0
  8 14  1  0  0  0  0
  9 18  1  0  0  0  0
 10 13  1  0  0  0  0
 11 12  1  0  0  0  0
 13  1  1  0  0  0  0
 13  9  1  0  0  0  0
 14  4  1  0  0  0  0
 14 17  1  0  0  0  0
 15 20  1  0  0  0  0
 16 11  1  0  0  0  0
 16 12  1  0  0  0  0
 17 16  1  0  0  0  0
 18 15  1  0  0  0  0
 19 25  1  0  0  0  0
 20 21  1  0  0  0  0
 20 19  2  0  0  0  0
 21 24  2  0  0  0  0
 24 22  1  0  0  0  0
 24 23  1  0  0  0  0
 25 23  2  0  0  0  0
 26 17  1  0  0  0  0
 27 28  1  0  0  0  0
 27 26  1  0  0  0  0
 27 29  1  0  0  0  0
 28 29  1  0  0  0  0
 30 27  1  0  0  0  0
 31 30  1  0  0  0  0
 32 31  1  0  0  0  0
 33  3  1  0  0  0  0
 34 36  1  0  0  0  0
 34 33  1  0  0  0  0
 34 35  1  0  0  0  0
 37 34  1  0  0  0  0
M  END
>  <MODEL>
3

>  <REMARK>
 VINA RESULT:      -7.5      4.234      6.797
  Name = 
  7 active torsions:
  status: ('A' for Active; 'I' for Inactive)
    1  A    between atoms: C_1  and  C_4
    2  A    between atoms: C_1  and  C_27
    3  A    between atoms: C_2  and  O_22
    4  A    between atoms: C_4  and  C_12
    5  A    between atoms: C_6  and  O_22
    6  A    between atoms: C_8  and  C_12
    7  A    between atoms: C_23  and  C_30
                            x       y       z     vdW  Elec       q    Type
                         _______ _______ _______ _____ _____    ______ ____

>  <TORSDO>
F 7

$$$$
=
 OpenBabel11122414023D

 37 43  0  0  1  0  0  0  0  0999 V2000
  160.9140  204.6730  150.7700 C   0  0  1  0  0  3  0  0  0  0  0  0
  160.7250  207.7480  149.4030 O   0  0  0  0  0  0  0  0  0  0  0  0
  161.1050  202.1430  150.0760 C   0  0  2  0  0  3  0  0  0  0  0  0
  161.7470  205.6840  150.0540 C   0  0  2  0  0  3  0  0  0  0  0  0
  160.8310  203.6040  149.6730 C   0  0  2  0  0  3  0  0  0  0  0  0
  161.4820  207.1460  150.4230 C   0  0  2  0  0  3  0  0  0  0  0  0
  161.9450  202.0120  151.3340 C   0  0  0  0  0  2  0  0  0  0  0  0
  161.5950  204.0440  148.5740 O   0  0  0  0  0  0  0  0  0  0  0  0
  161.1340  205.1670  153.0650 C   0  0  0  0  0  2  0  0  0  0  0  0
  161.3730  202.9380  152.3870 C   0  0  0  0  0  2  0  0  0  0  0  0
  163.0640  208.3360  148.5550 C   0  0  0  0  0  2  0  0  0  0  0  0
  161.5450  208.4370  148.4600 C   0  0  1  0  0  3  0  0  0  0  0  0
  161.6440  204.3140  151.9930 N   0  0  1  0  0  0  0  0  0  0  0  0
  161.5270  205.4060  148.6460 N   0  0  2  0  0  0  0  0  0  0  0  0
  160.8480  207.3550  151.8120 C   0  0  1  0  0  3  0  0  0  0  0  0
  162.3370  207.4910  147.5230 C   0  0  2  0  0  3  0  0  0  0  0  0
  162.6260  206.0190  147.8930 C   0  0  2  0  0  3  0  0  0  0  0  0
  161.6160  206.6140  152.9160 C   0  0  0  0  0  2  0  0  0  0  0  0
  161.5960  209.7170  151.4900 C   0  0  0  0  0  3  0  0  0  0  0  0
  160.7490  208.8120  152.1400 C   0  0  0  0  0  0  0  0  0  0  0  0
  159.8290  209.2820  153.0910 C   0  0  0  0  0  3  0  0  0  0  0  0
  158.8290  211.1190  154.3500 N   0  0  0  0  0  1  0  0  0  0  0  0
  160.6090  211.5470  152.7330 C   0  0  0  0  0  3  0  0  0  0  0  0
  159.7610  210.6460  153.3850 C   0  0  0  0  0  0  0  0  0  0  0  0
  161.5270  211.0810  151.7860 C   0  0  0  0  0  3  0  0  0  0  0  0
  162.9220  205.2600  146.6020 C   0  0  0  0  0  2  0  0  0  0  0  0
  161.6360  204.9630  145.8450 C   0  0  0  0  0  0  0  0  0  0  0  0
  160.5900  206.0490  145.9110 C   0  0  0  0  0  2  0  0  0  0  0  0
  161.3890  205.8300  144.6330 C   0  0  0  0  0  2  0  0  0  0  0  0
  161.0970  203.5400  145.7330 C   0  0  0  0  0  2  0  0  0  0  0  0
  160.0890  203.4100  144.6000 C   0  0  0  0  0  2  0  0  0  0  0  0
  159.6380  202.0940  144.5070 O   0  0  0  0  0  1  0  0  0  0  0  0
  161.6960  201.4230  149.0230 O   0  0  0  0  0  0  0  0  0  0  0  0
  160.6770  200.7340  148.3350 C   0  0  0  0  0  0  0  0  0  0  0  0
  160.0810  201.5500  147.3870 F   0  0  0  0  0  0  0  0  0  0  0  0
  161.1790  199.5940  147.7240 F   0  0  0  0  0  0  0  0  0  0  0  0
  159.7130  200.3490  149.2470 F   0  0  0  0  0  0  0  0  0  0  0  0
  1 13  1  0  0  0  0
  2  6  1  0  0  0  0
  3  7  1  0  0  0  0
  4  6  1  0  0  0  0
  4  1  1  0  0  0  0
  5  3  1  0  0  0  0
  5  1  1  0  0  0  0
  6 15  1  0  0  0  0
  7 10  1  0  0  0  0
  8 14  1  0  0  0  0
  8  5  1  0  0  0  0
 12 11  1  0  0  0  0
 12  2  1  0  0  0  0
 13 10  1  0  0  0  0
 13  9  1  0  0  0  0
 14  4  1  0  0  0  0
 15 20  1  0  0  0  0
 15 18  1  0  0  0  0
 16 17  1  0  0  0  0
 16 12  1  0  0  0  0
 16 11  1  0  0  0  0
 17 14  1  0  0  0  0
 18  9  1  0  0  0  0
 19 25  2  0  0  0  0
 19 20  1  0  0  0  0
 20 21  2  0  0  0  0
 21 24  1  0  0  0  0
 23 24  2  0  0  0  0
 24 22  1  0  0  0  0
 25 23  1  0  0  0  0
 26 17  1  0  0  0  0
 27 28  1  0  0  0  0
 27 26  1  0  0  0  0
 29 27  1  0  0  0  0
 29 28  1  0  0  0  0
 30 27  1  0  0  0  0
 31 30  1  0  0  0  0
 32 31  1  0  0  0  0
 33  3  1  0  0  0  0
 34 33  1  0  0  0  0
 34 37  1  0  0  0  0
 35 34  1  0  0  0  0
 36 34  1  0  0  0  0
M  END
>  <MODEL>
4

>  <REMARK>
 VINA RESULT:      -6.3      2.919      5.308
  Name = 
  7 active torsions:
  status: ('A' for Active; 'I' for Inactive)
    1  A    between atoms: C_1  and  C_4
    2  A    between atoms: C_1  and  C_27
    3  A    between atoms: C_2  and  O_22
    4  A    between atoms: C_4  and  C_12
    5  A    between atoms: C_6  and  O_22
    6  A    between atoms: C_8  and  C_12
    7  A    between atoms: C_23  and  C_30
                            x       y       z     vdW  Elec       q    Type
                         _______ _______ _______ _____ _____    ______ ____

>  <TORSDO>
F 7

$$$$
=
 OpenBabel11122414023D

 37 43  0  0  1  0  0  0  0  0999 V2000
  162.0320  206.9960  150.1410 C   0  0  1  0  0  3  0  0  0  0  0  0
  162.5480  210.0310  151.5120 O   0  0  0  0  0  0  0  0  0  0  0  0
  161.7990  204.4660  150.8210 C   0  0  2  0  0  3  0  0  0  0  0  0
  161.3490  208.0340  150.9700 C   0  0  2  0  0  3  0  0  0  0  0  0
  162.1970  205.9040  151.2060 C   0  0  2  0  0  3  0  0  0  0  0  0
  161.6400  209.4870  150.5890 C   0  0  2  0  0  3  0  0  0  0  0  0
  160.8020  204.4010  149.6780 C   0  0  0  0  0  2  0  0  0  0  0  0
  161.6000  206.3600  152.3980 O   0  0  0  0  0  0  0  0  0  0  0  0
  161.5520  207.5450  147.8990 C   0  0  0  0  0  2  0  0  0  0  0  0
  161.2850  205.3170  148.5730 C   0  0  0  0  0  2  0  0  0  0  0  0
  160.3680  210.7180  152.6570 C   0  0  0  0  0  2  0  0  0  0  0  0
  161.8900  210.7420  152.5600 C   0  0  1  0  0  3  0  0  0  0  0  0
  161.1360  206.6970  149.0160 N   0  0  1  0  0  0  0  0  0  0  0  0
  161.7290  207.7180  152.3350 N   0  0  2  0  0  0  0  0  0  0  0  0
  162.1050  209.6910  149.1340 C   0  0  1  0  0  3  0  0  0  0  0  0
  161.1740  209.8190  153.5780 C   0  0  2  0  0  3  0  0  0  0  0  0
  160.7660  208.3700  153.2280 C   0  0  2  0  0  3  0  0  0  0  0  0
  161.1670  209.0100  148.1260 C   0  0  0  0  0  2  0  0  0  0  0  0
  163.3680  211.5960  148.1240 C   0  0  0  0  0  3  0  0  0  0  0  0
  162.2360  211.1470  148.8150 C   0  0  0  0  0  0  0  0  0  0  0  0
  161.2500  212.0680  149.2020 C   0  0  0  0  0  3  0  0  0  0  0  0
  160.3980  214.3550  149.2950 N   0  0  0  0  0  1  0  0  0  0  0  0
  162.5310  213.8670  148.2090 C   0  0  0  0  0  3  0  0  0  0  0  0
  161.3990  213.4240  148.9000 C   0  0  0  0  0  0  0  0  0  0  0  0
  163.5150  212.9530  147.8220 C   0  0  0  0  0  3  0  0  0  0  0  0
  160.5960  207.6020  154.5370 C   0  0  0  0  0  2  0  0  0  0  0  0
  160.4750  208.5610  155.7120 C   0  0  0  0  0  0  0  0  0  0  0  0
  160.8940  207.9920  157.0460 C   0  0  0  0  0  2  0  0  0  0  0  0
  161.7850  208.9950  156.3250 C   0  0  0  0  0  2  0  0  0  0  0  0
  159.3670  209.6080  155.7650 C   0  0  0  0  0  2  0  0  0  0  0  0
  159.6730  210.6970  156.7830 C   0  0  0  0  0  2  0  0  0  0  0  0
  159.8100  211.9290  156.1440 O   0  0  0  0  0  1  0  0  0  0  0  0
  161.3090  203.7560  151.9320 O   0  0  0  0  0  0  0  0  0  0  0  0
  161.3640  202.3800  151.6340 C   0  0  0  0  0  0  0  0  0  0  0  0
  161.1910  202.1600  150.2770 F   0  0  0  0  0  0  0  0  0  0  0  0
  162.5700  201.8340  152.0480 F   0  0  0  0  0  0  0  0  0  0  0  0
  160.3430  201.7430  152.3130 F   0  0  0  0  0  0  0  0  0  0  0  0
  1  4  1  0  0  0  0
  1  5  1  0  0  0  0
  2 12  1  0  0  0  0
  3  5  1  0  0  0  0
  3 33  1  0  0  0  0
  4 14  1  0  0  0  0
  5  8  1  0  0  0  0
  6  4  1  0  0  0  0
  6  2  1  0  0  0  0
  7  3  1  0  0  0  0
  9 18  1  0  0  0  0
  9 13  1  0  0  0  0
 10 13  1  0  0  0  0
 10  7  1  0  0  0  0
 11 16  1  0  0  0  0
 12 11  1  0  0  0  0
 12 16  1  0  0  0  0
 13  1  1  0  0  0  0
 14  8  1  0  0  0  0
 14 17  1  0  0  0  0
 15  6  1  0  0  0  0
 17 16  1  0  0  0  0
 17 26  1  0  0  0  0
 18 15  1  0  0  0  0
 19 20  1  0  0  0  0
 20 15  1  0  0  0  0
 20 21  2  0  0  0  0
 23 24  2  0  0  0  0
 24 21  1  0  0  0  0
 24 22  1  0  0  0  0
 25 19  2  0  0  0  0
 25 23  1  0  0  0  0
 26 27  1  0  0  0  0
 27 30  1  0  0  0  0
 27 29  1  0  0  0  0
 27 28  1  0  0  0  0
 29 28  1  0  0  0  0
 30 31  1  0  0  0  0
 32 31  1  0  0  0  0
 34 33  1  0  0  0  0
 34 36  1  0  0  0  0
 34 37  1  0  0  0  0
 35 34  1  0  0  0  0
M  END
>  <MODEL>
5

>  <REMARK>
 VINA RESULT:      -6.3      2.850      6.445
  Name = 
  7 active torsions:
  status: ('A' for Active; 'I' for Inactive)
    1  A    between atoms: C_1  and  C_4
    2  A    between atoms: C_1  and  C_27
    3  A    between atoms: C_2  and  O_22
    4  A    between atoms: C_4  and  C_12
    5  A    between atoms: C_6  and  O_22
    6  A    between atoms: C_8  and  C_12
    7  A    between atoms: C_23  and  C_30
                            x       y       z     vdW  Elec       q    Type
                         _______ _______ _______ _____ _____    ______ ____

>  <TORSDO>
F 7

$$$$
=
 OpenBabel11122414023D

 37 43  0  0  1  0  0  0  0  0999 V2000
  160.7150  203.2880  149.3380 C   0  0  1  0  0  3  0  0  0  0  0  0
  160.6890  206.6540  149.1710 O   0  0  0  0  0  0  0  0  0  0  0  0
  160.6950  201.1700  147.7780 C   0  0  2  0  0  3  0  0  0  0  0  0
  161.5870  204.4450  148.9750 C   0  0  2  0  0  3  0  0  0  0  0  0
  160.5090  202.6910  147.9400 C   0  0  2  0  0  3  0  0  0  0  0  0
  161.4440  205.6870  149.8570 C   0  0  2  0  0  3  0  0  0  0  0  0
  161.5760  200.5530  148.8480 C   0  0  0  0  0  2  0  0  0  0  0  0
  161.2540  203.4560  147.0210 O   0  0  0  0  0  0  0  0  0  0  0  0
  161.0680  202.9130  151.6380 C   0  0  0  0  0  2  0  0  0  0  0  0
  161.1180  201.0670  150.1970 C   0  0  0  0  0  2  0  0  0  0  0  0
  163.0250  207.3870  148.4350 C   0  0  0  0  0  2  0  0  0  0  0  0
  161.5140  207.5930  148.4830 C   0  0  1  0  0  3  0  0  0  0  0  0
  161.4700  202.4760  150.3020 N   0  0  1  0  0  0  0  0  0  0  0  0
  161.2870  204.7030  147.5780 N   0  0  2  0  0  0  0  0  0  0  0  0
  160.8860  205.4150  151.2670 C   0  0  1  0  0  3  0  0  0  0  0  0
  162.1960  207.0080  147.2200 C   0  0  2  0  0  3  0  0  0  0  0  0
  162.3940  205.4880  147.0220 C   0  0  2  0  0  3  0  0  0  0  0  0
  161.6460  204.2890  151.9820 C   0  0  0  0  0  2  0  0  0  0  0  0
  160.8890  206.5510  153.4940 C   0  0  0  0  0  3  0  0  0  0  0  0
  160.9070  206.6600  152.0980 C   0  0  0  0  0  0  0  0  0  0  0  0
  160.9340  207.9320  151.5020 C   0  0  0  0  0  3  0  0  0  0  0  0
  160.9720  210.3660  151.6920 N   0  0  0  0  0  1  0  0  0  0  0  0
  160.9280  208.9650  153.6930 C   0  0  0  0  0  3  0  0  0  0  0  0
  160.9450  209.0800  152.2990 C   0  0  0  0  0  0  0  0  0  0  0  0
  160.9000  207.7000  154.2890 C   0  0  0  0  0  3  0  0  0  0  0  0
  162.5790  205.2300  145.5290 C   0  0  0  0  0  2  0  0  0  0  0  0
  161.3920  205.7610  144.7390 C   0  0  0  0  0  0  0  0  0  0  0  0
  160.1970  204.8410  144.6840 C   0  0  0  0  0  2  0  0  0  0  0  0
  160.1680  206.0870  145.5600 C   0  0  0  0  0  2  0  0  0  0  0  0
  161.5940  206.6480  143.5140 C   0  0  0  0  0  2  0  0  0  0  0  0
  161.6350  205.8300  142.2310 C   0  0  0  0  0  2  0  0  0  0  0  0
  161.9820  206.6440  141.1530 O   0  0  0  0  0  1  0  0  0  0  0  0
  161.1860  200.8470  146.5000 O   0  0  0  0  0  0  0  0  0  0  0  0
  160.1170  200.9180  145.5860 C   0  0  0  0  0  0  0  0  0  0  0  0
  159.9640  199.7170  144.9100 F   0  0  0  0  0  0  0  0  0  0  0  0
  158.9350  201.2450  146.2340 F   0  0  0  0  0  0  0  0  0  0  0  0
  160.3930  201.9060  144.6610 F   0  0  0  0  0  0  0  0  0  0  0  0
  1 13  1  0  0  0  0
  2  6  1  0  0  0  0
  3  5  1  0  0  0  0
  3  7  1  0  0  0  0
  4  1  1  0  0  0  0
  4  6  1  0  0  0  0
  5  1  1  0  0  0  0
  6 15  1  0  0  0  0
  7 10  1  0  0  0  0
  8 14  1  0  0  0  0
  8  5  1  0  0  0  0
  9 18  1  0  0  0  0
 10 13  1  0  0  0  0
 11 12  1  0  0  0  0
 12  2  1  0  0  0  0
 13  9  1  0  0  0  0
 14  4  1  0  0  0  0
 15 18  1  0  0  0  0
 15 20  1  0  0  0  0
 16 11  1  0  0  0  0
 16 12  1  0  0  0  0
 17 16  1  0  0  0  0
 17 14  1  0  0  0  0
 19 25  1  0  0  0  0
 20 19  2  0  0  0  0
 21 20  1  0  0  0  0
 21 24  2  0  0  0  0
 22 24  1  0  0  0  0
 23 25  2  0  0  0  0
 24 23  1  0  0  0  0
 26 17  1  0  0  0  0
 27 26  1  0  0  0  0
 27 29  1  0  0  0  0
 28 27  1  0  0  0  0
 28 29  1  0  0  0  0
 30 27  1  0  0  0  0
 31 30  1  0  0  0  0
 32 31  1  0  0  0  0
 33  3  1  0  0  0  0
 34 36  1  0  0  0  0
 34 33  1  0  0  0  0
 35 34  1  0  0  0  0
 37 34  1  0  0  0  0
M  END
>  <MODEL>
6

>  <REMARK>
 VINA RESULT:      -6.1      3.016      4.996
  Name = 
  7 active torsions:
  status: ('A' for Active; 'I' for Inactive)
    1  A    between atoms: C_1  and  C_4
    2  A    between atoms: C_1  and  C_27
    3  A    between atoms: C_2  and  O_22
    4  A    between atoms: C_4  and  C_12
    5  A    between atoms: C_6  and  O_22
    6  A    between atoms: C_8  and  C_12
    7  A    between atoms: C_23  and  C_30
                            x       y       z     vdW  Elec       q    Type
                         _______ _______ _______ _____ _____    ______ ____

>  <TORSDO>
F 7

$$$$
=
 OpenBabel11122414023D

 37 43  0  0  1  0  0  0  0  0999 V2000
  161.7320  207.2470  152.6220 C   0  0  1  0  0  3  0  0  0  0  0  0
  162.7240  206.9020  149.4190 O   0  0  0  0  0  0  0  0  0  0  0  0
  161.8390  208.9590  154.6150 C   0  0  2  0  0  3  0  0  0  0  0  0
  161.4380  207.7530  151.2480 C   0  0  2  0  0  3  0  0  0  0  0  0
  162.3390  208.5200  153.2260 C   0  0  2  0  0  3  0  0  0  0  0  0
  161.5230  206.7180  150.1250 C   0  0  2  0  0  3  0  0  0  0  0  0
  160.4600  208.4250  154.9570 C   0  0  0  0  0  2  0  0  0  0  0  0
  162.2820  209.5370  152.2530 O   0  0  0  0  0  0  0  0  0  0  0  0
  160.3600  205.3530  152.9170 C   0  0  0  0  0  2  0  0  0  0  0  0
  160.4280  206.9460  154.6330 C   0  0  0  0  0  2  0  0  0  0  0  0
  161.2020  208.3870  147.9990 C   0  0  0  0  0  2  0  0  0  0  0  0
  162.5480  207.7170  148.2610 C   0  0  1  0  0  3  0  0  0  0  0  0
  160.4560  206.7870  153.1860 N   0  0  1  0  0  0  0  0  0  0  0  0
  162.3530  208.8650  151.0660 N   0  0  2  0  0  0  0  0  0  0  0  0
  161.3410  205.2570  150.5800 C   0  0  1  0  0  3  0  0  0  0  0  0
  162.3310  209.2160  148.5880 C   0  0  2  0  0  3  0  0  0  0  0  0
  161.8360  209.6930  149.9720 C   0  0  2  0  0  3  0  0  0  0  0  0
  160.0810  205.0710  151.4370 C   0  0  0  0  0  2  0  0  0  0  0  0
  160.9730  202.9870  149.6020 C   0  0  0  0  0  3  0  0  0  0  0  0
  161.3070  204.3310  149.4040 C   0  0  0  0  0  0  0  0  0  0  0  0
  161.6120  204.7870  148.1120 C   0  0  0  0  0  3  0  0  0  0  0  0
  161.8920  204.3670  145.7230 N   0  0  0  0  0  1  0  0  0  0  0  0
  161.2460  202.5600  147.2340 C   0  0  0  0  0  3  0  0  0  0  0  0
  161.5810  203.9020  147.0310 C   0  0  0  0  0  0  0  0  0  0  0  0
  160.9420  202.1030  148.5200 C   0  0  0  0  0  3  0  0  0  0  0  0
  162.2340  211.1580  150.1330 C   0  0  0  0  0  2  0  0  0  0  0  0
  161.9340  211.9410  148.8630 C   0  0  0  0  0  0  0  0  0  0  0  0
  160.5140  211.8280  148.3630 C   0  0  0  0  0  2  0  0  0  0  0  0
  160.9930  213.1090  149.0350 C   0  0  0  0  0  2  0  0  0  0  0  0
  162.9950  212.1300  147.7830 C   0  0  0  0  0  2  0  0  0  0  0  0
  162.7060  213.3500  146.9200 C   0  0  0  0  0  2  0  0  0  0  0  0
  162.3660  212.9530  145.6270 O   0  0  0  0  0  1  0  0  0  0  0  0
  161.8630  210.3590  154.7490 O   0  0  0  0  0  0  0  0  0  0  0  0
  162.5900  210.6780  155.9130 C   0  0  0  0  0  0  0  0  0  0  0  0
  161.9880  211.7180  156.6030 F   0  0  0  0  0  0  0  0  0  0  0  0
  162.7070  209.5710  156.7400 F   0  0  0  0  0  0  0  0  0  0  0  0
  163.8600  211.0780  155.5420 F   0  0  0  0  0  0  0  0  0  0  0  0
  1 13  1  0  0  0  0
  1  5  1  0  0  0  0
  2  6  1  0  0  0  0
  3 33  1  0  0  0  0
  3  7  1  0  0  0  0
  4  1  1  0  0  0  0
  5  3  1  0  0  0  0
  6 15  1  0  0  0  0
  6  4  1  0  0  0  0
  8  5  1  0  0  0  0
  9 13  1  0  0  0  0
 10  7  1  0  0  0  0
 11 12  1  0  0  0  0
 11 16  1  0  0  0  0
 12 16  1  0  0  0  0
 12  2  1  0  0  0  0
 13 10  1  0  0  0  0
 14  4  1  0  0  0  0
 14  8  1  0  0  0  0
 15 18  1  0  0  0  0
 16 17  1  0  0  0  0
 17 26  1  0  0  0  0
 17 14  1  0  0  0  0
 18  9  1  0  0  0  0
 20 19  1  0  0  0  0
 20 15  1  0  0  0  0
 21 20  2  0  0  0  0
 22 24  1  0  0  0  0
 23 25  1  0  0  0  0
 24 23  2  0  0  0  0
 24 21  1  0  0  0  0
 25 19  2  0  0  0  0
 27 29  1  0  0  0  0
 27 26  1  0  0  0  0
 28 27  1  0  0  0  0
 28 29  1  0  0  0  0
 30 27  1  0  0  0  0
 31 30  1  0  0  0  0
 32 31  1  0  0  0  0
 33 34  1  0  0  0  0
 34 35  1  0  0  0  0
 34 36  1  0  0  0  0
 37 34  1  0  0  0  0
M  END
>  <MODEL>
7

>  <REMARK>
 VINA RESULT:      -6.0      4.040      6.818
  Name = 
  7 active torsions:
  status: ('A' for Active; 'I' for Inactive)
    1  A    between atoms: C_1  and  C_4
    2  A    between atoms: C_1  and  C_27
    3  A    between atoms: C_2  and  O_22
    4  A    between atoms: C_4  and  C_12
    5  A    between atoms: C_6  and  O_22
    6  A    between atoms: C_8  and  C_12
    7  A    between atoms: C_23  and  C_30
                            x       y       z     vdW  Elec       q    Type
                         _______ _______ _______ _____ _____    ______ ____

>  <TORSDO>
F 7

$$$$
=
 OpenBabel11122414023D

 37 43  0  0  1  0  0  0  0  0999 V2000
  160.7340  203.3250  149.4240 C   0  0  1  0  0  3  0  0  0  0  0  0
  160.7030  206.6950  149.3760 O   0  0  0  0  0  0  0  0  0  0  0  0
  160.7690  201.2650  147.7890 C   0  0  2  0  0  3  0  0  0  0  0  0
  161.6130  204.4960  149.1300 C   0  0  2  0  0  3  0  0  0  0  0  0
  160.5730  202.7780  148.0000 C   0  0  2  0  0  3  0  0  0  0  0  0
  161.4390  205.7060  150.0500 C   0  0  2  0  0  3  0  0  0  0  0  0
  161.6190  200.6110  148.8640 C   0  0  0  0  0  2  0  0  0  0  0  0
  161.3440  203.5770  147.1330 O   0  0  0  0  0  0  0  0  0  0  0  0
  161.0180  202.8680  151.7190 C   0  0  0  0  0  2  0  0  0  0  0  0
  161.1170  201.0750  150.2150 C   0  0  0  0  0  2  0  0  0  0  0  0
  163.0590  207.4580  148.7400 C   0  0  0  0  0  2  0  0  0  0  0  0
  161.5460  207.6600  148.7480 C   0  0  1  0  0  3  0  0  0  0  0  0
  161.4620  202.4810  150.3810 N   0  0  1  0  0  0  0  0  0  0  0  0
  161.3560  204.8030  147.7340 N   0  0  2  0  0  0  0  0  0  0  0  0
  160.8400  205.3830  151.4330 C   0  0  1  0  0  3  0  0  0  0  0  0
  162.2680  207.1210  147.4870 C   0  0  2  0  0  3  0  0  0  0  0  0
  162.4770  205.6100  147.2410 C   0  0  2  0  0  3  0  0  0  0  0  0
  161.5810  204.2330  152.1300 C   0  0  0  0  0  2  0  0  0  0  0  0
  160.8360  206.4370  153.6980 C   0  0  0  0  0  3  0  0  0  0  0  0
  160.8310  206.5970  152.3080 C   0  0  0  0  0  0  0  0  0  0  0  0
  160.8090  207.8890  151.7580 C   0  0  0  0  0  3  0  0  0  0  0  0
  160.7700  210.3150  152.0350 N   0  0  0  0  0  1  0  0  0  0  0  0
  160.7990  208.8420  153.9840 C   0  0  0  0  0  3  0  0  0  0  0  0
  160.7930  209.0070  152.5960 C   0  0  0  0  0  0  0  0  0  0  0  0
  160.8200  207.5570  154.5350 C   0  0  0  0  0  3  0  0  0  0  0  0
  162.7080  205.4060  145.7460 C   0  0  0  0  0  2  0  0  0  0  0  0
  161.3840  205.3180  145.0030 C   0  0  0  0  0  0  0  0  0  0  0  0
  160.3940  206.4100  145.3280 C   0  0  0  0  0  2  0  0  0  0  0  0
  161.1360  206.4160  143.9970 C   0  0  0  0  0  2  0  0  0  0  0  0
  160.7730  203.9680  144.6370 C   0  0  0  0  0  2  0  0  0  0  0  0
  159.2530  204.0360  144.5840 C   0  0  0  0  0  2  0  0  0  0  0  0
  158.7560  203.0330  143.7530 O   0  0  0  0  0  1  0  0  0  0  0  0
  161.3000  200.9890  146.5170 O   0  0  0  0  0  0  0  0  0  0  0  0
  160.2750  200.4400  145.7210 C   0  0  0  0  0  0  0  0  0  0  0  0
  160.3290  199.0550  145.7310 F   0  0  0  0  0  0  0  0  0  0  0  0
  159.0300  200.8650  146.1590 F   0  0  0  0  0  0  0  0  0  0  0  0
  160.4500  200.8740  144.4210 F   0  0  0  0  0  0  0  0  0  0  0  0
  1 13  1  0  0  0  0
  2  6  1  0  0  0  0
  3  5  1  0  0  0  0
  3  7  1  0  0  0  0
  4  1  1  0  0  0  0
  4  6  1  0  0  0  0
  5  1  1  0  0  0  0
  6 15  1  0  0  0  0
  7 10  1  0  0  0  0
  8 14  1  0  0  0  0
  8  5  1  0  0  0  0
  9 18  1  0  0  0  0
 10 13  1  0  0  0  0
 11 12  1  0  0  0  0
 12  2  1  0  0  0  0
 13  9  1  0  0  0  0
 14  4  1  0  0  0  0
 15 18  1  0  0  0  0
 15 20  1  0  0  0  0
 16 11  1  0  0  0  0
 16 12  1  0  0  0  0
 17 16  1  0  0  0  0
 17 14  1  0  0  0  0
 19 25  1  0  0  0  0
 20 19  2  0  0  0  0
 21 20  1  0  0  0  0
 21 24  2  0  0  0  0
 22 24  1  0  0  0  0
 23 25  2  0  0  0  0
 24 23  1  0  0  0  0
 26 17  1  0  0  0  0
 27 28  1  0  0  0  0
 27 26  1  0  0  0  0
 29 27  1  0  0  0  0
 29 28  1  0  0  0  0
 30 27  1  0  0  0  0
 31 30  1  0  0  0  0
 32 31  1  0  0  0  0
 33  3  1  0  0  0  0
 34 35  1  0  0  0  0
 34 36  1  0  0  0  0
 34 33  1  0  0  0  0
 37 34  1  0  0  0  0
M  END
>  <MODEL>
8

>  <REMARK>
 VINA RESULT:      -6.0      3.125      5.053
  Name = 
  7 active torsions:
  status: ('A' for Active; 'I' for Inactive)
    1  A    between atoms: C_1  and  C_4
    2  A    between atoms: C_1  and  C_27
    3  A    between atoms: C_2  and  O_22
    4  A    between atoms: C_4  and  C_12
    5  A    between atoms: C_6  and  O_22
    6  A    between atoms: C_8  and  C_12
    7  A    between atoms: C_23  and  C_30
                            x       y       z     vdW  Elec       q    Type
                         _______ _______ _______ _____ _____    ______ ____

>  <TORSDO>
F 7

$$$$
=
 OpenBabel11122414023D

 37 43  0  0  1  0  0  0  0  0999 V2000
  161.7340  207.2400  152.6330 C   0  0  1  0  0  3  0  0  0  0  0  0
  162.7150  206.8830  149.4290 O   0  0  0  0  0  0  0  0  0  0  0  0
  161.8560  208.9560  154.6230 C   0  0  2  0  0  3  0  0  0  0  0  0
  161.4380  207.7450  151.2600 C   0  0  2  0  0  3  0  0  0  0  0  0
  162.3490  208.5110  153.2330 C   0  0  2  0  0  3  0  0  0  0  0  0
  161.5150  206.7060  150.1380 C   0  0  2  0  0  3  0  0  0  0  0  0
  160.4750  208.4310  154.9700 C   0  0  0  0  0  2  0  0  0  0  0  0
  162.2960  209.5260  152.2580 O   0  0  0  0  0  0  0  0  0  0  0  0
  160.3520  205.3540  152.9370 C   0  0  0  0  0  2  0  0  0  0  0  0
  160.4340  206.9510  154.6490 C   0  0  0  0  0  2  0  0  0  0  0  0
  161.1980  208.3730  148.0100 C   0  0  0  0  0  2  0  0  0  0  0  0
  162.5410  207.6960  148.2690 C   0  0  1  0  0  3  0  0  0  0  0  0
  160.4570  206.7890  153.2020 N   0  0  1  0  0  0  0  0  0  0  0  0
  162.3600  208.8520  151.0720 N   0  0  2  0  0  0  0  0  0  0  0  0
  161.3270  205.2470  150.5980 C   0  0  1  0  0  3  0  0  0  0  0  0
  162.3330  209.1980  148.5930 C   0  0  2  0  0  3  0  0  0  0  0  0
  161.8440  209.6800  149.9780 C   0  0  2  0  0  3  0  0  0  0  0  0
  160.0680  205.0700  151.4580 C   0  0  0  0  0  2  0  0  0  0  0  0
  160.9140  202.9850  149.6210 C   0  0  0  0  0  3  0  0  0  0  0  0
  161.2840  204.3200  149.4240 C   0  0  0  0  0  0  0  0  0  0  0  0
  161.6170  204.7640  148.1340 C   0  0  0  0  0  3  0  0  0  0  0  0
  161.9160  204.3300  145.7490 N   0  0  0  0  0  1  0  0  0  0  0  0
  161.2060  202.5440  147.2570 C   0  0  0  0  0  3  0  0  0  0  0  0
  161.5780  203.8770  147.0550 C   0  0  0  0  0  0  0  0  0  0  0  0
  160.8750  202.0990  148.5400 C   0  0  0  0  0  3  0  0  0  0  0  0
  162.2510  211.1430  150.1340 C   0  0  0  0  0  2  0  0  0  0  0  0
  161.1640  212.0640  149.6000 C   0  0  0  0  0  0  0  0  0  0  0  0
  161.6380  213.1170  148.6280 C   0  0  0  0  0  2  0  0  0  0  0  0
  160.8540  211.9090  148.1310 C   0  0  0  0  0  2  0  0  0  0  0  0
  159.9720  212.4620  150.4660 C   0  0  0  0  0  2  0  0  0  0  0  0
  160.2330  212.1890  151.9400 C   0  0  0  0  0  2  0  0  0  0  0  0
  159.4130  211.1550  152.3900 O   0  0  0  0  0  1  0  0  0  0  0  0
  161.8880  210.3560  154.7530 O   0  0  0  0  0  0  0  0  0  0  0  0
  162.5960  210.6730  155.9290 C   0  0  0  0  0  0  0  0  0  0  0  0
  161.9810  211.7080  156.6140 F   0  0  0  0  0  0  0  0  0  0  0  0
  162.7040  209.5630  156.7540 F   0  0  0  0  0  0  0  0  0  0  0  0
  163.8700  211.0780  155.5790 F   0  0  0  0  0  0  0  0  0  0  0  0
  1 13  1  0  0  0  0
  1  5  1  0  0  0  0
  2  6  1  0  0  0  0
  3 33  1  0  0  0  0
  3  7  1  0  0  0  0
  4  1  1  0  0  0  0
  5  3  1  0  0  0  0
  6 15  1  0  0  0  0
  6  4  1  0  0  0  0
  8  5  1  0  0  0  0
  9 13  1  0  0  0  0
 10  7  1  0  0  0  0
 11 12  1  0  0  0  0
 11 16  1  0  0  0  0
 12 16  1  0  0  0  0
 12  2  1  0  0  0  0
 13 10  1  0  0  0  0
 14  4  1  0  0  0  0
 14  8  1  0  0  0  0
 15 18  1  0  0  0  0
 16 17  1  0  0  0  0
 17 26  1  0  0  0  0
 17 14  1  0  0  0  0
 18  9  1  0  0  0  0
 20 19  1  0  0  0  0
 20 15  1  0  0  0  0
 21 20  2  0  0  0  0
 22 24  1  0  0  0  0
 23 25  1  0  0  0  0
 24 23  2  0  0  0  0
 24 21  1  0  0  0  0
 25 19  2  0  0  0  0
 27 26  1  0  0  0  0
 27 30  1  0  0  0  0
 28 27  1  0  0  0  0
 29 28  1  0  0  0  0
 29 27  1  0  0  0  0
 30 31  1  0  0  0  0
 31 32  1  0  0  0  0
 33 34  1  0  0  0  0
 34 35  1  0  0  0  0
 34 36  1  0  0  0  0
 37 34  1  0  0  0  0
M  END
>  <MODEL>
9

>  <REMARK>
 VINA RESULT:      -5.9      4.087      6.817
  Name = 
  7 active torsions:
  status: ('A' for Active; 'I' for Inactive)
    1  A    between atoms: C_1  and  C_4
    2  A    between atoms: C_1  and  C_27
    3  A    between atoms: C_2  and  O_22
    4  A    between atoms: C_4  and  C_12
    5  A    between atoms: C_6  and  O_22
    6  A    between atoms: C_8  and  C_12
    7  A    between atoms: C_23  and  C_30
                            x       y       z     vdW  Elec       q    Type
                         _______ _______ _______ _____ _____    ______ ____

>  <TORSDO>
F 7

$$$$
