=
 OpenBabel11122413203D

 31 35  0  0  1  0  0  0  0  0999 V2000
  160.9220  201.8120  150.5700 C   0  0  0  0  0  0  0  0  0  0  0  0
  161.2290  205.3200  149.2390 C   0  0  0  0  0  0  0  0  0  0  0  0
  161.2250  205.2330  147.8120 C   0  0  0  0  0  0  0  0  0  0  0  0
  161.1210  203.9640  145.7250 C   0  0  0  0  0  0  0  0  0  0  0  0
  161.1300  204.2030  150.1230 C   0  0  0  0  0  0  0  0  0  0  0  0
  160.9410  202.0520  151.9430 C   0  0  0  0  0  3  0  0  0  0  0  0
  161.1210  204.0120  147.1210 C   0  0  0  0  0  3  0  0  0  0  0  0
  161.3480  206.7740  151.2070 C   0  0  0  0  0  0  0  0  0  0  0  0
  160.8130  200.5430  150.1070 F   0  0  0  0  0  0  0  0  0  0  0  0
  161.4350  207.6490  147.6730 C   0  0  0  0  0  3  0  0  0  0  0  0
  161.0170  202.7430  145.0730 O   0  0  0  0  0  1  0  0  0  0  0  0
  161.2550  205.6870  152.0130 N   0  0  0  0  0  0  0  0  0  0  0  0
  161.3390  206.6180  149.8150 C   0  0  0  0  0  0  0  0  0  0  0  0
  161.4630  208.0820  151.7780 N   0  0  0  0  0  2  0  0  0  0  0  0
  161.0160  202.8760  149.6720 C   0  0  0  0  0  3  0  0  0  0  0  0
  161.2250  205.1420  144.9860 C   0  0  0  0  0  3  0  0  0  0  0  0
  161.1470  204.4300  151.5220 C   0  0  0  0  0  0  0  0  0  0  0  0
  161.0520  203.3600  152.4170 C   0  0  0  0  0  3  0  0  0  0  0  0
  161.4380  207.7210  149.0250 N   0  0  0  0  0  0  0  0  0  0  0  0
  161.3300  206.4180  147.0410 C   0  0  0  0  0  0  0  0  0  0  0  0
  161.3290  206.3670  145.6440 C   0  0  0  0  0  3  0  0  0  0  0  0
  160.6480  207.2420  153.9250 C   0  0  0  0  0  1  0  0  0  0  0  0
  161.4470  208.3230  153.2150 C   0  0  2  0  0  3  0  0  0  0  0  0
  159.8180  212.2110  154.0720 C   0  0  0  0  0  0  0  0  0  0  0  0
  160.0300  210.3120  152.5870 C   0  0  0  0  0  3  0  0  0  0  0  0
  162.0080  209.7290  155.6240 F   0  0  0  0  0  0  0  0  0  0  0  0
  159.3060  213.4350  154.3440 F   0  0  0  0  0  0  0  0  0  0  0  0
  159.5020  211.5750  152.8690 C   0  0  0  0  0  3  0  0  0  0  0  0
  161.1920  210.3210  154.7160 C   0  0  0  0  0  0  0  0  0  0  0  0
  160.8790  209.6770  153.5090 C   0  0  0  0  0  0  0  0  0  0  0  0
  160.6610  211.5850  154.9940 C   0  0  0  0  0  3  0  0  0  0  0  0
  1  6  1  0  0  0  0
  2 13  1  0  0  0  0
  2  5  1  0  0  0  0
  3  2  2  0  0  0  0
  4  7  2  0  0  0  0
  5 17  2  0  0  0  0
  6 18  2  0  0  0  0
  7  3  1  0  0  0  0
  8 14  1  0  0  0  0
  8 12  2  0  0  0  0
  9  1  1  0  0  0  0
 10 19  1  0  0  0  0
 11  4  1  0  0  0  0
 13  8  1  0  0  0  0
 14 23  1  0  0  0  0
 15  5  1  0  0  0  0
 15  1  2  0  0  0  0
 16 21  2  0  0  0  0
 16  4  1  0  0  0  0
 17 12  1  0  0  0  0
 17 18  1  0  0  0  0
 19 13  2  0  0  0  0
 20 10  2  0  0  0  0
 20  3  1  0  0  0  0
 21 20  1  0  0  0  0
 23 30  1  0  0  0  0
 23 22  1  1  0  0  0
 24 27  1  0  0  0  0
 24 31  1  0  0  0  0
 25 28  1  0  0  0  0
 25 30  2  0  0  0  0
 28 24  2  0  0  0  0
 29 31  2  0  0  0  0
 29 26  1  0  0  0  0
 30 29  1  0  0  0  0
M  END
>  <MODEL>
1

>  <REMARK>
 VINA RESULT:     -10.6      0.000      0.000
  Name = 
  2 active torsions:
  status: ('A' for Active; 'I' for Inactive)
    1  A    between atoms: C_5  and  N_16
    2  A    between atoms: C_5  and  C_30
                            x       y       z     vdW  Elec       q    Type
                         _______ _______ _______ _____ _____    ______ ____

>  <TORSDO>
F 2

$$$$
=
 OpenBabel11122413203D

 31 35  0  0  1  0  0  0  0  0999 V2000
  160.9320  206.9670  153.9630 C   0  0  0  0  0  0  0  0  0  0  0  0
  161.4110  206.8240  150.2310 C   0  0  0  0  0  0  0  0  0  0  0  0
  161.2910  205.4540  149.8410 C   0  0  0  0  0  0  0  0  0  0  0  0
  160.9260  203.0890  150.3430 C   0  0  0  0  0  0  0  0  0  0  0  0
  161.2920  207.3020  151.5720 C   0  0  0  0  0  0  0  0  0  0  0  0
  161.0750  208.3340  154.1910 C   0  0  0  0  0  3  0  0  0  0  0  0
  161.0380  204.4170  150.7590 C   0  0  0  0  0  3  0  0  0  0  0  0
  161.7960  209.1350  149.5180 C   0  0  0  0  0  0  0  0  0  0  0  0
  160.6880  206.1300  155.0000 F   0  0  0  0  0  0  0  0  0  0  0  0
  161.6790  206.0880  147.5290 C   0  0  0  0  0  3  0  0  0  0  0  0
  160.6760  202.0890  151.2730 O   0  0  0  0  0  1  0  0  0  0  0  0
  161.6790  209.5510  150.8040 N   0  0  0  0  0  0  0  0  0  0  0  0
  161.6680  207.7760  149.2050 C   0  0  0  0  0  0  0  0  0  0  0  0
  162.0570  210.0860  148.4800 N   0  0  0  0  0  2  0  0  0  0  0  0
  161.0400  206.4590  152.6680 C   0  0  0  0  0  3  0  0  0  0  0  0
  161.0660  202.7660  148.9940 C   0  0  0  0  0  3  0  0  0  0  0  0
  161.4350  208.6910  151.8210 C   0  0  0  0  0  0  0  0  0  0  0  0
  161.3250  209.1940  153.1220 C   0  0  0  0  0  3  0  0  0  0  0  0
  161.7910  207.3820  147.9080 N   0  0  0  0  0  0  0  0  0  0  0  0
  161.4290  205.1040  148.4750 C   0  0  0  0  0  0  0  0  0  0  0  0
  161.3170  203.7720  148.0610 C   0  0  0  0  0  3  0  0  0  0  0  0
  161.4230  211.8980  149.9950 C   0  0  0  0  0  1  0  0  0  0  0  0
  162.1710  211.5180  148.7270 C   0  0  2  0  0  3  0  0  0  0  0  0
  160.6800  213.7490  145.3640 C   0  0  0  0  0  0  0  0  0  0  0  0
  160.4920  211.8710  146.8790 C   0  0  0  0  0  3  0  0  0  0  0  0
  163.4360  213.8760  147.7630 F   0  0  0  0  0  0  0  0  0  0  0  0
  160.2120  214.4530  144.3070 F   0  0  0  0  0  0  0  0  0  0  0  0
  160.0100  212.5980  145.7880 C   0  0  0  0  0  3  0  0  0  0  0  0
  162.3170  213.4490  147.1260 C   0  0  0  0  0  0  0  0  0  0  0  0
  161.6490  212.2910  147.5550 C   0  0  0  0  0  0  0  0  0  0  0  0
  161.8310  214.1740  146.0330 C   0  0  0  0  0  3  0  0  0  0  0  0
  1  6  1  0  0  0  0
  1  9  1  0  0  0  0
  2  5  1  0  0  0  0
  3  2  1  0  0  0  0
  3  7  1  0  0  0  0
  4  7  2  0  0  0  0
  4 11  1  0  0  0  0
  5 17  2  0  0  0  0
  5 15  1  0  0  0  0
  8 12  2  0  0  0  0
 10 19  2  0  0  0  0
 10 20  1  0  0  0  0
 12 17  1  0  0  0  0
 13  8  1  0  0  0  0
 13  2  2  0  0  0  0
 14 23  1  0  0  0  0
 14  8  1  0  0  0  0
 15  1  2  0  0  0  0
 16  4  1  0  0  0  0
 17 18  1  0  0  0  0
 18  6  2  0  0  0  0
 19 13  1  0  0  0  0
 20  3  2  0  0  0  0
 21 20  1  0  0  0  0
 21 16  2  0  0  0  0
 23 22  1  1  0  0  0
 24 28  2  0  0  0  0
 24 31  1  0  0  0  0
 25 30  2  0  0  0  0
 27 24  1  0  0  0  0
 28 25  1  0  0  0  0
 29 30  1  0  0  0  0
 29 26  1  0  0  0  0
 30 23  1  0  0  0  0
 31 29  2  0  0  0  0
M  END
>  <MODEL>
2

>  <REMARK>
 VINA RESULT:     -10.5      3.887      5.703
  Name = 
  2 active torsions:
  status: ('A' for Active; 'I' for Inactive)
    1  A    between atoms: C_5  and  N_16
    2  A    between atoms: C_5  and  C_30
                            x       y       z     vdW  Elec       q    Type
                         _______ _______ _______ _____ _____    ______ ____

>  <TORSDO>
F 2

$$$$
=
 OpenBabel11122413203D

 31 35  0  0  1  0  0  0  0  0999 V2000
  161.3060  205.5210  145.8060 C   0  0  0  0  0  0  0  0  0  0  0  0
  161.1090  204.5990  149.4520 C   0  0  0  0  0  0  0  0  0  0  0  0
  161.1210  203.1710  149.5280 C   0  0  0  0  0  0  0  0  0  0  0  0
  161.2060  200.9530  148.5040 C   0  0  0  0  0  0  0  0  0  0  0  0
  161.1690  205.3490  148.2380 C   0  0  0  0  0  0  0  0  0  0  0  0
  161.2830  206.9120  145.8890 C   0  0  0  0  0  3  0  0  0  0  0  0
  161.1960  202.3450  148.3920 C   0  0  0  0  0  3  0  0  0  0  0  0
  161.0150  206.7200  150.6740 C   0  0  0  0  0  0  0  0  0  0  0  0
  161.3820  204.9160  144.5970 F   0  0  0  0  0  0  0  0  0  0  0  0
  160.9810  203.3090  151.9490 C   0  0  0  0  0  3  0  0  0  0  0  0
  161.2800  200.1660  147.3620 O   0  0  0  0  0  1  0  0  0  0  0  0
  161.0710  207.3970  149.4990 N   0  0  0  0  0  0  0  0  0  0  0  0
  161.0300  205.3190  150.6770 C   0  0  0  0  0  0  0  0  0  0  0  0
  160.9330  207.4370  151.9100 N   0  0  0  0  0  2  0  0  0  0  0  0
  161.2490  204.7500  146.9690 C   0  0  0  0  0  3  0  0  0  0  0  0
  161.1410  200.3540  149.7610 C   0  0  0  0  0  3  0  0  0  0  0  0
  161.1480  206.7650  148.3040 C   0  0  0  0  0  0  0  0  0  0  0  0
  161.2050  207.5320  147.1360 C   0  0  0  0  0  3  0  0  0  0  0  0
  160.9700  204.6600  151.8660 N   0  0  0  0  0  0  0  0  0  0  0  0
  161.0570  202.5410  150.7960 C   0  0  0  0  0  0  0  0  0  0  0  0
  161.0660  201.1470  150.9060 C   0  0  0  0  0  3  0  0  0  0  0  0
  162.3310  209.4280  151.6680 C   0  0  0  0  0  1  0  0  0  0  0  0
  160.9440  208.8920  151.9850 C   0  0  2  0  0  3  0  0  0  0  0  0
  159.6660  210.2100  155.8750 C   0  0  0  0  0  0  0  0  0  0  0  0
  160.8310  208.6060  154.4870 C   0  0  0  0  0  3  0  0  0  0  0  0
  159.4170  211.2580  152.3810 F   0  0  0  0  0  0  0  0  0  0  0  0
  159.2630  210.6280  157.0990 F   0  0  0  0  0  0  0  0  0  0  0  0
  160.4150  209.0380  155.7500 C   0  0  0  0  0  3  0  0  0  0  0  0
  159.7480  210.5240  153.4730 C   0  0  0  0  0  0  0  0  0  0  0  0
  160.5000  209.3470  153.3410 C   0  0  0  0  0  0  0  0  0  0  0  0
  159.3340  210.9530  154.7390 C   0  0  0  0  0  3  0  0  0  0  0  0
  1  6  2  0  0  0  0
  1 15  1  0  0  0  0
  2  3  2  0  0  0  0
  2 13  1  0  0  0  0
  3 20  1  0  0  0  0
  4 16  1  0  0  0  0
  5 17  1  0  0  0  0
  5  2  1  0  0  0  0
  6 18  1  0  0  0  0
  7  4  2  0  0  0  0
  7  3  1  0  0  0  0
  8 13  1  0  0  0  0
  8 14  1  0  0  0  0
  9  1  1  0  0  0  0
 11  4  1  0  0  0  0
 12  8  2  0  0  0  0
 13 19  2  0  0  0  0
 14 23  1  0  0  0  0
 15  5  2  0  0  0  0
 16 21  2  0  0  0  0
 17 12  1  0  0  0  0
 18 17  2  0  0  0  0
 19 10  1  0  0  0  0
 20 21  1  0  0  0  0
 20 10  2  0  0  0  0
 23 22  1  1  0  0  0
 23 30  1  0  0  0  0
 24 27  1  0  0  0  0
 25 28  2  0  0  0  0
 26 29  1  0  0  0  0
 28 24  1  0  0  0  0
 29 31  1  0  0  0  0
 30 29  2  0  0  0  0
 30 25  1  0  0  0  0
 31 24  2  0  0  0  0
M  END
>  <MODEL>
3

>  <REMARK>
 VINA RESULT:     -10.1      1.964      4.206
  Name = 
  2 active torsions:
  status: ('A' for Active; 'I' for Inactive)
    1  A    between atoms: C_5  and  N_16
    2  A    between atoms: C_5  and  C_30
                            x       y       z     vdW  Elec       q    Type
                         _______ _______ _______ _____ _____    ______ ____

>  <TORSDO>
F 2

$$$$
=
 OpenBabel11122413203D

 31 35  0  0  1  0  0  0  0  0999 V2000
  161.9240  207.3350  147.6060 C   0  0  0  0  0  0  0  0  0  0  0  0
  161.3050  205.8750  151.0210 C   0  0  0  0  0  0  0  0  0  0  0  0
  161.1570  204.4630  150.8570 C   0  0  0  0  0  0  0  0  0  0  0  0
  161.0950  202.4420  149.4820 C   0  0  0  0  0  0  0  0  0  0  0  0
  161.5530  206.7970  149.9590 C   0  0  0  0  0  0  0  0  0  0  0  0
  162.0430  208.6880  147.9200 C   0  0  0  0  0  3  0  0  0  0  0  0
  161.2440  203.8250  149.6060 C   0  0  0  0  0  3  0  0  0  0  0  0
  161.3310  207.7700  152.5730 C   0  0  0  0  0  0  0  0  0  0  0  0
  162.0420  206.9260  146.3200 F   0  0  0  0  0  0  0  0  0  0  0  0
  160.8180  204.2300  153.2510 C   0  0  0  0  0  3  0  0  0  0  0  0
  161.1850  201.8440  148.2330 O   0  0  0  0  0  1  0  0  0  0  0  0
  161.5650  208.6140  151.5370 N   0  0  0  0  0  0  0  0  0  0  0  0
  161.1960  206.3960  152.3420 C   0  0  0  0  0  0  0  0  0  0  0  0
  161.2170  208.2860  153.9040 N   0  0  0  0  0  2  0  0  0  0  0  0
  161.6820  206.4020  148.6160 C   0  0  0  0  0  3  0  0  0  0  0  0
  160.8540  201.6630  150.6130 C   0  0  0  0  0  3  0  0  0  0  0  0
  161.6790  208.1760  150.2610 C   0  0  0  0  0  0  0  0  0  0  0  0
  161.9210  209.1070  149.2450 C   0  0  0  0  0  3  0  0  0  0  0  0
  160.9590  205.5680  153.3960 N   0  0  0  0  0  0  0  0  0  0  0  0
  160.9130  203.6510  151.9930 C   0  0  0  0  0  0  0  0  0  0  0  0
  160.7630  202.2670  151.8670 C   0  0  0  0  0  3  0  0  0  0  0  0
  162.1350  209.8640  155.5310 C   0  0  0  0  0  1  0  0  0  0  0  0
  161.3780  209.6990  154.2230 C   0  0  2  0  0  3  0  0  0  0  0  0
  157.5420  211.6350  154.4320 C   0  0  0  0  0  0  0  0  0  0  0  0
  159.2390  210.2390  155.4450 C   0  0  0  0  0  3  0  0  0  0  0  0
  160.3380  211.2860  152.1030 F   0  0  0  0  0  0  0  0  0  0  0  0
  156.3350  212.2470  154.4960 F   0  0  0  0  0  0  0  0  0  0  0  0
  157.9940  210.8690  155.5100 C   0  0  0  0  0  3  0  0  0  0  0  0
  159.5820  211.1420  153.2210 C   0  0  0  0  0  0  0  0  0  0  0  0
  160.0410  210.3710  154.3000 C   0  0  0  0  0  0  0  0  0  0  0  0
  158.3350  211.7720  153.2900 C   0  0  0  0  0  3  0  0  0  0  0  0
  1  6  2  0  0  0  0
  1 15  1  0  0  0  0
  2 13  1  0  0  0  0
  3  2  2  0  0  0  0
  3 20  1  0  0  0  0
  4  7  2  0  0  0  0
  4 16  1  0  0  0  0
  5 17  1  0  0  0  0
  5  2  1  0  0  0  0
  6 18  1  0  0  0  0
  7  3  1  0  0  0  0
  8 14  1  0  0  0  0
  9  1  1  0  0  0  0
 10 19  1  0  0  0  0
 11  4  1  0  0  0  0
 12  8  2  0  0  0  0
 13  8  1  0  0  0  0
 13 19  2  0  0  0  0
 14 23  1  0  0  0  0
 15  5  2  0  0  0  0
 16 21  2  0  0  0  0
 17 12  1  0  0  0  0
 18 17  2  0  0  0  0
 20 10  2  0  0  0  0
 21 20  1  0  0  0  0
 23 30  1  0  0  0  0
 23 22  1  1  0  0  0
 24 27  1  0  0  0  0
 24 28  1  0  0  0  0
 25 28  2  0  0  0  0
 26 29  1  0  0  0  0
 29 31  1  0  0  0  0
 29 30  2  0  0  0  0
 30 25  1  0  0  0  0
 31 24  2  0  0  0  0
M  END
>  <MODEL>
4

>  <REMARK>
 VINA RESULT:     -10.1      2.285      4.363
  Name = 
  2 active torsions:
  status: ('A' for Active; 'I' for Inactive)
    1  A    between atoms: C_5  and  N_16
    2  A    between atoms: C_5  and  C_30
                            x       y       z     vdW  Elec       q    Type
                         _______ _______ _______ _____ _____    ______ ____

>  <TORSDO>
F 2

$$$$
=
 OpenBabel11122413203D

 31 35  0  0  1  0  0  0  0  0999 V2000
  161.9580  209.3960  148.9320 C   0  0  0  0  0  0  0  0  0  0  0  0
  161.3690  206.4580  151.2130 C   0  0  0  0  0  0  0  0  0  0  0  0
  161.2250  205.3020  150.3840 C   0  0  0  0  0  0  0  0  0  0  0  0
  161.1590  204.2020  148.2020 C   0  0  0  0  0  0  0  0  0  0  0  0
  161.6070  207.7810  150.7300 C   0  0  0  0  0  0  0  0  0  0  0  0
  162.0750  210.4270  149.8630 C   0  0  0  0  0  3  0  0  0  0  0  0
  161.3050  205.3520  148.9810 C   0  0  0  0  0  3  0  0  0  0  0  0
  161.3990  207.3620  153.4890 C   0  0  0  0  0  0  0  0  0  0  0  0
  162.0690  209.6630  147.6090 F   0  0  0  0  0  0  0  0  0  0  0  0
  160.9030  203.9340  152.3660 C   0  0  0  0  0  3  0  0  0  0  0  0
  161.2430  204.2860  146.8190 O   0  0  0  0  0  1  0  0  0  0  0  0
  161.6220  208.6040  152.9920 N   0  0  0  0  0  0  0  0  0  0  0  0
  161.2670  206.2710  152.6210 C   0  0  0  0  0  0  0  0  0  0  0  0
  161.2920  207.1670  154.9030 N   0  0  0  0  0  2  0  0  0  0  0  0
  161.7270  208.0890  149.3630 C   0  0  0  0  0  3  0  0  0  0  0  0
  160.9290  202.9700  148.8130 C   0  0  0  0  0  3  0  0  0  0  0  0
  161.7290  208.8410  151.6630 C   0  0  0  0  0  0  0  0  0  0  0  0
  161.9620  210.1500  151.2250 C   0  0  0  0  0  3  0  0  0  0  0  0
  161.0410  205.0350  153.1410 N   0  0  0  0  0  0  0  0  0  0  0  0
  160.9910  204.0390  150.9850 C   0  0  0  0  0  0  0  0  0  0  0  0
  160.8450  202.8890  150.2030 C   0  0  0  0  0  3  0  0  0  0  0  0
  161.0680  207.7760  157.2610 C   0  0  0  0  0  1  0  0  0  0  0  0
  161.4510  208.2480  155.8670 C   0  0  2  0  0  3  0  0  0  0  0  0
  159.0810  211.6480  154.7130 C   0  0  0  0  0  0  0  0  0  0  0  0
  159.2200  209.3610  155.4930 C   0  0  0  0  0  3  0  0  0  0  0  0
  162.6010  210.7090  155.0230 F   0  0  0  0  0  0  0  0  0  0  0  0
  158.3380  212.7200  154.3500 F   0  0  0  0  0  0  0  0  0  0  0  0
  158.4530  210.4680  155.1180 C   0  0  0  0  0  3  0  0  0  0  0  0
  161.2480  210.6180  155.0580 C   0  0  0  0  0  0  0  0  0  0  0  0
  160.6220  209.4290  155.4650 C   0  0  0  0  0  0  0  0  0  0  0  0
  160.4770  211.7230  154.6830 C   0  0  0  0  0  3  0  0  0  0  0  0
  1 15  2  0  0  0  0
  1  6  1  0  0  0  0
  2 13  1  0  0  0  0
  3 20  1  0  0  0  0
  3  2  2  0  0  0  0
  4 16  1  0  0  0  0
  4  7  2  0  0  0  0
  5  2  1  0  0  0  0
  5 17  2  0  0  0  0
  6 18  2  0  0  0  0
  7  3  1  0  0  0  0
  8 14  1  0  0  0  0
  9  1  1  0  0  0  0
 10 19  1  0  0  0  0
 11  4  1  0  0  0  0
 12  8  2  0  0  0  0
 13 19  2  0  0  0  0
 13  8  1  0  0  0  0
 14 23  1  0  0  0  0
 15  5  1  0  0  0  0
 16 21  2  0  0  0  0
 17 12  1  0  0  0  0
 18 17  1  0  0  0  0
 20 10  2  0  0  0  0
 21 20  1  0  0  0  0
 23 22  1  1  0  0  0
 24 28  1  0  0  0  0
 26 29  1  0  0  0  0
 27 24  1  0  0  0  0
 28 25  2  0  0  0  0
 29 30  2  0  0  0  0
 30 25  1  0  0  0  0
 30 23  1  0  0  0  0
 31 24  2  0  0  0  0
 31 29  1  0  0  0  0
M  END
>  <MODEL>
5

>  <REMARK>
 VINA RESULT:     -10.1      2.434      4.322
  Name = 
  2 active torsions:
  status: ('A' for Active; 'I' for Inactive)
    1  A    between atoms: C_5  and  N_16
    2  A    between atoms: C_5  and  C_30
                            x       y       z     vdW  Elec       q    Type
                         _______ _______ _______ _____ _____    ______ ____

>  <TORSDO>
F 2

$$$$
=
 OpenBabel11122413203D

 31 35  0  0  1  0  0  0  0  0999 V2000
  161.9210  207.6990  147.8920 C   0  0  0  0  0  0  0  0  0  0  0  0
  161.3170  206.1410  151.2660 C   0  0  0  0  0  0  0  0  0  0  0  0
  161.1510  204.7360  151.0600 C   0  0  0  0  0  0  0  0  0  0  0  0
  161.0510  202.7600  149.6240 C   0  0  0  0  0  0  0  0  0  0  0  0
  161.5660  207.0920  150.2300 C   0  0  0  0  0  0  0  0  0  0  0  0
  162.0590  209.0390  148.2460 C   0  0  0  0  0  3  0  0  0  0  0  0
  161.2180  204.1370  149.7890 C   0  0  0  0  0  3  0  0  0  0  0  0
  161.3800  207.9870  152.8760 C   0  0  0  0  0  0  0  0  0  0  0  0
  162.0230  207.3280  146.5930 F   0  0  0  0  0  0  0  0  0  0  0  0
  160.8310  204.4330  153.4490 C   0  0  0  0  0  3  0  0  0  0  0  0
  161.1230  202.1990  148.3560 O   0  0  0  0  0  1  0  0  0  0  0  0
  161.6140  208.8590  151.8630 N   0  0  0  0  0  0  0  0  0  0  0  0
  161.2260  206.6210  152.6030 C   0  0  0  0  0  0  0  0  0  0  0  0
  161.2840  208.4620  154.2220 N   0  0  0  0  0  2  0  0  0  0  0  0
  161.6770  206.7380  148.8740 C   0  0  0  0  0  3  0  0  0  0  0  0
  160.8120  201.9480  150.7320 C   0  0  0  0  0  3  0  0  0  0  0  0
  161.7110  208.4600  150.5730 C   0  0  0  0  0  0  0  0  0  0  0  0
  161.9550  209.4190  149.5850 C   0  0  0  0  0  3  0  0  0  0  0  0
  160.9900  205.7650  153.6330 N   0  0  0  0  0  0  0  0  0  0  0  0
  160.9070  203.8930  152.1730 C   0  0  0  0  0  0  0  0  0  0  0  0
  160.7400  202.5140  152.0050 C   0  0  0  0  0  3  0  0  0  0  0  0
  162.0610  209.9770  155.9770 C   0  0  0  0  0  1  0  0  0  0  0  0
  161.4650  209.8620  154.5830 C   0  0  2  0  0  3  0  0  0  0  0  0
  157.7090  211.9500  154.3730 C   0  0  0  0  0  0  0  0  0  0  0  0
  159.9260  211.5380  153.4960 C   0  0  0  0  0  3  0  0  0  0  0  0
  159.3540  209.4210  156.4380 F   0  0  0  0  0  0  0  0  0  0  0  0
  156.5260  212.6060  154.3090 F   0  0  0  0  0  0  0  0  0  0  0  0
  158.7050  212.2140  153.4300 C   0  0  0  0  0  3  0  0  0  0  0  0
  159.1540  210.3310  155.4520 C   0  0  0  0  0  0  0  0  0  0  0  0
  160.1590  210.5920  154.5070 C   0  0  0  0  0  0  0  0  0  0  0  0
  157.9340  211.0100  155.3830 C   0  0  0  0  0  3  0  0  0  0  0  0
  1  6  2  0  0  0  0
  1 15  1  0  0  0  0
  2 13  1  0  0  0  0
  3  2  2  0  0  0  0
  3 20  1  0  0  0  0
  4  7  2  0  0  0  0
  4 16  1  0  0  0  0
  5 17  1  0  0  0  0
  5  2  1  0  0  0  0
  6 18  1  0  0  0  0
  7  3  1  0  0  0  0
  8 14  1  0  0  0  0
  9  1  1  0  0  0  0
 10 19  1  0  0  0  0
 11  4  1  0  0  0  0
 12  8  2  0  0  0  0
 13  8  1  0  0  0  0
 13 19  2  0  0  0  0
 14 23  1  0  0  0  0
 15  5  2  0  0  0  0
 16 21  2  0  0  0  0
 17 12  1  0  0  0  0
 18 17  2  0  0  0  0
 20 10  2  0  0  0  0
 21 20  1  0  0  0  0
 23 22  1  1  0  0  0
 24 31  1  0  0  0  0
 25 30  2  0  0  0  0
 27 24  1  0  0  0  0
 28 25  1  0  0  0  0
 28 24  2  0  0  0  0
 29 26  1  0  0  0  0
 30 23  1  0  0  0  0
 30 29  1  0  0  0  0
 31 29  2  0  0  0  0
M  END
>  <MODEL>
6

>  <REMARK>
 VINA RESULT:      -9.7      2.314      4.368
  Name = 
  2 active torsions:
  status: ('A' for Active; 'I' for Inactive)
    1  A    between atoms: C_5  and  N_16
    2  A    between atoms: C_5  and  C_30
                            x       y       z     vdW  Elec       q    Type
                         _______ _______ _______ _____ _____    ______ ____

>  <TORSDO>
F 2

$$$$
=
 OpenBabel11122413203D

 31 35  0  0  1  0  0  0  0  0999 V2000
  161.4550  204.3430  146.8620 C   0  0  0  0  0  0  0  0  0  0  0  0
  161.5160  206.7620  149.7470 C   0  0  0  0  0  0  0  0  0  0  0  0
  161.3730  205.9960  150.9450 C   0  0  0  0  0  0  0  0  0  0  0  0
  161.1020  203.8780  152.1350 C   0  0  0  0  0  0  0  0  0  0  0  0
  161.5420  206.2150  148.4280 C   0  0  0  0  0  0  0  0  0  0  0  0
  161.6000  205.2180  145.7870 C   0  0  0  0  0  3  0  0  0  0  0  0
  161.2400  204.5960  150.9450 C   0  0  0  0  0  3  0  0  0  0  0  0
  161.7870  208.9840  148.7500 C   0  0  0  0  0  0  0  0  0  0  0  0
  161.3420  203.0120  146.6410 F   0  0  0  0  0  0  0  0  0  0  0  0
  161.4910  208.0390  152.2540 C   0  0  0  0  0  3  0  0  0  0  0  0
  160.9730  202.4960  152.1010 O   0  0  0  0  0  1  0  0  0  0  0  0
  161.8040  208.4260  147.5140 N   0  0  0  0  0  0  0  0  0  0  0  0
  161.6430  208.1740  149.8840 C   0  0  0  0  0  0  0  0  0  0  0  0
  161.9100  210.4030  148.8970 N   0  0  0  0  0  2  0  0  0  0  0  0
  161.4270  204.8380  148.1670 C   0  0  0  0  0  3  0  0  0  0  0  0
  161.0940  204.5490  153.3570 C   0  0  0  0  0  3  0  0  0  0  0  0
  161.6890  207.0900  147.3230 C   0  0  0  0  0  0  0  0  0  0  0  0
  161.7180  206.5890  146.0170 C   0  0  0  0  0  3  0  0  0  0  0  0
  161.6260  208.7550  151.1140 N   0  0  0  0  0  0  0  0  0  0  0  0
  161.3630  206.6580  152.1980 C   0  0  0  0  0  0  0  0  0  0  0  0
  161.2240  205.9370  153.3890 C   0  0  0  0  0  3  0  0  0  0  0  0
  163.2900  212.2130  148.0030 C   0  0  0  0  0  1  0  0  0  0  0  0
  162.0960  211.3030  147.7660 C   0  0  2  0  0  3  0  0  0  0  0  0
  158.5330  213.6260  147.1180 C   0  0  0  0  0  0  0  0  0  0  0  0
  160.2290  212.1180  146.2790 C   0  0  0  0  0  3  0  0  0  0  0  0
  160.8950  212.8800  149.8070 F   0  0  0  0  0  0  0  0  0  0  0  0
  157.4110  214.3580  146.9170 F   0  0  0  0  0  0  0  0  0  0  0  0
  159.0720  212.8730  146.0720 C   0  0  0  0  0  3  0  0  0  0  0  0
  160.3100  212.8700  148.5830 C   0  0  0  0  0  0  0  0  0  0  0  0
  160.8560  212.1110  147.5360 C   0  0  0  0  0  0  0  0  0  0  0  0
  159.1510  213.6240  148.3720 C   0  0  0  0  0  3  0  0  0  0  0  0
  1 15  1  0  0  0  0
  2 13  2  0  0  0  0
  2  3  1  0  0  0  0
  3 20  1  0  0  0  0
  4 16  2  0  0  0  0
  5  2  1  0  0  0  0
  6 18  1  0  0  0  0
  6  1  2  0  0  0  0
  7  3  2  0  0  0  0
  7  4  1  0  0  0  0
  8 14  1  0  0  0  0
  8 13  1  0  0  0  0
  9  1  1  0  0  0  0
 11  4  1  0  0  0  0
 12  8  2  0  0  0  0
 13 19  1  0  0  0  0
 15  5  2  0  0  0  0
 16 21  1  0  0  0  0
 17 12  1  0  0  0  0
 17  5  1  0  0  0  0
 18 17  2  0  0  0  0
 19 10  2  0  0  0  0
 20 10  1  0  0  0  0
 20 21  2  0  0  0  0
 23 22  1  1  0  0  0
 23 14  1  0  0  0  0
 24 31  1  0  0  0  0
 25 30  2  0  0  0  0
 27 24  1  0  0  0  0
 28 25  1  0  0  0  0
 28 24  2  0  0  0  0
 29 26  1  0  0  0  0
 30 23  1  0  0  0  0
 30 29  1  0  0  0  0
 31 29  2  0  0  0  0
M  END
>  <MODEL>
7

>  <REMARK>
 VINA RESULT:      -9.5      3.502      5.752
  Name = 
  2 active torsions:
  status: ('A' for Active; 'I' for Inactive)
    1  A    between atoms: C_5  and  N_16
    2  A    between atoms: C_5  and  C_30
                            x       y       z     vdW  Elec       q    Type
                         _______ _______ _______ _____ _____    ______ ____

>  <TORSDO>
F 2

$$$$
=
 OpenBabel11122413203D

 31 35  0  0  1  0  0  0  0  0999 V2000
  160.9860  203.8590  152.1000 C   0  0  0  0  0  0  0  0  0  0  0  0
  161.5330  205.3710  148.6950 C   0  0  0  0  0  0  0  0  0  0  0  0
  161.4120  204.3160  147.7380 C   0  0  0  0  0  0  0  0  0  0  0  0
  161.0250  201.9770  147.1390 C   0  0  0  0  0  0  0  0  0  0  0  0
  161.3920  205.2110  150.1070 C   0  0  0  0  0  0  0  0  0  0  0  0
  161.1330  204.9840  152.9100 C   0  0  0  0  0  3  0  0  0  0  0  0
  161.1360  202.9840  148.1000 C   0  0  0  0  0  3  0  0  0  0  0  0
  161.9430  207.7560  149.0800 C   0  0  0  0  0  0  0  0  0  0  0  0
  160.7180  202.6540  152.6570 F   0  0  0  0  0  0  0  0  0  0  0  0
  161.8460  205.9000  145.9490 C   0  0  0  0  0  3  0  0  0  0  0  0
  160.7530  200.6730  147.5290 O   0  0  0  0  0  1  0  0  0  0  0  0
  161.8050  207.5620  150.4160 N   0  0  0  0  0  0  0  0  0  0  0  0
  161.8130  206.6760  148.1980 C   0  0  0  0  0  0  0  0  0  0  0  0
  162.2290  209.0630  148.5730 N   0  0  0  0  0  2  0  0  0  0  0  0
  161.1150  203.9740  150.7140 C   0  0  0  0  0  3  0  0  0  0  0  0
  161.1880  202.2810  145.7880 C   0  0  0  0  0  3  0  0  0  0  0  0
  161.5370  206.3450  150.9460 C   0  0  0  0  0  0  0  0  0  0  0  0
  161.4070  206.2240  152.3330 C   0  0  0  0  0  3  0  0  0  0  0  0
  161.9580  206.8920  146.8630 N   0  0  0  0  0  0  0  0  0  0  0  0
  161.5730  204.6030  146.3600 C   0  0  0  0  0  0  0  0  0  0  0  0
  161.4620  203.5930  145.3990 C   0  0  0  0  0  3  0  0  0  0  0  0
  161.9540  209.8940  150.8560 C   0  0  0  0  0  1  0  0  0  0  0  0
  162.3460  210.2370  149.4280 C   0  0  2  0  0  3  0  0  0  0  0  0
  159.8950  213.4390  147.9280 C   0  0  0  0  0  0  0  0  0  0  0  0
  161.3500  211.5500  147.5190 C   0  0  0  0  0  3  0  0  0  0  0  0
  160.9520  212.0370  151.1340 F   0  0  0  0  0  0  0  0  0  0  0  0
  159.1220  214.4480  147.4580 F   0  0  0  0  0  0  0  0  0  0  0  0
  160.5530  212.5900  147.0340 C   0  0  0  0  0  3  0  0  0  0  0  0
  160.8300  212.2080  149.7940 C   0  0  0  0  0  0  0  0  0  0  0  0
  161.4940  211.3520  148.9020 C   0  0  0  0  0  0  0  0  0  0  0  0
  160.0330  213.2480  149.3050 C   0  0  0  0  0  3  0  0  0  0  0  0
  1  9  1  0  0  0  0
  1  6  1  0  0  0  0
  2  5  1  0  0  0  0
  3  7  1  0  0  0  0
  3  2  2  0  0  0  0
  4 11  1  0  0  0  0
  4  7  2  0  0  0  0
  5 15  1  0  0  0  0
  5 17  2  0  0  0  0
  8 12  2  0  0  0  0
 10 20  2  0  0  0  0
 10 19  1  0  0  0  0
 12 17  1  0  0  0  0
 13  2  1  0  0  0  0
 13  8  1  0  0  0  0
 14  8  1  0  0  0  0
 14 23  1  0  0  0  0
 15  1  2  0  0  0  0
 16  4  1  0  0  0  0
 17 18  1  0  0  0  0
 18  6  2  0  0  0  0
 19 13  2  0  0  0  0
 20  3  1  0  0  0  0
 21 16  2  0  0  0  0
 21 20  1  0  0  0  0
 23 22  1  1  0  0  0
 24 31  1  0  0  0  0
 25 30  2  0  0  0  0
 27 24  1  0  0  0  0
 28 25  1  0  0  0  0
 28 24  2  0  0  0  0
 29 26  1  0  0  0  0
 30 23  1  0  0  0  0
 30 29  1  0  0  0  0
 31 29  2  0  0  0  0
M  END
>  <MODEL>
8

>  <REMARK>
 VINA RESULT:      -9.5      2.813      3.707
  Name = 
  2 active torsions:
  status: ('A' for Active; 'I' for Inactive)
    1  A    between atoms: C_5  and  N_16
    2  A    between atoms: C_5  and  C_30
                            x       y       z     vdW  Elec       q    Type
                         _______ _______ _______ _____ _____    ______ ____

>  <TORSDO>
F 2

$$$$
=
 OpenBabel11122413203D

 31 35  0  0  1  0  0  0  0  0999 V2000
  161.2080  208.2920  153.9290 C   0  0  0  0  0  0  0  0  0  0  0  0
  161.3930  207.4760  150.2580 C   0  0  0  0  0  0  0  0  0  0  0  0
  161.2170  206.0630  150.1290 C   0  0  0  0  0  0  0  0  0  0  0  0
  160.8480  203.8370  151.0700 C   0  0  0  0  0  0  0  0  0  0  0  0
  161.3880  208.1870  151.4960 C   0  0  0  0  0  0  0  0  0  0  0  0
  161.3940  209.6720  153.8980 C   0  0  0  0  0  3  0  0  0  0  0  0
  161.0160  205.2140  151.2320 C   0  0  0  0  0  3  0  0  0  0  0  0
  161.7650  209.6110  149.1160 C   0  0  0  0  0  0  0  0  0  0  0  0
  161.0290  207.6600  155.1140 F   0  0  0  0  0  0  0  0  0  0  0  0
  161.4370  206.2650  147.7180 C   0  0  0  0  0  3  0  0  0  0  0  0
  160.6520  203.0260  152.1800 O   0  0  0  0  0  1  0  0  0  0  0  0
  161.7570  210.2510  150.3130 N   0  0  0  0  0  0  0  0  0  0  0  0
  161.5880  208.2230  149.0610 C   0  0  0  0  0  0  0  0  0  0  0  0
  161.9640  210.3550  147.9090 N   0  0  0  0  0  2  0  0  0  0  0  0
  161.2050  207.5590  152.7410 C   0  0  0  0  0  3  0  0  0  0  0  0
  160.8770  203.2760  149.7940 C   0  0  0  0  0  3  0  0  0  0  0  0
  161.5760  209.5920  151.4820 C   0  0  0  0  0  0  0  0  0  0  0  0
  161.5770  210.3210  152.6760 C   0  0  0  0  0  3  0  0  0  0  0  0
  161.6030  207.6020  147.8510 N   0  0  0  0  0  0  0  0  0  0  0  0
  161.2420  205.4730  148.8410 C   0  0  0  0  0  0  0  0  0  0  0  0
  161.0730  204.0930  148.6800 C   0  0  0  0  0  3  0  0  0  0  0  0
  163.1250  212.2410  148.9430 C   0  0  0  0  0  1  0  0  0  0  0  0
  162.1230  211.8030  147.8870 C   0  0  2  0  0  3  0  0  0  0  0  0
  158.3260  213.7330  148.4940 C   0  0  0  0  0  0  0  0  0  0  0  0
  160.5210  213.1280  149.3140 C   0  0  0  0  0  3  0  0  0  0  0  0
  160.0800  211.8340  145.9080 F   0  0  0  0  0  0  0  0  0  0  0  0
  157.1310  214.3400  148.6820 F   0  0  0  0  0  0  0  0  0  0  0  0
  159.2870  213.7550  149.5080 C   0  0  0  0  0  3  0  0  0  0  0  0
  159.8330  212.4570  147.0880 C   0  0  0  0  0  0  0  0  0  0  0  0
  160.8020  212.4750  148.1030 C   0  0  0  0  0  0  0  0  0  0  0  0
  158.5990  213.0850  147.2850 C   0  0  0  0  0  3  0  0  0  0  0  0
  1  9  1  0  0  0  0
  2  5  1  0  0  0  0
  3  2  1  0  0  0  0
  3  7  1  0  0  0  0
  4  7  2  0  0  0  0
  4 11  1  0  0  0  0
  5 15  1  0  0  0  0
  6  1  1  0  0  0  0
  8 12  2  0  0  0  0
 10 19  2  0  0  0  0
 10 20  1  0  0  0  0
 12 17  1  0  0  0  0
 13  8  1  0  0  0  0
 13  2  2  0  0  0  0
 14  8  1  0  0  0  0
 15  1  2  0  0  0  0
 16  4  1  0  0  0  0
 17  5  2  0  0  0  0
 17 18  1  0  0  0  0
 18  6  2  0  0  0  0
 19 13  1  0  0  0  0
 20  3  2  0  0  0  0
 21 20  1  0  0  0  0
 21 16  2  0  0  0  0
 23 14  1  0  0  0  0
 23 30  1  0  0  0  0
 23 22  1  1  0  0  0
 24 27  1  0  0  0  0
 24 28  1  0  0  0  0
 25 28  2  0  0  0  0
 26 29  1  0  0  0  0
 29 31  1  0  0  0  0
 29 30  2  0  0  0  0
 30 25  1  0  0  0  0
 31 24  2  0  0  0  0
M  END
>  <MODEL>
9

>  <REMARK>
 VINA RESULT:      -9.4      3.562      5.707
  Name = 
  2 active torsions:
  status: ('A' for Active; 'I' for Inactive)
    1  A    between atoms: C_5  and  N_16
    2  A    between atoms: C_5  and  C_30
                            x       y       z     vdW  Elec       q    Type
                         _______ _______ _______ _____ _____    ______ ____

>  <TORSDO>
F 2

$$$$
