=
 OpenBabel11122414063D

 28 32  0  0  1  0  0  0  0  0999 V2000
  161.2130  208.7580  155.1060 C   0  0  0  0  0  0  0  0  0  0  0  0
  158.2260  210.0400  154.4460 O   0  0  0  0  0  0  0  0  0  0  0  0
  162.4650  211.3050  149.7380 O   0  0  0  0  0  0  0  0  0  0  0  0
  162.4800  210.1540  157.1820 C   0  0  0  0  0  3  0  0  0  0  0  0
  160.4440  211.9760  150.7340 N   0  0  0  0  0  0  0  0  0  0  0  0
  160.5990  207.9300  154.0310 C   0  0  0  0  0  2  0  0  0  0  0  0
  158.6200  211.4300  156.4340 O   0  0  0  0  0  0  0  0  0  0  0  0
  158.4930  211.4370  154.9370 S   0  0  0  0  0  0  0  0  0  0  0  0
  157.3800  213.4670  153.5130 C   0  0  0  0  0  0  0  0  0  0  0  0
  159.9510  212.1060  154.2380 N   0  0  2  0  0  0  0  0  0  0  0  0
  161.0190  206.2910  151.1620 C   0  0  0  0  0  1  0  0  0  0  0  0
  160.4170  210.4330  152.5420 C   0  0  1  0  0  3  0  0  0  0  0  0
  158.5010  213.5850  152.8670 N   0  0  0  0  0  0  0  0  0  0  0  0
  157.1800  212.4460  154.4830 N   0  0  0  0  0  2  0  0  0  0  0  0
  160.8960  207.6270  151.8650 C   0  0  2  0  0  3  0  0  0  0  0  0
  161.3570  210.1680  155.0200 C   0  0  0  0  0  0  0  0  0  0  0  0
  161.5840  211.1490  150.6240 C   0  0  0  0  0  0  0  0  0  0  0  0
  156.2960  214.4530  153.2700 C   0  0  0  0  0  1  0  0  0  0  0  0
  161.4580  208.7280  150.9650 C   0  0  0  0  0  2  0  0  0  0  0  0
  161.9980  210.8440  156.0690 C   0  0  0  0  0  3  0  0  0  0  0  0
  161.7070  208.0780  156.2250 C   0  0  0  0  0  3  0  0  0  0  0  0
  162.3330  208.7710  157.2610 C   0  0  0  0  0  3  0  0  0  0  0  0
  161.5700  207.5810  153.0870 O   0  0  0  0  0  0  0  0  0  0  0  0
  159.6430  211.5830  151.8770 C   0  0  1  0  0  3  0  0  0  0  0  0
  161.6250  210.0880  151.6540 C   0  0  2  0  0  3  0  0  0  0  0  0
  159.6650  212.6900  152.9240 C   0  0  2  0  0  3  0  0  0  0  0  0
  160.0640  213.0000  149.7750 C   0  0  0  0  0  1  0  0  0  0  0  0
  160.8790  211.0350  153.8680 C   0  0  2  0  0  3  0  0  0  0  0  0
  1 21  1  0  0  0  0
  2  8  2  0  0  0  0
  3 17  2  0  0  0  0
  4 22  1  0  0  0  0
  5 24  1  0  0  0  0
  6  1  1  0  0  0  0
  8  7  2  0  0  0  0
  9 14  1  0  0  0  0
 10  8  1  6  0  0  0
 11 15  1  0  0  0  0
 12 28  1  0  0  0  0
 13 26  1  0  0  0  0
 13  9  2  0  0  0  0
 14  8  1  0  0  0  0
 15 23  1  0  0  0  0
 16  1  2  0  0  0  0
 16 20  1  0  0  0  0
 17  5  1  0  0  0  0
 17 25  1  0  0  0  0
 18  9  1  0  0  0  0
 19 25  1  0  0  0  0
 19 15  1  0  0  0  0
 20  4  2  0  0  0  0
 21 22  2  0  0  0  0
 23  6  1  0  0  0  0
 24 12  1  0  0  0  0
 24 26  1  0  0  0  0
 25 12  1  0  0  0  0
 26 10  1  0  0  0  0
 27  5  1  0  0  0  0
 28 10  1  0  0  0  0
 28 16  1  0  0  0  0
M  END
>  <MODEL>
1

>  <REMARK>
 VINA RESULT:      -4.8      0.000      0.000
  Name = 
  0 active torsions:
  status: ('A' for Active; 'I' for Inactive)
                            x       y       z     vdW  Elec       q    Type
                         _______ _______ _______ _____ _____    ______ ____

>  <TORSDO>
F 0

$$$$
=
 OpenBabel11122414063D

 28 32  0  0  1  0  0  0  0  0999 V2000
  161.3620  208.5040  155.1870 C   0  0  0  0  0  0  0  0  0  0  0  0
  158.9510  210.0800  153.5420 O   0  0  0  0  0  0  0  0  0  0  0  0
  163.4430  207.7340  149.5350 O   0  0  0  0  0  0  0  0  0  0  0  0
  162.9770  210.3110  156.5970 C   0  0  0  0  0  3  0  0  0  0  0  0
  161.7270  209.3220  149.7790 N   0  0  0  0  0  0  0  0  0  0  0  0
  160.5310  207.4680  154.5110 C   0  0  0  0  0  2  0  0  0  0  0  0
  159.7390  212.0790  154.7340 O   0  0  0  0  0  0  0  0  0  0  0  0
  159.6420  211.4070  153.3940 S   0  0  0  0  0  0  0  0  0  0  0  0
  159.2580  212.7310  151.0510 C   0  0  0  0  0  0  0  0  0  0  0  0
  161.2490  211.2340  152.7200 N   0  0  2  0  0  0  0  0  0  0  0  0
  160.4490  204.6190  152.7900 C   0  0  0  0  0  1  0  0  0  0  0  0
  161.1810  208.9010  152.0540 C   0  0  1  0  0  3  0  0  0  0  0  0
  160.3670  212.2150  150.6150 N   0  0  0  0  0  0  0  0  0  0  0  0
  158.7280  212.3940  152.3280 N   0  0  0  0  0  2  0  0  0  0  0  0
  160.7490  206.1030  152.7910 C   0  0  2  0  0  3  0  0  0  0  0  0
  161.9490  209.6020  154.5050 C   0  0  0  0  0  0  0  0  0  0  0  0
  162.5450  208.2670  150.2390 C   0  0  0  0  0  0  0  0  0  0  0  0
  158.5500  213.7360  150.2190 C   0  0  0  0  0  1  0  0  0  0  0  0
  161.6460  206.4410  151.6000 C   0  0  0  0  0  2  0  0  0  0  0  0
  162.7570  210.4900  155.2310 C   0  0  0  0  0  3  0  0  0  0  0  0
  161.5960  208.3330  156.5560 C   0  0  0  0  0  3  0  0  0  0  0  0
  162.3950  209.2330  157.2610 C   0  0  0  0  0  3  0  0  0  0  0  0
  161.3550  206.4620  153.9970 O   0  0  0  0  0  0  0  0  0  0  0  0
  160.8250  209.7580  150.8280 C   0  0  1  0  0  3  0  0  0  0  0  0
  162.2290  207.8600  151.6250 C   0  0  2  0  0  3  0  0  0  0  0  0
  161.1840  211.1760  151.2570 C   0  0  2  0  0  3  0  0  0  0  0  0
  161.7090  209.8260  148.4150 C   0  0  0  0  0  1  0  0  0  0  0  0
  161.7910  209.9080  153.0260 C   0  0  2  0  0  3  0  0  0  0  0  0
  1 21  1  0  0  0  0
  3 17  2  0  0  0  0
  4 22  1  0  0  0  0
  5 17  1  0  0  0  0
  5 24  1  0  0  0  0
  6  1  1  0  0  0  0
  8  2  2  0  0  0  0
  8  7  2  0  0  0  0
  9 14  1  0  0  0  0
 10 28  1  0  0  0  0
 10  8  1  1  0  0  0
 11 15  1  0  0  0  0
 12 28  1  0  0  0  0
 13  9  2  0  0  0  0
 13 26  1  0  0  0  0
 14  8  1  0  0  0  0
 15 23  1  0  0  0  0
 16  1  2  0  0  0  0
 16 20  1  0  0  0  0
 17 25  1  0  0  0  0
 18  9  1  0  0  0  0
 19 25  1  0  0  0  0
 19 15  1  0  0  0  0
 20  4  2  0  0  0  0
 21 22  2  0  0  0  0
 23  6  1  0  0  0  0
 24 26  1  0  0  0  0
 24 12  1  0  0  0  0
 25 12  1  0  0  0  0
 26 10  1  0  0  0  0
 27  5  1  0  0  0  0
 28 16  1  0  0  0  0
M  END
>  <MODEL>
2

>  <REMARK>
 VINA RESULT:      -2.3      1.763      2.310
  Name = 
  0 active torsions:
  status: ('A' for Active; 'I' for Inactive)
                            x       y       z     vdW  Elec       q    Type
                         _______ _______ _______ _____ _____    ______ ____

>  <TORSDO>
F 0

$$$$
=
 OpenBabel11122414063D

 28 32  0  0  1  0  0  0  0  0999 V2000
  161.2800  208.9410  153.7990 C   0  0  0  0  0  0  0  0  0  0  0  0
  158.2770  210.0820  152.9720 O   0  0  0  0  0  0  0  0  0  0  0  0
  162.8140  212.0670  148.8240 O   0  0  0  0  0  0  0  0  0  0  0  0
  162.2500  210.2120  156.1020 C   0  0  0  0  0  3  0  0  0  0  0  0
  160.6690  212.5040  149.6780 N   0  0  0  0  0  0  0  0  0  0  0  0
  160.8270  208.1800  152.6000 C   0  0  0  0  0  2  0  0  0  0  0  0
  158.3880  211.2970  155.1050 O   0  0  0  0  0  0  0  0  0  0  0  0
  158.3950  211.4390  153.6090 S   0  0  0  0  0  0  0  0  0  0  0  0
  157.2660  213.5190  152.2720 C   0  0  0  0  0  0  0  0  0  0  0  0
  159.8560  212.2660  153.1160 N   0  0  2  0  0  0  0  0  0  0  0  0
  161.6230  206.8550  149.6500 C   0  0  0  0  0  1  0  0  0  0  0  0
  160.5940  210.7970  151.3300 C   0  0  1  0  0  3  0  0  0  0  0  0
  158.4290  213.7710  151.7500 N   0  0  0  0  0  0  0  0  0  0  0  0
  157.0570  212.3980  153.1240 N   0  0  0  0  0  2  0  0  0  0  0  0
  161.3390  208.1070  150.4540 C   0  0  2  0  0  3  0  0  0  0  0  0
  161.3260  210.3590  153.8530 C   0  0  0  0  0  0  0  0  0  0  0  0
  161.8720  211.7690  149.6040 C   0  0  0  0  0  0  0  0  0  0  0  0
  156.1390  214.4500  152.0150 C   0  0  0  0  0  1  0  0  0  0  0  0
  161.8950  209.3230  149.7140 C   0  0  0  0  0  2  0  0  0  0  0  0
  161.8200  210.9710  155.0140 C   0  0  0  0  0  3  0  0  0  0  0  0
  161.7210  208.1900  154.8940 C   0  0  0  0  0  3  0  0  0  0  0  0
  162.2000  208.8200  156.0430 C   0  0  0  0  0  3  0  0  0  0  0  0
  161.9030  207.9880  151.7260 O   0  0  0  0  0  0  0  0  0  0  0  0
  159.8000  211.9520  150.6990 C   0  0  1  0  0  3  0  0  0  0  0  0
  161.8990  210.6190  150.5340 C   0  0  2  0  0  3  0  0  0  0  0  0
  159.6460  212.9530  151.8380 C   0  0  2  0  0  3  0  0  0  0  0  0
  160.3010  213.5890  148.7820 C   0  0  0  0  0  1  0  0  0  0  0  0
  160.8900  211.2980  152.7420 C   0  0  2  0  0  3  0  0  0  0  0  0
  1 16  2  0  0  0  0
  1 21  1  0  0  0  0
  2  8  2  0  0  0  0
  3 17  2  0  0  0  0
  5 24  1  0  0  0  0
  6  1  1  0  0  0  0
  8  7  2  0  0  0  0
  9 14  1  0  0  0  0
 10  8  1  6  0  0  0
 11 15  1  0  0  0  0
 12 28  1  0  0  0  0
 13 26  1  0  0  0  0
 13  9  2  0  0  0  0
 14  8  1  0  0  0  0
 15 23  1  0  0  0  0
 16 20  1  0  0  0  0
 17  5  1  0  0  0  0
 17 25  1  0  0  0  0
 18  9  1  0  0  0  0
 19 15  1  0  0  0  0
 19 25  1  0  0  0  0
 20  4  2  0  0  0  0
 21 22  2  0  0  0  0
 22  4  1  0  0  0  0
 23  6  1  0  0  0  0
 24 12  1  0  0  0  0
 24 26  1  0  0  0  0
 25 12  1  0  0  0  0
 26 10  1  0  0  0  0
 27  5  1  0  0  0  0
 28 10  1  0  0  0  0
 28 16  1  0  0  0  0
M  END
>  <MODEL>
3

>  <REMARK>
 VINA RESULT:      -1.9      1.177      1.299
  Name = 
  0 active torsions:
  status: ('A' for Active; 'I' for Inactive)
                            x       y       z     vdW  Elec       q    Type
                         _______ _______ _______ _____ _____    ______ ____

>  <TORSDO>
F 0

$$$$
