=
 OpenBabel11122412433D

 30 35  0  0  1  0  0  0  0  0999 V2000
  161.5830  207.7910  151.5320 C   0  0  2  0  0  3  0  0  0  0  0  0
  161.8780  210.2980  151.2720 C   0  0  2  0  0  3  0  0  0  0  0  0
  161.8540  207.1730  147.3090 N   0  0  0  0  0  2  0  0  0  0  0  0
  161.2540  206.4240  150.8810 C   0  0  2  0  0  3  0  0  0  0  0  0
  160.7760  207.9200  152.8210 C   0  0  0  0  0  2  0  0  0  0  0  0
  160.8580  204.4940  153.8300 O   0  0  0  0  0  0  0  0  0  0  0  0
  160.4970  203.6870  150.2980 C   0  0  1  0  0  3  0  0  0  0  0  0
  161.2120  205.4780  153.1960 C   0  0  0  0  0  0  0  0  0  0  0  0
  160.8460  204.0290  148.8560 C   0  0  2  0  0  3  0  0  0  0  0  0
  161.8780  205.7520  147.3460 C   0  0  0  0  0  0  0  0  0  0  0  0
  161.1980  206.8510  153.8340 C   0  0  2  0  0  3  0  0  0  0  0  0
  161.8100  205.3340  151.8120 C   0  0  1  0  0  3  0  0  0  0  0  0
  161.5200  211.5320  150.4500 C   0  0  0  0  0  2  0  0  0  0  0  0
  161.4440  202.7630  148.2810 C   0  0  0  0  0  2  0  0  0  0  0  0
  160.1390  202.2080  150.2730 C   0  0  0  0  0  2  0  0  0  0  0  0
  163.2580  210.2350  151.4880 O   0  0  0  0  0  1  0  0  0  0  0  0
  161.4340  207.5220  148.6540 C   0  0  1  0  0  3  0  0  0  0  0  0
  162.3540  211.5200  148.8270 S   0  0  0  0  0  0  0  0  0  0  0  0
  161.3620  209.0150  150.6070 C   0  0  1  0  0  3  0  0  0  0  0  0
  161.9140  206.3680  149.5060 C   0  0  2  0  0  3  0  0  0  0  0  0
  161.9980  205.0520  146.3050 O   0  0  0  0  0  0  0  0  0  0  0  0
  161.7270  205.1910  148.6490 N   0  0  0  0  0  0  0  0  0  0  0  0
  160.7390  201.6280  148.9980 C   0  0  0  0  0  2  0  0  0  0  0  0
  162.4600  203.0930  151.5060 O   0  0  0  0  0  0  0  0  0  0  0  0
  161.5510  209.9760  148.2970 C   0  0  0  0  0  2  0  0  0  0  0  0
  161.9760  208.8250  149.2010 C   0  0  2  0  0  3  0  0  0  0  0  0
  161.6380  203.9580  151.2420 C   0  0  0  0  0  0  0  0  0  0  0  0
  160.2820  206.9070  155.0490 C   0  0  0  0  0  2  0  0  0  0  0  0
  161.8430  208.3760  156.5430 C   0  0  0  0  0  1  0  0  0  0  0  0
  160.2360  208.5910  155.7290 S   0  0  0  0  0  0  0  0  0  0  0  0
  1  5  1  1  0  0  0
  2 16  1  6  0  0  0
  3 10  1  0  0  0  0
  3 17  1  0  0  0  0
  4  1  1  0  0  0  0
  4 12  1  0  0  0  0
  5 11  1  0  0  0  0
  7 27  1  0  0  0  0
  8  6  2  0  0  0  0
  8 11  1  0  0  0  0
  9  7  1  0  0  0  0
 10 22  1  0  0  0  0
 11 28  1  0  0  0  0
 12  8  1  0  0  0  0
 13  2  1  0  0  0  0
 14  9  1  0  0  0  0
 14 23  1  0  0  0  0
 15  7  1  0  0  0  0
 17 26  1  0  0  0  0
 17 20  1  0  0  0  0
 18 13  1  0  0  0  0
 19  2  1  0  0  0  0
 19  1  1  0  0  0  0
 20  4  1  0  0  0  0
 21 10  2  0  0  0  0
 22  9  1  0  0  0  0
 22 20  1  0  0  0  0
 23 15  1  0  0  0  0
 25 18  1  0  0  0  0
 25 26  1  0  0  0  0
 26 19  1  0  0  0  0
 27 24  2  0  0  0  0
 27 12  1  0  0  0  0
 28 30  1  0  0  0  0
 30 29  1  0  0  0  0
M  END
>  <MODEL>
1

>  <REMARK>
 VINA RESULT:      -8.0      0.000      0.000
  Name = 
  2 active torsions:
  status: ('A' for Active; 'I' for Inactive)
    1  A    between atoms: C_11  and  C_28
    2  A    between atoms: C_28  and  S_30
                            x       y       z     vdW  Elec       q    Type
                         _______ _______ _______ _____ _____    ______ ____

>  <TORSDO>
F 2

$$$$
=
 OpenBabel11122412433D

 30 35  0  0  1  0  0  0  0  0999 V2000
  161.3680  208.8100  151.5810 C   0  0  2  0  0  3  0  0  0  0  0  0
  161.3370  210.0580  153.7900 C   0  0  2  0  0  3  0  0  0  0  0  0
  160.9260  205.0330  153.5380 N   0  0  0  0  0  2  0  0  0  0  0  0
  161.5320  207.4700  150.8210 C   0  0  2  0  0  3  0  0  0  0  0  0
  162.2170  209.8690  150.8820 C   0  0  0  0  0  2  0  0  0  0  0  0
  161.7940  208.7370  147.5200 O   0  0  0  0  0  0  0  0  0  0  0  0
  161.9760  205.3650  148.8790 C   0  0  1  0  0  3  0  0  0  0  0  0
  161.5310  208.8120  148.7120 C   0  0  0  0  0  0  0  0  0  0  0  0
  161.6310  204.4130  150.0150 C   0  0  2  0  0  3  0  0  0  0  0  0
  160.7510  204.2520  152.3640 C   0  0  0  0  0  0  0  0  0  0  0  0
  161.7080  210.1180  149.4590 C   0  0  2  0  0  3  0  0  0  0  0  0
  160.8860  207.6510  149.4380 C   0  0  1  0  0  3  0  0  0  0  0  0
  161.8040  210.0640  155.2420 C   0  0  0  0  0  2  0  0  0  0  0  0
  160.8850  203.2680  149.3620 C   0  0  0  0  0  2  0  0  0  0  0  0
  162.1730  204.4680  147.6650 C   0  0  0  0  0  2  0  0  0  0  0  0
  159.9640  210.3110  153.7150 O   0  0  0  0  0  1  0  0  0  0  0  0
  161.4140  206.2960  153.0140 C   0  0  1  0  0  3  0  0  0  0  0  0
  160.9320  208.8020  156.2310 S   0  0  0  0  0  0  0  0  0  0  0  0
  161.6960  208.7380  153.0940 C   0  0  1  0  0  3  0  0  0  0  0  0
  160.8350  206.3710  151.6190 C   0  0  2  0  0  3  0  0  0  0  0  0
  160.5310  203.0120  152.4050 O   0  0  0  0  0  0  0  0  0  0  0  0
  160.8730  204.9820  151.1440 N   0  0  0  0  0  0  0  0  0  0  0  0
  161.4830  203.1450  147.9740 C   0  0  0  0  0  2  0  0  0  0  0  0
  159.9920  206.1720  147.8410 O   0  0  0  0  0  0  0  0  0  0  0  0
  161.5520  207.4200  155.2240 C   0  0  0  0  0  2  0  0  0  0  0  0
  161.0300  207.5330  153.7970 C   0  0  2  0  0  3  0  0  0  0  0  0
  160.8950  206.3830  148.6370 C   0  0  0  0  0  0  0  0  0  0  0  0
  162.6550  211.0650  148.7350 C   0  0  0  0  0  2  0  0  0  0  0  0
  160.8680  212.1680  147.1790 C   0  0  0  0  0  1  0  0  0  0  0  0
  161.8990  212.7090  148.5690 S   0  0  0  0  0  0  0  0  0  0  0  0
  1  5  1  6  0  0  0
  1 19  1  0  0  0  0
  2 16  1  1  0  0  0
  2 13  1  0  0  0  0
  4  1  1  0  0  0  0
  4 20  1  0  0  0  0
  6  8  2  0  0  0  0
  7  9  1  0  0  0  0
  8 12  1  0  0  0  0
  8 11  1  0  0  0  0
  9 22  1  0  0  0  0
 10 21  2  0  0  0  0
 10  3  1  0  0  0  0
 11  5  1  0  0  0  0
 12  4  1  0  0  0  0
 13 18  1  0  0  0  0
 14  9  1  0  0  0  0
 15 23  1  0  0  0  0
 15  7  1  0  0  0  0
 17  3  1  0  0  0  0
 17 26  1  0  0  0  0
 19  2  1  0  0  0  0
 19 26  1  0  0  0  0
 20 17  1  0  0  0  0
 22 20  1  0  0  0  0
 22 10  1  0  0  0  0
 23 14  1  0  0  0  0
 24 27  2  0  0  0  0
 25 18  1  0  0  0  0
 26 25  1  0  0  0  0
 27  7  1  0  0  0  0
 27 12  1  0  0  0  0
 28 11  1  0  0  0  0
 29 30  1  0  0  0  0
 30 28  1  0  0  0  0
M  END
>  <MODEL>
2

>  <REMARK>
 VINA RESULT:      -7.2      1.970      5.163
  Name = 
  2 active torsions:
  status: ('A' for Active; 'I' for Inactive)
    1  A    between atoms: C_11  and  C_28
    2  A    between atoms: C_28  and  S_30
                            x       y       z     vdW  Elec       q    Type
                         _______ _______ _______ _____ _____    ______ ____

>  <TORSDO>
F 2

$$$$
=
 OpenBabel11122412433D

 30 35  0  0  1  0  0  0  0  0999 V2000
  161.7840  207.9230  149.0130 C   0  0  2  0  0  3  0  0  0  0  0  0
  161.8740  206.3090  147.0570 C   0  0  2  0  0  3  0  0  0  0  0  0
  161.0640  204.7500  151.7890 N   0  0  0  0  0  2  0  0  0  0  0  0
  161.3810  208.1980  150.4840 C   0  0  2  0  0  3  0  0  0  0  0  0
  161.3050  209.0910  148.1550 C   0  0  0  0  0  2  0  0  0  0  0  0
  161.8090  211.7170  150.5240 O   0  0  0  0  0  0  0  0  0  0  0  0
  160.6530  209.3530  153.0400 C   0  0  1  0  0  3  0  0  0  0  0  0
  161.9470  210.5950  150.0570 C   0  0  0  0  0  0  0  0  0  0  0  0
  160.6260  207.9160  153.5420 C   0  0  2  0  0  3  0  0  0  0  0  0
  161.1710  205.5310  152.9720 C   0  0  0  0  0  0  0  0  0  0  0  0
  162.0140  210.3870  148.5590 C   0  0  2  0  0  3  0  0  0  0  0  0
  162.2020  209.4070  150.9600 C   0  0  1  0  0  3  0  0  0  0  0  0
  161.2640  205.0660  146.4180 C   0  0  0  0  0  2  0  0  0  0  0  0
  161.1350  207.9840  154.9670 C   0  0  0  0  0  2  0  0  0  0  0  0
  160.3780  210.2030  154.2730 C   0  0  0  0  0  2  0  0  0  0  0  0
  163.2670  206.2000  147.1130 O   0  0  0  0  0  1  0  0  0  0  0  0
  160.9620  205.7570  150.7480 C   0  0  1  0  0  3  0  0  0  0  0  0
  161.6830  203.5570  147.3560 S   0  0  0  0  0  0  0  0  0  0  0  0
  161.2820  206.5700  148.4480 C   0  0  1  0  0  3  0  0  0  0  0  0
  161.6940  206.9540  151.3130 C   0  0  2  0  0  3  0  0  0  0  0  0
  161.0750  205.0280  154.1230 O   0  0  0  0  0  0  0  0  0  0  0  0
  161.3690  206.9260  152.7440 N   0  0  0  0  0  0  0  0  0  0  0  0
  160.6840  209.3350  155.4870 C   0  0  0  0  0  2  0  0  0  0  0  0
  162.8780  210.2000  153.0710 O   0  0  0  0  0  0  0  0  0  0  0  0
  160.8590  204.1340  148.8720 C   0  0  0  0  0  2  0  0  0  0  0  0
  161.5490  205.3840  149.4040 C   0  0  2  0  0  3  0  0  0  0  0  0
  161.9710  209.7140  152.4100 C   0  0  0  0  0  0  0  0  0  0  0  0
  161.4160  211.5590  147.7930 C   0  0  0  0  0  2  0  0  0  0  0  0
  161.7290  214.1460  147.9920 C   0  0  0  0  0  1  0  0  0  0  0  0
  162.7100  212.7580  147.3600 S   0  0  0  0  0  0  0  0  0  0  0  0
  1  5  1  6  0  0  0
  1  4  1  0  0  0  0
  2 16  1  1  0  0  0
  2 19  1  0  0  0  0
  3 10  1  0  0  0  0
  4 12  1  0  0  0  0
  4 20  1  0  0  0  0
  5 11  1  0  0  0  0
  7  9  1  0  0  0  0
  7 15  1  0  0  0  0
  8  6  2  0  0  0  0
  8 12  1  0  0  0  0
  9 14  1  0  0  0  0
 10 21  2  0  0  0  0
 11  8  1  0  0  0  0
 12 27  1  0  0  0  0
 13  2  1  0  0  0  0
 13 18  1  0  0  0  0
 14 23  1  0  0  0  0
 15 23  1  0  0  0  0
 17 20  1  0  0  0  0
 17  3  1  0  0  0  0
 18 25  1  0  0  0  0
 19  1  1  0  0  0  0
 19 26  1  0  0  0  0
 20 22  1  0  0  0  0
 22 10  1  0  0  0  0
 22  9  1  0  0  0  0
 25 26  1  0  0  0  0
 26 17  1  0  0  0  0
 27  7  1  0  0  0  0
 27 24  2  0  0  0  0
 28 11  1  0  0  0  0
 30 28  1  0  0  0  0
 30 29  1  0  0  0  0
M  END
>  <MODEL>
3

>  <REMARK>
 VINA RESULT:      -6.5      2.526      6.554
  Name = 
  2 active torsions:
  status: ('A' for Active; 'I' for Inactive)
    1  A    between atoms: C_11  and  C_28
    2  A    between atoms: C_28  and  S_30
                            x       y       z     vdW  Elec       q    Type
                         _______ _______ _______ _____ _____    ______ ____

>  <TORSDO>
F 2

$$$$
