=
 OpenBabel11122413203D

 31 35  0  0  1  0  0  0  0  0999 V2000
  160.8760  207.5850  154.2930 C   0  0  0  0  0  0  0  0  0  0  0  0
  161.4050  207.2050  150.5510 C   0  0  0  0  0  0  0  0  0  0  0  0
  161.2570  205.8090  150.2890 C   0  0  0  0  0  0  0  0  0  0  0  0
  160.9240  203.5050  151.0270 C   0  0  0  0  0  0  0  0  0  0  0  0
  161.3620  207.7740  151.8540 C   0  0  0  0  0  0  0  0  0  0  0  0
  160.6780  209.0640  154.3740 C   0  0  0  0  0  2  0  0  0  0  0  0
  161.0640  204.8640  151.3120 C   0  0  0  0  0  3  0  0  0  0  0  0
  161.7530  209.4630  149.6630 C   0  0  0  0  0  0  0  0  0  0  0  0
  160.7500  206.8720  155.3210 O   0  0  0  0  0  0  0  0  0  0  0  0
  161.4980  206.2220  147.8950 C   0  0  0  0  0  3  0  0  0  0  0  0
  160.7340  202.5970  152.0590 O   0  0  0  0  0  1  0  0  0  0  0  0
  161.7220  209.9560  150.9280 N   0  0  0  0  0  0  0  0  0  0  0  0
  161.6000  208.0840  149.4470 C   0  0  0  0  0  0  0  0  0  0  0  0
  161.9590  210.3510  148.5580 N   0  0  0  0  0  2  0  0  0  0  0  0
  161.1400  206.9780  153.0270 N   0  0  0  0  0  2  0  0  0  0  0  0
  160.9740  203.0590  149.7060 C   0  0  0  0  0  3  0  0  0  0  0  0
  161.5230  209.1650  152.0090 C   0  0  0  0  0  0  0  0  0  0  0  0
  161.5940  209.7750  153.3800 C   0  0  0  0  0  2  0  0  0  0  0  0
  161.6430  207.5810  148.1410 C   0  0  0  0  0  3  0  0  0  0  0  0
  161.3070  205.3370  148.9510 C   0  0  0  0  0  0  0  0  0  0  0  0
  161.1660  203.9750  148.6710 C   0  0  0  0  0  3  0  0  0  0  0  0
  161.2120  212.2900  149.8460 C   0  0  0  0  0  1  0  0  0  0  0  0
  162.0970  211.7930  148.7140 C   0  0  2  0  0  3  0  0  0  0  0  0
  161.1210  213.8030  145.0380 C   0  0  0  0  0  0  0  0  0  0  0  0
  160.7000  212.0280  146.6280 C   0  0  0  0  0  3  0  0  0  0  0  0
  163.5120  214.0810  147.7890 F   0  0  0  0  0  0  0  0  0  0  0  0
  160.8090  214.4530  143.8520 O   0  0  0  0  0  1  0  0  0  0  0  0
  160.3850  212.6830  145.4340 C   0  0  0  0  0  3  0  0  0  0  0  0
  162.4890  213.6150  147.0290 C   0  0  0  0  0  0  0  0  0  0  0  0
  161.7550  212.4890  147.4320 C   0  0  0  0  0  0  0  0  0  0  0  0
  162.1710  214.2670  145.8340 C   0  0  0  0  0  3  0  0  0  0  0  0
  1  6  1  0  0  0  0
  1  9  2  0  0  0  0
  2  5  1  0  0  0  0
  3  2  1  0  0  0  0
  3  7  1  0  0  0  0
  4  7  2  0  0  0  0
  4 11  1  0  0  0  0
  5 17  2  0  0  0  0
  5 15  1  0  0  0  0
  8 12  2  0  0  0  0
 10 19  2  0  0  0  0
 10 20  1  0  0  0  0
 12 17  1  0  0  0  0
 13  8  1  0  0  0  0
 13  2  2  0  0  0  0
 14 23  1  0  0  0  0
 14  8  1  0  0  0  0
 15  1  1  0  0  0  0
 16  4  1  0  0  0  0
 17 18  1  0  0  0  0
 18  6  1  0  0  0  0
 19 13  1  0  0  0  0
 20  3  2  0  0  0  0
 21 20  1  0  0  0  0
 21 16  2  0  0  0  0
 23 22  1  1  0  0  0
 24 28  2  0  0  0  0
 24 31  1  0  0  0  0
 25 30  2  0  0  0  0
 27 24  1  0  0  0  0
 28 25  1  0  0  0  0
 29 30  1  0  0  0  0
 29 26  1  0  0  0  0
 30 23  1  0  0  0  0
 31 29  2  0  0  0  0
M  END
>  <MODEL>
1

>  <REMARK>
 VINA RESULT:     -10.4      0.000      0.000
  Name = 
  2 active torsions:
  status: ('A' for Active; 'I' for Inactive)
    1  A    between atoms: C_5  and  N_16
    2  A    between atoms: C_5  and  C_30
                            x       y       z     vdW  Elec       q    Type
                         _______ _______ _______ _____ _____    ______ ____

>  <TORSDO>
F 2

$$$$
=
 OpenBabel11122413203D

 31 35  0  0  1  0  0  0  0  0999 V2000
  162.0710  207.2450  147.5590 C   0  0  0  0  0  0  0  0  0  0  0  0
  161.2950  206.0230  151.0700 C   0  0  0  0  0  0  0  0  0  0  0  0
  161.1490  204.6080  150.9520 C   0  0  0  0  0  0  0  0  0  0  0  0
  161.0520  202.5560  149.6300 C   0  0  0  0  0  0  0  0  0  0  0  0
  161.5140  206.8900  149.9630 C   0  0  0  0  0  0  0  0  0  0  0  0
  162.5640  208.6220  147.8700 C   0  0  0  0  0  2  0  0  0  0  0  0
  161.2000  203.9420  149.7150 C   0  0  0  0  0  3  0  0  0  0  0  0
  161.3600  207.9940  152.5250 C   0  0  0  0  0  0  0  0  0  0  0  0
  162.1030  206.8140  146.3780 O   0  0  0  0  0  0  0  0  0  0  0  0
  160.8780  204.4240  153.3720 C   0  0  0  0  0  3  0  0  0  0  0  0
  161.1080  201.9290  148.3930 O   0  0  0  0  0  1  0  0  0  0  0  0
  161.5500  208.7820  151.4350 N   0  0  0  0  0  0  0  0  0  0  0  0
  161.2250  206.6050  152.3680 C   0  0  0  0  0  0  0  0  0  0  0  0
  161.2810  208.5880  153.8270 N   0  0  0  0  0  2  0  0  0  0  0  0
  161.6300  206.3980  148.6200 N   0  0  0  0  0  2  0  0  0  0  0  0
  160.8490  201.8030  150.7860 C   0  0  0  0  0  3  0  0  0  0  0  0
  161.6410  208.2750  150.1820 C   0  0  0  0  0  0  0  0  0  0  0  0
  161.7600  209.2220  149.0220 C   0  0  0  0  0  2  0  0  0  0  0  0
  161.0190  205.8010  153.4940 C   0  0  0  0  0  3  0  0  0  0  0  0
  160.9400  203.8240  152.1180 C   0  0  0  0  0  0  0  0  0  0  0  0
  160.7940  202.4370  152.0270 C   0  0  0  0  0  3  0  0  0  0  0  0
  162.2030  210.2610  155.3510 C   0  0  0  0  0  1  0  0  0  0  0  0
  161.4410  210.0170  154.0580 C   0  0  2  0  0  3  0  0  0  0  0  0
  157.6030  211.9570  154.1670 C   0  0  0  0  0  0  0  0  0  0  0  0
  159.2490  210.5160  155.2010 C   0  0  0  0  0  3  0  0  0  0  0  0
  160.5030  211.6890  151.9570 F   0  0  0  0  0  0  0  0  0  0  0  0
  156.3650  212.5840  154.1990 O   0  0  0  0  0  1  0  0  0  0  0  0
  158.0030  211.1480  155.2340 C   0  0  0  0  0  3  0  0  0  0  0  0
  159.6960  211.5050  153.0320 C   0  0  0  0  0  0  0  0  0  0  0  0
  160.1030  210.6900  154.0990 C   0  0  0  0  0  0  0  0  0  0  0  0
  158.4480  212.1350  153.0690 C   0  0  0  0  0  3  0  0  0  0  0  0
  1  6  1  0  0  0  0
  1 15  1  0  0  0  0
  2 13  1  0  0  0  0
  3  2  2  0  0  0  0
  3 20  1  0  0  0  0
  4  7  2  0  0  0  0
  4 16  1  0  0  0  0
  5 17  2  0  0  0  0
  5  2  1  0  0  0  0
  6 18  1  0  0  0  0
  7  3  1  0  0  0  0
  8 14  1  0  0  0  0
  9  1  2  0  0  0  0
 10 19  1  0  0  0  0
 11  4  1  0  0  0  0
 12  8  2  0  0  0  0
 13  8  1  0  0  0  0
 13 19  2  0  0  0  0
 14 23  1  0  0  0  0
 15  5  1  0  0  0  0
 16 21  2  0  0  0  0
 17 12  1  0  0  0  0
 18 17  1  0  0  0  0
 20 10  2  0  0  0  0
 21 20  1  0  0  0  0
 23 30  1  0  0  0  0
 23 22  1  1  0  0  0
 24 27  1  0  0  0  0
 24 28  1  0  0  0  0
 25 28  2  0  0  0  0
 26 29  1  0  0  0  0
 29 31  1  0  0  0  0
 29 30  2  0  0  0  0
 30 25  1  0  0  0  0
 31 24  2  0  0  0  0
M  END
>  <MODEL>
2

>  <REMARK>
 VINA RESULT:     -10.0      3.443      5.892
  Name = 
  2 active torsions:
  status: ('A' for Active; 'I' for Inactive)
    1  A    between atoms: C_5  and  N_16
    2  A    between atoms: C_5  and  C_30
                            x       y       z     vdW  Elec       q    Type
                         _______ _______ _______ _____ _____    ______ ____

>  <TORSDO>
F 2

$$$$
=
 OpenBabel11122413203D

 31 35  0  0  1  0  0  0  0  0999 V2000
  161.5760  205.2360  145.7840 C   0  0  0  0  0  0  0  0  0  0  0  0
  161.1090  204.5250  149.4860 C   0  0  0  0  0  0  0  0  0  0  0  0
  161.1100  203.1010  149.5990 C   0  0  0  0  0  0  0  0  0  0  0  0
  161.1680  200.8650  148.6190 C   0  0  0  0  0  0  0  0  0  0  0  0
  161.1790  205.2200  148.2460 C   0  0  0  0  0  0  0  0  0  0  0  0
  161.9330  206.6870  145.8450 C   0  0  0  0  0  2  0  0  0  0  0  0
  161.1710  202.2540  148.4780 C   0  0  0  0  0  3  0  0  0  0  0  0
  161.0350  206.7010  150.6100 C   0  0  0  0  0  0  0  0  0  0  0  0
  161.5950  204.6260  144.6850 O   0  0  0  0  0  0  0  0  0  0  0  0
  160.9810  203.2840  152.0290 C   0  0  0  0  0  3  0  0  0  0  0  0
  161.2290  200.0550  147.4940 O   0  0  0  0  0  1  0  0  0  0  0  0
  161.0860  207.3180  149.4020 N   0  0  0  0  0  0  0  0  0  0  0  0
  161.0420  205.2980  150.6790 C   0  0  0  0  0  0  0  0  0  0  0  0
  160.9570  207.4850  151.8070 N   0  0  0  0  0  2  0  0  0  0  0  0
  161.2810  204.5320  146.9910 N   0  0  0  0  0  2  0  0  0  0  0  0
  161.1050  200.2910  149.8880 C   0  0  0  0  0  3  0  0  0  0  0  0
  161.1680  206.6280  148.2390 C   0  0  0  0  0  0  0  0  0  0  0  0
  161.1270  207.3830  146.9410 C   0  0  0  0  0  2  0  0  0  0  0  0
  160.9790  204.6690  151.9280 C   0  0  0  0  0  3  0  0  0  0  0  0
  161.0440  202.4990  150.8830 C   0  0  0  0  0  0  0  0  0  0  0  0
  161.0430  201.1080  151.0180 C   0  0  0  0  0  3  0  0  0  0  0  0
  162.3760  209.4540  151.5110 C   0  0  0  0  0  1  0  0  0  0  0  0
  160.9750  208.9420  151.8030 C   0  0  2  0  0  3  0  0  0  0  0  0
  159.5630  210.4720  155.5680 C   0  0  0  0  0  0  0  0  0  0  0  0
  160.6420  208.7210  154.2930 C   0  0  0  0  0  3  0  0  0  0  0  0
  159.6970  211.4710  152.0540 F   0  0  0  0  0  0  0  0  0  0  0  0
  159.1060  210.9680  156.7810 O   0  0  0  0  0  1  0  0  0  0  0  0
  160.1830  209.2210  155.5150 C   0  0  0  0  0  3  0  0  0  0  0  0
  159.8610  210.7270  153.1770 C   0  0  0  0  0  0  0  0  0  0  0  0
  160.4830  209.4710  153.1160 C   0  0  0  0  0  0  0  0  0  0  0  0
  159.4030  211.2230  154.4010 C   0  0  0  0  0  3  0  0  0  0  0  0
  1  6  1  0  0  0  0
  1 15  1  0  0  0  0
  2  3  2  0  0  0  0
  2 13  1  0  0  0  0
  3 20  1  0  0  0  0
  4 16  1  0  0  0  0
  5  2  1  0  0  0  0
  6 18  1  0  0  0  0
  7  4  2  0  0  0  0
  7  3  1  0  0  0  0
  8 13  1  0  0  0  0
  8 14  1  0  0  0  0
  9  1  2  0  0  0  0
 11  4  1  0  0  0  0
 12  8  2  0  0  0  0
 13 19  2  0  0  0  0
 15  5  1  0  0  0  0
 16 21  2  0  0  0  0
 17  5  2  0  0  0  0
 17 12  1  0  0  0  0
 18 17  1  0  0  0  0
 19 10  1  0  0  0  0
 20 21  1  0  0  0  0
 20 10  2  0  0  0  0
 23 22  1  1  0  0  0
 23 14  1  0  0  0  0
 23 30  1  0  0  0  0
 24 27  1  0  0  0  0
 25 28  2  0  0  0  0
 26 29  1  0  0  0  0
 28 24  1  0  0  0  0
 29 31  1  0  0  0  0
 30 29  2  0  0  0  0
 30 25  1  0  0  0  0
 31 24  2  0  0  0  0
M  END
>  <MODEL>
3

>  <REMARK>
 VINA RESULT:     -10.0      3.855      6.615
  Name = 
  2 active torsions:
  status: ('A' for Active; 'I' for Inactive)
    1  A    between atoms: C_5  and  N_16
    2  A    between atoms: C_5  and  C_30
                            x       y       z     vdW  Elec       q    Type
                         _______ _______ _______ _____ _____    ______ ____

>  <TORSDO>
F 2

$$$$
=
 OpenBabel11122413203D

 31 35  0  0  1  0  0  0  0  0999 V2000
  160.7920  201.7640  150.4730 C   0  0  0  0  0  0  0  0  0  0  0  0
  161.3160  205.2790  149.1350 C   0  0  0  0  0  0  0  0  0  0  0  0
  161.2990  205.1470  147.7130 C   0  0  0  0  0  0  0  0  0  0  0  0
  161.1930  203.8010  145.6770 C   0  0  0  0  0  0  0  0  0  0  0  0
  161.2330  204.1780  150.0320 C   0  0  0  0  0  0  0  0  0  0  0  0
  160.4560  202.0790  151.8960 C   0  0  0  0  0  2  0  0  0  0  0  0
  161.2060  203.9000  147.0700 C   0  0  0  0  0  3  0  0  0  0  0  0
  161.4400  206.7570  151.0860 C   0  0  0  0  0  0  0  0  0  0  0  0
  160.7450  200.5770  150.0600 O   0  0  0  0  0  0  0  0  0  0  0  0
  161.4740  207.5700  147.4760 C   0  0  0  0  0  3  0  0  0  0  0  0
  161.1000  202.5560  145.0720 O   0  0  0  0  0  1  0  0  0  0  0  0
  161.3760  205.6730  151.9000 N   0  0  0  0  0  0  0  0  0  0  0  0
  161.4160  206.5860  149.6920 C   0  0  0  0  0  0  0  0  0  0  0  0
  161.5500  208.0680  151.6530 N   0  0  0  0  0  2  0  0  0  0  0  0
  161.1000  202.8260  149.5700 N   0  0  0  0  0  2  0  0  0  0  0  0
  161.2710  204.9530  144.8940 C   0  0  0  0  0  3  0  0  0  0  0  0
  161.2630  204.4110  151.4200 C   0  0  0  0  0  0  0  0  0  0  0  0
  161.2910  203.2600  152.3860 C   0  0  0  0  0  2  0  0  0  0  0  0
  161.4930  207.7070  148.8580 C   0  0  0  0  0  3  0  0  0  0  0  0
  161.3790  206.3080  146.8990 C   0  0  0  0  0  0  0  0  0  0  0  0
  161.3640  206.2030  145.5050 C   0  0  0  0  0  3  0  0  0  0  0  0
  160.8310  207.1920  153.8190 C   0  0  0  0  0  1  0  0  0  0  0  0
  161.5520  208.3140  153.0890 C   0  0  2  0  0  3  0  0  0  0  0  0
  159.7210  212.1050  153.9700 C   0  0  0  0  0  0  0  0  0  0  0  0
  160.0810  210.2590  152.4480 C   0  0  0  0  0  3  0  0  0  0  0  0
  161.9410  209.6730  155.5570 F   0  0  0  0  0  0  0  0  0  0  0  0
  159.1310  213.3290  154.2560 O   0  0  0  0  0  1  0  0  0  0  0  0
  159.4870  211.4910  152.7360 C   0  0  0  0  0  3  0  0  0  0  0  0
  161.1420  210.2570  154.6280 C   0  0  0  0  0  0  0  0  0  0  0  0
  160.9130  209.6350  153.3910 C   0  0  0  0  0  0  0  0  0  0  0  0
  160.5460  211.4890  154.9130 C   0  0  0  0  0  3  0  0  0  0  0  0
  1  6  1  0  0  0  0
  2 13  1  0  0  0  0
  2  5  1  0  0  0  0
  3  2  2  0  0  0  0
  4  7  2  0  0  0  0
  5 17  2  0  0  0  0
  6 18  1  0  0  0  0
  7  3  1  0  0  0  0
  8 14  1  0  0  0  0
  8 12  2  0  0  0  0
  9  1  2  0  0  0  0
 10 19  1  0  0  0  0
 11  4  1  0  0  0  0
 13  8  1  0  0  0  0
 14 23  1  0  0  0  0
 15  5  1  0  0  0  0
 15  1  1  0  0  0  0
 16 21  2  0  0  0  0
 16  4  1  0  0  0  0
 17 12  1  0  0  0  0
 17 18  1  0  0  0  0
 19 13  2  0  0  0  0
 20 10  2  0  0  0  0
 20  3  1  0  0  0  0
 21 20  1  0  0  0  0
 23 30  1  0  0  0  0
 23 22  1  1  0  0  0
 24 27  1  0  0  0  0
 24 31  1  0  0  0  0
 25 28  1  0  0  0  0
 25 30  2  0  0  0  0
 28 24  2  0  0  0  0
 29 31  2  0  0  0  0
 29 26  1  0  0  0  0
 30 29  1  0  0  0  0
M  END
>  <MODEL>
4

>  <REMARK>
 VINA RESULT:      -9.3      4.114      6.068
  Name = 
  2 active torsions:
  status: ('A' for Active; 'I' for Inactive)
    1  A    between atoms: C_5  and  N_16
    2  A    between atoms: C_5  and  C_30
                            x       y       z     vdW  Elec       q    Type
                         _______ _______ _______ _____ _____    ______ ____

>  <TORSDO>
F 2

$$$$
=
 OpenBabel11122413203D

 31 35  0  0  1  0  0  0  0  0999 V2000
  161.5250  204.2940  147.0840 C   0  0  0  0  0  0  0  0  0  0  0  0
  161.4150  206.8110  149.9250 C   0  0  0  0  0  0  0  0  0  0  0  0
  161.2880  206.0310  151.1150 C   0  0  0  0  0  0  0  0  0  0  0  0
  161.0130  203.8960  152.2690 C   0  0  0  0  0  0  0  0  0  0  0  0
  161.4120  206.2590  148.6140 C   0  0  0  0  0  0  0  0  0  0  0  0
  162.0280  205.1720  145.9830 C   0  0  0  0  0  2  0  0  0  0  0  0
  161.1370  204.6330  151.0900 C   0  0  0  0  0  3  0  0  0  0  0  0
  161.6850  209.0240  148.9070 C   0  0  0  0  0  0  0  0  0  0  0  0
  161.3590  203.0630  146.8850 O   0  0  0  0  0  0  0  0  0  0  0  0
  161.4560  208.0540  152.4710 C   0  0  0  0  0  3  0  0  0  0  0  0
  160.8660  202.5180  152.2120 O   0  0  0  0  0  1  0  0  0  0  0  0
  161.6580  208.4510  147.6760 N   0  0  0  0  0  0  0  0  0  0  0  0
  161.5610  208.2210  150.0530 C   0  0  0  0  0  0  0  0  0  0  0  0
  161.8220  210.4450  149.0290 N   0  0  0  0  0  2  0  0  0  0  0  0
  161.3010  204.8480  148.3800 N   0  0  0  0  0  2  0  0  0  0  0  0
  161.0390  204.5440  153.5040 C   0  0  0  0  0  3  0  0  0  0  0  0
  161.5390  207.1140  147.5020 C   0  0  0  0  0  0  0  0  0  0  0  0
  161.4250  206.5690  146.1060 C   0  0  0  0  0  2  0  0  0  0  0  0
  161.5790  208.8200  151.3190 C   0  0  0  0  0  3  0  0  0  0  0  0
  161.3100  206.6730  152.3810 C   0  0  0  0  0  0  0  0  0  0  0  0
  161.1870  205.9300  153.5580 C   0  0  0  0  0  3  0  0  0  0  0  0
  163.1980  212.2220  148.0670 C   0  0  0  0  0  1  0  0  0  0  0  0
  161.9830  211.3270  147.8810 C   0  0  2  0  0  3  0  0  0  0  0  0
  158.4370  213.6910  147.2950 C   0  0  0  0  0  0  0  0  0  0  0  0
  160.2070  212.8980  148.7410 C   0  0  0  0  0  3  0  0  0  0  0  0
  160.6250  211.4710  145.3860 F   0  0  0  0  0  0  0  0  0  0  0  0
  157.2920  214.4530  147.1040 O   0  0  0  0  0  1  0  0  0  0  0  0
  159.0550  213.6650  148.5480 C   0  0  0  0  0  3  0  0  0  0  0  0
  160.1220  212.1830  146.4260 C   0  0  0  0  0  0  0  0  0  0  0  0
  160.7470  212.1510  147.6810 C   0  0  0  0  0  0  0  0  0  0  0  0
  158.9690  212.9520  146.2370 C   0  0  0  0  0  3  0  0  0  0  0  0
  1 15  1  0  0  0  0
  2 13  2  0  0  0  0
  2  3  1  0  0  0  0
  3 20  1  0  0  0  0
  4 16  2  0  0  0  0
  5  2  1  0  0  0  0
  6 18  1  0  0  0  0
  6  1  1  0  0  0  0
  7  3  2  0  0  0  0
  7  4  1  0  0  0  0
  8 14  1  0  0  0  0
  8 13  1  0  0  0  0
  9  1  2  0  0  0  0
 11  4  1  0  0  0  0
 12  8  2  0  0  0  0
 13 19  1  0  0  0  0
 15  5  1  0  0  0  0
 16 21  1  0  0  0  0
 17 12  1  0  0  0  0
 17  5  2  0  0  0  0
 18 17  1  0  0  0  0
 19 10  2  0  0  0  0
 20 10  1  0  0  0  0
 20 21  2  0  0  0  0
 23 22  1  1  0  0  0
 23 14  1  0  0  0  0
 24 28  1  0  0  0  0
 26 29  1  0  0  0  0
 27 24  1  0  0  0  0
 28 25  2  0  0  0  0
 29 30  2  0  0  0  0
 30 23  1  0  0  0  0
 30 25  1  0  0  0  0
 31 29  1  0  0  0  0
 31 24  2  0  0  0  0
M  END
>  <MODEL>
5

>  <REMARK>
 VINA RESULT:      -9.3      2.241      4.318
  Name = 
  2 active torsions:
  status: ('A' for Active; 'I' for Inactive)
    1  A    between atoms: C_5  and  N_16
    2  A    between atoms: C_5  and  C_30
                            x       y       z     vdW  Elec       q    Type
                         _______ _______ _______ _____ _____    ______ ____

>  <TORSDO>
F 2

$$$$
=
 OpenBabel11122413203D

 31 35  0  0  1  0  0  0  0  0999 V2000
  161.1830  208.2370  154.0120 C   0  0  0  0  0  0  0  0  0  0  0  0
  161.4480  207.4210  150.3120 C   0  0  0  0  0  0  0  0  0  0  0  0
  161.2430  206.0110  150.2220 C   0  0  0  0  0  0  0  0  0  0  0  0
  160.8950  203.8170  151.2380 C   0  0  0  0  0  0  0  0  0  0  0  0
  161.5090  208.1340  151.5420 C   0  0  0  0  0  0  0  0  0  0  0  0
  161.0330  209.7230  153.9370 C   0  0  0  0  0  2  0  0  0  0  0  0
  161.0920  205.1940  151.3560 C   0  0  0  0  0  3  0  0  0  0  0  0
  161.7990  209.5510  149.1520 C   0  0  0  0  0  0  0  0  0  0  0  0
  161.1060  207.6490  155.1210 O   0  0  0  0  0  0  0  0  0  0  0  0
  161.3340  206.1440  147.7860 C   0  0  0  0  0  3  0  0  0  0  0  0
  160.7490  203.0380  152.3770 O   0  0  0  0  0  1  0  0  0  0  0  0
  161.8680  210.1840  150.3510 N   0  0  0  0  0  0  0  0  0  0  0  0
  161.5930  208.1630  149.1050 C   0  0  0  0  0  0  0  0  0  0  0  0
  161.9560  210.3020  147.9420 N   0  0  0  0  0  2  0  0  0  0  0  0
  161.3440  207.4830  152.8100 N   0  0  0  0  0  2  0  0  0  0  0  0
  160.8430  203.2250  149.9760 C   0  0  0  0  0  3  0  0  0  0  0  0
  161.7190  209.5270  151.5270 C   0  0  0  0  0  0  0  0  0  0  0  0
  161.9000  210.2840  152.8120 C   0  0  0  0  0  2  0  0  0  0  0  0
  161.5340  207.5160  147.8650 C   0  0  0  0  0  3  0  0  0  0  0  0
  161.1890  205.3900  148.9460 C   0  0  0  0  0  0  0  0  0  0  0  0
  160.9900  204.0110  148.8330 C   0  0  0  0  0  3  0  0  0  0  0  0
  163.1770  212.1590  148.9600 C   0  0  0  0  0  1  0  0  0  0  0  0
  162.1450  211.7460  147.9220 C   0  0  2  0  0  3  0  0  0  0  0  0
  158.4020  213.7500  148.6140 C   0  0  0  0  0  0  0  0  0  0  0  0
  160.5930  213.0830  149.3930 C   0  0  0  0  0  3  0  0  0  0  0  0
  160.0750  211.8560  145.9740 F   0  0  0  0  0  0  0  0  0  0  0  0
  157.1930  214.3960  148.8350 O   0  0  0  0  0  1  0  0  0  0  0  0
  159.3760  213.7340  149.6160 C   0  0  0  0  0  3  0  0  0  0  0  0
  159.8590  212.4660  147.1670 C   0  0  0  0  0  0  0  0  0  0  0  0
  160.8420  212.4440  148.1680 C   0  0  0  0  0  0  0  0  0  0  0  0
  158.6430  213.1170  147.3930 C   0  0  0  0  0  3  0  0  0  0  0  0
  1  9  2  0  0  0  0
  2  5  1  0  0  0  0
  3  2  1  0  0  0  0
  3  7  1  0  0  0  0
  4  7  2  0  0  0  0
  4 11  1  0  0  0  0
  5 15  1  0  0  0  0
  6  1  1  0  0  0  0
  8 12  2  0  0  0  0
 10 19  2  0  0  0  0
 10 20  1  0  0  0  0
 12 17  1  0  0  0  0
 13  8  1  0  0  0  0
 13  2  2  0  0  0  0
 14  8  1  0  0  0  0
 15  1  1  0  0  0  0
 16  4  1  0  0  0  0
 17  5  2  0  0  0  0
 17 18  1  0  0  0  0
 18  6  1  0  0  0  0
 19 13  1  0  0  0  0
 20  3  2  0  0  0  0
 21 20  1  0  0  0  0
 21 16  2  0  0  0  0
 23 14  1  0  0  0  0
 23 30  1  0  0  0  0
 23 22  1  1  0  0  0
 24 27  1  0  0  0  0
 24 28  1  0  0  0  0
 25 28  2  0  0  0  0
 26 29  1  0  0  0  0
 29 31  1  0  0  0  0
 29 30  2  0  0  0  0
 30 25  1  0  0  0  0
 31 24  2  0  0  0  0
M  END
>  <MODEL>
6

>  <REMARK>
 VINA RESULT:      -9.2      1.741      2.153
  Name = 
  2 active torsions:
  status: ('A' for Active; 'I' for Inactive)
    1  A    between atoms: C_5  and  N_16
    2  A    between atoms: C_5  and  C_30
                            x       y       z     vdW  Elec       q    Type
                         _______ _______ _______ _____ _____    ______ ____

>  <TORSDO>
F 2

$$$$
=
 OpenBabel11122413203D

 31 35  0  0  1  0  0  0  0  0999 V2000
  161.9360  209.8980  148.8050 C   0  0  0  0  0  0  0  0  0  0  0  0
  161.3980  207.0150  151.2180 C   0  0  0  0  0  0  0  0  0  0  0  0
  161.2920  205.8510  150.3970 C   0  0  0  0  0  0  0  0  0  0  0  0
  161.1880  204.7600  148.2140 C   0  0  0  0  0  0  0  0  0  0  0  0
  161.5270  208.3360  150.7040 C   0  0  0  0  0  0  0  0  0  0  0  0
  162.4000  210.9490  149.7610 C   0  0  0  0  0  2  0  0  0  0  0  0
  161.2950  205.9140  148.9920 C   0  0  0  0  0  3  0  0  0  0  0  0
  161.4820  207.9680  153.4740 C   0  0  0  0  0  0  0  0  0  0  0  0
  161.9160  210.1320  147.5690 O   0  0  0  0  0  0  0  0  0  0  0  0
  161.1640  204.4450  152.3880 C   0  0  0  0  0  3  0  0  0  0  0  0
  161.1950  204.8550  146.8300 O   0  0  0  0  0  1  0  0  0  0  0  0
  161.5840  209.2110  152.9350 N   0  0  0  0  0  0  0  0  0  0  0  0
  161.3830  206.8490  152.6320 C   0  0  0  0  0  0  0  0  0  0  0  0
  161.4560  207.8100  154.8970 N   0  0  0  0  0  2  0  0  0  0  0  0
  161.5830  208.6050  149.2960 N   0  0  0  0  0  2  0  0  0  0  0  0
  161.0760  203.5120  148.8270 C   0  0  0  0  0  3  0  0  0  0  0  0
  161.6210  209.4210  151.5980 C   0  0  0  0  0  0  0  0  0  0  0  0
  161.6430  210.8320  151.0830 C   0  0  0  0  0  2  0  0  0  0  0  0
  161.2670  205.5720  153.1940 C   0  0  0  0  0  3  0  0  0  0  0  0
  161.1750  204.5730  151.0030 C   0  0  0  0  0  0  0  0  0  0  0  0
  161.0690  203.4200  150.2190 C   0  0  0  0  0  3  0  0  0  0  0  0
  161.5510  208.4310  157.2600 C   0  0  0  0  0  1  0  0  0  0  0  0
  161.5820  208.9270  155.8230 C   0  0  2  0  0  3  0  0  0  0  0  0
  158.4360  211.7810  155.1410 C   0  0  0  0  0  0  0  0  0  0  0  0
  160.7950  211.2610  155.2820 C   0  0  0  0  0  3  0  0  0  0  0  0
  158.8260  208.2380  155.9560 F   0  0  0  0  0  0  0  0  0  0  0  0
  157.4190  212.7000  154.9220 O   0  0  0  0  0  1  0  0  0  0  0  0
  159.7710  212.1860  155.0610 C   0  0  0  0  0  3  0  0  0  0  0  0
  159.1470  209.5240  155.6640 C   0  0  0  0  0  0  0  0  0  0  0  0
  160.4890  209.9250  155.5860 C   0  0  0  0  0  0  0  0  0  0  0  0
  158.1250  210.4530  155.4430 C   0  0  0  0  0  3  0  0  0  0  0  0
  1 15  1  0  0  0  0
  1  6  1  0  0  0  0
  2 13  1  0  0  0  0
  3 20  1  0  0  0  0
  3  2  2  0  0  0  0
  4 16  1  0  0  0  0
  4  7  2  0  0  0  0
  5  2  1  0  0  0  0
  5 17  2  0  0  0  0
  6 18  1  0  0  0  0
  7  3  1  0  0  0  0
  8 14  1  0  0  0  0
  9  1  2  0  0  0  0
 10 19  1  0  0  0  0
 11  4  1  0  0  0  0
 12  8  2  0  0  0  0
 13 19  2  0  0  0  0
 13  8  1  0  0  0  0
 14 23  1  0  0  0  0
 15  5  1  0  0  0  0
 16 21  2  0  0  0  0
 17 12  1  0  0  0  0
 18 17  1  0  0  0  0
 20 10  2  0  0  0  0
 21 20  1  0  0  0  0
 23 22  1  1  0  0  0
 24 31  1  0  0  0  0
 25 30  2  0  0  0  0
 27 24  1  0  0  0  0
 28 24  2  0  0  0  0
 28 25  1  0  0  0  0
 29 26  1  0  0  0  0
 30 29  1  0  0  0  0
 30 23  1  0  0  0  0
 31 29  2  0  0  0  0
M  END
>  <MODEL>
7

>  <REMARK>
 VINA RESULT:      -8.9      3.509      6.535
  Name = 
  2 active torsions:
  status: ('A' for Active; 'I' for Inactive)
    1  A    between atoms: C_5  and  N_16
    2  A    between atoms: C_5  and  C_30
                            x       y       z     vdW  Elec       q    Type
                         _______ _______ _______ _____ _____    ______ ____

>  <TORSDO>
F 2

$$$$
=
 OpenBabel11122413203D

 31 35  0  0  1  0  0  0  0  0999 V2000
  160.8440  201.7410  150.3260 C   0  0  0  0  0  0  0  0  0  0  0  0
  161.1920  205.2290  148.8630 C   0  0  0  0  0  0  0  0  0  0  0  0
  161.1030  205.0550  147.4490 C   0  0  0  0  0  0  0  0  0  0  0  0
  160.9290  203.6470  145.4600 C   0  0  0  0  0  0  0  0  0  0  0  0
  161.1890  204.1520  149.7940 C   0  0  0  0  0  0  0  0  0  0  0  0
  160.5750  202.0880  151.7550 C   0  0  0  0  0  2  0  0  0  0  0  0
  161.0130  203.7870  146.8470 C   0  0  0  0  0  3  0  0  0  0  0  0
  161.3750  206.7660  150.7630 C   0  0  0  0  0  0  0  0  0  0  0  0
  160.8100  200.5410  149.9490 O   0  0  0  0  0  0  0  0  0  0  0  0
  161.1940  207.4740  147.1350 C   0  0  0  0  0  3  0  0  0  0  0  0
  160.8410  202.3820  144.8960 O   0  0  0  0  0  1  0  0  0  0  0  0
  161.3870  205.7050  151.6100 N   0  0  0  0  0  0  0  0  0  0  0  0
  161.2830  206.5530  149.3780 C   0  0  0  0  0  0  0  0  0  0  0  0
  161.4770  208.0960  151.2870 N   0  0  0  0  0  2  0  0  0  0  0  0
  161.0720  202.7850  149.3780 N   0  0  0  0  0  2  0  0  0  0  0  0
  160.9320  204.7770  144.6420 C   0  0  0  0  0  3  0  0  0  0  0  0
  161.2860  204.4270  151.1720 C   0  0  0  0  0  0  0  0  0  0  0  0
  161.3990  203.3060  152.1660 C   0  0  0  0  0  2  0  0  0  0  0  0
  161.2820  207.6520  148.5100 C   0  0  0  0  0  3  0  0  0  0  0  0
  161.1060  206.1930  146.6000 C   0  0  0  0  0  0  0  0  0  0  0  0
  161.0200  206.0470  145.2130 C   0  0  0  0  0  3  0  0  0  0  0  0
  160.9760  207.2260  153.5160 C   0  0  0  0  0  1  0  0  0  0  0  0
  161.5480  208.3840  152.7130 C   0  0  2  0  0  3  0  0  0  0  0  0
  159.4530  212.0350  153.5980 C   0  0  0  0  0  0  0  0  0  0  0  0
  160.0910  209.7850  154.2190 C   0  0  0  0  0  3  0  0  0  0  0  0
  161.5500  210.6220  150.9580 F   0  0  0  0  0  0  0  0  0  0  0  0
  158.7780  213.2150  153.8810 O   0  0  0  0  0  1  0  0  0  0  0  0
  159.4110  210.9730  154.5050 C   0  0  0  0  0  3  0  0  0  0  0  0
  160.8550  210.7250  152.1190 C   0  0  0  0  0  0  0  0  0  0  0  0
  160.8160  209.6530  153.0240 C   0  0  0  0  0  0  0  0  0  0  0  0
  160.1740  211.9110  152.4080 C   0  0  0  0  0  3  0  0  0  0  0  0
  1  6  1  0  0  0  0
  2 13  1  0  0  0  0
  2  5  1  0  0  0  0
  3  2  2  0  0  0  0
  4  7  2  0  0  0  0
  5 17  2  0  0  0  0
  6 18  1  0  0  0  0
  7  3  1  0  0  0  0
  8 14  1  0  0  0  0
  8 12  2  0  0  0  0
  9  1  2  0  0  0  0
 10 19  1  0  0  0  0
 11  4  1  0  0  0  0
 13  8  1  0  0  0  0
 14 23  1  0  0  0  0
 15  5  1  0  0  0  0
 15  1  1  0  0  0  0
 16 21  2  0  0  0  0
 16  4  1  0  0  0  0
 17 12  1  0  0  0  0
 17 18  1  0  0  0  0
 19 13  2  0  0  0  0
 20 10  2  0  0  0  0
 20  3  1  0  0  0  0
 21 20  1  0  0  0  0
 23 30  1  0  0  0  0
 23 22  1  1  0  0  0
 24 27  1  0  0  0  0
 24 28  1  0  0  0  0
 25 28  2  0  0  0  0
 26 29  1  0  0  0  0
 29 31  1  0  0  0  0
 29 30  2  0  0  0  0
 30 25  1  0  0  0  0
 31 24  2  0  0  0  0
M  END
>  <MODEL>
8

>  <REMARK>
 VINA RESULT:      -8.9      3.826      5.852
  Name = 
  2 active torsions:
  status: ('A' for Active; 'I' for Inactive)
    1  A    between atoms: C_5  and  N_16
    2  A    between atoms: C_5  and  C_30
                            x       y       z     vdW  Elec       q    Type
                         _______ _______ _______ _____ _____    ______ ____

>  <TORSDO>
F 2

$$$$
=
 OpenBabel11122413203D

 31 35  0  0  1  0  0  0  0  0999 V2000
  161.2170  212.4300  149.7730 C   0  0  0  0  0  0  0  0  0  0  0  0
  161.3130  208.9370  151.2620 C   0  0  0  0  0  0  0  0  0  0  0  0
  161.1400  209.1220  152.6670 C   0  0  0  0  0  0  0  0  0  0  0  0
  160.8990  210.5450  154.6370 C   0  0  0  0  0  0  0  0  0  0  0  0
  161.4190  210.0080  150.3310 C   0  0  0  0  0  0  0  0  0  0  0  0
  161.0260  212.0880  148.3300 C   0  0  0  0  0  2  0  0  0  0  0  0
  161.0680  210.3950  153.2590 C   0  0  0  0  0  3  0  0  0  0  0  0
  161.5510  207.3840  149.3810 C   0  0  0  0  0  0  0  0  0  0  0  0
  161.2120  213.6310  150.1440 O   0  0  0  0  0  0  0  0  0  0  0  0
  161.1030  206.7020  152.9900 C   0  0  0  0  0  3  0  0  0  0  0  0
  160.8310  211.8150  155.1920 O   0  0  0  0  0  1  0  0  0  0  0  0
  161.6650  208.4390  148.5350 N   0  0  0  0  0  0  0  0  0  0  0  0
  161.3780  207.6070  150.7570 C   0  0  0  0  0  0  0  0  0  0  0  0
  161.6270  206.0480  148.8670 N   0  0  0  0  0  2  0  0  0  0  0  0
  161.3360  211.3820  150.7360 N   0  0  0  0  0  2  0  0  0  0  0  0
  160.7980  209.4200  155.4560 C   0  0  0  0  0  3  0  0  0  0  0  0
  161.5930  209.7220  148.9630 C   0  0  0  0  0  0  0  0  0  0  0  0
  161.8210  210.8320  147.9760 C   0  0  0  0  0  2  0  0  0  0  0  0
  161.2720  206.5140  151.6240 C   0  0  0  0  0  3  0  0  0  0  0  0
  161.0370  207.9880  153.5160 C   0  0  0  0  0  0  0  0  0  0  0  0
  160.8670  208.1450  154.8950 C   0  0  0  0  0  3  0  0  0  0  0  0
  160.8310  206.6080  146.6240 C   0  0  0  0  0  1  0  0  0  0  0  0
  161.7780  205.7510  147.4490 C   0  0  2  0  0  3  0  0  0  0  0  0
  161.0620  201.5750  146.7040 C   0  0  0  0  0  0  0  0  0  0  0  0
  161.3800  203.3980  148.2630 C   0  0  0  0  0  3  0  0  0  0  0  0
  161.5810  204.6690  144.8260 F   0  0  0  0  0  0  0  0  0  0  0  0
  160.8300  200.2280  146.4610 O   0  0  0  0  0  1  0  0  0  0  0  0
  161.1470  202.0420  148.0180 C   0  0  0  0  0  3  0  0  0  0  0  0
  161.4410  203.8210  145.8770 C   0  0  0  0  0  0  0  0  0  0  0  0
  161.5300  204.2960  147.1940 C   0  0  0  0  0  0  0  0  0  0  0  0
  161.2080  202.4630  145.6360 C   0  0  0  0  0  3  0  0  0  0  0  0
  1  9  2  0  0  0  0
  1 15  1  0  0  0  0
  2  3  1  0  0  0  0
  3  7  2  0  0  0  0
  3 20  1  0  0  0  0
  4 11  1  0  0  0  0
  4 16  2  0  0  0  0
  5 15  1  0  0  0  0
  5  2  1  0  0  0  0
  6  1  1  0  0  0  0
  7  4  1  0  0  0  0
  8 13  1  0  0  0  0
 10 20  1  0  0  0  0
 12 17  1  0  0  0  0
 12  8  2  0  0  0  0
 13  2  2  0  0  0  0
 13 19  1  0  0  0  0
 14  8  1  0  0  0  0
 17  5  2  0  0  0  0
 18  6  1  0  0  0  0
 18 17  1  0  0  0  0
 19 10  2  0  0  0  0
 20 21  2  0  0  0  0
 21 16  1  0  0  0  0
 23 22  1  6  0  0  0
 23 14  1  0  0  0  0
 24 28  1  0  0  0  0
 26 29  1  0  0  0  0
 27 24  1  0  0  0  0
 28 25  2  0  0  0  0
 29 30  2  0  0  0  0
 30 23  1  0  0  0  0
 30 25  1  0  0  0  0
 31 29  1  0  0  0  0
 31 24  2  0  0  0  0
M  END
>  <MODEL>
9

>  <REMARK>
 VINA RESULT:      -8.5      3.115      7.459
  Name = 
  2 active torsions:
  status: ('A' for Active; 'I' for Inactive)
    1  A    between atoms: C_5  and  N_16
    2  A    between atoms: C_5  and  C_30
                            x       y       z     vdW  Elec       q    Type
                         _______ _______ _______ _____ _____    ______ ____

>  <TORSDO>
F 2

$$$$
