=
 OpenBabel11122412363D

 30 35  0  0  1  0  0  0  0  0999 V2000
  161.5160  206.0270  150.1640 C   0  0  0  0  0  0  0  0  0  0  0  0
  161.0440  203.5900  149.8900 C   0  0  0  0  0  0  0  0  0  0  0  0
  161.1520  205.7280  154.3400 N   0  0  0  0  0  2  0  0  0  0  0  0
  161.6600  207.1520  151.0180 C   0  0  0  0  0  0  0  0  0  0  0  0
  161.6380  206.2170  148.7470 N   0  0  0  0  0  2  0  0  0  0  0  0
  162.1230  209.8320  148.4350 O   0  0  0  0  0  1  0  0  0  0  0  0
  160.3500  209.6170  152.0610 C   0  0  1  0  0  3  0  0  0  0  0  0
  161.6070  208.6510  148.9750 C   0  0  1  0  0  3  0  0  0  0  0  0
  160.4630  208.9340  153.3670 N   0  0  2  0  0  0  0  0  0  0  0  0
  161.3860  207.0920  154.6720 C   0  0  0  0  0  0  0  0  0  0  0  0
  162.1140  207.4640  148.1620 C   0  0  2  0  0  3  0  0  0  0  0  0
  162.0580  208.5010  150.4330 C   0  0  1  0  0  3  0  0  0  0  0  0
  160.7570  202.3540  150.4750 C   0  0  0  0  0  3  0  0  0  0  0  0
  160.6290  210.0060  154.3390 C   0  0  0  0  0  2  0  0  0  0  0  0
  159.7770  210.9970  152.3220 C   0  0  0  0  0  2  0  0  0  0  0  0
  161.1550  203.6460  148.5050 O   0  0  0  0  0  1  0  0  0  0  0  0
  161.2430  205.7140  152.9250 C   0  0  0  0  0  0  0  0  0  0  0  0
  160.6340  202.2300  151.8580 C   0  0  0  0  0  3  0  0  0  0  0  0
  161.2140  204.7410  150.7010 C   0  0  0  0  0  0  0  0  0  0  0  0
  161.5170  206.9570  152.3970 C   0  0  0  0  0  0  0  0  0  0  0  0
  161.4350  207.4920  155.8650 O   0  0  0  0  0  0  0  0  0  0  0  0
  161.5860  207.9880  153.4810 C   0  0  1  0  0  3  0  0  0  0  0  0
  159.8650  211.2000  153.8170 C   0  0  0  0  0  2  0  0  0  0  0  0
  162.8410  210.3250  152.0120 C   0  0  0  0  0  1  0  0  0  0  0  0
  160.7980  203.3460  152.6740 C   0  0  0  0  0  3  0  0  0  0  0  0
  161.0840  204.5950  152.1110 C   0  0  0  0  0  0  0  0  0  0  0  0
  161.6590  209.7430  151.2470 C   0  0  2  0  0  3  0  0  0  0  0  0
  161.6680  207.5580  146.8420 O   0  0  0  0  0  0  0  0  0  0  0  0
  160.3880  206.2240  145.3470 C   0  0  0  0  0  1  0  0  0  0  0  0
  161.4190  206.2400  146.4550 C   0  0  0  0  0  2  0  0  0  0  0  0
  1 19  2  0  0  0  0
  1  4  1  0  0  0  0
  2 13  2  0  0  0  0
  2 19  1  0  0  0  0
  3 10  1  0  0  0  0
  4 20  2  0  0  0  0
  5  1  1  0  0  0  0
  7 15  1  1  0  0  0
  7  9  1  0  0  0  0
  8  6  1  6  0  0  0
  8 12  1  0  0  0  0
  9 22  1  0  0  0  0
  9 14  1  1  0  0  0
 10 21  2  0  0  0  0
 11 28  1  6  0  0  0
 11  5  1  0  0  0  0
 11  8  1  0  0  0  0
 12  4  1  1  0  0  0
 12 27  1  0  0  0  0
 13 18  1  0  0  0  0
 15 23  1  0  0  0  0
 16  2  1  0  0  0  0
 17  3  1  0  0  0  0
 18 25  2  0  0  0  0
 19 26  1  0  0  0  0
 20 17  1  0  0  0  0
 22 20  1  6  0  0  0
 22 10  1  0  0  0  0
 23 14  1  0  0  0  0
 26 25  1  0  0  0  0
 26 17  2  0  0  0  0
 27 24  1  1  0  0  0
 27  7  1  0  0  0  0
 29 30  1  0  0  0  0
 30 28  1  0  0  0  0
M  END
>  <MODEL>
1

>  <REMARK>
 VINA RESULT:      -8.4      0.000      0.000
  Name = 
  2 active torsions:
  status: ('A' for Active; 'I' for Inactive)
    1  A    between atoms: C_11  and  O_28
    2  A    between atoms: O_28  and  C_30
                            x       y       z     vdW  Elec       q    Type
                         _______ _______ _______ _____ _____    ______ ____

>  <TORSDO>
F 2

$$$$
=
 OpenBabel11122412363D

 30 35  0  0  1  0  0  0  0  0999 V2000
  161.6040  207.9590  149.9040 C   0  0  0  0  0  0  0  0  0  0  0  0
  161.4510  205.9980  148.3660 C   0  0  0  0  0  0  0  0  0  0  0  0
  161.0310  205.4960  153.2610 N   0  0  0  0  0  2  0  0  0  0  0  0
  161.5570  208.4790  151.2240 C   0  0  0  0  0  0  0  0  0  0  0  0
  161.7860  208.8700  148.8110 N   0  0  0  0  0  2  0  0  0  0  0  0
  161.8420  212.1390  150.4560 O   0  0  0  0  0  1  0  0  0  0  0  0
  159.8960  209.9310  153.2260 C   0  0  1  0  0  3  0  0  0  0  0  0
  161.4430  210.8150  150.2500 C   0  0  1  0  0  3  0  0  0  0  0  0
  160.0130  208.6770  153.9990 N   0  0  2  0  0  0  0  0  0  0  0  0
  161.0750  206.4980  154.2700 C   0  0  0  0  0  0  0  0  0  0  0  0
  162.1390  210.2700  149.0070 C   0  0  2  0  0  3  0  0  0  0  0  0
  161.8210  209.9600  151.4650 C   0  0  1  0  0  3  0  0  0  0  0  0
  161.2830  204.6200  148.1960 C   0  0  0  0  0  3  0  0  0  0  0  0
  159.9890  209.0920  155.3950 C   0  0  0  0  0  2  0  0  0  0  0  0
  159.1430  210.9250  154.0910 C   0  0  0  0  0  2  0  0  0  0  0  0
  161.6370  206.7760  147.2290 O   0  0  0  0  0  1  0  0  0  0  0  0
  161.2070  206.2310  152.0610 C   0  0  0  0  0  0  0  0  0  0  0  0
  161.0940  203.7840  149.2950 C   0  0  0  0  0  3  0  0  0  0  0  0
  161.4300  206.5640  149.6660 C   0  0  0  0  0  0  0  0  0  0  0  0
  161.3570  207.5820  152.2810 C   0  0  0  0  0  0  0  0  0  0  0  0
  161.0030  206.2190  155.4960 O   0  0  0  0  0  0  0  0  0  0  0  0
  161.2350  207.8970  153.7400 C   0  0  1  0  0  3  0  0  0  0  0  0
  159.1160  210.3230  155.4770 C   0  0  0  0  0  2  0  0  0  0  0  0
  162.2790  210.7410  153.8340 C   0  0  0  0  0  1  0  0  0  0  0  0
  161.0710  204.3180  150.5810 C   0  0  0  0  0  3  0  0  0  0  0  0
  161.2350  205.6930  150.7760 C   0  0  0  0  0  0  0  0  0  0  0  0
  161.2250  210.5600  152.7490 C   0  0  2  0  0  3  0  0  0  0  0  0
  161.7640  211.0060  147.8820 O   0  0  0  0  0  0  0  0  0  0  0  0
  162.1710  213.1920  147.0420 C   0  0  0  0  0  1  0  0  0  0  0  0
  162.7490  211.9870  147.7540 C   0  0  0  0  0  2  0  0  0  0  0  0
  1  4  1  0  0  0  0
  2 19  1  0  0  0  0
  3 10  1  0  0  0  0
  4 20  2  0  0  0  0
  5 11  1  0  0  0  0
  5  1  1  0  0  0  0
  7  9  1  0  0  0  0
  7 15  1  1  0  0  0
  8  6  1  1  0  0  0
  8 12  1  0  0  0  0
  9 14  1  1  0  0  0
 10 21  2  0  0  0  0
 11 28  1  6  0  0  0
 11  8  1  0  0  0  0
 12  4  1  6  0  0  0
 12 27  1  0  0  0  0
 13  2  2  0  0  0  0
 13 18  1  0  0  0  0
 14 23  1  0  0  0  0
 15 23  1  0  0  0  0
 16  2  1  0  0  0  0
 17 20  1  0  0  0  0
 17  3  1  0  0  0  0
 18 25  2  0  0  0  0
 19  1  2  0  0  0  0
 19 26  1  0  0  0  0
 22 20  1  6  0  0  0
 22  9  1  0  0  0  0
 22 10  1  0  0  0  0
 25 26  1  0  0  0  0
 26 17  2  0  0  0  0
 27  7  1  0  0  0  0
 27 24  1  1  0  0  0
 29 30  1  0  0  0  0
 30 28  1  0  0  0  0
M  END
>  <MODEL>
2

>  <REMARK>
 VINA RESULT:      -6.9      1.759      2.718
  Name = 
  2 active torsions:
  status: ('A' for Active; 'I' for Inactive)
    1  A    between atoms: C_11  and  O_28
    2  A    between atoms: O_28  and  C_30
                            x       y       z     vdW  Elec       q    Type
                         _______ _______ _______ _____ _____    ______ ____

>  <TORSDO>
F 2

$$$$
=
 OpenBabel11122412363D

 30 35  0  0  1  0  0  0  0  0999 V2000
  160.8330  210.5690  151.6840 C   0  0  0  0  0  0  0  0  0  0  0  0
  161.8770  208.6570  150.4630 C   0  0  0  0  0  0  0  0  0  0  0  0
  160.5580  208.2950  155.2080 N   0  0  0  0  0  2  0  0  0  0  0  0
  160.2640  211.0880  152.8770 C   0  0  0  0  0  0  0  0  0  0  0  0
  160.8740  211.4040  150.5190 N   0  0  0  0  0  2  0  0  0  0  0  0
  159.1770  214.4530  151.6260 O   0  0  0  0  0  1  0  0  0  0  0  0
  157.7280  211.7740  154.2830 C   0  0  1  0  0  3  0  0  0  0  0  0
  159.4240  213.0790  151.5540 C   0  0  1  0  0  3  0  0  0  0  0  0
  158.1690  210.7430  155.2460 N   0  0  2  0  0  0  0  0  0  0  0  0
  159.9420  209.2700  156.0430 C   0  0  0  0  0  0  0  0  0  0  0  0
  160.5570  212.8260  150.5630 C   0  0  2  0  0  3  0  0  0  0  0  0
  159.8250  212.5450  152.9340 C   0  0  1  0  0  3  0  0  0  0  0  0
  162.3410  207.3380  150.4770 C   0  0  0  0  0  3  0  0  0  0  0  0
  157.6450  211.1820  156.5330 C   0  0  0  0  0  2  0  0  0  0  0  0
  156.4500  212.3830  154.8270 C   0  0  0  0  0  2  0  0  0  0  0  0
  161.9850  209.3740  149.2760 O   0  0  0  0  0  1  0  0  0  0  0  0
  160.6910  208.9640  153.9650 C   0  0  0  0  0  0  0  0  0  0  0  0
  162.2620  206.5660  151.6340 C   0  0  0  0  0  3  0  0  0  0  0  0
  161.3150  209.2270  151.6330 C   0  0  0  0  0  0  0  0  0  0  0  0
  160.2110  210.2550  154.0010 C   0  0  0  0  0  0  0  0  0  0  0  0
  159.7050  209.0560  157.2610 O   0  0  0  0  0  0  0  0  0  0  0  0
  159.6280  210.5650  155.3450 C   0  0  1  0  0  3  0  0  0  0  0  0
  156.3480  211.9080  156.2590 C   0  0  0  0  0  2  0  0  0  0  0  0
  159.3420  213.5790  155.1990 C   0  0  0  0  0  1  0  0  0  0  0  0
  161.7160  207.1070  152.7960 C   0  0  0  0  0  3  0  0  0  0  0  0
  161.2430  208.4230  152.8060 C   0  0  0  0  0  0  0  0  0  0  0  0
  158.7480  212.8940  153.9750 C   0  0  2  0  0  3  0  0  0  0  0  0
  160.1880  213.2590  149.2880 O   0  0  0  0  0  0  0  0  0  0  0  0
  160.7730  212.5010  147.1120 C   0  0  0  0  0  1  0  0  0  0  0  0
  161.2740  212.9350  148.4730 C   0  0  0  0  0  2  0  0  0  0  0  0
  1  4  1  0  0  0  0
  2 13  2  0  0  0  0
  2 19  1  0  0  0  0
  3 10  1  0  0  0  0
  4 20  2  0  0  0  0
  5 11  1  0  0  0  0
  5  1  1  0  0  0  0
  7 15  1  1  0  0  0
  7  9  1  0  0  0  0
  8  6  1  1  0  0  0
  8 12  1  0  0  0  0
  9 22  1  0  0  0  0
  9 14  1  1  0  0  0
 10 21  2  0  0  0  0
 11 28  1  6  0  0  0
 11  8  1  0  0  0  0
 12  4  1  6  0  0  0
 12 27  1  0  0  0  0
 13 18  1  0  0  0  0
 15 23  1  0  0  0  0
 16  2  1  0  0  0  0
 17 20  1  0  0  0  0
 17  3  1  0  0  0  0
 18 25  2  0  0  0  0
 19  1  2  0  0  0  0
 19 26  1  0  0  0  0
 22 20  1  6  0  0  0
 22 10  1  0  0  0  0
 23 14  1  0  0  0  0
 25 26  1  0  0  0  0
 26 17  2  0  0  0  0
 27  7  1  0  0  0  0
 27 24  1  1  0  0  0
 29 30  1  0  0  0  0
 30 28  1  0  0  0  0
M  END
>  <MODEL>
3

>  <REMARK>
 VINA RESULT:      -6.4      2.883      4.862
  Name = 
  2 active torsions:
  status: ('A' for Active; 'I' for Inactive)
    1  A    between atoms: C_11  and  O_28
    2  A    between atoms: O_28  and  C_30
                            x       y       z     vdW  Elec       q    Type
                         _______ _______ _______ _____ _____    ______ ____

>  <TORSDO>
F 2

$$$$
=
 OpenBabel11122412363D

 30 35  0  0  1  0  0  0  0  0999 V2000
  160.2830  209.6310  153.6370 C   0  0  0  0  0  0  0  0  0  0  0  0
  159.1550  211.7140  154.4290 C   0  0  0  0  0  0  0  0  0  0  0  0
  161.3540  211.4710  150.0130 N   0  0  0  0  0  2  0  0  0  0  0  0
  160.9940  208.9420  152.6200 C   0  0  0  0  0  0  0  0  0  0  0  0
  159.9410  208.9260  154.8380 N   0  0  0  0  0  2  0  0  0  0  0  0
  161.1670  205.5380  154.1880 O   0  0  0  0  0  1  0  0  0  0  0  0
  160.7930  206.9450  150.4170 C   0  0  1  0  0  3  0  0  0  0  0  0
  160.5980  206.7770  153.8760 C   0  0  1  0  0  3  0  0  0  0  0  0
  161.1860  208.0840  149.5620 N   0  0  2  0  0  0  0  0  0  0  0  0
  162.0210  210.3710  149.4050 C   0  0  0  0  0  0  0  0  0  0  0  0
  160.4740  207.6060  155.1510 C   0  0  2  0  0  3  0  0  0  0  0  0
  161.4820  207.5200  152.8680 C   0  0  1  0  0  3  0  0  0  0  0  0
  158.7950  213.0430  154.1920 C   0  0  0  0  0  3  0  0  0  0  0  0
  161.9450  207.4910  148.4690 C   0  0  0  0  0  2  0  0  0  0  0  0
  160.7110  205.7200  149.5270 C   0  0  0  0  0  2  0  0  0  0  0  0
  158.7800  211.1430  155.6400 O   0  0  0  0  0  1  0  0  0  0  0  0
  160.9330  210.9500  151.2630 C   0  0  0  0  0  0  0  0  0  0  0  0
  159.1410  213.6750  152.9980 C   0  0  0  0  0  3  0  0  0  0  0  0
  159.8800  210.9860  153.4510 C   0  0  0  0  0  0  0  0  0  0  0  0
  161.3030  209.6350  151.4430 C   0  0  0  0  0  0  0  0  0  0  0  0
  162.5850  210.4660  148.2830 O   0  0  0  0  0  0  0  0  0  0  0  0
  162.0040  209.1110  150.2280 C   0  0  1  0  0  3  0  0  0  0  0  0
  161.3690  206.1160  148.2240 C   0  0  0  0  0  2  0  0  0  0  0  0
  163.1990  206.5330  151.2830 C   0  0  0  0  0  1  0  0  0  0  0  0
  159.8540  212.9800  152.0250 C   0  0  0  0  0  3  0  0  0  0  0  0
  160.2240  211.6480  152.2380 C   0  0  0  0  0  0  0  0  0  0  0  0
  161.7180  206.6520  151.6210 C   0  0  2  0  0  3  0  0  0  0  0  0
  159.6290  206.9680  156.0610 O   0  0  0  0  0  0  0  0  0  0  0  0
  161.3590  208.0740  157.2590 C   0  0  0  0  0  1  0  0  0  0  0  0
  160.3440  206.9510  157.2600 C   0  0  0  0  0  2  0  0  0  0  0  0
  1  5  1  0  0  0  0
  2 16  1  0  0  0  0
  3 17  1  0  0  0  0
  4  1  2  0  0  0  0
  5 11  1  0  0  0  0
  7 15  1  6  0  0  0
  7 27  1  0  0  0  0
  8  6  1  1  0  0  0
  8 11  1  0  0  0  0
  9 14  1  6  0  0  0
  9 22  1  0  0  0  0
  9  7  1  0  0  0  0
 10  3  1  0  0  0  0
 11 28  1  1  0  0  0
 12  4  1  6  0  0  0
 12  8  1  0  0  0  0
 13  2  1  0  0  0  0
 17 20  2  0  0  0  0
 17 26  1  0  0  0  0
 18 13  2  0  0  0  0
 19  1  1  0  0  0  0
 19  2  2  0  0  0  0
 20  4  1  0  0  0  0
 21 10  2  0  0  0  0
 22 10  1  6  0  0  0
 22 20  1  0  0  0  0
 23 14  1  0  0  0  0
 23 15  1  0  0  0  0
 25 26  2  0  0  0  0
 25 18  1  0  0  0  0
 26 19  1  0  0  0  0
 27 24  1  6  0  0  0
 27 12  1  0  0  0  0
 28 30  1  0  0  0  0
 29 30  1  0  0  0  0
M  END
>  <MODEL>
4

>  <REMARK>
 VINA RESULT:      -6.2      2.255      7.380
  Name = 
  2 active torsions:
  status: ('A' for Active; 'I' for Inactive)
    1  A    between atoms: C_11  and  O_28
    2  A    between atoms: O_28  and  C_30
                            x       y       z     vdW  Elec       q    Type
                         _______ _______ _______ _____ _____    ______ ____

>  <TORSDO>
F 2

$$$$
=
 OpenBabel11122412363D

 30 35  0  0  1  0  0  0  0  0999 V2000
  160.8310  209.8110  152.6640 C   0  0  0  0  0  0  0  0  0  0  0  0
  160.1900  212.2040  152.3490 C   0  0  0  0  0  0  0  0  0  0  0  0
  161.9880  209.4890  148.6360 N   0  0  0  0  0  2  0  0  0  0  0  0
  161.3210  208.5980  152.1120 C   0  0  0  0  0  0  0  0  0  0  0  0
  160.4410  209.8330  154.0440 N   0  0  0  0  0  2  0  0  0  0  0  0
  160.9330  206.3620  155.0980 O   0  0  0  0  0  1  0  0  0  0  0  0
  160.5820  205.8950  151.0990 C   0  0  1  0  0  3  0  0  0  0  0  0
  160.5970  207.4000  154.2240 C   0  0  1  0  0  3  0  0  0  0  0  0
  161.1300  206.3980  149.8220 N   0  0  2  0  0  0  0  0  0  0  0  0
  162.3830  208.1220  148.6370 C   0  0  0  0  0  0  0  0  0  0  0  0
  160.7250  208.7320  154.9560 C   0  0  2  0  0  3  0  0  0  0  0  0
  161.5370  207.3900  153.0130 C   0  0  1  0  0  3  0  0  0  0  0  0
  160.0810  213.3130  151.5040 C   0  0  0  0  0  3  0  0  0  0  0  0
  161.6820  205.2230  149.1600 C   0  0  0  0  0  2  0  0  0  0  0  0
  160.2000  204.4430  150.8850 C   0  0  0  0  0  2  0  0  0  0  0  0
  159.7950  212.3530  153.6740 O   0  0  0  0  0  1  0  0  0  0  0  0
  161.5610  209.7080  149.9700 C   0  0  0  0  0  0  0  0  0  0  0  0
  160.4610  213.2300  150.1660 C   0  0  0  0  0  3  0  0  0  0  0  0
  160.6890  210.9740  151.8500 C   0  0  0  0  0  0  0  0  0  0  0  0
  161.6780  208.5840  150.7580 C   0  0  0  0  0  0  0  0  0  0  0  0
  162.8770  207.5670  147.6200 O   0  0  0  0  0  0  0  0  0  0  0  0
  162.1780  207.4240  149.9530 C   0  0  1  0  0  3  0  0  0  0  0  0
  160.8310  204.0430  149.5710 C   0  0  0  0  0  2  0  0  0  0  0  0
  162.9140  205.4500  152.1330 C   0  0  0  0  0  1  0  0  0  0  0  0
  160.9550  212.0330  149.6550 C   0  0  0  0  0  3  0  0  0  0  0  0
  161.0710  210.9090  150.4800 C   0  0  0  0  0  0  0  0  0  0  0  0
  161.5120  206.0130  152.3280 C   0  0  2  0  0  3  0  0  0  0  0  0
  159.8370  208.7800  156.0320 O   0  0  0  0  0  0  0  0  0  0  0  0
  161.8580  209.0410  157.2560 C   0  0  0  0  0  1  0  0  0  0  0  0
  160.4710  209.5810  156.9820 C   0  0  0  0  0  2  0  0  0  0  0  0
  1  5  1  0  0  0  0
  2 16  1  0  0  0  0
  3 10  1  0  0  0  0
  3 17  1  0  0  0  0
  4  1  1  0  0  0  0
  5 11  1  0  0  0  0
  7 15  1  6  0  0  0
  7 27  1  0  0  0  0
  8 11  1  0  0  0  0
  8  6  1  1  0  0  0
  9 14  1  1  0  0  0
  9 22  1  0  0  0  0
  9  7  1  0  0  0  0
 11 28  1  1  0  0  0
 12  4  1  6  0  0  0
 12  8  1  0  0  0  0
 13  2  2  0  0  0  0
 14 23  1  0  0  0  0
 17 26  2  0  0  0  0
 17 20  1  0  0  0  0
 18 13  1  0  0  0  0
 19  2  1  0  0  0  0
 19  1  2  0  0  0  0
 20  4  2  0  0  0  0
 21 10  2  0  0  0  0
 22 10  1  6  0  0  0
 22 20  1  0  0  0  0
 23 15  1  0  0  0  0
 25 18  2  0  0  0  0
 25 26  1  0  0  0  0
 26 19  1  0  0  0  0
 27 24  1  6  0  0  0
 27 12  1  0  0  0  0
 28 30  1  0  0  0  0
 30 29  1  0  0  0  0
M  END
>  <MODEL>
5

>  <REMARK>
 VINA RESULT:      -6.0      1.996      7.335
  Name = 
  2 active torsions:
  status: ('A' for Active; 'I' for Inactive)
    1  A    between atoms: C_11  and  O_28
    2  A    between atoms: O_28  and  C_30
                            x       y       z     vdW  Elec       q    Type
                         _______ _______ _______ _____ _____    ______ ____

>  <TORSDO>
F 2

$$$$
=
 OpenBabel11122412363D

 30 35  0  0  1  0  0  0  0  0999 V2000
  160.8860  210.5770  151.7330 C   0  0  0  0  0  0  0  0  0  0  0  0
  161.8960  208.3790  151.1140 C   0  0  0  0  0  0  0  0  0  0  0  0
  159.9090  209.1600  155.5670 N   0  0  0  0  0  2  0  0  0  0  0  0
  160.2120  211.3830  152.6880 C   0  0  0  0  0  0  0  0  0  0  0  0
  161.1670  211.1310  150.4400 N   0  0  0  0  0  2  0  0  0  0  0  0
  159.6390  214.4530  150.6110 O   0  0  0  0  0  1  0  0  0  0  0  0
  157.5850  212.5260  153.5090 C   0  0  1  0  0  3  0  0  0  0  0  0
  159.7600  213.0840  150.8650 C   0  0  1  0  0  3  0  0  0  0  0  0
  157.7870  211.7070  154.7230 N   0  0  2  0  0  0  0  0  0  0  0  0
  159.2820  210.3330  156.0740 C   0  0  0  0  0  0  0  0  0  0  0  0
  160.9870  212.5450  150.1370 C   0  0  2  0  0  3  0  0  0  0  0  0
  159.9120  212.8420  152.3710 C   0  0  1  0  0  3  0  0  0  0  0  0
  162.2230  207.0680  151.4740 C   0  0  0  0  0  3  0  0  0  0  0  0
  157.1370  212.4520  155.7930 C   0  0  0  0  0  2  0  0  0  0  0  0
  156.3100  213.3220  153.7100 C   0  0  0  0  0  2  0  0  0  0  0  0
  162.2360  208.8080  149.8360 O   0  0  0  0  0  1  0  0  0  0  0  0
  160.2760  209.5280  154.2480 C   0  0  0  0  0  0  0  0  0  0  0  0
  161.9110  206.5780  152.7410 C   0  0  0  0  0  3  0  0  0  0  0  0
  161.2380  209.2290  152.0380 C   0  0  0  0  0  0  0  0  0  0  0  0
  159.9230  210.8230  153.9390 C   0  0  0  0  0  0  0  0  0  0  0  0
  158.8610  210.4090  157.2580 O   0  0  0  0  0  0  0  0  0  0  0  0
  159.1940  211.4600  155.0820 C   0  0  1  0  0  3  0  0  0  0  0  0
  155.9670  213.1830  155.1760 C   0  0  0  0  0  2  0  0  0  0  0  0
  159.2260  214.3800  154.2680 C   0  0  0  0  0  1  0  0  0  0  0  0
  161.2660  207.3950  153.6650 C   0  0  0  0  0  3  0  0  0  0  0  0
  160.9270  208.7100  153.3270 C   0  0  0  0  0  0  0  0  0  0  0  0
  158.7420  213.4810  153.1370 C   0  0  2  0  0  3  0  0  0  0  0  0
  160.8410  212.7090  148.7580 O   0  0  0  0  0  0  0  0  0  0  0  0
  163.0370  212.4550  147.8830 C   0  0  0  0  0  1  0  0  0  0  0  0
  161.9740  213.4210  148.3620 C   0  0  0  0  0  2  0  0  0  0  0  0
  1 19  2  0  0  0  0
  1  4  1  0  0  0  0
  2 13  2  0  0  0  0
  2 19  1  0  0  0  0
  3 10  1  0  0  0  0
  4 20  2  0  0  0  0
  5  1  1  0  0  0  0
  7 15  1  1  0  0  0
  7  9  1  0  0  0  0
  8  6  1  1  0  0  0
  8 12  1  0  0  0  0
  9 22  1  0  0  0  0
  9 14  1  1  0  0  0
 10 21  2  0  0  0  0
 11 28  1  6  0  0  0
 11  5  1  0  0  0  0
 11  8  1  0  0  0  0
 12  4  1  6  0  0  0
 12 27  1  0  0  0  0
 13 18  1  0  0  0  0
 15 23  1  0  0  0  0
 16  2  1  0  0  0  0
 17  3  1  0  0  0  0
 18 25  2  0  0  0  0
 19 26  1  0  0  0  0
 20 17  1  0  0  0  0
 22 20  1  6  0  0  0
 22 10  1  0  0  0  0
 23 14  1  0  0  0  0
 26 25  1  0  0  0  0
 26 17  2  0  0  0  0
 27  7  1  0  0  0  0
 27 24  1  1  0  0  0
 29 30  1  0  0  0  0
 30 28  1  0  0  0  0
M  END
>  <MODEL>
6

>  <REMARK>
 VINA RESULT:      -5.8      3.101      5.004
  Name = 
  2 active torsions:
  status: ('A' for Active; 'I' for Inactive)
    1  A    between atoms: C_11  and  O_28
    2  A    between atoms: O_28  and  C_30
                            x       y       z     vdW  Elec       q    Type
                         _______ _______ _______ _____ _____    ______ ____

>  <TORSDO>
F 2

$$$$
=
 OpenBabel11122412363D

 30 35  0  0  1  0  0  0  0  0999 V2000
  161.4830  208.4590  151.0160 C   0  0  0  0  0  0  0  0  0  0  0  0
  162.1750  209.1910  148.7300 C   0  0  0  0  0  0  0  0  0  0  0  0
  160.4620  212.3970  152.0740 N   0  0  0  0  0  2  0  0  0  0  0  0
  160.9920  208.7930  152.3050 C   0  0  0  0  0  0  0  0  0  0  0  0
  161.8250  207.0940  150.7400 N   0  0  0  0  0  2  0  0  0  0  0  0
  161.2400  205.4290  153.9470 O   0  0  0  0  0  1  0  0  0  0  0  0
  161.7220  209.2550  155.1570 C   0  0  1  0  0  3  0  0  0  0  0  0
  161.6220  206.4690  153.0940 C   0  0  1  0  0  3  0  0  0  0  0  0
  161.2270  210.6240  154.8970 N   0  0  2  0  0  0  0  0  0  0  0  0
  160.0440  212.1560  153.4130 C   0  0  0  0  0  0  0  0  0  0  0  0
  161.4910  206.0040  151.6470 C   0  0  2  0  0  3  0  0  0  0  0  0
  160.7250  207.6910  153.3220 C   0  0  1  0  0  3  0  0  0  0  0  0
  162.3310  210.2230  147.8000 C   0  0  0  0  0  3  0  0  0  0  0  0
  160.6790  211.0740  156.1700 C   0  0  0  0  0  2  0  0  0  0  0  0
  162.0860  209.1800  156.6280 C   0  0  0  0  0  2  0  0  0  0  0  0
  162.5250  207.9040  148.3400 O   0  0  0  0  0  1  0  0  0  0  0  0
  160.8460  211.1120  151.6130 C   0  0  0  0  0  0  0  0  0  0  0  0
  161.9970  211.5360  148.1280 C   0  0  0  0  0  3  0  0  0  0  0  0
  161.6730  209.4700  150.0270 C   0  0  0  0  0  0  0  0  0  0  0  0
  160.6830  210.1330  152.5690 C   0  0  0  0  0  0  0  0  0  0  0  0
  159.5780  213.0680  154.1440 O   0  0  0  0  0  0  0  0  0  0  0  0
  160.1920  210.7250  153.8540 C   0  0  1  0  0  3  0  0  0  0  0  0
  161.4950  210.4190  157.2610 C   0  0  0  0  0  2  0  0  0  0  0  0
  159.3480  208.2450  155.3780 C   0  0  0  0  0  1  0  0  0  0  0  0
  161.5010  211.8320  149.3950 C   0  0  0  0  0  3  0  0  0  0  0  0
  161.3370  210.8170  150.3440 C   0  0  0  0  0  0  0  0  0  0  0  0
  160.7510  208.1060  154.8030 C   0  0  2  0  0  3  0  0  0  0  0  0
  162.3420  204.9230  151.4080 O   0  0  0  0  0  0  0  0  0  0  0  0
  161.1940  202.8520  151.6200 C   0  0  0  0  0  1  0  0  0  0  0  0
  161.5610  204.0030  150.7070 C   0  0  0  0  0  2  0  0  0  0  0  0
  1  4  1  0  0  0  0
  2 19  1  0  0  0  0
  3 10  1  0  0  0  0
  4 20  2  0  0  0  0
  5  1  1  0  0  0  0
  5 11  1  0  0  0  0
  7 15  1  1  0  0  0
  8 12  1  0  0  0  0
  8  6  1  1  0  0  0
  9  7  1  0  0  0  0
  9 14  1  1  0  0  0
 10 22  1  0  0  0  0
 10 21  2  0  0  0  0
 11 28  1  1  0  0  0
 11  8  1  0  0  0  0
 12  4  1  6  0  0  0
 12 27  1  0  0  0  0
 13 18  1  0  0  0  0
 13  2  2  0  0  0  0
 14 23  1  0  0  0  0
 15 23  1  0  0  0  0
 16  2  1  0  0  0  0
 17  3  1  0  0  0  0
 17 20  1  0  0  0  0
 18 25  2  0  0  0  0
 19 26  1  0  0  0  0
 19  1  2  0  0  0  0
 22 20  1  6  0  0  0
 22  9  1  0  0  0  0
 25 26  1  0  0  0  0
 26 17  2  0  0  0  0
 27  7  1  0  0  0  0
 27 24  1  6  0  0  0
 30 28  1  0  0  0  0
 30 29  1  0  0  0  0
M  END
>  <MODEL>
7

>  <REMARK>
 VINA RESULT:      -5.8      2.246      5.382
  Name = 
  2 active torsions:
  status: ('A' for Active; 'I' for Inactive)
    1  A    between atoms: C_11  and  O_28
    2  A    between atoms: O_28  and  C_30
                            x       y       z     vdW  Elec       q    Type
                         _______ _______ _______ _____ _____    ______ ____

>  <TORSDO>
F 2

$$$$
=
 OpenBabel11122412363D

 30 35  0  0  1  0  0  0  0  0999 V2000
  161.0330  209.0100  151.9530 C   0  0  0  0  0  0  0  0  0  0  0  0
  162.0280  209.0040  149.6620 C   0  0  0  0  0  0  0  0  0  0  0  0
  160.0730  213.0900  151.6310 N   0  0  0  0  0  2  0  0  0  0  0  0
  160.4070  209.7260  153.0070 C   0  0  0  0  0  0  0  0  0  0  0  0
  161.3430  207.6240  152.1490 N   0  0  0  0  0  2  0  0  0  0  0  0
  160.3010  207.0230  155.6070 O   0  0  0  0  0  1  0  0  0  0  0  0
  160.8080  211.0330  155.6550 C   0  0  1  0  0  3  0  0  0  0  0  0
  160.8310  207.7500  154.5360 C   0  0  1  0  0  3  0  0  0  0  0  0
  160.4110  212.2590  154.9320 N   0  0  2  0  0  0  0  0  0  0  0  0
  159.4870  213.2720  152.9150 C   0  0  0  0  0  0  0  0  0  0  0  0
  160.8530  206.8660  153.2930 C   0  0  2  0  0  3  0  0  0  0  0  0
  159.9690  208.9890  154.2660 C   0  0  1  0  0  3  0  0  0  0  0  0
  162.3420  209.7010  148.4920 C   0  0  0  0  0  3  0  0  0  0  0  0
  159.7360  213.0810  155.9280 C   0  0  0  0  0  2  0  0  0  0  0  0
  160.9890  211.4080  157.1140 C   0  0  0  0  0  2  0  0  0  0  0  0
  162.3640  207.6560  149.7280 O   0  0  0  0  0  1  0  0  0  0  0  0
  160.4510  211.7230  151.6340 C   0  0  0  0  0  0  0  0  0  0  0  0
  162.0310  211.0540  148.3620 C   0  0  0  0  0  3  0  0  0  0  0  0
  161.3870  209.6690  150.7380 C   0  0  0  0  0  0  0  0  0  0  0  0
  160.1300  211.0840  152.8120 C   0  0  0  0  0  0  0  0  0  0  0  0
  158.9780  214.3680  153.2700 O   0  0  0  0  0  0  0  0  0  0  0  0
  159.5160  212.0440  153.7830 C   0  0  1  0  0  3  0  0  0  0  0  0
  160.3830  212.7850  157.2610 C   0  0  0  0  0  2  0  0  0  0  0  0
  158.3810  210.1540  155.8640 C   0  0  0  0  0  1  0  0  0  0  0  0
  161.4000  211.7260  149.4050 C   0  0  0  0  0  3  0  0  0  0  0  0
  161.0780  211.0510  150.5870 C   0  0  0  0  0  0  0  0  0  0  0  0
  159.8360  209.8360  155.5430 C   0  0  2  0  0  3  0  0  0  0  0  0
  161.6760  205.7580  153.5030 O   0  0  0  0  0  0  0  0  0  0  0  0
  160.8700  203.8430  152.3490 C   0  0  0  0  0  1  0  0  0  0  0  0
  161.7110  205.1000  152.2730 C   0  0  0  0  0  2  0  0  0  0  0  0
  1  5  1  0  0  0  0
  1  4  1  0  0  0  0
  2 16  1  0  0  0  0
  2 19  1  0  0  0  0
  3 17  1  0  0  0  0
  3 10  1  0  0  0  0
  5 11  1  0  0  0  0
  7 15  1  1  0  0  0
  8  6  1  1  0  0  0
  9  7  1  0  0  0  0
  9 14  1  1  0  0  0
 10 21  2  0  0  0  0
 10 22  1  0  0  0  0
 11 28  1  1  0  0  0
 11  8  1  0  0  0  0
 12  4  1  6  0  0  0
 12  8  1  0  0  0  0
 12 27  1  0  0  0  0
 13  2  2  0  0  0  0
 14 23  1  0  0  0  0
 15 23  1  0  0  0  0
 17 20  1  0  0  0  0
 18 13  1  0  0  0  0
 18 25  2  0  0  0  0
 19  1  2  0  0  0  0
 20  4  2  0  0  0  0
 22 20  1  6  0  0  0
 22  9  1  0  0  0  0
 25 26  1  0  0  0  0
 26 19  1  0  0  0  0
 26 17  2  0  0  0  0
 27  7  1  0  0  0  0
 27 24  1  6  0  0  0
 30 29  1  0  0  0  0
 30 28  1  0  0  0  0
M  END
>  <MODEL>
8

>  <REMARK>
 VINA RESULT:      -5.7      2.494      5.925
  Name = 
  2 active torsions:
  status: ('A' for Active; 'I' for Inactive)
    1  A    between atoms: C_11  and  O_28
    2  A    between atoms: O_28  and  C_30
                            x       y       z     vdW  Elec       q    Type
                         _______ _______ _______ _____ _____    ______ ____

>  <TORSDO>
F 2

$$$$
=
 OpenBabel11122412363D

 30 35  0  0  1  0  0  0  0  0999 V2000
  161.3580  208.0320  151.1420 C   0  0  0  0  0  0  0  0  0  0  0  0
  161.4990  208.2540  153.6260 C   0  0  0  0  0  0  0  0  0  0  0  0
  160.5370  203.9220  151.4580 N   0  0  0  0  0  2  0  0  0  0  0  0
  161.1680  207.2090  150.0020 C   0  0  0  0  0  0  0  0  0  0  0  0
  161.6510  209.4220  150.9480 N   0  0  0  0  0  2  0  0  0  0  0  0
  161.8390  209.7290  147.3050 O   0  0  0  0  0  1  0  0  0  0  0  0
  162.5190  205.7720  147.7680 C   0  0  1  0  0  3  0  0  0  0  0  0
  162.0010  209.1110  148.5490 C   0  0  1  0  0  3  0  0  0  0  0  0
  161.9550  204.5670  148.4120 N   0  0  2  0  0  0  0  0  0  0  0  0
  160.4390  203.6180  150.0710 C   0  0  0  0  0  0  0  0  0  0  0  0
  161.5510  210.0700  149.6470 C   0  0  2  0  0  3  0  0  0  0  0  0
  161.1580  207.8320  148.6120 C   0  0  1  0  0  3  0  0  0  0  0  0
  161.4220  207.6560  154.8870 C   0  0  0  0  0  3  0  0  0  0  0  0
  161.7030  203.6380  147.3190 C   0  0  0  0  0  2  0  0  0  0  0  0
  163.2100  205.3210  146.4950 C   0  0  0  0  0  2  0  0  0  0  0  0
  161.7730  209.6160  153.5660 O   0  0  0  0  0  1  0  0  0  0  0  0
  160.8280  205.3100  151.4700 C   0  0  0  0  0  0  0  0  0  0  0  0
  161.1490  206.2950  155.0160 C   0  0  0  0  0  3  0  0  0  0  0  0
  161.3000  207.4780  152.4560 C   0  0  0  0  0  0  0  0  0  0  0  0
  160.9040  205.8490  150.2040 C   0  0  0  0  0  0  0  0  0  0  0  0
  160.1360  202.4680  149.6570 O   0  0  0  0  0  0  0  0  0  0  0  0
  160.7080  204.7880  149.1650 C   0  0  1  0  0  3  0  0  0  0  0  0
  162.7570  203.8960  146.2660 C   0  0  0  0  0  2  0  0  0  0  0  0
  160.2750  206.4570  146.6720 C   0  0  0  0  0  1  0  0  0  0  0  0
  160.9490  205.5140  153.8800 C   0  0  0  0  0  3  0  0  0  0  0  0
  161.0230  206.0900  152.6070 C   0  0  0  0  0  0  0  0  0  0  0  0
  161.5130  206.8990  147.4420 C   0  0  2  0  0  3  0  0  0  0  0  0
  162.3440  211.2200  149.6380 O   0  0  0  0  0  0  0  0  0  0  0  0
  162.2420  213.1180  148.2100 C   0  0  0  0  0  1  0  0  0  0  0  0
  161.4970  212.2340  149.1880 C   0  0  0  0  0  2  0  0  0  0  0  0
  1 19  1  0  0  0  0
  2 13  1  0  0  0  0
  3 17  1  0  0  0  0
  4 20  1  0  0  0  0
  4  1  2  0  0  0  0
  5  1  1  0  0  0  0
  7 15  1  6  0  0  0
  7  9  1  0  0  0  0
  8  6  1  6  0  0  0
  8 12  1  0  0  0  0
  8 11  1  0  0  0  0
  9 14  1  6  0  0  0
  9 22  1  0  0  0  0
 10  3  1  0  0  0  0
 11 28  1  1  0  0  0
 11  5  1  0  0  0  0
 12  4  1  1  0  0  0
 13 18  2  0  0  0  0
 16  2  1  0  0  0  0
 17 26  1  0  0  0  0
 19 26  1  0  0  0  0
 19  2  2  0  0  0  0
 20 17  2  0  0  0  0
 21 10  2  0  0  0  0
 22 10  1  1  0  0  0
 22 20  1  0  0  0  0
 23 15  1  0  0  0  0
 23 14  1  0  0  0  0
 25 18  1  0  0  0  0
 26 25  2  0  0  0  0
 27 24  1  1  0  0  0
 27  7  1  0  0  0  0
 27 12  1  0  0  0  0
 29 30  1  0  0  0  0
 30 28  1  0  0  0  0
M  END
>  <MODEL>
9

>  <REMARK>
 VINA RESULT:      -5.6      1.910      5.619
  Name = 
  2 active torsions:
  status: ('A' for Active; 'I' for Inactive)
    1  A    between atoms: C_11  and  O_28
    2  A    between atoms: O_28  and  C_30
                            x       y       z     vdW  Elec       q    Type
                         _______ _______ _______ _____ _____    ______ ____

>  <TORSDO>
F 2

$$$$
