=
 OpenBabel11122414013D

 37 42  0  0  1  0  0  0  0  0999 V2000
  160.7690  206.2460  149.9830 C   0  0  1  0  0  3  0  0  0  0  0  0
  160.4390  208.9240  151.9750 O   0  0  0  0  0  0  0  0  0  0  0  0
  160.9610  205.4110  147.5140 C   0  0  2  0  0  3  0  0  0  0  0  0
  161.5480  207.4540  150.4670 C   0  0  2  0  0  3  0  0  0  0  0  0
  160.5790  206.5460  148.4910 C   0  0  2  0  0  3  0  0  0  0  0  0
  161.3440  207.8530  151.9270 C   0  0  2  0  0  3  0  0  0  0  0  0
  161.9230  204.4170  148.1520 C   0  0  0  0  0  2  0  0  0  0  0  0
  161.2950  207.8670  148.2680 C   0  0  0  0  0  2  0  0  0  0  0  0
  161.3660  204.5110  151.6960 C   0  0  0  0  0  2  0  0  0  0  0  0
  161.3770  203.9790  149.3650 O   0  0  0  0  0  0  0  0  0  0  0  0
  162.6130  210.2700  151.9990 C   0  0  0  0  0  2  0  0  0  0  0  0
  161.0900  210.1950  151.9810 C   0  0  1  0  0  3  0  0  0  0  0  0
  161.6330  205.0090  150.2790 C   0  0  1  0  0  3  0  0  0  0  0  0
  161.2550  208.5580  149.5600 N   0  0  2  0  0  0  0  0  0  0  0  0
  160.9070  206.7060  152.8550 C   0  0  1  0  0  3  0  0  0  0  0  0
  161.8820  210.5500  150.6910 C   0  0  2  0  0  3  0  0  0  0  0  0
  162.3000  209.5040  149.7330 N   0  0  0  0  0  0  0  0  0  0  0  0
  161.8450  205.5010  152.7560 C   0  0  0  0  0  2  0  0  0  0  0  0
  159.8150  206.6500  155.1030 C   0  0  0  0  0  3  0  0  0  0  0  0
  160.8160  207.1720  154.2760 C   0  0  0  0  0  0  0  0  0  0  0  0
  161.7110  208.1250  154.7880 C   0  0  0  0  0  3  0  0  0  0  0  0
  162.4880  209.4940  156.6170 O   0  0  0  0  0  1  0  0  0  0  0  0
  160.6000  208.0250  156.9350 C   0  0  0  0  0  3  0  0  0  0  0  0
  161.6010  208.5500  156.1150 C   0  0  0  0  0  0  0  0  0  0  0  0
  159.7070  207.0750  156.4310 C   0  0  0  0  0  3  0  0  0  0  0  0
  162.5560  210.2480  148.4920 C   0  0  0  0  0  2  0  0  0  0  0  0
  162.0400  211.6860  148.5890 C   0  0  1  0  0  3  0  0  0  0  0  0
  162.9880  213.0120  146.6950 C   0  0  0  0  0  1  0  0  0  0  0  0
  163.1080  212.6910  148.1730 C   0  0  0  0  0  2  0  0  0  0  0  0
  160.7770  211.8610  147.7550 C   0  0  0  0  0  2  0  0  0  0  0  0
  159.9450  213.0300  148.2530 C   0  0  0  0  0  2  0  0  0  0  0  0
  158.7000  213.0410  147.6230 O   0  0  0  0  0  1  0  0  0  0  0  0
  161.4980  205.9090  146.3130 O   0  0  0  0  0  0  0  0  0  0  0  0
  160.6780  205.4750  145.2530 C   0  0  0  0  0  0  0  0  0  0  0  0
  160.5570  204.0930  145.2550 F   0  0  0  0  0  0  0  0  0  0  0  0
  159.4210  206.0560  145.3310 F   0  0  0  0  0  0  0  0  0  0  0  0
  161.2610  205.8580  144.0610 F   0  0  0  0  0  0  0  0  0  0  0  0
  1 13  1  0  0  0  0
  1  4  1  0  0  0  0
  2 12  1  0  0  0  0
  3  7  1  0  0  0  0
  3  5  1  0  0  0  0
  4  6  1  0  0  0  0
  5  1  1  0  0  0  0
  6  2  1  0  0  0  0
  6 15  1  0  0  0  0
  7 10  1  0  0  0  0
  8  5  1  0  0  0  0
  8 14  1  0  0  0  0
  9 18  1  0  0  0  0
 10 13  1  0  0  0  0
 12 11  1  0  0  0  0
 13  9  1  0  0  0  0
 14 17  1  0  0  0  0
 14  4  1  0  0  0  0
 15 20  1  0  0  0  0
 16 12  1  0  0  0  0
 16 11  1  0  0  0  0
 17 16  1  0  0  0  0
 18 15  1  0  0  0  0
 19 25  1  0  0  0  0
 20 21  1  0  0  0  0
 20 19  2  0  0  0  0
 21 24  2  0  0  0  0
 24 22  1  0  0  0  0
 24 23  1  0  0  0  0
 25 23  2  0  0  0  0
 26 27  1  0  0  0  0
 26 17  1  0  0  0  0
 28 29  1  0  0  0  0
 29 27  1  0  0  0  0
 30 31  1  0  0  0  0
 30 27  1  0  0  0  0
 32 31  1  0  0  0  0
 33  3  1  0  0  0  0
 34 35  1  0  0  0  0
 34 36  1  0  0  0  0
 34 33  1  0  0  0  0
 37 34  1  0  0  0  0
M  END
>  <MODEL>
1

>  <REMARK>
 VINA RESULT:      -8.1      0.000      0.000
  Name = 
  8 active torsions:
  status: ('A' for Active; 'I' for Inactive)
    1  A    between atoms: C_1  and  C_4
    2  A    between atoms: C_1  and  N_27
    3  A    between atoms: C_2  and  O_22
    4  A    between atoms: C_4  and  C_12
    5  A    between atoms: C_4  and  C_37
    6  A    between atoms: C_6  and  O_22
    7  A    between atoms: C_8  and  C_12
    8  A    between atoms: C_23  and  C_30
                            x       y       z     vdW  Elec       q    Type
                         _______ _______ _______ _____ _____    ______ ____

>  <TORSDO>
F 8

$$$$
=
 OpenBabel11122414013D

 37 42  0  0  1  0  0  0  0  0999 V2000
  161.6140  211.2810  150.6760 C   0  0  1  0  0  3  0  0  0  0  0  0
  162.4670  208.4430  152.2480 O   0  0  0  0  0  0  0  0  0  0  0  0
  161.6660  212.5870  148.4140 C   0  0  2  0  0  3  0  0  0  0  0  0
  161.2500  209.8100  150.7270 C   0  0  2  0  0  3  0  0  0  0  0  0
  162.2190  211.4290  149.2750 C   0  0  2  0  0  3  0  0  0  0  0  0
  161.2650  209.1530  152.1050 C   0  0  2  0  0  3  0  0  0  0  0  0
  160.2930  213.0410  148.8910 C   0  0  0  0  0  2  0  0  0  0  0  0
  162.1060  210.0450  148.6580 C   0  0  0  0  0  2  0  0  0  0  0  0
  160.0650  212.2670  152.3880 C   0  0  0  0  0  2  0  0  0  0  0  0
  160.3640  213.3200  150.2610 O   0  0  0  0  0  0  0  0  0  0  0  0
  160.9910  206.5180  151.4410 C   0  0  0  0  0  2  0  0  0  0  0  0
  162.3450  207.0710  151.8740 C   0  0  1  0  0  3  0  0  0  0  0  0
  160.3140  212.0720  150.8960 C   0  0  1  0  0  3  0  0  0  0  0  0
  162.1160  209.1100  149.7860 N   0  0  2  0  0  0  0  0  0  0  0  0
  161.0370  210.1160  153.2830 C   0  0  1  0  0  3  0  0  0  0  0  0
  162.0380  206.8100  150.3720 C   0  0  2  0  0  3  0  0  0  0  0  0
  161.4830  207.8700  149.5040 N   0  0  0  0  0  0  0  0  0  0  0  0
  159.7670  210.9510  153.1020 C   0  0  0  0  0  2  0  0  0  0  0  0
  161.9000  209.6910  155.5900 C   0  0  0  0  0  3  0  0  0  0  0  0
  160.9840  209.3720  154.5820 C   0  0  0  0  0  0  0  0  0  0  0  0
  160.0370  208.3590  154.8010 C   0  0  0  0  0  3  0  0  0  0  0  0
  159.0740  206.6710  156.2310 O   0  0  0  0  0  1  0  0  0  0  0  0
  160.9290  207.9960  157.0210 C   0  0  0  0  0  3  0  0  0  0  0  0
  160.0120  207.6730  156.0180 C   0  0  0  0  0  0  0  0  0  0  0  0
  161.8740  209.0050  156.8080 C   0  0  0  0  0  3  0  0  0  0  0  0
  161.7940  207.4100  148.1450 C   0  0  0  0  0  2  0  0  0  0  0  0
  160.9250  206.2120  147.7510 C   0  0  1  0  0  3  0  0  0  0  0  0
  160.9250  205.6900  145.3070 C   0  0  0  0  0  1  0  0  0  0  0  0
  160.2210  206.4460  146.4190 C   0  0  0  0  0  2  0  0  0  0  0  0
  161.7580  204.9370  147.7070 C   0  0  0  0  0  2  0  0  0  0  0  0
  161.1530  203.8540  148.5850 C   0  0  0  0  0  2  0  0  0  0  0  0
  161.1650  202.6290  147.9170 O   0  0  0  0  0  1  0  0  0  0  0  0
  161.6240  212.2540  147.0480 O   0  0  0  0  0  0  0  0  0  0  0  0
  162.0940  213.3590  146.3120 C   0  0  0  0  0  0  0  0  0  0  0  0
  162.8740  212.9450  145.2430 F   0  0  0  0  0  0  0  0  0  0  0  0
  161.0380  214.1310  145.8510 F   0  0  0  0  0  0  0  0  0  0  0  0
  162.8740  214.1410  147.1410 F   0  0  0  0  0  0  0  0  0  0  0  0
  1  4  1  0  0  0  0
  1 13  1  0  0  0  0
  3  7  1  0  0  0  0
  3  5  1  0  0  0  0
  4  6  1  0  0  0  0
  5  1  1  0  0  0  0
  6  2  1  0  0  0  0
  6 15  1  0  0  0  0
  7 10  1  0  0  0  0
  8  5  1  0  0  0  0
  8 14  1  0  0  0  0
  9 18  1  0  0  0  0
 10 13  1  0  0  0  0
 11 12  1  0  0  0  0
 12  2  1  0  0  0  0
 13  9  1  0  0  0  0
 14  4  1  0  0  0  0
 15 20  1  0  0  0  0
 16 11  1  0  0  0  0
 16 12  1  0  0  0  0
 17 14  1  0  0  0  0
 17 16  1  0  0  0  0
 18 15  1  0  0  0  0
 19 25  1  0  0  0  0
 20 21  1  0  0  0  0
 20 19  2  0  0  0  0
 21 24  2  0  0  0  0
 24 22  1  0  0  0  0
 24 23  1  0  0  0  0
 25 23  2  0  0  0  0
 26 17  1  0  0  0  0
 27 26  1  0  0  0  0
 28 29  1  0  0  0  0
 29 27  1  0  0  0  0
 30 27  1  0  0  0  0
 30 31  1  0  0  0  0
 32 31  1  0  0  0  0
 33  3  1  0  0  0  0
 34 33  1  0  0  0  0
 34 37  1  0  0  0  0
 35 34  1  0  0  0  0
 36 34  1  0  0  0  0
M  END
>  <MODEL>
2

>  <REMARK>
 VINA RESULT:      -7.0      2.800      5.905
  Name = 
  8 active torsions:
  status: ('A' for Active; 'I' for Inactive)
    1  A    between atoms: C_1  and  C_4
    2  A    between atoms: C_1  and  N_27
    3  A    between atoms: C_2  and  O_22
    4  A    between atoms: C_4  and  C_12
    5  A    between atoms: C_4  and  C_37
    6  A    between atoms: C_6  and  O_22
    7  A    between atoms: C_8  and  C_12
    8  A    between atoms: C_23  and  C_30
                            x       y       z     vdW  Elec       q    Type
                         _______ _______ _______ _____ _____    ______ ____

>  <TORSDO>
F 8

$$$$
=
 OpenBabel11122414013D

 37 42  0  0  1  0  0  0  0  0999 V2000
  159.9360  213.3400  150.6940 C   0  0  1  0  0  3  0  0  0  0  0  0
  160.4810  212.2140  153.8060 O   0  0  0  0  0  0  0  0  0  0  0  0
  160.7780  213.3220  148.2210 C   0  0  2  0  0  3  0  0  0  0  0  0
  159.8680  212.0650  151.5120 C   0  0  2  0  0  3  0  0  0  0  0  0
  161.0770  213.0490  149.7120 C   0  0  2  0  0  3  0  0  0  0  0  0
  159.3700  212.2040  152.9490 C   0  0  2  0  0  3  0  0  0  0  0  0
  159.2820  213.3320  147.9370 C   0  0  0  0  0  2  0  0  0  0  0  0
  161.5180  211.6330  150.0410 C   0  0  0  0  0  2  0  0  0  0  0  0
  157.6220  214.2720  150.9770 C   0  0  0  0  0  2  0  0  0  0  0  0
  158.6630  214.2210  148.8240 O   0  0  0  0  0  0  0  0  0  0  0  0
  159.9240  209.7230  153.9450 C   0  0  0  0  0  2  0  0  0  0  0  0
  160.8000  210.9160  154.3090 C   0  0  1  0  0  3  0  0  0  0  0  0
  158.5590  213.5230  150.0350 C   0  0  1  0  0  3  0  0  0  0  0  0
  161.1820  211.4360  151.4540 N   0  0  2  0  0  0  0  0  0  0  0  0
  158.4550  213.4140  153.2010 C   0  0  1  0  0  3  0  0  0  0  0  0
  161.2710  209.8820  153.2480 C   0  0  2  0  0  3  0  0  0  0  0  0
  160.9900  210.0740  151.8090 N   0  0  0  0  0  0  0  0  0  0  0  0
  157.2790  213.4550  152.2210 C   0  0  0  0  0  2  0  0  0  0  0  0
  158.3690  214.4300  155.4830 C   0  0  0  0  0  3  0  0  0  0  0  0
  157.9490  213.4190  154.6110 C   0  0  0  0  0  0  0  0  0  0  0  0
  157.0700  212.4270  155.0730 C   0  0  0  0  0  3  0  0  0  0  0  0
  155.7510  211.4640  156.8480 O   0  0  0  0  0  1  0  0  0  0  0  0
  157.0420  213.4600  157.2610 C   0  0  0  0  0  3  0  0  0  0  0  0
  156.6190  212.4480  156.3950 C   0  0  0  0  0  0  0  0  0  0  0  0
  157.9170  214.4510  156.8060 C   0  0  0  0  0  3  0  0  0  0  0  0
  161.9690  209.2060  151.1420 C   0  0  0  0  0  2  0  0  0  0  0  0
  161.2780  208.0760  150.3740 C   0  0  1  0  0  3  0  0  0  0  0  0
  161.2550  206.7570  148.2520 C   0  0  0  0  0  1  0  0  0  0  0  0
  162.0810  207.6610  149.1470 C   0  0  0  0  0  2  0  0  0  0  0  0
  161.0270  206.8820  151.2870 C   0  0  0  0  0  2  0  0  0  0  0  0
  162.2880  206.4870  152.0370 C   0  0  0  0  0  2  0  0  0  0  0  0
  161.9890  206.2060  153.3700 O   0  0  0  0  0  1  0  0  0  0  0  0
  161.4290  212.4040  147.3770 O   0  0  0  0  0  0  0  0  0  0  0  0
  162.6650  212.9610  146.9940 C   0  0  0  0  0  0  0  0  0  0  0  0
  162.7710  214.2740  147.4260 F   0  0  0  0  0  0  0  0  0  0  0  0
  163.7210  212.2150  147.4970 F   0  0  0  0  0  0  0  0  0  0  0  0
  162.7440  212.9500  145.6150 F   0  0  0  0  0  0  0  0  0  0  0  0
  1  4  1  0  0  0  0
  2 12  1  0  0  0  0
  3  5  1  0  0  0  0
  4  6  1  0  0  0  0
  5  8  1  0  0  0  0
  5  1  1  0  0  0  0
  6 15  1  0  0  0  0
  6  2  1  0  0  0  0
  7  3  1  0  0  0  0
  7 10  1  0  0  0  0
  8 14  1  0  0  0  0
  9 18  1  0  0  0  0
 10 13  1  0  0  0  0
 11 12  1  0  0  0  0
 13  1  1  0  0  0  0
 13  9  1  0  0  0  0
 14  4  1  0  0  0  0
 14 17  1  0  0  0  0
 15 20  1  0  0  0  0
 16 11  1  0  0  0  0
 16 12  1  0  0  0  0
 17 16  1  0  0  0  0
 18 15  1  0  0  0  0
 19 25  1  0  0  0  0
 20 21  1  0  0  0  0
 20 19  2  0  0  0  0
 21 24  2  0  0  0  0
 24 22  1  0  0  0  0
 24 23  1  0  0  0  0
 25 23  2  0  0  0  0
 26 17  1  0  0  0  0
 27 26  1  0  0  0  0
 27 30  1  0  0  0  0
 28 29  1  0  0  0  0
 29 27  1  0  0  0  0
 30 31  1  0  0  0  0
 31 32  1  0  0  0  0
 33  3  1  0  0  0  0
 34 33  1  0  0  0  0
 34 35  1  0  0  0  0
 34 36  1  0  0  0  0
 37 34  1  0  0  0  0
M  END
>  <MODEL>
3

>  <REMARK>
 VINA RESULT:      -5.9      4.116      6.919
  Name = 
  8 active torsions:
  status: ('A' for Active; 'I' for Inactive)
    1  A    between atoms: C_1  and  C_4
    2  A    between atoms: C_1  and  N_27
    3  A    between atoms: C_2  and  O_22
    4  A    between atoms: C_4  and  C_12
    5  A    between atoms: C_4  and  C_37
    6  A    between atoms: C_6  and  O_22
    7  A    between atoms: C_8  and  C_12
    8  A    between atoms: C_23  and  C_30
                            x       y       z     vdW  Elec       q    Type
                         _______ _______ _______ _____ _____    ______ ____

>  <TORSDO>
F 8

$$$$
=
 OpenBabel11122414013D

 37 42  0  0  1  0  0  0  0  0999 V2000
  161.0420  212.5620  150.4120 C   0  0  1  0  0  3  0  0  0  0  0  0
  161.8040  210.4910  152.9380 O   0  0  0  0  0  0  0  0  0  0  0  0
  161.4450  213.1210  147.8910 C   0  0  2  0  0  3  0  0  0  0  0  0
  160.8110  211.1360  150.8740 C   0  0  2  0  0  3  0  0  0  0  0  0
  161.9090  212.3730  149.1610 C   0  0  2  0  0  3  0  0  0  0  0  0
  160.5990  210.9340  152.3730 C   0  0  2  0  0  3  0  0  0  0  0  0
  159.9670  213.4840  147.9570 C   0  0  0  0  0  2  0  0  0  0  0  0
  162.0530  210.8670  149.0150 C   0  0  0  0  0  2  0  0  0  0  0  0
  159.0900  213.7700  151.4250 C   0  0  0  0  0  2  0  0  0  0  0  0
  159.7260  214.1680  149.1550 O   0  0  0  0  0  0  0  0  0  0  0  0
  160.7090  208.2120  152.5610 C   0  0  0  0  0  2  0  0  0  0  0  0
  161.8880  209.0670  153.0120 C   0  0  1  0  0  3  0  0  0  0  0  0
  159.6590  213.1760  150.1410 C   0  0  1  0  0  3  0  0  0  0  0  0
  161.9130  210.3260  150.3700 N   0  0  2  0  0  0  0  0  0  0  0  0
  160.0460  212.1600  153.1190 C   0  0  1  0  0  3  0  0  0  0  0  0
  161.9240  208.3240  151.6470 C   0  0  2  0  0  3  0  0  0  0  0  0
  161.4670  208.9780  150.4030 N   0  0  0  0  0  0  0  0  0  0  0  0
  158.7710  212.6990  152.4660 C   0  0  0  0  0  2  0  0  0  0  0  0
  160.8710  211.5160  155.3880 C   0  0  0  0  0  3  0  0  0  0  0  0
  159.7910  211.8410  154.5600 C   0  0  0  0  0  0  0  0  0  0  0  0
  158.4910  211.8550  155.0900 C   0  0  0  0  0  3  0  0  0  0  0  0
  156.9910  211.5600  156.9560 O   0  0  0  0  0  1  0  0  0  0  0  0
  159.3610  211.2230  157.2580 C   0  0  0  0  0  3  0  0  0  0  0  0
  158.2780  211.5460  156.4360 C   0  0  0  0  0  0  0  0  0  0  0  0
  160.6570  211.2070  156.7350 C   0  0  0  0  0  3  0  0  0  0  0  0
  162.0930  208.1830  149.3380 C   0  0  0  0  0  2  0  0  0  0  0  0
  161.1870  207.0300  148.8990 C   0  0  1  0  0  3  0  0  0  0  0  0
  161.7230  205.6470  146.8880 C   0  0  0  0  0  1  0  0  0  0  0  0
  161.0970  206.9380  147.3800 C   0  0  0  0  0  2  0  0  0  0  0  0
  161.6700  205.7130  149.4930 C   0  0  0  0  0  2  0  0  0  0  0  0
  160.6310  205.1180  150.4290 C   0  0  0  0  0  2  0  0  0  0  0  0
  161.2020  204.1090  151.2050 O   0  0  0  0  0  1  0  0  0  0  0  0
  161.7170  212.3910  146.7210 O   0  0  0  0  0  0  0  0  0  0  0  0
  162.1320  213.2960  145.7250 C   0  0  0  0  0  0  0  0  0  0  0  0
  161.0720  213.6470  144.9030 F   0  0  0  0  0  0  0  0  0  0  0  0
  162.6830  214.4360  146.2920 F   0  0  0  0  0  0  0  0  0  0  0  0
  163.0990  212.6860  144.9500 F   0  0  0  0  0  0  0  0  0  0  0  0
  1  4  1  0  0  0  0
  2 12  1  0  0  0  0
  3  7  1  0  0  0  0
  3  5  1  0  0  0  0
  4  6  1  0  0  0  0
  5  1  1  0  0  0  0
  6  2  1  0  0  0  0
  6 15  1  0  0  0  0
  7 10  1  0  0  0  0
  8  5  1  0  0  0  0
  8 14  1  0  0  0  0
  9 18  1  0  0  0  0
 10 13  1  0  0  0  0
 11 12  1  0  0  0  0
 13  1  1  0  0  0  0
 13  9  1  0  0  0  0
 14 17  1  0  0  0  0
 14  4  1  0  0  0  0
 15 20  1  0  0  0  0
 16 11  1  0  0  0  0
 16 12  1  0  0  0  0
 17 16  1  0  0  0  0
 18 15  1  0  0  0  0
 19 25  1  0  0  0  0
 20 21  1  0  0  0  0
 20 19  2  0  0  0  0
 21 24  2  0  0  0  0
 24 22  1  0  0  0  0
 24 23  1  0  0  0  0
 25 23  2  0  0  0  0
 26 17  1  0  0  0  0
 27 26  1  0  0  0  0
 27 30  1  0  0  0  0
 28 29  1  0  0  0  0
 29 27  1  0  0  0  0
 30 31  1  0  0  0  0
 31 32  1  0  0  0  0
 33  3  1  0  0  0  0
 34 36  1  0  0  0  0
 34 33  1  0  0  0  0
 35 34  1  0  0  0  0
 37 34  1  0  0  0  0
M  END
>  <MODEL>
4

>  <REMARK>
 VINA RESULT:      -5.6      3.242      6.285
  Name = 
  8 active torsions:
  status: ('A' for Active; 'I' for Inactive)
    1  A    between atoms: C_1  and  C_4
    2  A    between atoms: C_1  and  N_27
    3  A    between atoms: C_2  and  O_22
    4  A    between atoms: C_4  and  C_12
    5  A    between atoms: C_4  and  C_37
    6  A    between atoms: C_6  and  O_22
    7  A    between atoms: C_8  and  C_12
    8  A    between atoms: C_23  and  C_30
                            x       y       z     vdW  Elec       q    Type
                         _______ _______ _______ _____ _____    ______ ____

>  <TORSDO>
F 8

$$$$
=
 OpenBabel11122414013D

 37 42  0  0  1  0  0  0  0  0999 V2000
  161.8110  207.2200  152.6220 C   0  0  1  0  0  3  0  0  0  0  0  0
  162.6960  206.7230  149.4250 O   0  0  0  0  0  0  0  0  0  0  0  0
  161.8180  208.9040  154.6190 C   0  0  2  0  0  3  0  0  0  0  0  0
  161.4490  207.6660  151.2180 C   0  0  2  0  0  3  0  0  0  0  0  0
  162.3880  208.4980  153.2420 C   0  0  2  0  0  3  0  0  0  0  0  0
  161.4910  206.5940  150.1320 C   0  0  2  0  0  3  0  0  0  0  0  0
  160.4550  208.2760  154.8740 C   0  0  0  0  0  2  0  0  0  0  0  0
  162.2640  209.5470  152.1500 C   0  0  0  0  0  2  0  0  0  0  0  0
  160.2950  205.2480  152.9550 C   0  0  0  0  0  2  0  0  0  0  0  0
  160.5510  206.8940  154.6710 O   0  0  0  0  0  0  0  0  0  0  0  0
  161.2060  208.1100  147.8780 C   0  0  0  0  0  2  0  0  0  0  0  0
  162.5680  207.5400  148.2610 C   0  0  1  0  0  3  0  0  0  0  0  0
  160.5150  206.7210  153.2810 C   0  0  1  0  0  3  0  0  0  0  0  0
  162.2970  208.8050  150.8860 N   0  0  2  0  0  0  0  0  0  0  0  0
  161.2860  205.1560  150.6350 C   0  0  1  0  0  3  0  0  0  0  0  0
  162.2320  209.0350  148.5240 C   0  0  2  0  0  3  0  0  0  0  0  0
  161.6590  209.4800  149.8120 N   0  0  0  0  0  0  0  0  0  0  0  0
  160.0120  205.0190  151.4720 C   0  0  0  0  0  2  0  0  0  0  0  0
  160.8840  202.8600  149.7330 C   0  0  0  0  0  3  0  0  0  0  0  0
  161.2580  204.1860  149.4930 C   0  0  0  0  0  0  0  0  0  0  0  0
  161.6070  204.5850  148.1930 C   0  0  0  0  0  3  0  0  0  0  0  0
  161.9270  204.0580  145.8600 O   0  0  0  0  0  1  0  0  0  0  0  0
  161.2060  202.3370  147.3900 C   0  0  0  0  0  3  0  0  0  0  0  0
  161.5810  203.6600  147.1450 C   0  0  0  0  0  0  0  0  0  0  0  0
  160.8580  201.9360  148.6840 C   0  0  0  0  0  3  0  0  0  0  0  0
  161.9440  210.9210  149.8440 C   0  0  0  0  0  2  0  0  0  0  0  0
  161.7180  211.5630  148.4720 C   0  0  1  0  0  3  0  0  0  0  0  0
  160.4170  213.1380  149.9110 C   0  0  0  0  0  1  0  0  0  0  0  0
  160.5830  212.5780  148.5100 C   0  0  0  0  0  2  0  0  0  0  0  0
  163.0030  212.2040  147.9630 C   0  0  0  0  0  2  0  0  0  0  0  0
  162.7060  213.3780  147.0450 C   0  0  0  0  0  2  0  0  0  0  0  0
  162.6620  212.9540  145.7160 O   0  0  0  0  0  1  0  0  0  0  0  0
  161.7500  210.3000  154.7700 O   0  0  0  0  0  0  0  0  0  0  0  0
  162.5500  210.6630  155.8710 C   0  0  0  0  0  0  0  0  0  0  0  0
  163.8060  211.0780  155.4550 F   0  0  0  0  0  0  0  0  0  0  0  0
  161.9450  211.6670  156.6120 F   0  0  0  0  0  0  0  0  0  0  0  0
  162.7060  209.5570  156.6850 F   0  0  0  0  0  0  0  0  0  0  0  0
  1  5  1  0  0  0  0
  1 13  1  0  0  0  0
  2  6  1  0  0  0  0
  3 33  1  0  0  0  0
  3  7  1  0  0  0  0
  4  1  1  0  0  0  0
  5  3  1  0  0  0  0
  6 15  1  0  0  0  0
  6  4  1  0  0  0  0
  8  5  1  0  0  0  0
  9 13  1  0  0  0  0
 10  7  1  0  0  0  0
 11 12  1  0  0  0  0
 11 16  1  0  0  0  0
 12 16  1  0  0  0  0
 12  2  1  0  0  0  0
 13 10  1  0  0  0  0
 14  4  1  0  0  0  0
 14  8  1  0  0  0  0
 15 18  1  0  0  0  0
 16 17  1  0  0  0  0
 17 26  1  0  0  0  0
 17 14  1  0  0  0  0
 18  9  1  0  0  0  0
 20 19  1  0  0  0  0
 20 15  1  0  0  0  0
 21 20  2  0  0  0  0
 22 24  1  0  0  0  0
 23 25  1  0  0  0  0
 24 23  2  0  0  0  0
 24 21  1  0  0  0  0
 25 19  2  0  0  0  0
 27 29  1  0  0  0  0
 27 26  1  0  0  0  0
 29 28  1  0  0  0  0
 30 27  1  0  0  0  0
 31 30  1  0  0  0  0
 32 31  1  0  0  0  0
 33 34  1  0  0  0  0
 34 36  1  0  0  0  0
 34 37  1  0  0  0  0
 35 34  1  0  0  0  0
M  END
>  <MODEL>
5

>  <REMARK>
 VINA RESULT:      -5.3      3.914      6.818
  Name = 
  8 active torsions:
  status: ('A' for Active; 'I' for Inactive)
    1  A    between atoms: C_1  and  C_4
    2  A    between atoms: C_1  and  N_27
    3  A    between atoms: C_2  and  O_22
    4  A    between atoms: C_4  and  C_12
    5  A    between atoms: C_4  and  C_37
    6  A    between atoms: C_6  and  O_22
    7  A    between atoms: C_8  and  C_12
    8  A    between atoms: C_23  and  C_30
                            x       y       z     vdW  Elec       q    Type
                         _______ _______ _______ _____ _____    ______ ____

>  <TORSDO>
F 8

$$$$
=
 OpenBabel11122414013D

 37 42  0  0  1  0  0  0  0  0999 V2000
  161.8020  207.2740  152.5990 C   0  0  1  0  0  3  0  0  0  0  0  0
  162.7300  206.9320  149.3930 O   0  0  0  0  0  0  0  0  0  0  0  0
  161.7360  208.8780  154.6600 C   0  0  2  0  0  3  0  0  0  0  0  0
  161.4370  207.7620  151.2100 C   0  0  2  0  0  3  0  0  0  0  0  0
  162.3310  208.5460  153.2730 C   0  0  2  0  0  3  0  0  0  0  0  0
  161.5240  206.7350  150.0830 C   0  0  2  0  0  3  0  0  0  0  0  0
  160.3930  208.1950  154.8780 C   0  0  0  0  0  2  0  0  0  0  0  0
  162.1800  209.6320  152.2210 C   0  0  0  0  0  2  0  0  0  0  0  0
  160.3520  205.2400  152.8420 C   0  0  0  0  0  2  0  0  0  0  0  0
  160.5380  206.8260  154.6220 O   0  0  0  0  0  0  0  0  0  0  0  0
  161.2060  208.3270  147.8880 C   0  0  0  0  0  2  0  0  0  0  0  0
  162.5840  207.7890  148.2610 C   0  0  1  0  0  3  0  0  0  0  0  0
  160.5190  206.7060  153.2260 C   0  0  1  0  0  3  0  0  0  0  0  0
  162.2480  208.9410  150.9310 N   0  0  2  0  0  0  0  0  0  0  0  0
  161.3650  205.2720  150.5300 C   0  0  1  0  0  3  0  0  0  0  0  0
  162.1950  209.2600  148.5780 C   0  0  2  0  0  3  0  0  0  0  0  0
  161.5960  209.6350  149.8770 N   0  0  0  0  0  0  0  0  0  0  0  0
  160.0890  205.0600  151.3490 C   0  0  0  0  0  2  0  0  0  0  0  0
  161.5710  204.8770  148.0700 C   0  0  0  0  0  3  0  0  0  0  0  0
  161.3790  204.3470  149.3510 C   0  0  0  0  0  0  0  0  0  0  0  0
  161.1970  202.9640  149.5080 C   0  0  0  0  0  3  0  0  0  0  0  0
  161.0250  200.7560  148.5520 O   0  0  0  0  0  1  0  0  0  0  0  0
  161.3990  202.6590  147.1160 C   0  0  0  0  0  3  0  0  0  0  0  0
  161.2060  202.1230  148.3920 C   0  0  0  0  0  0  0  0  0  0  0  0
  161.5810  204.0350  146.9540 C   0  0  0  0  0  3  0  0  0  0  0  0
  161.8310  211.0820  149.9670 C   0  0  0  0  0  2  0  0  0  0  0  0
  161.6440  211.7620  148.6080 C   0  0  1  0  0  3  0  0  0  0  0  0
  160.2990  213.2720  150.0760 C   0  0  0  0  0  1  0  0  0  0  0  0
  160.5320  212.8030  148.6520 C   0  0  0  0  0  2  0  0  0  0  0  0
  162.9520  212.3850  148.1360 C   0  0  0  0  0  2  0  0  0  0  0  0
  162.6990  213.6320  147.3050 C   0  0  0  0  0  2  0  0  0  0  0  0
  162.7060  213.3170  145.9460 O   0  0  0  0  0  1  0  0  0  0  0  0
  161.6190  210.2650  154.8640 O   0  0  0  0  0  0  0  0  0  0  0  0
  162.4760  210.6270  155.9210 C   0  0  0  0  0  0  0  0  0  0  0  0
  163.6950  211.0780  155.4370 F   0  0  0  0  0  0  0  0  0  0  0  0
  161.8960  211.6050  156.7160 F   0  0  0  0  0  0  0  0  0  0  0  0
  162.7060  209.5120  156.7040 F   0  0  0  0  0  0  0  0  0  0  0  0
  1 13  1  0  0  0  0
  1  5  1  0  0  0  0
  2  6  1  0  0  0  0
  3 33  1  0  0  0  0
  3  7  1  0  0  0  0
  4  1  1  0  0  0  0
  5  3  1  0  0  0  0
  6 15  1  0  0  0  0
  6  4  1  0  0  0  0
  8  5  1  0  0  0  0
  9 13  1  0  0  0  0
 10  7  1  0  0  0  0
 11 12  1  0  0  0  0
 11 16  1  0  0  0  0
 12 16  1  0  0  0  0
 12  2  1  0  0  0  0
 13 10  1  0  0  0  0
 14  4  1  0  0  0  0
 14  8  1  0  0  0  0
 15 18  1  0  0  0  0
 16 17  1  0  0  0  0
 17 26  1  0  0  0  0
 17 14  1  0  0  0  0
 18  9  1  0  0  0  0
 19 20  1  0  0  0  0
 20 21  2  0  0  0  0
 20 15  1  0  0  0  0
 23 24  2  0  0  0  0
 24 22  1  0  0  0  0
 24 21  1  0  0  0  0
 25 23  1  0  0  0  0
 25 19  2  0  0  0  0
 27 29  1  0  0  0  0
 27 26  1  0  0  0  0
 29 28  1  0  0  0  0
 30 27  1  0  0  0  0
 31 30  1  0  0  0  0
 32 31  1  0  0  0  0
 33 34  1  0  0  0  0
 34 37  1  0  0  0  0
 34 36  1  0  0  0  0
 35 34  1  0  0  0  0
M  END
>  <MODEL>
6

>  <REMARK>
 VINA RESULT:      -5.3      3.926      6.863
  Name = 
  8 active torsions:
  status: ('A' for Active; 'I' for Inactive)
    1  A    between atoms: C_1  and  C_4
    2  A    between atoms: C_1  and  N_27
    3  A    between atoms: C_2  and  O_22
    4  A    between atoms: C_4  and  C_12
    5  A    between atoms: C_4  and  C_37
    6  A    between atoms: C_6  and  O_22
    7  A    between atoms: C_8  and  C_12
    8  A    between atoms: C_23  and  C_30
                            x       y       z     vdW  Elec       q    Type
                         _______ _______ _______ _____ _____    ______ ____

>  <TORSDO>
F 8

$$$$
