=
 OpenBabel11122414393D

 34 40  0  0  1  0  0  0  0  0999 V2000
  160.9790  208.7500  153.9410 C   0  0  1  0  0  3  0  0  0  0  0  0
  161.9260  206.6120  153.2710 C   0  0  0  0  0  2  0  0  0  0  0  0
  157.6350  213.9640  152.0050 C   0  0  1  0  0  3  0  0  0  0  0  0
  159.8720  210.9370  154.4770 C   0  0  2  0  0  3  0  0  0  0  0  0
  159.8580  212.7140  152.6820 C   0  0  2  0  0  3  0  0  0  0  0  0
  159.8370  214.4530  150.7920 C   0  0  0  0  0  1  0  0  0  0  0  0
  157.1180  212.9860  150.9620 C   0  0  0  0  0  1  0  0  0  0  0  0
  157.7460  214.2160  154.4190 C   0  0  0  0  0  2  0  0  0  0  0  0
  162.0170  208.3990  151.8910 C   0  0  2  0  0  3  0  0  0  0  0  0
  161.6720  208.1120  148.7480 C   0  0  0  0  0  2  0  0  0  0  0  0
  160.1040  211.6040  151.6590 C   0  0  0  0  0  2  0  0  0  0  0  0
  158.7240  213.1540  154.9460 C   0  0  0  0  0  2  0  0  0  0  0  0
  161.2990  209.5810  151.2190 C   0  0  1  0  0  3  0  0  0  0  0  0
  162.5910  206.0950  151.9960 C   0  0  0  0  0  2  0  0  0  0  0  0
  159.1020  212.1160  153.8810 C   0  0  2  0  0  3  0  0  0  0  0  0
  156.9660  213.7020  153.2910 N   0  0  0  0  0  2  0  0  0  0  0  0
  161.7140  206.9710  149.7800 C   0  0  1  0  0  3  0  0  0  0  0  0
  160.2050  209.9400  153.3510 C   0  0  1  0  0  3  0  0  0  0  0  0
  159.1810  213.9590  152.0740 C   0  0  1  0  0  3  0  0  0  0  0  0
  160.9660  210.5810  152.2550 N   0  0  2  0  0  0  0  0  0  0  0  0
  159.8740  209.3250  156.0820 C   0  0  0  0  0  2  0  0  0  0  0  0
  162.6590  209.2470  149.0330 C   0  0  0  0  0  2  0  0  0  0  0  0
  159.0720  210.2930  155.4440 O   0  0  0  0  0  0  0  0  0  0  0  0
  162.1660  210.2170  150.1160 C   0  0  0  0  0  2  0  0  0  0  0  0
  162.5670  207.2730  151.0320 C   0  0  1  0  0  3  0  0  0  0  0  0
  160.1870  208.1800  155.1170 C   0  0  0  0  0  2  0  0  0  0  0  0
  161.1480  207.7740  152.8700 N   0  0  2  0  0  0  0  0  0  0  0  0
  160.4060  206.6140  150.1300 O   0  0  0  0  0  0  0  0  0  0  0  0
  160.0890  205.6330  149.3080 O   0  0  0  0  0  0  0  0  0  0  0  0
  160.4130  202.4090  149.7690 O   0  0  0  0  0  0  0  0  0  0  0  0
  161.2710  203.8500  148.3100 C   0  0  0  0  0  3  0  0  0  0  0  0
  161.0380  204.6380  149.5560 C   0  0  2  0  0  3  0  0  0  0  0  0
  160.8980  202.5990  148.4890 C   0  0  0  0  0  3  0  0  0  0  0  0
  160.4580  203.6080  150.5210 C   0  0  0  0  0  2  0  0  0  0  0  0
  1 26  1  1  0  0  0
  3  7  1  6  0  0  0
  3 19  1  0  0  0  0
  3 16  1  0  0  0  0
  4 23  1  1  0  0  0
  5 11  1  6  0  0  0
  5 15  1  0  0  0  0
  6 19  1  0  0  0  0
  8 12  1  0  0  0  0
  9 27  1  0  0  0  0
 10 22  1  0  0  0  0
 10 17  1  0  0  0  0
 11 20  1  0  0  0  0
 13  9  1  0  0  0  0
 13 20  1  0  0  0  0
 14  2  1  0  0  0  0
 15  4  1  0  0  0  0
 15 12  1  0  0  0  0
 16  8  1  0  0  0  0
 17 28  1  0  0  0  0
 17 25  1  0  0  0  0
 18  1  1  0  0  0  0
 18  4  1  0  0  0  0
 19  5  1  0  0  0  0
 20 18  1  0  0  0  0
 22 24  1  0  0  0  0
 23 21  1  0  0  0  0
 24 13  1  0  0  0  0
 25  9  1  0  0  0  0
 25 14  1  0  0  0  0
 26 21  1  0  0  0  0
 27  2  1  0  0  0  0
 27  1  1  0  0  0  0
 29 32  1  0  0  0  0
 29 28  1  0  0  0  0
 30 34  1  0  0  0  0
 31 33  2  0  0  0  0
 31 32  1  0  0  0  0
 32 34  1  0  0  0  0
 33 30  1  0  0  0  0
M  END
>  <MODEL>
1

>  <REMARK>
 VINA RESULT:      -7.4      0.000      0.000
  Name = 
  3 active torsions:
  status: ('A' for Active; 'I' for Inactive)
    1  A    between atoms: C_17  and  O_28
    2  A    between atoms: O_28  and  O_29
    3  A    between atoms: O_29  and  C_32
                            x       y       z     vdW  Elec       q    Type
                         _______ _______ _______ _____ _____    ______ ____

>  <TORSDO>
F 3

$$$$
=
 OpenBabel11122414393D

 34 40  0  0  1  0  0  0  0  0999 V2000
  161.5710  210.3760  152.2470 C   0  0  1  0  0  3  0  0  0  0  0  0
  160.9410  211.8750  154.0560 C   0  0  0  0  0  2  0  0  0  0  0  0
  160.7390  204.4940  149.6350 C   0  0  1  0  0  3  0  0  0  0  0  0
  162.0460  208.7330  150.4110 C   0  0  2  0  0  3  0  0  0  0  0  0
  162.1010  206.2820  151.0180 C   0  0  2  0  0  3  0  0  0  0  0  0
  162.0890  203.8060  151.6990 C   0  0  0  0  0  1  0  0  0  0  0  0
  159.4100  204.5860  150.3660 C   0  0  0  0  0  1  0  0  0  0  0  0
  162.0230  205.6930  147.9560 C   0  0  0  0  0  2  0  0  0  0  0  0
  161.2640  209.6720  154.4410 C   0  0  2  0  0  3  0  0  0  0  0  0
  159.4630  208.0420  156.4850 C   0  0  0  0  0  2  0  0  0  0  0  0
  161.2880  206.6290  152.2660 C   0  0  0  0  0  2  0  0  0  0  0  0
  162.4740  207.0190  148.5850 C   0  0  0  0  0  2  0  0  0  0  0  0
  161.0020  208.2120  154.0340 C   0  0  1  0  0  3  0  0  0  0  0  0
  160.6190  211.6790  155.5370 C   0  0  0  0  0  2  0  0  0  0  0  0
  161.7770  207.3090  149.9200 C   0  0  2  0  0  3  0  0  0  0  0  0
  160.6840  205.3180  148.4150 N   0  0  0  0  0  2  0  0  0  0  0  0
  159.3990  209.5530  156.1990 C   0  0  1  0  0  3  0  0  0  0  0  0
  161.3070  208.9470  151.7460 C   0  0  1  0  0  3  0  0  0  0  0  0
  161.9290  204.8150  150.5720 C   0  0  1  0  0  3  0  0  0  0  0  0
  161.7020  207.9440  152.7610 N   0  0  2  0  0  0  0  0  0  0  0  0
  161.9770  210.9410  149.8690 C   0  0  0  0  0  2  0  0  0  0  0  0
  160.8840  207.4750  156.5210 C   0  0  0  0  0  2  0  0  0  0  0  0
  161.5620  209.6570  149.4610 O   0  0  0  0  0  0  0  0  0  0  0  0
  161.4710  207.2280  155.1240 C   0  0  0  0  0  2  0  0  0  0  0  0
  160.7440  210.1810  155.7750 C   0  0  1  0  0  3  0  0  0  0  0  0
  161.2230  211.3620  151.1330 C   0  0  0  0  0  2  0  0  0  0  0  0
  160.7450  210.5760  153.4320 N   0  0  2  0  0  0  0  0  0  0  0  0
  158.3990  209.8040  155.2510 O   0  0  0  0  0  0  0  0  0  0  0  0
  157.6390  210.7340  155.7950 O   0  0  0  0  0  0  0  0  0  0  0  0
  155.7470  213.2120  154.8010 O   0  0  0  0  0  0  0  0  0  0  0  0
  157.4470  212.1100  153.8860 C   0  0  0  0  0  3  0  0  0  0  0  0
  156.7660  211.1230  154.7760 C   0  0  2  0  0  3  0  0  0  0  0  0
  156.8280  213.2720  153.9430 C   0  0  0  0  0  3  0  0  0  0  0  0
  155.6110  211.9230  155.3710 C   0  0  0  0  0  2  0  0  0  0  0  0
  1 26  1  6  0  0  0
  1 27  1  0  0  0  0
  2 14  1  0  0  0  0
  3  7  1  1  0  0  0
  3 19  1  0  0  0  0
  4 23  1  6  0  0  0
  4 18  1  0  0  0  0
  5 11  1  1  0  0  0
  8 16  1  0  0  0  0
  8 12  1  0  0  0  0
  9 25  1  0  0  0  0
 10 22  1  0  0  0  0
 11 20  1  0  0  0  0
 12 15  1  0  0  0  0
 13  9  1  0  0  0  0
 13 24  1  0  0  0  0
 14 25  1  0  0  0  0
 15  4  1  0  0  0  0
 15  5  1  0  0  0  0
 16  3  1  0  0  0  0
 17 10  1  0  0  0  0
 18  1  1  0  0  0  0
 18 20  1  0  0  0  0
 19  5  1  0  0  0  0
 19  6  1  0  0  0  0
 20 13  1  0  0  0  0
 21 26  1  0  0  0  0
 23 21  1  0  0  0  0
 24 22  1  0  0  0  0
 25 17  1  0  0  0  0
 27  2  1  0  0  0  0
 27  9  1  0  0  0  0
 28 29  1  0  0  0  0
 28 17  1  0  0  0  0
 30 34  1  0  0  0  0
 31 33  2  0  0  0  0
 31 32  1  0  0  0  0
 32 34  1  0  0  0  0
 32 29  1  0  0  0  0
 33 30  1  0  0  0  0
M  END
>  <MODEL>
2

>  <REMARK>
 VINA RESULT:      -4.7      2.336      7.891
  Name = 
  3 active torsions:
  status: ('A' for Active; 'I' for Inactive)
    1  A    between atoms: C_17  and  O_28
    2  A    between atoms: O_28  and  O_29
    3  A    between atoms: O_29  and  C_32
                            x       y       z     vdW  Elec       q    Type
                         _______ _______ _______ _____ _____    ______ ____

>  <TORSDO>
F 3

$$$$
