=
 OpenBabel11122413183D

 31 35  0  0  1  0  0  0  0  0999 V2000
  161.2790  207.9530  154.2360 C   0  0  0  0  0  0  0  0  0  0  0  0
  160.9260  207.3870  150.4510 C   0  0  1  0  0  3  0  0  0  0  0  0
  161.0930  205.8900  150.2590 C   0  0  0  0  0  0  0  0  0  0  0  0
  161.3320  212.5020  149.2500 O   0  0  0  0  0  0  0  0  0  0  0  0
  161.5440  211.8340  148.2020 C   0  0  0  0  0  0  0  0  0  0  0  0
  161.0820  203.5920  151.0510 C   0  0  0  0  0  0  0  0  0  0  0  0
  161.2220  208.0080  151.8050 C   0  0  0  0  0  0  0  0  0  0  0  0
  161.5280  209.3270  154.2670 C   0  0  0  0  0  3  0  0  0  0  0  0
  161.0270  204.9640  151.3100 C   0  0  0  0  0  3  0  0  0  0  0  0
  161.5700  209.6060  149.4570 C   0  0  0  0  0  0  0  0  0  0  0  0
  161.1850  207.2540  155.3920 F   0  0  0  0  0  0  0  0  0  0  0  0
  161.1710  206.3500  147.8440 N   0  0  0  0  0  0  0  0  0  0  0  0
  161.0210  202.4510  152.3760 Cl  0  0  0  0  0  0  0  0  0  0  0  0
  161.5090  210.1650  150.6320 N   0  0  0  0  0  0  0  0  0  0  0  0
  161.7270  208.1120  149.3580 C   0  0  2  0  0  3  0  0  0  0  0  0
  161.6520  210.4060  148.2690 N   0  0  0  0  0  2  0  0  0  0  0  0
  161.1080  207.3020  153.0110 C   0  0  0  0  0  3  0  0  0  0  0  0
  161.1680  203.1310  149.7350 C   0  0  0  0  0  3  0  0  0  0  0  0
  161.4530  209.4020  151.8480 C   0  0  0  0  0  0  0  0  0  0  0  0
  161.6080  210.0510  153.0760 C   0  0  0  0  0  3  0  0  0  0  0  0
  161.3780  207.5960  148.0340 N   0  0  0  0  0  0  0  0  0  0  0  0
  161.1660  205.4140  148.9330 C   0  0  0  0  0  0  0  0  0  0  0  0
  161.2030  204.0410  148.6760 C   0  0  0  0  0  3  0  0  0  0  0  0
  161.8270  213.7930  144.4210 C   0  0  0  0  0  0  0  0  0  0  0  0
  160.8110  212.1970  145.8520 C   0  0  0  0  0  3  0  0  0  0  0  0
  163.5050  213.9250  147.6470 F   0  0  0  0  0  0  0  0  0  0  0  0
  161.8970  214.4530  143.0920 C   0  0  0  0  0  1  0  0  0  0  0  0
  160.9040  212.8220  144.6490 N   0  0  0  0  0  0  0  0  0  0  0  0
  162.6360  213.5420  146.6790 C   0  0  0  0  0  0  0  0  0  0  0  0
  161.6740  212.5370  146.9040 C   0  0  0  0  0  0  0  0  0  0  0  0
  162.7090  214.1690  145.4330 C   0  0  0  0  0  3  0  0  0  0  0  0
  1  8  1  0  0  0  0
  1 11  1  0  0  0  0
  2  3  1  1  0  0  0
  2  7  1  0  0  0  0
  3  9  1  0  0  0  0
  5 16  1  0  0  0  0
  5  4  2  0  0  0  0
  6  9  2  0  0  0  0
  6 13  1  0  0  0  0
  7 19  2  0  0  0  0
  7 17  1  0  0  0  0
 10 14  2  0  0  0  0
 12 21  2  0  0  0  0
 12 22  1  0  0  0  0
 14 19  1  0  0  0  0
 15 21  1  6  0  0  0
 15 10  1  0  0  0  0
 15  2  1  0  0  0  0
 16 10  1  0  0  0  0
 17  1  2  0  0  0  0
 18  6  1  0  0  0  0
 19 20  1  0  0  0  0
 20  8  2  0  0  0  0
 22  3  2  0  0  0  0
 23 22  1  0  0  0  0
 23 18  2  0  0  0  0
 24 28  2  0  0  0  0
 24 31  1  0  0  0  0
 25 30  2  0  0  0  0
 27 24  1  0  0  0  0
 28 25  1  0  0  0  0
 29 30  1  0  0  0  0
 29 26  1  0  0  0  0
 30  5  1  0  0  0  0
 31 29  2  0  0  0  0
M  END
>  <MODEL>
1

>  <REMARK>
 VINA RESULT:      -9.4      0.000      0.000
  Name = 
  1 active torsions:
  status: ('A' for Active; 'I' for Inactive)
    1  A    between atoms: C_5  and  C_30
                            x       y       z     vdW  Elec       q    Type
                         _______ _______ _______ _____ _____    ______ ____

>  <TORSDO>
F 1

$$$$
=
 OpenBabel11122413183D

 31 35  0  0  1  0  0  0  0  0999 V2000
  161.0680  201.5970  150.3530 C   0  0  0  0  0  0  0  0  0  0  0  0
  160.8390  205.3860  149.7520 C   0  0  1  0  0  3  0  0  0  0  0  0
  161.2170  205.5770  148.2940 C   0  0  0  0  0  0  0  0  0  0  0  0
  160.5350  206.5780  154.8760 O   0  0  0  0  0  0  0  0  0  0  0  0
  160.8500  207.6250  154.2470 C   0  0  0  0  0  0  0  0  0  0  0  0
  161.5210  204.7870  146.0160 C   0  0  0  0  0  0  0  0  0  0  0  0
  161.0300  204.0280  150.4060 C   0  0  0  0  0  0  0  0  0  0  0  0
  161.1210  201.5620  151.7490 C   0  0  0  0  0  3  0  0  0  0  0  0
  161.2710  204.5280  147.3650 C   0  0  0  0  0  3  0  0  0  0  0  0
  161.1750  206.3710  152.0420 C   0  0  0  0  0  0  0  0  0  0  0  0
  161.0610  200.4430  149.6460 F   0  0  0  0  0  0  0  0  0  0  0  0
  161.2560  207.9910  148.7650 N   0  0  0  0  0  0  0  0  0  0  0  0
  161.6070  203.4630  144.8740 Cl  0  0  0  0  0  0  0  0  0  0  0  0
  161.0230  205.1960  152.5840 N   0  0  0  0  0  0  0  0  0  0  0  0
  161.5420  206.4690  150.5850 C   0  0  2  0  0  3  0  0  0  0  0  0
  161.1570  207.5580  152.8480 N   0  0  0  0  0  2  0  0  0  0  0  0
  161.0040  202.8240  149.6870 C   0  0  0  0  0  3  0  0  0  0  0  0
  161.6860  206.1020  145.5740 C   0  0  0  0  0  3  0  0  0  0  0  0
  161.0630  203.9820  151.8170 C   0  0  0  0  0  0  0  0  0  0  0  0
  161.1110  202.7520  152.4790 C   0  0  0  0  0  3  0  0  0  0  0  0
  161.2830  207.7970  150.0280 N   0  0  0  0  0  0  0  0  0  0  0  0
  161.3710  206.9030  147.8360 C   0  0  0  0  0  0  0  0  0  0  0  0
  161.6030  207.1600  146.4830 C   0  0  0  0  0  3  0  0  0  0  0  0
  160.9050  211.4050  156.2280 C   0  0  0  0  0  0  0  0  0  0  0  0
  160.1960  210.0180  154.4380 C   0  0  0  0  0  3  0  0  0  0  0  0
  162.3090  208.0860  156.7330 F   0  0  0  0  0  0  0  0  0  0  0  0
  160.9020  212.7340  156.8900 C   0  0  0  0  0  1  0  0  0  0  0  0
  160.2160  211.2200  155.0710 N   0  0  0  0  0  0  0  0  0  0  0  0
  161.6110  209.1000  156.1640 C   0  0  0  0  0  0  0  0  0  0  0  0
  160.8930  208.9200  154.9640 C   0  0  0  0  0  0  0  0  0  0  0  0
  161.6140  210.3470  156.7930 C   0  0  0  0  0  3  0  0  0  0  0  0
  1  8  1  0  0  0  0
  2  3  1  6  0  0  0
  2  7  1  0  0  0  0
  2 15  1  0  0  0  0
  5  4  2  0  0  0  0
  5 30  1  0  0  0  0
  6  9  1  0  0  0  0
  7 19  2  0  0  0  0
  8 20  2  0  0  0  0
  9  3  2  0  0  0  0
 10 14  2  0  0  0  0
 10 16  1  0  0  0  0
 11  1  1  0  0  0  0
 12 21  2  0  0  0  0
 13  6  1  0  0  0  0
 15 21  1  6  0  0  0
 15 10  1  0  0  0  0
 16  5  1  0  0  0  0
 17  1  2  0  0  0  0
 17  7  1  0  0  0  0
 18  6  2  0  0  0  0
 18 23  1  0  0  0  0
 19 20  1  0  0  0  0
 19 14  1  0  0  0  0
 22  3  1  0  0  0  0
 22 12  1  0  0  0  0
 23 22  2  0  0  0  0
 24 31  1  0  0  0  0
 24 27  1  0  0  0  0
 25 30  2  0  0  0  0
 25 28  1  0  0  0  0
 28 24  2  0  0  0  0
 29 26  1  0  0  0  0
 29 31  2  0  0  0  0
 30 29  1  0  0  0  0
M  END
>  <MODEL>
2

>  <REMARK>
 VINA RESULT:      -9.1      4.503      7.362
  Name = 
  1 active torsions:
  status: ('A' for Active; 'I' for Inactive)
    1  A    between atoms: C_5  and  C_30
                            x       y       z     vdW  Elec       q    Type
                         _______ _______ _______ _____ _____    ______ ____

>  <TORSDO>
F 1

$$$$
=
 OpenBabel11122413183D

 31 35  0  0  1  0  0  0  0  0999 V2000
  161.0760  205.4850  145.5590 C   0  0  0  0  0  0  0  0  0  0  0  0
  161.4610  204.4890  149.2510 C   0  0  1  0  0  3  0  0  0  0  0  0
  161.2330  202.9880  149.2790 C   0  0  0  0  0  0  0  0  0  0  0  0
  161.2920  209.4510  151.0150 O   0  0  0  0  0  0  0  0  0  0  0  0
  161.0680  208.6800  151.9880 C   0  0  0  0  0  0  0  0  0  0  0  0
  161.1340  200.7940  148.2380 C   0  0  0  0  0  0  0  0  0  0  0  0
  161.1710  205.2680  147.9790 C   0  0  0  0  0  0  0  0  0  0  0  0
  160.8850  206.8630  145.6830 C   0  0  0  0  0  3  0  0  0  0  0  0
  161.2430  202.1820  148.1320 C   0  0  0  0  0  3  0  0  0  0  0  0
  160.9270  206.6090  150.4950 C   0  0  0  0  0  0  0  0  0  0  0  0
  161.1220  204.9160  144.3310 F   0  0  0  0  0  0  0  0  0  0  0  0
  161.2110  203.1790  151.7320 N   0  0  0  0  0  0  0  0  0  0  0  0
  161.1250  199.8050  146.7950 Cl  0  0  0  0  0  0  0  0  0  0  0  0
  160.9950  207.2910  149.3880 N   0  0  0  0  0  0  0  0  0  0  0  0
  160.7080  205.1200  150.4310 C   0  0  2  0  0  3  0  0  0  0  0  0
  160.8980  207.2740  151.7650 N   0  0  0  0  0  2  0  0  0  0  0  0
  161.2360  204.6960  146.7000 C   0  0  0  0  0  3  0  0  0  0  0  0
  161.0470  200.1930  149.4970 C   0  0  0  0  0  3  0  0  0  0  0  0
  160.9990  206.6660  148.0940 C   0  0  0  0  0  0  0  0  0  0  0  0
  160.8540  207.4530  146.9490 C   0  0  0  0  0  3  0  0  0  0  0  0
  161.0550  204.4470  151.6840 N   0  0  0  0  0  0  0  0  0  0  0  0
  161.1590  202.3710  150.5460 C   0  0  0  0  0  0  0  0  0  0  0  0
  161.0670  200.9810  150.6500 C   0  0  0  0  0  3  0  0  0  0  0  0
  160.8660  210.3990  155.8890 C   0  0  0  0  0  0  0  0  0  0  0  0
  161.2310  210.6070  153.5540 C   0  0  0  0  0  3  0  0  0  0  0  0
  160.4300  207.1210  154.3720 F   0  0  0  0  0  0  0  0  0  0  0  0
  160.8040  211.0310  157.2320 C   0  0  0  0  0  1  0  0  0  0  0  0
  161.1660  211.1510  154.7980 N   0  0  0  0  0  0  0  0  0  0  0  0
  160.6760  208.4490  154.4820 C   0  0  0  0  0  0  0  0  0  0  0  0
  160.9880  209.2390  153.3570 C   0  0  0  0  0  0  0  0  0  0  0  0
  160.6160  209.0350  155.7490 C   0  0  0  0  0  3  0  0  0  0  0  0
  1  8  2  0  0  0  0
  1 17  1  0  0  0  0
  2  7  1  6  0  0  0
  2  3  1  0  0  0  0
  2 15  1  0  0  0  0
  3 22  1  0  0  0  0
  4  5  2  0  0  0  0
  5 30  1  0  0  0  0
  6 18  2  0  0  0  0
  7 19  1  0  0  0  0
  8 20  1  0  0  0  0
  9  6  1  0  0  0  0
  9  3  2  0  0  0  0
 10 16  1  0  0  0  0
 11  1  1  0  0  0  0
 13  6  1  0  0  0  0
 14 10  2  0  0  0  0
 15 10  1  1  0  0  0
 15 21  1  0  0  0  0
 16  5  1  0  0  0  0
 17  7  2  0  0  0  0
 18 23  1  0  0  0  0
 19 14  1  0  0  0  0
 20 19  2  0  0  0  0
 21 12  2  0  0  0  0
 22 23  2  0  0  0  0
 22 12  1  0  0  0  0
 24 27  1  0  0  0  0
 25 28  1  0  0  0  0
 26 29  1  0  0  0  0
 28 24  2  0  0  0  0
 29 31  2  0  0  0  0
 30 25  2  0  0  0  0
 30 29  1  0  0  0  0
 31 24  1  0  0  0  0
M  END
>  <MODEL>
3

>  <REMARK>
 VINA RESULT:      -8.6      4.131      7.176
  Name = 
  1 active torsions:
  status: ('A' for Active; 'I' for Inactive)
    1  A    between atoms: C_5  and  C_30
                            x       y       z     vdW  Elec       q    Type
                         _______ _______ _______ _____ _____    ______ ____

>  <TORSDO>
F 1

$$$$
=
 OpenBabel11122413183D

 31 35  0  0  1  0  0  0  0  0999 V2000
  161.7890  211.1560  150.0110 C   0  0  0  0  0  0  0  0  0  0  0  0
  160.9800  207.6900  151.4620 C   0  0  1  0  0  3  0  0  0  0  0  0
  161.1340  207.8460  152.9640 C   0  0  0  0  0  0  0  0  0  0  0  0
  161.1920  205.2520  146.7950 O   0  0  0  0  0  0  0  0  0  0  0  0
  161.2790  204.3780  147.7000 C   0  0  0  0  0  0  0  0  0  0  0  0
  161.2400  209.1640  155.0030 C   0  0  0  0  0  0  0  0  0  0  0  0
  161.4350  208.8080  150.5400 C   0  0  0  0  0  0  0  0  0  0  0  0
  162.0290  210.8250  148.6750 C   0  0  0  0  0  3  0  0  0  0  0  0
  161.2070  209.0890  153.6090 C   0  0  0  0  0  3  0  0  0  0  0  0
  161.4780  206.1200  149.5610 C   0  0  0  0  0  0  0  0  0  0  0  0
  161.8440  212.4490  150.4090 F   0  0  0  0  0  0  0  0  0  0  0  0
  160.9120  205.4000  153.1000 N   0  0  0  0  0  0  0  0  0  0  0  0
  161.3520  210.7220  155.7920 Cl  0  0  0  0  0  0  0  0  0  0  0  0
  161.5560  207.1250  148.7350 N   0  0  0  0  0  0  0  0  0  0  0  0
  161.6340  206.3670  151.0380 C   0  0  2  0  0  3  0  0  0  0  0  0
  161.4060  204.7740  149.0720 N   0  0  0  0  0  2  0  0  0  0  0  0
  161.4760  210.1540  150.9330 C   0  0  0  0  0  3  0  0  0  0  0  0
  161.1690  207.9970  155.7700 C   0  0  0  0  0  3  0  0  0  0  0  0
  161.6570  208.4860  149.1820 C   0  0  0  0  0  0  0  0  0  0  0  0
  161.9560  209.4930  148.2610 C   0  0  0  0  0  3  0  0  0  0  0  0
  161.1290  205.2580  151.8490 N   0  0  0  0  0  0  0  0  0  0  0  0
  161.0480  206.6750  153.7460 C   0  0  0  0  0  0  0  0  0  0  0  0
  161.0650  206.7540  155.1410 C   0  0  0  0  0  3  0  0  0  0  0  0
  161.1710  200.2760  146.5250 C   0  0  0  0  0  0  0  0  0  0  0  0
  161.2060  202.5840  145.9770 C   0  0  0  0  0  3  0  0  0  0  0  0
  161.2750  202.1820  149.6230 F   0  0  0  0  0  0  0  0  0  0  0  0
  161.1330  198.8600  146.0800 C   0  0  0  0  0  1  0  0  0  0  0  0
  161.1710  201.2770  145.6060 N   0  0  0  0  0  0  0  0  0  0  0  0
  161.2420  201.9130  148.2950 C   0  0  0  0  0  0  0  0  0  0  0  0
  161.2420  202.9430  147.3320 C   0  0  0  0  0  0  0  0  0  0  0  0
  161.2060  200.5780  147.8860 C   0  0  0  0  0  3  0  0  0  0  0  0
  1 11  1  0  0  0  0
  1 17  1  0  0  0  0
  2  7  1  6  0  0  0
  2  3  1  0  0  0  0
  3  9  2  0  0  0  0
  3 22  1  0  0  0  0
  4  5  2  0  0  0  0
  5 16  1  0  0  0  0
  6 18  2  0  0  0  0
  6 13  1  0  0  0  0
  7 17  2  0  0  0  0
  8  1  2  0  0  0  0
  9  6  1  0  0  0  0
 12 22  1  0  0  0  0
 14 19  1  0  0  0  0
 14 10  2  0  0  0  0
 15 10  1  6  0  0  0
 15  2  1  0  0  0  0
 15 21  1  0  0  0  0
 16 10  1  0  0  0  0
 19  7  1  0  0  0  0
 20  8  1  0  0  0  0
 20 19  2  0  0  0  0
 21 12  2  0  0  0  0
 22 23  2  0  0  0  0
 23 18  1  0  0  0  0
 24 31  1  0  0  0  0
 25 30  2  0  0  0  0
 27 24  1  0  0  0  0
 28 25  1  0  0  0  0
 28 24  2  0  0  0  0
 29 26  1  0  0  0  0
 30  5  1  0  0  0  0
 30 29  1  0  0  0  0
 31 29  2  0  0  0  0
M  END
>  <MODEL>
4

>  <REMARK>
 VINA RESULT:      -8.0      3.718      7.874
  Name = 
  1 active torsions:
  status: ('A' for Active; 'I' for Inactive)
    1  A    between atoms: C_5  and  C_30
                            x       y       z     vdW  Elec       q    Type
                         _______ _______ _______ _____ _____    ______ ____

>  <TORSDO>
F 1

$$$$
