=
 OpenBabel11122414103D

 28 32  0  0  1  0  0  0  0  0999 V2000
  160.5160  209.7630  156.0330 C   0  0  0  0  0  0  0  0  0  0  0  0
  155.3970  210.3790  155.0090 C   0  0  0  0  0  1  0  0  0  0  0  0
  161.4660  211.1450  151.8430 O   0  0  0  0  0  0  0  0  0  0  0  0
  161.4020  212.3170  156.7640 C   0  0  0  0  0  3  0  0  0  0  0  0
  159.4590  212.3920  152.3510 C   0  0  1  0  0  3  0  0  0  0  0  0
  160.0900  208.4960  155.6300 O   0  0  0  0  0  0  0  0  0  0  0  0
  156.1250  211.0790  157.2610 C   0  0  0  0  0  1  0  0  0  0  0  0
  156.0230  211.5160  155.8120 C   0  0  0  0  0  0  0  0  0  0  0  0
  155.1650  213.4760  154.6100 C   0  0  0  0  0  0  0  0  0  0  0  0
  157.4300  211.8870  155.2900 C   0  0  2  0  0  3  0  0  0  0  0  0
  162.3290  208.2160  153.0910 O   0  0  0  0  0  0  0  0  0  0  0  0
  158.4450  210.4870  153.5650 C   0  0  1  0  0  3  0  0  0  0  0  0
  156.0760  213.1600  153.4700 C   0  0  0  0  0  2  0  0  0  0  0  0
  155.1760  212.6620  155.7430 O   0  0  0  0  0  0  0  0  0  0  0  0
  161.1930  208.1860  153.5350 C   0  0  0  0  0  0  0  0  0  0  0  0
  159.6910  210.8770  155.7980 C   0  0  0  0  0  0  0  0  0  0  0  0
  160.3380  211.2020  152.4000 C   0  0  0  0  0  0  0  0  0  0  0  0
  154.3760  214.4530  154.5390 O   0  0  0  0  0  0  0  0  0  0  0  0
  160.0590  208.7230  152.7160 C   0  0  0  0  0  2  0  0  0  0  0  0
  160.1530  212.1540  156.1630 C   0  0  0  0  0  3  0  0  0  0  0  0
  161.7740  209.9330  156.6270 C   0  0  0  0  0  3  0  0  0  0  0  0
  162.2140  211.2050  156.9950 C   0  0  0  0  0  3  0  0  0  0  0  0
  160.9430  207.6230  154.9000 C   0  0  0  0  0  2  0  0  0  0  0  0
  158.1320  211.8420  152.9250 C   0  0  1  0  0  3  0  0  0  0  0  0
  159.7650  210.1020  153.0870 N   0  0  0  0  0  0  0  0  0  0  0  0
  157.4490  212.7050  153.9800 C   0  0  2  0  0  3  0  0  0  0  0  0
  160.0780  213.5170  153.1720 C   0  0  0  0  0  1  0  0  0  0  0  0
  158.3610  210.6900  155.0910 C   0  0  1  0  0  3  0  0  0  0  0  0
  1 21  1  0  0  0  0
  2  8  1  0  0  0  0
  3 17  2  0  0  0  0
  4 22  1  0  0  0  0
  5 17  1  0  0  0  0
  5 24  1  0  0  0  0
  5 27  1  1  0  0  0
  6  1  1  0  0  0  0
  8  7  1  0  0  0  0
  9 14  1  0  0  0  0
 10  8  1  6  0  0  0
 11 15  2  0  0  0  0
 12 25  1  1  0  0  0
 12 28  1  0  0  0  0
 13 26  1  0  0  0  0
 13  9  1  0  0  0  0
 14  8  1  0  0  0  0
 15 23  1  0  0  0  0
 16  1  2  0  0  0  0
 16 20  1  0  0  0  0
 17 25  1  0  0  0  0
 18  9  2  0  0  0  0
 19 25  1  0  0  0  0
 19 15  1  0  0  0  0
 20  4  2  0  0  0  0
 21 22  2  0  0  0  0
 23  6  1  0  0  0  0
 24 12  1  0  0  0  0
 24 26  1  0  0  0  0
 26 10  1  0  0  0  0
 28 10  1  0  0  0  0
 28 16  1  0  0  0  0
M  END
>  <MODEL>
1

>  <REMARK>
 VINA RESULT:      -0.9      0.000      0.000
  Name = 
  0 active torsions:
  status: ('A' for Active; 'I' for Inactive)
                            x       y       z     vdW  Elec       q    Type
                         _______ _______ _______ _____ _____    ______ ____

>  <TORSDO>
F 0

$$$$
=
 OpenBabel11122414103D

 28 32  0  0  1  0  0  0  0  0999 V2000
  161.2220  209.6560  156.6020 C   0  0  0  0  0  0  0  0  0  0  0  0
  157.2800  212.0670  154.0970 C   0  0  0  0  0  1  0  0  0  0  0  0
  161.9150  207.1040  152.9440 O   0  0  0  0  0  0  0  0  0  0  0  0
  163.5270  210.9950  155.7450 C   0  0  0  0  0  3  0  0  0  0  0  0
  161.1240  209.1750  151.9810 C   0  0  1  0  0  3  0  0  0  0  0  0
  160.0810  208.9570  157.0010 O   0  0  0  0  0  0  0  0  0  0  0  0
  158.7150  213.5250  155.4770 C   0  0  0  0  0  1  0  0  0  0  0  0
  158.5870  212.8530  154.1230 C   0  0  0  0  0  0  0  0  0  0  0  0
  158.7720  213.5500  151.7770 C   0  0  0  0  0  0  0  0  0  0  0  0
  159.8150  211.9440  153.8860 C   0  0  2  0  0  3  0  0  0  0  0  0
  161.1930  205.9280  155.9400 O   0  0  0  0  0  0  0  0  0  0  0  0
  159.4800  209.5260  153.7990 C   0  0  1  0  0  3  0  0  0  0  0  0
  159.0880  212.1410  151.3980 C   0  0  0  0  0  2  0  0  0  0  0  0
  158.5480  213.8650  153.1180 O   0  0  0  0  0  0  0  0  0  0  0  0
  160.3610  206.8180  155.9760 C   0  0  0  0  0  0  0  0  0  0  0  0
  161.1490  210.5290  155.5020 C   0  0  0  0  0  0  0  0  0  0  0  0
  161.1600  208.1100  153.0090 C   0  0  0  0  0  0  0  0  0  0  0  0
  158.6830  214.4410  150.8940 O   0  0  0  0  0  0  0  0  0  0  0  0
  159.5940  207.1710  154.7390 C   0  0  0  0  0  2  0  0  0  0  0  0
  162.3160  211.1890  155.0790 C   0  0  0  0  0  3  0  0  0  0  0  0
  162.4430  209.4560  157.2610 C   0  0  0  0  0  3  0  0  0  0  0  0
  163.5910  210.1280  156.8370 C   0  0  0  0  0  3  0  0  0  0  0  0
  160.1190  207.5580  157.2550 C   0  0  0  0  0  2  0  0  0  0  0  0
  159.8690  209.9820  152.3900 C   0  0  1  0  0  3  0  0  0  0  0  0
  160.2180  208.2970  154.0520 N   0  0  0  0  0  0  0  0  0  0  0  0
  160.0280  211.4990  152.4230 C   0  0  2  0  0  3  0  0  0  0  0  0
  162.4240  209.9700  152.0270 C   0  0  0  0  0  1  0  0  0  0  0  0
  159.8380  210.6830  154.7530 C   0  0  1  0  0  3  0  0  0  0  0  0
  1  6  1  0  0  0  0
  1 21  1  0  0  0  0
  2  8  1  0  0  0  0
  3 17  2  0  0  0  0
  4 22  1  0  0  0  0
  5 27  1  1  0  0  0
  5 24  1  0  0  0  0
  5 17  1  0  0  0  0
  6 23  1  0  0  0  0
  8  7  1  0  0  0  0
  9 14  1  0  0  0  0
 10  8  1  6  0  0  0
 10 28  1  0  0  0  0
 11 15  2  0  0  0  0
 12 25  1  1  0  0  0
 12 28  1  0  0  0  0
 13  9  1  0  0  0  0
 13 26  1  0  0  0  0
 14  8  1  0  0  0  0
 15 23  1  0  0  0  0
 16  1  2  0  0  0  0
 17 25  1  0  0  0  0
 18  9  2  0  0  0  0
 19 15  1  0  0  0  0
 20 16  1  0  0  0  0
 20  4  2  0  0  0  0
 22 21  2  0  0  0  0
 24 26  1  0  0  0  0
 24 12  1  0  0  0  0
 25 19  1  0  0  0  0
 26 10  1  0  0  0  0
 28 16  1  0  0  0  0
M  END
>  <MODEL>
2

>  <REMARK>
 VINA RESULT:      -0.5      2.157      3.138
  Name = 
  0 active torsions:
  status: ('A' for Active; 'I' for Inactive)
                            x       y       z     vdW  Elec       q    Type
                         _______ _______ _______ _____ _____    ______ ____

>  <TORSDO>
F 0

$$$$
=
 OpenBabel11122414103D

 28 32  0  0  1  0  0  0  0  0999 V2000
  161.8960  209.8900  153.4830 C   0  0  0  0  0  0  0  0  0  0  0  0
  160.4250  214.4530  151.3280 C   0  0  0  0  0  1  0  0  0  0  0  0
  158.7850  210.4690  156.7020 O   0  0  0  0  0  0  0  0  0  0  0  0
  160.0800  208.0140  152.4730 C   0  0  0  0  0  3  0  0  0  0  0  0
  157.7570  211.5440  154.7970 C   0  0  1  0  0  3  0  0  0  0  0  0
  162.7800  210.8270  154.0230 O   0  0  0  0  0  0  0  0  0  0  0  0
  160.9400  212.6390  149.7350 C   0  0  0  0  0  1  0  0  0  0  0  0
  159.8630  213.2160  150.6350 C   0  0  0  0  0  0  0  0  0  0  0  0
  157.5010  213.8370  150.3930 C   0  0  0  0  0  0  0  0  0  0  0  0
  159.4130  212.1380  151.6480 C   0  0  2  0  0  3  0  0  0  0  0  0
  162.0190  210.1320  157.2600 O   0  0  0  0  0  0  0  0  0  0  0  0
  159.9140  212.4770  154.0150 C   0  0  1  0  0  3  0  0  0  0  0  0
  157.3190  213.6650  151.8650 C   0  0  0  0  0  2  0  0  0  0  0  0
  158.7520  213.5950  149.8240 O   0  0  0  0  0  0  0  0  0  0  0  0
  162.1560  210.9060  156.3270 C   0  0  0  0  0  0  0  0  0  0  0  0
  160.7360  210.3330  152.8240 C   0  0  0  0  0  0  0  0  0  0  0  0
  158.9010  211.1600  155.6550 C   0  0  0  0  0  0  0  0  0  0  0  0
  156.5420  214.2220  149.6760 O   0  0  0  0  0  0  0  0  0  0  0  0
  161.2000  212.0460  156.1590 C   0  0  0  0  0  2  0  0  0  0  0  0
  159.8290  209.3790  152.3280 C   0  0  0  0  0  3  0  0  0  0  0  0
  162.1380  208.5180  153.6350 C   0  0  0  0  0  3  0  0  0  0  0  0
  161.2350  207.5830  153.1270 C   0  0  0  0  0  3  0  0  0  0  0  0
  163.2730  210.7030  155.3510 C   0  0  0  0  0  2  0  0  0  0  0  0
  158.3950  212.5880  153.8500 C   0  0  1  0  0  3  0  0  0  0  0  0
  160.1400  211.6940  155.2210 N   0  0  0  0  0  0  0  0  0  0  0  0
  158.0780  212.4310  152.3670 C   0  0  2  0  0  3  0  0  0  0  0  0
  157.2130  210.3080  154.0910 C   0  0  0  0  0  1  0  0  0  0  0  0
  160.4500  211.8210  152.7270 C   0  0  1  0  0  3  0  0  0  0  0  0
  1 21  1  0  0  0  0
  1  6  1  0  0  0  0
  4 22  1  0  0  0  0
  5 27  1  6  0  0  0
  5 17  1  0  0  0  0
  6 23  1  0  0  0  0
  7  8  1  0  0  0  0
  8  2  1  0  0  0  0
  9 13  1  0  0  0  0
 10  8  1  1  0  0  0
 10 26  1  0  0  0  0
 10 28  1  0  0  0  0
 12 25  1  1  0  0  0
 13 26  1  0  0  0  0
 14  9  1  0  0  0  0
 14  8  1  0  0  0  0
 15 11  2  0  0  0  0
 16  1  2  0  0  0  0
 17  3  2  0  0  0  0
 18  9  2  0  0  0  0
 19 15  1  0  0  0  0
 20  4  2  0  0  0  0
 20 16  1  0  0  0  0
 22 21  2  0  0  0  0
 23 15  1  0  0  0  0
 24 12  1  0  0  0  0
 24  5  1  0  0  0  0
 25 17  1  0  0  0  0
 25 19  1  0  0  0  0
 26 24  1  0  0  0  0
 28 16  1  0  0  0  0
 28 12  1  0  0  0  0
M  END
>  <MODEL>
3

>  <REMARK>
 VINA RESULT:       0.8      2.135      4.699
  Name = 
  0 active torsions:
  status: ('A' for Active; 'I' for Inactive)
                            x       y       z     vdW  Elec       q    Type
                         _______ _______ _______ _____ _____    ______ ____

>  <TORSDO>
F 0

$$$$
=
 OpenBabel11122414103D

 28 32  0  0  1  0  0  0  0  0999 V2000
  161.2260  207.9890  156.1860 C   0  0  0  0  0  0  0  0  0  0  0  0
  163.4520  206.5850  151.6360 C   0  0  0  0  0  1  0  0  0  0  0  0
  160.6230  212.1510  154.5450 O   0  0  0  0  0  0  0  0  0  0  0  0
  158.4750  207.7290  155.7370 C   0  0  0  0  0  3  0  0  0  0  0  0
  160.4310  210.7850  152.5610 C   0  0  1  0  0  3  0  0  0  0  0  0
  162.5950  208.1620  156.4050 O   0  0  0  0  0  0  0  0  0  0  0  0
  161.9620  204.9030  152.6580 C   0  0  0  0  0  1  0  0  0  0  0  0
  161.9980  206.1470  151.7910 C   0  0  0  0  0  0  0  0  0  0  0  0
  161.0640  206.8230  149.6240 C   0  0  0  0  0  0  0  0  0  0  0  0
  161.1280  207.2480  152.4410 C   0  0  2  0  0  3  0  0  0  0  0  0
  162.3570  211.4400  157.2610 O   0  0  0  0  0  0  0  0  0  0  0  0
  162.2280  209.2510  153.3040 C   0  0  1  0  0  3  0  0  0  0  0  0
  161.1630  208.2530  150.0430 C   0  0  0  0  0  2  0  0  0  0  0  0
  161.4660  205.8210  150.5090 O   0  0  0  0  0  0  0  0  0  0  0  0
  162.8270  210.5310  156.5970 C   0  0  0  0  0  0  0  0  0  0  0  0
  160.7510  207.8220  154.8740 C   0  0  0  0  0  0  0  0  0  0  0  0
  160.9900  211.1430  153.8840 C   0  0  0  0  0  0  0  0  0  0  0  0
  160.6460  206.5250  148.4770 O   0  0  0  0  0  0  0  0  0  0  0  0
  163.1280  210.7460  155.1460 C   0  0  0  0  0  2  0  0  0  0  0  0
  159.3660  207.7000  154.6630 C   0  0  0  0  0  3  0  0  0  0  0  0
  160.3270  208.0290  157.2610 C   0  0  0  0  0  3  0  0  0  0  0  0
  158.9560  207.8940  157.0370 C   0  0  0  0  0  3  0  0  0  0  0  0
  163.0890  209.2020  157.2380 C   0  0  0  0  0  2  0  0  0  0  0  0
  161.4000  209.6750  152.0880 C   0  0  1  0  0  3  0  0  0  0  0  0
  162.0240  210.2760  154.3170 N   0  0  0  0  0  0  0  0  0  0  0  0
  160.7520  208.4210  151.5100 C   0  0  2  0  0  3  0  0  0  0  0  0
  158.9860  210.3280  152.7250 C   0  0  0  0  0  1  0  0  0  0  0  0
  161.7280  207.8510  153.7120 C   0  0  1  0  0  3  0  0  0  0  0  0
  1  6  1  0  0  0  0
  1 21  1  0  0  0  0
  2  8  1  0  0  0  0
  4 22  1  0  0  0  0
  5 27  1  1  0  0  0
  5 17  1  0  0  0  0
  6 23  1  0  0  0  0
  8  7  1  0  0  0  0
  9 13  1  0  0  0  0
  9 14  1  0  0  0  0
 10  8  1  6  0  0  0
 10 28  1  0  0  0  0
 12 28  1  0  0  0  0
 12 25  1  1  0  0  0
 13 26  1  0  0  0  0
 14  8  1  0  0  0  0
 15 23  1  0  0  0  0
 15 11  2  0  0  0  0
 16  1  2  0  0  0  0
 17 25  1  0  0  0  0
 17  3  2  0  0  0  0
 18  9  2  0  0  0  0
 19 15  1  0  0  0  0
 20 16  1  0  0  0  0
 20  4  2  0  0  0  0
 22 21  2  0  0  0  0
 24  5  1  0  0  0  0
 24 12  1  0  0  0  0
 25 19  1  0  0  0  0
 26 24  1  0  0  0  0
 26 10  1  0  0  0  0
 28 16  1  0  0  0  0
M  END
>  <MODEL>
4

>  <REMARK>
 VINA RESULT:       1.5      3.149      6.062
  Name = 
  0 active torsions:
  status: ('A' for Active; 'I' for Inactive)
                            x       y       z     vdW  Elec       q    Type
                         _______ _______ _______ _____ _____    ______ ____

>  <TORSDO>
F 0

$$$$
=
 OpenBabel11122414103D

 28 32  0  0  1  0  0  0  0  0999 V2000
  161.9510  210.2630  153.7540 C   0  0  0  0  0  0  0  0  0  0  0  0
  158.8070  214.4530  154.1930 C   0  0  0  0  0  1  0  0  0  0  0  0
  159.8080  208.3560  157.2400 O   0  0  0  0  0  0  0  0  0  0  0  0
  160.4810  208.4340  152.2260 C   0  0  0  0  0  3  0  0  0  0  0  0
  158.0520  209.6590  156.2080 C   0  0  1  0  0  3  0  0  0  0  0  0
  162.6730  211.1540  154.5510 O   0  0  0  0  0  0  0  0  0  0  0  0
  159.3180  213.7410  151.8860 C   0  0  0  0  0  1  0  0  0  0  0  0
  158.4190  213.4850  153.0810 C   0  0  0  0  0  0  0  0  0  0  0  0
  156.0040  213.2630  153.4640 C   0  0  0  0  0  0  0  0  0  0  0  0
  158.5620  212.0090  153.5200 C   0  0  2  0  0  3  0  0  0  0  0  0
  163.0420  209.0020  157.1540 O   0  0  0  0  0  0  0  0  0  0  0  0
  159.5890  211.5280  155.6840 C   0  0  1  0  0  3  0  0  0  0  0  0
  156.2870  212.4650  154.6940 C   0  0  0  0  0  2  0  0  0  0  0  0
  157.0690  213.7320  152.6920 O   0  0  0  0  0  0  0  0  0  0  0  0
  162.7100  210.0770  156.6830 C   0  0  0  0  0  0  0  0  0  0  0  0
  160.5800  210.4870  153.5340 C   0  0  0  0  0  0  0  0  0  0  0  0
  159.4470  209.4000  156.6320 C   0  0  0  0  0  0  0  0  0  0  0  0
  154.8200  213.5330  153.1400 O   0  0  0  0  0  0  0  0  0  0  0  0
  161.4820  210.7660  157.1920 C   0  0  0  0  0  2  0  0  0  0  0  0
  159.8530  209.5560  152.7710 C   0  0  0  0  0  3  0  0  0  0  0  0
  162.5740  209.1290  153.2140 C   0  0  0  0  0  3  0  0  0  0  0  0
  161.8420  208.2210  152.4480 C   0  0  0  0  0  3  0  0  0  0  0  0
  163.5280  210.6940  155.5900 C   0  0  0  0  0  2  0  0  0  0  0  0
  158.1100  211.1460  155.7870 C   0  0  1  0  0  3  0  0  0  0  0  0
  160.3340  210.4660  156.3430 N   0  0  0  0  0  0  0  0  0  0  0  0
  157.4490  211.4930  154.4570 C   0  0  2  0  0  3  0  0  0  0  0  0
  157.6760  208.7030  155.0830 C   0  0  0  0  0  1  0  0  0  0  0  0
  159.9010  211.6800  154.1820 C   0  0  1  0  0  3  0  0  0  0  0  0
  1  6  1  0  0  0  0
  4 22  2  0  0  0  0
  4 20  1  0  0  0  0
  5 27  1  6  0  0  0
  5 17  1  0  0  0  0
  6 23  1  0  0  0  0
  7  8  1  0  0  0  0
  8  2  1  0  0  0  0
  9 13  1  0  0  0  0
 10  8  1  1  0  0  0
 10 28  1  0  0  0  0
 10 26  1  0  0  0  0
 12 24  1  0  0  0  0
 12 25  1  6  0  0  0
 14  8  1  0  0  0  0
 14  9  1  0  0  0  0
 15 11  2  0  0  0  0
 15 19  1  0  0  0  0
 16  1  1  0  0  0  0
 16 28  1  0  0  0  0
 17  3  2  0  0  0  0
 18  9  2  0  0  0  0
 20 16  2  0  0  0  0
 21  1  2  0  0  0  0
 22 21  1  0  0  0  0
 23 15  1  0  0  0  0
 24  5  1  0  0  0  0
 25 17  1  0  0  0  0
 25 19  1  0  0  0  0
 26 13  1  0  0  0  0
 26 24  1  0  0  0  0
 28 12  1  0  0  0  0
M  END
>  <MODEL>
5

>  <REMARK>
 VINA RESULT:       1.9      1.797      4.101
  Name = 
  0 active torsions:
  status: ('A' for Active; 'I' for Inactive)
                            x       y       z     vdW  Elec       q    Type
                         _______ _______ _______ _____ _____    ______ ____

>  <TORSDO>
F 0

$$$$
=
 OpenBabel11122414103D

 28 32  0  0  1  0  0  0  0  0999 V2000
  159.8230  207.9230  154.4630 C   0  0  0  0  0  0  0  0  0  0  0  0
  156.7060  212.0950  153.7550 C   0  0  0  0  0  1  0  0  0  0  0  0
  163.3690  210.6960  154.8040 O   0  0  0  0  0  0  0  0  0  0  0  0
  160.0950  207.7070  157.2420 C   0  0  0  0  0  3  0  0  0  0  0  0
  161.5790  212.0360  155.7210 C   0  0  1  0  0  3  0  0  0  0  0  0
  159.7260  208.0490  153.0760 O   0  0  0  0  0  0  0  0  0  0  0  0
  155.7790  210.3020  155.1740 C   0  0  0  0  0  1  0  0  0  0  0  0
  156.6820  211.5200  155.1680 C   0  0  0  0  0  0  0  0  0  0  0  0
  156.9130  213.5590  156.5150 C   0  0  0  0  0  0  0  0  0  0  0  0
  158.0930  211.1130  155.6520 C   0  0  2  0  0  3  0  0  0  0  0  0
  163.0740  208.2970  152.5580 O   0  0  0  0  0  0  0  0  0  0  0  0
  159.9440  211.1980  154.0610 C   0  0  1  0  0  3  0  0  0  0  0  0
  158.3390  213.6660  156.0840 C   0  0  0  0  0  2  0  0  0  0  0  0
  156.1380  212.4910  156.0610 O   0  0  0  0  0  0  0  0  0  0  0  0
  161.9300  208.7010  152.4280 C   0  0  0  0  0  0  0  0  0  0  0  0
  159.4050  208.9840  155.2850 C   0  0  0  0  0  0  0  0  0  0  0  0
  162.1580  211.0440  154.7880 C   0  0  0  0  0  0  0  0  0  0  0  0
  156.4070  214.4370  157.2600 O   0  0  0  0  0  0  0  0  0  0  0  0
  161.6480  210.1700  152.4850 C   0  0  0  0  0  2  0  0  0  0  0  0
  159.5550  208.8650  156.6780 C   0  0  0  0  0  3  0  0  0  0  0  0
  160.3750  206.7670  155.0330 C   0  0  0  0  0  3  0  0  0  0  0  0
  160.5050  206.6580  156.4190 C   0  0  0  0  0  3  0  0  0  0  0  0
  160.8160  207.7220  152.2230 C   0  0  0  0  0  2  0  0  0  0  0  0
  160.1860  212.2970  155.1000 C   0  0  1  0  0  3  0  0  0  0  0  0
  161.2330  210.5620  153.8280 N   0  0  0  0  0  0  0  0  0  0  0  0
  159.0070  212.2860  156.0670 C   0  0  2  0  0  3  0  0  0  0  0  0
  161.5380  211.4490  157.1270 C   0  0  0  0  0  1  0  0  0  0  0  0
  158.8750  210.2590  154.6530 C   0  0  1  0  0  3  0  0  0  0  0  0
  1 21  2  0  0  0  0
  1 16  1  0  0  0  0
  2  8  1  0  0  0  0
  5 27  1  1  0  0  0
  6  1  1  0  0  0  0
  8  7  1  0  0  0  0
  8 14  1  0  0  0  0
  9 18  2  0  0  0  0
 10  8  1  6  0  0  0
 10 26  1  0  0  0  0
 12 25  1  1  0  0  0
 12 28  1  0  0  0  0
 12 24  1  0  0  0  0
 13  9  1  0  0  0  0
 14  9  1  0  0  0  0
 15 19  1  0  0  0  0
 15 11  2  0  0  0  0
 16 20  2  0  0  0  0
 17  3  2  0  0  0  0
 17  5  1  0  0  0  0
 19 25  1  0  0  0  0
 20  4  1  0  0  0  0
 21 22  1  0  0  0  0
 22  4  2  0  0  0  0
 23 15  1  0  0  0  0
 23  6  1  0  0  0  0
 24  5  1  0  0  0  0
 24 26  1  0  0  0  0
 25 17  1  0  0  0  0
 26 13  1  0  0  0  0
 28 16  1  0  0  0  0
 28 10  1  0  0  0  0
M  END
>  <MODEL>
6

>  <REMARK>
 VINA RESULT:       2.0      1.673      2.879
  Name = 
  0 active torsions:
  status: ('A' for Active; 'I' for Inactive)
                            x       y       z     vdW  Elec       q    Type
                         _______ _______ _______ _____ _____    ______ ____

>  <TORSDO>
F 0

$$$$
