=
 OpenBabel11122412453D

 30 35  0  0  1  0  0  0  0  0999 V2000
  161.1480  207.9780  151.2370 C   0  0  0  0  0  0  0  0  0  0  0  0
  161.6500  210.3480  150.8360 C   0  0  0  0  0  0  0  0  0  0  0  0
  162.1120  207.0660  147.2130 N   0  0  0  0  0  0  0  0  0  0  0  0
  161.0070  206.5290  150.7610 C   0  0  2  0  0  3  0  0  0  0  0  0
  160.8220  208.2290  152.6940 C   0  0  0  0  0  2  0  0  0  0  0  0
  161.8350  205.1080  154.0270 O   0  0  0  0  0  0  0  0  0  0  0  0
  160.5690  203.6810  150.2850 C   0  0  1  0  0  3  0  0  0  0  0  0
  161.3780  205.8150  153.1410 C   0  0  0  0  0  0  0  0  0  0  0  0
  161.0530  203.9980  148.9530 N   0  0  0  0  0  0  0  0  0  0  0  0
  161.8770  205.7890  147.2230 C   0  0  0  0  0  0  0  0  0  0  0  0
  160.4450  206.9610  153.4690 C   0  0  1  0  0  3  0  0  0  0  0  0
  161.7580  205.5600  151.7000 C   0  0  1  0  0  3  0  0  0  0  0  0
  162.0420  211.3260  149.9760 N   0  0  0  0  0  0  0  0  0  0  0  0
  161.0090  202.8670  148.0500 C   0  0  0  0  0  2  0  0  0  0  0  0
  160.3140  202.1810  150.2850 C   0  0  0  0  0  2  0  0  0  0  0  0
  161.3560  210.7190  152.1070 F   0  0  0  0  0  0  0  0  0  0  0  0
  161.8380  207.4950  148.5450 C   0  0  0  0  0  0  0  0  0  0  0  0
  162.3560  211.0760  148.6820 C   0  0  0  0  0  3  0  0  0  0  0  0
  161.5490  208.9970  150.3980 C   0  0  0  0  0  0  0  0  0  0  0  0
  161.4390  206.3830  149.3430 C   0  0  0  0  0  0  0  0  0  0  0  0
  162.0420  204.9390  146.0120 C   0  0  0  0  0  1  0  0  0  0  0  0
  161.4350  205.3250  148.5530 C   0  0  0  0  0  0  0  0  0  0  0  0
  160.3470  201.7430  148.8280 C   0  0  0  0  0  2  0  0  0  0  0  0
  162.3300  203.2720  151.8240 O   0  0  0  0  0  0  0  0  0  0  0  0
  162.2860  209.7810  148.1890 C   0  0  0  0  0  3  0  0  0  0  0  0
  161.8910  208.7380  149.0290 C   0  0  0  0  0  0  0  0  0  0  0  0
  161.5790  204.1010  151.3290 C   0  0  0  0  0  0  0  0  0  0  0  0
  160.2970  207.2440  154.9670 C   0  0  0  0  0  2  0  0  0  0  0  0
  161.8270  208.3960  156.5390 C   0  0  0  0  0  1  0  0  0  0  0  0
  160.8930  208.5870  155.3630 C   0  0  0  0  0  2  0  0  0  0  0  0
  1  5  1  0  0  0  0
  2 16  1  0  0  0  0
  3 10  2  0  0  0  0
  3 17  1  0  0  0  0
  4 20  1  6  0  0  0
  4  1  1  0  0  0  0
  4 12  1  0  0  0  0
  5 11  1  0  0  0  0
  7 15  1  6  0  0  0
  7 27  1  0  0  0  0
  8 11  1  0  0  0  0
  8  6  2  0  0  0  0
  9  7  1  0  0  0  0
 10 22  1  0  0  0  0
 11 28  1  1  0  0  0
 12 27  1  6  0  0  0
 12  8  1  0  0  0  0
 13  2  2  0  0  0  0
 14 23  1  0  0  0  0
 14  9  1  0  0  0  0
 17 26  2  0  0  0  0
 17 20  1  0  0  0  0
 18 13  1  0  0  0  0
 19  2  1  0  0  0  0
 19  1  2  0  0  0  0
 21 10  1  0  0  0  0
 22  9  1  0  0  0  0
 22 20  2  0  0  0  0
 23 15  1  0  0  0  0
 25 18  2  0  0  0  0
 25 26  1  0  0  0  0
 26 19  1  0  0  0  0
 27 24  2  0  0  0  0
 28 30  1  0  0  0  0
 30 29  1  0  0  0  0
M  END
>  <MODEL>
1

>  <REMARK>
 VINA RESULT:      -8.9      0.000      0.000
  Name = 
  2 active torsions:
  status: ('A' for Active; 'I' for Inactive)
    1  A    between atoms: C_11  and  C_28
    2  A    between atoms: C_28  and  C_30
                            x       y       z     vdW  Elec       q    Type
                         _______ _______ _______ _____ _____    ______ ____

>  <TORSDO>
F 2

$$$$
=
 OpenBabel11122412453D

 30 35  0  0  1  0  0  0  0  0999 V2000
  160.9590  205.4190  149.7850 C   0  0  0  0  0  0  0  0  0  0  0  0
  161.0330  202.9660  149.6970 C   0  0  0  0  0  0  0  0  0  0  0  0
  161.0370  205.2950  154.0200 N   0  0  0  0  0  0  0  0  0  0  0  0
  160.8990  206.7410  150.5570 C   0  0  2  0  0  3  0  0  0  0  0  0
  160.9640  205.5360  148.2750 C   0  0  0  0  0  2  0  0  0  0  0  0
  162.6700  208.6250  147.9710 O   0  0  0  0  0  0  0  0  0  0  0  0
  160.7380  209.4610  151.6050 C   0  0  1  0  0  3  0  0  0  0  0  0
  161.9240  207.8470  148.5470 C   0  0  0  0  0  0  0  0  0  0  0  0
  160.8410  208.7950  152.8920 N   0  0  0  0  0  0  0  0  0  0  0  0
  160.9810  206.5690  154.2700 C   0  0  0  0  0  0  0  0  0  0  0  0
  160.9540  206.9830  147.7690 C   0  0  1  0  0  3  0  0  0  0  0  0
  161.9750  207.7270  150.0540 C   0  0  1  0  0  3  0  0  0  0  0  0
  161.0740  201.7780  150.3570 N   0  0  0  0  0  0  0  0  0  0  0  0
  160.7300  209.7060  154.0120 C   0  0  0  0  0  2  0  0  0  0  0  0
  160.6900  210.9500  151.9150 C   0  0  0  0  0  2  0  0  0  0  0  0
  161.0080  202.9240  148.3410 F   0  0  0  0  0  0  0  0  0  0  0  0
  161.0370  205.2050  152.5970 C   0  0  0  0  0  0  0  0  0  0  0  0
  161.0980  201.6960  151.7090 C   0  0  0  0  0  3  0  0  0  0  0  0
  161.0090  204.1940  150.4180 C   0  0  0  0  0  0  0  0  0  0  0  0
  160.9930  206.5110  152.0260 C   0  0  0  0  0  0  0  0  0  0  0  0
  160.9590  207.1070  155.6580 C   0  0  0  0  0  1  0  0  0  0  0  0
  160.9370  207.3680  153.0300 C   0  0  0  0  0  0  0  0  0  0  0  0
  160.4290  211.0670  153.4100 C   0  0  0  0  0  2  0  0  0  0  0  0
  162.8570  209.8480  150.6040 O   0  0  0  0  0  0  0  0  0  0  0  0
  161.0820  202.8530  152.4750 C   0  0  0  0  0  3  0  0  0  0  0  0
  161.0410  204.1000  151.8480 C   0  0  0  0  0  0  0  0  0  0  0  0
  161.9060  209.0870  150.7200 C   0  0  0  0  0  0  0  0  0  0  0  0
  161.1360  207.0450  146.2500 C   0  0  0  0  0  2  0  0  0  0  0  0
  161.1090  205.2440  144.5480 C   0  0  0  0  0  1  0  0  0  0  0  0
  161.8830  205.8350  145.7070 C   0  0  0  0  0  2  0  0  0  0  0  0
  1 19  2  0  0  0  0
  2 13  2  0  0  0  0
  2 19  1  0  0  0  0
  3 10  2  0  0  0  0
  4  1  1  6  0  0  0
  4 20  1  0  0  0  0
  5  1  1  0  0  0  0
  6  8  2  0  0  0  0
  7 15  1  1  0  0  0
  7  9  1  0  0  0  0
  9 22  1  0  0  0  0
  9 14  1  0  0  0  0
 10 21  1  0  0  0  0
 11 28  1  6  0  0  0
 11  5  1  0  0  0  0
 11  8  1  0  0  0  0
 12  8  1  6  0  0  0
 12  4  1  0  0  0  0
 12 27  1  0  0  0  0
 13 18  1  0  0  0  0
 15 23  1  0  0  0  0
 16  2  1  0  0  0  0
 17  3  1  0  0  0  0
 18 25  2  0  0  0  0
 19 26  1  0  0  0  0
 20 17  1  0  0  0  0
 20 22  2  0  0  0  0
 22 10  1  0  0  0  0
 23 14  1  0  0  0  0
 24 27  2  0  0  0  0
 26 25  1  0  0  0  0
 26 17  2  0  0  0  0
 27  7  1  0  0  0  0
 29 30  1  0  0  0  0
 30 28  1  0  0  0  0
M  END
>  <MODEL>
2

>  <REMARK>
 VINA RESULT:      -8.6      2.911      7.295
  Name = 
  2 active torsions:
  status: ('A' for Active; 'I' for Inactive)
    1  A    between atoms: C_11  and  C_28
    2  A    between atoms: C_28  and  C_30
                            x       y       z     vdW  Elec       q    Type
                         _______ _______ _______ _____ _____    ______ ____

>  <TORSDO>
F 2

$$$$
=
 OpenBabel11122412453D

 30 35  0  0  1  0  0  0  0  0999 V2000
  161.7940  207.9180  150.9680 C   0  0  0  0  0  0  0  0  0  0  0  0
  161.5070  208.5920  153.3110 C   0  0  0  0  0  0  0  0  0  0  0  0
  160.7100  203.9420  151.9500 N   0  0  0  0  0  0  0  0  0  0  0  0
  161.7970  206.8630  149.8560 C   0  0  0  0  0  0  0  0  0  0  0  0
  162.1560  209.3260  150.5420 C   0  0  0  0  0  2  0  0  0  0  0  0
  160.8750  209.2460  147.2410 O   0  0  0  0  0  0  0  0  0  0  0  0
  161.9680  205.1970  147.4650 C   0  0  1  0  0  3  0  0  0  0  0  0
  161.3860  208.7260  148.2220 C   0  0  0  0  0  0  0  0  0  0  0  0
  161.5020  204.1520  148.3600 N   0  0  0  0  0  0  0  0  0  0  0  0
  160.8280  203.3940  150.7780 C   0  0  0  0  0  0  0  0  0  0  0  0
  162.4240  209.4660  149.0390 C   0  0  1  0  0  3  0  0  0  0  0  0
  160.9700  207.3340  148.6410 C   0  0  1  0  0  3  0  0  0  0  0  0
  161.1970  208.2510  154.5910 N   0  0  0  0  0  0  0  0  0  0  0  0
  161.4330  202.8520  147.7260 C   0  0  0  0  0  2  0  0  0  0  0  0
  162.0850  204.5450  146.0950 C   0  0  0  0  0  2  0  0  0  0  0  0
  161.8460  209.8830  153.0760 F   0  0  0  0  0  0  0  0  0  0  0  0
  161.0360  205.3140  151.7430 C   0  0  2  0  0  3  0  0  0  0  0  0
  160.8480  206.9910  154.9460 C   0  0  0  0  0  3  0  0  0  0  0  0
  161.4790  207.6140  152.2760 C   0  0  0  0  0  0  0  0  0  0  0  0
  161.3390  205.5420  150.3680 C   0  0  0  0  0  0  0  0  0  0  0  0
  160.5740  201.9460  150.5460 C   0  0  0  0  0  1  0  0  0  0  0  0
  161.2390  204.3760  149.7550 C   0  0  0  0  0  0  0  0  0  0  0  0
  161.9970  203.0430  146.3290 C   0  0  0  0  0  2  0  0  0  0  0  0
  160.1920  206.4980  146.5740 O   0  0  0  0  0  0  0  0  0  0  0  0
  160.7950  205.9900  153.9870 C   0  0  0  0  0  3  0  0  0  0  0  0
  161.1020  206.2850  152.6570 C   0  0  0  0  0  0  0  0  0  0  0  0
  161.0110  206.3680  147.4730 C   0  0  0  0  0  0  0  0  0  0  0  0
  162.6120  210.9320  148.6390 C   0  0  0  0  0  2  0  0  0  0  0  0
  161.2070  212.9670  148.4660 C   0  0  0  0  0  1  0  0  0  0  0  0
  161.6710  211.8620  149.3910 C   0  0  0  0  0  2  0  0  0  0  0  0
  1 19  1  0  0  0  0
  2 13  1  0  0  0  0
  4 20  1  0  0  0  0
  4  1  2  0  0  0  0
  5  1  1  0  0  0  0
  6  8  2  0  0  0  0
  7 15  1  6  0  0  0
  7 27  1  0  0  0  0
  7  9  1  0  0  0  0
  8 12  1  0  0  0  0
  8 11  1  0  0  0  0
  9 22  1  0  0  0  0
 10  3  2  0  0  0  0
 11 28  1  6  0  0  0
 11  5  1  0  0  0  0
 12 27  1  6  0  0  0
 12  4  1  0  0  0  0
 13 18  2  0  0  0  0
 14  9  1  0  0  0  0
 15 23  1  0  0  0  0
 16  2  1  0  0  0  0
 17 20  1  1  0  0  0
 17  3  1  0  0  0  0
 17 26  1  0  0  0  0
 19 26  1  0  0  0  0
 19  2  2  0  0  0  0
 21 10  1  0  0  0  0
 22 20  2  0  0  0  0
 22 10  1  0  0  0  0
 23 14  1  0  0  0  0
 24 27  2  0  0  0  0
 25 18  1  0  0  0  0
 26 25  2  0  0  0  0
 28 30  1  0  0  0  0
 29 30  1  0  0  0  0
M  END
>  <MODEL>
3

>  <REMARK>
 VINA RESULT:      -7.5      2.401      4.953
  Name = 
  2 active torsions:
  status: ('A' for Active; 'I' for Inactive)
    1  A    between atoms: C_11  and  C_28
    2  A    between atoms: C_28  and  C_30
                            x       y       z     vdW  Elec       q    Type
                         _______ _______ _______ _____ _____    ______ ____

>  <TORSDO>
F 2

$$$$
=
 OpenBabel11122412453D

 30 35  0  0  1  0  0  0  0  0999 V2000
  160.9420  204.7090  149.0470 C   0  0  0  0  0  0  0  0  0  0  0  0
  161.0090  202.2690  148.7730 C   0  0  0  0  0  0  0  0  0  0  0  0
  161.2250  204.2720  153.2520 N   0  0  0  0  0  0  0  0  0  0  0  0
  160.9210  205.9700  149.9160 C   0  0  2  0  0  3  0  0  0  0  0  0
  160.8730  204.9370  147.5510 C   0  0  0  0  0  2  0  0  0  0  0  0
  162.5660  208.0450  147.3940 O   0  0  0  0  0  0  0  0  0  0  0  0
  160.8150  208.6040  151.1700 C   0  0  1  0  0  3  0  0  0  0  0  0
  161.8480  207.2240  147.9470 C   0  0  0  0  0  0  0  0  0  0  0  0
  160.9790  207.8450  152.3980 N   0  0  0  0  0  0  0  0  0  0  0  0
  161.1830  205.5230  153.5980 C   0  0  0  0  0  0  0  0  0  0  0  0
  160.8410  206.4190  147.1550 C   0  0  1  0  0  3  0  0  0  0  0  0
  161.9730  206.9930  149.4360 C   0  0  1  0  0  3  0  0  0  0  0  0
  161.0800  201.0360  149.3400 N   0  0  0  0  0  0  0  0  0  0  0  0
  160.9230  208.6700  153.5860 C   0  0  0  0  0  2  0  0  0  0  0  0
  160.7840  210.0660  151.5920 C   0  0  0  0  0  2  0  0  0  0  0  0
  160.9170  202.3280  147.4210 F   0  0  0  0  0  0  0  0  0  0  0  0
  161.1570  204.2870  151.8270 C   0  0  0  0  0  0  0  0  0  0  0  0
  161.1700  200.8540  150.6800 C   0  0  0  0  0  3  0  0  0  0  0  0
  161.0200  203.4400  149.5840 C   0  0  0  0  0  0  0  0  0  0  0  0
  161.0860  205.6320  151.3580 C   0  0  0  0  0  0  0  0  0  0  0  0
  161.2300  205.9570  155.0210 C   0  0  0  0  0  1  0  0  0  0  0  0
  161.0800  206.4120  152.4240 C   0  0  0  0  0  0  0  0  0  0  0  0
  160.5950  210.0710  153.1020 C   0  0  0  0  0  2  0  0  0  0  0  0
  162.8820  209.0700  150.0990 O   0  0  0  0  0  0  0  0  0  0  0  0
  161.1920  201.9510  151.5300 C   0  0  0  0  0  3  0  0  0  0  0  0
  161.1230  203.2410  151.0000 C   0  0  0  0  0  0  0  0  0  0  0  0
  161.9380  208.2990  150.2050 C   0  0  0  0  0  0  0  0  0  0  0  0
  160.9480  206.5930  145.6370 C   0  0  0  0  0  2  0  0  0  0  0  0
  161.6020  204.7550  144.1100 C   0  0  0  0  0  1  0  0  0  0  0  0
  160.4530  205.3710  144.8780 C   0  0  0  0  0  2  0  0  0  0  0  0
  1 19  2  0  0  0  0
  2 13  2  0  0  0  0
  2 19  1  0  0  0  0
  3 10  2  0  0  0  0
  4  1  1  6  0  0  0
  4 20  1  0  0  0  0
  5  1  1  0  0  0  0
  6  8  2  0  0  0  0
  7 15  1  1  0  0  0
  7  9  1  0  0  0  0
  9 22  1  0  0  0  0
  9 14  1  0  0  0  0
 10 21  1  0  0  0  0
 11 28  1  6  0  0  0
 11  5  1  0  0  0  0
 11  8  1  0  0  0  0
 12  8  1  6  0  0  0
 12  4  1  0  0  0  0
 12 27  1  0  0  0  0
 13 18  1  0  0  0  0
 15 23  1  0  0  0  0
 16  2  1  0  0  0  0
 17  3  1  0  0  0  0
 18 25  2  0  0  0  0
 19 26  1  0  0  0  0
 20 17  1  0  0  0  0
 20 22  2  0  0  0  0
 22 10  1  0  0  0  0
 23 14  1  0  0  0  0
 24 27  2  0  0  0  0
 26 25  1  0  0  0  0
 26 17  2  0  0  0  0
 27  7  1  0  0  0  0
 29 30  1  0  0  0  0
 30 28  1  0  0  0  0
M  END
>  <MODEL>
4

>  <REMARK>
 VINA RESULT:      -6.9      3.003      7.337
  Name = 
  2 active torsions:
  status: ('A' for Active; 'I' for Inactive)
    1  A    between atoms: C_11  and  C_28
    2  A    between atoms: C_28  and  C_30
                            x       y       z     vdW  Elec       q    Type
                         _______ _______ _______ _____ _____    ______ ____

>  <TORSDO>
F 2

$$$$
=
 OpenBabel11122412453D

 30 35  0  0  1  0  0  0  0  0999 V2000
  160.8510  209.5130  151.6040 C   0  0  0  0  0  0  0  0  0  0  0  0
  161.2060  211.7970  150.7750 C   0  0  0  0  0  0  0  0  0  0  0  0
  162.1010  207.9370  147.8750 N   0  0  0  0  0  0  0  0  0  0  0  0
  160.8390  207.9930  151.4110 C   0  0  2  0  0  3  0  0  0  0  0  0
  160.4270  210.0080  152.9710 C   0  0  0  0  0  2  0  0  0  0  0  0
  161.5810  207.2860  154.9210 O   0  0  0  0  0  0  0  0  0  0  0  0
  160.6300  205.0810  151.4750 C   0  0  1  0  0  3  0  0  0  0  0  0
  161.1260  207.7740  153.8970 C   0  0  0  0  0  0  0  0  0  0  0  0
  161.1650  205.1780  150.1270 N   0  0  0  0  0  0  0  0  0  0  0  0
  161.9560  206.6700  148.1210 C   0  0  0  0  0  0  0  0  0  0  0  0
  160.0970  208.8830  153.9590 C   0  0  1  0  0  3  0  0  0  0  0  0
  161.6030  207.2820  152.5490 C   0  0  1  0  0  3  0  0  0  0  0  0
  161.5760  212.6220  149.7600 N   0  0  0  0  0  0  0  0  0  0  0  0
  161.2510  203.8970  149.4590 C   0  0  0  0  0  2  0  0  0  0  0  0
  160.4820  203.5930  151.7530 C   0  0  0  0  0  2  0  0  0  0  0  0
  160.8160  212.3760  151.9380 F   0  0  0  0  0  0  0  0  0  0  0  0
  161.7230  208.5870  149.0860 C   0  0  0  0  0  0  0  0  0  0  0  0
  161.9790  212.1580  148.5530 C   0  0  0  0  0  3  0  0  0  0  0  0
  161.2260  210.3840  150.6010 C   0  0  0  0  0  0  0  0  0  0  0  0
  161.3600  207.6170  150.0670 C   0  0  0  0  0  0  0  0  0  0  0  0
  162.2480  205.6220  147.1040 C   0  0  0  0  0  1  0  0  0  0  0  0
  161.4740  206.4320  149.4960 C   0  0  0  0  0  0  0  0  0  0  0  0
  160.6280  202.8910  150.4100 C   0  0  0  0  0  2  0  0  0  0  0  0
  162.3270  205.1120  153.1360 O   0  0  0  0  0  0  0  0  0  0  0  0
  162.0280  210.7920  148.3160 C   0  0  0  0  0  3  0  0  0  0  0  0
  161.6610  209.8990  149.3240 C   0  0  0  0  0  0  0  0  0  0  0  0
  161.5490  205.7700  152.4590 C   0  0  0  0  0  0  0  0  0  0  0  0
  159.8460  209.4310  155.3670 C   0  0  0  0  0  2  0  0  0  0  0  0
  161.8160  210.6070  156.3030 C   0  0  0  0  0  1  0  0  0  0  0  0
  160.4970  210.7890  155.5830 C   0  0  0  0  0  2  0  0  0  0  0  0
  1  5  1  0  0  0  0
  2 16  1  0  0  0  0
  3 10  2  0  0  0  0
  3 17  1  0  0  0  0
  4 20  1  6  0  0  0
  4  1  1  0  0  0  0
  4 12  1  0  0  0  0
  5 11  1  0  0  0  0
  7 15  1  1  0  0  0
  7 27  1  0  0  0  0
  8 11  1  0  0  0  0
  8  6  2  0  0  0  0
  9  7  1  0  0  0  0
 10 22  1  0  0  0  0
 11 28  1  1  0  0  0
 12 27  1  1  0  0  0
 12  8  1  0  0  0  0
 13  2  2  0  0  0  0
 14  9  1  0  0  0  0
 14 23  1  0  0  0  0
 17 26  2  0  0  0  0
 17 20  1  0  0  0  0
 18 13  1  0  0  0  0
 19  2  1  0  0  0  0
 19  1  2  0  0  0  0
 21 10  1  0  0  0  0
 22 20  2  0  0  0  0
 22  9  1  0  0  0  0
 23 15  1  0  0  0  0
 25 18  2  0  0  0  0
 25 26  1  0  0  0  0
 26 19  1  0  0  0  0
 27 24  2  0  0  0  0
 28 30  1  0  0  0  0
 30 29  1  0  0  0  0
M  END
>  <MODEL>
5

>  <REMARK>
 VINA RESULT:      -6.2      1.318      1.747
  Name = 
  2 active torsions:
  status: ('A' for Active; 'I' for Inactive)
    1  A    between atoms: C_11  and  C_28
    2  A    between atoms: C_28  and  C_30
                            x       y       z     vdW  Elec       q    Type
                         _______ _______ _______ _____ _____    ______ ____

>  <TORSDO>
F 2

$$$$
=
 OpenBabel11122412453D

 30 35  0  0  1  0  0  0  0  0999 V2000
  160.5750  208.9970  153.2450 C   0  0  0  0  0  0  0  0  0  0  0  0
  161.2450  207.4090  154.9950 C   0  0  0  0  0  0  0  0  0  0  0  0
  158.6300  211.4060  156.1380 N   0  0  0  0  0  0  0  0  0  0  0  0
  159.8490  210.2610  152.7750 C   0  0  0  0  0  0  0  0  0  0  0  0
  161.2800  208.2010  152.1660 C   0  0  0  0  0  2  0  0  0  0  0  0
  162.1580  210.8660  150.0050 O   0  0  0  0  0  0  0  0  0  0  0  0
  158.5820  212.5310  151.4470 C   0  0  1  0  0  3  0  0  0  0  0  0
  161.4280  210.3240  150.8230 C   0  0  0  0  0  0  0  0  0  0  0  0
  158.2020  212.9000  152.8000 N   0  0  0  0  0  0  0  0  0  0  0  0
  158.1700  212.3390  155.3610 C   0  0  2  0  0  3  0  0  0  0  0  0
  161.1820  208.8320  150.7720 C   0  0  1  0  0  3  0  0  0  0  0  0
  160.7740  211.1450  151.9110 C   0  0  1  0  0  3  0  0  0  0  0  0
  161.2350  207.0500  156.3060 N   0  0  0  0  0  0  0  0  0  0  0  0
  157.3590  214.0760  152.8510 C   0  0  0  0  0  2  0  0  0  0  0  0
  158.0490  213.6420  150.5530 C   0  0  0  0  0  2  0  0  0  0  0  0
  161.8860  206.5860  154.1290 F   0  0  0  0  0  0  0  0  0  0  0  0
  159.3370  210.5250  155.2670 C   0  0  0  0  0  0  0  0  0  0  0  0
  160.6230  207.7910  157.2610 C   0  0  0  0  0  3  0  0  0  0  0  0
  160.5940  208.6020  154.5670 C   0  0  0  0  0  0  0  0  0  0  0  0
  159.2740  211.0100  153.9270 C   0  0  0  0  0  0  0  0  0  0  0  0
  157.3590  213.4760  155.8770 C   0  0  0  0  0  1  0  0  0  0  0  0
  158.5460  212.1130  153.9520 C   0  0  0  0  0  0  0  0  0  0  0  0
  157.0820  214.4490  151.4060 C   0  0  0  0  0  2  0  0  0  0  0  0
  160.7660  213.2680  150.8770 O   0  0  0  0  0  0  0  0  0  0  0  0
  159.9740  208.9680  156.9150 C   0  0  0  0  0  3  0  0  0  0  0  0
  159.9550  209.3850  155.5830 C   0  0  0  0  0  0  0  0  0  0  0  0
  160.0820  212.3680  151.3430 C   0  0  0  0  0  0  0  0  0  0  0  0
  162.0530  208.0840  149.7580 C   0  0  0  0  0  2  0  0  0  0  0  0
  160.8510  205.9900  149.1990 C   0  0  0  0  0  1  0  0  0  0  0  0
  161.2250  207.3700  148.7000 C   0  0  0  0  0  2  0  0  0  0  0  0
  1 19  1  0  0  0  0
  2 13  1  0  0  0  0
  4  1  2  0  0  0  0
  4 20  1  0  0  0  0
  5  1  1  0  0  0  0
  6  8  2  0  0  0  0
  7 15  1  6  0  0  0
  7  9  1  0  0  0  0
  9 14  1  0  0  0  0
  9 22  1  0  0  0  0
 10 21  1  6  0  0  0
 10  3  1  0  0  0  0
 11 28  1  6  0  0  0
 11  8  1  0  0  0  0
 11  5  1  0  0  0  0
 12  8  1  6  0  0  0
 12  4  1  0  0  0  0
 13 18  2  0  0  0  0
 15 23  1  0  0  0  0
 16  2  1  0  0  0  0
 17 26  1  0  0  0  0
 17  3  2  0  0  0  0
 19  2  2  0  0  0  0
 19 26  1  0  0  0  0
 20 22  2  0  0  0  0
 20 17  1  0  0  0  0
 22 10  1  0  0  0  0
 23 14  1  0  0  0  0
 24 27  2  0  0  0  0
 25 18  1  0  0  0  0
 26 25  2  0  0  0  0
 27  7  1  0  0  0  0
 27 12  1  0  0  0  0
 30 29  1  0  0  0  0
 30 28  1  0  0  0  0
M  END
>  <MODEL>
6

>  <REMARK>
 VINA RESULT:      -6.1      4.152      8.321
  Name = 
  2 active torsions:
  status: ('A' for Active; 'I' for Inactive)
    1  A    between atoms: C_11  and  C_28
    2  A    between atoms: C_28  and  C_30
                            x       y       z     vdW  Elec       q    Type
                         _______ _______ _______ _____ _____    ______ ____

>  <TORSDO>
F 2

$$$$
=
 OpenBabel11122412453D

 30 35  0  0  1  0  0  0  0  0999 V2000
  160.1130  212.1790  151.7850 C   0  0  0  0  0  0  0  0  0  0  0  0
  160.6360  213.3270  149.6790 C   0  0  0  0  0  0  0  0  0  0  0  0
  162.3230  208.7930  150.5190 N   0  0  0  0  0  0  0  0  0  0  0  0
  160.1770  210.9590  152.7100 C   0  0  2  0  0  3  0  0  0  0  0  0
  159.3380  213.3680  152.3130 C   0  0  0  0  0  2  0  0  0  0  0  0
  159.9840  212.9510  155.7710 O   0  0  0  0  0  0  0  0  0  0  0  0
  160.0060  208.8770  154.7500 C   0  0  1  0  0  3  0  0  0  0  0  0
  159.8050  212.5250  154.6390 C   0  0  0  0  0  0  0  0  0  0  0  0
  160.8740  208.1460  153.8420 N   0  0  0  0  0  0  0  0  0  0  0  0
  162.1400  208.0230  151.5490 C   0  0  0  0  0  0  0  0  0  0  0  0
  158.7780  213.1600  153.7260 C   0  0  1  0  0  3  0  0  0  0  0  0
  160.6270  211.3620  154.1310 C   0  0  1  0  0  3  0  0  0  0  0  0
  161.2460  213.3090  148.4630 N   0  0  0  0  0  0  0  0  0  0  0  0
  161.1530  206.7980  154.2880 C   0  0  0  0  0  2  0  0  0  0  0  0
  159.8150  207.9690  155.9560 C   0  0  0  0  0  2  0  0  0  0  0  0
  159.9450  214.4450  150.0120 F   0  0  0  0  0  0  0  0  0  0  0  0
  161.6300  209.9970  150.8390 C   0  0  0  0  0  0  0  0  0  0  0  0
  161.9590  212.2450  148.0210 C   0  0  0  0  0  3  0  0  0  0  0  0
  160.7240  212.2030  150.5480 C   0  0  0  0  0  0  0  0  0  0  0  0
  161.0380  209.8900  152.1320 C   0  0  0  0  0  0  0  0  0  0  0  0
  162.7050  206.6480  151.6260 C   0  0  0  0  0  1  0  0  0  0  0  0
  161.3180  208.6800  152.5830 C   0  0  0  0  0  0  0  0  0  0  0  0
  160.3190  206.5950  155.5400 C   0  0  0  0  0  2  0  0  0  0  0  0
  161.2070  210.3430  156.1810 O   0  0  0  0  0  0  0  0  0  0  0  0
  162.0910  211.1180  148.8190 C   0  0  0  0  0  3  0  0  0  0  0  0
  161.4870  211.0840  150.0770 C   0  0  0  0  0  0  0  0  0  0  0  0
  160.6230  210.2090  155.1150 C   0  0  0  0  0  0  0  0  0  0  0  0
  158.1580  214.4480  154.2760 C   0  0  0  0  0  2  0  0  0  0  0  0
  156.2410  212.8770  154.2610 C   0  0  0  0  0  1  0  0  0  0  0  0
  156.6800  214.2840  154.6040 C   0  0  0  0  0  2  0  0  0  0  0  0
  1  5  1  0  0  0  0
  2 16  1  0  0  0  0
  2 19  1  0  0  0  0
  3 17  1  0  0  0  0
  3 10  2  0  0  0  0
  4  1  1  6  0  0  0
  4 12  1  0  0  0  0
  5 11  1  0  0  0  0
  7 27  1  0  0  0  0
  7 15  1  1  0  0  0
  8  6  2  0  0  0  0
  9 14  1  0  0  0  0
  9  7  1  0  0  0  0
 10 21  1  0  0  0  0
 10 22  1  0  0  0  0
 11 28  1  1  0  0  0
 11  8  1  0  0  0  0
 12  8  1  1  0  0  0
 12 27  1  0  0  0  0
 13  2  2  0  0  0  0
 14 23  1  0  0  0  0
 17 20  1  0  0  0  0
 18 13  1  0  0  0  0
 18 25  2  0  0  0  0
 19  1  2  0  0  0  0
 20 22  2  0  0  0  0
 20  4  1  0  0  0  0
 22  9  1  0  0  0  0
 23 15  1  0  0  0  0
 25 26  1  0  0  0  0
 26 19  1  0  0  0  0
 26 17  2  0  0  0  0
 27 24  2  0  0  0  0
 28 30  1  0  0  0  0
 29 30  1  0  0  0  0
M  END
>  <MODEL>
7

>  <REMARK>
 VINA RESULT:      -6.1      3.671      5.854
  Name = 
  2 active torsions:
  status: ('A' for Active; 'I' for Inactive)
    1  A    between atoms: C_11  and  C_28
    2  A    between atoms: C_28  and  C_30
                            x       y       z     vdW  Elec       q    Type
                         _______ _______ _______ _____ _____    ______ ____

>  <TORSDO>
F 2

$$$$
