=
 OpenBabel11122414033D

 28 32  0  0  1  0  0  0  0  0999 V2000
  160.9960  208.4780  155.3360 C   0  0  0  0  0  0  0  0  0  0  0  0
  157.5170  211.6130  156.0410 O   0  0  0  0  0  0  0  0  0  0  0  0
  163.4170  210.9620  150.4590 O   0  0  0  0  0  0  0  0  0  0  0  0
  162.2630  210.3930  156.9380 C   0  0  0  0  0  3  0  0  0  0  0  0
  161.0200  211.9920  150.6800 C   0  0  2  0  0  3  0  0  0  0  0  0
  160.5010  207.4270  154.3910 C   0  0  0  0  0  2  0  0  0  0  0  0
  159.6750  212.8000  156.1050 O   0  0  0  0  0  0  0  0  0  0  0  0
  158.5390  212.3580  155.2300 S   0  0  0  0  0  0  0  0  0  0  0  0
  157.3280  213.3740  153.1660 C   0  0  1  0  0  3  0  0  0  0  0  0
  159.0500  211.4010  153.8310 C   0  0  1  0  0  3  0  0  0  0  0  0
  162.1490  206.6320  151.1270 O   0  0  0  0  0  1  0  0  0  0  0  0
  160.9850  210.6350  152.6520 C   0  0  2  0  0  3  0  0  0  0  0  0
  158.3620  213.1240  152.2100 O   0  0  0  0  0  0  0  0  0  0  0  0
  157.8270  213.7620  154.4950 N   0  0  0  0  0  2  0  0  0  0  0  0
  161.1240  207.0820  151.9580 C   0  0  2  0  0  3  0  0  0  0  0  0
  160.8420  209.8490  155.0430 C   0  0  0  0  0  0  0  0  0  0  0  0
  161.9770  210.5110  150.2560 S   0  0  2  0  0  0  0  0  0  0  0  0
  156.4070  214.4530  152.6380 C   0  0  0  0  0  1  0  0  0  0  0  0
  160.6300  208.4460  151.4700 C   0  0  0  0  0  2  0  0  0  0  0  0
  161.5190  210.7930  155.8260 C   0  0  0  0  0  3  0  0  0  0  0  0
  161.7460  208.0830  156.4500 C   0  0  0  0  0  3  0  0  0  0  0  0
  162.3650  209.0380  157.2590 C   0  0  0  0  0  3  0  0  0  0  0  0
  161.6120  207.0900  153.4050 C   0  0  0  0  0  2  0  0  0  0  0  0
  160.1140  211.4780  151.7680 C   0  0  1  0  0  3  0  0  0  0  0  0
  161.6180  209.5760  151.7670 C   0  0  2  0  0  3  0  0  0  0  0  0
  159.4570  212.4020  152.7580 C   0  0  2  0  0  3  0  0  0  0  0  0
  160.1960  212.4270  149.4850 C   0  0  0  0  0  1  0  0  0  0  0  0
  160.0830  210.2550  153.8090 C   0  0  1  0  0  3  0  0  0  0  0  0
  1 21  1  0  0  0  0
  4 22  1  0  0  0  0
  5 27  1  6  0  0  0
  5 24  1  0  0  0  0
  6  1  1  0  0  0  0
  8  2  2  0  0  0  0
  8  7  2  0  0  0  0
  9 18  1  6  0  0  0
  9 14  1  0  0  0  0
 10  8  1  1  0  0  0
 11 15  1  0  0  0  0
 12 28  1  0  0  0  0
 13 26  1  0  0  0  0
 13  9  1  0  0  0  0
 14  8  1  0  0  0  0
 15 23  1  0  0  0  0
 16  1  2  0  0  0  0
 16 20  1  0  0  0  0
 17  3  2  0  0  0  0
 17  5  1  0  0  0  0
 17 25  1  0  0  0  0
 19 25  1  0  0  0  0
 19 15  1  0  0  0  0
 20  4  2  0  0  0  0
 21 22  2  0  0  0  0
 23  6  1  0  0  0  0
 24 12  1  0  0  0  0
 24 26  1  0  0  0  0
 25 12  1  0  0  0  0
 26 10  1  0  0  0  0
 28 10  1  0  0  0  0
 28 16  1  0  0  0  0
M  END
>  <MODEL>
1

>  <REMARK>
 VINA RESULT:      -3.5      0.000      0.000
  Name = 
  0 active torsions:
  status: ('A' for Active; 'I' for Inactive)
                            x       y       z     vdW  Elec       q    Type
                         _______ _______ _______ _____ _____    ______ ____

>  <TORSDO>
F 0

$$$$
=
 OpenBabel11122414033D

 28 32  0  0  1  0  0  0  0  0999 V2000
  160.0820  211.7680  150.8790 C   0  0  0  0  0  0  0  0  0  0  0  0
  160.2590  207.2220  149.5610 O   0  0  0  0  0  0  0  0  0  0  0  0
  162.5950  211.1960  156.2800 O   0  0  0  0  0  0  0  0  0  0  0  0
  162.6120  211.6110  149.6870 C   0  0  0  0  0  3  0  0  0  0  0  0
  161.8350  208.7900  155.5780 C   0  0  2  0  0  3  0  0  0  0  0  0
  158.8130  211.9900  151.6400 C   0  0  0  0  0  2  0  0  0  0  0  0
  162.5500  207.9980  150.0330 O   0  0  0  0  0  0  0  0  0  0  0  0
  161.3250  207.3530  150.6110 S   0  0  0  0  0  0  0  0  0  0  0  0
  160.9080  205.5120  152.3990 C   0  0  1  0  0  3  0  0  0  0  0  0
  160.6960  208.1820  152.0440 C   0  0  1  0  0  3  0  0  0  0  0  0
  158.7010  213.2850  155.1490 O   0  0  0  0  0  1  0  0  0  0  0  0
  161.1740  209.9440  153.5880 C   0  0  2  0  0  3  0  0  0  0  0  0
  161.2210  206.3030  153.5480 O   0  0  0  0  0  0  0  0  0  0  0  0
  161.7620  205.7910  151.2330 N   0  0  0  0  0  2  0  0  0  0  0  0
  158.5190  212.3480  154.1320 C   0  0  2  0  0  3  0  0  0  0  0  0
  160.9390  210.6920  151.1920 C   0  0  0  0  0  0  0  0  0  0  0  0
  161.2890  210.4270  156.1370 S   0  0  2  0  0  0  0  0  0  0  0  0
  161.0080  204.0440  152.7570 C   0  0  0  0  0  1  0  0  0  0  0  0
  159.1130  211.0040  154.5600 C   0  0  0  0  0  2  0  0  0  0  0  0
  162.2190  210.6530  150.6230 C   0  0  0  0  0  3  0  0  0  0  0  0
  160.4830  212.7290  149.9420 C   0  0  0  0  0  3  0  0  0  0  0  0
  161.7380  212.6420  149.3360 C   0  0  0  0  0  3  0  0  0  0  0  0
  159.1070  212.8910  152.8320 C   0  0  0  0  0  2  0  0  0  0  0  0
  161.0670  208.6250  154.2930 C   0  0  1  0  0  3  0  0  0  0  0  0
  160.6430  210.9990  154.5420 C   0  0  2  0  0  3  0  0  0  0  0  0
  161.5020  207.6580  153.2260 C   0  0  2  0  0  3  0  0  0  0  0  0
  161.4020  207.7390  156.5790 C   0  0  0  0  0  1  0  0  0  0  0  0
  160.5190  209.7010  152.2430 C   0  0  1  0  0  3  0  0  0  0  0  0
  1 16  1  0  0  0  0
  1  6  1  0  0  0  0
  2  8  2  0  0  0  0
  4 20  1  0  0  0  0
  5 17  1  0  0  0  0
  5 27  1  1  0  0  0
  6 23  1  0  0  0  0
  7  8  2  0  0  0  0
  8 14  1  0  0  0  0
  9 18  1  1  0  0  0
  9 13  1  0  0  0  0
 10  8  1  6  0  0  0
 10 28  1  0  0  0  0
 10 26  1  0  0  0  0
 12 24  1  0  0  0  0
 12 25  1  0  0  0  0
 14  9  1  0  0  0  0
 15 19  1  0  0  0  0
 15 11  1  0  0  0  0
 16 28  1  0  0  0  0
 17  3  2  0  0  0  0
 20 16  2  0  0  0  0
 21  1  2  0  0  0  0
 22  4  2  0  0  0  0
 22 21  1  0  0  0  0
 23 15  1  0  0  0  0
 24  5  1  0  0  0  0
 25 19  1  0  0  0  0
 25 17  1  0  0  0  0
 26 13  1  0  0  0  0
 26 24  1  0  0  0  0
 28 12  1  0  0  0  0
M  END
>  <MODEL>
2

>  <REMARK>
 VINA RESULT:      -3.5      2.524      6.724
  Name = 
  0 active torsions:
  status: ('A' for Active; 'I' for Inactive)
                            x       y       z     vdW  Elec       q    Type
                         _______ _______ _______ _____ _____    ______ ____

>  <TORSDO>
F 0

$$$$
=
 OpenBabel11122414033D

 28 32  0  0  1  0  0  0  0  0999 V2000
  161.6350  206.0200  152.5420 C   0  0  0  0  0  0  0  0  0  0  0  0
  163.6240  208.0970  148.7790 O   0  0  0  0  0  0  0  0  0  0  0  0
  157.7290  210.3340  153.9410 O   0  0  0  0  0  0  0  0  0  0  0  0
  159.9570  205.1770  150.4640 C   0  0  0  0  0  3  0  0  0  0  0  0
  159.5150  211.4520  152.3860 C   0  0  2  0  0  3  0  0  0  0  0  0
  162.3650  206.4680  153.7690 C   0  0  0  0  0  2  0  0  0  0  0  0
  161.2060  207.8640  148.3660 O   0  0  0  0  0  0  0  0  0  0  0  0
  162.2820  208.7580  148.9100 S   0  0  0  0  0  0  0  0  0  0  0  0
  162.6640  211.3290  148.9520 C   0  0  1  0  0  3  0  0  0  0  0  0
  161.9980  209.2770  150.5790 C   0  0  1  0  0  3  0  0  0  0  0  0
  160.7130  208.1960  156.6490 O   0  0  0  0  0  1  0  0  0  0  0  0
  160.3830  209.2210  152.3420 C   0  0  2  0  0  3  0  0  0  0  0  0
  161.6880  211.6400  149.9510 O   0  0  0  0  0  0  0  0  0  0  0  0
  162.2530  210.2570  148.0320 N   0  0  0  0  0  2  0  0  0  0  0  0
  161.5810  208.0780  155.5630 C   0  0  2  0  0  3  0  0  0  0  0  0
  161.1800  206.9520  151.5850 C   0  0  0  0  0  0  0  0  0  0  0  0
  159.1820  210.7790  154.0370 S   0  0  2  0  0  0  0  0  0  0  0  0
  162.9840  212.5780  148.1590 C   0  0  0  0  0  1  0  0  0  0  0  0
  161.4080  209.2830  154.6340 C   0  0  0  0  0  2  0  0  0  0  0  0
  160.3050  206.5250  150.5800 C   0  0  0  0  0  3  0  0  0  0  0  0
  161.2800  204.6710  152.4230 C   0  0  0  0  0  3  0  0  0  0  0  0
  160.4560  204.2470  151.3780 C   0  0  0  0  0  3  0  0  0  0  0  0
  161.3500  206.7350  154.8740 C   0  0  0  0  0  2  0  0  0  0  0  0
  160.7010  210.6330  151.9470 C   0  0  1  0  0  3  0  0  0  0  0  0
  160.1050  209.2320  153.8340 C   0  0  2  0  0  3  0  0  0  0  0  0
  161.0690  210.4820  150.4960 C   0  0  2  0  0  3  0  0  0  0  0  0
  159.9080  212.9110  152.4990 C   0  0  0  0  0  1  0  0  0  0  0  0
  161.5210  208.4080  151.7610 C   0  0  1  0  0  3  0  0  0  0  0  0
  1  6  1  0  0  0  0
  2  8  2  0  0  0  0
  3 17  2  0  0  0  0
  4 20  2  0  0  0  0
  4 22  1  0  0  0  0
  5 27  1  1  0  0  0
  5 17  1  0  0  0  0
  6 23  1  0  0  0  0
  7  8  2  0  0  0  0
  9 18  1  6  0  0  0
  9 13  1  0  0  0  0
 10  8  1  6  0  0  0
 10 28  1  0  0  0  0
 12 25  1  0  0  0  0
 13 26  1  0  0  0  0
 14  8  1  0  0  0  0
 14  9  1  0  0  0  0
 15 11  1  0  0  0  0
 16 28  1  0  0  0  0
 16  1  2  0  0  0  0
 19 15  1  0  0  0  0
 20 16  1  0  0  0  0
 21  1  1  0  0  0  0
 22 21  2  0  0  0  0
 23 15  1  0  0  0  0
 24 12  1  0  0  0  0
 24  5  1  0  0  0  0
 25 17  1  0  0  0  0
 25 19  1  0  0  0  0
 26 10  1  0  0  0  0
 26 24  1  0  0  0  0
 28 12  1  0  0  0  0
M  END
>  <MODEL>
3

>  <REMARK>
 VINA RESULT:      -2.4      2.608      5.718
  Name = 
  0 active torsions:
  status: ('A' for Active; 'I' for Inactive)
                            x       y       z     vdW  Elec       q    Type
                         _______ _______ _______ _____ _____    ______ ____

>  <TORSDO>
F 0

$$$$
=
 OpenBabel11122414033D

 28 32  0  0  1  0  0  0  0  0999 V2000
  159.8270  213.1550  151.1140 C   0  0  0  0  0  0  0  0  0  0  0  0
  160.4530  212.5720  155.7730 O   0  0  0  0  0  0  0  0  0  0  0  0
  160.4540  207.4430  149.4410 O   0  0  0  0  0  0  0  0  0  0  0  0
  157.2200  212.6120  151.9830 C   0  0  0  0  0  3  0  0  0  0  0  0
  161.4900  207.6110  151.8400 C   0  0  2  0  0  3  0  0  0  0  0  0
  161.1680  213.3490  150.4780 C   0  0  0  0  0  2  0  0  0  0  0  0
  158.5390  211.1960  155.0540 O   0  0  0  0  0  0  0  0  0  0  0  0
  160.0230  211.2210  155.2770 S   0  0  0  0  0  0  0  0  0  0  0  0
  161.7700  209.4800  156.1000 C   0  0  1  0  0  3  0  0  0  0  0  0
  160.9630  210.7460  153.8530 C   0  0  1  0  0  3  0  0  0  0  0  0
  162.5110  211.1530  147.7620 O   0  0  0  0  0  1  0  0  0  0  0  0
  160.7520  209.8790  151.6340 C   0  0  2  0  0  3  0  0  0  0  0  0
  161.8080  208.6870  154.9100 O   0  0  0  0  0  0  0  0  0  0  0  0
  160.4300  209.9900  156.4330 N   0  0  0  0  0  2  0  0  0  0  0  0
  162.4710  211.7240  149.0340 C   0  0  2  0  0  3  0  0  0  0  0  0
  159.5930  212.0870  152.0060 C   0  0  0  0  0  0  0  0  0  0  0  0
  161.7050  208.0240  150.0870 S   0  0  2  0  0  0  0  0  0  0  0  0
  162.3040  208.6690  157.2610 C   0  0  0  0  0  1  0  0  0  0  0  0
  162.5910  210.6260  150.0940 C   0  0  0  0  0  2  0  0  0  0  0  0
  158.2790  211.7990  152.3940 C   0  0  0  0  0  3  0  0  0  0  0  0
  158.7610  213.9640  150.7010 C   0  0  0  0  0  3  0  0  0  0  0  0
  157.4630  213.7030  151.1470 C   0  0  0  0  0  3  0  0  0  0  0  0
  161.2070  212.5700  149.1700 C   0  0  0  0  0  2  0  0  0  0  0  0
  161.5750  208.9660  152.4940 C   0  0  1  0  0  3  0  0  0  0  0  0
  161.3170  209.7900  150.2280 C   0  0  2  0  0  3  0  0  0  0  0  0
  161.0100  209.2230  153.8640 C   0  0  2  0  0  3  0  0  0  0  0  0
  162.6410  206.7410  152.3030 C   0  0  0  0  0  1  0  0  0  0  0  0
  160.7380  211.1910  152.3930 C   0  0  1  0  0  3  0  0  0  0  0  0
  1 16  1  0  0  0  0
  3 17  2  0  0  0  0
  4 20  1  0  0  0  0
  5 27  1  1  0  0  0
  5 24  1  0  0  0  0
  6  1  1  0  0  0  0
  7  8  2  0  0  0  0
  8  2  2  0  0  0  0
  8 14  1  0  0  0  0
  9 14  1  0  0  0  0
  9 18  1  1  0  0  0
 10 26  1  0  0  0  0
 10  8  1  1  0  0  0
 11 15  1  0  0  0  0
 12 28  1  0  0  0  0
 12 24  1  0  0  0  0
 13  9  1  0  0  0  0
 15 23  1  0  0  0  0
 15 19  1  0  0  0  0
 16 28  1  0  0  0  0
 16 20  2  0  0  0  0
 17 25  1  0  0  0  0
 17  5  1  0  0  0  0
 19 25  1  0  0  0  0
 21  1  2  0  0  0  0
 21 22  1  0  0  0  0
 22  4  2  0  0  0  0
 23  6  1  0  0  0  0
 24 26  1  0  0  0  0
 25 12  1  0  0  0  0
 26 13  1  0  0  0  0
 28 10  1  0  0  0  0
M  END
>  <MODEL>
4

>  <REMARK>
 VINA RESULT:      -2.0      2.008      5.387
  Name = 
  0 active torsions:
  status: ('A' for Active; 'I' for Inactive)
                            x       y       z     vdW  Elec       q    Type
                         _______ _______ _______ _____ _____    ______ ____

>  <TORSDO>
F 0

$$$$
=
 OpenBabel11122414033D

 28 32  0  0  1  0  0  0  0  0999 V2000
  158.5790  213.0400  150.8320 C   0  0  0  0  0  0  0  0  0  0  0  0
  160.4590  208.7210  150.3390 O   0  0  0  0  0  0  0  0  0  0  0  0
  160.0800  213.9840  156.5480 O   0  0  0  0  0  0  0  0  0  0  0  0
  161.1990  213.6390  150.0470 C   0  0  0  0  0  3  0  0  0  0  0  0
  160.2840  211.4020  156.1640 C   0  0  2  0  0  3  0  0  0  0  0  0
  157.1860  212.8920  151.3610 C   0  0  0  0  0  2  0  0  0  0  0  0
  162.2440  210.2920  150.9860 O   0  0  0  0  0  0  0  0  0  0  0  0
  161.2070  209.3300  151.4900 S   0  0  0  0  0  0  0  0  0  0  0  0
  161.0800  207.6710  153.4870 C   0  0  1  0  0  3  0  0  0  0  0  0
  160.0870  210.0440  152.6600 C   0  0  1  0  0  3  0  0  0  0  0  0
  156.0050  214.4520  154.5520 O   0  0  0  0  0  1  0  0  0  0  0  0
  159.6710  212.0240  153.9350 C   0  0  2  0  0  3  0  0  0  0  0  0
  160.8990  208.6450  154.5190 O   0  0  0  0  0  0  0  0  0  0  0  0
  162.0010  208.0970  152.4210 N   0  0  0  0  0  2  0  0  0  0  0  0
  156.3300  213.4020  153.6920 C   0  0  2  0  0  3  0  0  0  0  0  0
  159.6620  212.3710  151.4380 C   0  0  0  0  0  0  0  0  0  0  0  0
  159.1430  212.7990  156.3570 S   0  0  2  0  0  0  0  0  0  0  0  0
  161.5800  206.3800  154.0990 C   0  0  0  0  0  1  0  0  0  0  0  0
  157.2350  212.4040  154.4190 C   0  0  0  0  0  2  0  0  0  0  0  0
  160.9680  212.7150  151.0680 C   0  0  0  0  0  3  0  0  0  0  0  0
  158.8160  213.9700  149.8120 C   0  0  0  0  0  3  0  0  0  0  0  0
  160.1220  214.2570  149.4090 C   0  0  0  0  0  3  0  0  0  0  0  0
  156.9440  213.9670  152.4130 C   0  0  0  0  0  2  0  0  0  0  0  0
  159.8660  210.8370  154.8320 C   0  0  1  0  0  3  0  0  0  0  0  0
  158.6580  212.9290  154.6140 C   0  0  2  0  0  3  0  0  0  0  0  0
  160.7820  209.9680  154.0140 C   0  0  2  0  0  3  0  0  0  0  0  0
  160.0330  210.3840  157.2580 C   0  0  0  0  0  1  0  0  0  0  0  0
  159.3940  211.4200  152.5740 C   0  0  1  0  0  3  0  0  0  0  0  0
  1  6  1  0  0  0  0
  1 16  1  0  0  0  0
  2  8  2  0  0  0  0
  4 20  1  0  0  0  0
  5 17  1  0  0  0  0
  5 27  1  1  0  0  0
  6 23  1  0  0  0  0
  7  8  2  0  0  0  0
  8 14  1  0  0  0  0
  9 18  1  1  0  0  0
  9 13  1  0  0  0  0
 10  8  1  6  0  0  0
 10 26  1  0  0  0  0
 12 25  1  0  0  0  0
 12 24  1  0  0  0  0
 14  9  1  0  0  0  0
 15 19  1  0  0  0  0
 15 11  1  0  0  0  0
 16 28  1  0  0  0  0
 17  3  2  0  0  0  0
 19 25  1  0  0  0  0
 20 16  2  0  0  0  0
 21  1  2  0  0  0  0
 22 21  1  0  0  0  0
 22  4  2  0  0  0  0
 23 15  1  0  0  0  0
 24  5  1  0  0  0  0
 25 17  1  0  0  0  0
 26 13  1  0  0  0  0
 26 24  1  0  0  0  0
 28 10  1  0  0  0  0
 28 12  1  0  0  0  0
M  END
>  <MODEL>
5

>  <REMARK>
 VINA RESULT:      -2.0      2.283      6.751
  Name = 
  0 active torsions:
  status: ('A' for Active; 'I' for Inactive)
                            x       y       z     vdW  Elec       q    Type
                         _______ _______ _______ _____ _____    ______ ____

>  <TORSDO>
F 0

$$$$
=
 OpenBabel11122414033D

 28 32  0  0  1  0  0  0  0  0999 V2000
  159.6870  213.7910  149.7280 C   0  0  0  0  0  0  0  0  0  0  0  0
  158.9570  214.4320  154.3630 O   0  0  0  0  0  0  0  0  0  0  0  0
  160.6810  207.8900  149.8210 O   0  0  0  0  0  0  0  0  0  0  0  0
  156.9330  213.3290  149.9470 C   0  0  0  0  0  3  0  0  0  0  0  0
  160.9970  208.7150  152.2870 C   0  0  2  0  0  3  0  0  0  0  0  0
  161.1560  213.8990  149.4620 C   0  0  0  0  0  2  0  0  0  0  0  0
  157.3060  212.8080  153.5210 O   0  0  0  0  0  0  0  0  0  0  0  0
  158.6660  212.9760  154.1330 S   0  0  0  0  0  0  0  0  0  0  0  0
  160.0840  211.6050  155.8270 C   0  0  1  0  0  3  0  0  0  0  0  0
  159.9640  212.2170  153.1980 C   0  0  1  0  0  3  0  0  0  0  0  0
  163.1820  211.1760  147.8850 O   0  0  0  0  0  1  0  0  0  0  0  0
  160.3790  210.8110  151.3080 C   0  0  2  0  0  3  0  0  0  0  0  0
  160.4460  210.5430  154.9400 O   0  0  0  0  0  0  0  0  0  0  0  0
  158.7110  212.1010  155.6320 N   0  0  0  0  0  2  0  0  0  0  0  0
  162.7920  212.0450  148.9050 C   0  0  2  0  0  3  0  0  0  0  0  0
  159.1940  212.9680  150.7630 C   0  0  0  0  0  0  0  0  0  0  0  0
  161.7050  208.6880  150.6170 S   0  0  2  0  0  0  0  0  0  0  0  0
  160.2550  211.1440  157.2580 C   0  0  0  0  0  1  0  0  0  0  0  0
  162.5900  211.2570  150.2010 C   0  0  0  0  0  2  0  0  0  0  0  0
  157.8200  212.7090  150.8310 C   0  0  0  0  0  3  0  0  0  0  0  0
  158.7940  214.4060  148.8410 C   0  0  0  0  0  3  0  0  0  0  0  0
  157.4200  214.1880  148.9600 C   0  0  0  0  0  3  0  0  0  0  0  0
  161.5540  212.8210  148.4610 C   0  0  0  0  0  2  0  0  0  0  0  0
  160.9120  210.1930  152.5670 C   0  0  1  0  0  3  0  0  0  0  0  0
  161.3180  210.4060  150.1860 C   0  0  2  0  0  3  0  0  0  0  0  0
  159.9840  210.7510  153.6130 C   0  0  2  0  0  3  0  0  0  0  0  0
  161.9560  208.0590  153.2590 C   0  0  0  0  0  1  0  0  0  0  0  0
  160.1700  212.2680  151.6700 C   0  0  1  0  0  3  0  0  0  0  0  0
  1 16  1  0  0  0  0
  3 17  2  0  0  0  0
  4 20  1  0  0  0  0
  5 24  1  0  0  0  0
  5 27  1  1  0  0  0
  6  1  1  0  0  0  0
  7  8  2  0  0  0  0
  8  2  2  0  0  0  0
  8 14  1  0  0  0  0
  9 18  1  1  0  0  0
 10 26  1  0  0  0  0
 10  8  1  6  0  0  0
 11 15  1  0  0  0  0
 12 28  1  0  0  0  0
 12 24  1  0  0  0  0
 13  9  1  0  0  0  0
 14  9  1  0  0  0  0
 15 19  1  0  0  0  0
 16 20  2  0  0  0  0
 16 28  1  0  0  0  0
 17  5  1  0  0  0  0
 21 22  1  0  0  0  0
 21  1  2  0  0  0  0
 22  4  2  0  0  0  0
 23 15  1  0  0  0  0
 23  6  1  0  0  0  0
 24 26  1  0  0  0  0
 25 19  1  0  0  0  0
 25 17  1  0  0  0  0
 25 12  1  0  0  0  0
 26 13  1  0  0  0  0
 28 10  1  0  0  0  0
M  END
>  <MODEL>
6

>  <REMARK>
 VINA RESULT:      -1.0      1.945      5.546
  Name = 
  0 active torsions:
  status: ('A' for Active; 'I' for Inactive)
                            x       y       z     vdW  Elec       q    Type
                         _______ _______ _______ _____ _____    ______ ____

>  <TORSDO>
F 0

$$$$
