=
 OpenBabel11122414023D

 28 32  0  0  1  0  0  0  0  0999 V2000
  161.5540  205.9880  152.2890 C   0  0  0  0  0  0  0  0  0  0  0  0
  163.2530  207.5810  148.7000 O   0  0  0  0  0  0  0  0  0  0  0  0
  158.6290  210.8780  154.1820 O   0  0  0  0  0  0  0  0  0  0  0  0
  160.2140  204.9600  150.0520 C   0  0  0  0  0  3  0  0  0  0  0  0
  160.3080  211.3190  152.5770 N   0  0  0  0  0  0  0  0  0  0  0  0
  162.2810  206.4740  153.5030 C   0  0  0  0  0  2  0  0  0  0  0  0
  160.9990  208.1690  147.8660 O   0  0  0  0  0  0  0  0  0  0  0  0
  162.1920  208.6430  148.6470 S   0  0  0  0  0  0  0  0  0  0  0  0
  162.6110  211.3500  148.5280 C   0  0  0  0  0  0  0  0  0  0  0  0
  161.7300  209.1010  150.2470 N   0  0  0  0  0  0  0  0  0  0  0  0
  159.7470  207.0690  156.0700 O   0  0  0  0  0  0  0  0  0  0  0  0
  161.0910  209.1550  152.3760 C   0  0  0  0  0  0  0  0  0  0  0  0
  161.6100  211.5370  149.6380 C   0  0  0  0  0  2  0  0  0  0  0  0
  162.8310  210.0720  147.9200 N   0  0  0  0  0  2  0  0  0  0  0  0
  160.6200  207.3470  155.2080 C   0  0  0  0  0  0  0  0  0  0  0  0
  161.1450  206.8620  151.2550 C   0  0  0  0  0  0  0  0  0  0  0  0
  159.5930  210.4710  153.4800 C   0  0  0  0  0  0  0  0  0  0  0  0
  163.2610  212.6760  147.8350 S   0  0  0  0  0  0  0  0  0  0  0  0
  160.7940  208.7680  154.7830 C   0  0  0  0  0  2  0  0  0  0  0  0
  160.4700  206.3280  150.1470 C   0  0  0  0  0  3  0  0  0  0  0  0
  161.2990  204.6150  152.1810 C   0  0  0  0  0  3  0  0  0  0  0  0
  160.6300  204.1020  151.0690 C   0  0  0  0  0  3  0  0  0  0  0  0
  161.4380  206.3040  154.6760 N   0  0  0  0  0  2  0  0  0  0  0  0
  161.2050  210.4360  151.9300 C   0  0  0  0  0  0  0  0  0  0  0  0
  160.0790  209.0430  153.4720 C   0  0  2  0  0  3  0  0  0  0  0  0
  161.6070  210.3930  150.6120 C   0  0  0  0  0  0  0  0  0  0  0  0
  159.8090  212.5770  152.0460 C   0  0  0  0  0  1  0  0  0  0  0  0
  161.3930  208.3210  151.3070 C   0  0  0  0  0  0  0  0  0  0  0  0
  1  6  1  0  0  0  0
  4 20  2  0  0  0  0
  4 22  1  0  0  0  0
  5 17  1  0  0  0  0
  6 23  1  0  0  0  0
  7  8  2  0  0  0  0
  8  2  2  0  0  0  0
  8 10  1  0  0  0  0
  9 13  1  0  0  0  0
 10 26  1  0  0  0  0
 10 28  1  0  0  0  0
 12 25  1  0  0  0  0
 13 26  1  0  0  0  0
 14  9  1  0  0  0  0
 14  8  1  0  0  0  0
 15 11  2  0  0  0  0
 16 28  1  0  0  0  0
 16  1  2  0  0  0  0
 17  3  2  0  0  0  0
 18  9  2  0  0  0  0
 19 15  1  0  0  0  0
 20 16  1  0  0  0  0
 21  1  1  0  0  0  0
 22 21  2  0  0  0  0
 23 15  1  0  0  0  0
 24 12  1  0  0  0  0
 24  5  1  0  0  0  0
 25 17  1  0  0  0  0
 25 19  1  1  0  0  0
 26 24  2  0  0  0  0
 27  5  1  0  0  0  0
 28 12  2  0  0  0  0
M  END
>  <MODEL>
1

>  <REMARK>
 VINA RESULT:      -6.1      0.000      0.000
  Name = 
  0 active torsions:
  status: ('A' for Active; 'I' for Inactive)
                            x       y       z     vdW  Elec       q    Type
                         _______ _______ _______ _____ _____    ______ ____

>  <TORSDO>
F 0

$$$$
=
 OpenBabel11122414023D

 28 32  0  0  1  0  0  0  0  0999 V2000
  161.9860  205.5980  150.9290 C   0  0  0  0  0  0  0  0  0  0  0  0
  162.0470  201.3330  150.5930 O   0  0  0  0  0  0  0  0  0  0  0  0
  160.0320  206.9360  145.4110 O   0  0  0  0  0  0  0  0  0  0  0  0
  159.8600  204.4890  152.3810 C   0  0  0  0  0  3  0  0  0  0  0  0
  160.9010  204.7480  145.6230 N   0  0  0  0  0  0  0  0  0  0  0  0
  163.1410  206.2220  150.2090 C   0  0  0  0  0  2  0  0  0  0  0  0
  159.6420  201.3220  150.0130 O   0  0  0  0  0  0  0  0  0  0  0  0
  161.0440  201.3880  149.4760 S   0  0  0  0  0  0  0  0  0  0  0  0
  161.3440  200.3110  146.9730 C   0  0  0  0  0  0  0  0  0  0  0  0
  161.2720  202.8240  148.5440 N   0  0  0  0  0  0  0  0  0  0  0  0
  161.8730  209.2740  148.6470 O   0  0  0  0  0  0  0  0  0  0  0  0
  161.5610  204.9100  147.8310 C   0  0  0  0  0  0  0  0  0  0  0  0
  160.8830  201.6150  146.3750 C   0  0  0  0  0  2  0  0  0  0  0  0
  161.3120  200.0780  148.3860 N   0  0  0  0  0  2  0  0  0  0  0  0
  162.3120  208.0970  148.7180 C   0  0  0  0  0  0  0  0  0  0  0  0
  161.1790  204.6000  150.3360 C   0  0  0  0  0  0  0  0  0  0  0  0
  160.6290  206.0670  146.1010 C   0  0  0  0  0  0  0  0  0  0  0  0
  161.6370  199.0570  145.9730 S   0  0  0  0  0  0  0  0  0  0  0  0
  162.2800  207.2360  147.5000 C   0  0  0  0  0  2  0  0  0  0  0  0
  160.1160  204.0630  151.0770 C   0  0  0  0  0  3  0  0  0  0  0  0
  161.7260  206.0150  152.2400 C   0  0  0  0  0  3  0  0  0  0  0  0
  160.6670  205.4660  152.9640 C   0  0  0  0  0  3  0  0  0  0  0  0
  162.8540  207.6250  149.9520 N   0  0  0  0  0  2  0  0  0  0  0  0
  161.4660  204.0960  146.7450 C   0  0  0  0  0  0  0  0  0  0  0  0
  161.0870  206.2950  147.5210 C   0  0  2  0  0  3  0  0  0  0  0  0
  161.2930  202.8040  147.1960 C   0  0  0  0  0  0  0  0  0  0  0  0
  160.2140  204.1070  144.5130 C   0  0  0  0  0  1  0  0  0  0  0  0
  161.4090  204.1120  148.9570 C   0  0  0  0  0  0  0  0  0  0  0  0
  1 21  1  0  0  0  0
  3 17  2  0  0  0  0
  4 22  1  0  0  0  0
  5 17  1  0  0  0  0
  5 24  1  0  0  0  0
  6  1  1  0  0  0  0
  8  7  2  0  0  0  0
  8  2  2  0  0  0  0
  9 14  1  0  0  0  0
 10 28  1  0  0  0  0
 10  8  1  0  0  0  0
 11 15  2  0  0  0  0
 12 28  2  0  0  0  0
 13  9  1  0  0  0  0
 13 26  1  0  0  0  0
 14  8  1  0  0  0  0
 15 23  1  0  0  0  0
 16  1  2  0  0  0  0
 16 20  1  0  0  0  0
 17 25  1  0  0  0  0
 18  9  2  0  0  0  0
 19 15  1  0  0  0  0
 20  4  2  0  0  0  0
 21 22  2  0  0  0  0
 23  6  1  0  0  0  0
 24 26  2  0  0  0  0
 24 12  1  0  0  0  0
 25 19  1  6  0  0  0
 25 12  1  0  0  0  0
 26 10  1  0  0  0  0
 27  5  1  0  0  0  0
 28 16  1  0  0  0  0
M  END
>  <MODEL>
2

>  <REMARK>
 VINA RESULT:      -5.6      4.648      7.535
  Name = 
  0 active torsions:
  status: ('A' for Active; 'I' for Inactive)
                            x       y       z     vdW  Elec       q    Type
                         _______ _______ _______ _____ _____    ______ ____

>  <TORSDO>
F 0

$$$$
=
 OpenBabel11122414023D

 28 32  0  0  1  0  0  0  0  0999 V2000
  161.0180  209.7530  154.9430 C   0  0  0  0  0  0  0  0  0  0  0  0
  163.2110  210.0160  151.2790 O   0  0  0  0  0  0  0  0  0  0  0  0
  156.3210  213.1890  153.4620 O   0  0  0  0  0  0  0  0  0  0  0  0
  160.8310  207.3360  153.5350 C   0  0  0  0  0  3  0  0  0  0  0  0
  158.2100  213.4860  152.0720 N   0  0  0  0  0  0  0  0  0  0  0  0
  161.1400  211.0090  155.7480 C   0  0  0  0  0  2  0  0  0  0  0  0
  161.2740  209.1230  150.0280 O   0  0  0  0  0  0  0  0  0  0  0  0
  161.9560  210.3630  150.5310 S   0  0  0  0  0  0  0  0  0  0  0  0
  161.5610  212.5790  148.9650 C   0  0  0  0  0  0  0  0  0  0  0  0
  160.8940  211.2740  151.5430 N   0  0  0  0  0  0  0  0  0  0  0  0
  157.8650  211.6050  157.2610 O   0  0  0  0  0  0  0  0  0  0  0  0
  159.6270  212.0480  153.1970 C   0  0  0  0  0  0  0  0  0  0  0  0
  160.2520  212.8220  149.6690 C   0  0  0  0  0  2  0  0  0  0  0  0
  162.3350  211.3970  149.2020 N   0  0  0  0  0  2  0  0  0  0  0  0
  158.8420  211.7830  156.4880 C   0  0  0  0  0  0  0  0  0  0  0  0
  160.7170  209.7690  153.5610 C   0  0  0  0  0  0  0  0  0  0  0  0
  157.5330  212.9520  153.2130 C   0  0  0  0  0  0  0  0  0  0  0  0
  161.9700  213.5540  147.7240 S   0  0  0  0  0  0  0  0  0  0  0  0
  158.7090  212.7560  155.3640 C   0  0  0  0  0  2  0  0  0  0  0  0
  160.6220  208.5480  152.8770 C   0  0  0  0  0  3  0  0  0  0  0  0
  161.2330  208.5320  155.5940 C   0  0  0  0  0  3  0  0  0  0  0  0
  161.1390  207.3280  154.8960 C   0  0  0  0  0  3  0  0  0  0  0  0
  160.0590  211.0730  156.7190 N   0  0  0  0  0  2  0  0  0  0  0  0
  159.4880  212.8780  152.1280 C   0  0  0  0  0  0  0  0  0  0  0  0
  158.4000  212.0490  154.0550 C   0  0  2  0  0  3  0  0  0  0  0  0
  160.2810  212.3940  151.1090 C   0  0  0  0  0  0  0  0  0  0  0  0
  157.5540  213.9980  150.8800 C   0  0  0  0  0  1  0  0  0  0  0  0
  160.4870  211.0280  152.8160 C   0  0  0  0  0  0  0  0  0  0  0  0
  1 21  1  0  0  0  0
  1  6  1  0  0  0  0
  4 22  1  0  0  0  0
  5 24  1  0  0  0  0
  5 17  1  0  0  0  0
  6 23  1  0  0  0  0
  7  8  2  0  0  0  0
  8  2  2  0  0  0  0
  8 10  1  0  0  0  0
  9 14  1  0  0  0  0
  9 13  1  0  0  0  0
 10 28  1  0  0  0  0
 12 25  1  0  0  0  0
 13 26  1  0  0  0  0
 14  8  1  0  0  0  0
 15 23  1  0  0  0  0
 15 11  2  0  0  0  0
 16  1  2  0  0  0  0
 17  3  2  0  0  0  0
 17 25  1  0  0  0  0
 18  9  2  0  0  0  0
 19 15  1  0  0  0  0
 20  4  2  0  0  0  0
 20 16  1  0  0  0  0
 22 21  2  0  0  0  0
 24 12  1  0  0  0  0
 25 19  1  1  0  0  0
 26 10  1  0  0  0  0
 26 24  2  0  0  0  0
 27  5  1  0  0  0  0
 28 12  2  0  0  0  0
 28 16  1  0  0  0  0
M  END
>  <MODEL>
3

>  <REMARK>
 VINA RESULT:      -5.3      2.592      3.670
  Name = 
  0 active torsions:
  status: ('A' for Active; 'I' for Inactive)
                            x       y       z     vdW  Elec       q    Type
                         _______ _______ _______ _____ _____    ______ ____

>  <TORSDO>
F 0

$$$$
=
 OpenBabel11122414023D

 28 32  0  0  1  0  0  0  0  0999 V2000
  160.9060  207.9810  155.1230 C   0  0  0  0  0  0  0  0  0  0  0  0
  158.0100  210.8150  156.4960 O   0  0  0  0  0  0  0  0  0  0  0  0
  162.4780  210.6700  149.9900 O   0  0  0  0  0  0  0  0  0  0  0  0
  161.9510  209.4640  157.2610 C   0  0  0  0  0  3  0  0  0  0  0  0
  160.4240  211.4240  150.8850 N   0  0  0  0  0  0  0  0  0  0  0  0
  160.3630  207.1330  154.0160 C   0  0  0  0  0  2  0  0  0  0  0  0
  159.7040  212.6160  156.4210 O   0  0  0  0  0  0  0  0  0  0  0  0
  158.6360  211.8910  155.6540 S   0  0  0  0  0  0  0  0  0  0  0  0
  157.3630  213.4240  153.7720 C   0  0  0  0  0  0  0  0  0  0  0  0
  159.2840  211.2090  154.2060 N   0  0  0  0  0  0  0  0  0  0  0  0
  163.0960  206.6420  151.6380 O   0  0  0  0  0  0  0  0  0  0  0  0
  160.3450  209.9800  152.6860 C   0  0  0  0  0  0  0  0  0  0  0  0
  158.4790  213.1330  152.8030 C   0  0  0  0  0  2  0  0  0  0  0  0
  157.4270  213.0100  155.1410 N   0  0  0  0  0  2  0  0  0  0  0  0
  162.0060  207.0830  152.0860 C   0  0  0  0  0  0  0  0  0  0  0  0
  160.7670  209.3880  155.1340 C   0  0  0  0  0  0  0  0  0  0  0  0
  161.5590  210.5560  150.8440 C   0  0  0  0  0  0  0  0  0  0  0  0
  156.1830  214.4530  153.3130 S   0  0  0  0  0  0  0  0  0  0  0  0
  161.2960  208.1610  151.3360 C   0  0  0  0  0  2  0  0  0  0  0  0
  161.3020  210.1120  156.2090 C   0  0  0  0  0  3  0  0  0  0  0  0
  161.5530  207.3380  156.1870 C   0  0  0  0  0  3  0  0  0  0  0  0
  162.0750  208.0750  157.2500 C   0  0  0  0  0  3  0  0  0  0  0  0
  161.4630  206.5250  153.2830 N   0  0  0  0  0  2  0  0  0  0  0  0
  159.7300  211.0130  152.0480 C   0  0  0  0  0  0  0  0  0  0  0  0
  161.5640  209.5260  151.9470 C   0  0  2  0  0  3  0  0  0  0  0  0
  159.0710  211.7660  152.9970 C   0  0  0  0  0  0  0  0  0  0  0  0
  160.3600  212.7390  150.2670 C   0  0  0  0  0  1  0  0  0  0  0  0
  160.0860  210.1240  154.0430 C   0  0  0  0  0  0  0  0  0  0  0  0
  1 16  2  0  0  0  0
  1 21  1  0  0  0  0
  3 17  2  0  0  0  0
  5 24  1  0  0  0  0
  6  1  1  0  0  0  0
  8  7  2  0  0  0  0
  8  2  2  0  0  0  0
  9 14  1  0  0  0  0
 10  8  1  0  0  0  0
 11 15  2  0  0  0  0
 12 28  2  0  0  0  0
 13 26  1  0  0  0  0
 13  9  1  0  0  0  0
 14  8  1  0  0  0  0
 15 23  1  0  0  0  0
 16 20  1  0  0  0  0
 17  5  1  0  0  0  0
 17 25  1  0  0  0  0
 18  9  2  0  0  0  0
 19 15  1  0  0  0  0
 20  4  2  0  0  0  0
 21 22  2  0  0  0  0
 22  4  1  0  0  0  0
 23  6  1  0  0  0  0
 24 12  1  0  0  0  0
 24 26  2  0  0  0  0
 25 19  1  6  0  0  0
 25 12  1  0  0  0  0
 26 10  1  0  0  0  0
 27  5  1  0  0  0  0
 28 10  1  0  0  0  0
 28 16  1  0  0  0  0
M  END
>  <MODEL>
4

>  <REMARK>
 VINA RESULT:      -4.3      3.203      5.775
  Name = 
  0 active torsions:
  status: ('A' for Active; 'I' for Inactive)
                            x       y       z     vdW  Elec       q    Type
                         _______ _______ _______ _____ _____    ______ ____

>  <TORSDO>
F 0

$$$$
=
 OpenBabel11122414023D

 28 32  0  0  1  0  0  0  0  0999 V2000
  159.8090  213.5560  150.6840 C   0  0  0  0  0  0  0  0  0  0  0  0
  159.7030  212.9690  154.9210 O   0  0  0  0  0  0  0  0  0  0  0  0
  161.8610  208.1560  149.0490 O   0  0  0  0  0  0  0  0  0  0  0  0
  157.1570  213.2760  151.5500 C   0  0  0  0  0  3  0  0  0  0  0  0
  162.2160  208.6730  151.3280 N   0  0  0  0  0  0  0  0  0  0  0  0
  161.2070  213.7640  150.1930 C   0  0  0  0  0  2  0  0  0  0  0  0
  158.2010  211.0240  154.6370 O   0  0  0  0  0  0  0  0  0  0  0  0
  159.6290  211.4810  154.7310 S   0  0  0  0  0  0  0  0  0  0  0  0
  161.3360  209.6230  155.8030 C   0  0  0  0  0  0  0  0  0  0  0  0
  160.5110  211.0170  153.3210 N   0  0  0  0  0  0  0  0  0  0  0  0
  161.4620  212.0200  146.9910 O   0  0  0  0  0  0  0  0  0  0  0  0
  161.3590  210.8180  151.2750 C   0  0  0  0  0  0  0  0  0  0  0  0
  161.4640  208.9820  154.4460 C   0  0  0  0  0  2  0  0  0  0  0  0
  160.4080  210.6850  156.0500 N   0  0  0  0  0  2  0  0  0  0  0  0
  161.6580  212.2470  148.2130 C   0  0  0  0  0  0  0  0  0  0  0  0
  159.4690  212.5090  151.5710 C   0  0  0  0  0  0  0  0  0  0  0  0
  161.8180  208.9900  149.9920 C   0  0  0  0  0  0  0  0  0  0  0  0
  162.0830  208.9180  157.0710 S   0  0  0  0  0  0  0  0  0  0  0  0
  162.3220  211.2040  149.0480 C   0  0  0  0  0  2  0  0  0  0  0  0
  158.1350  212.3810  151.9870 C   0  0  0  0  0  3  0  0  0  0  0  0
  158.8220  214.4530  150.2560 C   0  0  0  0  0  3  0  0  0  0  0  0
  157.5020  214.3150  150.6840 C   0  0  0  0  0  3  0  0  0  0  0  0
  161.2650  213.5050  148.7630 N   0  0  0  0  0  2  0  0  0  0  0  0
  161.8960  209.8430  152.0580 C   0  0  0  0  0  0  0  0  0  0  0  0
  161.3040  210.4000  149.8390 C   0  0  2  0  0  3  0  0  0  0  0  0
  161.3690  209.9780  153.3250 C   0  0  0  0  0  0  0  0  0  0  0  0
  162.3220  207.3270  151.8670 C   0  0  0  0  0  1  0  0  0  0  0  0
  160.4690  211.5340  152.0640 C   0  0  0  0  0  0  0  0  0  0  0  0
  1 16  1  0  0  0  0
  3 17  2  0  0  0  0
  4 20  1  0  0  0  0
  5 27  1  0  0  0  0
  5 24  1  0  0  0  0
  6  1  1  0  0  0  0
  7  8  2  0  0  0  0
  8  2  2  0  0  0  0
  8 14  1  0  0  0  0
  9 14  1  0  0  0  0
  9 18  2  0  0  0  0
 10 26  1  0  0  0  0
 10  8  1  0  0  0  0
 11 15  2  0  0  0  0
 12 24  1  0  0  0  0
 12 28  2  0  0  0  0
 13  9  1  0  0  0  0
 15 23  1  0  0  0  0
 15 19  1  0  0  0  0
 16 20  2  0  0  0  0
 16 28  1  0  0  0  0
 17  5  1  0  0  0  0
 21 22  1  0  0  0  0
 21  1  2  0  0  0  0
 22  4  2  0  0  0  0
 23  6  1  0  0  0  0
 24 26  2  0  0  0  0
 25 19  1  6  0  0  0
 25 17  1  0  0  0  0
 25 12  1  0  0  0  0
 26 13  1  0  0  0  0
 28 10  1  0  0  0  0
M  END
>  <MODEL>
5

>  <REMARK>
 VINA RESULT:      -4.2      2.931      7.174
  Name = 
  0 active torsions:
  status: ('A' for Active; 'I' for Inactive)
                            x       y       z     vdW  Elec       q    Type
                         _______ _______ _______ _____ _____    ______ ____

>  <TORSDO>
F 0

$$$$
=
 OpenBabel11122414023D

 28 32  0  0  1  0  0  0  0  0999 V2000
  161.1740  207.3280  149.8670 C   0  0  0  0  0  0  0  0  0  0  0  0
  160.3500  206.2350  145.8140 O   0  0  0  0  0  0  0  0  0  0  0  0
  162.5170  201.8950  152.0400 O   0  0  0  0  0  0  0  0  0  0  0  0
  163.2690  208.1630  148.2010 C   0  0  0  0  0  3  0  0  0  0  0  0
  161.3310  201.8500  149.9960 N   0  0  0  0  0  0  0  0  0  0  0  0
  160.0500  206.9460  150.7790 C   0  0  0  0  0  2  0  0  0  0  0  0
  162.6100  205.2540  145.5950 O   0  0  0  0  0  0  0  0  0  0  0  0
  161.1780  204.9900  145.9620 S   0  0  0  0  0  0  0  0  0  0  0  0
  160.3460  202.4230  145.4780 C   0  0  0  0  0  0  0  0  0  0  0  0
  161.0640  204.3900  147.5770 N   0  0  0  0  0  0  0  0  0  0  0  0
  161.5770  205.7720  153.8860 O   0  0  0  0  0  0  0  0  0  0  0  0
  161.0310  204.1310  149.7850 C   0  0  0  0  0  0  0  0  0  0  0  0
  160.9290  202.0020  146.8020 C   0  0  0  0  0  2  0  0  0  0  0  0
  160.5400  203.7420  144.9550 N   0  0  0  0  0  2  0  0  0  0  0  0
  160.9610  205.7020  152.7910 C   0  0  0  0  0  0  0  0  0  0  0  0
  161.7090  206.4330  148.9130 C   0  0  0  0  0  0  0  0  0  0  0  0
  161.8870  202.5070  151.1370 C   0  0  0  0  0  0  0  0  0  0  0  0
  159.7060  201.2760  144.5110 S   0  0  0  0  0  0  0  0  0  0  0  0
  160.6730  204.3600  152.2050 C   0  0  0  0  0  2  0  0  0  0  0  0
  162.7610  206.8670  148.0930 C   0  0  0  0  0  3  0  0  0  0  0  0
  161.6850  208.6290  149.9640 C   0  0  0  0  0  3  0  0  0  0  0  0
  162.7290  209.0450  149.1370 C   0  0  0  0  0  3  0  0  0  0  0  0
  160.5300  206.9040  152.1520 N   0  0  0  0  0  2  0  0  0  0  0  0
  160.8310  202.9150  149.2080 C   0  0  0  0  0  0  0  0  0  0  0  0
  161.6810  204.0020  151.1270 C   0  0  2  0  0  3  0  0  0  0  0  0
  160.8470  203.0860  147.8400 C   0  0  0  0  0  0  0  0  0  0  0  0
  161.7360  200.5400  149.5110 C   0  0  0  0  0  1  0  0  0  0  0  0
  161.2060  205.0480  148.7580 C   0  0  0  0  0  0  0  0  0  0  0  0
  1 21  1  0  0  0  0
  1  6  1  0  0  0  0
  2  8  2  0  0  0  0
  4 22  1  0  0  0  0
  5 17  1  0  0  0  0
  6 23  1  0  0  0  0
  7  8  2  0  0  0  0
  8 10  1  0  0  0  0
  9 13  1  0  0  0  0
 10 26  1  0  0  0  0
 10 28  1  0  0  0  0
 12 25  1  0  0  0  0
 13 26  1  0  0  0  0
 14  9  1  0  0  0  0
 14  8  1  0  0  0  0
 15 11  2  0  0  0  0
 16  1  2  0  0  0  0
 17  3  2  0  0  0  0
 18  9  2  0  0  0  0
 19 15  1  0  0  0  0
 20  4  2  0  0  0  0
 20 16  1  0  0  0  0
 22 21  2  0  0  0  0
 23 15  1  0  0  0  0
 24 12  1  0  0  0  0
 24  5  1  0  0  0  0
 25 17  1  0  0  0  0
 25 19  1  1  0  0  0
 26 24  2  0  0  0  0
 27  5  1  0  0  0  0
 28 16  1  0  0  0  0
 28 12  2  0  0  0  0
M  END
>  <MODEL>
6

>  <REMARK>
 VINA RESULT:      -4.0      3.924      6.782
  Name = 
  0 active torsions:
  status: ('A' for Active; 'I' for Inactive)
                            x       y       z     vdW  Elec       q    Type
                         _______ _______ _______ _____ _____    ______ ____

>  <TORSDO>
F 0

$$$$
=
 OpenBabel11122414023D

 28 32  0  0  1  0  0  0  0  0999 V2000
  160.3660  210.9900  154.0720 C   0  0  0  0  0  0  0  0  0  0  0  0
  163.3130  210.9380  150.9710 O   0  0  0  0  0  0  0  0  0  0  0  0
  155.9940  213.8890  151.1500 O   0  0  0  0  0  0  0  0  0  0  0  0
  160.5910  208.4090  153.0020 C   0  0  0  0  0  3  0  0  0  0  0  0
  158.1340  214.1360  150.1760 N   0  0  0  0  0  0  0  0  0  0  0  0
  160.2570  212.3420  154.7040 C   0  0  0  0  0  2  0  0  0  0  0  0
  161.7400  209.7670  149.4640 O   0  0  0  0  0  0  0  0  0  0  0  0
  162.2450  211.1040  149.9280 S   0  0  0  0  0  0  0  0  0  0  0  0
  162.1280  213.0740  148.0250 C   0  0  0  0  0  0  0  0  0  0  0  0
  160.9500  212.0610  150.5500 N   0  0  0  0  0  0  0  0  0  0  0  0
  156.7070  212.9010  155.3740 O   0  0  0  0  0  0  0  0  0  0  0  0
  159.3160  212.9500  151.7680 C   0  0  0  0  0  0  0  0  0  0  0  0
  160.6860  213.3150  148.3880 C   0  0  0  0  0  2  0  0  0  0  0  0
  162.8730  211.9860  148.5840 N   0  0  0  0  0  2  0  0  0  0  0  0
  157.8240  213.0470  154.8140 C   0  0  0  0  0  0  0  0  0  0  0  0
  160.3820  210.8120  152.6690 C   0  0  0  0  0  0  0  0  0  0  0  0
  157.2390  213.7050  151.2050 C   0  0  0  0  0  0  0  0  0  0  0  0
  162.7680  213.9110  146.7800 S   0  0  0  0  0  0  0  0  0  0  0  0
  157.9100  213.8600  153.5660 C   0  0  0  0  0  2  0  0  0  0  0  0
  160.4890  209.5120  152.1540 C   0  0  0  0  0  3  0  0  0  0  0  0
  160.4750  209.8770  154.9150 C   0  0  0  0  0  3  0  0  0  0  0  0
  160.5860  208.5920  154.3850 C   0  0  0  0  0  3  0  0  0  0  0  0
  158.9840  212.4540  155.3990 N   0  0  0  0  0  2  0  0  0  0  0  0
  159.3890  213.6270  150.5900 C   0  0  0  0  0  0  0  0  0  0  0  0
  157.9290  212.9750  152.3310 C   0  0  2  0  0  3  0  0  0  0  0  0
  160.4080  213.0740  149.8440 C   0  0  0  0  0  0  0  0  0  0  0  0
  157.7430  214.4500  148.8110 C   0  0  0  0  0  1  0  0  0  0  0  0
  160.2780  211.9500  151.7260 C   0  0  0  0  0  0  0  0  0  0  0  0
  1  6  1  0  0  0  0
  1 21  1  0  0  0  0
  3 17  2  0  0  0  0
  4 22  1  0  0  0  0
  5 24  1  0  0  0  0
  5 17  1  0  0  0  0
  6 23  1  0  0  0  0
  7  8  2  0  0  0  0
  8 10  1  0  0  0  0
  8  2  2  0  0  0  0
  9 13  1  0  0  0  0
  9 14  1  0  0  0  0
 10 28  1  0  0  0  0
 12 25  1  0  0  0  0
 13 26  1  0  0  0  0
 14  8  1  0  0  0  0
 15 11  2  0  0  0  0
 15 23  1  0  0  0  0
 16  1  2  0  0  0  0
 17 25  1  0  0  0  0
 18  9  2  0  0  0  0
 19 15  1  0  0  0  0
 20 16  1  0  0  0  0
 20  4  2  0  0  0  0
 22 21  2  0  0  0  0
 24 12  1  0  0  0  0
 25 19  1  1  0  0  0
 26 10  1  0  0  0  0
 26 24  2  0  0  0  0
 27  5  1  0  0  0  0
 28 12  2  0  0  0  0
 28 16  1  0  0  0  0
M  END
>  <MODEL>
7

>  <REMARK>
 VINA RESULT:      -3.3      3.003      4.515
  Name = 
  0 active torsions:
  status: ('A' for Active; 'I' for Inactive)
                            x       y       z     vdW  Elec       q    Type
                         _______ _______ _______ _____ _____    ______ ____

>  <TORSDO>
F 0

$$$$
=
 OpenBabel11122414023D

 28 32  0  0  1  0  0  0  0  0999 V2000
  161.7990  211.9830  139.8530 C   0  0  0  0  0  0  0  0  0  0  0  0
  158.4910  212.0270  137.1400 O   0  0  0  0  0  0  0  0  0  0  0  0
  158.9740  213.8980  144.7930 O   0  0  0  0  0  0  0  0  0  0  0  0
  160.9650  209.3620  139.3110 C   0  0  0  0  0  3  0  0  0  0  0  0
  157.8130  214.3450  142.7830 N   0  0  0  0  0  0  0  0  0  0  0  0
  162.3060  213.3650  140.1240 C   0  0  0  0  0  2  0  0  0  0  0  0
  157.2330  210.4900  138.6130 O   0  0  0  0  0  0  0  0  0  0  0  0
  157.5260  211.9260  138.2860 S   0  0  0  0  0  0  0  0  0  0  0  0
  155.4600  213.6470  138.8230 C   0  0  0  0  0  0  0  0  0  0  0  0
  158.1560  212.7480  139.6680 N   0  0  0  0  0  0  0  0  0  0  0  0
  163.2020  213.4750  143.6670 O   0  0  0  0  0  0  0  0  0  0  0  0
  159.4110  213.5160  141.3350 C   0  0  0  0  0  0  0  0  0  0  0  0
  155.9120  213.7150  140.2590 C   0  0  0  0  0  2  0  0  0  0  0  0
  156.0580  212.7430  137.8880 N   0  0  0  0  0  2  0  0  0  0  0  0
  162.5430  213.7200  142.6230 C   0  0  0  0  0  0  0  0  0  0  0  0
  160.4230  211.6620  139.9020 C   0  0  0  0  0  0  0  0  0  0  0  0
  158.9460  213.9010  143.5340 C   0  0  0  0  0  0  0  0  0  0  0  0
  154.0940  214.4310  138.4000 S   0  0  0  0  0  0  0  0  0  0  0  0
  161.2200  214.4000  142.7420 C   0  0  0  0  0  2  0  0  0  0  0  0
  160.0270  210.3430  139.6340 C   0  0  0  0  0  3  0  0  0  0  0  0
  162.7330  210.9930  139.5220 C   0  0  0  0  0  3  0  0  0  0  0  0
  162.3200  209.6880  139.2540 C   0  0  0  0  0  3  0  0  0  0  0  0
  163.0870  213.3650  141.3510 N   0  0  0  0  0  2  0  0  0  0  0  0
  158.1720  214.0690  141.4420 C   0  0  0  0  0  0  0  0  0  0  0  0
  160.0780  213.4020  142.6700 C   0  0  2  0  0  3  0  0  0  0  0  0
  157.4030  213.5920  140.4020 C   0  0  0  0  0  0  0  0  0  0  0  0
  156.4600  214.4530  143.3050 C   0  0  0  0  0  1  0  0  0  0  0  0
  159.3870  212.6660  140.2380 C   0  0  0  0  0  0  0  0  0  0  0  0
  1 16  1  0  0  0  0
  1  6  1  0  0  0  0
  2  8  2  0  0  0  0
  4 20  1  0  0  0  0
  5 27  1  0  0  0  0
  5 17  1  0  0  0  0
  6 23  1  0  0  0  0
  8  7  2  0  0  0  0
  8 10  1  0  0  0  0
  9 13  1  0  0  0  0
 10 28  1  0  0  0  0
 10 26  1  0  0  0  0
 12 24  1  0  0  0  0
 12 25  1  0  0  0  0
 13 26  1  0  0  0  0
 14  8  1  0  0  0  0
 14  9  1  0  0  0  0
 15 19  1  0  0  0  0
 15 11  2  0  0  0  0
 16 28  1  0  0  0  0
 17  3  2  0  0  0  0
 18  9  2  0  0  0  0
 20 16  2  0  0  0  0
 21  1  2  0  0  0  0
 22  4  2  0  0  0  0
 22 21  1  0  0  0  0
 23 15  1  0  0  0  0
 24  5  1  0  0  0  0
 25 19  1  6  0  0  0
 25 17  1  0  0  0  0
 26 24  2  0  0  0  0
 28 12  2  0  0  0  0
M  END
>  <MODEL>
8

>  <REMARK>
 VINA RESULT:      -3.1     10.690     12.378
  Name = 
  0 active torsions:
  status: ('A' for Active; 'I' for Inactive)
                            x       y       z     vdW  Elec       q    Type
                         _______ _______ _______ _____ _____    ______ ____

>  <TORSDO>
F 0

$$$$
