=
 OpenBabel11122412593D

 32 38  0  0  1  0  0  0  0  0999 V2000
  161.4860  201.8120  149.6450 C   0  0  1  0  0  3  0  0  0  0  0  0
  161.2270  206.2650  151.8110 C   0  0  2  0  0  3  0  0  0  0  0  0
  162.4560  209.7400  148.4150 C   0  0  0  0  0  2  0  0  0  0  0  0
  161.9220  210.8440  149.3200 C   0  0  0  0  0  2  0  0  0  0  0  0
  161.1100  206.9930  154.2510 C   0  0  0  0  0  0  0  0  0  0  0  0
  161.1430  208.0180  155.1890 C   0  0  0  0  0  0  0  0  0  0  0  0
  160.4710  204.1220  151.2400 C   0  0  1  0  0  3  0  0  0  0  0  0
  161.0350  205.6820  149.3490 C   0  0  0  0  0  2  0  0  0  0  0  0
  161.3090  210.0380  155.9610 N   0  0  0  0  0  0  0  0  0  0  0  0
  161.3060  203.1830  148.9860 C   0  0  2  0  0  3  0  0  0  0  0  0
  161.6300  208.4840  148.6320 C   0  0  0  0  0  2  0  0  0  0  0  0
  160.9260  206.8070  150.3960 C   0  0  2  0  0  3  0  0  0  0  0  0
  161.8380  207.9860  150.0670 C   0  0  2  0  0  3  0  0  0  0  0  0
  161.4440  208.7150  152.5150 C   0  0  0  0  0  0  0  0  0  0  0  0
  161.1500  209.1930  156.9730 N   0  0  0  0  0  0  0  0  0  0  0  0
  161.6700  201.8460  151.1830 C   0  0  0  0  0  2  0  0  0  0  0  0
  161.3600  204.3410  149.9970 C   0  0  2  0  0  3  0  0  0  0  0  0
  161.0460  207.9400  156.5310 N   0  0  0  0  0  0  0  0  0  0  0  0
  160.8160  202.8400  151.9930 C   0  0  0  0  0  2  0  0  0  0  0  0
  160.1110  202.2490  149.1700 C   0  0  1  0  0  3  0  0  0  0  0  0
  161.7670  210.3810  150.7420 C   0  0  0  0  0  3  0  0  0  0  0  0
  161.6470  209.0870  151.0920 C   0  0  0  0  0  0  0  0  0  0  0  0
  161.4720  209.7160  153.5160 C   0  0  0  0  0  3  0  0  0  0  0  0
  160.3170  205.2280  152.1210 O   0  0  0  0  0  0  0  0  0  0  0  0
  160.9830  205.6710  154.6670 O   0  0  0  0  0  1  0  0  0  0  0  0
  161.4670  211.4750  156.0950 C   0  0  0  0  0  1  0  0  0  0  0  0
  161.2220  207.3450  152.8770 C   0  0  0  0  0  0  0  0  0  0  0  0
  161.3070  209.3150  154.8350 C   0  0  0  0  0  0  0  0  0  0  0  0
  159.7990  201.5740  147.8480 C   0  0  0  0  0  2  0  0  0  0  0  0
  161.0530  201.4650  146.9980 C   0  0  0  0  0  3  0  0  0  0  0  0
  161.3970  200.0090  146.7530 C   0  0  0  0  0  1  0  0  0  0  0  0
  160.8170  202.1500  145.6680 C   0  0  0  0  0  1  0  0  0  0  0  0
  1 16  1  1  0  0  0
  2 24  1  1  0  0  0
  2 27  1  0  0  0  0
  3 11  1  0  0  0  0
  3  4  1  0  0  0  0
  4 21  1  0  0  0  0
  5 25  1  0  0  0  0
  5  6  1  0  0  0  0
  6 18  1  0  0  0  0
  7 19  1  1  0  0  0
  7 24  1  0  0  0  0
  8 17  1  0  0  0  0
  8 12  1  0  0  0  0
  9 26  1  0  0  0  0
  9 15  1  0  0  0  0
 10 20  1  0  0  0  0
 10  1  1  0  0  0  0
 10 17  1  0  0  0  0
 11 13  1  0  0  0  0
 12  2  1  0  0  0  0
 13 12  1  0  0  0  0
 13 22  1  0  0  0  0
 14 27  1  0  0  0  0
 14 23  2  0  0  0  0
 16 19  1  0  0  0  0
 17  7  1  0  0  0  0
 18 15  2  0  0  0  0
 20  1  1  0  0  0  0
 21 22  2  0  0  0  0
 22 14  1  0  0  0  0
 23 28  1  0  0  0  0
 27  5  2  0  0  0  0
 28  6  2  0  0  0  0
 28  9  1  0  0  0  0
 29 20  1  0  0  0  0
 30 29  1  0  0  0  0
 31 30  1  0  0  0  0
 32 30  1  0  0  0  0
M  END
>  <MODEL>
1

>  <REMARK>
 VINA RESULT:      -9.1      0.000      0.000
  Name = 
  2 active torsions:
  status: ('A' for Active; 'I' for Inactive)
    1  A    between atoms: C_20  and  C_29
    2  A    between atoms: C_29  and  C_30
                            x       y       z     vdW  Elec       q    Type
                         _______ _______ _______ _____ _____    ______ ____

>  <TORSDO>
F 2

$$$$
=
 OpenBabel11122412593D

 32 38  0  0  1  0  0  0  0  0999 V2000
  160.0950  208.4140  156.4350 C   0  0  1  0  0  3  0  0  0  0  0  0
  161.0320  206.2120  152.0920 C   0  0  2  0  0  3  0  0  0  0  0  0
  161.8170  209.7780  148.6580 C   0  0  0  0  0  2  0  0  0  0  0  0
  162.3810  208.7480  147.6870 C   0  0  0  0  0  2  0  0  0  0  0  0
  160.6920  203.8280  151.2570 C   0  0  0  0  0  0  0  0  0  0  0  0
  160.7040  202.9250  150.2010 C   0  0  0  0  0  0  0  0  0  0  0  0
  161.2630  206.5750  154.3950 C   0  0  1  0  0  3  0  0  0  0  0  0
  161.7030  208.5300  152.8760 C   0  0  0  0  0  2  0  0  0  0  0  0
  160.9250  202.2070  148.1660 N   0  0  0  0  0  0  0  0  0  0  0  0
  160.8330  208.9820  155.2190 C   0  0  2  0  0  3  0  0  0  0  0  0
  162.1560  209.3530  150.0770 C   0  0  0  0  0  2  0  0  0  0  0  0
  161.8460  207.4820  151.7560 C   0  0  2  0  0  3  0  0  0  0  0  0
  161.4340  208.0380  150.3950 C   0  0  2  0  0  3  0  0  0  0  0  0
  161.3480  205.5690  149.6360 C   0  0  0  0  0  0  0  0  0  0  0  0
  160.5560  201.2000  148.9490 N   0  0  0  0  0  0  0  0  0  0  0  0
  159.5220  206.9870  156.2430 C   0  0  0  0  0  2  0  0  0  0  0  0
  160.8440  208.0130  154.0240 C   0  0  2  0  0  3  0  0  0  0  0  0
  160.4100  201.6100  150.2080 N   0  0  0  0  0  0  0  0  0  0  0  0
  160.3750  205.9610  155.4740 C   0  0  0  0  0  2  0  0  0  0  0  0
  161.6130  208.4830  156.4340 C   0  0  1  0  0  3  0  0  0  0  0  0
  162.0070  207.3440  148.0740 C   0  0  0  0  0  3  0  0  0  0  0  0
  161.6520  206.9890  149.3220 C   0  0  0  0  0  0  0  0  0  0  0  0
  161.3410  204.6040  148.6000 C   0  0  0  0  0  3  0  0  0  0  0  0
  161.4870  205.6730  153.3170 O   0  0  0  0  0  0  0  0  0  0  0  0
  160.3170  203.4080  152.5290 O   0  0  0  0  0  1  0  0  0  0  0  0
  161.1570  202.1060  146.7360 C   0  0  0  0  0  1  0  0  0  0  0  0
  161.0600  205.1750  150.9850 C   0  0  0  0  0  0  0  0  0  0  0  0
  161.0220  203.2970  148.9380 C   0  0  0  0  0  0  0  0  0  0  0  0
  162.0620  209.6740  157.2600 C   0  0  0  0  0  2  0  0  0  0  0  0
  162.2120  210.9040  156.3810 C   0  0  0  0  0  3  0  0  0  0  0  0
  161.5820  212.1090  157.0510 C   0  0  0  0  0  1  0  0  0  0  0  0
  163.6830  211.1760  156.1510 C   0  0  0  0  0  1  0  0  0  0  0  0
  1 16  1  6  0  0  0
  2 27  1  6  0  0  0
  2 24  1  0  0  0  0
  3 11  1  0  0  0  0
  4 21  1  0  0  0  0
  4  3  1  0  0  0  0
  5 25  1  0  0  0  0
  6 18  1  0  0  0  0
  6  5  2  0  0  0  0
  7 19  1  1  0  0  0
  8 17  1  0  0  0  0
  9 28  1  0  0  0  0
  9 15  1  0  0  0  0
 10 20  1  0  0  0  0
 10  1  1  0  0  0  0
 11 13  1  0  0  0  0
 12  2  1  0  0  0  0
 12  8  1  0  0  0  0
 13 12  1  0  0  0  0
 14 27  2  0  0  0  0
 15 18  2  0  0  0  0
 17  7  1  0  0  0  0
 17 10  1  0  0  0  0
 19 16  1  0  0  0  0
 20  1  1  0  0  0  0
 20 29  1  0  0  0  0
 21 22  2  0  0  0  0
 22 14  1  0  0  0  0
 22 13  1  0  0  0  0
 23 28  2  0  0  0  0
 23 14  1  0  0  0  0
 24  7  1  0  0  0  0
 26  9  1  0  0  0  0
 27  5  1  0  0  0  0
 28  6  1  0  0  0  0
 30 31  1  0  0  0  0
 30 29  1  0  0  0  0
 32 30  1  0  0  0  0
M  END
>  <MODEL>
2

>  <REMARK>
 VINA RESULT:      -8.4      3.230      7.848
  Name = 
  2 active torsions:
  status: ('A' for Active; 'I' for Inactive)
    1  A    between atoms: C_20  and  C_29
    2  A    between atoms: C_29  and  C_30
                            x       y       z     vdW  Elec       q    Type
                         _______ _______ _______ _____ _____    ______ ____

>  <TORSDO>
F 2

$$$$
=
 OpenBabel11122412593D

 32 38  0  0  1  0  0  0  0  0999 V2000
  161.9710  209.4360  154.3500 C   0  0  1  0  0  3  0  0  0  0  0  0
  161.2330  206.4260  150.4800 C   0  0  2  0  0  3  0  0  0  0  0  0
  161.8320  201.6970  152.0290 C   0  0  0  0  0  2  0  0  0  0  0  0
  161.2020  201.1740  150.7440 C   0  0  0  0  0  2  0  0  0  0  0  0
  161.1380  206.8380  147.9660 C   0  0  0  0  0  0  0  0  0  0  0  0
  161.0810  206.3200  146.6780 C   0  0  0  0  0  0  0  0  0  0  0  0
  160.7390  208.1990  151.9290 C   0  0  1  0  0  3  0  0  0  0  0  0
  161.0030  205.9180  152.9550 C   0  0  0  0  0  2  0  0  0  0  0  0
  161.0170  204.8250  145.1080 N   0  0  0  0  0  0  0  0  0  0  0  0
  161.5810  207.9550  154.3560 C   0  0  2  0  0  3  0  0  0  0  0  0
  161.1890  203.0270  152.3860 C   0  0  0  0  0  2  0  0  0  0  0  0
  160.7960  205.3770  151.5270 C   0  0  2  0  0  3  0  0  0  0  0  0
  161.5300  204.0570  151.3030 C   0  0  2  0  0  3  0  0  0  0  0  0
  161.1600  204.5100  148.7850 C   0  0  0  0  0  0  0  0  0  0  0  0
  161.0190  206.0350  144.5610 N   0  0  0  0  0  0  0  0  0  0  0  0
  162.2220  210.0400  152.9450 C   0  0  0  0  0  2  0  0  0  0  0  0
  161.5310  207.3480  152.9440 C   0  0  2  0  0  3  0  0  0  0  0  0
  161.0590  206.9780  145.5020 N   0  0  0  0  0  0  0  0  0  0  0  0
  161.2850  209.6190  151.7970 C   0  0  0  0  0  2  0  0  0  0  0  0
  160.5290  209.0340  154.6090 C   0  0  1  0  0  3  0  0  0  0  0  0
  161.1770  202.2180  149.6630 C   0  0  0  0  0  3  0  0  0  0  0  0
  161.2440  203.5400  149.9060 C   0  0  0  0  0  0  0  0  0  0  0  0
  161.1040  204.0420  147.4500 C   0  0  0  0  0  3  0  0  0  0  0  0
  160.4830  207.6110  150.6590 O   0  0  0  0  0  0  0  0  0  0  0  0
  161.2060  208.2130  148.1620 O   0  0  0  0  0  1  0  0  0  0  0  0
  160.9920  203.5770  144.3650 C   0  0  0  0  0  1  0  0  0  0  0  0
  161.1380  205.9190  149.0530 C   0  0  0  0  0  0  0  0  0  0  0  0
  161.0570  204.9880  146.4360 C   0  0  0  0  0  0  0  0  0  0  0  0
  160.2460  209.1130  156.0970 C   0  0  0  0  0  2  0  0  0  0  0  0
  159.4180  210.3470  156.4150 C   0  0  0  0  0  3  0  0  0  0  0  0
  160.3110  211.4650  156.9160 C   0  0  0  0  0  1  0  0  0  0  0  0
  158.7040  210.8060  155.1610 C   0  0  0  0  0  1  0  0  0  0  0  0
  1 16  1  6  0  0  0
  1 10  1  0  0  0  0
  1 20  1  0  0  0  0
  2 27  1  6  0  0  0
  2 24  1  0  0  0  0
  2 12  1  0  0  0  0
  3 11  1  0  0  0  0
  4  3  1  0  0  0  0
  5 25  1  0  0  0  0
  5 27  1  0  0  0  0
  6  5  2  0  0  0  0
  7 19  1  6  0  0  0
  7 17  1  0  0  0  0
  9 28  1  0  0  0  0
 10 20  1  0  0  0  0
 12  8  1  0  0  0  0
 13 12  1  0  0  0  0
 13 11  1  0  0  0  0
 14 27  2  0  0  0  0
 14 22  1  0  0  0  0
 15  9  1  0  0  0  0
 15 18  2  0  0  0  0
 17  8  1  0  0  0  0
 17 10  1  0  0  0  0
 18  6  1  0  0  0  0
 19 16  1  0  0  0  0
 20 29  1  0  0  0  0
 21 22  2  0  0  0  0
 21  4  1  0  0  0  0
 22 13  1  0  0  0  0
 23 14  1  0  0  0  0
 24  7  1  0  0  0  0
 26  9  1  0  0  0  0
 28  6  1  0  0  0  0
 28 23  2  0  0  0  0
 29 30  1  0  0  0  0
 30 31  1  0  0  0  0
 32 30  1  0  0  0  0
M  END
>  <MODEL>
3

>  <REMARK>
 VINA RESULT:      -7.4      3.945      8.704
  Name = 
  2 active torsions:
  status: ('A' for Active; 'I' for Inactive)
    1  A    between atoms: C_20  and  C_29
    2  A    between atoms: C_29  and  C_30
                            x       y       z     vdW  Elec       q    Type
                         _______ _______ _______ _____ _____    ______ ____

>  <TORSDO>
F 2

$$$$
=
 OpenBabel11122412593D

 32 38  0  0  1  0  0  0  0  0999 V2000
  161.9070  202.2260  147.9600 C   0  0  1  0  0  3  0  0  0  0  0  0
  161.2260  206.0670  151.0210 C   0  0  2  0  0  3  0  0  0  0  0  0
  162.6290  210.2470  148.6360 C   0  0  0  0  0  2  0  0  0  0  0  0
  161.9560  211.1050  149.7010 C   0  0  0  0  0  2  0  0  0  0  0  0
  160.8310  206.2220  153.5340 C   0  0  0  0  0  0  0  0  0  0  0  0
  160.7220  207.0090  154.6740 C   0  0  0  0  0  0  0  0  0  0  0  0
  160.6320  204.0920  149.9090 C   0  0  1  0  0  3  0  0  0  0  0  0
  161.3100  206.0510  148.4850 C   0  0  0  0  0  2  0  0  0  0  0  0
  160.7160  208.8060  155.8890 N   0  0  0  0  0  0  0  0  0  0  0  0
  161.7310  203.7060  147.6070 C   0  0  2  0  0  3  0  0  0  0  0  0
  161.8440  208.9550  148.4780 C   0  0  0  0  0  2  0  0  0  0  0  0
  161.0440  206.9080  149.7380 C   0  0  2  0  0  3  0  0  0  0  0  0
  161.9300  208.1510  149.7800 C   0  0  2  0  0  3  0  0  0  0  0  0
  161.2580  208.2990  152.2710 C   0  0  0  0  0  0  0  0  0  0  0  0
  160.4960  207.7510  156.6650 N   0  0  0  0  0  0  0  0  0  0  0  0
  161.9340  201.9160  149.4780 C   0  0  0  0  0  2  0  0  0  0  0  0
  161.6300  204.6060  148.8490 C   0  0  2  0  0  3  0  0  0  0  0  0
  160.4950  206.6280  155.9470 N   0  0  0  0  0  0  0  0  0  0  0  0
  160.9580  202.6810  150.3910 C   0  0  0  0  0  2  0  0  0  0  0  0
  160.5680  202.7280  147.4480 C   0  0  1  0  0  3  0  0  0  0  0  0
  161.6810  210.3300  150.9590 C   0  0  0  0  0  3  0  0  0  0  0  0
  161.5860  208.9880  150.9970 C   0  0  0  0  0  0  0  0  0  0  0  0
  161.1390  209.0480  153.4670 C   0  0  0  0  0  3  0  0  0  0  0  0
  160.3380  204.9670  150.9920 O   0  0  0  0  0  0  0  0  0  0  0  0
  160.7240  204.8390  153.6300 O   0  0  0  0  0  1  0  0  0  0  0  0
  160.7940  210.1790  156.3570 C   0  0  0  0  0  1  0  0  0  0  0  0
  161.0650  206.8780  152.2930 C   0  0  0  0  0  0  0  0  0  0  0  0
  160.8610  208.3560  154.6370 C   0  0  0  0  0  0  0  0  0  0  0  0
  160.4220  202.3630  145.9830 C   0  0  0  0  0  2  0  0  0  0  0  0
  160.0820  203.5930  145.1590 C   0  0  0  0  0  3  0  0  0  0  0  0
  161.3400  204.1830  144.5520 C   0  0  0  0  0  1  0  0  0  0  0  0
  159.1300  203.2030  144.0480 C   0  0  0  0  0  1  0  0  0  0  0  0
  1 16  1  1  0  0  0
  2 24  1  1  0  0  0
  2 27  1  0  0  0  0
  3  4  1  0  0  0  0
  4 21  1  0  0  0  0
  5 25  1  0  0  0  0
  5  6  1  0  0  0  0
  6 18  1  0  0  0  0
  7 19  1  1  0  0  0
  7 24  1  0  0  0  0
  8 17  1  0  0  0  0
  8 12  1  0  0  0  0
  9 26  1  0  0  0  0
  9 15  1  0  0  0  0
 10  1  1  0  0  0  0
 10 17  1  0  0  0  0
 11  3  1  0  0  0  0
 11 13  1  0  0  0  0
 12 13  1  0  0  0  0
 12  2  1  0  0  0  0
 13 22  1  0  0  0  0
 14 27  1  0  0  0  0
 14 23  2  0  0  0  0
 16 19  1  0  0  0  0
 17  7  1  0  0  0  0
 18 15  2  0  0  0  0
 20 10  1  0  0  0  0
 20  1  1  0  0  0  0
 21 22  2  0  0  0  0
 22 14  1  0  0  0  0
 23 28  1  0  0  0  0
 27  5  2  0  0  0  0
 28  6  2  0  0  0  0
 28  9  1  0  0  0  0
 29 20  1  0  0  0  0
 30 29  1  0  0  0  0
 31 30  1  0  0  0  0
 32 30  1  0  0  0  0
M  END
>  <MODEL>
4

>  <REMARK>
 VINA RESULT:      -6.9      1.144      1.586
  Name = 
  2 active torsions:
  status: ('A' for Active; 'I' for Inactive)
    1  A    between atoms: C_20  and  C_29
    2  A    between atoms: C_29  and  C_30
                            x       y       z     vdW  Elec       q    Type
                         _______ _______ _______ _____ _____    ______ ____

>  <TORSDO>
F 2

$$$$
=
 OpenBabel11122412593D

 32 38  0  0  1  0  0  0  0  0999 V2000
  161.0720  212.8760  147.1630 C   0  0  1  0  0  3  0  0  0  0  0  0
  161.1930  209.8590  151.0950 C   0  0  2  0  0  3  0  0  0  0  0  0
  161.1810  205.1250  149.4470 C   0  0  0  0  0  2  0  0  0  0  0  0
  161.5710  204.6200  150.8310 C   0  0  0  0  0  2  0  0  0  0  0  0
  160.7630  210.2410  153.5780 C   0  0  0  0  0  0  0  0  0  0  0  0
  160.5910  209.7110  154.8510 C   0  0  0  0  0  0  0  0  0  0  0  0
  161.8650  211.6760  149.7770 C   0  0  1  0  0  3  0  0  0  0  0  0
  161.9400  209.3970  148.7150 C   0  0  0  0  0  2  0  0  0  0  0  0
  160.4260  208.2000  156.3980 N   0  0  0  0  0  0  0  0  0  0  0  0
  161.5380  211.4190  147.2310 C   0  0  2  0  0  3  0  0  0  0  0  0
  161.8060  206.4930  149.2290 C   0  0  0  0  0  2  0  0  0  0  0  0
  161.8880  208.8500  150.1540 C   0  0  2  0  0  3  0  0  0  0  0  0
  161.2000  207.4880  150.2240 C   0  0  2  0  0  3  0  0  0  0  0  0
  161.0350  207.9270  152.7660 C   0  0  0  0  0  0  0  0  0  0  0  0
  160.2470  209.4000  156.9370 N   0  0  0  0  0  0  0  0  0  0  0  0
  160.5130  213.4460  148.4910 C   0  0  0  0  0  2  0  0  0  0  0  0
  161.3400  210.7960  148.6230 C   0  0  2  0  0  3  0  0  0  0  0  0
  160.3420  210.3530  156.0090 N   0  0  0  0  0  0  0  0  0  0  0  0
  161.2260  213.0610  149.8010 C   0  0  0  0  0  2  0  0  0  0  0  0
  162.5580  212.5560  147.1950 C   0  0  1  0  0  3  0  0  0  0  0  0
  161.3210  205.6490  151.8980 C   0  0  0  0  0  3  0  0  0  0  0  0
  161.2300  206.9680  151.6490 C   0  0  0  0  0  0  0  0  0  0  0  0
  160.8500  207.4450  154.0840 C   0  0  0  0  0  3  0  0  0  0  0  0
  161.8970  211.0850  151.0720 O   0  0  0  0  0  0  0  0  0  0  0  0
  160.6580  211.6140  153.3760 O   0  0  0  0  0  1  0  0  0  0  0  0
  160.3730  206.9450  157.1290 C   0  0  0  0  0  1  0  0  0  0  0  0
  161.0310  209.3390  152.5120 C   0  0  0  0  0  0  0  0  0  0  0  0
  160.6420  208.3780  155.0900 C   0  0  0  0  0  0  0  0  0  0  0  0
  163.1260  212.6710  145.7940 C   0  0  0  0  0  2  0  0  0  0  0  0
  162.2060  213.4980  144.9130 C   0  0  0  0  0  3  0  0  0  0  0  0
  163.0160  214.4350  144.0390 C   0  0  0  0  0  1  0  0  0  0  0  0
  161.3940  212.5730  144.0310 C   0  0  0  0  0  1  0  0  0  0  0  0
  1 20  1  0  0  0  0
  1 10  1  0  0  0  0
  1 16  1  1  0  0  0
  2 24  1  1  0  0  0
  2 27  1  0  0  0  0
  3  4  1  0  0  0  0
  4 21  1  0  0  0  0
  5  6  1  0  0  0  0
  6 28  2  0  0  0  0
  6 18  1  0  0  0  0
  7 19  1  1  0  0  0
  7 24  1  0  0  0  0
  8 12  1  0  0  0  0
  9 15  1  0  0  0  0
  9 26  1  0  0  0  0
 10 17  1  0  0  0  0
 11  3  1  0  0  0  0
 11 13  1  0  0  0  0
 12 13  1  0  0  0  0
 12  2  1  0  0  0  0
 13 22  1  0  0  0  0
 14 23  2  0  0  0  0
 16 19  1  0  0  0  0
 17  8  1  0  0  0  0
 17  7  1  0  0  0  0
 18 15  2  0  0  0  0
 20 10  1  0  0  0  0
 22 21  2  0  0  0  0
 22 14  1  0  0  0  0
 23 28  1  0  0  0  0
 25  5  1  0  0  0  0
 27 14  1  0  0  0  0
 27  5  2  0  0  0  0
 28  9  1  0  0  0  0
 29 20  1  0  0  0  0
 30 29  1  0  0  0  0
 31 30  1  0  0  0  0
 32 30  1  0  0  0  0
M  END
>  <MODEL>
5

>  <REMARK>
 VINA RESULT:      -6.4      2.756      6.983
  Name = 
  2 active torsions:
  status: ('A' for Active; 'I' for Inactive)
    1  A    between atoms: C_20  and  C_29
    2  A    between atoms: C_29  and  C_30
                            x       y       z     vdW  Elec       q    Type
                         _______ _______ _______ _____ _____    ______ ____

>  <TORSDO>
F 2

$$$$
