=
 OpenBabel11122413483D

 37 43  0  0  1  0  0  0  0  0999 V2000
  161.2820  210.7010  156.2490 C   0  0  0  0  0  0  0  0  0  0  0  0
  160.1000  212.0060  152.6090 C   0  0  2  0  0  3  0  0  0  0  0  0
  161.9830  210.6810  149.4500 O   0  0  0  0  0  0  0  0  0  0  0  0
  159.4920  211.9700  154.9460 C   0  0  0  0  0  0  0  0  0  0  0  0
  160.6800  211.0070  151.6470 C   0  0  1  0  0  3  0  0  0  0  0  0
  159.7760  211.1050  153.7550 C   0  0  2  0  0  3  0  0  0  0  0  0
  161.4170  211.6150  150.3900 C   0  0  2  0  0  3  0  0  0  0  0  0
  158.6440  212.9950  154.7490 C   0  0  0  0  0  3  0  0  0  0  0  0
  160.9330  210.1200  153.8060 C   0  0  2  0  0  3  0  0  0  0  0  0
  160.5940  209.4230  156.7010 C   0  0  0  0  0  1  0  0  0  0  0  0
  159.0900  213.9540  151.2830 C   0  0  0  0  0  2  0  0  0  0  0  0
  157.9640  213.1890  153.3970 C   0  0  0  0  0  2  0  0  0  0  0  0
  161.9510  210.5030  154.8830 C   0  0  0  0  0  2  0  0  0  0  0  0
  162.3150  208.1920  149.3500 C   0  0  1  0  0  3  0  0  0  0  0  0
  161.4940  209.3990  149.7170 C   0  0  1  0  0  3  0  0  0  0  0  0
  158.8200  212.7370  152.1760 C   0  0  2  0  0  3  0  0  0  0  0  0
  161.5580  210.1550  152.4800 N   0  0  1  0  0  0  0  0  0  0  0  0
  160.2710  211.8560  156.2280 C   0  0  0  0  0  2  0  0  0  0  0  0
  160.5310  212.6440  149.6560 C   0  0  1  0  0  3  0  0  0  0  0  0
  162.3580  211.0360  157.2600 C   0  0  0  0  0  1  0  0  0  0  0  0
  162.4990  208.8490  150.7170 C   0  0  1  0  0  3  0  0  0  0  0  0
  161.5960  208.7940  151.9330 C   0  0  0  0  0  2  0  0  0  0  0  0
  160.3970  213.9130  150.4900 C   0  0  0  0  0  2  0  0  0  0  0  0
  162.0860  213.8740  148.2300 C   0  0  0  0  0  3  0  0  0  0  0  0
  161.0670  213.0010  148.2990 C   0  0  0  0  0  0  0  0  0  0  0  0
  160.3390  212.5340  147.0530 C   0  0  0  0  0  2  0  0  0  0  0  0
  160.1940  212.6420  144.5750 C   0  0  0  0  0  1  0  0  0  0  0  0
  161.6910  214.2100  145.7830 C   0  0  0  0  0  2  0  0  0  0  0  0
  161.1160  212.8010  145.7640 C   0  0  1  0  0  3  0  0  0  0  0  0
  162.6940  214.3130  146.9260 C   0  0  0  0  0  2  0  0  0  0  0  0
  160.1550  204.4150  149.9570 O   0  0  0  0  0  0  0  0  0  0  0  0
  161.1770  204.7050  150.6350 C   0  0  0  0  0  0  0  0  0  0  0  0
  161.5020  206.9410  149.4600 C   0  0  0  0  0  0  0  0  0  0  0  0
  161.8700  205.9420  150.4200 N   0  0  0  0  0  2  0  0  0  0  0  0
  160.5250  206.7620  148.6830 O   0  0  0  0  0  0  0  0  0  0  0  0
  161.2070  202.4480  151.6100 C   0  0  0  0  0  1  0  0  0  0  0  0
  161.6240  203.8050  151.6000 O   0  0  0  0  0  0  0  0  0  0  0  0
  1 10  1  0  0  0  0
  1 20  1  0  0  0  0
  2  6  1  0  0  0  0
  3 15  1  0  0  0  0
  3  7  1  0  0  0  0
  4 18  1  0  0  0  0
  5 17  1  0  0  0  0
  5  2  1  0  0  0  0
  6  9  1  0  0  0  0
  6  4  1  0  0  0  0
  7  5  1  0  0  0  0
  8  4  2  0  0  0  0
  9 13  1  0  0  0  0
 11 16  1  0  0  0  0
 12  8  1  0  0  0  0
 13  1  1  0  0  0  0
 14 33  1  0  0  0  0
 14 15  1  0  0  0  0
 14 21  1  0  0  0  0
 15 21  1  0  0  0  0
 16  2  1  0  0  0  0
 16 12  1  0  0  0  0
 17  9  1  0  0  0  0
 18  1  1  0  0  0  0
 19  7  1  0  0  0  0
 19 23  1  0  0  0  0
 21 22  1  0  0  0  0
 22 17  1  0  0  0  0
 23 11  1  0  0  0  0
 24 25  2  0  0  0  0
 25 19  1  0  0  0  0
 26 25  1  0  0  0  0
 27 29  1  0  0  0  0
 28 30  1  0  0  0  0
 29 28  1  0  0  0  0
 29 26  1  0  0  0  0
 30 24  1  0  0  0  0
 31 32  2  0  0  0  0
 32 37  1  0  0  0  0
 33 34  1  0  0  0  0
 34 32  1  0  0  0  0
 35 33  2  0  0  0  0
 37 36  1  0  0  0  0
M  END
>  <MODEL>
1

>  <REMARK>
 VINA RESULT:      -7.0      0.000      0.000
  Name = 
  3 active torsions:
  status: ('A' for Active; 'I' for Inactive)
    1  A    between atoms: C_4  and  O_37
    2  A    between atoms: C_8  and  C_18
    3  A    between atoms: C_23  and  C_30
                            x       y       z     vdW  Elec       q    Type
                         _______ _______ _______ _____ _____    ______ ____

>  <TORSDO>
F 3

$$$$
=
 OpenBabel11122413483D

 37 43  0  0  1  0  0  0  0  0999 V2000
  162.8920  204.9910  146.5930 C   0  0  0  0  0  0  0  0  0  0  0  0
  161.2380  205.9270  150.1620 C   0  0  2  0  0  3  0  0  0  0  0  0
  162.0460  209.4110  151.7370 O   0  0  0  0  0  0  0  0  0  0  0  0
  161.1700  204.3260  148.3550 C   0  0  0  0  0  0  0  0  0  0  0  0
  161.3640  207.4220  150.2520 C   0  0  1  0  0  3  0  0  0  0  0  0
  160.9920  205.7740  148.6960 C   0  0  2  0  0  3  0  0  0  0  0  0
  161.9150  207.9810  151.6220 C   0  0  2  0  0  3  0  0  0  0  0  0
  160.5370  203.4440  149.1490 C   0  0  0  0  0  3  0  0  0  0  0  0
  161.8940  206.8120  148.0480 C   0  0  2  0  0  3  0  0  0  0  0  0
  162.0650  205.4290  145.3940 C   0  0  0  0  0  1  0  0  0  0  0  0
  160.3970  205.0220  152.4090 C   0  0  0  0  0  2  0  0  0  0  0  0
  159.6320  203.9290  150.2780 C   0  0  0  0  0  2  0  0  0  0  0  0
  163.1830  206.1820  147.5160 C   0  0  0  0  0  2  0  0  0  0  0  0
  161.8090  211.3800  150.1930 C   0  0  1  0  0  3  0  0  0  0  0  0
  161.3670  210.0270  150.6810 C   0  0  1  0  0  3  0  0  0  0  0  0
  160.0790  205.2710  150.9300 C   0  0  2  0  0  3  0  0  0  0  0  0
  162.2020  207.7950  149.0920 N   0  0  1  0  0  0  0  0  0  0  0  0
  162.1710  203.8560  147.3350 C   0  0  0  0  0  2  0  0  0  0  0  0
  161.1280  207.4160  152.8230 C   0  0  1  0  0  3  0  0  0  0  0  0
  164.2120  204.4540  146.0810 C   0  0  0  0  0  1  0  0  0  0  0  0
  162.4280  210.1170  149.5960 C   0  0  1  0  0  3  0  0  0  0  0  0
  161.8270  209.1310  148.6150 C   0  0  0  0  0  2  0  0  0  0  0  0
  161.4560  205.9410  153.0200 C   0  0  0  0  0  2  0  0  0  0  0  0
  161.7030  207.4410  155.1970 C   0  0  0  0  0  3  0  0  0  0  0  0
  161.4140  208.1580  154.0980 C   0  0  0  0  0  0  0  0  0  0  0  0
  161.1820  209.6560  154.1670 C   0  0  0  0  0  2  0  0  0  0  0  0
  161.1370  211.6810  155.6070 C   0  0  0  0  0  1  0  0  0  0  0  0
  161.3170  209.4380  156.6540 C   0  0  0  0  0  2  0  0  0  0  0  0
  161.7100  210.2880  155.4560 C   0  0  1  0  0  3  0  0  0  0  0  0
  161.9930  208.0760  156.5300 C   0  0  0  0  0  2  0  0  0  0  0  0
  159.0630  213.0330  147.1900 O   0  0  0  0  0  0  0  0  0  0  0  0
  160.1930  212.5790  146.8680 C   0  0  0  0  0  0  0  0  0  0  0  0
  160.7940  211.9710  149.2670 C   0  0  0  0  0  0  0  0  0  0  0  0
  161.0770  212.0460  147.8640 N   0  0  0  0  0  2  0  0  0  0  0  0
  159.7170  212.4310  149.7350 O   0  0  0  0  0  0  0  0  0  0  0  0
  159.6800  212.2230  144.4900 C   0  0  0  0  0  1  0  0  0  0  0  0
  160.5730  212.6000  145.5270 O   0  0  0  0  0  0  0  0  0  0  0  0
  1 18  1  0  0  0  0
  1 13  1  0  0  0  0
  2  5  1  0  0  0  0
  2 16  1  0  0  0  0
  4  6  1  0  0  0  0
  4  8  2  0  0  0  0
  5  7  1  0  0  0  0
  6  2  1  0  0  0  0
  7  3  1  0  0  0  0
  7 19  1  0  0  0  0
  8 12  1  0  0  0  0
  9  6  1  0  0  0  0
  9 17  1  0  0  0  0
 10  1  1  0  0  0  0
 11 23  1  0  0  0  0
 12 16  1  0  0  0  0
 13  9  1  0  0  0  0
 14 15  1  0  0  0  0
 15  3  1  0  0  0  0
 16 11  1  0  0  0  0
 17  5  1  0  0  0  0
 18  4  1  0  0  0  0
 19 23  1  0  0  0  0
 19 25  1  0  0  0  0
 20  1  1  0  0  0  0
 21 14  1  0  0  0  0
 21 15  1  0  0  0  0
 22 17  1  0  0  0  0
 22 21  1  0  0  0  0
 24 30  1  0  0  0  0
 25 26  1  0  0  0  0
 25 24  2  0  0  0  0
 26 29  1  0  0  0  0
 29 27  1  0  0  0  0
 29 28  1  0  0  0  0
 30 28  1  0  0  0  0
 32 31  2  0  0  0  0
 32 34  1  0  0  0  0
 33 35  2  0  0  0  0
 33 14  1  0  0  0  0
 34 33  1  0  0  0  0
 36 37  1  0  0  0  0
 37 32  1  0  0  0  0
M  END
>  <MODEL>
2

>  <REMARK>
 VINA RESULT:      -4.9      2.522      8.550
  Name = 
  3 active torsions:
  status: ('A' for Active; 'I' for Inactive)
    1  A    between atoms: C_4  and  O_37
    2  A    between atoms: C_8  and  C_18
    3  A    between atoms: C_23  and  C_30
                            x       y       z     vdW  Elec       q    Type
                         _______ _______ _______ _____ _____    ______ ____

>  <TORSDO>
F 3

$$$$
=
 OpenBabel11122413483D

 37 43  0  0  1  0  0  0  0  0999 V2000
  162.9190  204.9680  146.5820 C   0  0  0  0  0  0  0  0  0  0  0  0
  161.2560  205.9680  150.1300 C   0  0  2  0  0  3  0  0  0  0  0  0
  162.0360  209.4920  151.6300 O   0  0  0  0  0  0  0  0  0  0  0  0
  161.2010  204.3280  148.3580 C   0  0  0  0  0  0  0  0  0  0  0  0
  161.3700  207.4660  150.1880 C   0  0  1  0  0  3  0  0  0  0  0  0
  161.0110  205.7820  148.6680 C   0  0  2  0  0  3  0  0  0  0  0  0
  161.9160  208.0590  151.5450 C   0  0  2  0  0  3  0  0  0  0  0  0
  160.5750  203.4580  149.1710 C   0  0  0  0  0  3  0  0  0  0  0  0
  161.9060  206.8120  147.9980 C   0  0  2  0  0  3  0  0  0  0  0  0
  162.0890  205.3740  145.3750 C   0  0  0  0  0  1  0  0  0  0  0  0
  160.4220  205.1050  152.3960 C   0  0  0  0  0  2  0  0  0  0  0  0
  159.6650  203.9600  150.2880 C   0  0  0  0  0  2  0  0  0  0  0  0
  163.2000  206.1810  147.4790 C   0  0  0  0  0  2  0  0  0  0  0  0
  161.7840  211.4250  150.0440 C   0  0  1  0  0  3  0  0  0  0  0  0
  161.3530  210.0800  150.5610 C   0  0  1  0  0  3  0  0  0  0  0  0
  160.1020  205.3200  150.9120 C   0  0  2  0  0  3  0  0  0  0  0  0
  162.2060  207.8210  149.0200 N   0  0  1  0  0  0  0  0  0  0  0  0
  162.2070  203.8440  147.3490 C   0  0  0  0  0  2  0  0  0  0  0  0
  161.1330  207.5140  152.7580 C   0  0  1  0  0  3  0  0  0  0  0  0
  164.2430  204.4310  146.0820 C   0  0  0  0  0  1  0  0  0  0  0  0
  162.4130  210.1550  149.4740 C   0  0  1  0  0  3  0  0  0  0  0  0
  161.8200  209.1430  148.5140 C   0  0  0  0  0  2  0  0  0  0  0  0
  161.4720  206.0460  152.9870 C   0  0  0  0  0  2  0  0  0  0  0  0
  161.7740  207.5980  155.1140 C   0  0  0  0  0  3  0  0  0  0  0  0
  161.4120  208.2850  154.0180 C   0  0  0  0  0  0  0  0  0  0  0  0
  161.0980  209.7680  154.0790 C   0  0  0  0  0  2  0  0  0  0  0  0
  160.9770  211.8030  155.4990 C   0  0  0  0  0  1  0  0  0  0  0  0
  161.3170  209.5860  156.5630 C   0  0  0  0  0  2  0  0  0  0  0  0
  161.6260  210.4440  155.3450 C   0  0  1  0  0  3  0  0  0  0  0  0
  162.0650  208.2640  156.4310 C   0  0  0  0  0  2  0  0  0  0  0  0
  158.6320  213.2490  147.5870 O   0  0  0  0  0  0  0  0  0  0  0  0
  158.6610  213.3990  148.8380 C   0  0  0  0  0  0  0  0  0  0  0  0
  160.7640  211.9880  149.1050 C   0  0  0  0  0  0  0  0  0  0  0  0
  159.6970  212.7930  149.6230 N   0  0  0  0  0  2  0  0  0  0  0  0
  160.8330  211.7190  147.8760 O   0  0  0  0  0  0  0  0  0  0  0  0
  156.3000  213.8000  149.3970 C   0  0  0  0  0  1  0  0  0  0  0  0
  157.6710  214.1660  149.4490 O   0  0  0  0  0  0  0  0  0  0  0  0
  1 18  1  0  0  0  0
  1 13  1  0  0  0  0
  2  5  1  0  0  0  0
  2 16  1  0  0  0  0
  4  6  1  0  0  0  0
  4  8  2  0  0  0  0
  5  7  1  0  0  0  0
  6  2  1  0  0  0  0
  7  3  1  0  0  0  0
  7 19  1  0  0  0  0
  8 12  1  0  0  0  0
  9  6  1  0  0  0  0
  9 17  1  0  0  0  0
 10  1  1  0  0  0  0
 11 23  1  0  0  0  0
 12 16  1  0  0  0  0
 13  9  1  0  0  0  0
 14 15  1  0  0  0  0
 15  3  1  0  0  0  0
 16 11  1  0  0  0  0
 17  5  1  0  0  0  0
 18  4  1  0  0  0  0
 19 23  1  0  0  0  0
 19 25  1  0  0  0  0
 20  1  1  0  0  0  0
 21 14  1  0  0  0  0
 21 15  1  0  0  0  0
 22 17  1  0  0  0  0
 22 21  1  0  0  0  0
 24 30  1  0  0  0  0
 25 26  1  0  0  0  0
 25 24  2  0  0  0  0
 26 29  1  0  0  0  0
 29 27  1  0  0  0  0
 29 28  1  0  0  0  0
 30 28  1  0  0  0  0
 31 32  2  0  0  0  0
 32 37  1  0  0  0  0
 32 34  1  0  0  0  0
 33 34  1  0  0  0  0
 33 14  1  0  0  0  0
 35 33  2  0  0  0  0
 36 37  1  0  0  0  0
M  END
>  <MODEL>
3

>  <REMARK>
 VINA RESULT:      -4.5      2.718      8.562
  Name = 
  3 active torsions:
  status: ('A' for Active; 'I' for Inactive)
    1  A    between atoms: C_4  and  O_37
    2  A    between atoms: C_8  and  C_18
    3  A    between atoms: C_23  and  C_30
                            x       y       z     vdW  Elec       q    Type
                         _______ _______ _______ _____ _____    ______ ____

>  <TORSDO>
F 3

$$$$
