=
 OpenBabel11122412483D

 32 37  0  0  1  0  0  0  0  0999 V2000
  159.3130  208.8760  156.2370 C   0  0  0  0  0  2  0  0  0  0  0  0
  161.6000  207.5430  151.7730 C   0  0  1  0  0  3  0  0  0  0  0  0
  161.9570  211.8480  149.2790 C   0  0  0  0  0  3  0  0  0  0  0  0
  162.2760  211.1430  148.1170 C   0  0  0  0  0  3  0  0  0  0  0  0
  161.2270  205.3840  150.3650 C   0  0  0  0  0  0  0  0  0  0  0  0
  161.0840  204.8910  148.9720 C   0  0  2  0  0  3  0  0  0  0  0  0
  161.4300  207.6510  154.2510 C   0  0  1  0  0  3  0  0  0  0  0  0
  161.7360  209.6880  153.0280 C   0  0  0  0  0  2  0  0  0  0  0  0
  162.0430  204.6130  147.0360 N   0  0  0  0  0  0  0  0  0  0  0  0
  161.5460  209.7890  155.3660 C   0  0  0  0  0  2  0  0  0  0  0  0
  161.6460  211.1570  150.4510 C   0  0  0  0  0  3  0  0  0  0  0  0
  161.2280  209.0330  151.7430 C   0  0  1  0  0  3  0  0  0  0  0  0
  161.6660  209.7540  150.4830 C   0  0  0  0  0  0  0  0  0  0  0  0
  162.0260  207.5360  149.3110 C   0  0  2  0  0  3  0  0  0  0  0  0
  161.5180  203.3710  147.4930 C   0  0  0  0  0  2  0  0  0  0  0  0
  159.4630  207.3830  155.8970 C   0  0  0  0  0  2  0  0  0  0  0  0
  161.0670  209.0800  154.1790 N   0  0  2  0  0  0  0  0  0  0  0  0
  161.0130  203.4690  148.6810 N   0  0  0  0  0  2  0  0  0  0  0  0
  160.8830  206.9540  155.5060 C   0  0  0  0  0  2  0  0  0  0  0  0
  160.6370  209.5690  156.5900 C   0  0  1  0  0  3  0  0  0  0  0  0
  162.2720  209.7480  148.1240 C   0  0  0  0  0  3  0  0  0  0  0  0
  161.9370  209.0400  149.2900 C   0  0  0  0  0  0  0  0  0  0  0  0
  161.8340  206.8300  147.9420 C   0  0  0  0  0  2  0  0  0  0  0  0
  160.9410  206.9160  153.0010 C   0  0  0  0  0  2  0  0  0  0  0  0
  161.3560  204.6400  151.3250 O   0  0  0  0  0  0  0  0  0  0  0  0
  162.9570  204.7030  145.9130 C   0  0  0  0  0  1  0  0  0  0  0  0
  161.1750  206.9020  150.4520 C   0  0  2  0  0  3  0  0  0  0  0  0
  162.1590  205.4270  148.1660 N   0  0  1  0  0  0  0  0  0  0  0  0
  160.3760  210.9070  157.2590 C   0  0  0  0  0  2  0  0  0  0  0  0
  159.3080  211.6590  156.5420 C   0  0  0  0  0  0  0  0  0  0  0  0
  158.0260  211.7220  157.0730 O   0  0  0  0  0  1  0  0  0  0  0  0
  159.5720  212.2610  155.4690 O   0  0  0  0  0  0  0  0  0  0  0  0
  1 20  1  0  0  0  0
  2 24  1  1  0  0  0
  3 11  1  0  0  0  0
  4 21  1  0  0  0  0
  4  3  2  0  0  0  0
  5 25  2  0  0  0  0
  6 18  1  1  0  0  0
  6  5  1  0  0  0  0
  7 24  1  6  0  0  0
  7 19  1  0  0  0  0
  9 15  1  0  0  0  0
  9 28  1  0  0  0  0
 10 20  1  0  0  0  0
 11 13  2  0  0  0  0
 12  2  1  0  0  0  0
 12  8  1  1  0  0  0
 13 12  1  0  0  0  0
 14 23  1  6  0  0  0
 14 27  1  0  0  0  0
 15 18  1  0  0  0  0
 16  1  1  0  0  0  0
 17  8  1  6  0  0  0
 17  7  1  0  0  0  0
 17 10  1  0  0  0  0
 19 16  1  0  0  0  0
 20 29  1  6  0  0  0
 21 22  2  0  0  0  0
 22 14  1  0  0  0  0
 22 13  1  0  0  0  0
 26  9  1  0  0  0  0
 27  5  1  1  0  0  0
 27  2  1  0  0  0  0
 28 23  1  6  0  0  0
 28  6  1  0  0  0  0
 30 31  1  0  0  0  0
 30 29  1  0  0  0  0
 32 30  2  0  0  0  0
M  END
>  <MODEL>
1

>  <REMARK>
 VINA RESULT:      -8.3      0.000      0.000
  Name = 
  2 active torsions:
  status: ('A' for Active; 'I' for Inactive)
    1  A    between atoms: C_20  and  C_29
    2  A    between atoms: C_29  and  C_30
                            x       y       z     vdW  Elec       q    Type
                         _______ _______ _______ _____ _____    ______ ____

>  <TORSDO>
F 2

$$$$
=
 OpenBabel11122412483D

 32 37  0  0  1  0  0  0  0  0999 V2000
  162.0440  202.0270  150.1750 C   0  0  0  0  0  2  0  0  0  0  0  0
  160.8700  206.6720  152.1700 C   0  0  1  0  0  3  0  0  0  0  0  0
  162.2180  209.8830  148.5980 C   0  0  0  0  0  3  0  0  0  0  0  0
  162.0890  210.9370  149.5040 C   0  0  0  0  0  3  0  0  0  0  0  0
  161.1270  207.4660  154.6360 C   0  0  0  0  0  0  0  0  0  0  0  0
  161.5420  208.6230  155.4690 C   0  0  2  0  0  3  0  0  0  0  0  0
  160.3540  204.3360  151.4930 C   0  0  1  0  0  3  0  0  0  0  0  0
  160.8760  205.9400  149.7910 C   0  0  0  0  0  2  0  0  0  0  0  0
  161.1310  210.6810  156.0520 N   0  0  0  0  0  0  0  0  0  0  0  0
  160.4160  203.7260  149.1570 C   0  0  0  0  0  2  0  0  0  0  0  0
  162.0200  208.5690  149.0250 C   0  0  0  0  0  3  0  0  0  0  0  0
  161.5640  206.8490  150.8100 C   0  0  1  0  0  3  0  0  0  0  0  0
  161.6740  208.2920  150.3570 C   0  0  0  0  0  0  0  0  0  0  0  0
  161.1670  209.0940  152.7060 C   0  0  2  0  0  3  0  0  0  0  0  0
  161.2100  209.8620  157.2140 C   0  0  0  0  0  2  0  0  0  0  0  0
  161.6620  202.1200  151.6620 C   0  0  0  0  0  2  0  0  0  0  0  0
  161.0360  204.5450  150.2000 N   0  0  2  0  0  0  0  0  0  0  0  0
  161.3680  208.6130  156.9120 N   0  0  0  0  0  2  0  0  0  0  0  0
  160.3510  202.8680  151.9420 C   0  0  0  0  0  2  0  0  0  0  0  0
  160.8670  202.2560  149.2150 C   0  0  1  0  0  3  0  0  0  0  0  0
  161.7740  210.6760  150.8380 C   0  0  0  0  0  3  0  0  0  0  0  0
  161.5970  209.3580  151.2860 C   0  0  0  0  0  0  0  0  0  0  0  0
  161.5730  210.1750  153.7450 C   0  0  0  0  0  2  0  0  0  0  0  0
  160.9970  205.2050  152.5770 C   0  0  0  0  0  2  0  0  0  0  0  0
  160.5670  206.4830  155.0960 O   0  0  0  0  0  0  0  0  0  0  0  0
  160.6170  212.0380  156.0930 C   0  0  0  0  0  1  0  0  0  0  0  0
  161.4940  207.6440  153.1710 C   0  0  2  0  0  3  0  0  0  0  0  0
  160.8890  209.8180  154.9810 N   0  0  1  0  0  0  0  0  0  0  0  0
  161.2250  201.7920  147.8140 C   0  0  0  0  0  2  0  0  0  0  0  0
  161.4790  202.9570  146.9190 C   0  0  0  0  0  0  0  0  0  0  0  0
  162.4040  203.9250  147.2860 O   0  0  0  0  0  1  0  0  0  0  0  0
  160.8780  203.0490  145.8170 O   0  0  0  0  0  0  0  0  0  0  0  0
  1 16  1  0  0  0  0
  2 24  1  1  0  0  0
  2 27  1  0  0  0  0
  3 11  2  0  0  0  0
  3  4  1  0  0  0  0
  4 21  2  0  0  0  0
  5 25  2  0  0  0  0
  6  5  1  6  0  0  0
  6 18  1  0  0  0  0
  7 19  1  1  0  0  0
  7 24  1  0  0  0  0
  8 17  1  0  0  0  0
  9 26  1  0  0  0  0
  9 15  1  0  0  0  0
 10 20  1  0  0  0  0
 11 13  1  0  0  0  0
 12  8  1  6  0  0  0
 12  2  1  0  0  0  0
 13 12  1  0  0  0  0
 13 22  2  0  0  0  0
 14 27  1  0  0  0  0
 14 23  1  1  0  0  0
 16 19  1  0  0  0  0
 17 10  1  6  0  0  0
 17  7  1  0  0  0  0
 18 15  1  0  0  0  0
 20 29  1  6  0  0  0
 20  1  1  0  0  0  0
 21 22  1  0  0  0  0
 22 14  1  0  0  0  0
 27  5  1  1  0  0  0
 28 23  1  6  0  0  0
 28  6  1  0  0  0  0
 28  9  1  0  0  0  0
 30 31  1  0  0  0  0
 30 29  1  0  0  0  0
 32 30  2  0  0  0  0
M  END
>  <MODEL>
2

>  <REMARK>
 VINA RESULT:      -8.2      2.181      7.754
  Name = 
  2 active torsions:
  status: ('A' for Active; 'I' for Inactive)
    1  A    between atoms: C_20  and  C_29
    2  A    between atoms: C_29  and  C_30
                            x       y       z     vdW  Elec       q    Type
                         _______ _______ _______ _____ _____    ______ ____

>  <TORSDO>
F 2

$$$$
=
 OpenBabel11122412483D

 32 37  0  0  1  0  0  0  0  0999 V2000
  161.9890  201.2560  149.2690 C   0  0  0  0  0  2  0  0  0  0  0  0
  160.8800  205.8900  151.3280 C   0  0  1  0  0  3  0  0  0  0  0  0
  162.4630  209.1370  147.8890 C   0  0  0  0  0  3  0  0  0  0  0  0
  162.3310  210.1740  148.8130 C   0  0  0  0  0  3  0  0  0  0  0  0
  161.0630  206.6190  153.8210 C   0  0  0  0  0  0  0  0  0  0  0  0
  161.4800  207.7430  154.6960 C   0  0  2  0  0  3  0  0  0  0  0  0
  160.3200  203.5870  150.5760 C   0  0  1  0  0  3  0  0  0  0  0  0
  160.9560  205.2120  148.9340 C   0  0  0  0  0  2  0  0  0  0  0  0
  161.1100  209.8000  155.3120 N   0  0  0  0  0  0  0  0  0  0  0  0
  160.4540  203.0290  148.2300 C   0  0  0  0  0  2  0  0  0  0  0  0
  162.2090  207.8210  148.2760 C   0  0  0  0  0  3  0  0  0  0  0  0
  161.6310  206.0760  150.0000 C   0  0  1  0  0  3  0  0  0  0  0  0
  161.8030  207.5240  149.5860 C   0  0  0  0  0  0  0  0  0  0  0  0
  161.2290  208.2880  151.9330 C   0  0  2  0  0  3  0  0  0  0  0  0
  161.1180  208.9520  156.4560 C   0  0  0  0  0  2  0  0  0  0  0  0
  161.5520  201.3280  150.7420 C   0  0  0  0  0  2  0  0  0  0  0  0
  161.0580  203.8030  149.3150 N   0  0  2  0  0  0  0  0  0  0  0  0
  161.2490  207.7060  156.1310 N   0  0  0  0  0  2  0  0  0  0  0  0
  160.2550  202.1100  150.9890 C   0  0  0  0  0  2  0  0  0  0  0  0
  160.8580  201.5440  148.2700 C   0  0  1  0  0  3  0  0  0  0  0  0
  161.9560  209.8930  150.1280 C   0  0  0  0  0  3  0  0  0  0  0  0
  161.7220  208.5710  150.5370 C   0  0  0  0  0  0  0  0  0  0  0  0
  161.6260  209.3320  153.0120 C   0  0  0  0  0  2  0  0  0  0  0  0
  160.9450  204.4100  151.7040 C   0  0  0  0  0  2  0  0  0  0  0  0
  160.4560  205.6430  154.2340 O   0  0  0  0  0  0  0  0  0  0  0  0
  160.6360  211.1700  155.3660 C   0  0  0  0  0  1  0  0  0  0  0  0
  161.4930  206.8180  152.3750 C   0  0  2  0  0  3  0  0  0  0  0  0
  160.8830  208.9690  154.2120 N   0  0  1  0  0  0  0  0  0  0  0  0
  161.2560  201.1010  146.8730 C   0  0  0  0  0  2  0  0  0  0  0  0
  160.8220  202.1010  145.8570 C   0  0  0  0  0  0  0  0  0  0  0  0
  161.5800  203.2430  145.6370 O   0  0  0  0  0  1  0  0  0  0  0  0
  159.7830  201.8980  145.1760 O   0  0  0  0  0  0  0  0  0  0  0  0
  1 16  1  0  0  0  0
  2 24  1  1  0  0  0
  2 27  1  0  0  0  0
  3 11  2  0  0  0  0
  3  4  1  0  0  0  0
  4 21  2  0  0  0  0
  5 25  2  0  0  0  0
  6  5  1  6  0  0  0
  6 18  1  0  0  0  0
  7 19  1  1  0  0  0
  7 24  1  0  0  0  0
  8 17  1  0  0  0  0
  9 26  1  0  0  0  0
  9 15  1  0  0  0  0
 10 20  1  0  0  0  0
 11 13  1  0  0  0  0
 12  8  1  6  0  0  0
 12  2  1  0  0  0  0
 13 12  1  0  0  0  0
 13 22  2  0  0  0  0
 14 27  1  0  0  0  0
 14 23  1  1  0  0  0
 16 19  1  0  0  0  0
 17 10  1  6  0  0  0
 17  7  1  0  0  0  0
 18 15  1  0  0  0  0
 20 29  1  6  0  0  0
 20  1  1  0  0  0  0
 21 22  1  0  0  0  0
 22 14  1  0  0  0  0
 27  5  1  1  0  0  0
 28 23  1  6  0  0  0
 28  6  1  0  0  0  0
 28  9  1  0  0  0  0
 30 29  1  0  0  0  0
 31 30  1  0  0  0  0
 32 30  2  0  0  0  0
M  END
>  <MODEL>
3

>  <REMARK>
 VINA RESULT:      -7.8      2.310      8.020
  Name = 
  2 active torsions:
  status: ('A' for Active; 'I' for Inactive)
    1  A    between atoms: C_20  and  C_29
    2  A    between atoms: C_29  and  C_30
                            x       y       z     vdW  Elec       q    Type
                         _______ _______ _______ _____ _____    ______ ____

>  <TORSDO>
F 2

$$$$
=
 OpenBabel11122412483D

 32 37  0  0  1  0  0  0  0  0999 V2000
  162.7690  209.9640  153.6000 C   0  0  0  0  0  2  0  0  0  0  0  0
  161.0140  206.6310  150.0290 C   0  0  1  0  0  3  0  0  0  0  0  0
  161.1640  202.2130  152.3390 C   0  0  0  0  0  3  0  0  0  0  0  0
  160.9650  201.5720  151.1150 C   0  0  0  0  0  3  0  0  0  0  0  0
  161.4700  206.6450  147.4650 C   0  0  0  0  0  0  0  0  0  0  0  0
  161.7680  205.7590  146.3130 C   0  0  2  0  0  3  0  0  0  0  0  0
  160.8720  208.6720  151.4410 C   0  0  1  0  0  3  0  0  0  0  0  0
  160.8120  206.5280  152.5070 C   0  0  0  0  0  2  0  0  0  0  0  0
  161.0520  204.1590  145.0190 N   0  0  0  0  0  0  0  0  0  0  0  0
  160.7070  208.4580  153.8410 C   0  0  0  0  0  2  0  0  0  0  0  0
  161.2930  203.6020  152.3860 C   0  0  0  0  0  3  0  0  0  0  0  0
  161.4510  205.8640  151.2870 C   0  0  1  0  0  3  0  0  0  0  0  0
  161.2080  204.3700  151.2140 C   0  0  0  0  0  0  0  0  0  0  0  0
  160.9060  204.5170  148.7020 C   0  0  2  0  0  3  0  0  0  0  0  0
  161.4610  205.2680  144.2260 C   0  0  0  0  0  2  0  0  0  0  0  0
  162.5990  210.4510  152.1510 C   0  0  0  0  0  2  0  0  0  0  0  0
  161.3020  207.9010  152.6250 N   0  0  2  0  0  0  0  0  0  0  0  0
  161.8140  206.2780  144.9560 N   0  0  0  0  0  2  0  0  0  0  0  0
  161.2230  210.1650  151.5340 C   0  0  0  0  0  2  0  0  0  0  0  0
  161.4420  209.7180  154.3330 C   0  0  1  0  0  3  0  0  0  0  0  0
  160.9080  202.3180  149.9370 C   0  0  0  0  0  3  0  0  0  0  0  0
  161.0620  203.7130  149.9680 C   0  0  0  0  0  0  0  0  0  0  0  0
  161.2400  203.7690  147.3830 C   0  0  0  0  0  2  0  0  0  0  0  0
  161.4840  208.0780  150.1710 C   0  0  0  0  0  2  0  0  0  0  0  0
  161.1880  207.8270  147.3400 O   0  0  0  0  0  0  0  0  0  0  0  0
  160.2940  203.0500  144.4700 C   0  0  0  0  0  1  0  0  0  0  0  0
  161.5760  205.9200  148.7980 C   0  0  2  0  0  3  0  0  0  0  0  0
  160.8290  204.6580  146.3040 N   0  0  1  0  0  0  0  0  0  0  0  0
  161.6730  209.6040  155.8300 C   0  0  0  0  0  2  0  0  0  0  0  0
  160.3860  209.3820  156.5490 C   0  0  0  0  0  0  0  0  0  0  0  0
  160.1690  208.1960  157.2370 O   0  0  0  0  0  1  0  0  0  0  0  0
  159.5060  210.2820  156.5580 O   0  0  0  0  0  0  0  0  0  0  0  0
  1 20  1  0  0  0  0
  2 24  1  1  0  0  0
  2 12  1  0  0  0  0
  3 11  1  0  0  0  0
  4  3  2  0  0  0  0
  6 18  1  6  0  0  0
  6  5  1  0  0  0  0
  7 24  1  6  0  0  0
  7 19  1  0  0  0  0
  7 17  1  0  0  0  0
  9 28  1  0  0  0  0
 10 20  1  0  0  0  0
 12  8  1  1  0  0  0
 13 12  1  0  0  0  0
 13 11  2  0  0  0  0
 14 23  1  6  0  0  0
 14 27  1  0  0  0  0
 14 22  1  0  0  0  0
 15 18  1  0  0  0  0
 15  9  1  0  0  0  0
 16  1  1  0  0  0  0
 17  8  1  6  0  0  0
 17 10  1  0  0  0  0
 19 16  1  0  0  0  0
 20 29  1  1  0  0  0
 21 22  2  0  0  0  0
 21  4  1  0  0  0  0
 22 13  1  0  0  0  0
 25  5  2  0  0  0  0
 26  9  1  0  0  0  0
 27  5  1  6  0  0  0
 27  2  1  0  0  0  0
 28  6  1  0  0  0  0
 28 23  1  1  0  0  0
 29 30  1  0  0  0  0
 30 32  2  0  0  0  0
 30 31  1  0  0  0  0
M  END
>  <MODEL>
4

>  <REMARK>
 VINA RESULT:      -7.5      2.137      4.633
  Name = 
  2 active torsions:
  status: ('A' for Active; 'I' for Inactive)
    1  A    between atoms: C_20  and  C_29
    2  A    between atoms: C_29  and  C_30
                            x       y       z     vdW  Elec       q    Type
                         _______ _______ _______ _____ _____    ______ ____

>  <TORSDO>
F 2

$$$$
=
 OpenBabel11122412483D

 32 37  0  0  1  0  0  0  0  0999 V2000
  159.5480  202.5020  144.7540 C   0  0  0  0  0  2  0  0  0  0  0  0
  161.6120  205.4810  148.4690 C   0  0  1  0  0  3  0  0  0  0  0  0
  160.4980  203.0720  152.6920 C   0  0  0  0  0  3  0  0  0  0  0  0
  160.8690  204.1990  153.4280 C   0  0  0  0  0  3  0  0  0  0  0  0
  161.6940  208.0820  148.5740 C   0  0  0  0  0  0  0  0  0  0  0  0
  161.5400  209.2330  149.4980 C   0  0  2  0  0  3  0  0  0  0  0  0
  161.6900  204.1570  146.3660 C   0  0  1  0  0  3  0  0  0  0  0  0
  161.2890  203.0140  148.4330 C   0  0  0  0  0  2  0  0  0  0  0  0
  162.3210  210.2800  151.2420 N   0  0  0  0  0  0  0  0  0  0  0  0
  161.3350  201.7700  146.4420 C   0  0  0  0  0  2  0  0  0  0  0  0
  160.5190  203.1110  151.2980 C   0  0  0  0  0  3  0  0  0  0  0  0
  160.8430  204.3130  149.1050 C   0  0  1  0  0  3  0  0  0  0  0  0
  160.9260  204.2710  150.6190 C   0  0  0  0  0  0  0  0  0  0  0  0
  161.7510  206.6660  150.6640 C   0  0  2  0  0  3  0  0  0  0  0  0
  162.2110  211.1870  150.1490 C   0  0  0  0  0  2  0  0  0  0  0  0
  160.0640  203.9010  144.3810 C   0  0  0  0  0  2  0  0  0  0  0  0
  160.9430  203.0590  147.0120 N   0  0  2  0  0  0  0  0  0  0  0  0
  161.8310  210.5900  149.0650 N   0  0  0  0  0  2  0  0  0  0  0  0
  161.4960  204.2020  144.8430 C   0  0  0  0  0  2  0  0  0  0  0  0
  160.6610  201.4960  145.0850 C   0  0  1  0  0  3  0  0  0  0  0  0
  161.2490  205.3680  152.7680 C   0  0  0  0  0  3  0  0  0  0  0  0
  161.2500  205.4290  151.3650 C   0  0  0  0  0  0  0  0  0  0  0  0
  161.6120  207.9940  151.4580 C   0  0  0  0  0  2  0  0  0  0  0  0
  161.2880  205.5020  146.9760 C   0  0  0  0  0  2  0  0  0  0  0  0
  162.1260  208.1940  147.4370 O   0  0  0  0  0  0  0  0  0  0  0  0
  163.0470  210.6100  152.4540 C   0  0  0  0  0  1  0  0  0  0  0  0
  161.2370  206.7720  149.1970 C   0  0  2  0  0  3  0  0  0  0  0  0
  162.3320  208.9980  150.6860 N   0  0  1  0  0  0  0  0  0  0  0  0
  160.1180  200.0780  145.0790 C   0  0  0  0  0  2  0  0  0  0  0  0
  161.1250  199.1220  145.6200 C   0  0  0  0  0  0  0  0  0  0  0  0
  161.5840  199.2590  146.9230 O   0  0  0  0  0  1  0  0  0  0  0  0
  161.5400  198.1730  144.9050 O   0  0  0  0  0  0  0  0  0  0  0  0
  1 20  1  0  0  0  0
  2 24  1  6  0  0  0
  2 12  1  0  0  0  0
  2 27  1  0  0  0  0
  3  4  1  0  0  0  0
  6  5  1  6  0  0  0
  6 28  1  0  0  0  0
  7 19  1  6  0  0  0
  7 24  1  0  0  0  0
  7 17  1  0  0  0  0
  9 26  1  0  0  0  0
 11  3  2  0  0  0  0
 12  8  1  6  0  0  0
 12 13  1  0  0  0  0
 13 11  1  0  0  0  0
 13 22  2  0  0  0  0
 14 22  1  0  0  0  0
 14 23  1  1  0  0  0
 15  9  1  0  0  0  0
 16  1  1  0  0  0  0
 16 19  1  0  0  0  0
 17 10  1  6  0  0  0
 17  8  1  0  0  0  0
 18  6  1  0  0  0  0
 18 15  1  0  0  0  0
 20 29  1  1  0  0  0
 20 10  1  0  0  0  0
 21  4  2  0  0  0  0
 22 21  1  0  0  0  0
 25  5  2  0  0  0  0
 27  5  1  6  0  0  0
 27 14  1  0  0  0  0
 28  9  1  0  0  0  0
 28 23  1  1  0  0  0
 29 30  1  0  0  0  0
 30 31  1  0  0  0  0
 32 30  2  0  0  0  0
M  END
>  <MODEL>
5

>  <REMARK>
 VINA RESULT:      -5.7      3.749      9.506
  Name = 
  2 active torsions:
  status: ('A' for Active; 'I' for Inactive)
    1  A    between atoms: C_20  and  C_29
    2  A    between atoms: C_29  and  C_30
                            x       y       z     vdW  Elec       q    Type
                         _______ _______ _______ _____ _____    ______ ____

>  <TORSDO>
F 2

$$$$
=
 OpenBabel11122412483D

 32 37  0  0  1  0  0  0  0  0999 V2000
  159.8310  213.4470  147.0220 C   0  0  0  0  0  2  0  0  0  0  0  0
  161.2410  210.7710  151.2390 C   0  0  1  0  0  3  0  0  0  0  0  0
  161.9460  206.1360  149.5350 C   0  0  0  0  0  3  0  0  0  0  0  0
  161.9850  205.6640  150.8470 C   0  0  0  0  0  3  0  0  0  0  0  0
  160.3340  211.0160  153.6680 C   0  0  0  0  0  0  0  0  0  0  0  0
  159.9250  210.2340  154.8610 C   0  0  2  0  0  3  0  0  0  0  0  0
  161.4300  212.6430  149.6150 C   0  0  1  0  0  3  0  0  0  0  0  0
  161.8920  210.4160  148.8630 C   0  0  0  0  0  2  0  0  0  0  0  0
  160.5520  208.8870  156.4530 N   0  0  0  0  0  0  0  0  0  0  0  0
  162.0420  212.1830  147.3250 C   0  0  0  0  0  2  0  0  0  0  0  0
  161.6910  207.4850  149.2860 C   0  0  0  0  0  3  0  0  0  0  0  0
  161.1140  209.8210  150.0380 C   0  0  1  0  0  3  0  0  0  0  0  0
  161.4870  208.3840  150.3450 C   0  0  0  0  0  0  0  0  0  0  0  0
  161.3190  208.8460  152.8300 C   0  0  2  0  0  3  0  0  0  0  0  0
  159.9000  210.0210  157.0160 C   0  0  0  0  0  2  0  0  0  0  0  0
  159.6900  214.1100  148.4020 C   0  0  0  0  0  2  0  0  0  0  0  0
  161.2980  211.6990  148.4880 N   0  0  2  0  0  0  0  0  0  0  0  0
  159.5850  210.8920  156.1120 N   0  0  0  0  0  2  0  0  0  0  0  0
  160.9550  214.0620  149.2700 C   0  0  0  0  0  2  0  0  0  0  0  0
  161.2860  213.2830  146.5570 C   0  0  1  0  0  3  0  0  0  0  0  0
  161.7560  206.5390  151.9100 C   0  0  0  0  0  3  0  0  0  0  0  0
  161.4730  207.8930  151.6730 C   0  0  0  0  0  0  0  0  0  0  0  0
  160.8300  208.2160  154.1620 C   0  0  0  0  0  2  0  0  0  0  0  0
  160.6630  212.1250  150.8330 C   0  0  0  0  0  2  0  0  0  0  0  0
  160.4710  212.2290  153.6820 O   0  0  0  0  0  0  0  0  0  0  0  0
  161.3060  207.9460  157.2610 C   0  0  0  0  0  1  0  0  0  0  0  0
  160.5410  210.1390  152.4420 C   0  0  2  0  0  3  0  0  0  0  0  0
  160.9520  209.2630  155.1690 N   0  0  1  0  0  0  0  0  0  0  0  0
  161.3390  212.9750  145.0710 C   0  0  0  0  0  2  0  0  0  0  0  0
  162.6290  213.4330  144.4810 C   0  0  0  0  0  0  0  0  0  0  0  0
  163.3490  214.4510  145.0910 O   0  0  0  0  0  1  0  0  0  0  0  0
  163.0800  212.8790  143.4450 O   0  0  0  0  0  0  0  0  0  0  0  0
  1 16  1  0  0  0  0
  2 24  1  6  0  0  0
  2 27  1  0  0  0  0
  3  4  1  0  0  0  0
  4 21  2  0  0  0  0
  5 25  2  0  0  0  0
  6  5  1  6  0  0  0
  6 28  1  0  0  0  0
  6 18  1  0  0  0  0
  7 19  1  6  0  0  0
  7 24  1  0  0  0  0
  9 15  1  0  0  0  0
  9 26  1  0  0  0  0
 11  3  2  0  0  0  0
 11 13  1  0  0  0  0
 12  8  1  6  0  0  0
 12 13  1  0  0  0  0
 12  2  1  0  0  0  0
 13 22  2  0  0  0  0
 14 23  1  1  0  0  0
 16 19  1  0  0  0  0
 17 10  1  6  0  0  0
 17  8  1  0  0  0  0
 17  7  1  0  0  0  0
 18 15  1  0  0  0  0
 20 29  1  6  0  0  0
 20  1  1  0  0  0  0
 20 10  1  0  0  0  0
 22 21  1  0  0  0  0
 22 14  1  0  0  0  0
 27 14  1  0  0  0  0
 27  5  1  1  0  0  0
 28 23  1  6  0  0  0
 28  9  1  0  0  0  0
 30 29  1  0  0  0  0
 30 31  1  0  0  0  0
 32 30  2  0  0  0  0
M  END
>  <MODEL>
6

>  <REMARK>
 VINA RESULT:      -5.3      3.607      8.312
  Name = 
  2 active torsions:
  status: ('A' for Active; 'I' for Inactive)
    1  A    between atoms: C_20  and  C_29
    2  A    between atoms: C_29  and  C_30
                            x       y       z     vdW  Elec       q    Type
                         _______ _______ _______ _____ _____    ______ ____

>  <TORSDO>
F 2

$$$$
