=
 OpenBabel11122412403D

 30 35  0  0  1  0  0  0  0  0999 V2000
  161.4110  208.6600  151.6950 C   0  0  0  0  0  0  0  0  0  0  0  0
  161.0420  209.5790  153.9680 C   0  0  0  0  0  0  0  0  0  0  0  0
  161.0000  204.7970  153.0410 N   0  0  0  0  0  0  0  0  0  0  0  0
  161.4750  207.5450  150.8190 C   0  0  0  0  0  0  0  0  0  0  0  0
  161.5870  209.9470  151.1740 O   0  0  0  0  0  0  0  0  0  0  0  0
  162.0240  209.3180  147.6880 O   0  0  0  0  0  0  0  0  0  0  0  0
  162.1850  205.6250  148.4450 C   0  0  1  0  0  3  0  0  0  0  0  0
  161.9030  209.1010  148.9260 C   0  0  0  0  0  0  0  0  0  0  0  0
  161.9530  204.5790  149.5090 C   0  0  2  0  0  3  0  0  0  0  0  0
  161.2300  204.1750  151.8650 C   0  0  0  0  0  0  0  0  0  0  0  0
  162.2050  210.1950  149.9120 C   0  0  1  0  0  3  0  0  0  0  0  0
  161.5630  207.7880  149.4020 N   0  0  0  0  0  0  0  0  0  0  0  0
  160.7770  209.3620  155.3240 C   0  0  0  0  0  3  0  0  0  0  0  0
  161.0510  203.5630  148.8390 C   0  0  0  0  0  2  0  0  0  0  0  0
  162.0780  204.8400  147.1530 C   0  0  0  0  0  2  0  0  0  0  0  0
  161.1990  210.8580  153.5430 F   0  0  0  0  0  0  0  0  0  0  0  0
  161.0750  206.0980  152.7180 C   0  0  0  0  0  0  0  0  0  0  0  0
  160.6070  208.0670  155.8150 C   0  0  0  0  0  3  0  0  0  0  0  0
  161.1410  208.4850  153.0790 C   0  0  0  0  0  0  0  0  0  0  0  0
  161.3380  206.2550  151.3810 C   0  0  0  0  0  0  0  0  0  0  0  0
  161.3370  202.6880  151.7780 C   0  0  0  0  0  1  0  0  0  0  0  0
  161.4340  205.0230  150.8170 N   0  0  0  0  0  0  0  0  0  0  0  0
  161.3160  203.6190  147.4060 N   0  0  0  0  0  2  0  0  0  0  0  0
  159.7170  206.3990  148.5290 C   0  0  0  0  0  1  0  0  0  0  0  0
  160.7010  206.9750  154.9530 C   0  0  0  0  0  3  0  0  0  0  0  0
  160.9640  207.1740  153.5940 C   0  0  0  0  0  0  0  0  0  0  0  0
  161.1920  206.7800  148.4220 C   0  0  2  0  0  3  0  0  0  0  0  0
  161.8190  211.5830  149.4000 C   0  0  0  0  0  2  0  0  0  0  0  0
  162.4900  213.0800  147.5840 C   0  0  0  0  0  2  0  0  0  0  0  0
  162.8320  212.1250  148.4430 C   0  0  0  0  0  3  0  0  0  0  0  0
  1 19  1  0  0  0  0
  2 13  1  0  0  0  0
  4 20  1  0  0  0  0
  4  1  2  0  0  0  0
  5  1  1  0  0  0  0
  6  8  2  0  0  0  0
  7 15  1  6  0  0  0
  7  9  1  0  0  0  0
  8 12  1  0  0  0  0
  8 11  1  0  0  0  0
  9 14  1  6  0  0  0
  9 22  1  0  0  0  0
 10  3  2  0  0  0  0
 11 28  1  6  0  0  0
 11  5  1  0  0  0  0
 12  4  1  0  0  0  0
 13 18  2  0  0  0  0
 15 23  1  0  0  0  0
 16  2  1  0  0  0  0
 17  3  1  0  0  0  0
 17 26  1  0  0  0  0
 19 26  1  0  0  0  0
 19  2  2  0  0  0  0
 20 17  2  0  0  0  0
 21 10  1  0  0  0  0
 22 20  1  0  0  0  0
 22 10  1  0  0  0  0
 23 14  1  0  0  0  0
 25 18  1  0  0  0  0
 26 25  2  0  0  0  0
 27  7  1  0  0  0  0
 27 24  1  1  0  0  0
 27 12  1  0  0  0  0
 29 30  2  0  0  0  0
 30 28  1  0  0  0  0
M  END
>  <MODEL>
1

>  <REMARK>
 VINA RESULT:      -7.5      0.000      0.000
  Name = 
  2 active torsions:
  status: ('A' for Active; 'I' for Inactive)
    1  A    between atoms: C_11  and  C_28
    2  A    between atoms: C_28  and  C_30
                            x       y       z     vdW  Elec       q    Type
                         _______ _______ _______ _____ _____    ______ ____

>  <TORSDO>
F 2

$$$$
=
 OpenBabel11122412403D

 30 35  0  0  1  0  0  0  0  0999 V2000
  161.0310  204.9940  149.2450 C   0  0  0  0  0  0  0  0  0  0  0  0
  161.0010  202.5330  148.9470 C   0  0  0  0  0  0  0  0  0  0  0  0
  161.0320  204.6360  153.3410 N   0  0  0  0  0  0  0  0  0  0  0  0
  161.0900  206.1240  150.1020 C   0  0  0  0  0  0  0  0  0  0  0  0
  161.0060  205.1890  147.8600 O   0  0  0  0  0  0  0  0  0  0  0  0
  161.2080  208.7410  147.5740 O   0  0  0  0  0  0  0  0  0  0  0  0
  160.7650  208.9970  151.3120 C   0  0  1  0  0  3  0  0  0  0  0  0
  161.0860  207.5990  148.0980 C   0  0  0  0  0  0  0  0  0  0  0  0
  160.7530  208.2150  152.6030 C   0  0  2  0  0  3  0  0  0  0  0  0
  161.0030  205.9530  153.6340 C   0  0  0  0  0  0  0  0  0  0  0  0
  160.6460  206.4320  147.2570 C   0  0  1  0  0  3  0  0  0  0  0  0
  161.2800  207.4250  149.5110 N   0  0  0  0  0  0  0  0  0  0  0  0
  160.9990  201.2540  149.5120 C   0  0  0  0  0  3  0  0  0  0  0  0
  161.7240  208.9580  153.4960 C   0  0  0  0  0  2  0  0  0  0  0  0
  161.0830  210.4100  151.7620 C   0  0  0  0  0  2  0  0  0  0  0  0
  160.9760  202.6350  147.5940 F   0  0  0  0  0  0  0  0  0  0  0  0
  161.0700  204.6220  151.9990 C   0  0  0  0  0  0  0  0  0  0  0  0
  161.0230  201.0900  150.8980 C   0  0  0  0  0  3  0  0  0  0  0  0
  161.0290  203.6760  149.7770 C   0  0  0  0  0  0  0  0  0  0  0  0
  161.0680  205.8980  151.4960 C   0  0  0  0  0  0  0  0  0  0  0  0
  160.8570  206.4370  155.0380 C   0  0  0  0  0  1  0  0  0  0  0  0
  161.0330  206.7680  152.5400 N   0  0  0  0  0  0  0  0  0  0  0  0
  161.7360  210.3510  153.0680 N   0  0  0  0  0  2  0  0  0  0  0  0
  163.2010  208.2940  150.7950 C   0  0  0  0  0  1  0  0  0  0  0  0
  161.0500  202.2060  151.7330 C   0  0  0  0  0  3  0  0  0  0  0  0
  161.0560  203.4930  151.1840 C   0  0  0  0  0  0  0  0  0  0  0  0
  161.7880  208.5520  150.2760 C   0  0  2  0  0  3  0  0  0  0  0  0
  161.1750  206.4960  145.8250 C   0  0  0  0  0  2  0  0  0  0  0  0
  160.7950  204.3980  144.6230 C   0  0  0  0  0  2  0  0  0  0  0  0
  161.6220  205.1550  145.3370 C   0  0  0  0  0  3  0  0  0  0  0  0
  1 19  2  0  0  0  0
  1  4  1  0  0  0  0
  2 13  2  0  0  0  0
  2 19  1  0  0  0  0
  3 10  2  0  0  0  0
  4 20  2  0  0  0  0
  5  1  1  0  0  0  0
  6  8  2  0  0  0  0
  7 15  1  1  0  0  0
  7  9  1  0  0  0  0
  8 12  1  0  0  0  0
  9 14  1  1  0  0  0
 10 21  1  0  0  0  0
 11 28  1  6  0  0  0
 11  5  1  0  0  0  0
 11  8  1  0  0  0  0
 12  4  1  0  0  0  0
 12 27  1  0  0  0  0
 13 18  1  0  0  0  0
 15 23  1  0  0  0  0
 16  2  1  0  0  0  0
 17  3  1  0  0  0  0
 18 25  2  0  0  0  0
 19 26  1  0  0  0  0
 20 17  1  0  0  0  0
 20 22  1  0  0  0  0
 22  9  1  0  0  0  0
 22 10  1  0  0  0  0
 23 14  1  0  0  0  0
 26 25  1  0  0  0  0
 26 17  2  0  0  0  0
 27 24  1  1  0  0  0
 27  7  1  0  0  0  0
 29 30  2  0  0  0  0
 30 28  1  0  0  0  0
M  END
>  <MODEL>
2

>  <REMARK>
 VINA RESULT:      -7.3      2.747      5.785
  Name = 
  2 active torsions:
  status: ('A' for Active; 'I' for Inactive)
    1  A    between atoms: C_11  and  C_28
    2  A    between atoms: C_28  and  C_30
                            x       y       z     vdW  Elec       q    Type
                         _______ _______ _______ _____ _____    ______ ____

>  <TORSDO>
F 2

$$$$
=
 OpenBabel11122412403D

 30 35  0  0  1  0  0  0  0  0999 V2000
  161.3120  208.7920  151.6640 C   0  0  0  0  0  0  0  0  0  0  0  0
  161.7110  211.0540  150.7300 C   0  0  0  0  0  0  0  0  0  0  0  0
  161.6280  207.0550  147.9520 N   0  0  0  0  0  0  0  0  0  0  0  0
  161.2170  207.3880  151.4770 C   0  0  0  0  0  0  0  0  0  0  0  0
  161.1680  209.3200  152.9520 O   0  0  0  0  0  0  0  0  0  0  0  0
  160.7050  206.3930  154.9410 O   0  0  0  0  0  0  0  0  0  0  0  0
  160.4510  204.3630  151.7700 C   0  0  1  0  0  3  0  0  0  0  0  0
  160.8240  207.1250  153.9200 C   0  0  0  0  0  0  0  0  0  0  0  0
  160.6590  204.3910  150.2750 C   0  0  2  0  0  3  0  0  0  0  0  0
  161.3780  205.7830  148.3300 C   0  0  0  0  0  0  0  0  0  0  0  0
  160.5530  208.6010  154.0210 C   0  0  1  0  0  3  0  0  0  0  0  0
  161.1310  206.5440  152.6420 N   0  0  0  0  0  0  0  0  0  0  0  0
  161.9750  211.8690  149.6250 C   0  0  0  0  0  3  0  0  0  0  0  0
  161.5330  203.1850  150.0000 C   0  0  0  0  0  2  0  0  0  0  0  0
  160.5340  202.8870  152.1080 C   0  0  0  0  0  2  0  0  0  0  0  0
  161.5850  211.6450  151.9450 F   0  0  0  0  0  0  0  0  0  0  0  0
  161.5850  207.7320  149.1100 C   0  0  0  0  0  0  0  0  0  0  0  0
  162.1130  211.3140  148.3510 C   0  0  0  0  0  3  0  0  0  0  0  0
  161.5820  209.6560  150.5680 C   0  0  0  0  0  0  0  0  0  0  0  0
  161.3220  206.8880  150.1600 C   0  0  0  0  0  0  0  0  0  0  0  0
  161.2330  204.6850  147.3280 C   0  0  0  0  0  1  0  0  0  0  0  0
  161.1930  205.6270  149.6720 N   0  0  0  0  0  0  0  0  0  0  0  0
  161.2650  202.2020  151.0440 N   0  0  0  0  0  2  0  0  0  0  0  0
  162.9380  204.9130  152.2260 C   0  0  0  0  0  1  0  0  0  0  0  0
  161.9880  209.9370  148.1720 C   0  0  0  0  0  3  0  0  0  0  0  0
  161.7260  209.1070  149.2680 C   0  0  0  0  0  0  0  0  0  0  0  0
  161.4730  205.1320  152.5970 C   0  0  2  0  0  3  0  0  0  0  0  0
  160.9730  209.1940  155.3650 C   0  0  0  0  0  2  0  0  0  0  0  0
  162.7970  210.6660  156.0700 C   0  0  0  0  0  2  0  0  0  0  0  0
  161.8310  210.4070  155.1940 C   0  0  0  0  0  3  0  0  0  0  0  0
  1  5  1  0  0  0  0
  2 16  1  0  0  0  0
  3 10  2  0  0  0  0
  3 17  1  0  0  0  0
  4  1  1  0  0  0  0
  4 12  1  0  0  0  0
  5 11  1  0  0  0  0
  7 15  1  1  0  0  0
  7 27  1  0  0  0  0
  8 11  1  0  0  0  0
  8  6  2  0  0  0  0
  9 14  1  1  0  0  0
  9  7  1  0  0  0  0
 10 22  1  0  0  0  0
 11 28  1  1  0  0  0
 12  8  1  0  0  0  0
 13  2  2  0  0  0  0
 14 23  1  0  0  0  0
 17 26  2  0  0  0  0
 17 20  1  0  0  0  0
 18 13  1  0  0  0  0
 19  2  1  0  0  0  0
 19  1  2  0  0  0  0
 20  4  2  0  0  0  0
 21 10  1  0  0  0  0
 22 20  1  0  0  0  0
 22  9  1  0  0  0  0
 23 15  1  0  0  0  0
 25 18  2  0  0  0  0
 25 26  1  0  0  0  0
 26 19  1  0  0  0  0
 27 24  1  6  0  0  0
 27 12  1  0  0  0  0
 30 28  1  0  0  0  0
 30 29  2  0  0  0  0
M  END
>  <MODEL>
3

>  <REMARK>
 VINA RESULT:      -6.5      1.637      4.884
  Name = 
  2 active torsions:
  status: ('A' for Active; 'I' for Inactive)
    1  A    between atoms: C_11  and  C_28
    2  A    between atoms: C_28  and  C_30
                            x       y       z     vdW  Elec       q    Type
                         _______ _______ _______ _____ _____    ______ ____

>  <TORSDO>
F 2

$$$$
=
 OpenBabel11122412403D

 30 35  0  0  1  0  0  0  0  0999 V2000
  161.4810  207.9640  151.4730 C   0  0  0  0  0  0  0  0  0  0  0  0
  161.9520  210.3450  150.9660 C   0  0  0  0  0  0  0  0  0  0  0  0
  161.6820  206.9360  147.4980 N   0  0  0  0  0  0  0  0  0  0  0  0
  161.3310  206.6240  151.0310 C   0  0  0  0  0  0  0  0  0  0  0  0
  161.3740  208.2480  152.8390 O   0  0  0  0  0  0  0  0  0  0  0  0
  160.8280  205.0210  154.2610 O   0  0  0  0  0  0  0  0  0  0  0  0
  160.4560  203.6240  150.7750 C   0  0  1  0  0  3  0  0  0  0  0  0
  160.9600  205.9260  153.3910 C   0  0  0  0  0  0  0  0  0  0  0  0
  160.6460  203.9220  149.3070 C   0  0  2  0  0  3  0  0  0  0  0  0
  161.3900  205.6250  147.6390 C   0  0  0  0  0  0  0  0  0  0  0  0
  160.7460  207.3650  153.7680 C   0  0  1  0  0  3  0  0  0  0  0  0
  161.2290  205.5810  152.0220 N   0  0  0  0  0  0  0  0  0  0  0  0
  162.2310  211.3410  150.0250 C   0  0  0  0  0  3  0  0  0  0  0  0
  161.4700  202.7590  148.7960 C   0  0  0  0  0  2  0  0  0  0  0  0
  160.4890  202.1100  150.8320 C   0  0  0  0  0  2  0  0  0  0  0  0
  161.8640  210.7040  152.2710 F   0  0  0  0  0  0  0  0  0  0  0  0
  161.6800  207.3870  148.7610 C   0  0  0  0  0  0  0  0  0  0  0  0
  162.3310  211.0280  148.6680 C   0  0  0  0  0  3  0  0  0  0  0  0
  161.7680  209.0070  150.5510 C   0  0  0  0  0  0  0  0  0  0  0  0
  161.4000  206.3740  149.6430 C   0  0  0  0  0  0  0  0  0  0  0  0
  161.1900  204.7380  146.4540 C   0  0  0  0  0  1  0  0  0  0  0  0
  161.2170  205.2300  148.9320 N   0  0  0  0  0  0  0  0  0  0  0  0
  161.1790  201.6090  149.6460 N   0  0  0  0  0  2  0  0  0  0  0  0
  162.9680  203.9950  151.2750 C   0  0  0  0  0  1  0  0  0  0  0  0
  162.1520  209.7140  148.2400 C   0  0  0  0  0  3  0  0  0  0  0  0
  161.8750  208.7040  149.1680 C   0  0  0  0  0  0  0  0  0  0  0  0
  161.5170  204.1910  151.7090 C   0  0  2  0  0  3  0  0  0  0  0  0
  161.2060  207.6840  155.1900 C   0  0  0  0  0  2  0  0  0  0  0  0
  160.0990  206.9800  157.2560 C   0  0  0  0  0  2  0  0  0  0  0  0
  160.0610  207.7180  156.1510 C   0  0  0  0  0  3  0  0  0  0  0  0
  1  5  1  0  0  0  0
  2 16  1  0  0  0  0
  3 10  2  0  0  0  0
  3 17  1  0  0  0  0
  4  1  1  0  0  0  0
  4 12  1  0  0  0  0
  5 11  1  0  0  0  0
  7 15  1  6  0  0  0
  7 27  1  0  0  0  0
  8 11  1  0  0  0  0
  8  6  2  0  0  0  0
  9 14  1  1  0  0  0
  9  7  1  0  0  0  0
 10 22  1  0  0  0  0
 11 28  1  1  0  0  0
 12  8  1  0  0  0  0
 13  2  2  0  0  0  0
 14 23  1  0  0  0  0
 17 26  2  0  0  0  0
 17 20  1  0  0  0  0
 18 13  1  0  0  0  0
 19  2  1  0  0  0  0
 19  1  2  0  0  0  0
 20  4  2  0  0  0  0
 21 10  1  0  0  0  0
 22  9  1  0  0  0  0
 22 20  1  0  0  0  0
 23 15  1  0  0  0  0
 25 18  2  0  0  0  0
 25 26  1  0  0  0  0
 26 19  1  0  0  0  0
 27 24  1  6  0  0  0
 27 12  1  0  0  0  0
 28 30  1  0  0  0  0
 30 29  2  0  0  0  0
M  END
>  <MODEL>
4

>  <REMARK>
 VINA RESULT:      -6.1      1.700      5.184
  Name = 
  2 active torsions:
  status: ('A' for Active; 'I' for Inactive)
    1  A    between atoms: C_11  and  C_28
    2  A    between atoms: C_28  and  C_30
                            x       y       z     vdW  Elec       q    Type
                         _______ _______ _______ _____ _____    ______ ____

>  <TORSDO>
F 2

$$$$
=
 OpenBabel11122412403D

 30 35  0  0  1  0  0  0  0  0999 V2000
  161.3740  207.8690  151.1530 C   0  0  0  0  0  0  0  0  0  0  0  0
  161.6020  205.6800  150.0100 C   0  0  0  0  0  0  0  0  0  0  0  0
  160.5250  206.0600  154.7450 N   0  0  0  0  0  0  0  0  0  0  0  0
  161.1590  208.6150  152.3410 C   0  0  0  0  0  0  0  0  0  0  0  0
  161.6330  208.5500  149.9580 O   0  0  0  0  0  0  0  0  0  0  0  0
  161.6120  211.9650  150.9930 O   0  0  0  0  0  0  0  0  0  0  0  0
  160.3580  210.8600  154.3760 C   0  0  1  0  0  3  0  0  0  0  0  0
  161.4700  210.7120  151.0390 C   0  0  0  0  0  0  0  0  0  0  0  0
  160.1310  209.6650  155.2700 C   0  0  2  0  0  3  0  0  0  0  0  0
  160.3300  207.1840  155.4680 C   0  0  0  0  0  0  0  0  0  0  0  0
  161.3140  209.9280  149.7660 C   0  0  1  0  0  3  0  0  0  0  0  0
  161.3690  210.0400  152.3050 N   0  0  0  0  0  0  0  0  0  0  0  0
  161.5790  204.2840  150.0730 C   0  0  0  0  0  3  0  0  0  0  0  0
  160.8270  210.0330  156.5640 C   0  0  0  0  0  2  0  0  0  0  0  0
  160.4610  212.0150  155.3540 C   0  0  0  0  0  2  0  0  0  0  0  0
  161.8600  206.2630  148.8120 F   0  0  0  0  0  0  0  0  0  0  0  0
  160.8500  206.5300  153.5310 C   0  0  0  0  0  0  0  0  0  0  0  0
  161.3180  203.6320  151.2790 C   0  0  0  0  0  3  0  0  0  0  0  0
  161.3620  206.4480  151.1720 C   0  0  0  0  0  0  0  0  0  0  0  0
  160.8570  207.9020  153.5230 C   0  0  0  0  0  0  0  0  0  0  0  0
  159.8490  207.1290  156.8800 C   0  0  0  0  0  1  0  0  0  0  0  0
  160.5300  208.3370  154.7680 N   0  0  0  0  0  0  0  0  0  0  0  0
  160.8200  211.4870  156.6680 N   0  0  0  0  0  2  0  0  0  0  0  0
  162.8960  210.3800  154.2160 C   0  0  0  0  0  1  0  0  0  0  0  0
  161.0780  204.3720  152.4350 C   0  0  0  0  0  3  0  0  0  0  0  0
  161.1000  205.7710  152.3910 C   0  0  0  0  0  0  0  0  0  0  0  0
  161.6120  210.8140  153.5120 C   0  0  2  0  0  3  0  0  0  0  0  0
  162.1310  210.5010  148.6080 C   0  0  0  0  0  2  0  0  0  0  0  0
  161.9530  212.6970  147.5420 C   0  0  0  0  0  2  0  0  0  0  0  0
  161.3700  211.5430  147.8530 C   0  0  0  0  0  3  0  0  0  0  0  0
  1 19  2  0  0  0  0
  1  4  1  0  0  0  0
  2 13  2  0  0  0  0
  2 19  1  0  0  0  0
  3 10  2  0  0  0  0
  4 20  2  0  0  0  0
  5  1  1  0  0  0  0
  6  8  2  0  0  0  0
  7  9  1  0  0  0  0
  7 15  1  1  0  0  0
  8 12  1  0  0  0  0
  9 14  1  1  0  0  0
 10 21  1  0  0  0  0
 11 28  1  6  0  0  0
 11  5  1  0  0  0  0
 11  8  1  0  0  0  0
 12  4  1  0  0  0  0
 12 27  1  0  0  0  0
 13 18  1  0  0  0  0
 14 23  1  0  0  0  0
 15 23  1  0  0  0  0
 16  2  1  0  0  0  0
 17  3  1  0  0  0  0
 18 25  2  0  0  0  0
 19 26  1  0  0  0  0
 20 17  1  0  0  0  0
 20 22  1  0  0  0  0
 22  9  1  0  0  0  0
 22 10  1  0  0  0  0
 26 25  1  0  0  0  0
 26 17  2  0  0  0  0
 27 24  1  1  0  0  0
 27  7  1  0  0  0  0
 29 30  2  0  0  0  0
 30 28  1  0  0  0  0
M  END
>  <MODEL>
5

>  <REMARK>
 VINA RESULT:      -6.0      2.507      5.652
  Name = 
  2 active torsions:
  status: ('A' for Active; 'I' for Inactive)
    1  A    between atoms: C_11  and  C_28
    2  A    between atoms: C_28  and  C_30
                            x       y       z     vdW  Elec       q    Type
                         _______ _______ _______ _____ _____    ______ ____

>  <TORSDO>
F 2

$$$$
=
 OpenBabel11122412403D

 30 35  0  0  1  0  0  0  0  0999 V2000
  161.4640  206.0140  150.2640 C   0  0  0  0  0  0  0  0  0  0  0  0
  161.1150  205.3330  152.6220 C   0  0  0  0  0  0  0  0  0  0  0  0
  160.8920  202.1700  148.9240 N   0  0  0  0  0  0  0  0  0  0  0  0
  161.4910  205.6840  148.8830 C   0  0  0  0  0  0  0  0  0  0  0  0
  161.6940  207.3390  150.6520 O   0  0  0  0  0  0  0  0  0  0  0  0
  162.1320  209.0000  147.5240 O   0  0  0  0  0  0  0  0  0  0  0  0
  162.1430  205.6340  145.8180 C   0  0  1  0  0  3  0  0  0  0  0  0
  161.9940  208.0640  148.3600 C   0  0  0  0  0  0  0  0  0  0  0  0
  161.8610  204.1630  146.0040 C   0  0  2  0  0  3  0  0  0  0  0  0
  161.1060  202.4060  147.6110 C   0  0  0  0  0  0  0  0  0  0  0  0
  162.3310  208.2970  149.8070 C   0  0  1  0  0  3  0  0  0  0  0  0
  161.5990  206.7540  147.9230 N   0  0  0  0  0  0  0  0  0  0  0  0
  160.8310  204.3290  153.5530 C   0  0  0  0  0  3  0  0  0  0  0  0
  160.9250  203.8170  144.8650 C   0  0  0  0  0  2  0  0  0  0  0  0
  162.0140  205.8280  144.3200 C   0  0  0  0  0  2  0  0  0  0  0  0
  161.3250  206.5920  153.0820 F   0  0  0  0  0  0  0  0  0  0  0  0
  161.0200  203.3860  149.4780 C   0  0  0  0  0  0  0  0  0  0  0  0
  160.6060  203.0160  153.1360 C   0  0  0  0  0  3  0  0  0  0  0  0
  161.1770  205.0260  151.2440 C   0  0  0  0  0  0  0  0  0  0  0  0
  161.2990  204.3320  148.5240 C   0  0  0  0  0  0  0  0  0  0  0  0
  161.1550  201.2940  146.6170 C   0  0  0  0  0  1  0  0  0  0  0  0
  161.3510  203.7150  147.3140 N   0  0  0  0  0  0  0  0  0  0  0  0
  161.2030  204.7420  143.7730 N   0  0  0  0  0  2  0  0  0  0  0  0
  159.7060  206.2750  146.4100 C   0  0  0  0  0  1  0  0  0  0  0  0
  160.6640  202.6950  151.7800 C   0  0  0  0  0  3  0  0  0  0  0  0
  160.9450  203.6870  150.8350 C   0  0  0  0  0  0  0  0  0  0  0  0
  161.1960  206.5870  146.5360 C   0  0  2  0  0  3  0  0  0  0  0  0
  162.0040  209.7130  150.2760 C   0  0  0  0  0  2  0  0  0  0  0  0
  160.8820  210.3250  152.3640 C   0  0  0  0  0  2  0  0  0  0  0  0
  161.9510  209.8080  151.7680 C   0  0  0  0  0  3  0  0  0  0  0  0
  1  5  1  0  0  0  0
  1 19  1  0  0  0  0
  2 16  1  0  0  0  0
  2 13  1  0  0  0  0
  3 17  1  0  0  0  0
  4  1  2  0  0  0  0
  6  8  2  0  0  0  0
  7 15  1  6  0  0  0
  7  9  1  0  0  0  0
  7 27  1  0  0  0  0
  8 11  1  0  0  0  0
  9 14  1  6  0  0  0
  9 22  1  0  0  0  0
 10  3  2  0  0  0  0
 11 28  1  1  0  0  0
 11  5  1  0  0  0  0
 12  8  1  0  0  0  0
 12  4  1  0  0  0  0
 17 26  1  0  0  0  0
 18 13  2  0  0  0  0
 19  2  2  0  0  0  0
 20  4  1  0  0  0  0
 20 17  2  0  0  0  0
 21 10  1  0  0  0  0
 22 10  1  0  0  0  0
 22 20  1  0  0  0  0
 23 15  1  0  0  0  0
 23 14  1  0  0  0  0
 25 18  1  0  0  0  0
 26 19  1  0  0  0  0
 26 25  2  0  0  0  0
 27 24  1  1  0  0  0
 27 12  1  0  0  0  0
 28 30  1  0  0  0  0
 30 29  2  0  0  0  0
M  END
>  <MODEL>
6

>  <REMARK>
 VINA RESULT:      -6.0      2.328      3.801
  Name = 
  2 active torsions:
  status: ('A' for Active; 'I' for Inactive)
    1  A    between atoms: C_11  and  C_28
    2  A    between atoms: C_28  and  C_30
                            x       y       z     vdW  Elec       q    Type
                         _______ _______ _______ _____ _____    ______ ____

>  <TORSDO>
F 2

$$$$
=
 OpenBabel11122412403D

 30 35  0  0  1  0  0  0  0  0999 V2000
  161.5170  205.6130  149.7730 C   0  0  0  0  0  0  0  0  0  0  0  0
  161.4080  204.4840  147.5680 C   0  0  0  0  0  0  0  0  0  0  0  0
  161.8920  209.3110  148.0160 N   0  0  0  0  0  0  0  0  0  0  0  0
  161.5900  206.8080  150.5360 C   0  0  0  0  0  0  0  0  0  0  0  0
  161.4170  204.3850  150.4370 O   0  0  0  0  0  0  0  0  0  0  0  0
  161.3460  205.3630  153.8680 O   0  0  0  0  0  0  0  0  0  0  0  0
  162.1570  208.8920  152.8080 C   0  0  1  0  0  3  0  0  0  0  0  0
  161.4670  205.4460  152.6150 C   0  0  0  0  0  0  0  0  0  0  0  0
  162.2580  209.8260  151.6260 C   0  0  2  0  0  3  0  0  0  0  0  0
  162.0080  210.0350  149.1490 C   0  0  0  0  0  0  0  0  0  0  0  0
  161.7720  204.2130  151.8080 C   0  0  1  0  0  3  0  0  0  0  0  0
  161.4020  206.7240  151.9630 N   0  0  0  0  0  0  0  0  0  0  0  0
  161.4090  204.5710  146.1730 C   0  0  0  0  0  3  0  0  0  0  0  0
  161.4100  211.0170  152.0200 C   0  0  0  0  0  2  0  0  0  0  0  0
  161.9460  209.8320  153.9790 C   0  0  0  0  0  2  0  0  0  0  0  0
  161.3080  203.2550  148.1330 F   0  0  0  0  0  0  0  0  0  0  0  0
  161.7260  208.0580  148.4680 C   0  0  0  0  0  0  0  0  0  0  0  0
  161.5100  205.8100  145.5380 C   0  0  0  0  0  3  0  0  0  0  0  0
  161.5110  205.6560  148.3520 C   0  0  0  0  0  0  0  0  0  0  0  0
  161.7350  208.0290  149.8400 C   0  0  0  0  0  0  0  0  0  0  0  0
  162.3090  211.4960  149.1140 C   0  0  0  0  0  1  0  0  0  0  0  0
  161.9090  209.2980  150.2930 N   0  0  0  0  0  0  0  0  0  0  0  0
  161.4200  211.0990  153.4760 N   0  0  0  0  0  2  0  0  0  0  0  0
  159.6530  208.4240  152.3480 C   0  0  0  0  0  1  0  0  0  0  0  0
  161.6120  206.9760  146.2950 C   0  0  0  0  0  3  0  0  0  0  0  0
  161.6120  206.9080  147.6930 C   0  0  0  0  0  0  0  0  0  0  0  0
  161.0200  207.8800  152.7580 C   0  0  2  0  0  3  0  0  0  0  0  0
  161.1120  202.9550  152.3700 C   0  0  0  0  0  2  0  0  0  0  0  0
  160.7080  201.3700  150.5490 C   0  0  0  0  0  2  0  0  0  0  0  0
  161.4680  201.7390  151.5750 C   0  0  0  0  0  3  0  0  0  0  0  0
  1  5  1  0  0  0  0
  1  4  1  0  0  0  0
  2 16  1  0  0  0  0
  2 19  1  0  0  0  0
  3 17  1  0  0  0  0
  3 10  2  0  0  0  0
  4 12  1  0  0  0  0
  5 11  1  0  0  0  0
  7 15  1  1  0  0  0
  8  6  2  0  0  0  0
  9 14  1  1  0  0  0
  9  7  1  0  0  0  0
 10 22  1  0  0  0  0
 11 28  1  1  0  0  0
 11  8  1  0  0  0  0
 12  8  1  0  0  0  0
 12 27  1  0  0  0  0
 13  2  2  0  0  0  0
 14 23  1  0  0  0  0
 17 20  1  0  0  0  0
 18 13  1  0  0  0  0
 18 25  2  0  0  0  0
 19  1  2  0  0  0  0
 20 22  1  0  0  0  0
 20  4  2  0  0  0  0
 21 10  1  0  0  0  0
 22  9  1  0  0  0  0
 23 15  1  0  0  0  0
 25 26  1  0  0  0  0
 26 19  1  0  0  0  0
 26 17  2  0  0  0  0
 27 24  1  6  0  0  0
 27  7  1  0  0  0  0
 29 30  2  0  0  0  0
 30 28  1  0  0  0  0
M  END
>  <MODEL>
7

>  <REMARK>
 VINA RESULT:      -5.1      2.787      7.286
  Name = 
  2 active torsions:
  status: ('A' for Active; 'I' for Inactive)
    1  A    between atoms: C_11  and  C_28
    2  A    between atoms: C_28  and  C_30
                            x       y       z     vdW  Elec       q    Type
                         _______ _______ _______ _____ _____    ______ ____

>  <TORSDO>
F 2

$$$$
=
 OpenBabel11122412403D

 30 35  0  0  1  0  0  0  0  0999 V2000
  161.4380  204.0480  147.8470 C   0  0  0  0  0  0  0  0  0  0  0  0
  161.2290  204.0780  145.3760 C   0  0  0  0  0  0  0  0  0  0  0  0
  161.5530  208.1540  148.0230 N   0  0  0  0  0  0  0  0  0  0  0  0
  161.5150  204.7490  149.0790 C   0  0  0  0  0  0  0  0  0  0  0  0
  161.4300  202.6490  147.8580 O   0  0  0  0  0  0  0  0  0  0  0  0
  161.5470  201.9010  151.3450 O   0  0  0  0  0  0  0  0  0  0  0  0
  162.1480  205.5610  152.0390 C   0  0  1  0  0  3  0  0  0  0  0  0
  161.5820  202.5690  150.2750 C   0  0  0  0  0  0  0  0  0  0  0  0
  162.1340  206.9440  151.4330 C   0  0  2  0  0  3  0  0  0  0  0  0
  161.7140  208.2700  149.3580 C   0  0  0  0  0  0  0  0  0  0  0  0
  161.8810  201.8790  148.9720 C   0  0  1  0  0  3  0  0  0  0  0  0
  161.4250  203.9970  150.3040 N   0  0  0  0  0  0  0  0  0  0  0  0
  161.1340  204.8070  144.1870 C   0  0  0  0  0  3  0  0  0  0  0  0
  161.2690  207.7540  152.3750 C   0  0  0  0  0  2  0  0  0  0  0  0
  161.9780  205.8280  153.5220 C   0  0  0  0  0  2  0  0  0  0  0  0
  161.2140  202.7230  145.3000 F   0  0  0  0  0  0  0  0  0  0  0  0
  161.4650  206.8280  147.8390 C   0  0  0  0  0  0  0  0  0  0  0  0
  161.1450  206.2020  144.2070 C   0  0  0  0  0  3  0  0  0  0  0  0
  161.3370  204.7500  146.6150 C   0  0  0  0  0  0  0  0  0  0  0  0
  161.5660  206.1600  149.0340 C   0  0  0  0  0  0  0  0  0  0  0  0
  161.9550  209.5940  150.0030 C   0  0  0  0  0  1  0  0  0  0  0  0
  161.7200  207.0790  150.0230 N   0  0  0  0  0  0  0  0  0  0  0  0
  161.3710  207.1460  153.6960 N   0  0  0  0  0  2  0  0  0  0  0  0
  159.6390  205.2000  151.5140 C   0  0  0  0  0  1  0  0  0  0  0  0
  161.2520  206.8820  145.4190 C   0  0  0  0  0  3  0  0  0  0  0  0
  161.3450  206.1690  146.6190 C   0  0  0  0  0  0  0  0  0  0  0  0
  161.0500  204.6180  151.5650 C   0  0  2  0  0  3  0  0  0  0  0  0
  161.3080  200.4640  148.9000 C   0  0  0  0  0  2  0  0  0  0  0  0
  161.5830  199.4160  146.7060 C   0  0  0  0  0  2  0  0  0  0  0  0
  160.8200  200.1300  147.5270 C   0  0  0  0  0  3  0  0  0  0  0  0
  1  5  1  0  0  0  0
  1  4  1  0  0  0  0
  2 19  1  0  0  0  0
  3 10  2  0  0  0  0
  4 12  1  0  0  0  0
  5 11  1  0  0  0  0
  7 15  1  1  0  0  0
  8 12  1  0  0  0  0
  8  6  2  0  0  0  0
  9  7  1  0  0  0  0
  9 14  1  1  0  0  0
 10 21  1  0  0  0  0
 10 22  1  0  0  0  0
 11 28  1  1  0  0  0
 11  8  1  0  0  0  0
 12 27  1  0  0  0  0
 13 18  1  0  0  0  0
 13  2  2  0  0  0  0
 14 23  1  0  0  0  0
 15 23  1  0  0  0  0
 16  2  1  0  0  0  0
 17  3  1  0  0  0  0
 17 20  1  0  0  0  0
 18 25  2  0  0  0  0
 19 26  1  0  0  0  0
 19  1  2  0  0  0  0
 20  4  2  0  0  0  0
 20 22  1  0  0  0  0
 22  9  1  0  0  0  0
 25 26  1  0  0  0  0
 26 17  2  0  0  0  0
 27 24  1  6  0  0  0
 27  7  1  0  0  0  0
 29 30  2  0  0  0  0
 30 28  1  0  0  0  0
M  END
>  <MODEL>
8

>  <REMARK>
 VINA RESULT:      -5.0      3.444      7.760
  Name = 
  2 active torsions:
  status: ('A' for Active; 'I' for Inactive)
    1  A    between atoms: C_11  and  C_28
    2  A    between atoms: C_28  and  C_30
                            x       y       z     vdW  Elec       q    Type
                         _______ _______ _______ _____ _____    ______ ____

>  <TORSDO>
F 2

$$$$
=
 OpenBabel11122412403D

 30 35  0  0  1  0  0  0  0  0999 V2000
  161.7540  206.7040  148.2750 C   0  0  0  0  0  0  0  0  0  0  0  0
  161.9580  205.7080  146.0140 C   0  0  0  0  0  0  0  0  0  0  0  0
  160.8080  203.0670  149.9420 N   0  0  0  0  0  0  0  0  0  0  0  0
  161.5330  206.5470  149.6690 C   0  0  0  0  0  0  0  0  0  0  0  0
  162.0460  207.9760  147.7710 O   0  0  0  0  0  0  0  0  0  0  0  0
  162.0750  209.9900  150.7170 O   0  0  0  0  0  0  0  0  0  0  0  0
  160.7420  207.0430  152.6610 C   0  0  1  0  0  3  0  0  0  0  0  0
  161.9080  208.9880  149.9680 C   0  0  0  0  0  0  0  0  0  0  0  0
  160.4760  205.5580  152.6090 C   0  0  2  0  0  3  0  0  0  0  0  0
  160.6230  203.4950  151.2090 C   0  0  0  0  0  0  0  0  0  0  0  0
  161.7580  209.1790  148.4840 C   0  0  1  0  0  3  0  0  0  0  0  0
  161.7720  207.6740  150.5340 N   0  0  0  0  0  0  0  0  0  0  0  0
  161.9060  204.5810  145.1880 C   0  0  0  0  0  3  0  0  0  0  0  0
  161.1570  205.0160  153.8480 C   0  0  0  0  0  2  0  0  0  0  0  0
  160.8510  207.3280  154.1460 C   0  0  0  0  0  2  0  0  0  0  0  0
  162.2480  206.9060  145.4450 F   0  0  0  0  0  0  0  0  0  0  0  0
  161.1630  204.1850  149.2900 C   0  0  0  0  0  0  0  0  0  0  0  0
  161.6120  203.3240  145.7200 C   0  0  0  0  0  3  0  0  0  0  0  0
  161.7130  205.5850  147.4000 C   0  0  0  0  0  0  0  0  0  0  0  0
  161.1970  205.2590  150.1430 C   0  0  0  0  0  0  0  0  0  0  0  0
  160.1170  202.5820  152.2750 C   0  0  0  0  0  1  0  0  0  0  0  0
  160.8570  204.8270  151.3860 N   0  0  0  0  0  0  0  0  0  0  0  0
  161.1770  206.0840  154.8400 N   0  0  0  0  0  2  0  0  0  0  0  0
  163.2730  206.7030  152.2380 C   0  0  0  0  0  1  0  0  0  0  0  0
  161.3670  203.1840  147.0850 C   0  0  0  0  0  3  0  0  0  0  0  0
  161.4170  204.3010  147.9260 C   0  0  0  0  0  0  0  0  0  0  0  0
  162.0090  207.5150  151.9600 C   0  0  2  0  0  3  0  0  0  0  0  0
  162.6060  210.3290  147.9410 C   0  0  0  0  0  2  0  0  0  0  0  0
  162.4360  212.7510  148.2470 C   0  0  0  0  0  2  0  0  0  0  0  0
  161.8420  211.6130  147.9020 C   0  0  0  0  0  3  0  0  0  0  0  0
  1  4  1  0  0  0  0
  2 19  1  0  0  0  0
  3 10  2  0  0  0  0
  4 20  2  0  0  0  0
  4 12  1  0  0  0  0
  5  1  1  0  0  0  0
  5 11  1  0  0  0  0
  7 15  1  1  0  0  0
  8 12  1  0  0  0  0
  8  6  2  0  0  0  0
  9  7  1  0  0  0  0
  9 14  1  1  0  0  0
 10 22  1  0  0  0  0
 10 21  1  0  0  0  0
 11 28  1  6  0  0  0
 11  8  1  0  0  0  0
 12 27  1  0  0  0  0
 13 18  1  0  0  0  0
 13  2  2  0  0  0  0
 14 23  1  0  0  0  0
 15 23  1  0  0  0  0
 16  2  1  0  0  0  0
 17  3  1  0  0  0  0
 17 20  1  0  0  0  0
 18 25  2  0  0  0  0
 19 26  1  0  0  0  0
 19  1  2  0  0  0  0
 20 22  1  0  0  0  0
 22  9  1  0  0  0  0
 25 26  1  0  0  0  0
 26 17  2  0  0  0  0
 27 24  1  6  0  0  0
 27  7  1  0  0  0  0
 30 28  1  0  0  0  0
 30 29  2  0  0  0  0
M  END
>  <MODEL>
9

>  <REMARK>
 VINA RESULT:      -4.7      2.134      5.421
  Name = 
  2 active torsions:
  status: ('A' for Active; 'I' for Inactive)
    1  A    between atoms: C_11  and  C_28
    2  A    between atoms: C_28  and  C_30
                            x       y       z     vdW  Elec       q    Type
                         _______ _______ _______ _____ _____    ______ ____

>  <TORSDO>
F 2

$$$$
