=
 OpenBabel11122413403D

 37 43  0  0  1  0  0  0  0  0999 V2000
  161.7800  210.0810  155.1230 O   0  0  0  0  0  0  0  0  0  0  0  0
  161.7710  206.2660  151.6100 C   0  0  0  0  0  0  0  0  0  0  0  0
  161.5180  210.5880  151.3830 C   0  0  1  0  0  3  0  0  0  0  0  0
  161.7490  210.2680  156.5180 C   0  0  2  0  0  3  0  0  0  0  0  0
  158.0560  211.2160  153.2030 C   0  0  0  0  0  2  0  0  0  0  0  0
  161.6020  208.3440  150.1550 C   0  0  1  0  0  3  0  0  0  0  0  0
  160.5370  210.7470  152.5430 C   0  0  1  0  0  3  0  0  0  0  0  0
  159.8620  211.9940  156.4320 C   0  0  2  0  0  3  0  0  0  0  0  0
  161.9780  209.1290  151.4240 C   0  0  2  0  0  3  0  0  0  0  0  0
  159.1680  211.3650  152.1480 C   0  0  2  0  0  3  0  0  0  0  0  0
  162.1500  209.0270  148.9040 C   0  0  0  0  0  2  0  0  0  0  0  0
  161.3160  211.7040  156.8310 C   0  0  0  0  0  2  0  0  0  0  0  0
  161.4900  208.5080  152.6740 N   0  0  2  0  0  0  0  0  0  0  0  0
  163.0530  205.9310  152.3500 C   0  0  0  0  0  1  0  0  0  0  0  0
  160.7110  212.5150  149.8790 C   0  0  0  0  0  2  0  0  0  0  0  0
  161.8720  210.5380  148.8700 C   0  0  0  0  0  2  0  0  0  0  0  0
  160.8940  207.1760  152.4800 C   0  0  0  0  0  2  0  0  0  0  0  0
  159.5850  211.4170  155.1150 N   0  0  2  0  0  0  0  0  0  0  0  0
  158.3460  211.9260  154.5320 C   0  0  0  0  0  2  0  0  0  0  0  0
  160.9590  211.0080  150.0030 C   0  0  1  0  0  3  0  0  0  0  0  0
  160.4400  209.3700  153.2070 C   0  0  1  0  0  3  0  0  0  0  0  0
  162.1240  206.9160  150.2650 C   0  0  0  0  0  2  0  0  0  0  0  0
  159.3100  212.8380  151.7080 C   0  0  1  0  0  3  0  0  0  0  0  0
  161.0190  204.9800  151.3440 C   0  0  0  0  0  1  0  0  0  0  0  0
  159.4240  210.0780  155.2960 O   0  0  0  0  0  0  0  0  0  0  0  0
  159.6790  213.3800  156.4160 O   0  0  0  0  0  1  0  0  0  0  0  0
  160.5660  209.4590  154.7370 C   0  0  2  0  0  3  0  0  0  0  0  0
  160.5600  213.1620  151.1260 O   0  0  0  0  0  0  0  0  0  0  0  0
  157.0390  213.8930  151.6620 C   0  0  0  0  0  3  0  0  0  0  0  0
  158.1300  213.3850  150.9500 C   0  0  0  0  0  0  0  0  0  0  0  0
  158.1200  213.4200  149.5470 C   0  0  0  0  0  3  0  0  0  0  0  0
  157.0120  213.9790  147.3810 C   0  0  0  0  0  1  0  0  0  0  0  0
  155.9290  214.4480  149.5820 C   0  0  0  0  0  3  0  0  0  0  0  0
  157.0200  213.9480  148.8660 C   0  0  0  0  0  0  0  0  0  0  0  0
  155.9380  214.4220  150.9800 C   0  0  0  0  0  3  0  0  0  0  0  0
  163.8260  211.2900  157.2600 N   0  0  0  0  0  1  0  0  0  0  0  0
  163.1300  210.0250  157.0960 C   0  0  0  0  0  2  0  0  0  0  0  0
  1  4  1  0  0  0  0
  2 14  1  0  0  0  0
  2 17  1  0  0  0  0
  3  9  1  0  0  0  0
  3  7  1  0  0  0  0
  4 12  1  0  0  0  0
  4 37  1  0  0  0  0
  5 19  1  0  0  0  0
  6 22  1  0  0  0  0
  6  9  1  0  0  0  0
  7 21  1  0  0  0  0
  8 12  1  0  0  0  0
  9 13  1  0  0  0  0
 10  7  1  0  0  0  0
 10  5  1  0  0  0  0
 11  6  1  0  0  0  0
 13 21  1  0  0  0  0
 15 20  1  0  0  0  0
 15 28  1  0  0  0  0
 16 11  1  0  0  0  0
 16 20  1  0  0  0  0
 17 13  1  0  0  0  0
 18 25  1  0  0  0  0
 18  8  1  0  0  0  0
 19 18  1  0  0  0  0
 20  3  1  0  0  0  0
 21 27  1  0  0  0  0
 22  2  1  0  0  0  0
 23 10  1  0  0  0  0
 24  2  1  0  0  0  0
 26  8  1  0  0  0  0
 27  1  1  0  0  0  0
 27 25  1  0  0  0  0
 28 23  1  0  0  0  0
 30 29  2  0  0  0  0
 30 23  1  0  0  0  0
 31 30  1  0  0  0  0
 32 34  1  0  0  0  0
 33 35  2  0  0  0  0
 34 31  2  0  0  0  0
 34 33  1  0  0  0  0
 35 29  1  0  0  0  0
 37 36  1  0  0  0  0
M  END
>  <MODEL>
1

>  <REMARK>
 VINA RESULT:      -6.4      0.000      0.000
  Name = 
  2 active torsions:
  status: ('A' for Active; 'I' for Inactive)
    1  A    between atoms: C_4  and  C_37
    2  A    between atoms: C_23  and  C_30
                            x       y       z     vdW  Elec       q    Type
                         _______ _______ _______ _____ _____    ______ ____

>  <TORSDO>
F 2

$$$$
