=
 OpenBabel11122413523D

 37 43  0  0  1  0  0  0  0  0999 V2000
  161.0430  211.4090  149.1260 C   0  0  0  0  0  2  0  0  0  0  0  0
  157.8790  213.5500  152.9870 C   0  0  0  0  0  0  0  0  0  0  0  0
  157.3920  213.8010  148.8630 C   0  0  0  0  0  0  0  0  0  0  0  0
  162.3620  210.9430  149.5520 N   0  0  0  0  0  0  0  0  0  0  0  0
  160.2900  213.9540  146.6210 O   0  0  0  0  0  0  0  0  0  0  0  0
  156.4340  214.1560  151.0530 C   0  0  0  0  0  0  0  0  0  0  0  0
  158.6130  213.4990  148.3420 N   0  0  0  0  0  0  0  0  0  0  0  0
  163.4320  212.3540  147.8550 C   0  0  0  0  0  0  0  0  0  0  0  0
  157.4700  213.8460  150.2150 C   0  0  0  0  0  0  0  0  0  0  0  0
  159.0060  213.5240  146.9450 C   0  0  0  0  0  0  0  0  0  0  0  0
  155.1910  214.4530  150.4710 C   0  0  0  0  0  3  0  0  0  0  0  0
  163.5890  211.6380  149.1640 C   0  0  0  0  0  2  0  0  0  0  0  0
  158.7200  213.5630  150.6090 C   0  0  0  0  0  0  0  0  0  0  0  0
  157.5960  212.0850  153.2680 C   0  0  0  0  0  1  0  0  0  0  0  0
  155.9560  213.9110  146.7650 C   0  0  0  0  0  2  0  0  0  0  0  0
  155.0550  214.3890  149.0590 C   0  0  0  0  0  3  0  0  0  0  0  0
  159.1230  213.6460  152.0520 C   0  0  0  0  0  2  0  0  0  0  0  0
  162.3760  213.4130  147.6690 C   0  0  1  0  0  3  0  0  0  0  0  0
  161.3690  213.0390  146.5890 C   0  0  0  0  0  2  0  0  0  0  0  0
  156.1550  214.0450  148.2360 C   0  0  0  0  0  0  0  0  0  0  0  0
  159.4370  213.3600  149.4370 C   0  0  0  0  0  0  0  0  0  0  0  0
  156.6880  214.1600  152.4320 O   0  0  0  0  0  0  0  0  0  0  0  0
  158.1530  213.1880  145.9450 C   0  0  0  0  0  0  0  0  0  0  0  0
  158.2080  214.2270  154.3010 C   0  0  0  0  0  1  0  0  0  0  0  0
  161.7780  213.8370  148.8860 O   0  0  0  0  0  0  0  0  0  0  0  0
  164.1860  212.0830  146.9340 O   0  0  0  0  0  0  0  0  0  0  0  0
  160.8650  212.9000  149.4480 C   0  0  2  0  0  3  0  0  0  0  0  0
  156.7590  212.7350  146.2440 C   0  0  0  0  0  2  0  0  0  0  0  0
  161.4520  209.2290  150.8600 O   0  0  0  0  0  0  0  0  0  0  0  0
  162.4750  209.8430  150.4540 C   0  0  0  0  0  3  0  0  0  0  0  0
  158.0490  214.3340  143.7250 C   0  0  0  0  0  3  0  0  0  0  0  0
  158.5350  213.2760  144.5110 C   0  0  0  0  0  0  0  0  0  0  0  0
  159.4170  212.3520  143.9260 C   0  0  0  0  0  3  0  0  0  0  0  0
  160.7120  211.4780  141.9790 C   0  0  0  0  0  1  0  0  0  0  0  0
  159.2850  213.5190  141.8110 C   0  0  0  0  0  3  0  0  0  0  0  0
  159.7860  212.4690  142.5840 C   0  0  0  0  0  0  0  0  0  0  0  0
  158.4180  214.4530  142.3820 C   0  0  0  0  0  3  0  0  0  0  0  0
  1  4  1  0  0  0  0
  2 14  1  0  0  0  0
  2 24  1  0  0  0  0
  3  9  1  0  0  0  0
  4 30  1  0  0  0  0
  5 10  1  0  0  0  0
  6 22  1  0  0  0  0
  7  3  1  0  0  0  0
  7 21  1  0  0  0  0
  8 12  1  0  0  0  0
  9 13  1  0  0  0  0
  9  6  2  0  0  0  0
 10  7  1  0  0  0  0
 11  6  1  0  0  0  0
 12  4  1  0  0  0  0
 13 17  1  0  0  0  0
 15 20  1  0  0  0  0
 16 11  2  0  0  0  0
 17  2  1  0  0  0  0
 18 19  1  6  0  0  0
 18  8  1  0  0  0  0
 18 25  1  0  0  0  0
 19  5  1  0  0  0  0
 20  3  2  0  0  0  0
 20 16  1  0  0  0  0
 21 27  1  0  0  0  0
 21 13  2  0  0  0  0
 22  2  1  0  0  0  0
 23 28  1  0  0  0  0
 23 10  2  0  0  0  0
 25 27  1  0  0  0  0
 26  8  2  0  0  0  0
 27  1  1  6  0  0  0
 28 15  1  0  0  0  0
 30 29  2  0  0  0  0
 31 32  1  0  0  0  0
 32 23  1  0  0  0  0
 33 32  2  0  0  0  0
 34 36  1  0  0  0  0
 35 37  1  0  0  0  0
 35 36  2  0  0  0  0
 36 33  1  0  0  0  0
 37 31  2  0  0  0  0
M  END
>  <MODEL>
1

>  <REMARK>
 VINA RESULT:      -3.1      0.000      0.000
  Name = 
  1 active torsions:
  status: ('A' for Active; 'I' for Inactive)
    1  A    between atoms: C_23  and  C_30
                            x       y       z     vdW  Elec       q    Type
                         _______ _______ _______ _____ _____    ______ ____

>  <TORSDO>
F 1

$$$$
=
 OpenBabel11122413523D

 37 43  0  0  1  0  0  0  0  0999 V2000
  160.8140  208.7180  151.2250 C   0  0  0  0  0  2  0  0  0  0  0  0
  161.8190  210.1270  156.3730 C   0  0  0  0  0  0  0  0  0  0  0  0
  159.8980  212.3730  153.4450 C   0  0  0  0  0  0  0  0  0  0  0  0
  161.5420  207.5570  150.7150 N   0  0  0  0  0  0  0  0  0  0  0  0
  160.8830  212.1260  149.9200 O   0  0  0  0  0  0  0  0  0  0  0  0
  160.4540  212.1230  155.7830 C   0  0  0  0  0  0  0  0  0  0  0  0
  160.2610  211.8010  152.2630 N   0  0  0  0  0  0  0  0  0  0  0  0
  162.3970  208.8860  148.8410 C   0  0  0  0  0  0  0  0  0  0  0  0
  160.5570  211.7730  154.4650 C   0  0  0  0  0  0  0  0  0  0  0  0
  159.9280  212.2550  150.9250 C   0  0  0  0  0  0  0  0  0  0  0  0
  159.6000  213.1900  156.1090 C   0  0  0  0  0  3  0  0  0  0  0  0
  162.6020  207.6850  149.7160 C   0  0  0  0  0  2  0  0  0  0  0  0
  161.3440  210.7970  153.9870 C   0  0  0  0  0  0  0  0  0  0  0  0
  160.8240  209.0150  156.6470 C   0  0  0  0  0  1  0  0  0  0  0  0
  158.1510  214.0570  152.6800 C   0  0  0  0  0  2  0  0  0  0  0  0
  158.8660  213.8290  155.0750 C   0  0  0  0  0  3  0  0  0  0  0  0
  162.2740  210.0340  154.8840 C   0  0  0  0  0  2  0  0  0  0  0  0
  162.3200  210.2730  149.4260 C   0  0  1  0  0  3  0  0  0  0  0  0
  160.9740  210.9360  149.1610 C   0  0  0  0  0  2  0  0  0  0  0  0
  158.9950  213.4160  153.7260 C   0  0  0  0  0  0  0  0  0  0  0  0
  161.1680  210.8240  152.6100 C   0  0  0  0  0  0  0  0  0  0  0  0
  161.2110  211.3970  156.7130 O   0  0  0  0  0  0  0  0  0  0  0  0
  158.7390  212.8390  150.6320 C   0  0  0  0  0  0  0  0  0  0  0  0
  163.0260  209.9100  157.2610 C   0  0  0  0  0  1  0  0  0  0  0  0
  162.7320  210.3380  150.7840 O   0  0  0  0  0  0  0  0  0  0  0  0
  162.3090  208.7340  147.6330 O   0  0  0  0  0  0  0  0  0  0  0  0
  161.7910  209.7990  151.7080 C   0  0  2  0  0  3  0  0  0  0  0  0
  157.6880  213.0130  151.6830 C   0  0  0  0  0  2  0  0  0  0  0  0
  160.4280  206.0920  152.1610 O   0  0  0  0  0  0  0  0  0  0  0  0
  161.2980  206.2630  151.2660 C   0  0  0  0  0  3  0  0  0  0  0  0
  157.0900  213.6320  148.9280 C   0  0  0  0  0  3  0  0  0  0  0  0
  158.4230  213.3630  149.2770 C   0  0  0  0  0  0  0  0  0  0  0  0
  159.4350  213.6480  148.3440 C   0  0  0  0  0  3  0  0  0  0  0  0
  160.2000  214.4530  146.1080 C   0  0  0  0  0  1  0  0  0  0  0  0
  157.7880  214.4170  146.7480 C   0  0  0  0  0  3  0  0  0  0  0  0
  159.1190  214.1660  147.0860 C   0  0  0  0  0  0  0  0  0  0  0  0
  156.7730  214.1520  147.6700 C   0  0  0  0  0  3  0  0  0  0  0  0
  2 14  1  0  0  0  0
  2 22  1  0  0  0  0
  2 24  1  0  0  0  0
  3 20  2  0  0  0  0
  3  9  1  0  0  0  0
  4  1  1  0  0  0  0
  4 30  1  0  0  0  0
  5 10  1  0  0  0  0
  6 11  1  0  0  0  0
  6 22  1  0  0  0  0
  7 21  1  0  0  0  0
  7  3  1  0  0  0  0
  8 18  1  0  0  0  0
  8 12  1  0  0  0  0
  9  6  2  0  0  0  0
 10  7  1  0  0  0  0
 12  4  1  0  0  0  0
 13  9  1  0  0  0  0
 13 17  1  0  0  0  0
 15 20  1  0  0  0  0
 16 11  2  0  0  0  0
 17  2  1  0  0  0  0
 18 19  1  1  0  0  0
 18 25  1  0  0  0  0
 19  5  1  0  0  0  0
 20 16  1  0  0  0  0
 21 13  2  0  0  0  0
 23 10  2  0  0  0  0
 23 28  1  0  0  0  0
 25 27  1  0  0  0  0
 26  8  2  0  0  0  0
 27  1  1  6  0  0  0
 27 21  1  0  0  0  0
 28 15  1  0  0  0  0
 30 29  2  0  0  0  0
 31 32  1  0  0  0  0
 32 23  1  0  0  0  0
 33 32  2  0  0  0  0
 34 36  1  0  0  0  0
 35 36  2  0  0  0  0
 35 37  1  0  0  0  0
 36 33  1  0  0  0  0
 37 31  2  0  0  0  0
M  END
>  <MODEL>
2

>  <REMARK>
 VINA RESULT:      -2.4      2.985      5.126
  Name = 
  1 active torsions:
  status: ('A' for Active; 'I' for Inactive)
    1  A    between atoms: C_23  and  C_30
                            x       y       z     vdW  Elec       q    Type
                         _______ _______ _______ _____ _____    ______ ____

>  <TORSDO>
F 1

$$$$
=
 OpenBabel11122413523D

 37 43  0  0  1  0  0  0  0  0999 V2000
  160.8290  208.6280  151.0350 C   0  0  0  0  0  2  0  0  0  0  0  0
  161.4040  210.0090  156.2570 C   0  0  0  0  0  0  0  0  0  0  0  0
  159.9280  212.3480  153.1490 C   0  0  0  0  0  0  0  0  0  0  0  0
  161.5290  207.4190  150.6020 N   0  0  0  0  0  0  0  0  0  0  0  0
  161.2420  212.0150  149.7400 O   0  0  0  0  0  0  0  0  0  0  0  0
  160.2320  212.0820  155.5320 C   0  0  0  0  0  0  0  0  0  0  0  0
  160.3710  211.7460  152.0100 N   0  0  0  0  0  0  0  0  0  0  0  0
  162.6480  208.6790  148.8210 C   0  0  0  0  0  0  0  0  0  0  0  0
  160.4440  211.7160  154.2300 C   0  0  0  0  0  0  0  0  0  0  0  0
  160.2020  212.2100  150.6460 C   0  0  0  0  0  0  0  0  0  0  0  0
  159.4190  213.2020  155.7690 C   0  0  0  0  0  3  0  0  0  0  0  0
  162.6890  207.4740  149.7140 C   0  0  0  0  0  2  0  0  0  0  0  0
  161.2110  210.6900  153.8350 C   0  0  0  0  0  0  0  0  0  0  0  0
  160.3180  208.9630  156.4320 C   0  0  0  0  0  1  0  0  0  0  0  0
  158.3750  214.1330  152.2120 C   0  0  0  0  0  2  0  0  0  0  0  0
  158.8330  213.8780  154.6670 C   0  0  0  0  0  3  0  0  0  0  0  0
  161.9970  209.8760  154.8200 C   0  0  0  0  0  2  0  0  0  0  0  0
  162.6010  210.0720  149.3950 C   0  0  1  0  0  3  0  0  0  0  0  0
  161.3320  210.8150  148.9960 C   0  0  0  0  0  2  0  0  0  0  0  0
  159.0690  213.4480  153.3380 C   0  0  0  0  0  0  0  0  0  0  0  0
  161.1750  210.7180  152.4460 C   0  0  0  0  0  0  0  0  0  0  0  0
  160.8450  211.3170  156.5330 O   0  0  0  0  0  0  0  0  0  0  0  0
  159.0870  212.8650  150.2340 C   0  0  0  0  0  0  0  0  0  0  0  0
  162.5000  209.7230  157.2610 C   0  0  0  0  0  1  0  0  0  0  0  0
  162.8790  210.1220  150.7860 O   0  0  0  0  0  0  0  0  0  0  0  0
  162.6720  208.5240  147.6110 O   0  0  0  0  0  0  0  0  0  0  0  0
  161.8190  209.6490  151.6130 C   0  0  2  0  0  3  0  0  0  0  0  0
  157.9490  213.1120  151.1750 C   0  0  0  0  0  2  0  0  0  0  0  0
  160.1870  206.0370  151.9310 O   0  0  0  0  0  0  0  0  0  0  0  0
  161.1510  206.1470  151.1280 C   0  0  0  0  0  3  0  0  0  0  0  0
  160.0480  213.9720  148.2080 C   0  0  0  0  0  3  0  0  0  0  0  0
  158.9410  213.3980  148.8540 C   0  0  0  0  0  0  0  0  0  0  0  0
  157.7290  213.2970  148.1510 C   0  0  0  0  0  3  0  0  0  0  0  0
  156.3280  213.6710  146.1180 C   0  0  0  0  0  1  0  0  0  0  0  0
  158.7260  214.3580  146.2180 C   0  0  0  0  0  3  0  0  0  0  0  0
  157.6200  213.7780  146.8440 C   0  0  0  0  0  0  0  0  0  0  0  0
  159.9410  214.4530  146.9000 C   0  0  0  0  0  3  0  0  0  0  0  0
  2 14  1  0  0  0  0
  2 22  1  0  0  0  0
  2 24  1  0  0  0  0
  3 20  2  0  0  0  0
  3  9  1  0  0  0  0
  4  1  1  0  0  0  0
  4 30  1  0  0  0  0
  5 10  1  0  0  0  0
  6 11  1  0  0  0  0
  6 22  1  0  0  0  0
  7 21  1  0  0  0  0
  7  3  1  0  0  0  0
  8 18  1  0  0  0  0
  8 12  1  0  0  0  0
  9  6  2  0  0  0  0
 10  7  1  0  0  0  0
 12  4  1  0  0  0  0
 13  9  1  0  0  0  0
 13 17  1  0  0  0  0
 15 20  1  0  0  0  0
 16 11  2  0  0  0  0
 17  2  1  0  0  0  0
 18 19  1  1  0  0  0
 18 25  1  0  0  0  0
 19  5  1  0  0  0  0
 20 16  1  0  0  0  0
 21 13  2  0  0  0  0
 23 10  2  0  0  0  0
 23 28  1  0  0  0  0
 25 27  1  0  0  0  0
 26  8  2  0  0  0  0
 27  1  1  6  0  0  0
 27 21  1  0  0  0  0
 28 15  1  0  0  0  0
 30 29  2  0  0  0  0
 31 32  1  0  0  0  0
 32 23  1  0  0  0  0
 33 32  2  0  0  0  0
 34 36  1  0  0  0  0
 35 36  2  0  0  0  0
 35 37  1  0  0  0  0
 36 33  1  0  0  0  0
 37 31  2  0  0  0  0
M  END
>  <MODEL>
3

>  <REMARK>
 VINA RESULT:      -2.1      2.905      4.983
  Name = 
  1 active torsions:
  status: ('A' for Active; 'I' for Inactive)
    1  A    between atoms: C_23  and  C_30
                            x       y       z     vdW  Elec       q    Type
                         _______ _______ _______ _____ _____    ______ ____

>  <TORSDO>
F 1

$$$$
=
 OpenBabel11122413523D

 37 43  0  0  1  0  0  0  0  0999 V2000
  158.7740  211.9380  139.7530 C   0  0  0  0  0  2  0  0  0  0  0  0
  163.7590  213.7360  138.5630 C   0  0  0  0  0  0  0  0  0  0  0  0
  161.7480  214.0170  142.1940 C   0  0  0  0  0  0  0  0  0  0  0  0
  157.9250  211.5780  138.6180 N   0  0  0  0  0  0  0  0  0  0  0  0
  158.1080  214.4530  142.3130 O   0  0  0  0  0  0  0  0  0  0  0  0
  163.8340  214.2520  140.9970 C   0  0  0  0  0  0  0  0  0  0  0  0
  160.4340  213.8290  141.8870 N   0  0  0  0  0  0  0  0  0  0  0  0
  156.1780  213.1030  139.4130 C   0  0  0  0  0  0  0  0  0  0  0  0
  162.4830  214.0450  141.0560 C   0  0  0  0  0  0  0  0  0  0  0  0
  159.2990  213.9110  142.7880 C   0  0  0  0  0  0  0  0  0  0  0  0
  164.5160  214.4530  142.2070 C   0  0  0  0  0  3  0  0  0  0  0  0
  156.7640  212.3800  138.2370 C   0  0  0  0  0  2  0  0  0  0  0  0
  161.6860  213.8620  139.9940 C   0  0  0  0  0  0  0  0  0  0  0  0
  164.0370  212.2490  138.4490 C   0  0  0  0  0  1  0  0  0  0  0  0
  161.6800  214.0420  144.7370 C   0  0  0  0  0  2  0  0  0  0  0  0
  163.7920  214.4020  143.4270 C   0  0  0  0  0  3  0  0  0  0  0  0
  162.2150  213.9540  138.5930 C   0  0  0  0  0  2  0  0  0  0  0  0
  157.0020  214.0730  140.2210 C   0  0  1  0  0  3  0  0  0  0  0  0
  157.1490  213.6330  141.6720 C   0  0  0  0  0  2  0  0  0  0  0  0
  162.3940  214.1670  143.4360 C   0  0  0  0  0  0  0  0  0  0  0  0
  160.4030  213.7400  140.5140 C   0  0  0  0  0  0  0  0  0  0  0  0
  164.4390  214.2540  139.7320 O   0  0  0  0  0  0  0  0  0  0  0  0
  159.3720  213.5210  144.0850 C   0  0  0  0  0  0  0  0  0  0  0  0
  164.3190  214.4160  137.3310 C   0  0  0  0  0  1  0  0  0  0  0  0
  158.2310  214.4240  139.6030 O   0  0  0  0  0  0  0  0  0  0  0  0
  155.0080  212.9130  139.7070 O   0  0  0  0  0  0  0  0  0  0  0  0
  159.2240  213.4020  139.6500 C   0  0  2  0  0  3  0  0  0  0  0  0
  160.6350  212.9470  144.6460 C   0  0  0  0  0  2  0  0  0  0  0  0
  159.2920  209.7710  138.0320 O   0  0  0  0  0  0  0  0  0  0  0  0
  158.2780  210.4760  137.7830 C   0  0  0  0  0  3  0  0  0  0  0  0
  157.0620  214.3260  144.6060 C   0  0  0  0  0  3  0  0  0  0  0  0
  158.2290  213.6660  145.0250 C   0  0  0  0  0  0  0  0  0  0  0  0
  158.2630  213.1120  146.3160 C   0  0  0  0  0  3  0  0  0  0  0  0
  157.2230  212.6510  148.5390 C   0  0  0  0  0  1  0  0  0  0  0  0
  156.0180  213.9040  146.7480 C   0  0  0  0  0  3  0  0  0  0  0  0
  157.1670  213.2350  147.1740 C   0  0  0  0  0  0  0  0  0  0  0  0
  155.9650  214.4480  145.4620 C   0  0  0  0  0  3  0  0  0  0  0  0
  2 17  1  0  0  0  0
  2 22  1  0  0  0  0
  3 20  1  0  0  0  0
  4  1  1  0  0  0  0
  5 10  1  0  0  0  0
  6  9  1  0  0  0  0
  6 11  2  0  0  0  0
  7  3  1  0  0  0  0
  7 10  1  0  0  0  0
  8 26  2  0  0  0  0
  8 18  1  0  0  0  0
  9  3  2  0  0  0  0
 10 23  2  0  0  0  0
 11 16  1  0  0  0  0
 12  4  1  0  0  0  0
 12  8  1  0  0  0  0
 13 21  2  0  0  0  0
 13  9  1  0  0  0  0
 14  2  1  0  0  0  0
 16 20  2  0  0  0  0
 17 13  1  0  0  0  0
 18 19  1  1  0  0  0
 19  5  1  0  0  0  0
 20 15  1  0  0  0  0
 21  7  1  0  0  0  0
 22  6  1  0  0  0  0
 23 28  1  0  0  0  0
 23 32  1  0  0  0  0
 24  2  1  0  0  0  0
 25 27  1  0  0  0  0
 25 18  1  0  0  0  0
 27  1  1  1  0  0  0
 27 21  1  0  0  0  0
 28 15  1  0  0  0  0
 30 29  2  0  0  0  0
 30  4  1  0  0  0  0
 31 32  2  0  0  0  0
 31 37  1  0  0  0  0
 32 33  1  0  0  0  0
 33 36  2  0  0  0  0
 35 36  1  0  0  0  0
 36 34  1  0  0  0  0
 37 35  2  0  0  0  0
M  END
>  <MODEL>
4

>  <REMARK>
 VINA RESULT:      -1.5      4.537     10.031
  Name = 
  1 active torsions:
  status: ('A' for Active; 'I' for Inactive)
    1  A    between atoms: C_23  and  C_30
                            x       y       z     vdW  Elec       q    Type
                         _______ _______ _______ _____ _____    ______ ____

>  <TORSDO>
F 1

$$$$
=
 OpenBabel11122413523D

 37 43  0  0  1  0  0  0  0  0999 V2000
  160.5980  210.9470  147.9830 C   0  0  0  0  0  2  0  0  0  0  0  0
  161.5970  205.9230  146.1770 C   0  0  0  0  0  0  0  0  0  0  0  0
  161.3870  207.2170  150.1250 C   0  0  0  0  0  0  0  0  0  0  0  0
  160.7010  212.0230  146.9980 N   0  0  0  0  0  0  0  0  0  0  0  0
  162.5000  210.5810  151.0770 O   0  0  0  0  0  0  0  0  0  0  0  0
  161.4830  205.3480  148.5960 C   0  0  0  0  0  0  0  0  0  0  0  0
  161.5450  208.5690  150.0650 N   0  0  0  0  0  0  0  0  0  0  0  0
  162.3060  213.2060  148.4260 C   0  0  0  0  0  0  0  0  0  0  0  0
  161.5420  206.6830  148.8900 C   0  0  0  0  0  0  0  0  0  0  0  0
  161.6320  209.4960  151.1780 C   0  0  0  0  0  0  0  0  0  0  0  0
  161.2450  204.4580  149.6560 C   0  0  0  0  0  3  0  0  0  0  0  0
  161.7870  213.0020  147.0340 C   0  0  0  0  0  2  0  0  0  0  0  0
  161.7850  207.6560  148.0000 C   0  0  0  0  0  0  0  0  0  0  0  0
  160.1570  206.0330  145.7130 C   0  0  0  0  0  1  0  0  0  0  0  0
  160.8090  206.8810  152.5800 C   0  0  0  0  0  2  0  0  0  0  0  0
  161.0460  204.9750  150.9630 C   0  0  0  0  0  3  0  0  0  0  0  0
  162.1050  207.3450  146.5680 C   0  0  0  0  0  2  0  0  0  0  0  0
  162.8660  212.0570  149.2250 C   0  0  1  0  0  3  0  0  0  0  0  0
  162.0680  211.7970  150.4960 C   0  0  0  0  0  2  0  0  0  0  0  0
  161.1000  206.3690  151.2120 C   0  0  0  0  0  0  0  0  0  0  0  0
  161.8000  208.8340  148.7380 C   0  0  0  0  0  0  0  0  0  0  0  0
  161.6700  204.9650  147.2610 O   0  0  0  0  0  0  0  0  0  0  0  0
  160.9330  209.3190  152.3270 C   0  0  0  0  0  0  0  0  0  0  0  0
  162.4290  205.4140  145.0190 C   0  0  0  0  0  1  0  0  0  0  0  0
  163.1030  210.8910  148.4500 O   0  0  0  0  0  0  0  0  0  0  0  0
  162.2880  214.3260  148.9100 O   0  0  0  0  0  0  0  0  0  0  0  0
  161.9240  210.1790  148.0860 C   0  0  2  0  0  3  0  0  0  0  0  0
  160.0000  208.1600  152.4890 C   0  0  0  0  0  2  0  0  0  0  0  0
  158.8530  211.2410  145.7930 O   0  0  0  0  0  0  0  0  0  0  0  0
  159.7860  212.0810  145.9050 C   0  0  0  0  0  3  0  0  0  0  0  0
  160.1850  211.3120  153.6390 C   0  0  0  0  0  3  0  0  0  0  0  0
  161.0720  210.2330  153.4920 C   0  0  0  0  0  0  0  0  0  0  0  0
  162.0410  210.0160  154.4850 C   0  0  0  0  0  3  0  0  0  0  0  0
  163.1740  210.6320  156.6230 C   0  0  0  0  0  1  0  0  0  0  0  0
  161.2570  211.9470  155.7140 C   0  0  0  0  0  3  0  0  0  0  0  0
  162.1370  210.8710  155.5860 C   0  0  0  0  0  0  0  0  0  0  0  0
  160.2790  212.1670  154.7410 C   0  0  0  0  0  3  0  0  0  0  0  0
  2 17  1  0  0  0  0
  2 22  1  0  0  0  0
  3 20  1  0  0  0  0
  4 12  1  0  0  0  0
  4  1  1  0  0  0  0
  5 10  1  0  0  0  0
  6  9  1  0  0  0  0
  6 11  2  0  0  0  0
  7  3  1  0  0  0  0
  7 10  1  0  0  0  0
  8 26  2  0  0  0  0
  8 18  1  0  0  0  0
  9  3  2  0  0  0  0
 10 23  2  0  0  0  0
 11 16  1  0  0  0  0
 12  8  1  0  0  0  0
 13 21  2  0  0  0  0
 13  9  1  0  0  0  0
 14  2  1  0  0  0  0
 16 20  2  0  0  0  0
 17 13  1  0  0  0  0
 18 19  1  1  0  0  0
 19  5  1  0  0  0  0
 20 15  1  0  0  0  0
 21  7  1  0  0  0  0
 22  6  1  0  0  0  0
 23 28  1  0  0  0  0
 23 32  1  0  0  0  0
 24  2  1  0  0  0  0
 25 18  1  0  0  0  0
 27  1  1  1  0  0  0
 27 25  1  0  0  0  0
 27 21  1  0  0  0  0
 28 15  1  0  0  0  0
 29 30  2  0  0  0  0
 30  4  1  0  0  0  0
 31 37  1  0  0  0  0
 32 31  2  0  0  0  0
 32 33  1  0  0  0  0
 33 36  2  0  0  0  0
 36 35  1  0  0  0  0
 36 34  1  0  0  0  0
 37 35  2  0  0  0  0
M  END
>  <MODEL>
5

>  <REMARK>
 VINA RESULT:      -1.1      3.755      8.829
  Name = 
  1 active torsions:
  status: ('A' for Active; 'I' for Inactive)
    1  A    between atoms: C_23  and  C_30
                            x       y       z     vdW  Elec       q    Type
                         _______ _______ _______ _____ _____    ______ ____

>  <TORSDO>
F 1

$$$$
