=
 OpenBabel11122413033D

 32 37  0  0  1  0  0  0  0  0999 V2000
  161.7600  206.2040  151.8900 C   0  0  1  0  0  3  0  0  0  0  0  0
  162.6540  208.2670  148.2500 O   0  0  0  0  0  0  0  0  0  0  0  0
  162.2790  207.1080  147.5480 C   0  0  0  0  0  2  0  0  0  0  0  0
  161.5640  203.6440  151.6370 C   0  0  2  0  0  3  0  0  0  0  0  0
  160.9100  202.6120  150.7300 C   0  0  2  0  0  3  0  0  0  0  0  0
  161.0490  207.1230  154.1710 C   0  0  2  0  0  3  0  0  0  0  0  0
  161.6740  208.4750  152.2150 O   0  0  0  0  0  0  0  0  0  0  0  0
  160.7340  201.7850  148.5830 C   0  0  1  0  0  3  0  0  0  0  0  0
  162.6440  207.9370  149.6170 C   0  0  0  0  0  2  0  0  0  0  0  0
  161.0830  207.4600  151.5280 N   0  0  1  0  0  0  0  0  0  0  0  0
  161.1930  207.7230  150.0860 C   0  0  2  0  0  3  0  0  0  0  0  0
  161.0510  205.2160  149.7130 C   0  0  2  0  0  3  0  0  0  0  0  0
  161.1020  200.7090  149.6070 C   0  0  0  0  0  2  0  0  0  0  0  0
  161.0410  208.5010  153.4770 C   0  0  2  0  0  3  0  0  0  0  0  0
  161.4240  201.3190  150.8450 O   0  0  0  0  0  0  0  0  0  0  0  0
  160.7930  206.8080  147.7800 C   0  0  0  0  0  2  0  0  0  0  0  0
  160.5290  206.5910  149.2730 C   0  0  2  0  0  3  0  0  0  0  0  0
  160.3760  204.1730  149.0380 O   0  0  0  0  0  0  0  0  0  0  0  0
  161.9050  206.0960  153.4180 C   0  0  0  0  0  2  0  0  0  0  0  0
  161.2490  203.3410  152.9630 O   0  0  0  0  0  1  0  0  0  0  0  0
  159.3520  201.7620  148.3700 O   0  0  0  0  0  1  0  0  0  0  0  0
  160.9960  205.0340  151.2570 C   0  0  2  0  0  3  0  0  0  0  0  0
  161.1370  203.0270  149.3130 C   0  0  1  0  0  3  0  0  0  0  0  0
  161.3920  210.9240  153.8900 C   0  0  0  0  0  2  0  0  0  0  0  0
  161.7210  209.5240  154.3670 C   0  0  1  0  0  3  0  0  0  0  0  0
  160.6610  210.3400  155.0800 C   0  0  1  0  0  3  0  0  0  0  0  0
  161.2490  210.8970  156.3620 C   0  0  0  0  0  2  0  0  0  0  0  0
  160.2920  211.8520  156.9820 C   0  0  0  0  0  0  0  0  0  0  0  0
  158.9800  211.4670  157.2210 O   0  0  0  0  0  0  0  0  0  0  0  0
  160.6630  213.0230  157.2610 O   0  0  0  0  0  1  0  0  0  0  0  0
  159.3710  206.9770  155.5010 O   0  0  0  0  0  1  0  0  0  0  0  0
  159.7400  206.6500  154.2810 O   0  0  0  0  0  0  0  0  0  0  0  0
  1 19  1  1  0  0  0
  2  9  1  0  0  0  0
  3 16  1  0  0  0  0
  3  2  1  0  0  0  0
  4 20  1  1  0  0  0
  5 15  1  6  0  0  0
  5  4  1  0  0  0  0
  6 32  1  6  0  0  0
  8 21  1  1  0  0  0
  8 23  1  0  0  0  0
  8 13  1  0  0  0  0
 10  1  1  0  0  0  0
 10  7  1  1  0  0  0
 11  9  1  6  0  0  0
 11 10  1  0  0  0  0
 12 18  1  6  0  0  0
 12 22  1  0  0  0  0
 13 15  1  0  0  0  0
 14  7  1  6  0  0  0
 14  6  1  0  0  0  0
 14 25  1  0  0  0  0
 17 16  1  6  0  0  0
 17 12  1  0  0  0  0
 17 11  1  0  0  0  0
 18 23  1  0  0  0  0
 19  6  1  0  0  0  0
 22  4  1  0  0  0  0
 22  1  1  0  0  0  0
 23  5  1  0  0  0  0
 24 25  1  0  0  0  0
 24 26  1  0  0  0  0
 25 26  1  0  0  0  0
 26 27  1  0  0  0  0
 27 28  1  0  0  0  0
 28 29  2  0  0  0  0
 28 30  1  0  0  0  0
 32 31  1  0  0  0  0
M  END
>  <MODEL>
1

>  <REMARK>
 VINA RESULT:      -7.1      0.000      0.000
  Name = 
  4 active torsions:
  status: ('A' for Active; 'I' for Inactive)
    1  A    between atoms: C_7  and  O_19
    2  A    between atoms: C_10  and  C_17
    3  A    between atoms: C_20  and  C_29
    4  A    between atoms: C_29  and  C_30
                            x       y       z     vdW  Elec       q    Type
                         _______ _______ _______ _____ _____    ______ ____

>  <TORSDO>
F 4

$$$$
=
 OpenBabel11122413033D

 32 37  0  0  1  0  0  0  0  0999 V2000
  161.7750  208.9690  151.0670 C   0  0  1  0  0  3  0  0  0  0  0  0
  161.2070  210.1050  155.1520 O   0  0  0  0  0  0  0  0  0  0  0  0
  160.8850  211.3990  154.7060 C   0  0  0  0  0  2  0  0  0  0  0  0
  162.0190  210.9560  149.4380 C   0  0  2  0  0  3  0  0  0  0  0  0
  161.3540  212.2860  149.1200 C   0  0  2  0  0  3  0  0  0  0  0  0
  161.5580  206.6760  149.9490 C   0  0  2  0  0  3  0  0  0  0  0  0
  161.3410  207.1210  152.3580 O   0  0  0  0  0  0  0  0  0  0  0  0
  160.7550  214.3680  149.9140 C   0  0  1  0  0  3  0  0  0  0  0  0
  161.6400  209.3820  154.0260 C   0  0  0  0  0  2  0  0  0  0  0  0
  160.7930  208.2900  151.9270 N   0  0  1  0  0  0  0  0  0  0  0  0
  160.4460  209.1200  153.0890 C   0  0  2  0  0  3  0  0  0  0  0  0
  160.6980  211.1560  151.5940 C   0  0  2  0  0  3  0  0  0  0  0  0
  161.5940  214.4370  148.6370 C   0  0  0  0  0  2  0  0  0  0  0  0
  161.0900  206.1820  151.3350 C   0  0  2  0  0  3  0  0  0  0  0  0
  162.1210  213.1560  148.3420 O   0  0  0  0  0  0  0  0  0  0  0  0
  159.6100  211.3620  153.8560 C   0  0  0  0  0  2  0  0  0  0  0  0
  159.8160  210.4550  152.6380 C   0  0  2  0  0  3  0  0  0  0  0  0
  160.0790  212.3300  151.1090 O   0  0  0  0  0  0  0  0  0  0  0  0
  162.3550  207.9840  150.0370 C   0  0  0  0  0  2  0  0  0  0  0  0
  162.1490  210.2240  148.2560 O   0  0  0  0  0  1  0  0  0  0  0  0
  159.4000  214.4530  149.5790 O   0  0  0  0  0  1  0  0  0  0  0  0
  161.1090  210.2000  150.4380 C   0  0  2  0  0  3  0  0  0  0  0  0
  161.0940  212.9980  150.4080 C   0  0  1  0  0  3  0  0  0  0  0  0
  161.1790  204.2780  152.9270 C   0  0  0  0  0  2  0  0  0  0  0  0
  161.7770  204.8710  151.6660 C   0  0  1  0  0  3  0  0  0  0  0  0
  160.7660  203.7450  151.5710 C   0  0  1  0  0  3  0  0  0  0  0  0
  161.4980  202.4490  151.2900 C   0  0  0  0  0  2  0  0  0  0  0  0
  161.0280  201.8730  150.0010 C   0  0  0  0  0  0  0  0  0  0  0  0
  160.4250  202.6890  149.0530 O   0  0  0  0  0  0  0  0  0  0  0  0
  161.1460  200.6390  149.7820 O   0  0  0  0  0  1  0  0  0  0  0  0
  160.5840  205.9480  148.1810 O   0  0  0  0  0  1  0  0  0  0  0  0
  160.4490  206.8580  149.1220 O   0  0  0  0  0  0  0  0  0  0  0  0
  1 19  1  6  0  0  0
  1 10  1  0  0  0  0
  3  2  1  0  0  0  0
  4 20  1  6  0  0  0
  4 22  1  0  0  0  0
  5 15  1  6  0  0  0
  5  4  1  0  0  0  0
  5 23  1  0  0  0  0
  6 32  1  6  0  0  0
  6 19  1  0  0  0  0
  6 14  1  0  0  0  0
  8 21  1  6  0  0  0
  8 23  1  0  0  0  0
  9  2  1  0  0  0  0
 10  7  1  1  0  0  0
 10 11  1  0  0  0  0
 11  9  1  6  0  0  0
 12 18  1  6  0  0  0
 12 17  1  0  0  0  0
 13  8  1  0  0  0  0
 14 25  1  0  0  0  0
 14  7  1  1  0  0  0
 15 13  1  0  0  0  0
 16  3  1  0  0  0  0
 17 11  1  0  0  0  0
 17 16  1  1  0  0  0
 22  1  1  0  0  0  0
 22 12  1  0  0  0  0
 23 18  1  0  0  0  0
 25 24  1  0  0  0  0
 26 25  1  0  0  0  0
 26 24  1  0  0  0  0
 27 26  1  0  0  0  0
 28 27  1  0  0  0  0
 29 28  2  0  0  0  0
 30 28  1  0  0  0  0
 31 32  1  0  0  0  0
M  END
>  <MODEL>
2

>  <REMARK>
 VINA RESULT:      -6.7      2.911      8.359
  Name = 
  4 active torsions:
  status: ('A' for Active; 'I' for Inactive)
    1  A    between atoms: C_7  and  O_19
    2  A    between atoms: C_10  and  C_17
    3  A    between atoms: C_20  and  C_29
    4  A    between atoms: C_29  and  C_30
                            x       y       z     vdW  Elec       q    Type
                         _______ _______ _______ _____ _____    ______ ____

>  <TORSDO>
F 4

$$$$
=
 OpenBabel11122413033D

 32 37  0  0  1  0  0  0  0  0999 V2000
  160.5840  205.6490  150.2530 C   0  0  1  0  0  3  0  0  0  0  0  0
  159.7790  201.4990  150.9120 O   0  0  0  0  0  0  0  0  0  0  0  0
  160.1480  201.2570  149.5760 C   0  0  0  0  0  2  0  0  0  0  0  0
  160.7450  206.3170  147.7660 C   0  0  2  0  0  3  0  0  0  0  0  0
  161.3970  205.8430  146.4750 C   0  0  2  0  0  3  0  0  0  0  0  0
  161.2720  207.4770  151.9090 C   0  0  2  0  0  3  0  0  0  0  0  0
  160.6990  205.1580  152.4920 O   0  0  0  0  0  0  0  0  0  0  0  0
  161.5960  204.1280  144.9440 C   0  0  1  0  0  3  0  0  0  0  0  0
  159.7630  202.8960  151.0830 C   0  0  0  0  0  2  0  0  0  0  0  0
  161.2850  204.8840  151.2950 N   0  0  1  0  0  0  0  0  0  0  0  0
  161.2030  203.4390  151.0350 C   0  0  2  0  0  3  0  0  0  0  0  0
  161.3120  203.9740  148.5560 C   0  0  2  0  0  3  0  0  0  0  0  0
  161.1950  205.4570  144.3010 C   0  0  0  0  0  2  0  0  0  0  0  0
  161.3120  206.3420  152.9550 C   0  0  2  0  0  3  0  0  0  0  0  0
  160.8620  206.3950  145.3090 O   0  0  0  0  0  0  0  0  0  0  0  0
  161.6250  201.6100  149.3650 C   0  0  0  0  0  2  0  0  0  0  0  0
  161.8630  203.0890  149.6840 C   0  0  2  0  0  3  0  0  0  0  0  0
  161.9820  203.7220  147.3370 O   0  0  0  0  0  0  0  0  0  0  0  0
  160.4120  207.1150  150.6900 C   0  0  0  0  0  2  0  0  0  0  0  0
  161.0340  207.6700  147.9450 O   0  0  0  0  0  1  0  0  0  0  0  0
  162.9800  203.9640  144.8360 O   0  0  0  0  0  1  0  0  0  0  0  0
  161.3400  205.4840  148.9280 C   0  0  2  0  0  3  0  0  0  0  0  0
  161.2000  204.3660  146.3670 C   0  0  1  0  0  3  0  0  0  0  0  0
  161.6610  206.9690  155.3320 C   0  0  0  0  0  2  0  0  0  0  0  0
  160.6340  206.8020  154.2310 C   0  0  1  0  0  3  0  0  0  0  0  0
  161.1440  208.1840  154.5920 C   0  0  1  0  0  3  0  0  0  0  0  0
  160.1010  208.8890  155.4360 C   0  0  0  0  0  2  0  0  0  0  0  0
  159.9940  210.3130  155.0200 C   0  0  0  0  0  0  0  0  0  0  0  0
  161.1410  211.0720  154.8340 O   0  0  0  0  0  0  0  0  0  0  0  0
  158.8610  210.8410  154.8700 O   0  0  0  0  0  1  0  0  0  0  0  0
  162.4410  208.8340  150.7280 O   0  0  0  0  0  1  0  0  0  0  0  0
  162.5720  207.7720  151.4940 O   0  0  0  0  0  0  0  0  0  0  0  0
  1 19  1  1  0  0  0
  1 10  1  0  0  0  0
  2  9  1  0  0  0  0
  3  2  1  0  0  0  0
  4 20  1  1  0  0  0
  4 22  1  0  0  0  0
  5 15  1  6  0  0  0
  5  4  1  0  0  0  0
  6 32  1  6  0  0  0
  6 14  1  0  0  0  0
  8 21  1  1  0  0  0
  8 23  1  0  0  0  0
 10  7  1  1  0  0  0
 11  9  1  6  0  0  0
 11 10  1  0  0  0  0
 12 18  1  6  0  0  0
 12 22  1  0  0  0  0
 12 17  1  0  0  0  0
 13  8  1  0  0  0  0
 13 15  1  0  0  0  0
 14  7  1  6  0  0  0
 14 25  1  0  0  0  0
 16  3  1  0  0  0  0
 17 16  1  6  0  0  0
 17 11  1  0  0  0  0
 19  6  1  0  0  0  0
 22  1  1  0  0  0  0
 23  5  1  0  0  0  0
 23 18  1  0  0  0  0
 25 26  1  0  0  0  0
 25 24  1  0  0  0  0
 26 24  1  0  0  0  0
 26 27  1  0  0  0  0
 28 27  1  0  0  0  0
 29 28  2  0  0  0  0
 30 28  1  0  0  0  0
 31 32  1  0  0  0  0
M  END
>  <MODEL>
3

>  <REMARK>
 VINA RESULT:      -5.7      2.107      4.495
  Name = 
  4 active torsions:
  status: ('A' for Active; 'I' for Inactive)
    1  A    between atoms: C_7  and  O_19
    2  A    between atoms: C_10  and  C_17
    3  A    between atoms: C_20  and  C_29
    4  A    between atoms: C_29  and  C_30
                            x       y       z     vdW  Elec       q    Type
                         _______ _______ _______ _____ _____    ______ ____

>  <TORSDO>
F 4

$$$$
=
 OpenBabel11122413033D

 32 37  0  0  1  0  0  0  0  0999 V2000
  161.7350  204.4050  150.2330 C   0  0  1  0  0  3  0  0  0  0  0  0
  162.4790  207.5680  147.4490 O   0  0  0  0  0  0  0  0  0  0  0  0
  162.1320  206.6830  146.4130 C   0  0  0  0  0  2  0  0  0  0  0  0
  161.6270  202.0580  149.1670 C   0  0  2  0  0  3  0  0  0  0  0  0
  160.9920  201.3490  147.9800 C   0  0  2  0  0  3  0  0  0  0  0  0
  161.0380  204.5080  152.6940 C   0  0  2  0  0  3  0  0  0  0  0  0
  161.5730  206.4440  151.2760 O   0  0  0  0  0  0  0  0  0  0  0  0
  160.8020  201.2530  145.6820 C   0  0  1  0  0  3  0  0  0  0  0  0
  162.5090  206.8130  148.6360 C   0  0  0  0  0  2  0  0  0  0  0  0
  161.0060  205.6810  150.3030 N   0  0  1  0  0  0  0  0  0  0  0  0
  161.0760  206.4000  149.0220 C   0  0  2  0  0  3  0  0  0  0  0  0
  161.0180  204.1450  147.8590 C   0  0  2  0  0  3  0  0  0  0  0  0
  161.2290  199.9200  146.3000 C   0  0  0  0  0  2  0  0  0  0  0  0
  160.9660  206.0350  152.4830 C   0  0  2  0  0  3  0  0  0  0  0  0
  161.5550  200.1100  147.6660 O   0  0  0  0  0  0  0  0  0  0  0  0
  160.6630  206.2640  146.5470 C   0  0  0  0  0  2  0  0  0  0  0  0
  160.4370  205.5660  147.8910 C   0  0  2  0  0  3  0  0  0  0  0  0
  160.3680  203.3500  146.8880 O   0  0  0  0  0  0  0  0  0  0  0  0
  161.9150  203.8160  151.6430 C   0  0  0  0  0  2  0  0  0  0  0  0
  161.3500  201.3300  150.3250 O   0  0  0  0  0  1  0  0  0  0  0  0
  159.4180  201.2440  145.4830 O   0  0  0  0  0  1  0  0  0  0  0  0
  161.0010  203.4720  149.2610 C   0  0  2  0  0  3  0  0  0  0  0  0
  161.1750  202.2080  146.7710 C   0  0  1  0  0  3  0  0  0  0  0  0
  161.3900  208.2360  153.5520 C   0  0  0  0  0  2  0  0  0  0  0  0
  161.6260  206.7420  153.6510 C   0  0  1  0  0  3  0  0  0  0  0  0
  160.5560  207.4000  154.5000 C   0  0  1  0  0  3  0  0  0  0  0  0
  161.0790  207.5600  155.9140 C   0  0  0  0  0  2  0  0  0  0  0  0
  161.0110  208.9900  156.3170 C   0  0  0  0  0  0  0  0  0  0  0  0
  162.1720  209.6770  156.6440 O   0  0  0  0  0  1  0  0  0  0  0  0
  159.8960  209.5700  156.3970 O   0  0  0  0  0  0  0  0  0  0  0  0
  159.9330  202.6690  152.6410 O   0  0  0  0  0  1  0  0  0  0  0  0
  159.7500  203.9720  152.6550 O   0  0  0  0  0  0  0  0  0  0  0  0
  1 10  1  0  0  0  0
  1 19  1  1  0  0  0
  2  9  1  0  0  0  0
  3 16  1  0  0  0  0
  3  2  1  0  0  0  0
  4 22  1  0  0  0  0
  4 20  1  1  0  0  0
  5 15  1  6  0  0  0
  5  4  1  0  0  0  0
  6 32  1  6  0  0  0
  8 21  1  1  0  0  0
  8 13  1  0  0  0  0
  8 23  1  0  0  0  0
 10  7  1  1  0  0  0
 11  9  1  6  0  0  0
 11 10  1  0  0  0  0
 12 18  1  6  0  0  0
 12 17  1  0  0  0  0
 12 22  1  0  0  0  0
 13 15  1  0  0  0  0
 14  7  1  6  0  0  0
 14  6  1  0  0  0  0
 14 25  1  0  0  0  0
 17 16  1  6  0  0  0
 17 11  1  0  0  0  0
 19  6  1  0  0  0  0
 22  1  1  0  0  0  0
 23 18  1  0  0  0  0
 23  5  1  0  0  0  0
 24 25  1  0  0  0  0
 24 26  1  0  0  0  0
 25 26  1  0  0  0  0
 26 27  1  0  0  0  0
 27 28  1  0  0  0  0
 28 30  2  0  0  0  0
 28 29  1  0  0  0  0
 31 32  1  0  0  0  0
M  END
>  <MODEL>
4

>  <REMARK>
 VINA RESULT:      -5.2      1.827      2.819
  Name = 
  4 active torsions:
  status: ('A' for Active; 'I' for Inactive)
    1  A    between atoms: C_7  and  O_19
    2  A    between atoms: C_10  and  C_17
    3  A    between atoms: C_20  and  C_29
    4  A    between atoms: C_29  and  C_30
                            x       y       z     vdW  Elec       q    Type
                         _______ _______ _______ _____ _____    ______ ____

>  <TORSDO>
F 4

$$$$
=
 OpenBabel11122413033D

 32 37  0  0  1  0  0  0  0  0999 V2000
  162.0960  206.8600  149.7050 C   0  0  1  0  0  3  0  0  0  0  0  0
  162.5150  206.1570  145.5060 O   0  0  0  0  0  0  0  0  0  0  0  0
  162.0890  204.8350  145.7250 C   0  0  0  0  0  2  0  0  0  0  0  0
  161.9330  204.7140  151.1280 C   0  0  2  0  0  3  0  0  0  0  0  0
  161.2030  203.3790  151.1380 C   0  0  2  0  0  3  0  0  0  0  0  0
  161.6320  209.0350  150.9730 C   0  0  2  0  0  3  0  0  0  0  0  0
  161.9950  208.8410  148.5490 O   0  0  0  0  0  0  0  0  0  0  0  0
  160.7990  201.4070  150.0110 C   0  0  1  0  0  3  0  0  0  0  0  0
  162.6710  206.7510  146.7710 C   0  0  0  0  0  2  0  0  0  0  0  0
  161.3530  207.6520  148.7120 N   0  0  1  0  0  0  0  0  0  0  0  0
  161.2890  206.9540  147.4200 C   0  0  2  0  0  3  0  0  0  0  0  0
  161.1640  204.7720  148.7110 C   0  0  2  0  0  3  0  0  0  0  0  0
  161.3080  201.1840  151.4370 C   0  0  0  0  0  2  0  0  0  0  0  0
  161.5120  209.6800  149.5750 C   0  0  2  0  0  3  0  0  0  0  0  0
  161.7570  202.4130  151.9810 O   0  0  0  0  0  0  0  0  0  0  0  0
  160.6470  204.8260  146.2470 C   0  0  0  0  0  2  0  0  0  0  0  0
  160.5620  205.6000  147.5670 C   0  0  2  0  0  3  0  0  0  0  0  0
  160.4400  203.5740  148.9100 O   0  0  0  0  0  0  0  0  0  0  0  0
  162.4200  207.7190  150.9400 C   0  0  0  0  0  2  0  0  0  0  0  0
  161.7800  205.3190  152.3760 O   0  0  0  0  0  1  0  0  0  0  0  0
  159.4020  201.3300  150.0050 O   0  0  0  0  0  1  0  0  0  0  0  0
  161.2920  205.5940  150.0260 C   0  0  2  0  0  3  0  0  0  0  0  0
  161.2540  202.8090  149.7580 C   0  0  1  0  0  3  0  0  0  0  0  0
  162.8960  211.2100  148.1930 C   0  0  0  0  0  2  0  0  0  0  0  0
  162.2660  210.9960  149.5550 C   0  0  1  0  0  3  0  0  0  0  0  0
  161.6110  211.9250  148.5520 C   0  0  1  0  0  3  0  0  0  0  0  0
  161.9180  213.3590  148.9360 C   0  0  0  0  0  2  0  0  0  0  0  0
  160.6490  214.1040  149.1560 C   0  0  0  0  0  0  0  0  0  0  0  0
  160.2230  214.3880  150.4470 O   0  0  0  0  0  1  0  0  0  0  0  0
  159.9430  214.4490  148.1720 O   0  0  0  0  0  0  0  0  0  0  0  0
  160.2330  209.6790  152.4660 O   0  0  0  0  0  1  0  0  0  0  0  0
  160.3570  208.8050  151.4900 O   0  0  0  0  0  0  0  0  0  0  0  0
  1 22  1  0  0  0  0
  1 19  1  1  0  0  0
  2  3  1  0  0  0  0
  2  9  1  0  0  0  0
  3 16  1  0  0  0  0
  4  5  1  0  0  0  0
  4 20  1  1  0  0  0
  5 15  1  1  0  0  0
  6 32  1  6  0  0  0
  8 21  1  1  0  0  0
  8 13  1  0  0  0  0
 10  7  1  6  0  0  0
 10  1  1  0  0  0  0
 11  9  1  1  0  0  0
 11 17  1  0  0  0  0
 11 10  1  0  0  0  0
 12 18  1  1  0  0  0
 12 22  1  0  0  0  0
 13 15  1  0  0  0  0
 14  7  1  6  0  0  0
 14  6  1  0  0  0  0
 17 16  1  6  0  0  0
 17 12  1  0  0  0  0
 18 23  1  0  0  0  0
 19  6  1  0  0  0  0
 22  4  1  0  0  0  0
 23  8  1  0  0  0  0
 23  5  1  0  0  0  0
 24 26  1  0  0  0  0
 24 25  1  0  0  0  0
 25 14  1  0  0  0  0
 26 27  1  0  0  0  0
 26 25  1  0  0  0  0
 27 28  1  0  0  0  0
 28 29  1  0  0  0  0
 30 28  2  0  0  0  0
 32 31  1  0  0  0  0
M  END
>  <MODEL>
5

>  <REMARK>
 VINA RESULT:      -4.9      2.913      4.118
  Name = 
  4 active torsions:
  status: ('A' for Active; 'I' for Inactive)
    1  A    between atoms: C_7  and  O_19
    2  A    between atoms: C_10  and  C_17
    3  A    between atoms: C_20  and  C_29
    4  A    between atoms: C_29  and  C_30
                            x       y       z     vdW  Elec       q    Type
                         _______ _______ _______ _____ _____    ______ ____

>  <TORSDO>
F 4

$$$$
=
 OpenBabel11122413033D

 32 37  0  0  1  0  0  0  0  0999 V2000
  161.0280  207.5320  150.2620 C   0  0  1  0  0  3  0  0  0  0  0  0
  160.3650  208.1860  154.4370 O   0  0  0  0  0  0  0  0  0  0  0  0
  160.4620  206.7960  154.6290 C   0  0  0  0  0  2  0  0  0  0  0  0
  160.6950  205.0880  149.5050 C   0  0  2  0  0  3  0  0  0  0  0  0
  161.0790  203.6770  149.9280 C   0  0  2  0  0  3  0  0  0  0  0  0
  162.0330  209.0840  148.4910 C   0  0  2  0  0  3  0  0  0  0  0  0
  161.5840  209.6850  150.8320 O   0  0  0  0  0  0  0  0  0  0  0  0
  160.9680  202.0760  151.5860 C   0  0  1  0  0  3  0  0  0  0  0  0
  160.3840  208.4070  153.0480 C   0  0  0  0  0  2  0  0  0  0  0  0
  161.9210  208.3870  151.0600 N   0  0  1  0  0  0  0  0  0  0  0  0
  161.7870  208.0960  152.4950 C   0  0  2  0  0  3  0  0  0  0  0  0
  161.4050  205.6650  151.8710 C   0  0  2  0  0  3  0  0  0  0  0  0
  160.4500  201.5730  150.2380 C   0  0  0  0  0  2  0  0  0  0  0  0
  162.2780  210.0600  149.6610 C   0  0  2  0  0  3  0  0  0  0  0  0
  160.3240  202.6610  149.3380 O   0  0  0  0  0  0  0  0  0  0  0  0
  161.8690  206.3100  154.2610 C   0  0  0  0  0  2  0  0  0  0  0  0
  162.1660  206.6290  152.7920 C   0  0  2  0  0  3  0  0  0  0  0  0
  161.8200  204.3290  152.0760 O   0  0  0  0  0  0  0  0  0  0  0  0
  160.9490  208.0470  148.8140 C   0  0  0  0  0  2  0  0  0  0  0  0
  161.0160  205.2550  148.1570 O   0  0  0  0  0  1  0  0  0  0  0  0
  162.3040  201.6900  151.7380 O   0  0  0  0  0  1  0  0  0  0  0  0
  161.5070  206.0790  150.3750 C   0  0  2  0  0  3  0  0  0  0  0  0
  160.8620  203.5570  151.4020 C   0  0  1  0  0  3  0  0  0  0  0  0
  162.8640  212.0240  148.2610 C   0  0  0  0  0  2  0  0  0  0  0  0
  161.8650  211.4600  149.2510 C   0  0  1  0  0  3  0  0  0  0  0  0
  161.5460  211.4670  147.7690 C   0  0  1  0  0  3  0  0  0  0  0  0
  160.5890  212.6060  147.4770 C   0  0  0  0  0  2  0  0  0  0  0  0
  160.2850  212.6490  146.0220 C   0  0  0  0  0  0  0  0  0  0  0  0
  159.0180  212.3130  145.5660 O   0  0  0  0  0  1  0  0  0  0  0  0
  161.1870  212.9580  145.1990 O   0  0  0  0  0  0  0  0  0  0  0  0
  162.8460  207.3260  147.5670 O   0  0  0  0  0  1  0  0  0  0  0  0
  163.2250  208.4310  148.1730 O   0  0  0  0  0  0  0  0  0  0  0  0
  1 19  1  6  0  0  0
  1 22  1  0  0  0  0
  1 10  1  0  0  0  0
  2  3  1  0  0  0  0
  4 20  1  6  0  0  0
  4  5  1  0  0  0  0
  4 22  1  0  0  0  0
  5 15  1  6  0  0  0
  5 23  1  0  0  0  0
  6 32  1  1  0  0  0
  6 19  1  0  0  0  0
  6 14  1  0  0  0  0
  8 21  1  6  0  0  0
  9  2  1  0  0  0  0
 10  7  1  1  0  0  0
 10 11  1  0  0  0  0
 11 17  1  0  0  0  0
 11  9  1  6  0  0  0
 12 18  1  6  0  0  0
 12 17  1  0  0  0  0
 13  8  1  0  0  0  0
 14  7  1  1  0  0  0
 15 13  1  0  0  0  0
 16  3  1  0  0  0  0
 17 16  1  1  0  0  0
 22 12  1  0  0  0  0
 23  8  1  0  0  0  0
 23 18  1  0  0  0  0
 24 25  1  0  0  0  0
 25 14  1  0  0  0  0
 26 24  1  0  0  0  0
 26 25  1  0  0  0  0
 27 26  1  0  0  0  0
 28 27  1  0  0  0  0
 29 28  1  0  0  0  0
 30 28  2  0  0  0  0
 31 32  1  0  0  0  0
M  END
>  <MODEL>
6

>  <REMARK>
 VINA RESULT:      -4.9      2.651      5.862
  Name = 
  4 active torsions:
  status: ('A' for Active; 'I' for Inactive)
    1  A    between atoms: C_7  and  O_19
    2  A    between atoms: C_10  and  C_17
    3  A    between atoms: C_20  and  C_29
    4  A    between atoms: C_29  and  C_30
                            x       y       z     vdW  Elec       q    Type
                         _______ _______ _______ _____ _____    ______ ____

>  <TORSDO>
F 4

$$$$
=
 OpenBabel11122413033D

 32 37  0  0  1  0  0  0  0  0999 V2000
  160.7810  205.1980  150.8870 C   0  0  1  0  0  3  0  0  0  0  0  0
  160.9130  207.3100  147.1690 O   0  0  0  0  0  0  0  0  0  0  0  0
  161.2060  208.4810  147.8910 C   0  0  0  0  0  2  0  0  0  0  0  0
  160.5830  206.7170  152.9630 C   0  0  2  0  0  3  0  0  0  0  0  0
  161.2040  207.9790  153.5430 C   0  0  2  0  0  3  0  0  0  0  0  0
  161.2170  202.7270  151.3940 C   0  0  2  0  0  3  0  0  0  0  0  0
  161.1900  203.7460  149.1570 O   0  0  0  0  0  0  0  0  0  0  0  0
  161.6200  210.2280  153.2360 C   0  0  1  0  0  3  0  0  0  0  0  0
  160.6230  206.3100  148.1150 C   0  0  0  0  0  2  0  0  0  0  0  0
  161.7130  204.8150  149.8150 N   0  0  1  0  0  0  0  0  0  0  0  0
  161.9090  205.9210  148.8660 C   0  0  2  0  0  3  0  0  0  0  0  0
  161.6890  207.5190  150.8260 C   0  0  2  0  0  3  0  0  0  0  0  0
  160.8980  209.9300  154.5510 C   0  0  0  0  0  2  0  0  0  0  0  0
  161.5820  202.6110  149.8980 C   0  0  2  0  0  3  0  0  0  0  0  0
  160.4670  208.5810  154.5660 O   0  0  0  0  0  0  0  0  0  0  0  0
  162.5540  208.3350  148.6060 C   0  0  0  0  0  2  0  0  0  0  0  0
  162.5070  207.1530  149.5790 C   0  0  2  0  0  3  0  0  0  0  0  0
  162.2880  208.5860  151.5330 O   0  0  0  0  0  0  0  0  0  0  0  0
  160.3480  203.9570  151.6880 C   0  0  0  0  0  2  0  0  0  0  0  0
  160.6000  205.7180  153.9380 O   0  0  0  0  0  1  0  0  0  0  0  0
  162.9930  210.3280  153.4770 O   0  0  0  0  0  1  0  0  0  0  0  0
  161.4360  206.2890  151.7440 C   0  0  2  0  0  3  0  0  0  0  0  0
  161.3080  208.9930  152.4510 C   0  0  1  0  0  3  0  0  0  0  0  0
  159.9220  201.7650  148.2580 C   0  0  0  0  0  2  0  0  0  0  0  0
  160.9370  201.3710  149.3110 C   0  0  1  0  0  3  0  0  0  0  0  0
  161.2930  201.2770  147.8410 C   0  0  1  0  0  3  0  0  0  0  0  0
  161.2060  199.8280  147.4040 C   0  0  0  0  0  2  0  0  0  0  0  0
  160.9710  199.7560  145.9370 C   0  0  0  0  0  0  0  0  0  0  0  0
  160.4560  200.8530  145.2600 O   0  0  0  0  0  0  0  0  0  0  0  0
  161.2080  198.6880  145.3130 O   0  0  0  0  0  1  0  0  0  0  0  0
  162.9360  201.6000  152.0110 O   0  0  0  0  0  1  0  0  0  0  0  0
  162.3860  202.7870  152.1540 O   0  0  0  0  0  0  0  0  0  0  0  0
  1 19  1  1  0  0  0
  1 22  1  0  0  0  0
  2  3  1  0  0  0  0
  2  9  1  0  0  0  0
  3 16  1  0  0  0  0
  4  5  1  0  0  0  0
  4 20  1  1  0  0  0
  5 15  1  1  0  0  0
  6 19  1  0  0  0  0
  6 32  1  1  0  0  0
  8 21  1  1  0  0  0
  8 13  1  0  0  0  0
 10  7  1  6  0  0  0
 10  1  1  0  0  0  0
 11  9  1  1  0  0  0
 11 17  1  0  0  0  0
 11 10  1  0  0  0  0
 12 18  1  1  0  0  0
 12 22  1  0  0  0  0
 13 15  1  0  0  0  0
 14  7  1  6  0  0  0
 14  6  1  0  0  0  0
 17 16  1  6  0  0  0
 17 12  1  0  0  0  0
 18 23  1  0  0  0  0
 22  4  1  0  0  0  0
 23  8  1  0  0  0  0
 23  5  1  0  0  0  0
 24 25  1  0  0  0  0
 25 14  1  0  0  0  0
 26 24  1  0  0  0  0
 26 25  1  0  0  0  0
 27 26  1  0  0  0  0
 28 27  1  0  0  0  0
 29 28  2  0  0  0  0
 30 28  1  0  0  0  0
 31 32  1  0  0  0  0
M  END
>  <MODEL>
7

>  <REMARK>
 VINA RESULT:      -4.7      1.886      8.272
  Name = 
  4 active torsions:
  status: ('A' for Active; 'I' for Inactive)
    1  A    between atoms: C_7  and  O_19
    2  A    between atoms: C_10  and  C_17
    3  A    between atoms: C_20  and  C_29
    4  A    between atoms: C_29  and  C_30
                            x       y       z     vdW  Elec       q    Type
                         _______ _______ _______ _____ _____    ______ ____

>  <TORSDO>
F 4

$$$$
=
 OpenBabel11122413033D

 32 37  0  0  1  0  0  0  0  0999 V2000
  160.8810  207.3090  150.7210 C   0  0  1  0  0  3  0  0  0  0  0  0
  161.6170  210.7300  148.2610 O   0  0  0  0  0  0  0  0  0  0  0  0
  161.8540  211.4720  149.4320 C   0  0  0  0  0  2  0  0  0  0  0  0
  160.4560  207.8610  153.2060 C   0  0  2  0  0  3  0  0  0  0  0  0
  161.0400  208.7120  154.3240 C   0  0  2  0  0  3  0  0  0  0  0  0
  161.1430  204.8170  150.1980 C   0  0  2  0  0  3  0  0  0  0  0  0
  161.4700  206.6570  148.6000 O   0  0  0  0  0  0  0  0  0  0  0  0
  161.5850  210.8400  155.0290 C   0  0  1  0  0  3  0  0  0  0  0  0
  161.1580  209.4640  148.6660 C   0  0  0  0  0  2  0  0  0  0  0  0
  161.9380  207.3100  149.6980 N   0  0  1  0  0  0  0  0  0  0  0  0
  162.3100  208.6820  149.3240 C   0  0  2  0  0  3  0  0  0  0  0  0
  161.8820  209.3560  151.7340 C   0  0  2  0  0  3  0  0  0  0  0  0
  160.6750  210.1020  156.0120 C   0  0  0  0  0  2  0  0  0  0  0  0
  161.7080  205.2870  148.8400 C   0  0  2  0  0  3  0  0  0  0  0  0
  160.1920  208.9110  155.4150 O   0  0  0  0  0  0  0  0  0  0  0  0
  163.0810  210.9200  150.1670 C   0  0  0  0  0  2  0  0  0  0  0  0
  162.8510  209.4540  150.5460 C   0  0  2  0  0  3  0  0  0  0  0  0
  162.4180  209.9800  152.8820 O   0  0  0  0  0  0  0  0  0  0  0  0
  160.2910  205.8970  150.8790 C   0  0  0  0  0  2  0  0  0  0  0  0
  160.2960  206.5550  153.6710 O   0  0  0  0  0  1  0  0  0  0  0  0
  162.9140  210.7030  155.4410 O   0  0  0  0  0  1  0  0  0  0  0  0
  161.4540  207.8880  152.0210 C   0  0  2  0  0  3  0  0  0  0  0  0
  161.3370  210.0680  153.7710 C   0  0  1  0  0  3  0  0  0  0  0  0
  162.0510  204.4110  146.5420 C   0  0  0  0  0  2  0  0  0  0  0  0
  161.1020  204.4600  147.7220 C   0  0  1  0  0  3  0  0  0  0  0  0
  161.9630  203.2350  147.4910 C   0  0  1  0  0  3  0  0  0  0  0  0
  161.1120  202.1440  146.8720 C   0  0  0  0  0  2  0  0  0  0  0  0
  161.2060  200.9050  147.6900 C   0  0  0  0  0  0  0  0  0  0  0  0
  160.9170  200.9430  149.0470 O   0  0  0  0  0  1  0  0  0  0  0  0
  161.5810  199.8270  147.1580 O   0  0  0  0  0  0  0  0  0  0  0  0
  161.6140  203.8500  152.0550 O   0  0  0  0  0  1  0  0  0  0  0  0
  162.1950  204.4510  151.0380 O   0  0  0  0  0  0  0  0  0  0  0  0
  1 19  1  1  0  0  0
  1 22  1  0  0  0  0
  2  9  1  0  0  0  0
  2  3  1  0  0  0  0
  3 16  1  0  0  0  0
  4 20  1  1  0  0  0
  4  5  1  0  0  0  0
  5 15  1  1  0  0  0
  6 19  1  0  0  0  0
  6 32  1  1  0  0  0
  8 21  1  1  0  0  0
  8 13  1  0  0  0  0
 10  7  1  6  0  0  0
 10  1  1  0  0  0  0
 11  9  1  1  0  0  0
 11 10  1  0  0  0  0
 11 17  1  0  0  0  0
 12 22  1  0  0  0  0
 12 18  1  1  0  0  0
 14  7  1  6  0  0  0
 14  6  1  0  0  0  0
 15 13  1  0  0  0  0
 17 16  1  6  0  0  0
 17 12  1  0  0  0  0
 18 23  1  0  0  0  0
 22  4  1  0  0  0  0
 23  5  1  0  0  0  0
 23  8  1  0  0  0  0
 24 26  1  0  0  0  0
 24 25  1  0  0  0  0
 25 14  1  0  0  0  0
 26 25  1  0  0  0  0
 27 26  1  0  0  0  0
 27 28  1  0  0  0  0
 28 29  1  0  0  0  0
 30 28  2  0  0  0  0
 32 31  1  0  0  0  0
M  END
>  <MODEL>
8

>  <REMARK>
 VINA RESULT:      -4.5      1.992      7.979
  Name = 
  4 active torsions:
  status: ('A' for Active; 'I' for Inactive)
    1  A    between atoms: C_7  and  O_19
    2  A    between atoms: C_10  and  C_17
    3  A    between atoms: C_20  and  C_29
    4  A    between atoms: C_29  and  C_30
                            x       y       z     vdW  Elec       q    Type
                         _______ _______ _______ _____ _____    ______ ____

>  <TORSDO>
F 4

$$$$
