=
 OpenBabel11122413223D

 31 35  0  0  0  0  0  0  0  0999 V2000
  160.9170  205.3360  145.7690 C   0  0  0  0  0  0  0  0  0  0  0  0
  161.2050  204.4340  149.4070 C   0  0  0  0  0  0  0  0  0  0  0  0
  161.1410  203.0160  149.4600 C   0  0  0  0  0  0  0  0  0  0  0  0
  161.2000  209.4350  151.0320 O   0  0  0  0  0  0  0  0  0  0  0  0
  161.0460  208.6870  152.0360 C   0  0  0  0  0  0  0  0  0  0  0  0
  161.1860  200.8900  148.3790 C   0  0  0  0  0  0  0  0  0  0  0  0
  161.3830  205.1770  148.2080 C   0  0  0  0  0  0  0  0  0  0  0  0
  160.8270  206.8360  145.8630 C   0  0  0  0  0  2  0  0  0  0  0  0
  161.2460  202.2470  148.3390 N   0  0  0  0  0  0  0  0  0  0  0  0
  161.1350  206.5490  150.6330 C   0  0  0  0  0  0  0  0  0  0  0  0
  160.4700  204.7680  144.7870 O   0  0  0  0  0  0  0  0  0  0  0  0
  160.8450  203.1290  151.8650 C   0  0  0  0  0  3  0  0  0  0  0  0
  161.3280  199.9660  146.8990 Cl  0  0  0  0  0  0  0  0  0  0  0  0
  161.3110  207.2190  149.4660 N   0  0  0  0  0  0  0  0  0  0  0  0
  161.0780  205.1490  150.6290 C   0  0  0  0  0  0  0  0  0  0  0  0
  161.0090  207.2610  151.8730 N   0  0  0  0  0  2  0  0  0  0  0  0
  161.5690  204.5290  146.8580 C   0  0  0  0  0  2  0  0  0  0  0  0
  161.0090  200.2310  149.5960 C   0  0  0  0  0  3  0  0  0  0  0  0
  161.4280  206.5820  148.2750 C   0  0  0  0  0  0  0  0  0  0  0  0
  161.6480  207.3870  147.0290 C   0  0  0  0  0  2  0  0  0  0  0  0
  160.9060  204.4820  151.8040 N   0  0  0  0  0  0  0  0  0  0  0  0
  160.9610  202.3740  150.7060 C   0  0  0  0  0  0  0  0  0  0  0  0
  160.8960  200.9820  150.7650 C   0  0  0  0  0  3  0  0  0  0  0  0
  160.6370  210.4680  155.9220 C   0  0  0  0  0  0  0  0  0  0  0  0
  160.8940  210.6670  153.5260 C   0  0  0  0  0  3  0  0  0  0  0  0
  160.7780  207.0840  154.4800 O   0  0  0  0  0  1  0  0  0  0  0  0
  160.4960  211.1020  157.2580 C   0  0  0  0  0  1  0  0  0  0  0  0
  160.7620  211.2630  154.7830 C   0  0  0  0  0  3  0  0  0  0  0  0
  160.7760  208.4720  154.5510 C   0  0  0  0  0  0  0  0  0  0  0  0
  160.9030  209.2690  153.3900 C   0  0  0  0  0  0  0  0  0  0  0  0
  160.6440  209.0770  155.8060 C   0  0  0  0  0  3  0  0  0  0  0  0
  1  8  1  0  0  0  0
  1 17  1  0  0  0  0
  2  3  2  0  0  0  0
  2 15  1  0  0  0  0
  3 22  1  0  0  0  0
  4  5  2  0  0  0  0
  5 30  1  0  0  0  0
  6 18  1  0  0  0  0
  7 19  2  0  0  0  0
  7  2  1  0  0  0  0
  8 20  1  0  0  0  0
  9  6  2  0  0  0  0
  9  3  1  0  0  0  0
 10 16  1  0  0  0  0
 11  1  2  0  0  0  0
 13  6  1  0  0  0  0
 14 10  2  0  0  0  0
 15 10  1  0  0  0  0
 15 21  2  0  0  0  0
 16  5  1  0  0  0  0
 17  7  1  0  0  0  0
 18 23  2  0  0  0  0
 19 14  1  0  0  0  0
 20 19  1  0  0  0  0
 21 12  1  0  0  0  0
 22 23  1  0  0  0  0
 22 12  2  0  0  0  0
 24 27  1  0  0  0  0
 25 28  1  0  0  0  0
 26 29  1  0  0  0  0
 28 24  2  0  0  0  0
 29 31  2  0  0  0  0
 30 25  2  0  0  0  0
 30 29  1  0  0  0  0
 31 24  1  0  0  0  0
M  END
>  <MODEL>
1

>  <REMARK>
 VINA RESULT:      -9.7      0.000      0.000
  Name = 
  1 active torsions:
  status: ('A' for Active; 'I' for Inactive)
    1  A    between atoms: C_5  and  C_30
                            x       y       z     vdW  Elec       q    Type
                         _______ _______ _______ _____ _____    ______ ____

>  <TORSDO>
F 1

$$$$
=
 OpenBabel11122413223D

 31 35  0  0  0  0  0  0  0  0999 V2000
  161.2070  201.5130  150.0950 C   0  0  0  0  0  0  0  0  0  0  0  0
  161.0460  205.2410  149.6450 C   0  0  0  0  0  0  0  0  0  0  0  0
  161.1830  205.4690  148.2490 C   0  0  0  0  0  0  0  0  0  0  0  0
  160.8370  206.2300  154.8050 O   0  0  0  0  0  0  0  0  0  0  0  0
  161.0500  207.3150  154.1970 C   0  0  0  0  0  0  0  0  0  0  0  0
  161.2210  204.6620  146.0040 C   0  0  0  0  0  0  0  0  0  0  0  0
  160.8050  203.9650  150.2220 C   0  0  0  0  0  0  0  0  0  0  0  0
  161.2250  201.4160  151.5970 C   0  0  0  0  0  2  0  0  0  0  0  0
  161.0910  204.4550  147.3420 N   0  0  0  0  0  0  0  0  0  0  0  0
  161.0380  206.1920  151.8980 C   0  0  0  0  0  0  0  0  0  0  0  0
  161.6600  200.5970  149.4300 O   0  0  0  0  0  0  0  0  0  0  0  0
  161.5260  207.8310  148.6770 C   0  0  0  0  0  3  0  0  0  0  0  0
  161.0920  203.3140  144.8960 Cl  0  0  0  0  0  0  0  0  0  0  0  0
  160.8030  204.9560  152.4070 N   0  0  0  0  0  0  0  0  0  0  0  0
  161.1640  206.3600  150.5120 C   0  0  0  0  0  0  0  0  0  0  0  0
  161.1550  207.3290  152.7660 N   0  0  0  0  0  2  0  0  0  0  0  0
  160.6210  202.7110  149.4010 C   0  0  0  0  0  2  0  0  0  0  0  0
  161.4570  205.9470  145.5120 C   0  0  0  0  0  3  0  0  0  0  0  0
  160.6910  203.8580  151.6210 C   0  0  0  0  0  0  0  0  0  0  0  0
  160.4030  202.5280  152.2510 C   0  0  0  0  0  2  0  0  0  0  0  0
  161.3960  207.6040  150.0070 N   0  0  0  0  0  0  0  0  0  0  0  0
  161.4220  206.7790  147.7780 C   0  0  0  0  0  0  0  0  0  0  0  0
  161.5580  207.0090  146.4090 C   0  0  0  0  0  3  0  0  0  0  0  0
  161.5030  210.9350  156.4620 C   0  0  0  0  0  0  0  0  0  0  0  0
  161.6980  208.5340  156.2610 C   0  0  0  0  0  3  0  0  0  0  0  0
  160.3400  209.9480  153.1120 O   0  0  0  0  0  1  0  0  0  0  0  0
  161.6660  212.1770  157.2610 C   0  0  0  0  0  1  0  0  0  0  0  0
  161.8520  209.7010  157.0120 C   0  0  0  0  0  3  0  0  0  0  0  0
  160.8440  209.8370  154.4030 C   0  0  0  0  0  0  0  0  0  0  0  0
  161.1940  208.5820  154.9510 C   0  0  0  0  0  0  0  0  0  0  0  0
  161.0010  211.0010  155.1620 C   0  0  0  0  0  3  0  0  0  0  0  0
  1  8  1  0  0  0  0
  2  7  1  0  0  0  0
  2 15  1  0  0  0  0
  3  2  2  0  0  0  0
  5  4  2  0  0  0  0
  5 30  1  0  0  0  0
  6  9  2  0  0  0  0
  7 19  2  0  0  0  0
  8 20  1  0  0  0  0
  9  3  1  0  0  0  0
 10 14  2  0  0  0  0
 10 16  1  0  0  0  0
 11  1  2  0  0  0  0
 12 21  1  0  0  0  0
 13  6  1  0  0  0  0
 15 10  1  0  0  0  0
 16  5  1  0  0  0  0
 17  1  1  0  0  0  0
 17  7  1  0  0  0  0
 18  6  1  0  0  0  0
 18 23  2  0  0  0  0
 19 20  1  0  0  0  0
 19 14  1  0  0  0  0
 21 15  2  0  0  0  0
 22  3  1  0  0  0  0
 22 12  2  0  0  0  0
 23 22  1  0  0  0  0
 24 28  1  0  0  0  0
 24 27  1  0  0  0  0
 25 28  2  0  0  0  0
 26 29  1  0  0  0  0
 29 30  2  0  0  0  0
 29 31  1  0  0  0  0
 30 25  1  0  0  0  0
 31 24  2  0  0  0  0
M  END
>  <MODEL>
2

>  <REMARK>
 VINA RESULT:      -8.6      1.764      4.200
  Name = 
  1 active torsions:
  status: ('A' for Active; 'I' for Inactive)
    1  A    between atoms: C_5  and  C_30
                            x       y       z     vdW  Elec       q    Type
                         _______ _______ _______ _____ _____    ______ ____

>  <TORSDO>
F 1

$$$$
=
 OpenBabel11122413223D

 31 35  0  0  0  0  0  0  0  0999 V2000
  161.5440  208.5040  154.0630 C   0  0  0  0  0  0  0  0  0  0  0  0
  161.3120  207.7510  150.3870 C   0  0  0  0  0  0  0  0  0  0  0  0
  161.2670  206.3350  150.2850 C   0  0  0  0  0  0  0  0  0  0  0  0
  161.7680  212.7870  148.9460 O   0  0  0  0  0  0  0  0  0  0  0  0
  161.8960  212.0640  147.9210 C   0  0  0  0  0  0  0  0  0  0  0  0
  161.0170  204.1840  151.2870 C   0  0  0  0  0  0  0  0  0  0  0  0
  161.1520  208.4650  151.6060 C   0  0  0  0  0  0  0  0  0  0  0  0
  161.7560  209.9950  154.0270 C   0  0  0  0  0  2  0  0  0  0  0  0
  161.0630  205.5400  151.3740 N   0  0  0  0  0  0  0  0  0  0  0  0
  161.5920  209.8940  149.2420 C   0  0  0  0  0  0  0  0  0  0  0  0
  161.9110  207.8700  155.0370 O   0  0  0  0  0  0  0  0  0  0  0  0
  161.6540  206.5040  147.8960 C   0  0  0  0  0  3  0  0  0  0  0  0
  160.7520  203.2250  152.7270 Cl  0  0  0  0  0  0  0  0  0  0  0  0
  161.4290  210.5360  150.4260 N   0  0  0  0  0  0  0  0  0  0  0  0
  161.5370  208.4940  149.1970 C   0  0  0  0  0  0  0  0  0  0  0  0
  161.8150  210.6350  148.0330 N   0  0  0  0  0  2  0  0  0  0  0  0
  160.8690  207.7890  152.9260 C   0  0  0  0  0  2  0  0  0  0  0  0
  161.1840  203.5540  150.0520 C   0  0  0  0  0  3  0  0  0  0  0  0
  161.2200  209.8710  151.5890 C   0  0  0  0  0  0  0  0  0  0  0  0
  161.0220  210.6480  152.8550 C   0  0  0  0  0  2  0  0  0  0  0  0
  161.6970  207.8550  148.0050 N   0  0  0  0  0  0  0  0  0  0  0  0
  161.4390  205.7230  149.0240 C   0  0  0  0  0  0  0  0  0  0  0  0
  161.3960  204.3320  148.9160 C   0  0  0  0  0  3  0  0  0  0  0  0
  162.6790  213.8400  144.0900 C   0  0  0  0  0  0  0  0  0  0  0  0
  163.4540  212.9170  146.1860 C   0  0  0  0  0  3  0  0  0  0  0  0
  159.7470  212.8190  146.0690 O   0  0  0  0  0  1  0  0  0  0  0  0
  162.9690  214.4530  142.7680 C   0  0  0  0  0  1  0  0  0  0  0  0
  163.7270  213.4930  144.9430 C   0  0  0  0  0  3  0  0  0  0  0  0
  161.0770  213.0310  145.7210 C   0  0  0  0  0  0  0  0  0  0  0  0
  162.1310  212.6770  146.5930 C   0  0  0  0  0  0  0  0  0  0  0  0
  161.3590  213.6090  144.4790 C   0  0  0  0  0  3  0  0  0  0  0  0
  1 11  2  0  0  0  0
  2  7  1  0  0  0  0
  3  2  1  0  0  0  0
  3  9  1  0  0  0  0
  5 16  1  0  0  0  0
  5  4  2  0  0  0  0
  6  9  2  0  0  0  0
  6 13  1  0  0  0  0
  7 17  1  0  0  0  0
  8  1  1  0  0  0  0
 10 14  2  0  0  0  0
 12 21  2  0  0  0  0
 12 22  1  0  0  0  0
 14 19  1  0  0  0  0
 15 10  1  0  0  0  0
 15  2  2  0  0  0  0
 16 10  1  0  0  0  0
 17  1  1  0  0  0  0
 18  6  1  0  0  0  0
 19  7  2  0  0  0  0
 19 20  1  0  0  0  0
 20  8  1  0  0  0  0
 21 15  1  0  0  0  0
 22  3  2  0  0  0  0
 23 22  1  0  0  0  0
 23 18  2  0  0  0  0
 24 31  2  0  0  0  0
 24 28  1  0  0  0  0
 25 30  1  0  0  0  0
 27 24  1  0  0  0  0
 28 25  2  0  0  0  0
 29 26  1  0  0  0  0
 29 30  2  0  0  0  0
 30  5  1  0  0  0  0
 31 29  1  0  0  0  0
M  END
>  <MODEL>
3

>  <REMARK>
 VINA RESULT:      -8.0      3.970      7.394
  Name = 
  1 active torsions:
  status: ('A' for Active; 'I' for Inactive)
    1  A    between atoms: C_5  and  C_30
                            x       y       z     vdW  Elec       q    Type
                         _______ _______ _______ _____ _____    ______ ____

>  <TORSDO>
F 1

$$$$
=
 OpenBabel11122413223D

 31 35  0  0  0  0  0  0  0  0999 V2000
  162.1690  210.4570  150.1120 C   0  0  0  0  0  0  0  0  0  0  0  0
  161.1790  207.0350  151.3150 C   0  0  0  0  0  0  0  0  0  0  0  0
  161.1130  207.1280  152.7310 C   0  0  0  0  0  0  0  0  0  0  0  0
  161.3270  204.8950  146.5150 O   0  0  0  0  0  0  0  0  0  0  0  0
  161.2400  203.9680  147.3650 C   0  0  0  0  0  0  0  0  0  0  0  0
  161.0760  208.4270  154.7320 C   0  0  0  0  0  0  0  0  0  0  0  0
  161.2760  208.1590  150.4500 C   0  0  0  0  0  0  0  0  0  0  0  0
  162.3690  210.1860  148.6450 C   0  0  0  0  0  2  0  0  0  0  0  0
  161.1390  208.3280  153.3770 N   0  0  0  0  0  0  0  0  0  0  0  0
  161.2150  205.5910  149.3420 C   0  0  0  0  0  0  0  0  0  0  0  0
  162.7300  211.4080  150.6290 O   0  0  0  0  0  0  0  0  0  0  0  0
  160.9960  204.7090  152.8740 C   0  0  0  0  0  3  0  0  0  0  0  0
  161.1140  210.0020  155.4940 Cl  0  0  0  0  0  0  0  0  0  0  0  0
  161.3020  206.6910  148.5520 N   0  0  0  0  0  0  0  0  0  0  0  0
  161.1520  205.7390  150.7340 C   0  0  0  0  0  0  0  0  0  0  0  0
  161.1830  204.2770  148.7650 N   0  0  0  0  0  2  0  0  0  0  0  0
  161.2720  209.5840  150.9460 C   0  0  0  0  0  2  0  0  0  0  0  0
  160.9820  207.2770  155.5160 C   0  0  0  0  0  3  0  0  0  0  0  0
  161.3390  207.9470  149.0590 C   0  0  0  0  0  0  0  0  0  0  0  0
  161.4080  209.1170  148.1240 C   0  0  0  0  0  2  0  0  0  0  0  0
  161.0610  204.6320  151.5220 N   0  0  0  0  0  0  0  0  0  0  0  0
  161.0190  205.9470  153.5020 C   0  0  0  0  0  0  0  0  0  0  0  0
  160.9540  206.0310  154.8930 C   0  0  0  0  0  3  0  0  0  0  0  0
  161.1470  199.8370  146.1940 C   0  0  0  0  0  0  0  0  0  0  0  0
  161.6200  201.5580  147.8250 C   0  0  0  0  0  3  0  0  0  0  0  0
  160.3060  203.1040  144.7190 O   0  0  0  0  0  1  0  0  0  0  0  0
  161.1220  198.4030  145.8060 C   0  0  0  0  0  1  0  0  0  0  0  0
  161.5970  200.2100  147.4610 C   0  0  0  0  0  3  0  0  0  0  0  0
  160.7400  202.1650  145.6480 C   0  0  0  0  0  0  0  0  0  0  0  0
  161.1950  202.5530  146.9290 C   0  0  0  0  0  0  0  0  0  0  0  0
  160.7200  200.8130  145.2910 C   0  0  0  0  0  3  0  0  0  0  0  0
  1 11  2  0  0  0  0
  1 17  1  0  0  0  0
  2  3  1  0  0  0  0
  3  9  2  0  0  0  0
  3 22  1  0  0  0  0
  4  5  2  0  0  0  0
  5 16  1  0  0  0  0
  6 13  1  0  0  0  0
  6 18  2  0  0  0  0
  7 17  1  0  0  0  0
  7  2  1  0  0  0  0
  8  1  1  0  0  0  0
  9  6  1  0  0  0  0
 10 15  1  0  0  0  0
 12 22  1  0  0  0  0
 14 19  1  0  0  0  0
 14 10  2  0  0  0  0
 15  2  2  0  0  0  0
 15 21  1  0  0  0  0
 16 10  1  0  0  0  0
 19  7  2  0  0  0  0
 20  8  1  0  0  0  0
 20 19  1  0  0  0  0
 21 12  2  0  0  0  0
 22 23  2  0  0  0  0
 23 18  1  0  0  0  0
 24 28  1  0  0  0  0
 26 29  1  0  0  0  0
 27 24  1  0  0  0  0
 28 25  2  0  0  0  0
 29 30  2  0  0  0  0
 30  5  1  0  0  0  0
 30 25  1  0  0  0  0
 31 29  1  0  0  0  0
 31 24  2  0  0  0  0
M  END
>  <MODEL>
4

>  <REMARK>
 VINA RESULT:      -7.2      3.264      8.299
  Name = 
  1 active torsions:
  status: ('A' for Active; 'I' for Inactive)
    1  A    between atoms: C_5  and  C_30
                            x       y       z     vdW  Elec       q    Type
                         _______ _______ _______ _____ _____    ______ ____

>  <TORSDO>
F 1

$$$$
=
 OpenBabel11122413223D

 31 35  0  0  0  0  0  0  0  0999 V2000
  159.4090  212.3420  156.0480 C   0  0  0  0  0  0  0  0  0  0  0  0
  160.4150  210.2900  153.0630 C   0  0  0  0  0  0  0  0  0  0  0  0
  160.6770  208.9860  153.5610 C   0  0  0  0  0  0  0  0  0  0  0  0
  160.2890  214.3690  149.7480 O   0  0  0  0  0  0  0  0  0  0  0  0
  160.8500  213.3990  149.1690 C   0  0  0  0  0  0  0  0  0  0  0  0
  160.5670  207.3650  155.3090 C   0  0  0  0  0  0  0  0  0  0  0  0
  159.7700  211.3120  153.8120 C   0  0  0  0  0  0  0  0  0  0  0  0
  159.3290  213.7120  155.4280 C   0  0  0  0  0  2  0  0  0  0  0  0
  160.3210  208.6110  154.8230 N   0  0  0  0  0  0  0  0  0  0  0  0
  160.5980  211.8600  151.1970 C   0  0  0  0  0  0  0  0  0  0  0  0
  159.5890  212.2370  157.2490 O   0  0  0  0  0  0  0  0  0  0  0  0
  161.7070  208.3950  151.4460 C   0  0  0  0  0  3  0  0  0  0  0  0
  160.0810  206.9530  156.9390 Cl  0  0  0  0  0  0  0  0  0  0  0  0
  159.9730  212.8050  151.9450 N   0  0  0  0  0  0  0  0  0  0  0  0
  160.8310  210.5880  151.7380 C   0  0  0  0  0  0  0  0  0  0  0  0
  161.0180  212.1500  149.8560 N   0  0  0  0  0  2  0  0  0  0  0  0
  159.2480  211.1020  155.2130 C   0  0  0  0  0  2  0  0  0  0  0  0
  161.2060  206.4150  154.5130 C   0  0  0  0  0  3  0  0  0  0  0  0
  159.5660  212.5710  153.2160 C   0  0  0  0  0  0  0  0  0  0  0  0
  158.8580  213.6540  153.9730 C   0  0  0  0  0  2  0  0  0  0  0  0
  161.4540  209.6430  150.9810 N   0  0  0  0  0  0  0  0  0  0  0  0
  161.3270  208.0420  152.7340 C   0  0  0  0  0  0  0  0  0  0  0  0
  161.5870  206.7600  153.2170 C   0  0  0  0  0  3  0  0  0  0  0  0
  162.3500  213.8550  145.1710 C   0  0  0  0  0  0  0  0  0  0  0  0
  162.5100  214.2790  147.5460 C   0  0  0  0  0  3  0  0  0  0  0  0
  159.5170  212.2040  146.8430 O   0  0  0  0  0  1  0  0  0  0  0  0
  162.8840  214.0240  143.7950 C   0  0  0  0  0  1  0  0  0  0  0  0
  163.0120  214.4380  146.2520 C   0  0  0  0  0  3  0  0  0  0  0  0
  160.6780  212.9500  146.6760 C   0  0  0  0  0  0  0  0  0  0  0  0
  161.3410  213.5370  147.7780 C   0  0  0  0  0  0  0  0  0  0  0  0
  161.1870  213.1140  145.3830 C   0  0  0  0  0  3  0  0  0  0  0  0
  1 11  2  0  0  0  0
  2  3  1  0  0  0  0
  2  7  1  0  0  0  0
  3  9  1  0  0  0  0
  5  4  2  0  0  0  0
  5 16  1  0  0  0  0
  6 13  1  0  0  0  0
  7 17  1  0  0  0  0
  8  1  1  0  0  0  0
  9  6  2  0  0  0  0
 10 15  1  0  0  0  0
 10 14  2  0  0  0  0
 12 22  1  0  0  0  0
 14 19  1  0  0  0  0
 15  2  2  0  0  0  0
 16 10  1  0  0  0  0
 17  1  1  0  0  0  0
 18  6  1  0  0  0  0
 19  7  2  0  0  0  0
 19 20  1  0  0  0  0
 20  8  1  0  0  0  0
 21 12  2  0  0  0  0
 21 15  1  0  0  0  0
 22 23  1  0  0  0  0
 22  3  2  0  0  0  0
 23 18  2  0  0  0  0
 24 31  2  0  0  0  0
 24 28  1  0  0  0  0
 25 30  1  0  0  0  0
 27 24  1  0  0  0  0
 28 25  2  0  0  0  0
 29 26  1  0  0  0  0
 29 30  2  0  0  0  0
 30  5  1  0  0  0  0
 31 29  1  0  0  0  0
M  END
>  <MODEL>
5

>  <REMARK>
 VINA RESULT:      -7.1      5.135      8.930
  Name = 
  1 active torsions:
  status: ('A' for Active; 'I' for Inactive)
    1  A    between atoms: C_5  and  C_30
                            x       y       z     vdW  Elec       q    Type
                         _______ _______ _______ _____ _____    ______ ____

>  <TORSDO>
F 1

$$$$
