=
 OpenBabel11122414243D

 34 41  0  0  1  0  0  0  0  0999 V2000
  161.7140  208.3170  149.4570 C   0  0  0  0  0  0  0  0  0  0  0  0
  161.8150  206.9360  147.2930 C   0  0  0  0  0  2  0  0  0  0  0  0
  160.1300  209.0890  155.5170 C   0  0  1  0  0  3  0  0  0  0  0  0
  161.6290  209.4870  151.5920 C   0  0  0  0  0  0  0  0  0  0  0  0
  161.1020  208.0960  153.5450 C   0  0  0  0  0  0  0  0  0  0  0  0
  160.1640  206.9730  155.7140 C   0  0  0  0  0  2  0  0  0  0  0  0
  159.4540  208.1080  156.4470 C   0  0  0  0  0  2  0  0  0  0  0  0
  161.9250  210.6420  155.1740 C   0  0  0  0  0  2  0  0  0  0  0  0
  161.2660  205.8670  149.3300 C   0  0  0  0  0  0  0  0  0  0  0  0
  160.8270  202.7680  149.6010 C   0  0  0  0  0  2  0  0  0  0  0  0
  161.0350  207.0100  152.8280 N   0  0  0  0  0  0  0  0  0  0  0  0
  161.4190  210.7350  153.7130 C   0  0  0  0  0  2  0  0  0  0  0  0
  161.0940  205.7930  150.6690 C   0  0  0  0  0  0  0  0  0  0  0  0
  161.7530  205.4250  147.0510 C   0  0  0  0  0  2  0  0  0  0  0  0
  161.4360  209.4280  152.9190 C   0  0  0  0  0  0  0  0  0  0  0  0
  160.9150  210.1510  156.1360 N   0  0  0  0  0  2  0  0  0  0  0  0
  161.8250  203.5080  148.7370 C   0  0  2  0  0  3  0  0  0  0  0  0
  161.5250  208.2650  150.7820 C   0  0  1  0  0  3  0  0  0  0  0  0
  161.0460  208.0000  155.0310 C   0  0  2  0  0  3  0  0  0  0  0  0
  161.2080  207.0190  151.4290 N   0  0  0  0  0  0  0  0  0  0  0  0
  162.1240  210.7330  149.4990 C   0  0  0  0  0  3  0  0  0  0  0  0
  160.7950  203.2670  151.0080 C   0  0  0  0  0  3  0  0  0  0  0  0
  161.9230  210.7210  150.9200 N   0  0  0  0  0  0  0  0  0  0  0  0
  160.8800  204.5340  151.4300 C   0  0  0  0  0  3  0  0  0  0  0  0
  161.1360  204.7950  148.3110 C   0  0  1  0  0  3  0  0  0  0  0  0
  162.0300  209.6020  148.7900 C   0  0  0  0  0  3  0  0  0  0  0  0
  161.5950  207.1000  148.7150 N   0  0  0  0  0  0  0  0  0  0  0  0
  162.1180  202.7160  147.6230 O   0  0  0  0  0  0  0  0  0  0  0  0
  160.8780  202.2510  147.1780 C   0  0  0  0  0  2  0  0  0  0  0  0
  158.7520  201.9910  144.6830 O   0  0  0  0  0  0  0  0  0  0  0  0
  160.6470  203.3620  144.9800 C   0  0  0  0  0  2  0  0  0  0  0  0
  160.9070  202.0560  145.6720 C   0  0  2  0  0  3  0  0  0  0  0  0
  159.4350  203.0800  144.1260 C   0  0  0  0  0  2  0  0  0  0  0  0
  159.7470  201.1810  145.2520 C   0  0  0  0  0  2  0  0  0  0  0  0
  2 27  1  0  0  0  0
  3 16  1  0  0  0  0
  3  7  1  1  0  0  0
  4 15  2  0  0  0  0
  5 19  1  0  0  0  0
  6  7  1  0  0  0  0
  8 16  1  0  0  0  0
  9 13  2  0  0  0  0
 10 22  1  0  0  0  0
 11  5  2  0  0  0  0
 12  8  1  0  0  0  0
 13 20  1  0  0  0  0
 13 24  1  0  0  0  0
 14  2  1  0  0  0  0
 15  5  1  0  0  0  0
 15 12  1  0  0  0  0
 17 28  1  6  0  0  0
 17 10  1  0  0  0  0
 18  1  1  6  0  0  0
 18 20  1  0  0  0  0
 18  4  1  0  0  0  0
 19  3  1  0  0  0  0
 19  6  1  6  0  0  0
 20 11  1  0  0  0  0
 21 23  2  0  0  0  0
 22 24  2  0  0  0  0
 23  4  1  0  0  0  0
 25 14  1  6  0  0  0
 25 17  1  0  0  0  0
 25  9  1  0  0  0  0
 26  1  2  0  0  0  0
 26 21  1  0  0  0  0
 27  9  1  0  0  0  0
 27  1  1  0  0  0  0
 29 28  1  0  0  0  0
 30 34  1  0  0  0  0
 31 32  1  0  0  0  0
 32 29  1  1  0  0  0
 33 30  1  0  0  0  0
 33 31  1  0  0  0  0
 34 32  1  0  0  0  0
M  END
>  <MODEL>
1

>  <REMARK>
 VINA RESULT:      -9.2      0.000      0.000
  Name = 
  3 active torsions:
  status: ('A' for Active; 'I' for Inactive)
    1  A    between atoms: C_17  and  O_28
    2  A    between atoms: O_28  and  C_29
    3  A    between atoms: C_29  and  C_32
                            x       y       z     vdW  Elec       q    Type
                         _______ _______ _______ _____ _____    ______ ____

>  <TORSDO>
F 3

$$$$
=
 OpenBabel11122414243D

 34 41  0  0  1  0  0  0  0  0999 V2000
  160.9810  204.8970  151.9360 C   0  0  0  0  0  0  0  0  0  0  0  0
  160.9380  206.3430  154.0590 C   0  0  0  0  0  2  0  0  0  0  0  0
  160.6600  204.1610  145.6770 C   0  0  1  0  0  3  0  0  0  0  0  0
  161.0850  203.6520  149.8450 C   0  0  0  0  0  0  0  0  0  0  0  0
  161.3810  205.0060  147.8180 C   0  0  0  0  0  0  0  0  0  0  0  0
  161.2710  206.1880  145.4870 C   0  0  0  0  0  2  0  0  0  0  0  0
  160.4810  205.2180  144.6110 C   0  0  0  0  0  2  0  0  0  0  0  0
  161.8790  202.2400  146.4350 C   0  0  0  0  0  2  0  0  0  0  0  0
  161.1500  207.3850  151.9480 C   0  0  0  0  0  0  0  0  0  0  0  0
  161.5820  210.4730  151.5720 C   0  0  0  0  0  2  0  0  0  0  0  0
  161.4310  206.1180  148.4960 N   0  0  0  0  0  0  0  0  0  0  0  0
  161.0490  202.3650  147.7370 C   0  0  0  0  0  2  0  0  0  0  0  0
  161.3090  207.4150  150.6050 C   0  0  0  0  0  0  0  0  0  0  0  0
  161.2080  207.8340  154.2750 C   0  0  0  0  0  2  0  0  0  0  0  0
  161.2180  203.6740  148.5090 C   0  0  0  0  0  0  0  0  0  0  0  0
  161.2690  202.9030  145.2610 N   0  0  0  0  0  2  0  0  0  0  0  0
  162.1400  209.5670  152.6470 C   0  0  2  0  0  3  0  0  0  0  0  0
  161.1150  204.9110  150.6040 C   0  0  0  0  0  0  0  0  0  0  0  0
  161.6870  205.0200  146.3590 C   0  0  2  0  0  3  0  0  0  0  0  0
  161.2770  206.1540  149.8960 N   0  0  0  0  0  0  0  0  0  0  0  0
  160.7640  202.4560  152.0000 C   0  0  0  0  0  3  0  0  0  0  0  0
  161.7430  209.9110  150.1970 C   0  0  0  0  0  3  0  0  0  0  0  0
  160.8990  202.4280  150.5710 N   0  0  0  0  0  2  0  0  0  0  0  0
  161.5970  208.6380  149.8110 C   0  0  0  0  0  3  0  0  0  0  0  0
  161.0700  208.5170  152.9050 C   0  0  1  0  0  3  0  0  0  0  0  0
  160.8020  203.6170  152.6630 C   0  0  0  0  0  3  0  0  0  0  0  0
  161.0090  206.1500  152.6270 N   0  0  0  0  0  0  0  0  0  0  0  0
  162.3650  210.3300  153.7960 O   0  0  0  0  0  0  0  0  0  0  0  0
  161.1970  211.0780  153.9640 C   0  0  0  0  0  2  0  0  0  0  0  0
  160.0350  209.7380  156.7330 O   0  0  0  0  0  0  0  0  0  0  0  0
  162.0890  210.7900  156.2520 C   0  0  0  0  0  2  0  0  0  0  0  0
  161.0260  211.4520  155.4250 C   0  0  2  0  0  3  0  0  0  0  0  0
  161.3090  209.9830  157.2610 C   0  0  0  0  0  2  0  0  0  0  0  0
  159.7350  210.8650  155.9510 C   0  0  0  0  0  2  0  0  0  0  0  0
  1 27  1  0  0  0  0
  1 26  1  0  0  0  0
  2 14  1  0  0  0  0
  3  7  1  6  0  0  0
  3 19  1  0  0  0  0
  4 23  1  0  0  0  0
  4 18  1  0  0  0  0
  5 11  2  0  0  0  0
  5 15  1  0  0  0  0
  7  6  1  0  0  0  0
  8 12  1  0  0  0  0
  9 27  1  0  0  0  0
  9 25  1  0  0  0  0
 10 17  1  0  0  0  0
 11 20  1  0  0  0  0
 12 15  1  0  0  0  0
 13  9  2  0  0  0  0
 15  4  2  0  0  0  0
 16  3  1  0  0  0  0
 16  8  1  0  0  0  0
 17 25  1  0  0  0  0
 17 28  1  1  0  0  0
 18  1  2  0  0  0  0
 19  6  1  6  0  0  0
 19  5  1  0  0  0  0
 20 18  1  0  0  0  0
 20 13  1  0  0  0  0
 21 26  2  0  0  0  0
 22 10  1  0  0  0  0
 23 21  1  0  0  0  0
 24 22  2  0  0  0  0
 24 13  1  0  0  0  0
 25 14  1  1  0  0  0
 27  2  1  0  0  0  0
 28 29  1  0  0  0  0
 30 33  1  0  0  0  0
 31 33  1  0  0  0  0
 32 29  1  6  0  0  0
 32 34  1  0  0  0  0
 32 31  1  0  0  0  0
 34 30  1  0  0  0  0
M  END
>  <MODEL>
2

>  <REMARK>
 VINA RESULT:      -9.1      3.286      9.150
  Name = 
  3 active torsions:
  status: ('A' for Active; 'I' for Inactive)
    1  A    between atoms: C_17  and  O_28
    2  A    between atoms: O_28  and  C_29
    3  A    between atoms: C_29  and  C_32
                            x       y       z     vdW  Elec       q    Type
                         _______ _______ _______ _____ _____    ______ ____

>  <TORSDO>
F 3

$$$$
=
 OpenBabel11122414243D

 34 41  0  0  1  0  0  0  0  0999 V2000
  161.5930  209.0260  150.9930 C   0  0  0  0  0  0  0  0  0  0  0  0
  161.6020  211.0460  152.5790 C   0  0  0  0  0  2  0  0  0  0  0  0
  161.6190  202.8170  149.8600 C   0  0  1  0  0  3  0  0  0  0  0  0
  161.5020  207.0280  149.6010 C   0  0  0  0  0  0  0  0  0  0  0  0
  160.9380  204.9450  150.7710 C   0  0  0  0  0  0  0  0  0  0  0  0
  160.7760  202.5420  151.7930 C   0  0  0  0  0  2  0  0  0  0  0  0
  161.6150  201.6770  150.8540 C   0  0  0  0  0  2  0  0  0  0  0  0
  160.6670  203.7740  147.8780 C   0  0  0  0  0  2  0  0  0  0  0  0
  161.1500  208.8920  153.4430 C   0  0  0  0  0  0  0  0  0  0  0  0
  160.3580  208.3520  156.4340 C   0  0  0  0  0  2  0  0  0  0  0  0
  160.8050  205.5530  151.9160 N   0  0  0  0  0  0  0  0  0  0  0  0
  161.5540  205.0080  148.1810 C   0  0  0  0  0  2  0  0  0  0  0  0
  160.9090  207.5640  153.3630 C   0  0  0  0  0  0  0  0  0  0  0  0
  161.1830  211.1850  154.0450 C   0  0  0  0  0  2  0  0  0  0  0  0
  161.2880  205.7060  149.5160 C   0  0  0  0  0  0  0  0  0  0  0  0
  161.1290  202.5230  148.5190 N   0  0  0  0  0  2  0  0  0  0  0  0
  159.9700  209.5170  155.5510 C   0  0  2  0  0  3  0  0  0  0  0  0
  161.3790  207.7070  150.8990 C   0  0  0  0  0  0  0  0  0  0  0  0
  160.5450  203.5120  150.6510 C   0  0  2  0  0  3  0  0  0  0  0  0
  161.0380  206.9350  152.0650 N   0  0  0  0  0  0  0  0  0  0  0  0
  162.0810  209.2270  148.5990 C   0  0  0  0  0  3  0  0  0  0  0  0
  160.1790  207.0290  155.7640 C   0  0  0  0  0  3  0  0  0  0  0  0
  161.8650  207.8150  148.4580 N   0  0  0  0  0  2  0  0  0  0  0  0
  160.4410  206.7150  154.4900 C   0  0  0  0  0  3  0  0  0  0  0  0
  161.1620  209.7690  154.6410 C   0  0  1  0  0  3  0  0  0  0  0  0
  161.9550  209.8180  149.7930 C   0  0  0  0  0  3  0  0  0  0  0  0
  161.4670  209.6360  152.2800 N   0  0  0  0  0  0  0  0  0  0  0  0
  159.7300  210.6290  156.3640 O   0  0  0  0  0  0  0  0  0  0  0  0
  158.3380  210.7180  156.4470 C   0  0  0  0  0  2  0  0  0  0  0  0
  155.6980  212.3780  155.4060 O   0  0  0  0  0  0  0  0  0  0  0  0
  158.0020  212.7420  155.0680 C   0  0  0  0  0  2  0  0  0  0  0  0
  157.7750  211.2610  155.1460 C   0  0  2  0  0  3  0  0  0  0  0  0
  156.6140  213.3110  154.9030 C   0  0  0  0  0  2  0  0  0  0  0  0
  156.2690  211.1220  155.1490 C   0  0  0  0  0  2  0  0  0  0  0  0
  1 27  1  0  0  0  0
  2 14  1  0  0  0  0
  3 19  1  0  0  0  0
  3  7  1  1  0  0  0
  4 18  1  0  0  0  0
  5 11  2  0  0  0  0
  7  6  1  0  0  0  0
  8 12  1  0  0  0  0
  8 16  1  0  0  0  0
  9 25  1  0  0  0  0
 11 20  1  0  0  0  0
 12 15  1  0  0  0  0
 13  9  2  0  0  0  0
 13 24  1  0  0  0  0
 15  4  2  0  0  0  0
 15  5  1  0  0  0  0
 16  3  1  0  0  0  0
 17 28  1  1  0  0  0
 17 10  1  0  0  0  0
 18  1  2  0  0  0  0
 18 20  1  0  0  0  0
 19  5  1  0  0  0  0
 19  6  1  1  0  0  0
 20 13  1  0  0  0  0
 21 26  2  0  0  0  0
 22 10  1  0  0  0  0
 23 21  1  0  0  0  0
 23  4  1  0  0  0  0
 24 22  2  0  0  0  0
 25 14  1  6  0  0  0
 25 17  1  0  0  0  0
 26  1  1  0  0  0  0
 27  2  1  0  0  0  0
 27  9  1  0  0  0  0
 28 29  1  0  0  0  0
 31 32  1  0  0  0  0
 32 34  1  0  0  0  0
 32 29  1  1  0  0  0
 33 31  1  0  0  0  0
 33 30  1  0  0  0  0
 34 30  1  0  0  0  0
M  END
>  <MODEL>
3

>  <REMARK>
 VINA RESULT:      -8.7      3.721      8.417
  Name = 
  3 active torsions:
  status: ('A' for Active; 'I' for Inactive)
    1  A    between atoms: C_17  and  O_28
    2  A    between atoms: O_28  and  C_29
    3  A    between atoms: C_29  and  C_32
                            x       y       z     vdW  Elec       q    Type
                         _______ _______ _______ _____ _____    ______ ____

>  <TORSDO>
F 3

$$$$
=
 OpenBabel11122414243D

 34 41  0  0  1  0  0  0  0  0999 V2000
  161.7270  208.2030  149.9480 C   0  0  0  0  0  0  0  0  0  0  0  0
  161.8980  210.3280  151.3820 C   0  0  0  0  0  2  0  0  0  0  0  0
  161.5320  201.9330  149.2630 C   0  0  1  0  0  3  0  0  0  0  0  0
  161.4880  206.1170  148.7130 C   0  0  0  0  0  0  0  0  0  0  0  0
  160.9670  204.1360  150.0670 C   0  0  0  0  0  0  0  0  0  0  0  0
  160.8290  201.8150  151.2660 C   0  0  0  0  0  2  0  0  0  0  0  0
  161.5770  200.8650  150.3330 C   0  0  0  0  0  2  0  0  0  0  0  0
  160.4570  202.7750  147.2920 C   0  0  0  0  0  2  0  0  0  0  0  0
  161.4640  208.2530  152.4280 C   0  0  0  0  0  0  0  0  0  0  0  0
  160.8840  207.9440  155.4990 C   0  0  0  0  0  2  0  0  0  0  0  0
  160.9330  204.8260  151.1720 N   0  0  0  0  0  0  0  0  0  0  0  0
  161.3910  204.0020  147.4410 C   0  0  0  0  0  2  0  0  0  0  0  0
  161.1890  206.9290  152.4600 C   0  0  0  0  0  0  0  0  0  0  0  0
  161.5910  210.5800  152.8610 C   0  0  0  0  0  2  0  0  0  0  0  0
  161.2400  204.7980  148.7380 C   0  0  0  0  0  0  0  0  0  0  0  0
  160.9370  201.5600  147.9850 N   0  0  0  0  0  2  0  0  0  0  0  0
  160.4570  209.0550  154.5650 C   0  0  2  0  0  3  0  0  0  0  0  0
  161.4770  206.8870  149.9650 C   0  0  0  0  0  0  0  0  0  0  0  0
  160.5350  202.7100  150.0780 C   0  0  2  0  0  3  0  0  0  0  0  0
  161.2060  206.2080  151.2050 N   0  0  0  0  0  0  0  0  0  0  0  0
  162.0400  208.2250  147.5170 C   0  0  0  0  0  3  0  0  0  0  0  0
  160.6260  206.5830  154.9390 C   0  0  0  0  0  3  0  0  0  0  0  0
  161.7840  206.8130  147.4930 N   0  0  0  0  0  2  0  0  0  0  0  0
  160.7860  206.1740  153.6750 C   0  0  0  0  0  3  0  0  0  0  0  0
  161.5840  209.2100  153.5560 C   0  0  1  0  0  3  0  0  0  0  0  0
  162.0160  208.9000  148.6720 C   0  0  0  0  0  3  0  0  0  0  0  0
  161.7100  208.9050  151.1950 N   0  0  0  0  0  0  0  0  0  0  0  0
  160.3030  210.2270  155.3120 O   0  0  0  0  0  0  0  0  0  0  0  0
  158.9790  210.1940  155.7600 C   0  0  0  0  0  2  0  0  0  0  0  0
  159.3080  212.8690  153.8770 O   0  0  0  0  0  0  0  0  0  0  0  0
  157.4160  211.5780  154.4360 C   0  0  0  0  0  2  0  0  0  0  0  0
  158.3480  211.5660  155.6120 C   0  0  2  0  0  3  0  0  0  0  0  0
  157.9560  212.6830  153.5610 C   0  0  0  0  0  2  0  0  0  0  0  0
  159.4110  212.5770  155.2460 C   0  0  0  0  0  2  0  0  0  0  0  0
  1 18  2  0  0  0  0
  1 27  1  0  0  0  0
  2 14  1  0  0  0  0
  3 19  1  0  0  0  0
  3  7  1  1  0  0  0
  4 15  2  0  0  0  0
  4 18  1  0  0  0  0
  5 19  1  0  0  0  0
  5 11  2  0  0  0  0
  7  6  1  0  0  0  0
  8 12  1  0  0  0  0
  8 16  1  0  0  0  0
  9 13  2  0  0  0  0
  9 25  1  0  0  0  0
 11 20  1  0  0  0  0
 12 15  1  0  0  0  0
 13 24  1  0  0  0  0
 15  5  1  0  0  0  0
 16  3  1  0  0  0  0
 17 28  1  1  0  0  0
 17 10  1  0  0  0  0
 18 20  1  0  0  0  0
 19  6  1  1  0  0  0
 20 13  1  0  0  0  0
 21 26  2  0  0  0  0
 22 10  1  0  0  0  0
 23 21  1  0  0  0  0
 23  4  1  0  0  0  0
 24 22  2  0  0  0  0
 25 14  1  6  0  0  0
 25 17  1  0  0  0  0
 26  1  1  0  0  0  0
 27  2  1  0  0  0  0
 27  9  1  0  0  0  0
 28 29  1  0  0  0  0
 30 34  1  0  0  0  0
 31 32  1  0  0  0  0
 32 29  1  6  0  0  0
 33 30  1  0  0  0  0
 33 31  1  0  0  0  0
 34 32  1  0  0  0  0
M  END
>  <MODEL>
4

>  <REMARK>
 VINA RESULT:      -8.5      3.415      8.294
  Name = 
  3 active torsions:
  status: ('A' for Active; 'I' for Inactive)
    1  A    between atoms: C_17  and  O_28
    2  A    between atoms: O_28  and  C_29
    3  A    between atoms: C_29  and  C_32
                            x       y       z     vdW  Elec       q    Type
                         _______ _______ _______ _____ _____    ______ ____

>  <TORSDO>
F 3

$$$$
=
 OpenBabel11122414243D

 34 41  0  0  1  0  0  0  0  0999 V2000
  161.7270  207.5080  149.2300 C   0  0  0  0  0  0  0  0  0  0  0  0
  161.9530  209.5090  150.8250 C   0  0  0  0  0  2  0  0  0  0  0  0
  161.5050  201.3140  148.0440 C   0  0  1  0  0  3  0  0  0  0  0  0
  161.4430  205.5290  147.8390 C   0  0  0  0  0  0  0  0  0  0  0  0
  160.9710  203.4430  149.0450 C   0  0  0  0  0  0  0  0  0  0  0  0
  160.8780  201.0310  150.0560 C   0  0  0  0  0  2  0  0  0  0  0  0
  161.5900  200.1630  149.0210 C   0  0  0  0  0  2  0  0  0  0  0  0
  160.3570  202.3110  146.1890 C   0  0  0  0  0  2  0  0  0  0  0  0
  161.5580  207.3540  151.7140 C   0  0  0  0  0  0  0  0  0  0  0  0
  161.0930  206.7950  154.7690 C   0  0  0  0  0  2  0  0  0  0  0  0
  160.9790  204.0410  150.2030 N   0  0  0  0  0  0  0  0  0  0  0  0
  161.2970  203.5240  146.4030 C   0  0  0  0  0  2  0  0  0  0  0  0
  161.2830  206.0320  151.6480 C   0  0  0  0  0  0  0  0  0  0  0  0
  161.7020  209.6400  152.3300 C   0  0  0  0  0  2  0  0  0  0  0  0
  161.1950  204.2110  147.7660 C   0  0  0  0  0  0  0  0  0  0  0  0
  160.8630  201.0440  146.7630 N   0  0  0  0  0  2  0  0  0  0  0  0
  160.6310  207.9770  153.9460 C   0  0  2  0  0  3  0  0  0  0  0  0
  161.4780  206.1940  149.1490 C   0  0  0  0  0  0  0  0  0  0  0  0
  160.5400  202.0190  148.9560 C   0  0  2  0  0  3  0  0  0  0  0  0
  161.2540  205.4160  150.3390 N   0  0  0  0  0  0  0  0  0  0  0  0
  161.9500  207.7280  146.7990 C   0  0  0  0  0  3  0  0  0  0  0  0
  160.8140  205.4830  154.1100 C   0  0  0  0  0  3  0  0  0  0  0  0
  161.6920  206.3220  146.6700 N   0  0  0  0  0  2  0  0  0  0  0  0
  160.9270  205.1790  152.8120 C   0  0  0  0  0  3  0  0  0  0  0  0
  161.7200  208.2170  152.9110 C   0  0  1  0  0  3  0  0  0  0  0  0
  161.9690  208.3070  148.0050 C   0  0  0  0  0  3  0  0  0  0  0  0
  161.7580  208.1060  150.5300 N   0  0  0  0  0  0  0  0  0  0  0  0
  160.5060  209.0840  154.7910 O   0  0  0  0  0  0  0  0  0  0  0  0
  160.2110  208.5440  156.0460 C   0  0  0  0  0  2  0  0  0  0  0  0
  162.8880  210.3520  156.6540 O   0  0  0  0  0  0  0  0  0  0  0  0
  160.5940  210.8860  156.7380 C   0  0  0  0  0  2  0  0  0  0  0  0
  160.7490  209.4490  157.1390 C   0  0  2  0  0  3  0  0  0  0  0  0
  162.0020  211.4280  156.7900 C   0  0  0  0  0  2  0  0  0  0  0  0
  162.2450  209.2620  157.2600 C   0  0  0  0  0  2  0  0  0  0  0  0
  1 27  1  0  0  0  0
  2 14  1  0  0  0  0
  3 19  1  0  0  0  0
  3  7  1  1  0  0  0
  4 18  1  0  0  0  0
  5 11  2  0  0  0  0
  7  6  1  0  0  0  0
  8 12  1  0  0  0  0
  8 16  1  0  0  0  0
  9 25  1  0  0  0  0
 11 20  1  0  0  0  0
 12 15  1  0  0  0  0
 13  9  2  0  0  0  0
 13 24  1  0  0  0  0
 15  4  2  0  0  0  0
 15  5  1  0  0  0  0
 16  3  1  0  0  0  0
 17 10  1  0  0  0  0
 17 28  1  1  0  0  0
 18  1  2  0  0  0  0
 18 20  1  0  0  0  0
 19  5  1  0  0  0  0
 19  6  1  1  0  0  0
 20 13  1  0  0  0  0
 21 26  2  0  0  0  0
 22 10  1  0  0  0  0
 23 21  1  0  0  0  0
 23  4  1  0  0  0  0
 24 22  2  0  0  0  0
 25 14  1  6  0  0  0
 25 17  1  0  0  0  0
 26  1  1  0  0  0  0
 27  2  1  0  0  0  0
 27  9  1  0  0  0  0
 28 29  1  0  0  0  0
 30 33  1  0  0  0  0
 30 34  1  0  0  0  0
 31 33  1  0  0  0  0
 31 32  1  0  0  0  0
 32 29  1  6  0  0  0
 32 34  1  0  0  0  0
M  END
>  <MODEL>
5

>  <REMARK>
 VINA RESULT:      -7.8      3.218      8.602
  Name = 
  3 active torsions:
  status: ('A' for Active; 'I' for Inactive)
    1  A    between atoms: C_17  and  O_28
    2  A    between atoms: O_28  and  C_29
    3  A    between atoms: C_29  and  C_32
                            x       y       z     vdW  Elec       q    Type
                         _______ _______ _______ _____ _____    ______ ____

>  <TORSDO>
F 3

$$$$
=
 OpenBabel11122414243D

 34 41  0  0  1  0  0  0  0  0999 V2000
  160.6910  207.6430  154.2560 C   0  0  0  0  0  0  0  0  0  0  0  0
  161.5910  205.3030  153.6930 C   0  0  0  0  0  2  0  0  0  0  0  0
  159.6440  213.7060  152.8550 C   0  0  1  0  0  3  0  0  0  0  0  0
  159.8080  209.8820  154.6320 C   0  0  0  0  0  0  0  0  0  0  0  0
  159.6370  211.3040  152.6380 C   0  0  0  0  0  0  0  0  0  0  0  0
  159.7290  213.1640  150.8010 C   0  0  0  0  0  2  0  0  0  0  0  0
  159.9800  214.4520  151.5830 C   0  0  0  0  0  2  0  0  0  0  0  0
  158.0010  213.1940  154.5250 C   0  0  0  0  0  2  0  0  0  0  0  0
  161.3760  206.9110  151.9720 C   0  0  0  0  0  0  0  0  0  0  0  0
  161.9540  206.3020  148.9460 C   0  0  0  0  0  2  0  0  0  0  0  0
  160.0850  210.3630  151.8550 N   0  0  0  0  0  0  0  0  0  0  0  0
  159.0380  212.1860  155.0790 C   0  0  0  0  0  2  0  0  0  0  0  0
  161.0050  208.0980  151.4420 C   0  0  0  0  0  0  0  0  0  0  0  0
  161.8830  204.6260  152.3510 C   0  0  0  0  0  2  0  0  0  0  0  0
  159.4590  211.0720  154.1190 C   0  0  0  0  0  0  0  0  0  0  0  0
  158.5830  214.2640  153.6850 N   0  0  0  0  0  2  0  0  0  0  0  0
  161.3210  205.4030  149.9850 C   0  0  2  0  0  3  0  0  0  0  0  0
  160.3390  208.8320  153.7510 C   0  0  1  0  0  3  0  0  0  0  0  0
  159.1030  212.5620  152.0430 C   0  0  2  0  0  3  0  0  0  0  0  0
  160.4840  209.1030  152.3440 N   0  0  0  0  0  0  0  0  0  0  0  0
  160.0780  208.3060  156.5350 C   0  0  0  0  0  3  0  0  0  0  0  0
  161.3750  207.6790  148.9380 C   0  0  0  0  0  3  0  0  0  0  0  0
  159.6940  209.5950  156.0340 N   0  0  0  0  0  0  0  0  0  0  0  0
  161.0120  208.4210  149.9910 C   0  0  0  0  0  3  0  0  0  0  0  0
  162.0000  205.7430  151.3020 C   0  0  1  0  0  3  0  0  0  0  0  0
  160.5510  207.3680  155.7060 C   0  0  0  0  0  3  0  0  0  0  0  0
  161.2080  206.6580  153.3560 N   0  0  0  0  0  0  0  0  0  0  0  0
  161.5710  204.0740  149.6320 O   0  0  0  0  0  0  0  0  0  0  0  0
  160.7700  203.8440  148.5100 C   0  0  0  0  0  2  0  0  0  0  0  0
  160.1470  201.7100  146.0880 O   0  0  0  0  0  0  0  0  0  0  0  0
  161.4330  203.6850  146.1330 C   0  0  0  0  0  2  0  0  0  0  0  0
  161.5380  203.0340  147.4810 C   0  0  2  0  0  3  0  0  0  0  0  0
  160.8310  202.6100  145.2610 C   0  0  0  0  0  2  0  0  0  0  0  0
  160.8690  201.6910  147.2920 C   0  0  0  0  0  2  0  0  0  0  0  0
  1 26  2  0  0  0  0
  3  7  1  6  0  0  0
  3 16  1  0  0  0  0
  4 23  1  0  0  0  0
  5 15  1  0  0  0  0
  6  7  1  0  0  0  0
  8 12  1  0  0  0  0
  9 27  1  0  0  0  0
 10 17  1  0  0  0  0
 11 20  1  0  0  0  0
 11  5  2  0  0  0  0
 13  9  2  0  0  0  0
 13 20  1  0  0  0  0
 14  2  1  0  0  0  0
 15  4  2  0  0  0  0
 15 12  1  0  0  0  0
 16  8  1  0  0  0  0
 17 28  1  6  0  0  0
 17 25  1  0  0  0  0
 18  1  1  1  0  0  0
 18  4  1  0  0  0  0
 19  6  1  6  0  0  0
 19  5  1  0  0  0  0
 19  3  1  0  0  0  0
 20 18  1  0  0  0  0
 22 10  1  0  0  0  0
 22 24  2  0  0  0  0
 23 21  2  0  0  0  0
 24 13  1  0  0  0  0
 25  9  1  0  0  0  0
 25 14  1  1  0  0  0
 26 21  1  0  0  0  0
 27  2  1  0  0  0  0
 27  1  1  0  0  0  0
 29 28  1  0  0  0  0
 30 34  1  0  0  0  0
 31 32  1  0  0  0  0
 32 29  1  1  0  0  0
 33 30  1  0  0  0  0
 33 31  1  0  0  0  0
 34 32  1  0  0  0  0
M  END
>  <MODEL>
6

>  <REMARK>
 VINA RESULT:      -7.2      2.238      4.519
  Name = 
  3 active torsions:
  status: ('A' for Active; 'I' for Inactive)
    1  A    between atoms: C_17  and  O_28
    2  A    between atoms: O_28  and  C_29
    3  A    between atoms: C_29  and  C_32
                            x       y       z     vdW  Elec       q    Type
                         _______ _______ _______ _____ _____    ______ ____

>  <TORSDO>
F 3

$$$$
=
 OpenBabel11122414243D

 34 41  0  0  1  0  0  0  0  0999 V2000
  160.8290  207.3220  154.0780 C   0  0  0  0  0  0  0  0  0  0  0  0
  161.9240  205.2140  153.1000 C   0  0  0  0  0  2  0  0  0  0  0  0
  159.3180  213.4450  153.8500 C   0  0  1  0  0  3  0  0  0  0  0  0
  159.7610  209.3690  154.8540 C   0  0  0  0  0  0  0  0  0  0  0  0
  159.5090  211.1380  153.1700 C   0  0  0  0  0  0  0  0  0  0  0  0
  159.4820  213.3250  151.7340 C   0  0  0  0  0  2  0  0  0  0  0  0
  159.6140  214.4490  152.7600 C   0  0  0  0  0  2  0  0  0  0  0  0
  157.6940  212.4910  155.3350 C   0  0  0  0  0  2  0  0  0  0  0  0
  161.6100  207.1070  151.7200 C   0  0  0  0  0  0  0  0  0  0  0  0
  162.2860  207.1510  148.6520 C   0  0  0  0  0  2  0  0  0  0  0  0
  160.0450  210.4060  152.2340 N   0  0  0  0  0  0  0  0  0  0  0  0
  158.8000  211.4750  155.7150 C   0  0  0  0  0  2  0  0  0  0  0  0
  161.1520  208.3440  151.4190 C   0  0  0  0  0  0  0  0  0  0  0  0
  162.2930  204.8370  151.6630 C   0  0  0  0  0  2  0  0  0  0  0  0
  159.3260  210.6070  154.5710 C   0  0  0  0  0  0  0  0  0  0  0  0
  158.2020  213.7460  154.7380 N   0  0  0  0  0  2  0  0  0  0  0  0
  161.7100  206.0200  149.4760 C   0  0  2  0  0  3  0  0  0  0  0  0
  160.3900  208.5570  153.8030 C   0  0  1  0  0  3  0  0  0  0  0  0
  158.8860  212.4450  152.8150 C   0  0  2  0  0  3  0  0  0  0  0  0
  160.5370  209.1090  152.4820 N   0  0  0  0  0  0  0  0  0  0  0  0
  160.1260  207.4760  156.4220 C   0  0  0  0  0  3  0  0  0  0  0  0
  161.5980  208.4550  148.8940 C   0  0  0  0  0  3  0  0  0  0  0  0
  159.6480  208.8050  156.1690 N   0  0  0  0  0  0  0  0  0  0  0  0
  161.1580  208.9450  150.0590 C   0  0  0  0  0  3  0  0  0  0  0  0
  162.3380  206.1440  150.8550 C   0  0  1  0  0  3  0  0  0  0  0  0
  160.6880  206.7580  155.4420 C   0  0  0  0  0  3  0  0  0  0  0  0
  161.4400  206.5760  153.0220 N   0  0  0  0  0  0  0  0  0  0  0  0
  162.0730  204.8080  148.8790 O   0  0  0  0  0  0  0  0  0  0  0  0
  161.1960  204.6640  147.8000 C   0  0  0  0  0  2  0  0  0  0  0  0
  160.6010  203.9870  144.6390 O   0  0  0  0  0  0  0  0  0  0  0  0
  162.0370  205.5580  145.6530 C   0  0  0  0  0  2  0  0  0  0  0  0
  161.9770  204.3470  146.5370 C   0  0  2  0  0  3  0  0  0  0  0  0
  161.4220  205.0870  144.3580 C   0  0  0  0  0  2  0  0  0  0  0  0
  161.2180  203.3300  145.7150 C   0  0  0  0  0  2  0  0  0  0  0  0
  1 26  2  0  0  0  0
  3  7  1  6  0  0  0
  3 16  1  0  0  0  0
  4 23  1  0  0  0  0
  5 15  1  0  0  0  0
  6  7  1  0  0  0  0
  8 12  1  0  0  0  0
  9 27  1  0  0  0  0
 10 22  1  0  0  0  0
 10 17  1  0  0  0  0
 11 20  1  0  0  0  0
 11  5  2  0  0  0  0
 13  9  2  0  0  0  0
 13 20  1  0  0  0  0
 14  2  1  0  0  0  0
 15  4  2  0  0  0  0
 15 12  1  0  0  0  0
 16  8  1  0  0  0  0
 17 28  1  6  0  0  0
 17 25  1  0  0  0  0
 18  1  1  1  0  0  0
 18  4  1  0  0  0  0
 19  6  1  6  0  0  0
 19  5  1  0  0  0  0
 19  3  1  0  0  0  0
 20 18  1  0  0  0  0
 22 24  2  0  0  0  0
 23 21  2  0  0  0  0
 24 13  1  0  0  0  0
 25 14  1  1  0  0  0
 25  9  1  0  0  0  0
 26 21  1  0  0  0  0
 27  2  1  0  0  0  0
 27  1  1  0  0  0  0
 29 28  1  0  0  0  0
 30 34  1  0  0  0  0
 31 32  1  0  0  0  0
 32 29  1  1  0  0  0
 33 30  1  0  0  0  0
 33 31  1  0  0  0  0
 34 32  1  0  0  0  0
M  END
>  <MODEL>
7

>  <REMARK>
 VINA RESULT:      -6.9      2.194      4.507
  Name = 
  3 active torsions:
  status: ('A' for Active; 'I' for Inactive)
    1  A    between atoms: C_17  and  O_28
    2  A    between atoms: O_28  and  C_29
    3  A    between atoms: C_29  and  C_32
                            x       y       z     vdW  Elec       q    Type
                         _______ _______ _______ _____ _____    ______ ____

>  <TORSDO>
F 3

$$$$
=
 OpenBabel11122414243D

 34 41  0  0  1  0  0  0  0  0999 V2000
  161.7500  207.6060  148.3100 C   0  0  0  0  0  0  0  0  0  0  0  0
  162.0390  210.1380  148.6370 C   0  0  0  0  0  2  0  0  0  0  0  0
  161.5460  201.6840  150.4820 C   0  0  1  0  0  3  0  0  0  0  0  0
  161.4120  205.1990  148.1490 C   0  0  0  0  0  0  0  0  0  0  0  0
  161.0410  204.0350  150.2780 C   0  0  0  0  0  0  0  0  0  0  0  0
  161.0400  202.4840  152.3850 C   0  0  0  0  0  2  0  0  0  0  0  0
  161.7030  201.1950  151.9030 C   0  0  0  0  0  2  0  0  0  0  0  0
  160.2790  201.6100  148.4470 C   0  0  0  0  0  2  0  0  0  0  0  0
  161.7260  208.7500  150.5260 C   0  0  0  0  0  0  0  0  0  0  0  0
  161.4470  209.8440  153.4570 C   0  0  0  0  0  2  0  0  0  0  0  0
  161.1080  205.1410  150.9640 N   0  0  0  0  0  0  0  0  0  0  0  0
  161.2120  202.7450  147.9540 C   0  0  0  0  0  2  0  0  0  0  0  0
  161.4670  207.5860  151.1630 C   0  0  0  0  0  0  0  0  0  0  0  0
  161.8740  211.0250  149.8740 C   0  0  0  0  0  2  0  0  0  0  0  0
  161.1790  204.0350  148.7750 C   0  0  0  0  0  0  0  0  0  0  0  0
  160.8340  200.8080  149.5590 N   0  0  0  0  0  2  0  0  0  0  0  0
  160.9220  210.4450  152.1720 C   0  0  2  0  0  3  0  0  0  0  0  0
  161.5150  206.4410  148.9280 C   0  0  0  0  0  0  0  0  0  0  0  0
  160.6250  202.7740  150.9560 C   0  0  2  0  0  3  0  0  0  0  0  0
  161.3710  206.3870  150.3590 N   0  0  0  0  0  0  0  0  0  0  0  0
  161.8280  206.5450  146.1010 C   0  0  0  0  0  3  0  0  0  0  0  0
  161.1490  208.3850  153.5800 C   0  0  0  0  0  3  0  0  0  0  0  0
  161.5830  205.2760  146.7260 N   0  0  0  0  0  2  0  0  0  0  0  0
  161.1900  207.4570  152.6180 C   0  0  0  0  0  3  0  0  0  0  0  0
  161.9460  210.1010  151.1000 C   0  0  1  0  0  3  0  0  0  0  0  0
  161.9080  207.6600  146.8370 C   0  0  0  0  0  3  0  0  0  0  0  0
  161.8470  208.7850  149.1150 N   0  0  0  0  0  0  0  0  0  0  0  0
  160.8310  211.8300  152.3350 O   0  0  0  0  0  0  0  0  0  0  0  0
  159.5320  212.0500  152.8020 C   0  0  0  0  0  2  0  0  0  0  0  0
  158.7600  213.6980  150.0640 O   0  0  0  0  0  0  0  0  0  0  0  0
  157.5960  213.4160  152.0950 C   0  0  0  0  0  2  0  0  0  0  0  0
  159.0650  213.4380  152.4020 C   0  0  2  0  0  3  0  0  0  0  0  0
  157.5190  213.9220  150.6750 C   0  0  0  0  0  2  0  0  0  0  0  0
  159.7070  213.8300  151.0910 C   0  0  0  0  0  2  0  0  0  0  0  0
  1 18  2  0  0  0  0
  1 27  1  0  0  0  0
  2 27  1  0  0  0  0
  2 14  1  0  0  0  0
  3 19  1  0  0  0  0
  3  7  1  1  0  0  0
  4 15  2  0  0  0  0
  4 18  1  0  0  0  0
  5 19  1  0  0  0  0
  5 11  2  0  0  0  0
  7  6  1  0  0  0  0
  8 16  1  0  0  0  0
  9 25  1  0  0  0  0
  9 13  2  0  0  0  0
 10 22  1  0  0  0  0
 12  8  1  0  0  0  0
 12 15  1  0  0  0  0
 13 24  1  0  0  0  0
 15  5  1  0  0  0  0
 16  3  1  0  0  0  0
 17 28  1  1  0  0  0
 17 10  1  0  0  0  0
 18 20  1  0  0  0  0
 19  6  1  1  0  0  0
 20 11  1  0  0  0  0
 20 13  1  0  0  0  0
 21 23  1  0  0  0  0
 21 26  2  0  0  0  0
 23  4  1  0  0  0  0
 24 22  2  0  0  0  0
 25 14  1  6  0  0  0
 25 17  1  0  0  0  0
 26  1  1  0  0  0  0
 27  9  1  0  0  0  0
 28 29  1  0  0  0  0
 30 33  1  0  0  0  0
 30 34  1  0  0  0  0
 31 32  1  0  0  0  0
 32 29  1  6  0  0  0
 33 31  1  0  0  0  0
 34 32  1  0  0  0  0
M  END
>  <MODEL>
8

>  <REMARK>
 VINA RESULT:      -6.7      3.532      7.984
  Name = 
  3 active torsions:
  status: ('A' for Active; 'I' for Inactive)
    1  A    between atoms: C_17  and  O_28
    2  A    between atoms: O_28  and  C_29
    3  A    between atoms: C_29  and  C_32
                            x       y       z     vdW  Elec       q    Type
                         _______ _______ _______ _____ _____    ______ ____

>  <TORSDO>
F 3

$$$$
=
 OpenBabel11122414243D

 34 41  0  0  1  0  0  0  0  0999 V2000
  161.1360  205.1150  151.3890 C   0  0  0  0  0  0  0  0  0  0  0  0
  161.2190  207.4070  152.5460 C   0  0  0  0  0  2  0  0  0  0  0  0
  160.3460  201.4510  146.3120 C   0  0  1  0  0  3  0  0  0  0  0  0
  161.1120  203.0140  150.1570 C   0  0  0  0  0  0  0  0  0  0  0  0
  161.2090  203.2160  147.7120 C   0  0  0  0  0  0  0  0  0  0  0  0
  160.8820  203.1250  145.1180 C   0  0  0  0  0  2  0  0  0  0  0  0
  160.0540  201.8630  144.8880 C   0  0  0  0  0  2  0  0  0  0  0  0
  161.6760  200.1200  147.8000 C   0  0  0  0  0  2  0  0  0  0  0  0
  161.2350  207.2970  150.1840 C   0  0  0  0  0  0  0  0  0  0  0  0
  161.5460  209.8130  148.3300 C   0  0  0  0  0  2  0  0  0  0  0  0
  161.2800  204.5160  147.7630 N   0  0  0  0  0  0  0  0  0  0  0  0
  160.9480  200.8690  148.9440 C   0  0  0  0  0  2  0  0  0  0  0  0
  161.2860  206.6720  148.9860 C   0  0  0  0  0  0  0  0  0  0  0  0
  161.4620  208.8140  151.9920 C   0  0  0  0  0  2  0  0  0  0  0  0
  161.1390  202.3860  148.9710 C   0  0  0  0  0  0  0  0  0  0  0  0
  160.9560  200.1410  146.5070 N   0  0  0  0  0  2  0  0  0  0  0  0
  162.2120  209.5320  149.6590 C   0  0  2  0  0  3  0  0  0  0  0  0
  161.1650  204.4820  150.2090 C   0  0  1  0  0  3  0  0  0  0  0  0
  161.3990  202.5200  146.4080 C   0  0  2  0  0  3  0  0  0  0  0  0
  161.2360  205.2260  148.9790 N   0  0  0  0  0  0  0  0  0  0  0  0
  160.9960  203.0120  152.6400 C   0  0  0  0  0  3  0  0  0  0  0  0
  161.6140  208.6540  147.3900 C   0  0  0  0  0  3  0  0  0  0  0  0
  161.0190  202.2960  151.3960 N   0  0  0  0  0  0  0  0  0  0  0  0
  161.4760  207.3550  147.6790 C   0  0  0  0  0  3  0  0  0  0  0  0
  161.1970  208.7510  150.4790 C   0  0  1  0  0  3  0  0  0  0  0  0
  161.0530  204.3490  152.6550 C   0  0  0  0  0  3  0  0  0  0  0  0
  161.1830  206.5450  151.3840 N   0  0  0  0  0  0  0  0  0  0  0  0
  162.5050  210.7530  150.2750 O   0  0  0  0  0  0  0  0  0  0  0  0
  161.6870  211.6840  149.6300 C   0  0  0  0  0  2  0  0  0  0  0  0
  162.6170  212.9500  146.7410 O   0  0  0  0  0  0  0  0  0  0  0  0
  161.6330  213.9480  148.6370 C   0  0  0  0  0  2  0  0  0  0  0  0
  162.5250  212.8380  149.1090 C   0  0  2  0  0  3  0  0  0  0  0  0
  162.0310  214.1390  147.1940 C   0  0  0  0  0  2  0  0  0  0  0  0
  163.2630  212.4060  147.8620 C   0  0  0  0  0  2  0  0  0  0  0  0
  1 26  2  0  0  0  0
  3  7  1  6  0  0  0
  3 19  1  0  0  0  0
  3 16  1  0  0  0  0
  4 23  1  0  0  0  0
  5 11  2  0  0  0  0
  5 15  1  0  0  0  0
  7  6  1  0  0  0  0
  8 12  1  0  0  0  0
  9 25  1  0  0  0  0
  9 27  1  0  0  0  0
 10 17  1  0  0  0  0
 11 20  1  0  0  0  0
 12 15  1  0  0  0  0
 13  9  2  0  0  0  0
 14  2  1  0  0  0  0
 15  4  2  0  0  0  0
 16  8  1  0  0  0  0
 17 28  1  1  0  0  0
 17 25  1  0  0  0  0
 18  4  1  6  0  0  0
 18  1  1  0  0  0  0
 19  6  1  6  0  0  0
 19  5  1  0  0  0  0
 20 13  1  0  0  0  0
 20 18  1  0  0  0  0
 21 26  1  0  0  0  0
 22 24  2  0  0  0  0
 22 10  1  0  0  0  0
 23 21  2  0  0  0  0
 24 13  1  0  0  0  0
 25 14  1  1  0  0  0
 27  1  1  0  0  0  0
 27  2  1  0  0  0  0
 29 28  1  0  0  0  0
 30 33  1  0  0  0  0
 30 34  1  0  0  0  0
 31 32  1  0  0  0  0
 32 29  1  6  0  0  0
 33 31  1  0  0  0  0
 34 32  1  0  0  0  0
M  END
>  <MODEL>
9

>  <REMARK>
 VINA RESULT:      -6.6      3.202      8.661
  Name = 
  3 active torsions:
  status: ('A' for Active; 'I' for Inactive)
    1  A    between atoms: C_17  and  O_28
    2  A    between atoms: O_28  and  C_29
    3  A    between atoms: C_29  and  C_32
                            x       y       z     vdW  Elec       q    Type
                         _______ _______ _______ _____ _____    ______ ____

>  <TORSDO>
F 3

$$$$
