=
 OpenBabel11122413083D

 31 35  0  0  1  0  0  0  0  0999 V2000
  161.0430  206.9780  154.0770 C   0  0  0  0  0  0  0  0  0  0  0  0
  161.6870  207.7810  150.4190 C   0  0  0  0  0  0  0  0  0  0  0  0
  161.6750  206.3980  149.7930 C   0  0  0  0  0  0  0  0  0  0  0  0
  160.4160  204.3270  149.5700 C   0  0  2  0  0  3  0  0  0  0  0  0
  161.4380  207.9260  151.8740 C   0  0  0  0  0  0  0  0  0  0  0  0
  160.8640  208.2610  154.6000 C   0  0  0  0  0  3  0  0  0  0  0  0
  160.3890  205.7330  150.0200 N   0  0  0  0  0  2  0  0  0  0  0  0
  162.0550  210.2510  150.3130 C   0  0  1  0  0  3  0  0  0  0  0  0
  160.9330  205.8950  154.8840 F   0  0  0  0  0  0  0  0  0  0  0  0
  162.2750  207.6500  147.6260 C   0  0  0  0  0  3  0  0  0  0  0  0
  160.7500  203.4130  150.7320 C   0  0  0  0  0  1  0  0  0  0  0  0
  161.4010  210.3220  151.5820 O   0  0  0  0  0  0  0  0  0  0  0  0
  161.9500  208.8840  149.6720 C   0  0  0  0  0  0  0  0  0  0  0  0
  161.3240  206.8100  152.7190 C   0  0  0  0  0  3  0  0  0  0  0  0
  161.3660  204.0380  148.3820 C   0  0  0  0  0  2  0  0  0  0  0  0
  161.2780  209.2100  152.4120 C   0  0  0  0  0  0  0  0  0  0  0  0
  160.9790  209.3780  153.7680 C   0  0  0  0  0  3  0  0  0  0  0  0
  162.2740  208.7740  148.2740 N   0  0  0  0  0  0  0  0  0  0  0  0
  161.9460  206.4060  148.3160 C   0  0  0  0  0  0  0  0  0  0  0  0
  161.7550  205.2810  147.6370 C   0  0  0  0  0  2  0  0  0  0  0  0
  163.5650  211.8700  148.5080 O   0  0  0  0  0  0  0  0  0  0  0  0
  162.3180  212.0440  148.5440 C   0  0  0  0  0  0  0  0  0  0  0  0
  161.5060  211.2640  149.4250 N   0  0  0  0  0  2  0  0  0  0  0  0
  159.3100  214.1280  148.7990 C   0  0  1  0  0  3  0  0  0  0  0  0
  161.6250  214.4530  148.3280 C   0  0  0  0  0  2  0  0  0  0  0  0
  160.3900  211.3860  146.5190 C   0  0  0  0  0  1  0  0  0  0  0  0
  158.2970  214.1510  149.8380 N   0  0  0  0  0  1  0  0  0  0  0  0
  160.6110  214.4530  149.3830 N   0  0  0  0  0  2  0  0  0  0  0  0
  160.3670  212.7170  147.1090 N   0  0  0  0  0  0  0  0  0  0  0  0
  161.6960  213.0820  147.6420 C   0  0  2  0  0  3  0  0  0  0  0  0
  159.3550  212.7390  148.1660 C   0  0  0  0  0  2  0  0  0  0  0  0
  1  6  1  0  0  0  0
  1  9  1  0  0  0  0
  2  5  1  0  0  0  0
  3  7  1  0  0  0  0
  3  2  1  0  0  0  0
  4  7  1  0  0  0  0
  4 11  1  1  0  0  0
  5 16  2  0  0  0  0
  5 14  1  0  0  0  0
  8 23  1  6  0  0  0
  8 12  1  0  0  0  0
 10 18  2  0  0  0  0
 10 19  1  0  0  0  0
 12 16  1  0  0  0  0
 13  8  1  0  0  0  0
 13  2  2  0  0  0  0
 14  1  2  0  0  0  0
 15  4  1  0  0  0  0
 16 17  1  0  0  0  0
 17  6  2  0  0  0  0
 18 13  1  0  0  0  0
 19  3  2  0  0  0  0
 20 19  1  0  0  0  0
 20 15  1  0  0  0  0
 21 22  2  0  0  0  0
 22 23  1  0  0  0  0
 24 28  1  0  0  0  0
 24 27  1  1  0  0  0
 25 28  1  0  0  0  0
 26 29  1  0  0  0  0
 29 30  1  0  0  0  0
 29 31  1  0  0  0  0
 30 25  1  0  0  0  0
 30 22  1  1  0  0  0
 31 24  1  0  0  0  0
M  END
>  <MODEL>
1

>  <REMARK>
 VINA RESULT:      -7.8      0.000      0.000
  Name = 
  2 active torsions:
  status: ('A' for Active; 'I' for Inactive)
    1  A    between atoms: C_5  and  C_30
    2  A    between atoms: C_10  and  N_16
                            x       y       z     vdW  Elec       q    Type
                         _______ _______ _______ _____ _____    ______ ____

>  <TORSDO>
F 2

$$$$
=
 OpenBabel11122413083D

 31 35  0  0  1  0  0  0  0  0999 V2000
  161.0290  201.3400  149.7550 C   0  0  0  0  0  0  0  0  0  0  0  0
  161.5390  205.0810  149.3200 C   0  0  0  0  0  0  0  0  0  0  0  0
  161.7240  205.1940  147.8180 C   0  0  0  0  0  0  0  0  0  0  0  0
  160.7750  204.6280  145.6490 C   0  0  2  0  0  3  0  0  0  0  0  0
  161.2770  203.7520  149.9250 C   0  0  0  0  0  0  0  0  0  0  0  0
  160.6700  201.2800  151.1040 C   0  0  0  0  0  3  0  0  0  0  0  0
  160.5480  204.6850  147.1070 N   0  0  0  0  0  2  0  0  0  0  0  0
  161.5480  206.0450  151.6260 C   0  0  1  0  0  3  0  0  0  0  0  0
  161.0790  200.2070  149.0150 F   0  0  0  0  0  0  0  0  0  0  0  0
  162.1310  207.6870  148.3100 C   0  0  0  0  0  3  0  0  0  0  0  0
  161.2400  203.2420  145.2480 C   0  0  0  0  0  1  0  0  0  0  0  0
  160.8950  204.8450  152.0450 O   0  0  0  0  0  0  0  0  0  0  0  0
  161.6390  206.1730  150.1210 C   0  0  0  0  0  0  0  0  0  0  0  0
  161.3270  202.5720  149.1660 C   0  0  0  0  0  3  0  0  0  0  0  0
  161.7520  205.6930  145.0960 C   0  0  0  0  0  2  0  0  0  0  0  0
  160.9360  203.6790  151.2830 C   0  0  0  0  0  0  0  0  0  0  0  0
  160.6210  202.4480  151.8690 C   0  0  0  0  0  3  0  0  0  0  0  0
  161.9700  207.4640  149.5770 N   0  0  0  0  0  0  0  0  0  0  0  0
  161.9860  206.5960  147.3490 C   0  0  0  0  0  0  0  0  0  0  0  0
  161.9570  206.8380  146.0440 C   0  0  0  0  0  2  0  0  0  0  0  0
  161.8780  207.0510  154.2800 O   0  0  0  0  0  0  0  0  0  0  0  0
  161.0650  207.6500  153.5260 C   0  0  0  0  0  0  0  0  0  0  0  0
  160.8570  207.1960  152.1860 N   0  0  0  0  0  2  0  0  0  0  0  0
  162.0570  210.5270  155.5730 C   0  0  1  0  0  3  0  0  0  0  0  0
  160.9110  210.1610  153.5140 C   0  0  0  0  0  2  0  0  0  0  0  0
  159.7380  207.6540  156.0730 C   0  0  0  0  0  1  0  0  0  0  0  0
  163.3430  210.8210  156.1780 N   0  0  0  0  0  1  0  0  0  0  0  0
  162.2140  210.4330  154.1220 N   0  0  0  0  0  2  0  0  0  0  0  0
  160.2250  208.9150  155.5280 N   0  0  0  0  0  0  0  0  0  0  0  0
  160.3220  208.8510  154.0550 C   0  0  2  0  0  3  0  0  0  0  0  0
  161.5270  209.2070  156.1270 C   0  0  0  0  0  2  0  0  0  0  0  0
  1  6  1  0  0  0  0
  2  5  1  0  0  0  0
  2 13  1  0  0  0  0
  3  2  2  0  0  0  0
  4 11  1  1  0  0  0
  4  7  1  0  0  0  0
  5 16  2  0  0  0  0
  6 17  2  0  0  0  0
  7  3  1  0  0  0  0
  8 12  1  0  0  0  0
  8 23  1  6  0  0  0
  9  1  1  0  0  0  0
 10 18  1  0  0  0  0
 13  8  1  0  0  0  0
 14  1  2  0  0  0  0
 14  5  1  0  0  0  0
 15  4  1  0  0  0  0
 15 20  1  0  0  0  0
 16 17  1  0  0  0  0
 16 12  1  0  0  0  0
 18 13  2  0  0  0  0
 19  3  1  0  0  0  0
 19 10  2  0  0  0  0
 20 19  1  0  0  0  0
 22 21  2  0  0  0  0
 23 22  1  0  0  0  0
 24 31  1  0  0  0  0
 24 27  1  1  0  0  0
 25 30  1  0  0  0  0
 25 28  1  0  0  0  0
 28 24  1  0  0  0  0
 29 26  1  0  0  0  0
 29 31  1  0  0  0  0
 30 22  1  1  0  0  0
 30 29  1  0  0  0  0
M  END
>  <MODEL>
2

>  <REMARK>
 VINA RESULT:      -7.7      4.065      6.109
  Name = 
  2 active torsions:
  status: ('A' for Active; 'I' for Inactive)
    1  A    between atoms: C_5  and  C_30
    2  A    between atoms: C_10  and  N_16
                            x       y       z     vdW  Elec       q    Type
                         _______ _______ _______ _____ _____    ______ ____

>  <TORSDO>
F 2

$$$$
=
 OpenBabel11122413083D

 31 35  0  0  1  0  0  0  0  0999 V2000
  160.7930  207.4360  154.0990 C   0  0  0  0  0  0  0  0  0  0  0  0
  161.6040  208.2210  150.4690 C   0  0  0  0  0  0  0  0  0  0  0  0
  161.6290  206.8340  149.8530 C   0  0  0  0  0  0  0  0  0  0  0  0
  160.3910  204.7550  149.5840 C   0  0  2  0  0  3  0  0  0  0  0  0
  161.2870  208.3730  151.9110 C   0  0  0  0  0  0  0  0  0  0  0  0
  160.5840  208.7210  154.6050 C   0  0  0  0  0  3  0  0  0  0  0  0
  160.3370  206.1630  150.0240 N   0  0  0  0  0  2  0  0  0  0  0  0
  161.9640  210.6920  150.3660 C   0  0  1  0  0  3  0  0  0  0  0  0
  160.6520  206.3580  154.9070 F   0  0  0  0  0  0  0  0  0  0  0  0
  162.3230  208.0770  147.7090 C   0  0  0  0  0  3  0  0  0  0  0  0
  160.6740  203.8500  150.7660 C   0  0  0  0  0  1  0  0  0  0  0  0
  161.2510  210.7680  151.6030 O   0  0  0  0  0  0  0  0  0  0  0  0
  161.8970  209.3210  149.7290 C   0  0  0  0  0  0  0  0  0  0  0  0
  161.1390  207.2610  152.7560 C   0  0  0  0  0  3  0  0  0  0  0  0
  161.3970  204.4640  148.4440 C   0  0  0  0  0  2  0  0  0  0  0  0
  161.0950  209.6600  152.4330 C   0  0  0  0  0  0  0  0  0  0  0  0
  160.7330  209.8340  153.7720 C   0  0  0  0  0  3  0  0  0  0  0  0
  162.2860  209.2040  148.3490 N   0  0  0  0  0  0  0  0  0  0  0  0
  161.9680  206.8340  148.3900 C   0  0  0  0  0  0  0  0  0  0  0  0
  161.8150  205.7040  147.7100 C   0  0  0  0  0  2  0  0  0  0  0  0
  160.5860  213.0800  151.1160 O   0  0  0  0  0  0  0  0  0  0  0  0
  160.7680  212.8730  149.8870 C   0  0  0  0  0  0  0  0  0  0  0  0
  161.4530  211.6970  149.4470 N   0  0  0  0  0  2  0  0  0  0  0  0
  159.8590  212.6750  146.3390 C   0  0  1  0  0  3  0  0  0  0  0  0
  158.8750  213.4960  148.3510 C   0  0  0  0  0  2  0  0  0  0  0  0
  162.5200  214.4530  148.2470 C   0  0  0  0  0  1  0  0  0  0  0  0
  159.9390  211.5440  145.4340 N   0  0  0  0  0  1  0  0  0  0  0  0
  158.9730  212.3430  147.4540 N   0  0  0  0  0  2  0  0  0  0  0  0
  161.1780  214.1550  147.7640 N   0  0  0  0  0  0  0  0  0  0  0  0
  160.2590  213.8840  148.8890 C   0  0  2  0  0  3  0  0  0  0  0  0
  161.2550  213.0060  146.8620 C   0  0  0  0  0  2  0  0  0  0  0  0
  1  6  1  0  0  0  0
  1  9  1  0  0  0  0
  2  5  1  0  0  0  0
  3  7  1  0  0  0  0
  3  2  1  0  0  0  0
  4  7  1  0  0  0  0
  4 11  1  1  0  0  0
  5 16  2  0  0  0  0
  5 14  1  0  0  0  0
  8 23  1  6  0  0  0
  8 12  1  0  0  0  0
 10 18  2  0  0  0  0
 10 19  1  0  0  0  0
 12 16  1  0  0  0  0
 13  8  1  0  0  0  0
 13  2  2  0  0  0  0
 14  1  2  0  0  0  0
 15  4  1  0  0  0  0
 16 17  1  0  0  0  0
 17  6  2  0  0  0  0
 18 13  1  0  0  0  0
 19  3  2  0  0  0  0
 20 19  1  0  0  0  0
 20 15  1  0  0  0  0
 22 21  2  0  0  0  0
 23 22  1  0  0  0  0
 24 27  1  6  0  0  0
 24 31  1  0  0  0  0
 24 28  1  0  0  0  0
 25 30  1  0  0  0  0
 28 25  1  0  0  0  0
 29 26  1  0  0  0  0
 29 30  1  0  0  0  0
 30 22  1  6  0  0  0
 31 29  1  0  0  0  0
M  END
>  <MODEL>
3

>  <REMARK>
 VINA RESULT:      -7.0      1.211      1.909
  Name = 
  2 active torsions:
  status: ('A' for Active; 'I' for Inactive)
    1  A    between atoms: C_5  and  C_30
    2  A    between atoms: C_10  and  N_16
                            x       y       z     vdW  Elec       q    Type
                         _______ _______ _______ _____ _____    ______ ____

>  <TORSDO>
F 2

$$$$
=
 OpenBabel11122413083D

 31 35  0  0  1  0  0  0  0  0999 V2000
  161.0210  202.7660  150.8600 C   0  0  0  0  0  0  0  0  0  0  0  0
  161.5260  206.5220  151.1440 C   0  0  0  0  0  0  0  0  0  0  0  0
  161.7380  206.9150  149.6930 C   0  0  0  0  0  0  0  0  0  0  0  0
  160.8310  206.7660  147.4390 C   0  0  2  0  0  3  0  0  0  0  0  0
  161.2570  205.1030  151.4840 C   0  0  0  0  0  0  0  0  0  0  0  0
  160.6360  202.4530  152.1660 C   0  0  0  0  0  3  0  0  0  0  0  0
  160.5770  206.5480  148.8770 N   0  0  0  0  0  2  0  0  0  0  0  0
  161.4880  207.0360  153.5890 C   0  0  1  0  0  3  0  0  0  0  0  0
  161.0880  201.7910  149.9210 F   0  0  0  0  0  0  0  0  0  0  0  0
  162.1270  209.2710  150.6520 C   0  0  0  0  0  3  0  0  0  0  0  0
  161.3080  205.4800  146.7940 C   0  0  0  0  0  1  0  0  0  0  0  0
  160.8320  205.7780  153.7630 O   0  0  0  0  0  0  0  0  0  0  0  0
  161.6070  207.4440  152.1370 C   0  0  0  0  0  0  0  0  0  0  0  0
  161.3250  204.0860  150.5180 C   0  0  0  0  0  3  0  0  0  0  0  0
  161.8150  207.9150  147.1150 C   0  0  0  0  0  2  0  0  0  0  0  0
  160.8900  204.7760  152.7970 C   0  0  0  0  0  0  0  0  0  0  0  0
  160.5690  203.4580  153.1360 C   0  0  0  0  0  3  0  0  0  0  0  0
  161.9430  208.8140  151.8520 N   0  0  0  0  0  0  0  0  0  0  0  0
  162.0040  208.3800  149.5010 C   0  0  0  0  0  0  0  0  0  0  0  0
  161.9980  208.8620  148.2640 C   0  0  0  0  0  2  0  0  0  0  0  0
  161.9560  207.7030  156.3280 O   0  0  0  0  0  0  0  0  0  0  0  0
  161.0630  208.3470  155.7150 C   0  0  0  0  0  0  0  0  0  0  0  0
  160.7820  208.0620  154.3420 N   0  0  0  0  0  2  0  0  0  0  0  0
  159.8410  211.6690  154.7540 C   0  0  1  0  0  3  0  0  0  0  0  0
  158.9490  209.7090  155.7800 C   0  0  0  0  0  2  0  0  0  0  0  0
  162.3650  210.4330  157.2000 C   0  0  0  0  0  1  0  0  0  0  0  0
  160.0080  212.3790  153.4990 N   0  0  0  0  0  1  0  0  0  0  0  0
  159.1380  210.4100  154.5090 N   0  0  0  0  0  2  0  0  0  0  0  0
  161.0460  210.6860  156.6360 N   0  0  0  0  0  0  0  0  0  0  0  0
  160.3010  209.4240  156.4480 C   0  0  2  0  0  3  0  0  0  0  0  0
  161.2120  211.3900  155.3640 C   0  0  0  0  0  2  0  0  0  0  0  0
  1  6  1  0  0  0  0
  2  5  1  0  0  0  0
  2 13  1  0  0  0  0
  3  2  2  0  0  0  0
  4 11  1  1  0  0  0
  4  7  1  0  0  0  0
  5 16  2  0  0  0  0
  6 17  2  0  0  0  0
  7  3  1  0  0  0  0
  8 12  1  0  0  0  0
  8 23  1  1  0  0  0
  9  1  1  0  0  0  0
 10 18  1  0  0  0  0
 13  8  1  0  0  0  0
 14  1  2  0  0  0  0
 14  5  1  0  0  0  0
 15  4  1  0  0  0  0
 15 20  1  0  0  0  0
 16 17  1  0  0  0  0
 16 12  1  0  0  0  0
 18 13  2  0  0  0  0
 19  3  1  0  0  0  0
 19 10  2  0  0  0  0
 20 19  1  0  0  0  0
 22 21  2  0  0  0  0
 23 22  1  0  0  0  0
 24 27  1  6  0  0  0
 24 31  1  0  0  0  0
 25 30  1  0  0  0  0
 28 24  1  0  0  0  0
 28 25  1  0  0  0  0
 29 26  1  0  0  0  0
 30 22  1  6  0  0  0
 30 29  1  0  0  0  0
 31 29  1  0  0  0  0
M  END
>  <MODEL>
4

>  <REMARK>
 VINA RESULT:      -6.7      3.576      5.887
  Name = 
  2 active torsions:
  status: ('A' for Active; 'I' for Inactive)
    1  A    between atoms: C_5  and  C_30
    2  A    between atoms: C_10  and  N_16
                            x       y       z     vdW  Elec       q    Type
                         _______ _______ _______ _____ _____    ______ ____

>  <TORSDO>
F 2

$$$$
=
 OpenBabel11122413083D

 31 35  0  0  1  0  0  0  0  0999 V2000
  160.8310  206.9290  154.0910 C   0  0  0  0  0  0  0  0  0  0  0  0
  161.4880  208.5990  150.7400 C   0  0  0  0  0  0  0  0  0  0  0  0
  161.6680  207.3990  149.8280 C   0  0  0  0  0  0  0  0  0  0  0  0
  160.6830  205.3000  149.0850 C   0  0  2  0  0  3  0  0  0  0  0  0
  161.1760  208.3840  152.1750 C   0  0  0  0  0  0  0  0  0  0  0  0
  160.4780  208.0340  154.8690 C   0  0  0  0  0  3  0  0  0  0  0  0
  160.4670  206.5570  149.8290 N   0  0  0  0  0  2  0  0  0  0  0  0
  161.5490  211.0540  151.1980 C   0  0  1  0  0  3  0  0  0  0  0  0
  160.8310  205.6880  154.6340 F   0  0  0  0  0  0  0  0  0  0  0  0
  162.1770  209.1640  148.0260 C   0  0  0  0  0  3  0  0  0  0  0  0
  161.0890  204.1930  150.0370 C   0  0  0  0  0  1  0  0  0  0  0  0
  160.8510  210.7650  152.4120 O   0  0  0  0  0  0  0  0  0  0  0  0
  161.6360  209.8630  150.2690 C   0  0  0  0  0  0  0  0  0  0  0  0
  161.1750  207.1020  152.7470 C   0  0  0  0  0  3  0  0  0  0  0  0
  161.6990  205.3940  147.9210 C   0  0  0  0  0  2  0  0  0  0  0  0
  160.8400  209.4890  152.9700 C   0  0  0  0  0  0  0  0  0  0  0  0
  160.4810  209.3140  154.3100 C   0  0  0  0  0  3  0  0  0  0  0  0
  162.0150  210.1060  148.9020 N   0  0  0  0  0  0  0  0  0  0  0  0
  161.9820  207.7670  148.4070 C   0  0  0  0  0  0  0  0  0  0  0  0
  161.9540  206.8080  147.4890 C   0  0  0  0  0  2  0  0  0  0  0  0
  159.8210  212.9690  152.4270 O   0  0  0  0  0  0  0  0  0  0  0  0
  160.0500  213.0970  151.1950 C   0  0  0  0  0  0  0  0  0  0  0  0
  160.9080  212.1720  150.5220 N   0  0  0  0  0  2  0  0  0  0  0  0
  157.9120  213.2750  148.2200 C   0  0  1  0  0  3  0  0  0  0  0  0
  157.8800  214.1280  150.4470 C   0  0  0  0  0  2  0  0  0  0  0  0
  161.3560  214.4490  149.0230 C   0  0  0  0  0  1  0  0  0  0  0  0
  157.4550  212.2030  147.3550 N   0  0  0  0  0  1  0  0  0  0  0  0
  157.4390  213.0320  149.5830 N   0  0  0  0  0  2  0  0  0  0  0  0
  159.9000  214.4160  149.0610 N   0  0  0  0  0  0  0  0  0  0  0  0
  159.4110  214.2390  150.4440 C   0  0  2  0  0  3  0  0  0  0  0  0
  159.4380  213.3280  148.1990 C   0  0  0  0  0  2  0  0  0  0  0  0
  1  9  1  0  0  0  0
  1  6  1  0  0  0  0
  2  5  1  0  0  0  0
  3  7  1  0  0  0  0
  3  2  2  0  0  0  0
  4  7  1  0  0  0  0
  4 11  1  1  0  0  0
  5 14  1  0  0  0  0
  5 16  2  0  0  0  0
  8 23  1  6  0  0  0
  8 12  1  0  0  0  0
 10 19  2  0  0  0  0
 10 18  1  0  0  0  0
 12 16  1  0  0  0  0
 13  2  1  0  0  0  0
 13  8  1  0  0  0  0
 14  1  2  0  0  0  0
 15  4  1  0  0  0  0
 16 17  1  0  0  0  0
 17  6  2  0  0  0  0
 18 13  2  0  0  0  0
 19  3  1  0  0  0  0
 20 15  1  0  0  0  0
 20 19  1  0  0  0  0
 22 21  2  0  0  0  0
 23 22  1  0  0  0  0
 24 27  1  6  0  0  0
 24 28  1  0  0  0  0
 26 29  1  0  0  0  0
 28 25  1  0  0  0  0
 29 30  1  0  0  0  0
 30 25  1  0  0  0  0
 30 22  1  6  0  0  0
 31 24  1  0  0  0  0
 31 29  1  0  0  0  0
M  END
>  <MODEL>
5

>  <REMARK>
 VINA RESULT:      -6.6      1.510      2.210
  Name = 
  2 active torsions:
  status: ('A' for Active; 'I' for Inactive)
    1  A    between atoms: C_5  and  C_30
    2  A    between atoms: C_10  and  N_16
                            x       y       z     vdW  Elec       q    Type
                         _______ _______ _______ _____ _____    ______ ____

>  <TORSDO>
F 2

$$$$
=
 OpenBabel11122413083D

 31 35  0  0  1  0  0  0  0  0999 V2000
  161.1330  205.0260  153.2940 C   0  0  0  0  0  0  0  0  0  0  0  0
  161.5530  208.1910  151.2300 C   0  0  0  0  0  0  0  0  0  0  0  0
  161.7290  207.6250  149.8330 C   0  0  0  0  0  0  0  0  0  0  0  0
  160.7850  206.1330  148.1570 C   0  0  2  0  0  3  0  0  0  0  0  0
  161.3250  207.2650  152.3680 C   0  0  0  0  0  0  0  0  0  0  0  0
  160.7800  205.5670  154.5330 C   0  0  0  0  0  3  0  0  0  0  0  0
  160.5620  206.8300  149.4400 N   0  0  0  0  0  2  0  0  0  0  0  0
  161.5480  210.0810  152.8650 C   0  0  1  0  0  3  0  0  0  0  0  0
  161.2070  203.6830  153.1360 F   0  0  0  0  0  0  0  0  0  0  0  0
  162.0790  210.0830  149.1570 C   0  0  0  0  0  3  0  0  0  0  0  0
  161.2810  204.7230  148.4090 C   0  0  0  0  0  1  0  0  0  0  0  0
  160.9250  209.1810  153.7840 O   0  0  0  0  0  0  0  0  0  0  0  0
  161.6300  209.5260  151.4590 C   0  0  0  0  0  0  0  0  0  0  0  0
  161.4000  205.8720  152.2140 C   0  0  0  0  0  3  0  0  0  0  0  0
  161.7350  206.8590  147.1740 C   0  0  0  0  0  2  0  0  0  0  0  0
  160.9900  207.7990  153.6210 C   0  0  0  0  0  0  0  0  0  0  0  0
  160.7070  206.9530  154.6980 C   0  0  0  0  0  3  0  0  0  0  0  0
  161.9280  210.4450  150.3930 N   0  0  0  0  0  0  0  0  0  0  0  0
  161.9560  208.6760  148.7850 C   0  0  0  0  0  0  0  0  0  0  0  0
  161.9160  208.3100  147.5090 C   0  0  0  0  0  2  0  0  0  0  0  0
  160.0900  211.1680  155.0680 O   0  0  0  0  0  0  0  0  0  0  0  0
  160.1180  211.8360  154.0010 C   0  0  0  0  0  0  0  0  0  0  0  0
  160.8320  211.3470  152.8620 N   0  0  0  0  0  2  0  0  0  0  0  0
  156.9050  213.0080  155.3290 C   0  0  1  0  0  3  0  0  0  0  0  0
  159.1750  213.7420  155.3470 C   0  0  0  0  0  2  0  0  0  0  0  0
  158.2760  212.5070  151.9010 C   0  0  0  0  0  1  0  0  0  0  0  0
  155.8920  212.2700  156.0600 N   0  0  0  0  0  1  0  0  0  0  0  0
  158.1630  212.9750  156.0750 N   0  0  0  0  0  2  0  0  0  0  0  0
  158.1110  213.1260  153.2090 N   0  0  0  0  0  0  0  0  0  0  0  0
  159.3920  213.1580  153.9440 C   0  0  2  0  0  3  0  0  0  0  0  0
  157.0990  212.3760  153.9530 C   0  0  0  0  0  2  0  0  0  0  0  0
  1  6  1  0  0  0  0
  2 13  1  0  0  0  0
  2  5  1  0  0  0  0
  3  2  2  0  0  0  0
  4 11  1  1  0  0  0
  4  7  1  0  0  0  0
  5 16  2  0  0  0  0
  6 17  2  0  0  0  0
  7  3  1  0  0  0  0
  8 23  1  6  0  0  0
  8 12  1  0  0  0  0
  9  1  1  0  0  0  0
 10 18  1  0  0  0  0
 13  8  1  0  0  0  0
 14  5  1  0  0  0  0
 14  1  2  0  0  0  0
 15 20  1  0  0  0  0
 15  4  1  0  0  0  0
 16 12  1  0  0  0  0
 16 17  1  0  0  0  0
 18 13  2  0  0  0  0
 19 10  2  0  0  0  0
 19  3  1  0  0  0  0
 20 19  1  0  0  0  0
 22 21  2  0  0  0  0
 23 22  1  0  0  0  0
 24 27  1  1  0  0  0
 24 28  1  0  0  0  0
 25 28  1  0  0  0  0
 26 29  1  0  0  0  0
 29 30  1  0  0  0  0
 29 31  1  0  0  0  0
 30 22  1  1  0  0  0
 30 25  1  0  0  0  0
 31 24  1  0  0  0  0
M  END
>  <MODEL>
6

>  <REMARK>
 VINA RESULT:      -6.5      3.011      4.308
  Name = 
  2 active torsions:
  status: ('A' for Active; 'I' for Inactive)
    1  A    between atoms: C_5  and  C_30
    2  A    between atoms: C_10  and  N_16
                            x       y       z     vdW  Elec       q    Type
                         _______ _______ _______ _____ _____    ______ ____

>  <TORSDO>
F 2

$$$$
=
 OpenBabel11122413083D

 31 35  0  0  1  0  0  0  0  0999 V2000
  161.4010  205.5330  152.5410 C   0  0  0  0  0  0  0  0  0  0  0  0
  160.8080  209.2520  153.0570 C   0  0  0  0  0  0  0  0  0  0  0  0
  160.4760  209.3080  154.5370 C   0  0  0  0  0  0  0  0  0  0  0  0
  161.2150  208.6700  156.7670 C   0  0  2  0  0  3  0  0  0  0  0  0
  161.1440  207.9480  152.4340 C   0  0  0  0  0  0  0  0  0  0  0  0
  161.8920  205.5250  151.2330 C   0  0  0  0  0  3  0  0  0  0  0  0
  161.5830  208.7830  155.3420 N   0  0  0  0  0  2  0  0  0  0  0  0
  161.0140  210.2990  150.7980 C   0  0  1  0  0  3  0  0  0  0  0  0
  161.2920  204.3730  153.2320 F   0  0  0  0  0  0  0  0  0  0  0  0
  160.0910  211.8140  154.0970 C   0  0  0  0  0  3  0  0  0  0  0  0
  160.7290  207.2670  157.0710 C   0  0  0  0  0  1  0  0  0  0  0  0
  161.7190  209.1200  150.4020 O   0  0  0  0  0  0  0  0  0  0  0  0
  160.7750  210.3710  152.2900 C   0  0  0  0  0  0  0  0  0  0  0  0
  161.0330  206.7400  153.1410 C   0  0  0  0  0  3  0  0  0  0  0  0
  160.1750  209.7070  157.2590 C   0  0  0  0  0  2  0  0  0  0  0  0
  161.6180  207.9270  151.1140 C   0  0  0  0  0  0  0  0  0  0  0  0
  162.0020  206.7220  150.5190 C   0  0  0  0  0  3  0  0  0  0  0  0
  160.3770  211.6390  152.8440 N   0  0  0  0  0  0  0  0  0  0  0  0
  160.1530  210.6900  155.0270 C   0  0  0  0  0  0  0  0  0  0  0  0
  160.0520  210.8840  156.3370 C   0  0  0  0  0  2  0  0  0  0  0  0
  160.9010  211.4250  148.1730 O   0  0  0  0  0  0  0  0  0  0  0  0
  161.6450  211.9890  149.0190 C   0  0  0  0  0  0  0  0  0  0  0  0
  161.7440  211.4760  150.3500 N   0  0  0  0  0  2  0  0  0  0  0  0
  161.4420  214.2590  146.1440 C   0  0  1  0  0  3  0  0  0  0  0  0
  161.5210  214.4520  148.5200 C   0  0  0  0  0  2  0  0  0  0  0  0
  164.0030  211.8530  147.3830 C   0  0  0  0  0  1  0  0  0  0  0  0
  160.5670  214.1970  144.9880 N   0  0  0  0  0  1  0  0  0  0  0  0
  160.6340  214.3650  147.3590 N   0  0  0  0  0  2  0  0  0  0  0  0
  163.1930  213.0640  147.3550 N   0  0  0  0  0  0  0  0  0  0  0  0
  162.4240  213.2150  148.6080 C   0  0  2  0  0  3  0  0  0  0  0  0
  162.3010  212.9980  146.1980 C   0  0  0  0  0  2  0  0  0  0  0  0
  1 14  1  0  0  0  0
  1  9  1  0  0  0  0
  2  3  1  0  0  0  0
  3 19  2  0  0  0  0
  3  7  1  0  0  0  0
  4 11  1  6  0  0  0
  4 15  1  0  0  0  0
  5  2  1  0  0  0  0
  5 14  2  0  0  0  0
  6  1  2  0  0  0  0
  7  4  1  0  0  0  0
  8 23  1  1  0  0  0
  8 13  1  0  0  0  0
 10 19  1  0  0  0  0
 12  8  1  0  0  0  0
 12 16  1  0  0  0  0
 13 18  1  0  0  0  0
 13  2  2  0  0  0  0
 16  5  1  0  0  0  0
 17 16  2  0  0  0  0
 17  6  1  0  0  0  0
 18 10  2  0  0  0  0
 19 20  1  0  0  0  0
 20 15  1  0  0  0  0
 21 22  2  0  0  0  0
 22 23  1  0  0  0  0
 24 27  1  6  0  0  0
 24 31  1  0  0  0  0
 24 28  1  0  0  0  0
 25 30  1  0  0  0  0
 28 25  1  0  0  0  0
 29 26  1  0  0  0  0
 29 30  1  0  0  0  0
 30 22  1  6  0  0  0
 31 29  1  0  0  0  0
M  END
>  <MODEL>
7

>  <REMARK>
 VINA RESULT:      -6.2      2.268      4.919
  Name = 
  2 active torsions:
  status: ('A' for Active; 'I' for Inactive)
    1  A    between atoms: C_5  and  C_30
    2  A    between atoms: C_10  and  N_16
                            x       y       z     vdW  Elec       q    Type
                         _______ _______ _______ _____ _____    ______ ____

>  <TORSDO>
F 2

$$$$
=
 OpenBabel11122413083D

 31 35  0  0  1  0  0  0  0  0999 V2000
  161.5940  203.8100  147.5520 C   0  0  0  0  0  0  0  0  0  0  0  0
  161.3120  206.8170  149.8600 C   0  0  0  0  0  0  0  0  0  0  0  0
  161.0650  206.1520  151.2030 C   0  0  0  0  0  0  0  0  0  0  0  0
  161.8740  204.4730  152.7690 C   0  0  2  0  0  3  0  0  0  0  0  0
  161.5140  205.9740  148.6550 C   0  0  0  0  0  0  0  0  0  0  0  0
  162.0110  204.4250  146.3700 C   0  0  0  0  0  3  0  0  0  0  0  0
  162.1710  205.2560  151.5530 N   0  0  0  0  0  2  0  0  0  0  0  0
  161.4740  208.8290  148.3880 C   0  0  1  0  0  3  0  0  0  0  0  0
  161.4350  202.4650  147.5980 F   0  0  0  0  0  0  0  0  0  0  0  0
  160.8470  208.5640  152.0710 C   0  0  0  0  0  3  0  0  0  0  0  0
  161.3000  203.1220  152.3920 C   0  0  0  0  0  1  0  0  0  0  0  0
  162.0660  207.9690  147.4110 O   0  0  0  0  0  0  0  0  0  0  0  0
  161.3220  208.1690  149.7410 C   0  0  0  0  0  0  0  0  0  0  0  0
  161.3510  204.5800  148.6930 C   0  0  0  0  0  3  0  0  0  0  0  0
  160.9440  205.1750  153.7890 C   0  0  0  0  0  2  0  0  0  0  0  0
  161.9130  206.5850  147.4580 C   0  0  0  0  0  0  0  0  0  0  0  0
  162.1720  205.8130  146.3210 C   0  0  0  0  0  3  0  0  0  0  0  0
  161.0520  209.0150  150.8730 N   0  0  0  0  0  0  0  0  0  0  0  0
  160.8750  207.1270  152.3290 C   0  0  0  0  0  0  0  0  0  0  0  0
  160.8600  206.6570  153.5700 C   0  0  0  0  0  2  0  0  0  0  0  0
  160.5540  211.4740  147.8210 O   0  0  0  0  0  0  0  0  0  0  0  0
  161.7450  211.3410  148.2080 C   0  0  0  0  0  0  0  0  0  0  0  0
  162.2660  210.0440  148.5090 N   0  0  0  0  0  2  0  0  0  0  0  0
  162.4550  214.1970  146.0180 C   0  0  1  0  0  3  0  0  0  0  0  0
  161.7770  213.8560  148.2790 C   0  0  0  0  0  2  0  0  0  0  0  0
  164.5000  211.4030  147.3960 C   0  0  0  0  0  1  0  0  0  0  0  0
  161.9910  214.4530  144.6670 N   0  0  0  0  0  1  0  0  0  0  0  0
  161.3040  214.0890  146.9140 N   0  0  0  0  0  2  0  0  0  0  0  0
  163.7360  212.6440  147.3990 N   0  0  0  0  0  0  0  0  0  0  0  0
  162.6100  212.5690  148.3530 C   0  0  2  0  0  3  0  0  0  0  0  0
  163.2570  212.8980  146.0410 C   0  0  0  0  0  2  0  0  0  0  0  0
  1  9  1  0  0  0  0
  1 14  1  0  0  0  0
  2  3  1  0  0  0  0
  3  7  1  0  0  0  0
  3 19  2  0  0  0  0
  4 11  1  6  0  0  0
  4 15  1  0  0  0  0
  5 14  2  0  0  0  0
  5  2  1  0  0  0  0
  6  1  2  0  0  0  0
  7  4  1  0  0  0  0
  8 23  1  1  0  0  0
  8 13  1  0  0  0  0
 10 19  1  0  0  0  0
 12 16  1  0  0  0  0
 12  8  1  0  0  0  0
 13  2  2  0  0  0  0
 13 18  1  0  0  0  0
 16  5  1  0  0  0  0
 17  6  1  0  0  0  0
 17 16  2  0  0  0  0
 18 10  2  0  0  0  0
 19 20  1  0  0  0  0
 20 15  1  0  0  0  0
 21 22  2  0  0  0  0
 22 23  1  0  0  0  0
 24 27  1  6  0  0  0
 24 31  1  0  0  0  0
 24 28  1  0  0  0  0
 25 30  1  0  0  0  0
 26 29  1  0  0  0  0
 28 25  1  0  0  0  0
 29 30  1  0  0  0  0
 30 22  1  6  0  0  0
 31 29  1  0  0  0  0
M  END
>  <MODEL>
8

>  <REMARK>
 VINA RESULT:      -5.8      2.393      4.545
  Name = 
  2 active torsions:
  status: ('A' for Active; 'I' for Inactive)
    1  A    between atoms: C_5  and  C_30
    2  A    between atoms: C_10  and  N_16
                            x       y       z     vdW  Elec       q    Type
                         _______ _______ _______ _____ _____    ______ ____

>  <TORSDO>
F 2

$$$$
=
 OpenBabel11122413083D

 31 35  0  0  1  0  0  0  0  0999 V2000
  161.7590  204.6820  152.2200 C   0  0  0  0  0  0  0  0  0  0  0  0
  161.4840  208.4640  151.9650 C   0  0  0  0  0  0  0  0  0  0  0  0
  161.9310  208.7100  150.5350 C   0  0  0  0  0  0  0  0  0  0  0  0
  161.5810  208.0880  148.2080 C   0  0  2  0  0  3  0  0  0  0  0  0
  161.4160  207.0740  152.4800 C   0  0  0  0  0  0  0  0  0  0  0  0
  161.1640  204.4590  153.4640 C   0  0  0  0  0  3  0  0  0  0  0  0
  161.0640  208.0020  149.5880 N   0  0  0  0  0  2  0  0  0  0  0  0
  160.8200  209.2580  154.2390 C   0  0  1  0  0  3  0  0  0  0  0  0
  162.2090  203.6360  151.4870 F   0  0  0  0  0  0  0  0  0  0  0  0
  161.6570  211.1950  151.1440 C   0  0  0  0  0  3  0  0  0  0  0  0
  162.4170  206.8660  147.8870 C   0  0  0  0  0  1  0  0  0  0  0  0
  160.3860  207.9200  154.4930 O   0  0  0  0  0  0  0  0  0  0  0  0
  161.1740  209.4980  152.7880 C   0  0  0  0  0  0  0  0  0  0  0  0
  161.8800  205.9840  151.7270 C   0  0  0  0  0  3  0  0  0  0  0  0
  162.3810  209.3740  147.8870 C   0  0  0  0  0  2  0  0  0  0  0  0
  160.8390  206.8420  153.7360 C   0  0  0  0  0  0  0  0  0  0  0  0
  160.7020  205.5380  154.2230 C   0  0  0  0  0  3  0  0  0  0  0  0
  161.3050  210.8620  152.3470 N   0  0  0  0  0  0  0  0  0  0  0  0
  161.9560  210.1620  150.1550 C   0  0  0  0  0  0  0  0  0  0  0  0
  162.1300  210.4730  148.8770 C   0  0  0  0  0  2  0  0  0  0  0  0
  160.1800  209.9060  156.9480 O   0  0  0  0  0  0  0  0  0  0  0  0
  159.5160  210.4730  156.0400 C   0  0  0  0  0  0  0  0  0  0  0  0
  159.7890  210.1940  154.6650 N   0  0  0  0  0  2  0  0  0  0  0  0
  157.5790  212.9560  154.1590 C   0  0  1  0  0  3  0  0  0  0  0  0
  157.1270  211.1710  155.6750 C   0  0  0  0  0  2  0  0  0  0  0  0
  160.0880  213.1520  156.9070 C   0  0  0  0  0  1  0  0  0  0  0  0
  157.6780  213.3270  152.7600 N   0  0  0  0  0  1  0  0  0  0  0  0
  157.2500  211.5350  154.2630 N   0  0  0  0  0  2  0  0  0  0  0  0
  158.8090  212.8750  156.2670 N   0  0  0  0  0  0  0  0  0  0  0  0
  158.4360  211.4540  156.4250 C   0  0  2  0  0  3  0  0  0  0  0  0
  158.9100  213.2350  154.8530 C   0  0  0  0  0  2  0  0  0  0  0  0
  1  6  1  0  0  0  0
  2  5  1  0  0  0  0
  2 13  1  0  0  0  0
  3  2  2  0  0  0  0
  4 11  1  1  0  0  0
  4  7  1  0  0  0  0
  5 16  2  0  0  0  0
  6 17  2  0  0  0  0
  7  3  1  0  0  0  0
  8 12  1  0  0  0  0
  8 23  1  6  0  0  0
  9  1  1  0  0  0  0
 10 18  1  0  0  0  0
 13  8  1  0  0  0  0
 14  1  2  0  0  0  0
 14  5  1  0  0  0  0
 15  4  1  0  0  0  0
 15 20  1  0  0  0  0
 16 17  1  0  0  0  0
 16 12  1  0  0  0  0
 18 13  2  0  0  0  0
 19  3  1  0  0  0  0
 19 10  2  0  0  0  0
 20 19  1  0  0  0  0
 22 21  2  0  0  0  0
 23 22  1  0  0  0  0
 24 27  1  6  0  0  0
 24 28  1  0  0  0  0
 24 31  1  0  0  0  0
 25 30  1  0  0  0  0
 28 25  1  0  0  0  0
 29 30  1  0  0  0  0
 29 26  1  0  0  0  0
 30 22  1  6  0  0  0
 31 29  1  0  0  0  0
M  END
>  <MODEL>
9

>  <REMARK>
 VINA RESULT:      -5.3      3.272      5.622
  Name = 
  2 active torsions:
  status: ('A' for Active; 'I' for Inactive)
    1  A    between atoms: C_5  and  C_30
    2  A    between atoms: C_10  and  N_16
                            x       y       z     vdW  Elec       q    Type
                         _______ _______ _______ _____ _____    ______ ____

>  <TORSDO>
F 2

$$$$
