=
 OpenBabel11122414073D

 28 32  0  0  1  0  0  0  0  0999 V2000
  160.8350  209.0850  156.2050 C   0  0  0  0  0  0  0  0  0  0  0  0
  157.1060  211.8310  154.2840 O   0  0  0  0  0  0  0  0  0  0  0  0
  162.0470  207.9790  150.8120 O   0  0  0  0  0  0  0  0  0  0  0  0
  163.0990  210.7270  156.3810 C   0  0  0  0  0  3  0  0  0  0  0  0
  161.4750  210.3410  151.0180 C   0  0  1  0  0  3  0  0  0  0  0  0
  159.6830  208.1350  156.0730 C   0  0  0  0  0  2  0  0  0  0  0  0
  158.3240  213.2320  155.8950 O   0  0  0  0  0  0  0  0  0  0  0  0
  158.2610  212.7770  154.4650 S   0  0  0  0  0  0  0  0  0  0  0  0
  158.0090  213.3280  151.7820 C   0  0  0  0  0  0  0  0  0  0  0  0
  159.8050  212.0150  154.0050 C   0  0  2  0  0  3  0  0  0  0  0  0
  162.0490  206.4380  154.2430 O   0  0  0  0  0  0  0  0  0  0  0  0
  160.1560  209.9350  152.9440 C   0  0  1  0  0  3  0  0  0  0  0  0
  159.0850  212.3140  151.4970 C   0  0  0  0  0  2  0  0  0  0  0  0
  158.0690  214.4210  153.2020 S   0  0  0  0  0  0  0  0  0  0  0  0
  160.8970  206.8370  154.2870 C   0  0  0  0  0  0  0  0  0  0  0  0
  160.9650  210.1890  155.3360 C   0  0  0  0  0  0  0  0  0  0  0  0
  161.5270  208.9110  151.4820 C   0  0  0  0  0  0  0  0  0  0  0  0
  157.0240  213.3540  151.0630 O   0  0  0  0  0  0  0  0  0  0  0  0
  160.2600  207.3990  153.0590 C   0  0  0  0  0  2  0  0  0  0  0  0
  162.1150  210.9940  155.4270 C   0  0  0  0  0  3  0  0  0  0  0  0
  161.8240  208.8290  157.1630 C   0  0  0  0  0  3  0  0  0  0  0  0
  162.9500  209.6490  157.2540 C   0  0  0  0  0  3  0  0  0  0  0  0
  160.1370  206.7610  155.5780 C   0  0  0  0  0  2  0  0  0  0  0  0
  161.0150  210.9700  152.3130 C   0  0  2  0  0  3  0  0  0  0  0  0
  160.8540  208.6870  152.7260 N   0  0  0  0  0  0  0  0  0  0  0  0
  160.2360  212.2450  152.5210 C   0  0  2  0  0  3  0  0  0  0  0  0
  162.8660  210.8450  150.6800 C   0  0  0  0  0  1  0  0  0  0  0  0
  159.8810  210.4980  154.3220 C   0  0  1  0  0  3  0  0  0  0  0  0
  1 21  1  0  0  0  0
  2  8  2  0  0  0  0
  3 17  2  0  0  0  0
  4 22  1  0  0  0  0
  5 27  1  1  0  0  0
  5 17  1  0  0  0  0
  5 24  1  0  0  0  0
  6  1  1  0  0  0  0
  8  7  2  0  0  0  0
  9 14  1  0  0  0  0
 10 28  1  0  0  0  0
 10  8  1  6  0  0  0
 11 15  2  0  0  0  0
 12 25  1  1  0  0  0
 12 28  1  0  0  0  0
 13  9  1  0  0  0  0
 13 26  1  0  0  0  0
 14  8  1  0  0  0  0
 15 23  1  0  0  0  0
 16 20  1  0  0  0  0
 16  1  2  0  0  0  0
 17 25  1  0  0  0  0
 18  9  2  0  0  0  0
 19 15  1  0  0  0  0
 20  4  2  0  0  0  0
 21 22  2  0  0  0  0
 23  6  1  0  0  0  0
 24 26  1  0  0  0  0
 24 12  1  0  0  0  0
 25 19  1  0  0  0  0
 26 10  1  0  0  0  0
 28 16  1  0  0  0  0
M  END
>  <MODEL>
1

>  <REMARK>
 VINA RESULT:      -4.2      0.000      0.000
  Name = 
  0 active torsions:
  status: ('A' for Active; 'I' for Inactive)
                            x       y       z     vdW  Elec       q    Type
                         _______ _______ _______ _____ _____    ______ ____

>  <TORSDO>
F 0

$$$$
=
 OpenBabel11122414073D

 28 32  0  0  1  0  0  0  0  0999 V2000
  160.3100  209.9510  155.9840 C   0  0  0  0  0  0  0  0  0  0  0  0
  155.4970  211.0960  155.1730 O   0  0  0  0  0  0  0  0  0  0  0  0
  161.0310  211.6500  150.6590 O   0  0  0  0  0  0  0  0  0  0  0  0
  161.5940  212.2680  156.9010 C   0  0  0  0  0  3  0  0  0  0  0  0
  159.5000  213.1890  151.7710 C   0  0  1  0  0  3  0  0  0  0  0  0
  159.7020  208.6970  155.4330 C   0  0  0  0  0  2  0  0  0  0  0  0
  156.1920  212.1900  157.2600 O   0  0  0  0  0  0  0  0  0  0  0  0
  156.1180  212.3300  155.7670 S   0  0  0  0  0  0  0  0  0  0  0  0
  155.2300  213.6500  153.5230 C   0  0  0  0  0  0  0  0  0  0  0  0
  157.7460  212.6230  155.1050 C   0  0  2  0  0  3  0  0  0  0  0  0
  162.2590  209.1430  153.1780 O   0  0  0  0  0  0  0  0  0  0  0  0
  158.8230  211.5230  153.3140 C   0  0  1  0  0  3  0  0  0  0  0  0
  156.5860  213.4550  152.9010 C   0  0  0  0  0  2  0  0  0  0  0  0
  155.0140  214.0230  155.2640 S   0  0  0  0  0  0  0  0  0  0  0  0
  161.0730  208.9000  153.3300 C   0  0  0  0  0  0  0  0  0  0  0  0
  159.7940  211.2180  155.6390 C   0  0  0  0  0  0  0  0  0  0  0  0
  160.2600  211.8990  151.6240 C   0  0  0  0  0  0  0  0  0  0  0  0
  154.2390  213.4720  152.8340 O   0  0  0  0  0  0  0  0  0  0  0  0
  160.0680  209.5050  152.4060 C   0  0  0  0  0  2  0  0  0  0  0  0
  160.4590  212.3710  156.0940 C   0  0  0  0  0  3  0  0  0  0  0  0
  161.4450  209.8580  156.8010 C   0  0  0  0  0  3  0  0  0  0  0  0
  162.0820  211.0110  157.2600 C   0  0  0  0  0  3  0  0  0  0  0  0
  160.6400  207.9990  154.4480 C   0  0  0  0  0  2  0  0  0  0  0  0
  159.0150  212.9910  153.1890 C   0  0  2  0  0  3  0  0  0  0  0  0
  159.9620  210.9370  152.6430 N   0  0  0  0  0  0  0  0  0  0  0  0
  157.7910  213.5630  153.8590 C   0  0  2  0  0  3  0  0  0  0  0  0
  160.4450  214.3750  151.7230 C   0  0  0  0  0  1  0  0  0  0  0  0
  158.5420  211.3300  154.7900 C   0  0  1  0  0  3  0  0  0  0  0  0
  1 21  1  0  0  0  0
  2  8  2  0  0  0  0
  3 17  2  0  0  0  0
  4 22  1  0  0  0  0
  5 27  1  1  0  0  0
  5 24  1  0  0  0  0
  6  1  1  0  0  0  0
  8  7  2  0  0  0  0
  9 14  1  0  0  0  0
 10  8  1  6  0  0  0
 11 15  2  0  0  0  0
 12 25  1  1  0  0  0
 12 28  1  0  0  0  0
 13  9  1  0  0  0  0
 13 26  1  0  0  0  0
 14  8  1  0  0  0  0
 15 23  1  0  0  0  0
 16  1  2  0  0  0  0
 16 20  1  0  0  0  0
 17  5  1  0  0  0  0
 17 25  1  0  0  0  0
 18  9  2  0  0  0  0
 19 25  1  0  0  0  0
 19 15  1  0  0  0  0
 20  4  2  0  0  0  0
 21 22  2  0  0  0  0
 23  6  1  0  0  0  0
 24 12  1  0  0  0  0
 24 26  1  0  0  0  0
 26 10  1  0  0  0  0
 28 10  1  0  0  0  0
 28 16  1  0  0  0  0
M  END
>  <MODEL>
2

>  <REMARK>
 VINA RESULT:      -2.7      2.131      2.653
  Name = 
  0 active torsions:
  status: ('A' for Active; 'I' for Inactive)
                            x       y       z     vdW  Elec       q    Type
                         _______ _______ _______ _____ _____    ______ ____

>  <TORSDO>
F 0

$$$$
=
 OpenBabel11122414073D

 28 32  0  0  1  0  0  0  0  0999 V2000
  161.8900  211.1620  137.8420 C   0  0  0  0  0  0  0  0  0  0  0  0
  157.3270  213.1250  137.1620 O   0  0  0  0  0  0  0  0  0  0  0  0
  162.0120  214.4530  142.4160 O   0  0  0  0  0  0  0  0  0  0  0  0
  161.6090  208.8990  139.4730 C   0  0  0  0  0  3  0  0  0  0  0  0
  159.8000  213.4410  142.2380 C   0  0  1  0  0  3  0  0  0  0  0  0
  162.1190  212.3980  137.0270 C   0  0  0  0  0  2  0  0  0  0  0  0
  157.1280  210.6800  137.0120 O   0  0  0  0  0  0  0  0  0  0  0  0
  157.1170  211.8580  137.9440 S   0  0  0  0  0  0  0  0  0  0  0  0
  155.8450  213.4240  139.8130 C   0  0  0  0  0  0  0  0  0  0  0  0
  158.3670  211.6490  139.1960 C   0  0  2  0  0  3  0  0  0  0  0  0
  164.1930  213.0640  139.6860 O   0  0  0  0  0  0  0  0  0  0  0  0
  160.0180  213.1880  139.8920 C   0  0  1  0  0  3  0  0  0  0  0  0
  157.1330  213.5040  140.5870 C   0  0  0  0  0  2  0  0  0  0  0  0
  155.3130  211.9270  138.9820 S   0  0  0  0  0  0  0  0  0  0  0  0
  163.3270  213.4970  138.9440 C   0  0  0  0  0  0  0  0  0  0  0  0
  160.7950  211.0710  138.7270 C   0  0  0  0  0  0  0  0  0  0  0  0
  161.1510  213.8490  141.7200 C   0  0  0  0  0  0  0  0  0  0  0  0
  155.1770  214.4360  139.6830 O   0  0  0  0  0  0  0  0  0  0  0  0
  162.2390  214.3560  139.4970 C   0  0  0  0  0  2  0  0  0  0  0  0
  160.6780  209.9360  139.5500 C   0  0  0  0  0  3  0  0  0  0  0  0
  162.8160  210.1120  137.7660 C   0  0  0  0  0  3  0  0  0  0  0  0
  162.6740  208.9840  138.5760 C   0  0  0  0  0  3  0  0  0  0  0  0
  163.3660  213.1550  137.4850 C   0  0  0  0  0  2  0  0  0  0  0  0
  159.3840  212.5610  141.0810 C   0  0  2  0  0  3  0  0  0  0  0  0
  161.3440  213.5640  140.3300 N   0  0  0  0  0  0  0  0  0  0  0  0
  157.9950  212.2240  140.6000 C   0  0  2  0  0  3  0  0  0  0  0  0
  159.9390  212.5940  143.4890 C   0  0  0  0  0  1  0  0  0  0  0  0
  159.7650  212.1830  138.7880 C   0  0  1  0  0  3  0  0  0  0  0  0
  1 16  1  0  0  0  0
  2  8  2  0  0  0  0
  4 20  1  0  0  0  0
  5 27  1  1  0  0  0
  6 23  1  0  0  0  0
  6  1  1  0  0  0  0
  7  8  2  0  0  0  0
  8 14  1  0  0  0  0
  9 13  1  0  0  0  0
 10  8  1  6  0  0  0
 10 26  1  0  0  0  0
 12 25  1  1  0  0  0
 12 24  1  0  0  0  0
 13 26  1  0  0  0  0
 14  9  1  0  0  0  0
 15 19  1  0  0  0  0
 15 11  2  0  0  0  0
 16 28  1  0  0  0  0
 16 20  2  0  0  0  0
 17  5  1  0  0  0  0
 17  3  2  0  0  0  0
 18  9  2  0  0  0  0
 19 25  1  0  0  0  0
 21  1  2  0  0  0  0
 21 22  1  0  0  0  0
 22  4  2  0  0  0  0
 23 15  1  0  0  0  0
 24  5  1  0  0  0  0
 25 17  1  0  0  0  0
 26 24  1  0  0  0  0
 28 10  1  0  0  0  0
 28 12  1  0  0  0  0
M  END
>  <MODEL>
3

>  <REMARK>
 VINA RESULT:      -2.5     12.160     15.221
  Name = 
  0 active torsions:
  status: ('A' for Active; 'I' for Inactive)
                            x       y       z     vdW  Elec       q    Type
                         _______ _______ _______ _____ _____    ______ ____

>  <TORSDO>
F 0

$$$$
