=
 OpenBabel11122413153D

 31 35  0  0  1  0  0  0  0  0999 V2000
  160.3450  207.3740  155.6180 C   0  0  0  0  0  0  0  0  0  0  0  0
  161.9350  208.5780  152.3760 C   0  0  2  0  0  3  0  0  0  0  0  0
  161.4690  207.6450  151.2730 C   0  0  0  0  0  0  0  0  0  0  0  0
  158.5780  212.7370  151.9030 O   0  0  0  0  0  0  0  0  0  0  0  0
  159.5400  212.8850  151.1020 C   0  0  0  0  0  0  0  0  0  0  0  0
  160.7810  205.4270  150.5520 C   0  0  0  0  0  0  0  0  0  0  0  0
  161.0570  208.5110  153.5980 C   0  0  0  0  0  0  0  0  0  0  0  0
  159.3340  208.3220  155.7980 C   0  0  0  0  0  3  0  0  0  0  0  0
  161.1470  206.3120  151.5680 C   0  0  0  0  0  3  0  0  0  0  0  0
  160.8190  210.8520  151.9810 C   0  0  0  0  0  0  0  0  0  0  0  0
  160.4870  206.3590  156.5030 F   0  0  0  0  0  0  0  0  0  0  0  0
  161.8040  209.4800  149.5650 C   0  0  0  0  0  2  0  0  0  0  0  0
  160.4270  204.0220  150.8820 C   0  0  0  0  0  1  0  0  0  0  0  0
  159.9290  210.5810  152.8910 N   0  0  0  0  0  0  0  0  0  0  0  0
  162.0980  210.0380  151.8900 C   0  0  2  0  0  3  0  0  0  0  0  0
  160.6620  211.9930  151.1280 N   0  0  0  0  0  2  0  0  0  0  0  0
  161.2030  207.4640  154.5180 C   0  0  0  0  0  3  0  0  0  0  0  0
  160.7490  205.8610  149.2250 C   0  0  0  0  0  3  0  0  0  0  0  0
  160.0520  209.4740  153.7920 C   0  0  0  0  0  0  0  0  0  0  0  0
  159.1890  209.3720  154.8870 C   0  0  0  0  0  3  0  0  0  0  0  0
  162.7010  210.0860  150.5530 N   0  0  0  0  0  2  0  0  0  0  0  0
  161.4730  208.0650  149.9270 C   0  0  0  0  0  0  0  0  0  0  0  0
  161.0940  207.1790  148.9140 C   0  0  0  0  0  3  0  0  0  0  0  0
  158.0100  213.2100  147.6590 C   0  0  1  0  0  3  0  0  0  0  0  0
  158.0410  214.4520  149.8390 C   0  0  0  0  0  2  0  0  0  0  0  0
  161.4920  213.1990  149.0110 O   0  0  0  0  0  1  0  0  0  0  0  0
  157.2420  212.1980  146.8340 C   0  0  0  0  0  1  0  0  0  0  0  0
  157.2790  213.4450  148.9780 C   0  0  0  0  0  2  0  0  0  0  0  0
  160.2030  213.6800  148.7730 C   0  0  2  0  0  3  0  0  0  0  0  0
  159.4820  213.9970  150.0960 C   0  0  2  0  0  3  0  0  0  0  0  0
  159.4190  212.6860  147.9190 C   0  0  0  0  0  2  0  0  0  0  0  0
  1  8  1  0  0  0  0
  1 11  1  0  0  0  0
  2  3  1  6  0  0  0
  2  7  1  0  0  0  0
  3  9  1  0  0  0  0
  5 16  1  0  0  0  0
  5  4  2  0  0  0  0
  6 13  1  0  0  0  0
  6  9  2  0  0  0  0
  7 19  2  0  0  0  0
  7 17  1  0  0  0  0
 10 14  2  0  0  0  0
 12 22  1  0  0  0  0
 12 21  1  0  0  0  0
 14 19  1  0  0  0  0
 15 21  1  6  0  0  0
 15 10  1  0  0  0  0
 15  2  1  0  0  0  0
 16 10  1  0  0  0  0
 17  1  2  0  0  0  0
 18  6  1  0  0  0  0
 19 20  1  0  0  0  0
 20  8  2  0  0  0  0
 22  3  2  0  0  0  0
 23 18  2  0  0  0  0
 23 22  1  0  0  0  0
 24 27  1  6  0  0  0
 24 31  1  0  0  0  0
 24 28  1  0  0  0  0
 25 30  1  0  0  0  0
 28 25  1  0  0  0  0
 29 26  1  1  0  0  0
 29 30  1  0  0  0  0
 30  5  1  1  0  0  0
 31 29  1  0  0  0  0
M  END
>  <MODEL>
1

>  <REMARK>
 VINA RESULT:      -7.9      0.000      0.000
  Name = 
  1 active torsions:
  status: ('A' for Active; 'I' for Inactive)
    1  A    between atoms: C_5  and  C_30
                            x       y       z     vdW  Elec       q    Type
                         _______ _______ _______ _____ _____    ______ ____

>  <TORSDO>
F 1

$$$$
=
 OpenBabel11122413153D

 31 35  0  0  1  0  0  0  0  0999 V2000
  162.2360  213.6430  147.0020 C   0  0  0  0  0  0  0  0  0  0  0  0
  159.7410  214.4190  149.7690 C   0  0  2  0  0  3  0  0  0  0  0  0
  158.3520  214.2060  149.1950 C   0  0  0  0  0  0  0  0  0  0  0  0
  160.6770  209.8060  152.3440 O   0  0  0  0  0  0  0  0  0  0  0  0
  160.0320  210.5810  153.0990 C   0  0  0  0  0  0  0  0  0  0  0  0
  156.8350  214.2630  147.2940 C   0  0  0  0  0  0  0  0  0  0  0  0
  160.8110  213.7330  148.9610 C   0  0  0  0  0  0  0  0  0  0  0  0
  162.7060  212.3870  147.3980 C   0  0  0  0  0  3  0  0  0  0  0  0
  158.1210  214.3920  147.8230 C   0  0  0  0  0  3  0  0  0  0  0  0
  160.1590  212.5570  151.4800 C   0  0  0  0  0  0  0  0  0  0  0  0
  162.6920  214.2050  145.8570 F   0  0  0  0  0  0  0  0  0  0  0  0
  157.4560  213.7320  151.5110 C   0  0  0  0  0  2  0  0  0  0  0  0
  156.6090  214.4460  145.8380 C   0  0  0  0  0  1  0  0  0  0  0  0
  160.8630  211.9010  150.6040 N   0  0  0  0  0  0  0  0  0  0  0  0
  159.8340  214.0250  151.2620 C   0  0  2  0  0  3  0  0  0  0  0  0
  159.7790  211.9390  152.7160 N   0  0  0  0  0  2  0  0  0  0  0  0
  161.2870  214.3140  147.7780 C   0  0  0  0  0  3  0  0  0  0  0  0
  155.7610  213.9630  148.1350 C   0  0  0  0  0  3  0  0  0  0  0  0
  161.2990  212.4790  149.3680 C   0  0  0  0  0  0  0  0  0  0  0  0
  162.2390  211.8070  148.5810 C   0  0  0  0  0  3  0  0  0  0  0  0
  158.6370  214.4500  151.9970 N   0  0  0  0  0  2  0  0  0  0  0  0
  157.2570  213.9430  150.0430 C   0  0  0  0  0  0  0  0  0  0  0  0
  155.9730  213.8020  149.5070 C   0  0  0  0  0  3  0  0  0  0  0  0
  161.3230  210.6370  156.6530 C   0  0  1  0  0  3  0  0  0  0  0  0
  159.2210  211.1830  155.3970 C   0  0  0  0  0  2  0  0  0  0  0  0
  160.7020  207.9710  154.1120 O   0  0  0  0  0  1  0  0  0  0  0  0
  162.6020  211.2200  157.2160 C   0  0  0  0  0  1  0  0  0  0  0  0
  160.5140  211.7470  155.9880 C   0  0  0  0  0  2  0  0  0  0  0  0
  160.3880  208.9660  155.0390 C   0  0  2  0  0  3  0  0  0  0  0  0
  159.5030  210.0520  154.4010 C   0  0  2  0  0  3  0  0  0  0  0  0
  161.6660  209.5490  155.6400 C   0  0  0  0  0  2  0  0  0  0  0  0
  1  8  2  0  0  0  0
  1 17  1  0  0  0  0
  2  7  1  6  0  0  0
  2 15  1  0  0  0  0
  3  2  1  0  0  0  0
  3 22  1  0  0  0  0
  4  5  2  0  0  0  0
  6  9  1  0  0  0  0
  6 18  2  0  0  0  0
  7 19  1  0  0  0  0
  8 20  1  0  0  0  0
  9  3  2  0  0  0  0
 10 16  1  0  0  0  0
 11  1  1  0  0  0  0
 12 21  1  0  0  0  0
 13  6  1  0  0  0  0
 14 10  2  0  0  0  0
 15 10  1  6  0  0  0
 15 21  1  0  0  0  0
 16  5  1  0  0  0  0
 17  7  2  0  0  0  0
 18 23  1  0  0  0  0
 19 14  1  0  0  0  0
 20 19  2  0  0  0  0
 22 12  1  0  0  0  0
 23 22  2  0  0  0  0
 24 27  1  6  0  0  0
 25 28  1  0  0  0  0
 28 24  1  0  0  0  0
 29 26  1  6  0  0  0
 29 31  1  0  0  0  0
 30  5  1  6  0  0  0
 30 29  1  0  0  0  0
 30 25  1  0  0  0  0
 31 24  1  0  0  0  0
M  END
>  <MODEL>
2

>  <REMARK>
 VINA RESULT:      -5.5      3.849      7.998
  Name = 
  1 active torsions:
  status: ('A' for Active; 'I' for Inactive)
    1  A    between atoms: C_5  and  C_30
                            x       y       z     vdW  Elec       q    Type
                         _______ _______ _______ _____ _____    ______ ____

>  <TORSDO>
F 1

$$$$
