=
 OpenBabel11122413473D

 37 43  0  0  1  0  0  0  0  0999 V2000
  162.6110  204.8810  146.3240 C   0  0  0  0  0  0  0  0  0  0  0  0
  160.9070  205.6140  150.0840 C   0  0  0  0  0  0  0  0  0  0  0  0
  162.2490  208.8670  151.7610 O   0  0  0  0  0  0  0  0  0  0  0  0
  161.3140  203.9790  148.3560 C   0  0  0  0  0  0  0  0  0  0  0  0
  161.1830  207.0650  150.2790 C   0  0  1  0  0  3  0  0  0  0  0  0
  161.2650  205.2930  148.8110 C   0  0  0  0  0  0  0  0  0  0  0  0
  161.8080  207.4980  151.6650 C   0  0  2  0  0  3  0  0  0  0  0  0
  160.8310  202.9720  149.2050 C   0  0  0  0  0  3  0  0  0  0  0  0
  161.7430  206.4710  148.0790 C   0  0  2  0  0  3  0  0  0  0  0  0
  161.6120  205.3350  145.2740 C   0  0  0  0  0  1  0  0  0  0  0  0
  159.8250  204.9740  152.2820 C   0  0  0  0  0  2  0  0  0  0  0  0
  160.3350  203.3070  150.4830 C   0  0  0  0  0  3  0  0  0  0  0  0
  162.9640  206.0600  147.2590 C   0  0  0  0  0  2  0  0  0  0  0  0
  162.0700  210.9680  150.3790 C   0  0  1  0  0  3  0  0  0  0  0  0
  161.5450  209.6320  150.8250 C   0  0  1  0  0  3  0  0  0  0  0  0
  160.3770  204.6390  150.9390 C   0  0  0  0  0  0  0  0  0  0  0  0
  162.0650  207.4300  149.1380 N   0  0  1  0  0  0  0  0  0  0  0  0
  162.0370  203.6540  147.0760 C   0  0  0  0  0  2  0  0  0  0  0  0
  160.8840  207.1590  152.8530 C   0  0  1  0  0  3  0  0  0  0  0  0
  163.8740  204.4480  145.6100 C   0  0  0  0  0  1  0  0  0  0  0  0
  162.5160  209.6990  149.6570 C   0  0  1  0  0  3  0  0  0  0  0  0
  161.7670  208.7970  148.6980 C   0  0  0  0  0  2  0  0  0  0  0  0
  160.8630  205.6640  153.1430 C   0  0  0  0  0  2  0  0  0  0  0  0
  161.6810  207.1750  155.2240 C   0  0  0  0  0  3  0  0  0  0  0  0
  161.2510  207.8990  154.1070 C   0  0  0  0  0  0  0  0  0  0  0  0
  161.1580  209.2980  154.1810 C   0  0  0  0  0  3  0  0  0  0  0  0
  161.3950  211.4420  155.4380 C   0  0  0  0  0  1  0  0  0  0  0  0
  161.9250  209.2330  156.4760 C   0  0  0  0  0  3  0  0  0  0  0  0
  161.4950  209.9620  155.3630 C   0  0  0  0  0  0  0  0  0  0  0  0
  162.0170  207.8410  156.4060 C   0  0  0  0  0  3  0  0  0  0  0  0
  159.2590  213.0570  147.7280 O   0  0  0  0  0  0  0  0  0  0  0  0
  160.3300  212.5600  147.2900 C   0  0  0  0  0  0  0  0  0  0  0  0
  161.0420  211.7030  149.5810 C   0  0  0  0  0  0  0  0  0  0  0  0
  161.2360  211.8840  148.1730 N   0  0  0  0  0  2  0  0  0  0  0  0
  160.0330  212.1900  150.1600 O   0  0  0  0  0  0  0  0  0  0  0  0
  159.6860  212.3060  144.9300 C   0  0  0  0  0  1  0  0  0  0  0  0
  160.6230  212.6730  145.9310 O   0  0  0  0  0  0  0  0  0  0  0  0
  1 18  1  0  0  0  0
  1 13  1  0  0  0  0
  2 16  1  0  0  0  0
  4  6  1  0  0  0  0
  4  8  2  0  0  0  0
  5  2  1  1  0  0  0
  5  7  1  0  0  0  0
  6  2  2  0  0  0  0
  7  3  1  6  0  0  0
  7 19  1  0  0  0  0
  8 12  1  0  0  0  0
  9 13  1  1  0  0  0
  9  6  1  0  0  0  0
  9 17  1  0  0  0  0
 10  1  1  0  0  0  0
 11 23  1  0  0  0  0
 12 16  2  0  0  0  0
 14 33  1  6  0  0  0
 14 15  1  0  0  0  0
 15  3  1  1  0  0  0
 16 11  1  0  0  0  0
 17 22  1  6  0  0  0
 17  5  1  0  0  0  0
 18  4  1  0  0  0  0
 19 23  1  0  0  0  0
 19 25  1  1  0  0  0
 20  1  1  0  0  0  0
 21 22  1  6  0  0  0
 21 14  1  0  0  0  0
 21 15  1  0  0  0  0
 24 30  1  0  0  0  0
 25 26  1  0  0  0  0
 25 24  2  0  0  0  0
 26 29  2  0  0  0  0
 29 27  1  0  0  0  0
 29 28  1  0  0  0  0
 30 28  2  0  0  0  0
 32 31  2  0  0  0  0
 32 34  1  0  0  0  0
 33 35  2  0  0  0  0
 34 33  1  0  0  0  0
 36 37  1  0  0  0  0
 37 32  1  0  0  0  0
M  END
>  <MODEL>
1

>  <REMARK>
 VINA RESULT:      -7.4      0.000      0.000
  Name = 
  3 active torsions:
  status: ('A' for Active; 'I' for Inactive)
    1  A    between atoms: C_4  and  O_37
    2  A    between atoms: C_8  and  C_18
    3  A    between atoms: C_23  and  C_30
                            x       y       z     vdW  Elec       q    Type
                         _______ _______ _______ _____ _____    ______ ____

>  <TORSDO>
F 3

$$$$
=
 OpenBabel11122413473D

 37 43  0  0  1  0  0  0  0  0999 V2000
  161.1250  210.8860  156.2050 C   0  0  0  0  0  0  0  0  0  0  0  0
  159.8060  212.2290  152.4580 C   0  0  0  0  0  0  0  0  0  0  0  0
  162.0330  210.9720  149.5160 O   0  0  0  0  0  0  0  0  0  0  0  0
  159.6980  212.5450  154.8480 C   0  0  0  0  0  0  0  0  0  0  0  0
  160.4720  211.2730  151.5280 C   0  0  1  0  0  3  0  0  0  0  0  0
  160.0220  211.7870  153.7280 C   0  0  0  0  0  0  0  0  0  0  0  0
  161.2350  211.8900  150.2880 C   0  0  2  0  0  3  0  0  0  0  0  0
  158.9890  213.7400  154.6510 C   0  0  0  0  0  3  0  0  0  0  0  0
  160.7780  210.5300  153.7330 C   0  0  2  0  0  3  0  0  0  0  0  0
  160.2510  209.7080  156.6010 C   0  0  0  0  0  1  0  0  0  0  0  0
  158.6640  213.8260  150.8600 C   0  0  0  0  0  2  0  0  0  0  0  0
  158.6440  214.1450  153.3440 C   0  0  0  0  0  3  0  0  0  0  0  0
  161.8140  210.6010  154.8520 C   0  0  0  0  0  2  0  0  0  0  0  0
  162.3860  208.4790  149.3940 C   0  0  1  0  0  3  0  0  0  0  0  0
  161.5320  209.6780  149.6980 C   0  0  1  0  0  3  0  0  0  0  0  0
  159.0600  213.3920  152.2290 C   0  0  0  0  0  0  0  0  0  0  0  0
  161.3810  210.4820  152.4000 N   0  0  1  0  0  0  0  0  0  0  0  0
  160.2640  212.1750  156.1940 C   0  0  0  0  0  2  0  0  0  0  0  0
  160.2930  212.6810  149.3580 C   0  0  1  0  0  3  0  0  0  0  0  0
  162.1990  211.0470  157.2600 C   0  0  0  0  0  1  0  0  0  0  0  0
  162.4470  209.1200  150.7780 C   0  0  1  0  0  3  0  0  0  0  0  0
  161.4510  209.0990  151.9190 C   0  0  0  0  0  2  0  0  0  0  0  0
  159.8780  214.0110  149.9730 C   0  0  0  0  0  2  0  0  0  0  0  0
  162.1040  213.6140  147.9060 C   0  0  0  0  0  3  0  0  0  0  0  0
  160.8880  212.9290  148.0010 C   0  0  0  0  0  0  0  0  0  0  0  0
  160.2410  212.4980  146.8330 C   0  0  0  0  0  3  0  0  0  0  0  0
  160.1220  212.2930  144.3470 C   0  0  0  0  0  1  0  0  0  0  0  0
  162.0250  213.4350  145.4920 C   0  0  0  0  0  3  0  0  0  0  0  0
  160.8100  212.7510  145.5820 C   0  0  0  0  0  0  0  0  0  0  0  0
  162.6710  213.8670  146.6530 C   0  0  0  0  0  3  0  0  0  0  0  0
  160.2240  204.6710  149.7410 O   0  0  0  0  0  0  0  0  0  0  0  0
  161.2700  204.8960  150.4050 C   0  0  0  0  0  0  0  0  0  0  0  0
  161.5690  207.2260  149.4220 C   0  0  0  0  0  0  0  0  0  0  0  0
  161.9630  206.1450  150.2760 N   0  0  0  0  0  2  0  0  0  0  0  0
  160.5660  207.1190  148.6660 O   0  0  0  0  0  0  0  0  0  0  0  0
  160.8850  203.2250  152.1680 C   0  0  0  0  0  1  0  0  0  0  0  0
  161.7450  203.9130  151.2740 O   0  0  0  0  0  0  0  0  0  0  0  0
  1 10  1  0  0  0  0
  1 20  1  0  0  0  0
  2  6  1  0  0  0  0
  4 18  1  0  0  0  0
  5 17  1  0  0  0  0
  5  2  1  1  0  0  0
  6  9  1  0  0  0  0
  6  4  2  0  0  0  0
  7  3  1  6  0  0  0
  7  5  1  0  0  0  0
  8  4  1  0  0  0  0
  9 13  1  1  0  0  0
 11 16  1  0  0  0  0
 12  8  2  0  0  0  0
 13  1  1  0  0  0  0
 14 33  1  1  0  0  0
 14 15  1  0  0  0  0
 14 21  1  0  0  0  0
 15  3  1  6  0  0  0
 15 21  1  0  0  0  0
 16  2  2  0  0  0  0
 16 12  1  0  0  0  0
 17 22  1  6  0  0  0
 17  9  1  0  0  0  0
 18  1  1  0  0  0  0
 19 25  1  6  0  0  0
 19 23  1  0  0  0  0
 19  7  1  0  0  0  0
 21 22  1  1  0  0  0
 23 11  1  0  0  0  0
 24 25  1  0  0  0  0
 26 25  2  0  0  0  0
 27 29  1  0  0  0  0
 28 29  2  0  0  0  0
 28 30  1  0  0  0  0
 29 26  1  0  0  0  0
 30 24  2  0  0  0  0
 31 32  2  0  0  0  0
 32 37  1  0  0  0  0
 33 34  1  0  0  0  0
 34 32  1  0  0  0  0
 35 33  2  0  0  0  0
 37 36  1  0  0  0  0
M  END
>  <MODEL>
2

>  <REMARK>
 VINA RESULT:      -7.4      2.509      8.766
  Name = 
  3 active torsions:
  status: ('A' for Active; 'I' for Inactive)
    1  A    between atoms: C_4  and  O_37
    2  A    between atoms: C_8  and  C_18
    3  A    between atoms: C_23  and  C_30
                            x       y       z     vdW  Elec       q    Type
                         _______ _______ _______ _____ _____    ______ ____

>  <TORSDO>
F 3

$$$$
=
 OpenBabel11122413473D

 37 43  0  0  1  0  0  0  0  0999 V2000
  162.2660  204.9180  146.3120 C   0  0  0  0  0  0  0  0  0  0  0  0
  160.9770  206.1740  150.0990 C   0  0  0  0  0  0  0  0  0  0  0  0
  162.4020  209.6560  151.1200 O   0  0  0  0  0  0  0  0  0  0  0  0
  161.2350  204.3090  148.5910 C   0  0  0  0  0  0  0  0  0  0  0  0
  161.2300  207.6430  150.0490 C   0  0  1  0  0  3  0  0  0  0  0  0
  161.1980  205.6740  148.8530 C   0  0  0  0  0  0  0  0  0  0  0  0
  161.9940  208.2830  151.2750 C   0  0  2  0  0  3  0  0  0  0  0  0
  160.8820  203.4310  149.6270 C   0  0  0  0  0  3  0  0  0  0  0  0
  161.5550  206.7380  147.9080 C   0  0  2  0  0  3  0  0  0  0  0  0
  161.1410  205.1990  145.3310 C   0  0  0  0  0  1  0  0  0  0  0  0
  160.1700  205.8510  152.4770 C   0  0  0  0  0  2  0  0  0  0  0  0
  160.5230  203.9440  150.8920 C   0  0  0  0  0  3  0  0  0  0  0  0
  162.6870  206.2260  147.0190 C   0  0  0  0  0  2  0  0  0  0  0  0
  162.0050  211.5280  149.4790 C   0  0  1  0  0  3  0  0  0  0  0  0
  161.5740  210.2660  150.1710 C   0  0  1  0  0  3  0  0  0  0  0  0
  160.5770  205.3290  151.1430 C   0  0  0  0  0  0  0  0  0  0  0  0
  161.9650  207.8460  148.7720 N   0  0  1  0  0  0  0  0  0  0  0  0
  161.8180  203.8080  147.2950 C   0  0  0  0  0  2  0  0  0  0  0  0
  161.2210  208.1100  152.5990 C   0  0  1  0  0  3  0  0  0  0  0  0
  163.4530  204.4010  145.5270 C   0  0  0  0  0  1  0  0  0  0  0  0
  162.4040  210.1730  148.9010 C   0  0  1  0  0  3  0  0  0  0  0  0
  161.5790  209.1290  148.1760 C   0  0  0  0  0  2  0  0  0  0  0  0
  161.2780  206.6740  153.1030 C   0  0  0  0  0  2  0  0  0  0  0  0
  162.8080  209.8560  153.4310 C   0  0  0  0  0  3  0  0  0  0  0  0
  161.7050  209.0310  153.6810 C   0  0  0  0  0  0  0  0  0  0  0  0
  161.0810  209.0700  154.9380 C   0  0  0  0  0  3  0  0  0  0  0  0
  160.8940  209.9680  157.2610 C   0  0  0  0  0  1  0  0  0  0  0  0
  162.6590  210.7510  155.6770 C   0  0  0  0  0  3  0  0  0  0  0  0
  161.5580  209.9290  155.9320 C   0  0  0  0  0  0  0  0  0  0  0  0
  163.2840  210.7130  154.4270 C   0  0  0  0  0  3  0  0  0  0  0  0
  158.5580  213.4370  147.5370 O   0  0  0  0  0  0  0  0  0  0  0  0
  158.7550  213.5410  148.7760 C   0  0  0  0  0  0  0  0  0  0  0  0
  160.8710  212.1240  148.7080 C   0  0  0  0  0  0  0  0  0  0  0  0
  159.8860  212.9080  149.3920 N   0  0  0  0  0  2  0  0  0  0  0  0
  160.7720  211.9000  147.4710 O   0  0  0  0  0  0  0  0  0  0  0  0
  157.7160  214.0750  150.9400 C   0  0  0  0  0  1  0  0  0  0  0  0
  157.8590  214.2850  149.5440 O   0  0  0  0  0  0  0  0  0  0  0  0
  1 13  1  0  0  0  0
  1 18  1  0  0  0  0
  2 16  1  0  0  0  0
  4  6  1  0  0  0  0
  4  8  2  0  0  0  0
  5  2  1  1  0  0  0
  5  7  1  0  0  0  0
  6  2  2  0  0  0  0
  7  3  1  6  0  0  0
  7 19  1  0  0  0  0
  8 12  1  0  0  0  0
  9 13  1  6  0  0  0
  9 17  1  0  0  0  0
  9  6  1  0  0  0  0
 10  1  1  0  0  0  0
 11 23  1  0  0  0  0
 12 16  2  0  0  0  0
 14 33  1  6  0  0  0
 14 15  1  0  0  0  0
 15  3  1  1  0  0  0
 16 11  1  0  0  0  0
 17 22  1  6  0  0  0
 17  5  1  0  0  0  0
 18  4  1  0  0  0  0
 19 23  1  0  0  0  0
 19 25  1  1  0  0  0
 20  1  1  0  0  0  0
 21 22  1  6  0  0  0
 21 14  1  0  0  0  0
 21 15  1  0  0  0  0
 24 25  2  0  0  0  0
 24 30  1  0  0  0  0
 25 26  1  0  0  0  0
 26 29  2  0  0  0  0
 28 29  1  0  0  0  0
 29 27  1  0  0  0  0
 30 28  2  0  0  0  0
 31 32  2  0  0  0  0
 32 34  1  0  0  0  0
 32 37  1  0  0  0  0
 33 34  1  0  0  0  0
 35 33  2  0  0  0  0
 37 36  1  0  0  0  0
M  END
>  <MODEL>
3

>  <REMARK>
 VINA RESULT:      -6.9      1.327      1.913
  Name = 
  3 active torsions:
  status: ('A' for Active; 'I' for Inactive)
    1  A    between atoms: C_4  and  O_37
    2  A    between atoms: C_8  and  C_18
    3  A    between atoms: C_23  and  C_30
                            x       y       z     vdW  Elec       q    Type
                         _______ _______ _______ _____ _____    ______ ____

>  <TORSDO>
F 3

$$$$
