=
 OpenBabel11122412473D

 32 37  0  0  1  0  0  0  0  0999 V2000
  161.1080  206.6100  151.5260 C   0  0  1  0  0  3  0  0  0  0  0  0
  162.2750  210.3050  148.6410 C   0  0  0  0  0  3  0  0  0  0  0  0
  162.1410  211.2490  149.7680 C   0  0  0  0  0  3  0  0  0  0  0  0
  161.0770  206.9730  153.9540 C   0  0  0  0  0  0  0  0  0  0  0  0
  161.2450  207.8870  154.9850 C   0  0  0  0  0  0  0  0  0  0  0  0
  160.5980  204.3580  150.5120 C   0  0  0  0  0  2  0  0  0  0  0  0
  160.8490  206.2960  149.0290 C   0  0  0  0  0  2  0  0  0  0  0  0
  161.5810  209.9060  156.0390 C   0  0  1  0  0  3  0  0  0  0  0  0
  161.8250  209.0500  148.7400 C   0  0  0  0  0  3  0  0  0  0  0  0
  161.1790  207.1460  150.1800 N   0  0  1  0  0  0  0  0  0  0  0  0
  161.0630  208.5880  149.9600 C   0  0  1  0  0  3  0  0  0  0  0  0
  161.3600  208.8590  152.4100 C   0  0  0  0  0  0  0  0  0  0  0  0
  161.3990  208.8640  157.0760 N   0  0  0  0  0  0  0  0  0  0  0  0
  161.2710  204.8530  149.2490 C   0  0  2  0  0  3  0  0  0  0  0  0
  161.1900  207.6570  156.3720 N   0  0  0  0  0  0  0  0  0  0  0  0
  161.7540  210.8220  150.9740 C   0  0  0  0  0  3  0  0  0  0  0  0
  161.4250  209.3940  151.1810 C   0  0  2  0  0  3  0  0  0  0  0  0
  161.5250  209.6830  153.4920 N   0  0  0  0  0  0  0  0  0  0  0  0
  161.1680  205.1090  151.7030 C   0  0  0  0  0  2  0  0  0  0  0  0
  160.8160  205.6450  154.2810 O   0  0  0  0  0  1  0  0  0  0  0  0
  162.9590  210.5250  156.1800 C   0  0  0  0  0  1  0  0  0  0  0  0
  161.1610  207.4470  152.6050 C   0  0  0  0  0  0  0  0  0  0  0  0
  161.4760  209.1840  154.7470 C   0  0  0  0  0  0  0  0  0  0  0  0
  161.3830  204.4840  146.7130 C   0  0  2  0  0  3  0  0  0  0  0  0
  160.8310  204.0050  148.0600 C   0  0  1  0  0  3  0  0  0  0  0  0
  162.0340  203.3230  147.4400 C   0  0  1  0  0  3  0  0  0  0  0  0
  161.6170  202.0830  146.8320 N   0  0  0  0  0  0  0  0  0  0  0  0
  161.3780  201.0130  147.5090 C   0  0  0  0  0  0  0  0  0  0  0  0
  161.5160  200.9640  148.9990 C   0  0  0  0  0  1  0  0  0  0  0  0
  160.9520  199.7800  146.7900 C   0  0  0  0  0  1  0  0  0  0  0  0
  162.1910  205.6190  146.8360 O   0  0  0  0  0  0  0  0  0  0  0  0
  162.5870  205.9120  145.5310 C   0  0  0  0  0  1  0  0  0  0  0  0
  1 19  1  1  0  0  0
  1 22  1  0  0  0  0
  2  9  2  0  0  0  0
  2  3  1  0  0  0  0
  3 16  2  0  0  0  0
  4 20  1  0  0  0  0
  4  5  1  0  0  0  0
  5 15  1  0  0  0  0
  6 19  1  0  0  0  0
  8 21  1  1  0  0  0
  8 13  1  0  0  0  0
 10  7  1  6  0  0  0
 10  1  1  0  0  0  0
 11  9  1  6  0  0  0
 11 10  1  0  0  0  0
 11 17  1  0  0  0  0
 12 22  1  0  0  0  0
 12 18  2  0  0  0  0
 14  7  1  6  0  0  0
 14  6  1  0  0  0  0
 15 13  2  0  0  0  0
 17 16  1  1  0  0  0
 17 12  1  0  0  0  0
 18 23  1  0  0  0  0
 22  4  2  0  0  0  0
 23  5  2  0  0  0  0
 23  8  1  0  0  0  0
 24 31  1  1  0  0  0
 24 26  1  0  0  0  0
 24 25  1  0  0  0  0
 25 14  1  1  0  0  0
 26 27  1  6  0  0  0
 26 25  1  0  0  0  0
 27 28  2  0  0  0  0
 28 29  1  0  0  0  0
 30 28  1  0  0  0  0
 32 31  1  0  0  0  0
M  END
>  <MODEL>
1

>  <REMARK>
 VINA RESULT:      -7.7      0.000      0.000
  Name = 
  3 active torsions:
  status: ('A' for Active; 'I' for Inactive)
    1  A    between atoms: C_1  and  O_16
    2  A    between atoms: C_10  and  C_17
    3  A    between atoms: C_20  and  N_29
                            x       y       z     vdW  Elec       q    Type
                         _______ _______ _______ _____ _____    ______ ____

>  <TORSDO>
F 3

$$$$
=
 OpenBabel11122412473D

 32 37  0  0  1  0  0  0  0  0999 V2000
  161.4110  206.7830  148.7940 C   0  0  1  0  0  3  0  0  0  0  0  0
  161.4280  205.5430  153.4630 C   0  0  0  0  0  3  0  0  0  0  0  0
  161.0100  204.1700  153.1170 C   0  0  0  0  0  3  0  0  0  0  0  0
  161.2600  205.0100  147.1020 C   0  0  0  0  0  0  0  0  0  0  0  0
  161.1390  203.6470  146.8690 C   0  0  0  0  0  0  0  0  0  0  0  0
  161.6070  209.2150  148.1560 C   0  0  0  0  0  2  0  0  0  0  0  0
  161.2710  208.6320  150.5150 C   0  0  0  0  0  2  0  0  0  0  0  0
  160.8470  201.4060  147.3050 C   0  0  1  0  0  3  0  0  0  0  0  0
  161.3750  206.5250  152.5570 C   0  0  0  0  0  3  0  0  0  0  0  0
  161.3240  207.2040  150.1790 N   0  0  1  0  0  0  0  0  0  0  0  0
  160.7810  206.2930  151.1870 C   0  0  1  0  0  3  0  0  0  0  0  0
  160.9700  204.4960  149.4840 C   0  0  0  0  0  0  0  0  0  0  0  0
  160.9820  201.5810  145.8410 N   0  0  0  0  0  0  0  0  0  0  0  0
  162.1070  209.4710  149.5620 C   0  0  2  0  0  3  0  0  0  0  0  0
  161.1490  202.9690  145.6360 N   0  0  0  0  0  0  0  0  0  0  0  0
  160.7630  203.8310  151.8480 C   0  0  0  0  0  3  0  0  0  0  0  0
  160.8770  204.8460  150.7770 C   0  0  2  0  0  3  0  0  0  0  0  0
  160.8740  203.1690  149.1570 N   0  0  0  0  0  0  0  0  0  0  0  0
  161.9190  207.7790  147.7740 C   0  0  0  0  0  2  0  0  0  0  0  0
  161.4080  205.8600  146.0090 O   0  0  0  0  0  1  0  0  0  0  0  0
  161.9740  200.5270  147.8150 C   0  0  0  0  0  1  0  0  0  0  0  0
  161.2040  205.4760  148.4560 C   0  0  0  0  0  0  0  0  0  0  0  0
  160.9710  202.7720  147.8680 C   0  0  0  0  0  0  0  0  0  0  0  0
  162.7030  211.8950  148.9700 C   0  0  2  0  0  3  0  0  0  0  0  0
  161.9480  210.9480  149.9090 C   0  0  1  0  0  3  0  0  0  0  0  0
  161.2150  211.6630  148.7920 C   0  0  1  0  0  3  0  0  0  0  0  0
  160.4870  212.7820  149.3400 N   0  0  0  0  0  0  0  0  0  0  0  0
  159.4550  213.2980  148.7670 C   0  0  0  0  0  0  0  0  0  0  0  0
  158.9180  212.7770  147.4700 C   0  0  0  0  0  1  0  0  0  0  0  0
  158.7700  214.4530  149.4120 C   0  0  0  0  0  1  0  0  0  0  0  0
  163.4020  211.2150  147.9680 O   0  0  0  0  0  0  0  0  0  0  0  0
  163.8850  212.2200  147.1320 C   0  0  0  0  0  1  0  0  0  0  0  0
  1 19  1  1  0  0  0
  1 10  1  0  0  0  0
  3  2  1  0  0  0  0
  4 22  1  0  0  0  0
  5  4  2  0  0  0  0
  5 23  1  0  0  0  0
  8 21  1  1  0  0  0
  8 23  1  0  0  0  0
  9  2  2  0  0  0  0
 10  7  1  6  0  0  0
 10 11  1  0  0  0  0
 11  9  1  1  0  0  0
 12 17  1  0  0  0  0
 13  8  1  0  0  0  0
 14  6  1  6  0  0  0
 14  7  1  0  0  0  0
 15 13  2  0  0  0  0
 15  5  1  0  0  0  0
 16  3  2  0  0  0  0
 17 11  1  0  0  0  0
 17 16  1  6  0  0  0
 18 12  1  0  0  0  0
 19  6  1  0  0  0  0
 20  4  1  0  0  0  0
 22  1  1  0  0  0  0
 22 12  2  0  0  0  0
 23 18  2  0  0  0  0
 24 31  1  6  0  0  0
 24 25  1  0  0  0  0
 25 14  1  6  0  0  0
 26 24  1  0  0  0  0
 26 27  1  1  0  0  0
 26 25  1  0  0  0  0
 28 27  2  0  0  0  0
 28 30  1  0  0  0  0
 29 28  1  0  0  0  0
 32 31  1  0  0  0  0
M  END
>  <MODEL>
2

>  <REMARK>
 VINA RESULT:      -7.0      2.959      8.400
  Name = 
  3 active torsions:
  status: ('A' for Active; 'I' for Inactive)
    1  A    between atoms: C_1  and  O_16
    2  A    between atoms: C_10  and  C_17
    3  A    between atoms: C_20  and  N_29
                            x       y       z     vdW  Elec       q    Type
                         _______ _______ _______ _____ _____    ______ ____

>  <TORSDO>
F 3

$$$$
=
 OpenBabel11122412473D

 32 37  0  0  1  0  0  0  0  0999 V2000
  161.5600  206.1510  149.5310 C   0  0  1  0  0  3  0  0  0  0  0  0
  160.8310  205.6820  154.2840 C   0  0  0  0  0  3  0  0  0  0  0  0
  161.1850  207.0990  154.4960 C   0  0  0  0  0  3  0  0  0  0  0  0
  161.7980  208.4070  148.5920 C   0  0  0  0  0  0  0  0  0  0  0  0
  161.8450  209.7680  148.8600 C   0  0  0  0  0  0  0  0  0  0  0  0
  161.6360  204.0910  148.0790 C   0  0  0  0  0  2  0  0  0  0  0  0
  161.6110  203.8210  150.5170 C   0  0  0  0  0  2  0  0  0  0  0  0
  161.9050  211.7230  150.0740 C   0  0  1  0  0  3  0  0  0  0  0  0
  161.0770  205.0790  153.1160 C   0  0  0  0  0  3  0  0  0  0  0  0
  161.4940  205.2750  150.6860 N   0  0  1  0  0  0  0  0  0  0  0  0
  161.8280  205.7900  152.0140 C   0  0  1  0  0  3  0  0  0  0  0  0
  161.7300  208.0640  151.0200 C   0  0  0  0  0  0  0  0  0  0  0  0
  161.9790  212.0660  148.6350 N   0  0  0  0  0  0  0  0  0  0  0  0
  160.9750  203.3480  149.2200 C   0  0  2  0  0  3  0  0  0  0  0  0
  161.9460  210.8330  147.9460 N   0  0  0  0  0  0  0  0  0  0  0  0
  161.5710  207.8660  153.4710 C   0  0  0  0  0  3  0  0  0  0  0  0
  161.6770  207.2870  152.1140 C   0  0  2  0  0  3  0  0  0  0  0  0
  161.7680  209.4240  151.1850 N   0  0  0  0  0  0  0  0  0  0  0  0
  161.2690  205.5620  148.1690 C   0  0  0  0  0  2  0  0  0  0  0  0
  161.8610  207.9890  147.2650 O   0  0  0  0  0  1  0  0  0  0  0  0
  160.6570  212.3380  150.6780 C   0  0  0  0  0  1  0  0  0  0  0  0
  161.7090  207.4990  149.6970 C   0  0  0  0  0  0  0  0  0  0  0  0
  161.8120  210.2430  150.1110 C   0  0  0  0  0  0  0  0  0  0  0  0
  159.9190  201.0100  149.1720 C   0  0  2  0  0  3  0  0  0  0  0  0
  161.1980  201.8480  149.0610 C   0  0  1  0  0  3  0  0  0  0  0  0
  160.4990  201.3520  147.8120 C   0  0  1  0  0  3  0  0  0  0  0  0
  161.2060  200.2080  147.2920 N   0  0  0  0  0  0  0  0  0  0  0  0
  161.0720  199.7890  146.0810 C   0  0  0  0  0  0  0  0  0  0  0  0
  160.1600  200.4600  145.1000 C   0  0  0  0  0  1  0  0  0  0  0  0
  161.8460  198.5970  145.6350 C   0  0  0  0  0  1  0  0  0  0  0  0
  158.7830  201.7920  149.4020 O   0  0  0  0  0  0  0  0  0  0  0  0
  157.7160  200.9840  149.0110 C   0  0  0  0  0  1  0  0  0  0  0  0
  1 19  1  1  0  0  0
  1 22  1  0  0  0  0
  1 10  1  0  0  0  0
  2  3  1  0  0  0  0
  4  5  2  0  0  0  0
  4 22  1  0  0  0  0
  5 23  1  0  0  0  0
  6 19  1  0  0  0  0
  8 23  1  0  0  0  0
  8 21  1  6  0  0  0
  9  2  2  0  0  0  0
 10  7  1  6  0  0  0
 10 11  1  0  0  0  0
 11 17  1  0  0  0  0
 11  9  1  1  0  0  0
 12 18  1  0  0  0  0
 12 17  1  0  0  0  0
 13  8  1  0  0  0  0
 14  6  1  6  0  0  0
 14  7  1  0  0  0  0
 15 13  2  0  0  0  0
 15  5  1  0  0  0  0
 16  3  2  0  0  0  0
 17 16  1  1  0  0  0
 20  4  1  0  0  0  0
 22 12  2  0  0  0  0
 23 18  2  0  0  0  0
 24 31  1  6  0  0  0
 25 24  1  0  0  0  0
 25 14  1  6  0  0  0
 26 27  1  1  0  0  0
 26 25  1  0  0  0  0
 26 24  1  0  0  0  0
 28 27  2  0  0  0  0
 29 28  1  0  0  0  0
 30 28  1  0  0  0  0
 32 31  1  0  0  0  0
M  END
>  <MODEL>
3

>  <REMARK>
 VINA RESULT:      -6.9      2.426      4.895
  Name = 
  3 active torsions:
  status: ('A' for Active; 'I' for Inactive)
    1  A    between atoms: C_1  and  O_16
    2  A    between atoms: C_10  and  C_17
    3  A    between atoms: C_20  and  N_29
                            x       y       z     vdW  Elec       q    Type
                         _______ _______ _______ _____ _____    ______ ____

>  <TORSDO>
F 3

$$$$
=
 OpenBabel11122412473D

 32 37  0  0  1  0  0  0  0  0999 V2000
  160.7450  209.0920  152.4970 C   0  0  1  0  0  3  0  0  0  0  0  0
  160.5220  206.2380  156.3880 C   0  0  0  0  0  3  0  0  0  0  0  0
  160.3260  207.4140  157.2600 C   0  0  0  0  0  3  0  0  0  0  0  0
  160.0610  211.4400  152.7150 C   0  0  0  0  0  0  0  0  0  0  0  0
  159.6060  212.4330  153.5710 C   0  0  0  0  0  0  0  0  0  0  0  0
  161.5090  208.1300  150.2950 C   0  0  0  0  0  2  0  0  0  0  0  0
  161.7280  206.7670  152.3240 C   0  0  0  0  0  2  0  0  0  0  0  0
  158.9940  213.4710  155.5330 C   0  0  1  0  0  3  0  0  0  0  0  0
  160.9090  206.3830  155.1170 C   0  0  0  0  0  3  0  0  0  0  0  0
  161.0810  207.8230  153.1130 N   0  0  1  0  0  0  0  0  0  0  0  0
  161.2720  207.7410  154.5620 C   0  0  1  0  0  3  0  0  0  0  0  0
  160.2660  210.0080  154.6960 C   0  0  0  0  0  0  0  0  0  0  0  0
  158.8510  214.4450  154.4270 N   0  0  0  0  0  0  0  0  0  0  0  0
  161.2440  206.7600  150.8830 C   0  0  2  0  0  3  0  0  0  0  0  0
  159.2450  213.7570  153.2580 N   0  0  0  0  0  0  0  0  0  0  0  0
  160.3350  208.6500  156.7510 C   0  0  0  0  0  3  0  0  0  0  0  0
  160.5740  208.8510  155.3050 C   0  0  2  0  0  3  0  0  0  0  0  0
  159.7980  211.0450  155.4600 N   0  0  0  0  0  0  0  0  0  0  0  0
  160.6200  209.1460  150.9910 C   0  0  0  0  0  2  0  0  0  0  0  0
  160.2000  211.7420  151.3630 O   0  0  0  0  0  1  0  0  0  0  0  0
  157.6430  213.2400  156.1820 C   0  0  0  0  0  1  0  0  0  0  0  0
  160.3840  210.1600  153.2700 C   0  0  0  0  0  0  0  0  0  0  0  0
  159.4680  212.2230  154.8860 C   0  0  0  0  0  0  0  0  0  0  0  0
  161.4780  204.2750  150.2880 C   0  0  2  0  0  3  0  0  0  0  0  0
  162.0080  205.7000  150.0950 C   0  0  1  0  0  3  0  0  0  0  0  0
  161.0980  205.0750  149.0560 C   0  0  1  0  0  3  0  0  0  0  0  0
  161.8890  204.6320  147.9350 N   0  0  0  0  0  0  0  0  0  0  0  0
  161.7780  205.1350  146.7540 C   0  0  0  0  0  0  0  0  0  0  0  0
  160.8070  206.2320  146.4410 C   0  0  0  0  0  1  0  0  0  0  0  0
  162.6400  204.6100  145.6580 C   0  0  0  0  0  1  0  0  0  0  0  0
  160.3870  204.2210  151.1600 O   0  0  0  0  0  0  0  0  0  0  0  0
  160.6890  203.1800  152.0370 C   0  0  0  0  0  1  0  0  0  0  0  0
  1 19  1  6  0  0  0
  1 10  1  0  0  0  0
  1 22  1  0  0  0  0
  2  3  1  0  0  0  0
  4 22  2  0  0  0  0
  4  5  1  0  0  0  0
  5 23  2  0  0  0  0
  6 19  1  0  0  0  0
  8 21  1  6  0  0  0
  9  2  2  0  0  0  0
 10  7  1  6  0  0  0
 10 11  1  0  0  0  0
 11  9  1  1  0  0  0
 11 17  1  0  0  0  0
 12 17  1  0  0  0  0
 12 18  2  0  0  0  0
 13  8  1  0  0  0  0
 14  6  1  6  0  0  0
 14  7  1  0  0  0  0
 15  5  1  0  0  0  0
 15 13  2  0  0  0  0
 16  3  2  0  0  0  0
 17 16  1  1  0  0  0
 20  4  1  0  0  0  0
 22 12  1  0  0  0  0
 23 18  1  0  0  0  0
 23  8  1  0  0  0  0
 24 31  1  1  0  0  0
 25 24  1  0  0  0  0
 25 14  1  1  0  0  0
 26 27  1  6  0  0  0
 26 25  1  0  0  0  0
 26 24  1  0  0  0  0
 28 27  2  0  0  0  0
 29 28  1  0  0  0  0
 30 28  1  0  0  0  0
 31 32  1  0  0  0  0
M  END
>  <MODEL>
4

>  <REMARK>
 VINA RESULT:      -6.7      2.783      5.077
  Name = 
  3 active torsions:
  status: ('A' for Active; 'I' for Inactive)
    1  A    between atoms: C_1  and  O_16
    2  A    between atoms: C_10  and  C_17
    3  A    between atoms: C_20  and  N_29
                            x       y       z     vdW  Elec       q    Type
                         _______ _______ _______ _____ _____    ______ ____

>  <TORSDO>
F 3

$$$$
=
 OpenBabel11122412473D

 32 37  0  0  1  0  0  0  0  0999 V2000
  161.0530  206.7750  150.4090 C   0  0  1  0  0  3  0  0  0  0  0  0
  161.3310  202.3760  152.3860 C   0  0  0  0  0  3  0  0  0  0  0  0
  161.1770  201.7500  151.0570 C   0  0  0  0  0  3  0  0  0  0  0  0
  161.2260  206.9850  147.9690 C   0  0  0  0  0  0  0  0  0  0  0  0
  161.3620  206.3150  146.7620 C   0  0  0  0  0  0  0  0  0  0  0  0
  160.7850  208.7900  151.9010 C   0  0  0  0  0  2  0  0  0  0  0  0
  160.5790  206.5520  152.8850 C   0  0  0  0  0  2  0  0  0  0  0  0
  161.4990  204.5630  145.2750 C   0  0  1  0  0  3  0  0  0  0  0  0
  161.0900  203.6790  152.5640 C   0  0  0  0  0  3  0  0  0  0  0  0
  160.8970  205.9430  151.5870 N   0  0  1  0  0  0  0  0  0  0  0  0
  160.5410  204.5310  151.4430 C   0  0  1  0  0  3  0  0  0  0  0  0
  161.0540  204.7770  149.0260 C   0  0  0  0  0  0  0  0  0  0  0  0
  161.5890  205.8290  144.5110 N   0  0  0  0  0  0  0  0  0  0  0  0
  161.2370  207.9130  153.0490 C   0  0  2  0  0  3  0  0  0  0  0  0
  161.4920  206.8610  145.4710 N   0  0  0  0  0  0  0  0  0  0  0  0
  160.9900  202.5010  149.9670 C   0  0  0  0  0  3  0  0  0  0  0  0
  160.9050  203.9740  150.0910 C   0  0  2  0  0  3  0  0  0  0  0  0
  161.2060  204.2050  147.7900 N   0  0  0  0  0  0  0  0  0  0  0  0
  161.3580  208.2430  150.6060 C   0  0  0  0  0  2  0  0  0  0  0  0
  161.2060  208.3780  147.9570 O   0  0  0  0  0  1  0  0  0  0  0  0
  162.7740  203.7640  145.0820 C   0  0  0  0  0  1  0  0  0  0  0  0
  161.0930  206.2090  149.1660 C   0  0  0  0  0  0  0  0  0  0  0  0
  161.3680  204.9780  146.6930 C   0  0  0  0  0  0  0  0  0  0  0  0
  161.6830  209.7000  154.8350 C   0  0  2  0  0  3  0  0  0  0  0  0
  160.8060  208.5300  154.3750 C   0  0  1  0  0  3  0  0  0  0  0  0
  160.3520  209.9590  154.1560 C   0  0  1  0  0  3  0  0  0  0  0  0
  159.3660  210.3040  155.1500 N   0  0  0  0  0  0  0  0  0  0  0  0
  158.3940  211.1190  154.9240 C   0  0  0  0  0  0  0  0  0  0  0  0
  158.2040  211.7860  153.5960 C   0  0  0  0  0  1  0  0  0  0  0  0
  157.4250  211.4140  156.0160 C   0  0  0  0  0  1  0  0  0  0  0  0
  162.7220  209.9760  153.9410 O   0  0  0  0  0  0  0  0  0  0  0  0
  163.6460  210.7030  154.6900 C   0  0  0  0  0  1  0  0  0  0  0  0
  1 19  1  1  0  0  0
  1 10  1  0  0  0  0
  2  9  2  0  0  0  0
  3  2  1  0  0  0  0
  4 22  1  0  0  0  0
  5  4  2  0  0  0  0
  7 14  1  0  0  0  0
  8 21  1  1  0  0  0
  8 23  1  0  0  0  0
 10  7  1  1  0  0  0
 11 10  1  0  0  0  0
 11  9  1  1  0  0  0
 12 22  2  0  0  0  0
 12 17  1  0  0  0  0
 13  8  1  0  0  0  0
 13 15  2  0  0  0  0
 14  6  1  6  0  0  0
 15  5  1  0  0  0  0
 16  3  2  0  0  0  0
 17 16  1  6  0  0  0
 17 11  1  0  0  0  0
 18 12  1  0  0  0  0
 19  6  1  0  0  0  0
 20  4  1  0  0  0  0
 22  1  1  0  0  0  0
 23  5  1  0  0  0  0
 23 18  2  0  0  0  0
 24 31  1  6  0  0  0
 25 14  1  6  0  0  0
 25 24  1  0  0  0  0
 26 25  1  0  0  0  0
 26 24  1  0  0  0  0
 26 27  1  1  0  0  0
 28 27  2  0  0  0  0
 28 30  1  0  0  0  0
 29 28  1  0  0  0  0
 31 32  1  0  0  0  0
M  END
>  <MODEL>
5

>  <REMARK>
 VINA RESULT:      -6.5      2.407      8.777
  Name = 
  3 active torsions:
  status: ('A' for Active; 'I' for Inactive)
    1  A    between atoms: C_1  and  O_16
    2  A    between atoms: C_10  and  C_17
    3  A    between atoms: C_20  and  N_29
                            x       y       z     vdW  Elec       q    Type
                         _______ _______ _______ _____ _____    ______ ____

>  <TORSDO>
F 3

$$$$
=
 OpenBabel11122412473D

 32 37  0  0  1  0  0  0  0  0999 V2000
  161.2860  206.2170  151.4010 C   0  0  1  0  0  3  0  0  0  0  0  0
  161.4110  208.2280  147.0100 C   0  0  0  0  0  3  0  0  0  0  0  0
  161.5470  206.8970  146.3860 C   0  0  0  0  0  3  0  0  0  0  0  0
  160.9830  203.7880  151.5780 C   0  0  0  0  0  0  0  0  0  0  0  0
  160.8370  202.5910  150.8900 C   0  0  0  0  0  0  0  0  0  0  0  0
  161.4820  207.6840  153.4430 C   0  0  0  0  0  2  0  0  0  0  0  0
  161.8900  208.6690  151.2330 C   0  0  0  0  0  2  0  0  0  0  0  0
  160.7540  201.1220  149.1190 C   0  0  1  0  0  3  0  0  0  0  0  0
  161.5680  208.3880  148.3290 C   0  0  0  0  0  3  0  0  0  0  0  0
  161.5550  207.3910  150.5920 N   0  0  1  0  0  0  0  0  0  0  0  0
  162.0020  207.2370  149.2070 C   0  0  1  0  0  3  0  0  0  0  0  0
  161.3600  204.8460  149.3970 C   0  0  0  0  0  0  0  0  0  0  0  0
  160.5390  200.3570  150.3690 N   0  0  0  0  0  0  0  0  0  0  0  0
  161.1480  208.8570  152.5460 C   0  0  2  0  0  3  0  0  0  0  0  0
  160.6090  201.3060  151.4140 N   0  0  0  0  0  0  0  0  0  0  0  0
  161.6280  205.7950  147.1390 C   0  0  0  0  0  3  0  0  0  0  0  0
  161.6150  205.9070  148.6150 C   0  0  2  0  0  3  0  0  0  0  0  0
  161.1900  203.6220  148.8050 N   0  0  0  0  0  0  0  0  0  0  0  0
  160.8880  206.4210  152.8460 C   0  0  0  0  0  2  0  0  0  0  0  0
  160.9050  203.7670  152.9680 O   0  0  0  0  0  1  0  0  0  0  0  0
  159.5310  200.9940  148.2310 C   0  0  0  0  0  1  0  0  0  0  0  0
  161.2270  204.9810  150.8240 C   0  0  0  0  0  0  0  0  0  0  0  0
  160.9230  202.5300  149.5550 C   0  0  0  0  0  0  0  0  0  0  0  0
  160.4720  211.1820  153.3960 C   0  0  2  0  0  3  0  0  0  0  0  0
  161.5960  210.1580  153.2030 C   0  0  1  0  0  3  0  0  0  0  0  0
  160.9250  210.3120  154.5530 C   0  0  1  0  0  3  0  0  0  0  0  0
  161.7790  211.0820  155.4240 N   0  0  0  0  0  0  0  0  0  0  0  0
  162.4180  210.5670  156.4170 C   0  0  0  0  0  0  0  0  0  0  0  0
  162.3280  209.1110  156.7560 C   0  0  0  0  0  1  0  0  0  0  0  0
  163.2760  211.4440  157.2610 C   0  0  0  0  0  1  0  0  0  0  0  0
  159.2390  210.7200  152.9250 O   0  0  0  0  0  0  0  0  0  0  0  0
  158.2930  211.3860  153.7040 C   0  0  0  0  0  1  0  0  0  0  0  0
  1 19  1  6  0  0  0
  2  9  2  0  0  0  0
  3  2  1  0  0  0  0
  3 16  2  0  0  0  0
  4 20  1  0  0  0  0
  5 15  1  0  0  0  0
  5  4  1  0  0  0  0
  8 21  1  6  0  0  0
  8 23  1  0  0  0  0
  8 13  1  0  0  0  0
 10  7  1  1  0  0  0
 10  1  1  0  0  0  0
 11  9  1  6  0  0  0
 11 10  1  0  0  0  0
 12 22  1  0  0  0  0
 13 15  2  0  0  0  0
 14  7  1  6  0  0  0
 14  6  1  0  0  0  0
 17 16  1  6  0  0  0
 17 11  1  0  0  0  0
 17 12  1  0  0  0  0
 18 12  2  0  0  0  0
 18 23  1  0  0  0  0
 19  6  1  0  0  0  0
 22  1  1  0  0  0  0
 22  4  2  0  0  0  0
 23  5  2  0  0  0  0
 24 31  1  6  0  0  0
 24 26  1  0  0  0  0
 25 14  1  6  0  0  0
 25 24  1  0  0  0  0
 25 26  1  0  0  0  0
 26 27  1  1  0  0  0
 27 28  2  0  0  0  0
 28 29  1  0  0  0  0
 28 30  1  0  0  0  0
 31 32  1  0  0  0  0
M  END
>  <MODEL>
6

>  <REMARK>
 VINA RESULT:      -6.2      2.144      7.940
  Name = 
  3 active torsions:
  status: ('A' for Active; 'I' for Inactive)
    1  A    between atoms: C_1  and  O_16
    2  A    between atoms: C_10  and  C_17
    3  A    between atoms: C_20  and  N_29
                            x       y       z     vdW  Elec       q    Type
                         _______ _______ _______ _____ _____    ______ ____

>  <TORSDO>
F 3

$$$$
=
 OpenBabel11122412473D

 32 37  0  0  1  0  0  0  0  0999 V2000
  161.0690  208.3350  151.8340 C   0  0  1  0  0  3  0  0  0  0  0  0
  161.2580  212.5520  149.4850 C   0  0  0  0  0  3  0  0  0  0  0  0
  161.7920  211.8790  148.2840 C   0  0  0  0  0  3  0  0  0  0  0  0
  161.3480  206.2580  150.5550 C   0  0  0  0  0  0  0  0  0  0  0  0
  161.5870  205.6960  149.3090 C   0  0  0  0  0  0  0  0  0  0  0  0
  160.6410  208.3180  154.3190 C   0  0  0  0  0  2  0  0  0  0  0  0
  161.0750  210.4610  153.2070 C   0  0  0  0  0  2  0  0  0  0  0  0
  162.0900  205.5640  147.0660 C   0  0  1  0  0  3  0  0  0  0  0  0
  161.2030  211.9180  150.6610 C   0  0  0  0  0  3  0  0  0  0  0  0
  161.1450  209.7820  151.9070 N   0  0  1  0  0  0  0  0  0  0  0  0
  161.7890  210.5350  150.8300 C   0  0  1  0  0  3  0  0  0  0  0  0
  161.7300  208.4400  149.4980 C   0  0  0  0  0  0  0  0  0  0  0  0
  161.9110  204.1880  147.5840 N   0  0  0  0  0  0  0  0  0  0  0  0
  160.1480  209.7420  154.1730 C   0  0  2  0  0  3  0  0  0  0  0  0
  161.6130  204.3330  148.9580 N   0  0  0  0  0  0  0  0  0  0  0  0
  162.0430  210.5660  148.2930 C   0  0  0  0  0  3  0  0  0  0  0  0
  161.8160  209.7790  149.5260 C   0  0  2  0  0  3  0  0  0  0  0  0
  161.9400  207.7950  148.3080 N   0  0  0  0  0  0  0  0  0  0  0  0
  160.4530  207.5920  152.9990 C   0  0  0  0  0  2  0  0  0  0  0  0
  161.1010  205.4090  151.6300 O   0  0  0  0  0  1  0  0  0  0  0  0
  161.0570  205.8380  145.9890 C   0  0  0  0  0  1  0  0  0  0  0  0
  161.3870  207.6850  150.6750 C   0  0  0  0  0  0  0  0  0  0  0  0
  161.8530  206.4480  148.2340 C   0  0  0  0  0  0  0  0  0  0  0  0
  161.5880  210.7960  156.0160 C   0  0  2  0  0  3  0  0  0  0  0  0
  160.1790  210.4440  155.5270 C   0  0  1  0  0  3  0  0  0  0  0  0
  160.7150  211.8520  155.3650 C   0  0  1  0  0  3  0  0  0  0  0  0
  160.1460  212.6980  156.3850 N   0  0  0  0  0  0  0  0  0  0  0  0
  159.2450  213.5860  156.1400 C   0  0  0  0  0  0  0  0  0  0  0  0
  158.7070  213.8190  154.7610 C   0  0  0  0  0  1  0  0  0  0  0  0
  158.7180  214.4130  157.2610 C   0  0  0  0  0  1  0  0  0  0  0  0
  162.5840  210.4000  155.1180 O   0  0  0  0  0  0  0  0  0  0  0  0
  163.7660  210.9050  155.6580 C   0  0  0  0  0  1  0  0  0  0  0  0
  1 10  1  0  0  0  0
  1 19  1  6  0  0  0
  2  9  2  0  0  0  0
  3 16  2  0  0  0  0
  3  2  1  0  0  0  0
  4 22  1  0  0  0  0
  4 20  1  0  0  0  0
  5  4  2  0  0  0  0
  8 21  1  6  0  0  0
  8 13  1  0  0  0  0
  8 23  1  0  0  0  0
 10  7  1  1  0  0  0
 11  9  1  6  0  0  0
 11 10  1  0  0  0  0
 12 17  1  0  0  0  0
 12 22  2  0  0  0  0
 13 15  2  0  0  0  0
 14  7  1  6  0  0  0
 14  6  1  0  0  0  0
 15  5  1  0  0  0  0
 17 16  1  1  0  0  0
 17 11  1  0  0  0  0
 18 12  1  0  0  0  0
 19  6  1  0  0  0  0
 22  1  1  0  0  0  0
 23 18  2  0  0  0  0
 23  5  1  0  0  0  0
 24 31  1  6  0  0  0
 25 14  1  6  0  0  0
 25 24  1  0  0  0  0
 26 25  1  0  0  0  0
 26 24  1  0  0  0  0
 26 27  1  1  0  0  0
 28 27  2  0  0  0  0
 28 30  1  0  0  0  0
 29 28  1  0  0  0  0
 31 32  1  0  0  0  0
M  END
>  <MODEL>
7

>  <REMARK>
 VINA RESULT:      -5.7      2.504      8.460
  Name = 
  3 active torsions:
  status: ('A' for Active; 'I' for Inactive)
    1  A    between atoms: C_1  and  O_16
    2  A    between atoms: C_10  and  C_17
    3  A    between atoms: C_20  and  N_29
                            x       y       z     vdW  Elec       q    Type
                         _______ _______ _______ _____ _____    ______ ____

>  <TORSDO>
F 3

$$$$
=
 OpenBabel11122412473D

 32 37  0  0  1  0  0  0  0  0999 V2000
  161.6220  206.9950  149.5820 C   0  0  1  0  0  3  0  0  0  0  0  0
  160.8340  206.5840  154.3310 C   0  0  0  0  0  3  0  0  0  0  0  0
  161.0760  208.0290  154.5130 C   0  0  0  0  0  3  0  0  0  0  0  0
  161.7100  209.2400  148.5900 C   0  0  0  0  0  0  0  0  0  0  0  0
  161.6480  210.6060  148.8250 C   0  0  0  0  0  0  0  0  0  0  0  0
  161.8830  204.9130  148.1830 C   0  0  0  0  0  2  0  0  0  0  0  0
  161.8280  204.7000  150.6270 C   0  0  0  0  0  2  0  0  0  0  0  0
  161.5360  212.5880  149.9910 C   0  0  1  0  0  3  0  0  0  0  0  0
  161.1480  205.9750  153.1830 C   0  0  0  0  0  3  0  0  0  0  0  0
  161.5990  206.1440  150.7570 N   0  0  1  0  0  0  0  0  0  0  0  0
  161.8660  206.7150  152.0780 C   0  0  1  0  0  3  0  0  0  0  0  0
  161.6170  208.9500  151.0250 C   0  0  0  0  0  0  0  0  0  0  0  0
  161.6140  212.9020  148.5450 N   0  0  0  0  0  0  0  0  0  0  0  0
  161.2570  204.1490  149.3310 C   0  0  2  0  0  3  0  0  0  0  0  0
  161.6870  211.6540  147.8870 N   0  0  0  0  0  0  0  0  0  0  0  0
  161.4240  208.7990  153.4770 C   0  0  0  0  0  3  0  0  0  0  0  0
  161.6010  208.1970  152.1370 C   0  0  2  0  0  3  0  0  0  0  0  0
  161.5490  210.3120  151.1570 N   0  0  0  0  0  0  0  0  0  0  0  0
  161.4040  206.3540  148.2300 C   0  0  0  0  0  2  0  0  0  0  0  0
  161.8300  208.7960  147.2760 O   0  0  0  0  0  1  0  0  0  0  0  0
  160.2330  213.1220  150.5550 C   0  0  0  0  0  1  0  0  0  0  0  0
  161.6660  208.3540  149.7160 C   0  0  0  0  0  0  0  0  0  0  0  0
  161.5540  211.1070  150.0630 C   0  0  0  0  0  0  0  0  0  0  0  0
  160.7920  201.7650  150.1580 C   0  0  2  0  0  3  0  0  0  0  0  0
  161.5950  202.6670  149.2130 C   0  0  1  0  0  3  0  0  0  0  0  0
  160.3920  201.9020  148.7020 C   0  0  1  0  0  3  0  0  0  0  0  0
  160.8400  200.7420  147.9710 N   0  0  0  0  0  0  0  0  0  0  0  0
  160.8780  200.6930  146.6850 C   0  0  0  0  0  0  0  0  0  0  0  0
  160.4560  201.8470  145.8280 C   0  0  0  0  0  1  0  0  0  0  0  0
  161.3570  199.4490  146.0200 C   0  0  0  0  0  1  0  0  0  0  0  0
  159.8970  202.4850  150.9550 O   0  0  0  0  0  0  0  0  0  0  0  0
  160.4560  202.4500  152.2320 C   0  0  0  0  0  1  0  0  0  0  0  0
  1 19  1  1  0  0  0
  1 22  1  0  0  0  0
  1 10  1  0  0  0  0
  2  3  1  0  0  0  0
  4  5  2  0  0  0  0
  4 22  1  0  0  0  0
  5 23  1  0  0  0  0
  6 19  1  0  0  0  0
  8 23  1  0  0  0  0
  8 21  1  6  0  0  0
  9  2  2  0  0  0  0
 10  7  1  6  0  0  0
 10 11  1  0  0  0  0
 11 17  1  0  0  0  0
 11  9  1  1  0  0  0
 12 18  1  0  0  0  0
 12 17  1  0  0  0  0
 13  8  1  0  0  0  0
 14  6  1  6  0  0  0
 14  7  1  0  0  0  0
 15 13  2  0  0  0  0
 15  5  1  0  0  0  0
 16  3  2  0  0  0  0
 17 16  1  1  0  0  0
 20  4  1  0  0  0  0
 22 12  2  0  0  0  0
 23 18  2  0  0  0  0
 24 31  1  1  0  0  0
 25 14  1  1  0  0  0
 25 24  1  0  0  0  0
 26 27  1  6  0  0  0
 26 25  1  0  0  0  0
 26 24  1  0  0  0  0
 28 27  2  0  0  0  0
 29 28  1  0  0  0  0
 30 28  1  0  0  0  0
 31 32  1  0  0  0  0
M  END
>  <MODEL>
8

>  <REMARK>
 VINA RESULT:      -5.6      2.274      4.864
  Name = 
  3 active torsions:
  status: ('A' for Active; 'I' for Inactive)
    1  A    between atoms: C_1  and  O_16
    2  A    between atoms: C_10  and  C_17
    3  A    between atoms: C_20  and  N_29
                            x       y       z     vdW  Elec       q    Type
                         _______ _______ _______ _____ _____    ______ ____

>  <TORSDO>
F 3

$$$$
=
 OpenBabel11122412473D

 32 37  0  0  1  0  0  0  0  0999 V2000
  161.2550  205.8570  151.8320 C   0  0  1  0  0  3  0  0  0  0  0  0
  161.8320  209.2430  148.4350 C   0  0  0  0  0  3  0  0  0  0  0  0
  162.1000  208.2040  147.4210 C   0  0  0  0  0  3  0  0  0  0  0  0
  161.0380  203.5120  151.1360 C   0  0  0  0  0  0  0  0  0  0  0  0
  161.0300  202.6230  150.0710 C   0  0  0  0  0  0  0  0  0  0  0  0
  161.1370  206.5400  154.2570 C   0  0  0  0  0  2  0  0  0  0  0  0
  161.7700  208.2180  152.5830 C   0  0  0  0  0  2  0  0  0  0  0  0
  161.2280  201.8450  147.9140 C   0  0  1  0  0  3  0  0  0  0  0  0
  161.8190  208.9440  149.7380 C   0  0  0  0  0  3  0  0  0  0  0  0
  161.5710  207.2360  151.5100 N   0  0  1  0  0  0  0  0  0  0  0  0
  162.1910  207.5620  150.2250 C   0  0  1  0  0  3  0  0  0  0  0  0
  161.6340  205.2510  149.5100 C   0  0  0  0  0  0  0  0  0  0  0  0
  160.8940  200.7000  148.7920 N   0  0  0  0  0  0  0  0  0  0  0  0
  160.8650  207.9490  153.7730 C   0  0  2  0  0  3  0  0  0  0  0  0
  160.7940  201.2360  150.0960 N   0  0  0  0  0  0  0  0  0  0  0  0
  162.1360  206.9120  147.7610 C   0  0  0  0  0  3  0  0  0  0  0  0
  161.9370  206.5140  149.1720 C   0  0  2  0  0  3  0  0  0  0  0  0
  161.5910  204.3010  148.5220 N   0  0  0  0  0  0  0  0  0  0  0  0
  160.6750  205.5560  153.1960 C   0  0  0  0  0  2  0  0  0  0  0  0
  160.7910  203.0200  152.4150 O   0  0  0  0  0  1  0  0  0  0  0  0
  160.1290  202.0290  146.8840 C   0  0  0  0  0  1  0  0  0  0  0  0
  161.3210  204.8910  150.8680 C   0  0  0  0  0  0  0  0  0  0  0  0
  161.2810  203.0190  148.8170 C   0  0  0  0  0  0  0  0  0  0  0  0
  160.3160  208.7680  156.1420 C   0  0  2  0  0  3  0  0  0  0  0  0
  161.1730  208.9480  154.8840 C   0  0  1  0  0  3  0  0  0  0  0  0
  161.7290  208.2200  156.0910 C   0  0  1  0  0  3  0  0  0  0  0  0
  162.6110  209.1030  156.8150 N   0  0  0  0  0  0  0  0  0  0  0  0
  162.8520  210.3130  156.4450 C   0  0  0  0  0  0  0  0  0  0  0  0
  162.2330  210.9130  155.2200 C   0  0  0  0  0  1  0  0  0  0  0  0
  163.7780  211.1490  157.2590 C   0  0  0  0  0  1  0  0  0  0  0  0
  159.4050  207.7130  156.0250 O   0  0  0  0  0  0  0  0  0  0  0  0
  159.5820  206.9660  157.1890 C   0  0  0  0  0  1  0  0  0  0  0  0
  1 19  1  6  0  0  0
  2  9  2  0  0  0  0
  3 16  2  0  0  0  0
  3  2  1  0  0  0  0
  4 20  1  0  0  0  0
  5 15  1  0  0  0  0
  5  4  2  0  0  0  0
  8 21  1  6  0  0  0
  8 13  1  0  0  0  0
  8 23  1  0  0  0  0
 10  1  1  0  0  0  0
 10  7  1  1  0  0  0
 11  9  1  6  0  0  0
 11 10  1  0  0  0  0
 12 22  2  0  0  0  0
 13 15  2  0  0  0  0
 14  7  1  6  0  0  0
 14  6  1  0  0  0  0
 17 16  1  6  0  0  0
 17 12  1  0  0  0  0
 17 11  1  0  0  0  0
 18 23  2  0  0  0  0
 18 12  1  0  0  0  0
 19  6  1  0  0  0  0
 22  4  1  0  0  0  0
 22  1  1  0  0  0  0
 23  5  1  0  0  0  0
 24 31  1  6  0  0  0
 25 14  1  6  0  0  0
 25 26  1  0  0  0  0
 25 24  1  0  0  0  0
 26 24  1  0  0  0  0
 26 27  1  1  0  0  0
 28 27  2  0  0  0  0
 28 30  1  0  0  0  0
 29 28  1  0  0  0  0
 31 32  1  0  0  0  0
M  END
>  <MODEL>
9

>  <REMARK>
 VINA RESULT:      -5.6      1.960      8.117
  Name = 
  3 active torsions:
  status: ('A' for Active; 'I' for Inactive)
    1  A    between atoms: C_1  and  O_16
    2  A    between atoms: C_10  and  C_17
    3  A    between atoms: C_20  and  N_29
                            x       y       z     vdW  Elec       q    Type
                         _______ _______ _______ _____ _____    ______ ____

>  <TORSDO>
F 3

$$$$
