=
 OpenBabel11122412523D

 32 37  0  0  1  0  0  0  0  0999 V2000
  160.1920  204.9870  149.0140 C   0  0  0  0  0  2  0  0  0  0  0  0
  161.0340  208.4690  152.3390 N   0  0  0  0  0  0  0  0  0  0  0  0
  160.5300  206.5520  156.8700 C   0  0  0  0  0  3  0  0  0  0  0  0
  160.0940  207.7500  157.2610 C   0  0  0  0  0  3  0  0  0  0  0  0
  160.6290  210.9570  151.9200 C   0  0  1  0  0  3  0  0  0  0  0  0
  159.7180  212.0870  152.3950 C   0  0  1  0  0  3  0  0  0  0  0  0
  161.9520  207.0260  150.5500 C   0  0  1  0  0  3  0  0  0  0  0  0
  161.7020  206.0360  152.6810 C   0  0  0  0  0  2  0  0  0  0  0  0
  158.5500  213.0740  154.2360 C   0  0  2  0  0  3  0  0  0  0  0  0
  161.9780  204.6310  150.8240 C   0  0  0  0  0  2  0  0  0  0  0  0
  161.0340  206.2830  155.4780 C   0  0  0  0  0  3  0  0  0  0  0  0
  161.1470  207.3290  153.2240 C   0  0  0  0  0  0  0  0  0  0  0  0
  160.8580  207.4490  154.5310 C   0  0  0  0  0  0  0  0  0  0  0  0
  160.3340  209.9210  154.1440 C   0  0  0  0  0  0  0  0  0  0  0  0
  157.5200  212.6380  153.1980 C   0  0  0  0  0  2  0  0  0  0  0  0
  160.7130  206.2960  148.4000 C   0  0  0  0  0  2  0  0  0  0  0  0
  161.3690  205.8840  151.2710 N   0  0  2  0  0  0  0  0  0  0  0  0
  158.2530  211.8050  152.1590 C   0  0  0  0  0  2  0  0  0  0  0  0
  162.0070  206.8300  149.0250 C   0  0  0  0  0  2  0  0  0  0  0  0
  161.3010  204.0720  149.5600 C   0  0  1  0  0  3  0  0  0  0  0  0
  160.0510  208.8900  156.3320 C   0  0  0  0  0  3  0  0  0  0  0  0
  160.4040  208.7610  155.0500 C   0  0  1  0  0  3  0  0  0  0  0  0
  159.9190  211.1620  154.6500 O   0  0  0  0  0  0  0  0  0  0  0  0
  161.1630  208.2870  150.8880 C   0  0  0  0  0  2  0  0  0  0  0  0
  161.9300  211.4380  151.7690 O   0  0  0  0  0  1  0  0  0  0  0  0
  158.7350  214.4530  154.1510 O   0  0  0  0  0  1  0  0  0  0  0  0
  160.6370  209.7650  152.8430 C   0  0  0  0  0  0  0  0  0  0  0  0
  159.8460  212.3670  153.8840 C   0  0  1  0  0  3  0  0  0  0  0  0
  160.7370  202.6960  149.8700 C   0  0  0  0  0  2  0  0  0  0  0  0
  160.9620  201.7610  148.7310 C   0  0  0  0  0  0  0  0  0  0  0  0
  160.8320  202.2130  147.4250 O   0  0  0  0  0  0  0  0  0  0  0  0
  161.2990  200.5690  148.9520 O   0  0  0  0  0  1  0  0  0  0  0  0
  1 20  1  0  0  0  0
  2 27  1  0  0  0  0
  2 12  1  0  0  0  0
  3  4  1  0  0  0  0
  5 25  1  1  0  0  0
  5  6  1  0  0  0  0
  5 27  1  0  0  0  0
  6 18  1  1  0  0  0
  6 28  1  0  0  0  0
  7 19  1  6  0  0  0
  7 24  1  0  0  0  0
  7 17  1  0  0  0  0
  8 12  1  0  0  0  0
  9 26  1  6  0  0  0
 11  3  2  0  0  0  0
 12 13  2  0  0  0  0
 13 22  1  0  0  0  0
 13 11  1  0  0  0  0
 14 23  1  0  0  0  0
 14 22  1  0  0  0  0
 15  9  1  0  0  0  0
 16  1  1  0  0  0  0
 16 19  1  0  0  0  0
 17 10  1  6  0  0  0
 17  8  1  0  0  0  0
 18 15  1  0  0  0  0
 20 29  1  1  0  0  0
 20 10  1  0  0  0  0
 21  4  2  0  0  0  0
 22 21  1  6  0  0  0
 24  2  1  0  0  0  0
 27 14  2  0  0  0  0
 28  9  1  0  0  0  0
 28 23  1  1  0  0  0
 30 32  1  0  0  0  0
 30 29  1  0  0  0  0
 31 30  2  0  0  0  0
M  END
>  <MODEL>
1

>  <REMARK>
 VINA RESULT:      -6.6      0.000      0.000
  Name = 
  2 active torsions:
  status: ('A' for Active; 'I' for Inactive)
    1  A    between atoms: C_20  and  C_29
    2  A    between atoms: C_29  and  C_30
                            x       y       z     vdW  Elec       q    Type
                         _______ _______ _______ _____ _____    ______ ____

>  <TORSDO>
F 2

$$$$
=
 OpenBabel11122412523D

 32 37  0  0  1  0  0  0  0  0999 V2000
  159.5980  212.9890  147.9550 C   0  0  0  0  0  2  0  0  0  0  0  0
  161.6050  209.7310  150.9960 N   0  0  0  0  0  0  0  0  0  0  0  0
  161.1950  205.2070  149.0400 C   0  0  0  0  0  3  0  0  0  0  0  0
  161.0970  204.7440  150.2870 C   0  0  0  0  0  3  0  0  0  0  0  0
  161.7440  210.0520  153.5270 C   0  0  1  0  0  3  0  0  0  0  0  0
  161.1830  209.4480  154.8120 C   0  0  1  0  0  3  0  0  0  0  0  0
  161.9490  211.6440  149.4650 C   0  0  1  0  0  3  0  0  0  0  0  0
  161.7230  209.5160  148.4620 C   0  0  0  0  0  2  0  0  0  0  0  0
  160.4970  207.4620  155.9550 C   0  0  2  0  0  3  0  0  0  0  0  0
  161.4490  211.4180  147.1180 C   0  0  0  0  0  2  0  0  0  0  0  0
  161.4580  206.6550  148.7260 C   0  0  0  0  0  2  0  0  0  0  0  0
  161.5510  208.8860  149.8210 C   0  0  0  0  0  0  0  0  0  0  0  0
  161.4500  207.5520  149.9440 C   0  0  0  0  0  0  0  0  0  0  0  0
  161.4760  207.8280  152.4860 C   0  0  0  0  0  0  0  0  0  0  0  0
  159.2810  208.3720  155.8150 C   0  0  0  0  0  2  0  0  0  0  0  0
  160.3340  213.6380  149.1370 C   0  0  0  0  0  2  0  0  0  0  0  0
  161.2030  210.8780  148.4550 N   0  0  2  0  0  0  0  0  0  0  0  0
  159.6740  209.5080  154.8840 C   0  0  0  0  0  2  0  0  0  0  0  0
  161.7810  213.1680  149.3310 C   0  0  0  0  0  2  0  0  0  0  0  0
  160.5180  212.5990  146.7870 C   0  0  1  0  0  3  0  0  0  0  0  0
  161.2150  205.6400  151.4480 C   0  0  0  0  0  3  0  0  0  0  0  0
  161.3770  206.9580  151.3000 C   0  0  0  0  0  0  0  0  0  0  0  0
  161.4210  207.2530  153.7640 O   0  0  0  0  0  0  0  0  0  0  0  0
  161.5200  211.1900  150.8560 C   0  0  0  0  0  2  0  0  0  0  0  0
  163.0950  210.3540  153.7040 O   0  0  0  0  0  1  0  0  0  0  0  0
  160.9870  207.5440  157.2580 O   0  0  0  0  0  1  0  0  0  0  0  0
  161.5810  209.1590  152.3240 C   0  0  0  0  0  0  0  0  0  0  0  0
  161.5430  207.9820  154.9880 C   0  0  1  0  0  3  0  0  0  0  0  0
  159.6900  212.2470  145.5630 C   0  0  0  0  0  2  0  0  0  0  0  0
  160.4460  212.5320  144.3110 C   0  0  0  0  0  0  0  0  0  0  0  0
  161.3610  213.5750  144.2730 O   0  0  0  0  0  1  0  0  0  0  0  0
  160.2770  211.8090  143.2950 O   0  0  0  0  0  0  0  0  0  0  0  0
  1 16  1  0  0  0  0
  2 27  1  0  0  0  0
  3  4  2  0  0  0  0
  4 21  1  0  0  0  0
  5 25  1  1  0  0  0
  5  6  1  0  0  0  0
  6 18  1  6  0  0  0
  6 28  1  0  0  0  0
  7 19  1  1  0  0  0
  7 24  1  0  0  0  0
  8 12  1  0  0  0  0
  9 26  1  1  0  0  0
 11  3  1  0  0  0  0
 11 13  1  0  0  0  0
 12 13  2  0  0  0  0
 12  2  1  0  0  0  0
 13 22  1  0  0  0  0
 14 23  1  0  0  0  0
 15  9  1  0  0  0  0
 16 19  1  0  0  0  0
 17 10  1  6  0  0  0
 17  8  1  0  0  0  0
 17  7  1  0  0  0  0
 18 15  1  0  0  0  0
 20 29  1  6  0  0  0
 20 10  1  0  0  0  0
 20  1  1  0  0  0  0
 22 21  2  0  0  0  0
 22 14  1  0  0  0  0
 24  2  1  0  0  0  0
 27 14  2  0  0  0  0
 27  5  1  0  0  0  0
 28 23  1  6  0  0  0
 28  9  1  0  0  0  0
 30 29  1  0  0  0  0
 31 30  1  0  0  0  0
 32 30  2  0  0  0  0
M  END
>  <MODEL>
2

>  <REMARK>
 VINA RESULT:      -5.9      3.710      6.669
  Name = 
  2 active torsions:
  status: ('A' for Active; 'I' for Inactive)
    1  A    between atoms: C_20  and  C_29
    2  A    between atoms: C_29  and  C_30
                            x       y       z     vdW  Elec       q    Type
                         _______ _______ _______ _____ _____    ______ ____

>  <TORSDO>
F 2

$$$$
=
 OpenBabel11122412523D

 32 37  0  0  1  0  0  0  0  0999 V2000
  158.4390  209.4240  155.7310 C   0  0  0  0  0  2  0  0  0  0  0  0
  161.4350  209.1500  151.8790 N   0  0  0  0  0  0  0  0  0  0  0  0
  161.0670  213.3110  149.2290 C   0  0  0  0  0  3  0  0  0  0  0  0
  161.3130  212.5700  148.1480 C   0  0  0  0  0  3  0  0  0  0  0  0
  162.1250  206.9530  150.7720 C   0  0  1  0  0  3  0  0  0  0  0  0
  161.9450  206.2050  149.4530 C   0  0  1  0  0  3  0  0  0  0  0  0
  161.2060  209.3020  154.3390 C   0  0  1  0  0  3  0  0  0  0  0  0
  160.9820  211.3210  153.1310 C   0  0  0  0  0  2  0  0  0  0  0  0
  161.7610  206.3640  147.0730 C   0  0  2  0  0  3  0  0  0  0  0  0
  160.2010  211.2510  155.3400 C   0  0  0  0  0  2  0  0  0  0  0  0
  161.0940  212.7490  150.6250 C   0  0  0  0  0  3  0  0  0  0  0  0
  161.2000  210.5790  151.8360 C   0  0  0  0  0  0  0  0  0  0  0  0
  161.2740  211.2480  150.6730 C   0  0  0  0  0  0  0  0  0  0  0  0
  161.8600  209.0540  149.4980 C   0  0  0  0  0  0  0  0  0  0  0  0
  160.4560  205.7880  147.6130 C   0  0  0  0  0  2  0  0  0  0  0  0
  159.3560  208.1920  155.7640 C   0  0  0  0  0  2  0  0  0  0  0  0
  160.3320  210.4640  154.1140 N   0  0  2  0  0  0  0  0  0  0  0  0
  160.4980  205.9190  149.1270 C   0  0  0  0  0  2  0  0  0  0  0  0
  160.8500  208.4960  155.6000 C   0  0  0  0  0  2  0  0  0  0  0  0
  159.0980  210.7050  156.2660 C   0  0  1  0  0  3  0  0  0  0  0  0
  161.6010  211.1310  148.2540 C   0  0  0  0  0  3  0  0  0  0  0  0
  161.5820  210.5000  149.4310 C   0  0  1  0  0  3  0  0  0  0  0  0
  162.1670  208.3590  148.3190 O   0  0  0  0  0  0  0  0  0  0  0  0
  161.1640  208.3990  153.1100 C   0  0  0  0  0  2  0  0  0  0  0  0
  163.4390  206.8080  151.2160 O   0  0  0  0  0  1  0  0  0  0  0  0
  162.5290  205.3340  146.5290 O   0  0  0  0  0  1  0  0  0  0  0  0
  161.7820  208.4190  150.6810 C   0  0  0  0  0  0  0  0  0  0  0  0
  162.4910  206.9680  148.2570 C   0  0  1  0  0  3  0  0  0  0  0  0
  158.0500  211.7860  156.4740 C   0  0  0  0  0  2  0  0  0  0  0  0
  156.9500  211.6570  155.4760 C   0  0  0  0  0  0  0  0  0  0  0  0
  155.7260  211.1250  155.8560 O   0  0  0  0  0  1  0  0  0  0  0  0
  157.1210  212.0580  154.2960 O   0  0  0  0  0  0  0  0  0  0  0  0
  1 16  1  0  0  0  0
  1 20  1  0  0  0  0
  2 24  1  0  0  0  0
  3 11  2  0  0  0  0
  4 21  2  0  0  0  0
  4  3  1  0  0  0  0
  5 25  1  6  0  0  0
  6 18  1  6  0  0  0
  6  5  1  0  0  0  0
  7 24  1  6  0  0  0
  7 19  1  0  0  0  0
  9 26  1  1  0  0  0
  9 15  1  0  0  0  0
  9 28  1  0  0  0  0
 10 20  1  0  0  0  0
 11 13  1  0  0  0  0
 12  2  1  0  0  0  0
 12  8  1  0  0  0  0
 13 12  2  0  0  0  0
 14 27  2  0  0  0  0
 15 18  1  0  0  0  0
 17  8  1  6  0  0  0
 17  7  1  0  0  0  0
 17 10  1  0  0  0  0
 19 16  1  0  0  0  0
 20 29  1  6  0  0  0
 22 21  1  6  0  0  0
 22 14  1  0  0  0  0
 22 13  1  0  0  0  0
 23 14  1  0  0  0  0
 27  5  1  0  0  0  0
 27  2  1  0  0  0  0
 28 23  1  1  0  0  0
 28  6  1  0  0  0  0
 30 31  1  0  0  0  0
 30 29  1  0  0  0  0
 32 30  2  0  0  0  0
M  END
>  <MODEL>
3

>  <REMARK>
 VINA RESULT:      -5.1      2.458      8.177
  Name = 
  2 active torsions:
  status: ('A' for Active; 'I' for Inactive)
    1  A    between atoms: C_20  and  C_29
    2  A    between atoms: C_29  and  C_30
                            x       y       z     vdW  Elec       q    Type
                         _______ _______ _______ _____ _____    ______ ____

>  <TORSDO>
F 2

$$$$
=
 OpenBabel11122412523D

 32 37  0  0  1  0  0  0  0  0999 V2000
  159.0160  208.0050  155.4530 C   0  0  0  0  0  2  0  0  0  0  0  0
  161.4500  205.7680  151.8530 N   0  0  0  0  0  0  0  0  0  0  0  0
  161.5810  208.7250  147.8900 C   0  0  0  0  0  3  0  0  0  0  0  0
  161.5570  207.6210  147.1430 C   0  0  0  0  0  3  0  0  0  0  0  0
  161.5800  203.2290  151.5930 C   0  0  1  0  0  3  0  0  0  0  0  0
  161.1130  202.1280  150.6440 C   0  0  1  0  0  3  0  0  0  0  0  0
  161.5340  206.8090  154.0960 C   0  0  1  0  0  3  0  0  0  0  0  0
  161.5620  208.2810  152.2480 C   0  0  0  0  0  2  0  0  0  0  0  0
  160.6940  201.4880  148.3770 C   0  0  2  0  0  3  0  0  0  0  0  0
  161.0370  209.1530  154.3600 C   0  0  0  0  0  2  0  0  0  0  0  0
  161.6580  208.6900  149.3930 C   0  0  0  0  0  3  0  0  0  0  0  0
  161.4870  207.1070  151.3040 C   0  0  0  0  0  0  0  0  0  0  0  0
  161.5540  207.2980  149.9750 C   0  0  0  0  0  0  0  0  0  0  0  0
  161.5760  204.7620  149.6550 C   0  0  0  0  0  0  0  0  0  0  0  0
  159.3730  201.4340  149.1380 C   0  0  0  0  0  2  0  0  0  0  0  0
  159.6800  206.6940  155.8960 C   0  0  0  0  0  2  0  0  0  0  0  0
  160.8770  207.9810  153.4980 N   0  0  2  0  0  0  0  0  0  0  0  0
  159.6100  202.0700  150.4980 C   0  0  0  0  0  2  0  0  0  0  0  0
  161.1760  206.5890  155.5770 C   0  0  0  0  0  2  0  0  0  0  0  0
  159.9630  209.2160  155.4610 C   0  0  1  0  0  3  0  0  0  0  0  0
  161.5770  206.2820  147.7530 C   0  0  0  0  0  3  0  0  0  0  0  0
  161.5720  206.1180  149.0780 C   0  0  1  0  0  3  0  0  0  0  0  0
  161.6100  203.6520  148.7980 O   0  0  0  0  0  0  0  0  0  0  0  0
  161.1820  205.5680  153.2820 C   0  0  0  0  0  2  0  0  0  0  0  0
  162.8850  202.9640  152.0110 O   0  0  0  0  0  1  0  0  0  0  0  0
  161.1860  200.1930  148.2160 O   0  0  0  0  0  1  0  0  0  0  0  0
  161.5130  204.6090  150.9900 C   0  0  0  0  0  0  0  0  0  0  0  0
  161.6550  202.2910  149.2330 C   0  0  1  0  0  3  0  0  0  0  0  0
  159.1690  210.5030  155.3020 C   0  0  0  0  0  2  0  0  0  0  0  0
  160.0790  211.6800  155.2150 C   0  0  0  0  0  0  0  0  0  0  0  0
  160.0840  212.4720  154.0750 O   0  0  0  0  0  0  0  0  0  0  0  0
  160.8220  211.9740  156.1870 O   0  0  0  0  0  1  0  0  0  0  0  0
  1 20  1  0  0  0  0
  1 16  1  0  0  0  0
  2 24  1  0  0  0  0
  3 11  2  0  0  0  0
  4 21  2  0  0  0  0
  4  3  1  0  0  0  0
  5 25  1  6  0  0  0
  6 18  1  6  0  0  0
  6  5  1  0  0  0  0
  7 24  1  6  0  0  0
  7 19  1  0  0  0  0
  9 26  1  1  0  0  0
  9 15  1  0  0  0  0
  9 28  1  0  0  0  0
 10 20  1  0  0  0  0
 11 13  1  0  0  0  0
 12  2  1  0  0  0  0
 12  8  1  0  0  0  0
 13 12  2  0  0  0  0
 14 27  2  0  0  0  0
 15 18  1  0  0  0  0
 17  8  1  6  0  0  0
 17  7  1  0  0  0  0
 17 10  1  0  0  0  0
 19 16  1  0  0  0  0
 20 29  1  6  0  0  0
 22 21  1  6  0  0  0
 22 14  1  0  0  0  0
 22 13  1  0  0  0  0
 23 14  1  0  0  0  0
 27  5  1  0  0  0  0
 27  2  1  0  0  0  0
 28 23  1  6  0  0  0
 28  6  1  0  0  0  0
 30 29  1  0  0  0  0
 30 32  1  0  0  0  0
 31 30  2  0  0  0  0
M  END
>  <MODEL>
4

>  <REMARK>
 VINA RESULT:      -4.7      1.721      8.751
  Name = 
  2 active torsions:
  status: ('A' for Active; 'I' for Inactive)
    1  A    between atoms: C_20  and  C_29
    2  A    between atoms: C_29  and  C_30
                            x       y       z     vdW  Elec       q    Type
                         _______ _______ _______ _____ _____    ______ ____

>  <TORSDO>
F 2

$$$$
=
 OpenBabel11122412523D

 32 37  0  0  1  0  0  0  0  0999 V2000
  156.9350  211.8170  154.4340 C   0  0  0  0  0  2  0  0  0  0  0  0
  160.7420  210.7510  151.5590 N   0  0  0  0  0  0  0  0  0  0  0  0
  161.1380  214.1970  148.0330 C   0  0  0  0  0  3  0  0  0  0  0  0
  161.6060  213.2370  147.2350 C   0  0  0  0  0  3  0  0  0  0  0  0
  161.6020  208.3770  151.1680 C   0  0  1  0  0  3  0  0  0  0  0  0
  161.7130  207.3460  150.0470 C   0  0  1  0  0  3  0  0  0  0  0  0
  159.9470  211.4480  153.7970 C   0  0  1  0  0  3  0  0  0  0  0  0
  160.0760  213.1370  152.1490 C   0  0  0  0  0  2  0  0  0  0  0  0
  162.0980  206.9600  147.7170 C   0  0  2  0  0  3  0  0  0  0  0  0
  158.7960  213.5490  154.0700 C   0  0  0  0  0  2  0  0  0  0  0  0
  160.8180  213.9650  149.4860 C   0  0  0  0  0  3  0  0  0  0  0  0
  160.5680  212.1270  151.1430 C   0  0  0  0  0  0  0  0  0  0  0  0
  160.9340  212.5180  149.9100 C   0  0  0  0  0  0  0  0  0  0  0  0
  161.7100  210.1290  149.4300 C   0  0  0  0  0  0  0  0  0  0  0  0
  160.6850  206.4910  148.0490 C   0  0  0  0  0  2  0  0  0  0  0  0
  157.7790  210.6460  154.9580 C   0  0  0  0  0  2  0  0  0  0  0  0
  159.1870  212.5080  153.1170 N   0  0  2  0  0  0  0  0  0  0  0  0
  160.3750  206.9610  149.4610 C   0  0  0  0  0  2  0  0  0  0  0  0
  159.2790  210.9390  155.0870 C   0  0  0  0  0  2  0  0  0  0  0  0
  157.4900  213.2010  154.8080 C   0  0  1  0  0  3  0  0  0  0  0  0
  161.8160  211.8660  147.7260 C   0  0  0  0  0  3  0  0  0  0  0  0
  161.5020  211.5160  148.9760 C   0  0  1  0  0  3  0  0  0  0  0  0
  162.2630  209.1930  148.5430 O   0  0  0  0  0  0  0  0  0  0  0  0
  160.1660  210.2900  152.8280 C   0  0  0  0  0  2  0  0  0  0  0  0
  162.7700  208.3650  151.9310 O   0  0  0  0  0  1  0  0  0  0  0  0
  162.9390  205.8520  147.6150 O   0  0  0  0  0  1  0  0  0  0  0  0
  161.3360  209.7760  150.6730 C   0  0  0  0  0  0  0  0  0  0  0  0
  162.5490  207.8320  148.8740 C   0  0  1  0  0  3  0  0  0  0  0  0
  156.4580  214.2760  154.5140 C   0  0  0  0  0  2  0  0  0  0  0  0
  155.8010  214.0360  153.1980 C   0  0  0  0  0  0  0  0  0  0  0  0
  156.4960  214.2740  152.0210 O   0  0  0  0  0  0  0  0  0  0  0  0
  154.6260  213.5900  153.1540 O   0  0  0  0  0  1  0  0  0  0  0  0
  1 20  1  0  0  0  0
  1 16  1  0  0  0  0
  2 24  1  0  0  0  0
  3 11  2  0  0  0  0
  4 21  2  0  0  0  0
  4  3  1  0  0  0  0
  5 25  1  6  0  0  0
  6 18  1  6  0  0  0
  6  5  1  0  0  0  0
  7 24  1  6  0  0  0
  7 19  1  0  0  0  0
  9 26  1  1  0  0  0
  9 15  1  0  0  0  0
  9 28  1  0  0  0  0
 10 20  1  0  0  0  0
 11 13  1  0  0  0  0
 12  2  1  0  0  0  0
 12  8  1  0  0  0  0
 13 12  2  0  0  0  0
 14 27  2  0  0  0  0
 15 18  1  0  0  0  0
 16 19  1  0  0  0  0
 17  8  1  6  0  0  0
 17  7  1  0  0  0  0
 17 10  1  0  0  0  0
 20 29  1  6  0  0  0
 22 21  1  6  0  0  0
 22 14  1  0  0  0  0
 22 13  1  0  0  0  0
 23 14  1  0  0  0  0
 27  5  1  0  0  0  0
 27  2  1  0  0  0  0
 28 23  1  6  0  0  0
 28  6  1  0  0  0  0
 30 29  1  0  0  0  0
 31 30  2  0  0  0  0
 32 30  1  0  0  0  0
M  END
>  <MODEL>
5

>  <REMARK>
 VINA RESULT:      -4.6      3.062      8.791
  Name = 
  2 active torsions:
  status: ('A' for Active; 'I' for Inactive)
    1  A    between atoms: C_20  and  C_29
    2  A    between atoms: C_29  and  C_30
                            x       y       z     vdW  Elec       q    Type
                         _______ _______ _______ _____ _____    ______ ____

>  <TORSDO>
F 2

$$$$
=
 OpenBabel11122412523D

 32 37  0  0  1  0  0  0  0  0999 V2000
  157.2630  211.4660  154.8760 C   0  0  0  0  0  2  0  0  0  0  0  0
  160.8820  208.7670  153.0010 N   0  0  0  0  0  0  0  0  0  0  0  0
  162.1470  210.5850  148.5780 C   0  0  0  0  0  3  0  0  0  0  0  0
  162.4380  209.3350  148.2170 C   0  0  0  0  0  3  0  0  0  0  0  0
  161.2390  206.2980  153.5490 C   0  0  1  0  0  3  0  0  0  0  0  0
  161.1800  204.9310  152.8700 C   0  0  1  0  0  3  0  0  0  0  0  0
  160.1540  210.3530  154.7560 C   0  0  1  0  0  3  0  0  0  0  0  0
  160.7080  211.2840  152.6560 C   0  0  0  0  0  2  0  0  0  0  0  0
  161.5760  203.6720  150.8750 C   0  0  2  0  0  3  0  0  0  0  0  0
  159.4610  212.5830  154.1580 C   0  0  0  0  0  2  0  0  0  0  0  0
  161.7230  210.9520  149.9750 C   0  0  0  0  0  2  0  0  0  0  0  0
  161.0200  209.9090  152.1210 C   0  0  0  0  0  0  0  0  0  0  0  0
  161.5130  209.7580  150.8800 C   0  0  0  0  0  0  0  0  0  0  0  0
  161.7900  207.2590  151.3410 C   0  0  0  0  0  0  0  0  0  0  0  0
  160.0830  203.6180  151.1820 C   0  0  0  0  0  2  0  0  0  0  0  0
  157.8190  210.4290  155.8630 C   0  0  0  0  0  2  0  0  0  0  0  0
  159.6660  211.2180  153.6720 N   0  0  2  0  0  0  0  0  0  0  0  0
  159.8170  204.6110  152.3010 C   0  0  0  0  0  2  0  0  0  0  0  0
  159.3390  210.4720  156.0560 C   0  0  0  0  0  2  0  0  0  0  0  0
  158.0810  212.7660  154.8140 C   0  0  1  0  0  3  0  0  0  0  0  0
  162.3320  208.2180  149.1690 C   0  0  0  0  0  3  0  0  0  0  0  0
  161.8970  208.4030  150.4180 C   0  0  0  0  0  0  0  0  0  0  0  0
  162.1710  205.9830  150.8980 O   0  0  0  0  0  0  0  0  0  0  0  0
  160.1670  208.9060  154.2760 C   0  0  0  0  0  2  0  0  0  0  0  0
  162.3440  206.3490  154.3990 O   0  0  0  0  0  1  0  0  0  0  0  0
  162.1680  202.4680  151.2560 O   0  0  0  0  0  1  0  0  0  0  0  0
  161.2960  207.4480  152.5770 C   0  0  0  0  0  0  0  0  0  0  0  0
  162.1490  204.8040  151.7060 C   0  0  1  0  0  3  0  0  0  0  0  0
  157.3110  213.8330  154.0530 C   0  0  0  0  0  2  0  0  0  0  0  0
  155.9330  213.9860  154.6010 C   0  0  0  0  0  0  0  0  0  0  0  0
  155.7490  214.3840  155.9180 O   0  0  0  0  0  1  0  0  0  0  0  0
  154.9360  213.7830  153.8610 O   0  0  0  0  0  0  0  0  0  0  0  0
  1 16  1  0  0  0  0
  2 24  1  0  0  0  0
  3 11  1  0  0  0  0
  4  3  2  0  0  0  0
  4 21  1  0  0  0  0
  5 25  1  1  0  0  0
  6 18  1  6  0  0  0
  6  5  1  0  0  0  0
  7 24  1  6  0  0  0
  7 19  1  0  0  0  0
  9 15  1  0  0  0  0
  9 26  1  1  0  0  0
  9 28  1  0  0  0  0
 10 20  1  0  0  0  0
 11 13  1  0  0  0  0
 12  8  1  0  0  0  0
 12  2  1  0  0  0  0
 13 12  2  0  0  0  0
 14 27  2  0  0  0  0
 15 18  1  0  0  0  0
 16 19  1  0  0  0  0
 17  8  1  6  0  0  0
 17 10  1  0  0  0  0
 17  7  1  0  0  0  0
 20 29  1  6  0  0  0
 20  1  1  0  0  0  0
 21 22  2  0  0  0  0
 22 13  1  0  0  0  0
 22 14  1  0  0  0  0
 23 14  1  0  0  0  0
 27  2  1  0  0  0  0
 27  5  1  0  0  0  0
 28 23  1  6  0  0  0
 28  6  1  0  0  0  0
 29 30  1  0  0  0  0
 30 31  1  0  0  0  0
 32 30  2  0  0  0  0
M  END
>  <MODEL>
6

>  <REMARK>
 VINA RESULT:      -4.2      2.414      8.648
  Name = 
  2 active torsions:
  status: ('A' for Active; 'I' for Inactive)
    1  A    between atoms: C_20  and  C_29
    2  A    between atoms: C_29  and  C_30
                            x       y       z     vdW  Elec       q    Type
                         _______ _______ _______ _____ _____    ______ ____

>  <TORSDO>
F 2

$$$$
=
 OpenBabel11122412523D

 32 37  0  0  1  0  0  0  0  0999 V2000
  160.4430  204.0500  146.1610 C   0  0  0  0  0  2  0  0  0  0  0  0
  162.0350  207.8250  148.8270 N   0  0  0  0  0  0  0  0  0  0  0  0
  160.7220  207.1560  153.5480 C   0  0  0  0  0  3  0  0  0  0  0  0
  160.6220  208.4820  153.6440 C   0  0  0  0  0  3  0  0  0  0  0  0
  162.3840  210.1760  147.8890 C   0  0  1  0  0  3  0  0  0  0  0  0
  161.8060  211.5830  148.0220 C   0  0  1  0  0  3  0  0  0  0  0  0
  162.6120  205.8330  147.4760 C   0  0  1  0  0  3  0  0  0  0  0  0
  161.9570  205.4390  149.7120 C   0  0  0  0  0  2  0  0  0  0  0  0
  160.8570  213.2240  149.4810 C   0  0  2  0  0  3  0  0  0  0  0  0
  161.9360  203.6390  148.2100 C   0  0  0  0  0  2  0  0  0  0  0  0
  161.2140  206.4630  152.3060 C   0  0  0  0  0  3  0  0  0  0  0  0
  161.7620  206.9190  149.9230 C   0  0  0  0  0  0  0  0  0  0  0  0
  161.4380  207.3960  151.1370 C   0  0  0  0  0  0  0  0  0  0  0  0
  161.6680  209.7710  150.2180 C   0  0  0  0  0  0  0  0  0  0  0  0
  159.8120  212.8610  148.4300 C   0  0  0  0  0  2  0  0  0  0  0  0
  161.3530  205.0050  145.3740 C   0  0  0  0  0  2  0  0  0  0  0  0
  161.6830  205.0750  148.3280 N   0  0  2  0  0  0  0  0  0  0  0  0
  160.3390  211.6560  147.6690 C   0  0  0  0  0  2  0  0  0  0  0  0
  162.7040  205.2990  146.0360 C   0  0  0  0  0  2  0  0  0  0  0  0
  161.2070  203.0170  147.0050 C   0  0  1  0  0  3  0  0  0  0  0  0
  160.9660  209.3590  152.5140 C   0  0  0  0  0  3  0  0  0  0  0  0
  161.3460  208.8620  151.3340 C   0  0  1  0  0  3  0  0  0  0  0  0
  161.5930  211.1570  150.4200 O   0  0  0  0  0  0  0  0  0  0  0  0
  162.1970  207.3010  147.4650 C   0  0  0  0  0  2  0  0  0  0  0  0
  163.7750  210.2480  147.8060 O   0  0  0  0  0  1  0  0  0  0  0  0
  161.4330  214.4510  149.1530 O   0  0  0  0  0  1  0  0  0  0  0  0
  161.9930  209.2580  149.0190 C   0  0  0  0  0  0  0  0  0  0  0  0
  161.9160  212.1390  149.4320 C   0  0  1  0  0  3  0  0  0  0  0  0
  160.2560  201.9430  147.5050 C   0  0  0  0  0  2  0  0  0  0  0  0
  160.9400  201.0350  148.4690 C   0  0  0  0  0  0  0  0  0  0  0  0
  160.6170  201.0840  149.8180 O   0  0  0  0  0  1  0  0  0  0  0  0
  161.7890  200.2030  148.0570 O   0  0  0  0  0  0  0  0  0  0  0  0
  1 20  1  0  0  0  0
  2 27  1  0  0  0  0
  2 12  1  0  0  0  0
  3  4  1  0  0  0  0
  5 25  1  1  0  0  0
  5  6  1  0  0  0  0
  5 27  1  0  0  0  0
  6 18  1  1  0  0  0
  6 28  1  0  0  0  0
  7 19  1  6  0  0  0
  7 17  1  0  0  0  0
  8 12  1  0  0  0  0
  9 26  1  6  0  0  0
 11  3  2  0  0  0  0
 12 13  2  0  0  0  0
 13 22  1  0  0  0  0
 13 11  1  0  0  0  0
 14 23  1  0  0  0  0
 14 22  1  0  0  0  0
 15  9  1  0  0  0  0
 16 19  1  0  0  0  0
 16  1  1  0  0  0  0
 17 10  1  1  0  0  0
 17  8  1  0  0  0  0
 18 15  1  0  0  0  0
 20 29  1  1  0  0  0
 20 10  1  0  0  0  0
 21  4  2  0  0  0  0
 22 21  1  6  0  0  0
 24  7  1  0  0  0  0
 24  2  1  0  0  0  0
 27 14  2  0  0  0  0
 28  9  1  0  0  0  0
 28 23  1  1  0  0  0
 29 30  1  0  0  0  0
 30 31  1  0  0  0  0
 32 30  2  0  0  0  0
M  END
>  <MODEL>
7

>  <REMARK>
 VINA RESULT:      -4.2      2.690      3.812
  Name = 
  2 active torsions:
  status: ('A' for Active; 'I' for Inactive)
    1  A    between atoms: C_20  and  C_29
    2  A    between atoms: C_29  and  C_30
                            x       y       z     vdW  Elec       q    Type
                         _______ _______ _______ _____ _____    ______ ____

>  <TORSDO>
F 2

$$$$
