=
 OpenBabel11122412553D

 32 37  0  0  1  0  0  0  0  0999 V2000
  162.0890  210.5540  153.1940 C   0  0  0  0  0  2  0  0  0  0  0  0
  160.7570  207.0030  149.7260 C   0  0  1  0  0  3  0  0  0  0  0  0
  160.8150  202.8720  152.6830 C   0  0  0  0  0  2  0  0  0  0  0  0
  161.8220  202.2700  151.7230 C   0  0  0  0  0  2  0  0  0  0  0  0
  160.9600  206.5580  147.1900 C   0  0  0  0  0  0  0  0  0  0  0  0
  161.5980  205.7350  146.1110 C   0  0  2  0  0  3  0  0  0  0  0  0
  161.6390  208.9730  150.9050 N   0  0  1  0  0  0  0  0  0  0  0  0
  160.3890  207.2150  152.1590 C   0  0  0  0  0  2  0  0  0  0  0  0
  161.2330  203.5560  145.2660 C   0  0  0  0  0  0  0  0  0  0  0  0
  161.2470  209.2830  153.3480 C   0  0  2  0  0  3  0  0  0  0  0  0
  160.9310  204.3900  152.6270 C   0  0  0  0  0  2  0  0  0  0  0  0
  160.6040  206.3350  151.0180 N   0  0  0  0  0  0  0  0  0  0  0  0
  160.8940  204.9380  151.2160 C   0  0  0  0  0  0  0  0  0  0  0  0
  161.2240  204.7330  148.7910 C   0  0  0  0  0  0  0  0  0  0  0  0
  160.9040  204.4360  144.2080 N   0  0  0  0  0  2  0  0  0  0  0  0
  163.2820  210.3230  152.2820 C   0  0  0  0  0  2  0  0  0  0  0  0
  161.4980  208.2760  152.2040 C   0  0  2  0  0  3  0  0  0  0  0  0
  160.9080  205.8030  144.7350 C   0  0  0  0  0  2  0  0  0  0  0  0
  162.8030  209.8770  150.8940 C   0  0  0  0  0  2  0  0  0  0  0  0
  161.4510  202.6780  150.3030 C   0  0  0  0  0  2  0  0  0  0  0  0
  161.2180  204.1640  150.1570 C   0  0  0  0  0  0  0  0  0  0  0  0
  161.3570  203.8420  147.6660 N   0  0  0  0  0  2  0  0  0  0  0  0
  161.9050  208.0010  149.8410 C   0  0  0  0  0  2  0  0  0  0  0  0
  160.5060  207.7060  146.9320 O   0  0  0  0  0  0  0  0  0  0  0  0
  161.1950  202.3010  145.1690 O   0  0  0  0  0  0  0  0  0  0  0  0
  160.9880  206.0480  148.5830 C   0  0  0  0  0  0  0  0  0  0  0  0
  161.5360  204.2900  146.4590 C   0  0  2  0  0  3  0  0  0  0  0  0
  159.8940  209.6420  153.4190 O   0  0  0  0  0  0  0  0  0  0  0  0
  159.8070  210.8360  152.7830 N   0  0  0  0  0  2  0  0  0  0  0  0
  158.7120  211.7260  153.0050 C   0  0  0  0  0  0  0  0  0  0  0  0
  157.7750  211.4040  153.7820 O   0  0  0  0  0  0  0  0  0  0  0  0
  158.6760  213.0380  152.3090 C   0  0  0  0  0  1  0  0  0  0  0  0
  1 10  1  0  0  0  0
  2 23  1  1  0  0  0
  2 12  1  0  0  0  0
  4  3  1  0  0  0  0
  5 26  1  0  0  0  0
  6 18  1  6  0  0  0
  6 27  1  0  0  0  0
  6  5  1  0  0  0  0
  7 23  1  6  0  0  0
  7 17  1  0  0  0  0
 10 28  1  6  0  0  0
 11  3  1  0  0  0  0
 12 13  1  0  0  0  0
 12  8  1  0  0  0  0
 13 11  1  0  0  0  0
 14 21  1  0  0  0  0
 15 18  1  0  0  0  0
 15  9  1  0  0  0  0
 16  1  1  0  0  0  0
 17  8  1  6  0  0  0
 17 10  1  0  0  0  0
 19  7  1  0  0  0  0
 19 16  1  0  0  0  0
 20  4  1  0  0  0  0
 21 20  1  0  0  0  0
 21 13  2  0  0  0  0
 22 14  1  0  0  0  0
 24  5  2  0  0  0  0
 25  9  2  0  0  0  0
 26 14  2  0  0  0  0
 26  2  1  0  0  0  0
 27  9  1  6  0  0  0
 27 22  1  0  0  0  0
 29 30  1  0  0  0  0
 29 28  1  0  0  0  0
 30 31  2  0  0  0  0
 32 30  1  0  0  0  0
M  END
>  <MODEL>
1

>  <REMARK>
 VINA RESULT:      -5.7      0.000      0.000
  Name = 
  2 active torsions:
  status: ('A' for Active; 'I' for Inactive)
    1  A    between atoms: C_10  and  O_20
    2  A    between atoms: O_20  and  N_29
                            x       y       z     vdW  Elec       q    Type
                         _______ _______ _______ _____ _____    ______ ____

>  <TORSDO>
F 2

$$$$
=
 OpenBabel11122412553D

 32 37  0  0  1  0  0  0  0  0999 V2000
  160.0180  214.3900  147.4200 C   0  0  0  0  0  2  0  0  0  0  0  0
  161.2100  211.3110  151.3580 C   0  0  1  0  0  3  0  0  0  0  0  0
  162.3200  207.0630  148.8030 C   0  0  0  0  0  2  0  0  0  0  0  0
  161.2570  206.3610  149.6230 C   0  0  0  0  0  2  0  0  0  0  0  0
  160.6140  210.9860  153.8500 C   0  0  0  0  0  0  0  0  0  0  0  0
  159.9200  210.1330  154.8700 C   0  0  2  0  0  3  0  0  0  0  0  0
  160.2730  213.0390  149.8800 N   0  0  1  0  0  0  0  0  0  0  0  0
  161.9830  211.4400  149.0160 C   0  0  0  0  0  2  0  0  0  0  0  0
  160.4480  208.0960  155.9490 C   0  0  0  0  0  0  0  0  0  0  0  0
  161.0560  213.2670  147.5240 C   0  0  2  0  0  3  0  0  0  0  0  0
  161.9690  208.5420  148.7070 C   0  0  0  0  0  2  0  0  0  0  0  0
  161.6970  210.6040  150.1740 N   0  0  0  0  0  0  0  0  0  0  0  0
  161.6630  209.1690  150.0510 C   0  0  0  0  0  0  0  0  0  0  0  0
  160.9270  209.0530  152.3910 C   0  0  0  0  0  0  0  0  0  0  0  0
  160.4410  209.0780  156.9680 N   0  0  0  0  0  2  0  0  0  0  0  0
  158.7260  214.0190  148.1290 C   0  0  0  0  0  2  0  0  0  0  0  0
  160.7540  212.3000  148.6900 C   0  0  2  0  0  3  0  0  0  0  0  0
  160.3280  210.3930  156.3330 C   0  0  0  0  0  2  0  0  0  0  0  0
  159.0040  213.7380  149.6120 C   0  0  0  0  0  2  0  0  0  0  0  0
  161.2950  206.9050  151.0450 C   0  0  0  0  0  2  0  0  0  0  0  0
  161.2700  208.4150  151.1010 C   0  0  0  0  0  0  0  0  0  0  0  0
  160.7260  208.2190  153.5490 N   0  0  0  0  0  2  0  0  0  0  0  0
  159.9660  212.0990  150.9610 C   0  0  0  0  0  2  0  0  0  0  0  0
  160.8350  212.2060  154.0820 O   0  0  0  0  0  0  0  0  0  0  0  0
  160.6570  206.8720  156.1600 O   0  0  0  0  0  0  0  0  0  0  0  0
  160.9200  210.3990  152.5230 C   0  0  0  0  0  0  0  0  0  0  0  0
  160.2620  208.7000  154.6630 C   0  0  2  0  0  3  0  0  0  0  0  0
  162.3290  213.8390  147.6550 O   0  0  0  0  0  0  0  0  0  0  0  0
  162.5690  214.4530  146.4700 N   0  0  0  0  0  2  0  0  0  0  0  0
  163.0970  213.7410  145.3510 C   0  0  0  0  0  0  0  0  0  0  0  0
  163.3860  212.5200  145.4490 O   0  0  0  0  0  0  0  0  0  0  0  0
  163.3120  214.4480  144.0620 C   0  0  0  0  0  1  0  0  0  0  0  0
  1 10  1  0  0  0  0
  1 16  1  0  0  0  0
  2 23  1  6  0  0  0
  2 26  1  0  0  0  0
  3  4  1  0  0  0  0
  4 20  1  0  0  0  0
  5 24  2  0  0  0  0
  5  6  1  0  0  0  0
  6 18  1  1  0  0  0
  7 19  1  6  0  0  0
  7 23  1  0  0  0  0
  8 12  1  0  0  0  0
  9 25  2  0  0  0  0
  9 15  1  0  0  0  0
 10 28  1  1  0  0  0
 10 17  1  0  0  0  0
 11  3  1  0  0  0  0
 11 13  1  0  0  0  0
 12  2  1  0  0  0  0
 13 12  1  0  0  0  0
 13 21  2  0  0  0  0
 14 26  2  0  0  0  0
 14 22  1  0  0  0  0
 16 19  1  0  0  0  0
 17  8  1  1  0  0  0
 17  7  1  0  0  0  0
 18 15  1  0  0  0  0
 20 21  1  0  0  0  0
 21 14  1  0  0  0  0
 26  5  1  0  0  0  0
 27 22  1  6  0  0  0
 27  6  1  0  0  0  0
 27  9  1  0  0  0  0
 29 28  1  0  0  0  0
 30 31  2  0  0  0  0
 30 29  1  0  0  0  0
 32 30  1  0  0  0  0
M  END
>  <MODEL>
2

>  <REMARK>
 VINA RESULT:      -5.2      3.897      7.762
  Name = 
  2 active torsions:
  status: ('A' for Active; 'I' for Inactive)
    1  A    between atoms: C_10  and  O_20
    2  A    between atoms: O_20  and  N_29
                            x       y       z     vdW  Elec       q    Type
                         _______ _______ _______ _____ _____    ______ ____

>  <TORSDO>
F 2

$$$$
=
 OpenBabel11122412553D

 32 37  0  0  1  0  0  0  0  0999 V2000
  160.3280  208.9390  156.8820 C   0  0  0  0  0  2  0  0  0  0  0  0
  161.7070  206.5210  152.5620 C   0  0  1  0  0  3  0  0  0  0  0  0
  162.6040  210.5440  149.5920 C   0  0  0  0  0  2  0  0  0  0  0  0
  161.5810  209.9840  148.6240 C   0  0  0  0  0  2  0  0  0  0  0  0
  161.2550  204.3010  151.3210 C   0  0  0  0  0  0  0  0  0  0  0  0
  160.6110  203.6360  150.1420 C   0  0  2  0  0  3  0  0  0  0  0  0
  160.7090  207.1850  154.7090 N   0  0  1  0  0  0  0  0  0  0  0  0
  162.3410  208.6860  153.5660 C   0  0  0  0  0  2  0  0  0  0  0  0
  161.1730  203.4320  147.8530 C   0  0  0  0  0  0  0  0  0  0  0  0
  161.3540  209.3260  155.8120 C   0  0  2  0  0  3  0  0  0  0  0  0
  162.2680  210.0570  150.9960 C   0  0  0  0  0  2  0  0  0  0  0  0
  162.1130  207.9110  152.3550 N   0  0  0  0  0  0  0  0  0  0  0  0
  162.0510  208.5600  151.0700 C   0  0  0  0  0  0  0  0  0  0  0  0
  161.4540  206.3950  150.0790 C   0  0  0  0  0  0  0  0  0  0  0  0
  161.2400  202.1210  148.3810 N   0  0  0  0  0  2  0  0  0  0  0  0
  159.0750  208.3440  156.2600 C   0  0  0  0  0  2  0  0  0  0  0  0
  161.1080  208.5920  154.4750 C   0  0  2  0  0  3  0  0  0  0  0  0
  161.1080  202.2090  149.8370 C   0  0  0  0  0  2  0  0  0  0  0  0
  159.4360  207.0940  155.4470 C   0  0  0  0  0  2  0  0  0  0  0  0
  161.7110  208.4670  148.5950 C   0  0  0  0  0  2  0  0  0  0  0  0
  161.7100  207.8480  149.9750 C   0  0  0  0  0  0  0  0  0  0  0  0
  161.3100  205.6230  148.8700 N   0  0  0  0  0  2  0  0  0  0  0  0
  160.4530  206.5180  153.4300 C   0  0  0  0  0  2  0  0  0  0  0  0
  161.5070  203.6430  152.3670 O   0  0  0  0  0  0  0  0  0  0  0  0
  161.3770  203.7090  146.6420 O   0  0  0  0  0  0  0  0  0  0  0  0
  161.4730  205.7680  151.2770 C   0  0  0  0  0  0  0  0  0  0  0  0
  160.9200  204.3850  148.8940 C   0  0  2  0  0  3  0  0  0  0  0  0
  162.6410  209.0670  156.3030 O   0  0  0  0  0  0  0  0  0  0  0  0
  162.9810  210.1710  157.0130 N   0  0  0  0  0  2  0  0  0  0  0  0
  163.8070  211.1950  156.4560 C   0  0  0  0  0  0  0  0  0  0  0  0
  164.2700  211.0780  155.2910 O   0  0  0  0  0  0  0  0  0  0  0  0
  164.1260  212.4030  157.2590 C   0  0  0  0  0  1  0  0  0  0  0  0
  2 23  1  1  0  0  0
  3 11  1  0  0  0  0
  4  3  1  0  0  0  0
  5 24  2  0  0  0  0
  6 18  1  6  0  0  0
  6  5  1  0  0  0  0
  7 23  1  6  0  0  0
  7 19  1  0  0  0  0
  9 15  1  0  0  0  0
 10 28  1  1  0  0  0
 10  1  1  0  0  0  0
 11 13  1  0  0  0  0
 12  2  1  0  0  0  0
 12  8  1  0  0  0  0
 13 12  1  0  0  0  0
 14 26  2  0  0  0  0
 15 18  1  0  0  0  0
 16  1  1  0  0  0  0
 17  8  1  6  0  0  0
 17  7  1  0  0  0  0
 17 10  1  0  0  0  0
 19 16  1  0  0  0  0
 20  4  1  0  0  0  0
 20 21  1  0  0  0  0
 21 14  1  0  0  0  0
 21 13  2  0  0  0  0
 22 27  1  0  0  0  0
 22 14  1  0  0  0  0
 25  9  2  0  0  0  0
 26  5  1  0  0  0  0
 26  2  1  0  0  0  0
 27  9  1  1  0  0  0
 27  6  1  0  0  0  0
 28 29  1  0  0  0  0
 30 29  1  0  0  0  0
 30 32  1  0  0  0  0
 31 30  2  0  0  0  0
M  END
>  <MODEL>
3

>  <REMARK>
 VINA RESULT:      -5.2      2.787      4.932
  Name = 
  2 active torsions:
  status: ('A' for Active; 'I' for Inactive)
    1  A    between atoms: C_10  and  O_20
    2  A    between atoms: O_20  and  N_29
                            x       y       z     vdW  Elec       q    Type
                         _______ _______ _______ _____ _____    ______ ____

>  <TORSDO>
F 2

$$$$
=
 OpenBabel11122412553D

 32 37  0  0  1  0  0  0  0  0999 V2000
  158.6820  214.2040  146.3970 C   0  0  0  0  0  2  0  0  0  0  0  0
  159.9830  212.9070  151.1970 C   0  0  1  0  0  3  0  0  0  0  0  0
  162.5320  208.6150  150.2500 C   0  0  0  0  0  2  0  0  0  0  0  0
  161.5680  207.9060  151.1790 C   0  0  0  0  0  2  0  0  0  0  0  0
  159.1040  213.1690  153.6110 C   0  0  0  0  0  0  0  0  0  0  0  0
  158.4990  212.4890  154.8030 C   0  0  2  0  0  3  0  0  0  0  0  0
  158.8820  213.7710  149.1740 N   0  0  1  0  0  0  0  0  0  0  0  0
  161.0580  212.5620  148.9990 C   0  0  0  0  0  2  0  0  0  0  0  0
  159.3530  211.1060  156.5220 C   0  0  0  0  0  0  0  0  0  0  0  0
  159.9430  213.5160  146.9330 C   0  0  2  0  0  3  0  0  0  0  0  0
  161.8340  209.8300  149.6530 C   0  0  0  0  0  2  0  0  0  0  0  0
  160.8150  212.0580  150.3440 N   0  0  0  0  0  0  0  0  0  0  0  0
  161.1690  210.7060  150.6940 C   0  0  0  0  0  0  0  0  0  0  0  0
  160.1270  211.0720  152.8870 C   0  0  0  0  0  0  0  0  0  0  0  0
  158.9340  212.2970  157.1620 N   0  0  0  0  0  2  0  0  0  0  0  0
  157.4330  213.6970  147.0980 C   0  0  0  0  0  2  0  0  0  0  0  0
  159.7170  212.8900  148.3270 C   0  0  2  0  0  3  0  0  0  0  0  0
  158.5900  213.2740  156.1260 C   0  0  0  0  0  2  0  0  0  0  0  0
  157.5350  213.9580  148.6060 C   0  0  0  0  0  2  0  0  0  0  0  0
  161.2400  208.8300  152.3450 C   0  0  0  0  0  2  0  0  0  0  0  0
  160.8210  210.2130  151.9030 C   0  0  0  0  0  0  0  0  0  0  0  0
  159.9660  210.5950  154.2380 N   0  0  0  0  0  2  0  0  0  0  0  0
  158.6580  213.1430  150.4800 C   0  0  0  0  0  2  0  0  0  0  0  0
  158.9660  214.4110  153.4470 O   0  0  0  0  0  0  0  0  0  0  0  0
  159.8320  210.1150  157.1340 O   0  0  0  0  0  0  0  0  0  0  0  0
  159.7560  212.3340  152.5720 C   0  0  0  0  0  0  0  0  0  0  0  0
  159.2240  211.2240  155.0990 C   0  0  2  0  0  3  0  0  0  0  0  0
  160.9900  214.4470  146.9580 O   0  0  0  0  0  0  0  0  0  0  0  0
  161.5240  214.4170  145.7120 N   0  0  0  0  0  2  0  0  0  0  0  0
  162.6580  213.6070  145.4020 C   0  0  0  0  0  0  0  0  0  0  0  0
  163.2150  212.9180  146.2970 O   0  0  0  0  0  0  0  0  0  0  0  0
  163.1890  213.5800  144.0150 C   0  0  0  0  0  1  0  0  0  0  0  0
  1 10  1  0  0  0  0
  1 16  1  0  0  0  0
  2 23  1  6  0  0  0
  2 26  1  0  0  0  0
  3  4  1  0  0  0  0
  4 20  1  0  0  0  0
  5  6  1  0  0  0  0
  6 27  1  0  0  0  0
  6 18  1  1  0  0  0
  7 19  1  6  0  0  0
  7 23  1  0  0  0  0
  8 12  1  0  0  0  0
  9 25  2  0  0  0  0
  9 15  1  0  0  0  0
 10 28  1  1  0  0  0
 10 17  1  0  0  0  0
 11  3  1  0  0  0  0
 11 13  1  0  0  0  0
 12 13  1  0  0  0  0
 12  2  1  0  0  0  0
 13 21  2  0  0  0  0
 14 22  1  0  0  0  0
 16 19  1  0  0  0  0
 17  8  1  1  0  0  0
 17  7  1  0  0  0  0
 18 15  1  0  0  0  0
 21 20  1  0  0  0  0
 21 14  1  0  0  0  0
 24  5  2  0  0  0  0
 26 14  2  0  0  0  0
 26  5  1  0  0  0  0
 27 22  1  6  0  0  0
 27  9  1  0  0  0  0
 29 28  1  0  0  0  0
 30 29  1  0  0  0  0
 30 31  2  0  0  0  0
 32 30  1  0  0  0  0
M  END
>  <MODEL>
4

>  <REMARK>
 VINA RESULT:      -4.9      4.801      8.926
  Name = 
  2 active torsions:
  status: ('A' for Active; 'I' for Inactive)
    1  A    between atoms: C_10  and  O_20
    2  A    between atoms: O_20  and  N_29
                            x       y       z     vdW  Elec       q    Type
                         _______ _______ _______ _____ _____    ______ ____

>  <TORSDO>
F 2

$$$$
=
 OpenBabel11122412553D

 32 37  0  0  1  0  0  0  0  0999 V2000
  162.2420  210.7770  152.2460 C   0  0  0  0  0  2  0  0  0  0  0  0
  160.6540  206.8510  149.3330 C   0  0  1  0  0  3  0  0  0  0  0  0
  160.8790  203.1100  152.7630 C   0  0  0  0  0  2  0  0  0  0  0  0
  161.8140  202.3810  151.8210 C   0  0  0  0  0  2  0  0  0  0  0  0
  160.6830  206.0980  146.8630 C   0  0  0  0  0  0  0  0  0  0  0  0
  161.2410  205.1400  145.8540 C   0  0  2  0  0  3  0  0  0  0  0  0
  161.6270  208.9360  150.2020 N   0  0  1  0  0  0  0  0  0  0  0  0
  160.4510  207.3630  151.7420 C   0  0  0  0  0  2  0  0  0  0  0  0
  160.8040  202.8800  145.3080 C   0  0  0  0  0  0  0  0  0  0  0  0
  161.4020  209.5470  152.6090 C   0  0  2  0  0  3  0  0  0  0  0  0
  161.0010  204.6080  152.5150 C   0  0  0  0  0  2  0  0  0  0  0  0
  160.5830  206.3480  150.7050 N   0  0  0  0  0  0  0  0  0  0  0  0
  160.8740  204.9810  151.0530 C   0  0  0  0  0  0  0  0  0  0  0  0
  161.0400  204.4780  148.6550 C   0  0  0  0  0  0  0  0  0  0  0  0
  160.4110  203.6300  144.1740 N   0  0  0  0  0  2  0  0  0  0  0  0
  163.3690  210.4170  151.2930 C   0  0  0  0  0  2  0  0  0  0  0  0
  161.5680  208.4040  151.5830 C   0  0  2  0  0  3  0  0  0  0  0  0
  160.4600  205.0510  144.5280 C   0  0  0  0  0  2  0  0  0  0  0  0
  162.7950  209.8130  150.0040 C   0  0  0  0  0  2  0  0  0  0  0  0
  161.3520  202.6180  150.3890 C   0  0  0  0  0  2  0  0  0  0  0  0
  161.1210  204.0790  150.0780 C   0  0  0  0  0  0  0  0  0  0  0  0
  161.0900  203.4540  147.6410 N   0  0  0  0  0  2  0  0  0  0  0  0
  161.8140  207.8380  149.2500 C   0  0  0  0  0  2  0  0  0  0  0  0
  160.2210  207.2130  146.4970 O   0  0  0  0  0  0  0  0  0  0  0  0
  160.7490  201.6240  145.3670 O   0  0  0  0  0  0  0  0  0  0  0  0
  160.8000  205.7610  148.3030 C   0  0  0  0  0  0  0  0  0  0  0  0
  161.1910  203.7490  146.3800 C   0  0  2  0  0  3  0  0  0  0  0  0
  160.0600  209.9330  152.7250 O   0  0  0  0  0  0  0  0  0  0  0  0
  159.6890  209.5660  153.9760 N   0  0  0  0  0  2  0  0  0  0  0  0
  160.0370  210.3470  155.1200 C   0  0  0  0  0  0  0  0  0  0  0  0
  160.7300  211.3900  154.9950 O   0  0  0  0  0  0  0  0  0  0  0  0
  159.5810  209.9230  156.4690 C   0  0  0  0  0  1  0  0  0  0  0  0
  1 10  1  0  0  0  0
  2 23  1  1  0  0  0
  2 12  1  0  0  0  0
  4  3  1  0  0  0  0
  5 26  1  0  0  0  0
  6 18  1  6  0  0  0
  6 27  1  0  0  0  0
  6  5  1  0  0  0  0
  7 23  1  6  0  0  0
  7 17  1  0  0  0  0
  9 25  2  0  0  0  0
 10 28  1  6  0  0  0
 11  3  1  0  0  0  0
 12 13  1  0  0  0  0
 12  8  1  0  0  0  0
 13 11  1  0  0  0  0
 14 21  1  0  0  0  0
 15 18  1  0  0  0  0
 15  9  1  0  0  0  0
 16  1  1  0  0  0  0
 17  8  1  6  0  0  0
 17 10  1  0  0  0  0
 19  7  1  0  0  0  0
 19 16  1  0  0  0  0
 20  4  1  0  0  0  0
 21 20  1  0  0  0  0
 21 13  2  0  0  0  0
 22 14  1  0  0  0  0
 24  5  2  0  0  0  0
 26 14  2  0  0  0  0
 26  2  1  0  0  0  0
 27  9  1  6  0  0  0
 27 22  1  0  0  0  0
 28 29  1  0  0  0  0
 29 30  1  0  0  0  0
 30 32  1  0  0  0  0
 31 30  2  0  0  0  0
M  END
>  <MODEL>
5

>  <REMARK>
 VINA RESULT:      -3.8      1.226      1.377
  Name = 
  2 active torsions:
  status: ('A' for Active; 'I' for Inactive)
    1  A    between atoms: C_10  and  O_20
    2  A    between atoms: O_20  and  N_29
                            x       y       z     vdW  Elec       q    Type
                         _______ _______ _______ _____ _____    ______ ____

>  <TORSDO>
F 2

$$$$
=
 OpenBabel11122412553D

 32 37  0  0  1  0  0  0  0  0999 V2000
  161.6390  201.3580  150.2400 C   0  0  0  0  0  2  0  0  0  0  0  0
  160.4950  205.9620  152.2170 C   0  0  1  0  0  3  0  0  0  0  0  0
  161.7580  208.9100  148.2780 C   0  0  0  0  0  2  0  0  0  0  0  0
  162.7060  209.6430  149.2050 C   0  0  0  0  0  2  0  0  0  0  0  0
  160.4000  207.1490  154.5090 C   0  0  0  0  0  0  0  0  0  0  0  0
  161.0140  208.1770  155.4120 C   0  0  2  0  0  3  0  0  0  0  0  0
  161.1580  203.6220  151.8470 N   0  0  1  0  0  0  0  0  0  0  0  0
  160.4580  205.0480  149.9230 C   0  0  0  0  0  2  0  0  0  0  0  0
  160.9400  210.5390  155.5110 C   0  0  0  0  0  0  0  0  0  0  0  0
  161.0800  202.6170  149.5670 C   0  0  2  0  0  3  0  0  0  0  0  0
  161.5790  207.4850  148.7860 C   0  0  0  0  0  2  0  0  0  0  0  0
  160.6620  206.2040  150.7840 N   0  0  0  0  0  0  0  0  0  0  0  0
  161.2320  207.4180  150.2580 C   0  0  0  0  0  0  0  0  0  0  0  0
  161.2340  208.3270  152.5390 C   0  0  0  0  0  0  0  0  0  0  0  0
  160.3000  210.0870  156.6890 N   0  0  0  0  0  2  0  0  0  0  0  0
  162.7060  201.7030  151.2650 C   0  0  0  0  0  2  0  0  0  0  0  0
  161.3430  203.8890  150.4020 C   0  0  2  0  0  3  0  0  0  0  0  0
  160.1270  208.6360  156.5860 C   0  0  0  0  0  2  0  0  0  0  0  0
  162.1190  202.6220  152.3450 C   0  0  0  0  0  2  0  0  0  0  0  0
  162.0600  209.7550  150.5790 C   0  0  0  0  0  2  0  0  0  0  0  0
  161.5350  208.4340  151.0940 C   0  0  0  0  0  0  0  0  0  0  0  0
  161.3620  209.5000  153.3670 N   0  0  0  0  0  2  0  0  0  0  0  0
  161.4410  204.8350  152.6200 C   0  0  0  0  0  2  0  0  0  0  0  0
  159.7070  206.2110  154.9880 O   0  0  0  0  0  0  0  0  0  0  0  0
  161.1230  211.7540  155.2370 O   0  0  0  0  0  0  0  0  0  0  0  0
  160.7280  207.1880  153.0630 C   0  0  0  0  0  0  0  0  0  0  0  0
  161.2740  209.4340  154.6610 C   0  0  2  0  0  3  0  0  0  0  0  0
  159.7100  202.4360  149.3350 O   0  0  0  0  0  0  0  0  0  0  0  0
  159.6340  201.7360  148.1760 N   0  0  0  0  0  2  0  0  0  0  0  0
  160.4300  202.0780  147.0410 C   0  0  0  0  0  0  0  0  0  0  0  0
  161.2060  203.0680  147.0800 O   0  0  0  0  0  0  0  0  0  0  0  0
  160.3370  201.2630  145.8020 C   0  0  0  0  0  1  0  0  0  0  0  0
  1 16  1  0  0  0  0
  2 23  1  1  0  0  0
  2 26  1  0  0  0  0
  3 11  1  0  0  0  0
  3  4  1  0  0  0  0
  4 20  1  0  0  0  0
  5 24  2  0  0  0  0
  5  6  1  0  0  0  0
  6 18  1  1  0  0  0
  7 19  1  1  0  0  0
  7 23  1  0  0  0  0
  8 12  1  0  0  0  0
  9 15  1  0  0  0  0
 10 28  1  1  0  0  0
 10  1  1  0  0  0  0
 10 17  1  0  0  0  0
 11 13  1  0  0  0  0
 12  2  1  0  0  0  0
 13 12  1  0  0  0  0
 13 21  2  0  0  0  0
 14 26  2  0  0  0  0
 14 22  1  0  0  0  0
 16 19  1  0  0  0  0
 17  8  1  6  0  0  0
 17  7  1  0  0  0  0
 18 15  1  0  0  0  0
 20 21  1  0  0  0  0
 21 14  1  0  0  0  0
 25  9  2  0  0  0  0
 26  5  1  0  0  0  0
 27 22  1  6  0  0  0
 27  6  1  0  0  0  0
 27  9  1  0  0  0  0
 29 28  1  0  0  0  0
 30 31  2  0  0  0  0
 30 29  1  0  0  0  0
 32 30  1  0  0  0  0
M  END
>  <MODEL>
6

>  <REMARK>
 VINA RESULT:      -2.8      2.477      8.492
  Name = 
  2 active torsions:
  status: ('A' for Active; 'I' for Inactive)
    1  A    between atoms: C_10  and  O_20
    2  A    between atoms: O_20  and  N_29
                            x       y       z     vdW  Elec       q    Type
                         _______ _______ _______ _____ _____    ______ ____

>  <TORSDO>
F 2

$$$$
=
 OpenBabel11122412553D

 32 37  0  0  1  0  0  0  0  0999 V2000
  162.3820  212.2530  149.6700 C   0  0  0  0  0  2  0  0  0  0  0  0
  160.8850  207.4390  148.6700 C   0  0  1  0  0  3  0  0  0  0  0  0
  161.2830  205.4470  153.3270 C   0  0  0  0  0  2  0  0  0  0  0  0
  162.2290  204.4170  152.7420 C   0  0  0  0  0  2  0  0  0  0  0  0
  160.9040  205.7380  146.7270 C   0  0  0  0  0  0  0  0  0  0  0  0
  161.4790  204.4630  146.1860 C   0  0  2  0  0  3  0  0  0  0  0  0
  161.8000  209.7200  148.5800 N   0  0  1  0  0  0  0  0  0  0  0  0
  160.6990  208.8910  150.6600 C   0  0  0  0  0  2  0  0  0  0  0  0
  161.1100  202.1690  146.6280 C   0  0  0  0  0  0  0  0  0  0  0  0
  161.5890  211.2610  150.5280 C   0  0  2  0  0  3  0  0  0  0  0  0
  161.3520  206.7120  152.4810 C   0  0  0  0  0  2  0  0  0  0  0  0
  160.8500  207.5430  150.1290 N   0  0  0  0  0  0  0  0  0  0  0  0
  161.1920  206.4470  150.9990 C   0  0  0  0  0  0  0  0  0  0  0  0
  161.3400  205.0070  149.0160 C   0  0  0  0  0  0  0  0  0  0  0  0
  160.6760  202.3760  145.2970 N   0  0  0  0  0  2  0  0  0  0  0  0
  163.5070  211.5610  148.9190 C   0  0  0  0  0  2  0  0  0  0  0  0
  161.7790  209.8020  150.0580 C   0  0  2  0  0  3  0  0  0  0  0  0
  160.6830  203.8180  145.0350 C   0  0  0  0  0  2  0  0  0  0  0  0
  162.9350  210.4670  148.0080 C   0  0  0  0  0  2  0  0  0  0  0  0
  161.7390  204.0340  151.3520 C   0  0  0  0  0  2  0  0  0  0  0  0
  161.4550  205.2310  150.4740 C   0  0  0  0  0  0  0  0  0  0  0  0
  161.4100  203.6590  148.5110 N   0  0  0  0  0  2  0  0  0  0  0  0
  162.0100  208.3320  148.1580 C   0  0  0  0  0  2  0  0  0  0  0  0
  160.4000  206.5920  145.9480 O   0  0  0  0  0  0  0  0  0  0  0  0
  161.0980  201.0470  147.2000 O   0  0  0  0  0  0  0  0  0  0  0  0
  161.0530  206.0250  148.1750 C   0  0  0  0  0  0  0  0  0  0  0  0
  161.4840  203.4110  147.2380 C   0  0  2  0  0  3  0  0  0  0  0  0
  160.2360  211.6280  150.5110 O   0  0  0  0  0  0  0  0  0  0  0  0
  160.0900  212.5000  151.5390 N   0  0  0  0  0  2  0  0  0  0  0  0
  159.2950  212.1830  152.6820 C   0  0  0  0  0  0  0  0  0  0  0  0
  158.6780  211.0880  152.7480 O   0  0  0  0  0  0  0  0  0  0  0  0
  159.1900  213.1570  153.8000 C   0  0  0  0  0  1  0  0  0  0  0  0
  1 10  1  0  0  0  0
  2 23  1  1  0  0  0
  2 12  1  0  0  0  0
  4  3  1  0  0  0  0
  5 26  1  0  0  0  0
  6 18  1  6  0  0  0
  6  5  1  0  0  0  0
  6 27  1  0  0  0  0
  7 19  1  1  0  0  0
  7 17  1  0  0  0  0
  9 25  2  0  0  0  0
 10 28  1  6  0  0  0
 11  3  1  0  0  0  0
 12  8  1  0  0  0  0
 12 13  1  0  0  0  0
 13 11  1  0  0  0  0
 14 21  1  0  0  0  0
 15  9  1  0  0  0  0
 16  1  1  0  0  0  0
 17 10  1  0  0  0  0
 17  8  1  6  0  0  0
 18 15  1  0  0  0  0
 19 16  1  0  0  0  0
 20  4  1  0  0  0  0
 21 13  2  0  0  0  0
 21 20  1  0  0  0  0
 22 14  1  0  0  0  0
 23  7  1  0  0  0  0
 24  5  2  0  0  0  0
 26  2  1  0  0  0  0
 26 14  2  0  0  0  0
 27  9  1  6  0  0  0
 27 22  1  0  0  0  0
 28 29  1  0  0  0  0
 29 30  1  0  0  0  0
 30 31  2  0  0  0  0
 30 32  1  0  0  0  0
M  END
>  <MODEL>
7

>  <REMARK>
 VINA RESULT:      -2.7      1.736      2.146
  Name = 
  2 active torsions:
  status: ('A' for Active; 'I' for Inactive)
    1  A    between atoms: C_10  and  O_20
    2  A    between atoms: O_20  and  N_29
                            x       y       z     vdW  Elec       q    Type
                         _______ _______ _______ _____ _____    ______ ____

>  <TORSDO>
F 2

$$$$
