=
 OpenBabel11122414253D

 34 40  0  0  1  0  0  0  0  0999 V2000
  161.0030  205.3580  152.3850 C   0  0  0  0  0  0  0  0  0  0  0  0
  160.8220  206.2050  154.8010 C   0  0  0  0  0  2  0  0  0  0  0  0
  160.5910  204.3650  144.9010 C   0  0  0  0  0  2  0  0  0  0  0  0
  161.2060  204.6880  150.0700 C   0  0  0  0  0  0  0  0  0  0  0  0
  161.3520  206.3970  148.3500 C   0  0  0  0  0  0  0  0  0  0  0  0
  160.3360  206.5450  146.0750 C   0  0  0  0  0  2  0  0  0  0  0  0
  160.7880  205.8690  144.7900 C   0  0  0  0  0  2  0  0  0  0  0  0
  162.8120  204.0000  146.6170 S   0  0  0  0  0  0  0  0  0  0  0  0
  160.9210  207.7020  152.9600 C   0  0  0  0  0  0  0  0  0  0  0  0
  161.1470  210.9230  153.2630 C   0  0  0  0  0  2  0  0  0  0  0  0
  161.2610  207.3560  149.3120 N   0  0  0  0  0  0  0  0  0  0  0  0
  161.3400  203.9230  147.6900 C   0  0  0  0  0  2  0  0  0  0  0  0
  161.0350  208.0810  151.6010 C   0  0  0  0  0  0  0  0  0  0  0  0
  160.9720  207.6300  155.3380 C   0  0  0  0  0  2  0  0  0  0  0  0
  161.3290  205.0260  148.7130 C   0  0  0  0  0  0  0  0  0  0  0  0
  161.9070  203.6060  145.0730 C   0  0  0  0  0  2  0  0  0  0  0  0
  161.7160  209.7760  154.1110 C   0  0  2  0  0  3  0  0  0  0  0  0
  161.1110  205.7030  151.0310 C   0  0  2  0  0  3  0  0  0  0  0  0
  161.5490  206.8480  146.9350 C   0  0  0  0  0  2  0  0  0  0  0  0
  161.1340  207.0570  150.6330 C   0  0  0  0  0  0  0  0  0  0  0  0
  161.0760  202.9710  151.7410 C   0  0  0  0  0  3  0  0  0  0  0  0
  160.3740  210.4810  152.0190 C   0  0  0  0  0  2  0  0  0  0  0  0
  161.1770  203.3090  150.4870 N   0  0  0  0  0  0  0  0  0  0  0  0
  161.1900  209.5170  151.1710 C   0  0  0  0  0  2  0  0  0  0  0  0
  160.7470  208.5850  154.1520 C   0  0  1  0  0  3  0  0  0  0  0  0
  160.9870  203.9770  152.7590 N   0  0  0  0  0  0  0  0  0  0  0  0
  160.9170  206.3770  153.3340 C   0  0  0  0  0  0  0  0  0  0  0  0
  162.0280  210.3180  155.5030 C   0  0  0  0  0  2  0  0  0  0  0  0
  161.3930  211.6120  155.6860 N   0  0  0  0  0  2  0  0  0  0  0  0
  158.7780  213.0210  156.8080 O   0  0  0  0  0  0  0  0  0  0  0  0
  159.3730  210.7390  156.6790 C   0  0  0  0  0  2  0  0  0  0  0  0
  160.6200  211.5400  156.9150 C   0  0  2  0  0  3  0  0  0  0  0  0
  158.2540  211.7260  156.9110 C   0  0  0  0  0  2  0  0  0  0  0  0
  160.1000  212.9170  157.2610 C   0  0  0  0  0  2  0  0  0  0  0  0
  1 26  1  0  0  0  0
  1 27  2  0  0  0  0
  2 14  1  0  0  0  0
  3 16  1  0  0  0  0
  4 23  2  0  0  0  0
  5 15  2  0  0  0  0
  5 11  1  0  0  0  0
  6 19  1  0  0  0  0
  7  3  1  0  0  0  0
  7  6  1  0  0  0  0
  8 12  1  0  0  0  0
  9 27  1  0  0  0  0
  9 25  1  0  0  0  0
 10 17  1  0  0  0  0
 11 20  2  0  0  0  0
 12 15  1  0  0  0  0
 13  9  2  0  0  0  0
 15  4  1  0  0  0  0
 16  8  1  0  0  0  0
 17 25  1  0  0  0  0
 17 28  1  1  0  0  0
 18  4  1  1  0  0  0
 18  1  1  0  0  0  0
 19  5  1  0  0  0  0
 20 18  1  0  0  0  0
 20 13  1  0  0  0  0
 21 26  2  0  0  0  0
 22 10  1  0  0  0  0
 23 21  1  0  0  0  0
 24 13  1  0  0  0  0
 24 22  1  0  0  0  0
 25 14  1  1  0  0  0
 27  2  1  0  0  0  0
 28 29  1  0  0  0  0
 30 33  1  0  0  0  0
 30 34  1  0  0  0  0
 31 33  1  0  0  0  0
 31 32  1  0  0  0  0
 32 29  1  6  0  0  0
 32 34  1  0  0  0  0
M  END
>  <MODEL>
1

>  <REMARK>
 VINA RESULT:      -9.1      0.000      0.000
  Name = 
  3 active torsions:
  status: ('A' for Active; 'I' for Inactive)
    1  A    between atoms: C_17  and  C_28
    2  A    between atoms: C_28  and  N_29
    3  A    between atoms: N_29  and  C_32
                            x       y       z     vdW  Elec       q    Type
                         _______ _______ _______ _____ _____    ______ ____

>  <TORSDO>
F 3

$$$$
=
 OpenBabel11122414253D

 34 40  0  0  1  0  0  0  0  0999 V2000
  161.5260  208.1940  149.8370 C   0  0  0  0  0  0  0  0  0  0  0  0
  161.5250  206.9340  147.6000 C   0  0  0  0  0  2  0  0  0  0  0  0
  160.2760  210.6720  156.8690 C   0  0  0  0  0  2  0  0  0  0  0  0
  161.5300  209.2590  152.0080 C   0  0  0  0  0  0  0  0  0  0  0  0
  161.1110  207.9150  153.9870 C   0  0  0  0  0  0  0  0  0  0  0  0
  159.7810  208.3750  156.0480 C   0  0  0  0  0  2  0  0  0  0  0  0
  160.1690  209.2070  157.2610 C   0  0  0  0  0  2  0  0  0  0  0  0
  162.7430  210.3370  155.5210 S   0  0  0  0  0  0  0  0  0  0  0  0
  161.0840  205.8260  149.6530 C   0  0  0  0  0  0  0  0  0  0  0  0
  160.7390  202.6140  149.9340 C   0  0  0  0  0  2  0  0  0  0  0  0
  160.9740  206.8150  153.1970 N   0  0  0  0  0  0  0  0  0  0  0  0
  161.4740  210.4390  154.2150 C   0  0  0  0  0  2  0  0  0  0  0  0
  160.9360  205.7050  151.0550 C   0  0  0  0  0  0  0  0  0  0  0  0
  161.4760  205.4280  147.3410 C   0  0  0  0  0  2  0  0  0  0  0  0
  161.3970  209.1750  153.4030 C   0  0  0  0  0  0  0  0  0  0  0  0
  161.7230  211.1630  156.8000 C   0  0  0  0  0  2  0  0  0  0  0  0
  161.6250  203.4690  149.0160 C   0  0  2  0  0  3  0  0  0  0  0  0
  161.3780  208.1050  151.2270 C   0  0  0  0  0  0  0  0  0  0  0  0
  161.0220  207.7210  155.4700 C   0  0  0  0  0  2  0  0  0  0  0  0
  161.0910  206.8680  151.8430 C   0  0  0  0  0  0  0  0  0  0  0  0
  161.9580  210.6170  150.0770 C   0  0  0  0  0  3  0  0  0  0  0  0
  159.8990  203.4070  150.9360 C   0  0  0  0  0  2  0  0  0  0  0  0
  161.8190  210.5170  151.3680 N   0  0  0  0  0  0  0  0  0  0  0  0
  160.7560  204.3740  151.7390 C   0  0  0  0  0  2  0  0  0  0  0  0
  160.9140  204.7690  148.6130 C   0  0  1  0  0  3  0  0  0  0  0  0
  161.8220  209.4610  149.2400 N   0  0  0  0  0  0  0  0  0  0  0  0
  161.3810  207.0370  149.0690 C   0  0  1  0  0  3  0  0  0  0  0  0
  162.0190  202.6250  147.8080 C   0  0  0  0  0  2  0  0  0  0  0  0
  160.8500  201.9470  147.2730 N   0  0  0  0  0  2  0  0  0  0  0  0
  159.0380  202.4920  144.7240 O   0  0  0  0  0  0  0  0  0  0  0  0
  161.2140  203.2320  145.2630 C   0  0  0  0  0  2  0  0  0  0  0  0
  161.0280  201.8570  145.8330 C   0  0  2  0  0  3  0  0  0  0  0  0
  160.0230  203.4170  144.3540 C   0  0  0  0  0  2  0  0  0  0  0  0
  159.7430  201.3770  145.1990 C   0  0  0  0  0  2  0  0  0  0  0  0
  1 18  1  0  0  0  0
  3  7  1  0  0  0  0
  4 15  2  0  0  0  0
  5 19  1  0  0  0  0
  6  7  1  0  0  0  0
  8 16  1  0  0  0  0
  9 13  2  0  0  0  0
 10 22  1  0  0  0  0
 11  5  2  0  0  0  0
 12  8  1  0  0  0  0
 13 24  1  0  0  0  0
 13 20  1  0  0  0  0
 14  2  1  0  0  0  0
 15  5  1  0  0  0  0
 15 12  1  0  0  0  0
 16  3  1  0  0  0  0
 17 28  1  6  0  0  0
 17 10  1  0  0  0  0
 18 20  2  0  0  0  0
 18  4  1  0  0  0  0
 19  6  1  0  0  0  0
 20 11  1  0  0  0  0
 21 23  2  0  0  0  0
 22 24  1  0  0  0  0
 23  4  1  0  0  0  0
 25 14  1  6  0  0  0
 25 17  1  0  0  0  0
 25  9  1  0  0  0  0
 26  1  2  0  0  0  0
 26 21  1  0  0  0  0
 27  2  1  1  0  0  0
 27  9  1  0  0  0  0
 27  1  1  0  0  0  0
 29 28  1  0  0  0  0
 30 34  1  0  0  0  0
 31 32  1  0  0  0  0
 32 29  1  1  0  0  0
 33 30  1  0  0  0  0
 33 31  1  0  0  0  0
 34 32  1  0  0  0  0
M  END
>  <MODEL>
2

>  <REMARK>
 VINA RESULT:      -8.9      3.723      9.559
  Name = 
  3 active torsions:
  status: ('A' for Active; 'I' for Inactive)
    1  A    between atoms: C_17  and  C_28
    2  A    between atoms: C_28  and  N_29
    3  A    between atoms: N_29  and  C_32
                            x       y       z     vdW  Elec       q    Type
                         _______ _______ _______ _____ _____    ______ ____

>  <TORSDO>
F 3

$$$$
=
 OpenBabel11122414253D

 34 40  0  0  1  0  0  0  0  0999 V2000
  161.7690  206.8510  148.4950 C   0  0  0  0  0  0  0  0  0  0  0  0
  162.0550  209.0240  149.8300 C   0  0  0  0  0  2  0  0  0  0  0  0
  161.6230  199.6950  146.0570 C   0  0  0  0  0  2  0  0  0  0  0  0
  161.4460  204.7450  147.3500 C   0  0  0  0  0  0  0  0  0  0  0  0
  160.9150  202.7610  148.6470 C   0  0  0  0  0  0  0  0  0  0  0  0
  161.6880  200.3960  148.4440 C   0  0  0  0  0  2  0  0  0  0  0  0
  161.2160  199.3250  147.4750 C   0  0  0  0  0  2  0  0  0  0  0  0
  159.6380  201.6970  145.7970 S   0  0  0  0  0  0  0  0  0  0  0  0
  161.5870  206.9580  150.9010 C   0  0  0  0  0  0  0  0  0  0  0  0
  160.9580  206.6680  154.0690 C   0  0  0  0  0  2  0  0  0  0  0  0
  160.9640  203.5060  149.7850 N   0  0  0  0  0  0  0  0  0  0  0  0
  161.1990  202.5850  146.1080 C   0  0  0  0  0  2  0  0  0  0  0  0
  161.2990  205.5740  150.9800 C   0  0  0  0  0  0  0  0  0  0  0  0
  161.7650  209.2950  151.3070 C   0  0  0  0  0  2  0  0  0  0  0  0
  161.1550  203.3720  147.3900 C   0  0  0  0  0  0  0  0  0  0  0  0
  160.4420  200.1610  145.2040 C   0  0  0  0  0  2  0  0  0  0  0  0
  160.6290  207.7790  153.0600 C   0  0  2  0  0  3  0  0  0  0  0  0
  161.4920  205.4780  148.5440 C   0  0  0  0  0  0  0  0  0  0  0  0
  160.5300  201.3190  148.7760 C   0  0  0  0  0  2  0  0  0  0  0  0
  161.2500  204.8360  149.7770 C   0  0  0  0  0  0  0  0  0  0  0  0
  161.9600  206.6850  146.0350 C   0  0  0  0  0  3  0  0  0  0  0  0
  161.6660  205.4490  153.4740 C   0  0  0  0  0  2  0  0  0  0  0  0
  161.6990  205.4100  146.0970 N   0  0  0  0  0  0  0  0  0  0  0  0
  160.9130  204.9010  152.2720 C   0  0  0  0  0  2  0  0  0  0  0  0
  161.7490  207.9320  152.0210 C   0  0  1  0  0  3  0  0  0  0  0  0
  162.0060  207.4760  147.2290 N   0  0  0  0  0  2  0  0  0  0  0  0
  161.8040  207.5730  149.6880 C   0  0  0  0  0  0  0  0  0  0  0  0
  160.3760  209.0690  153.8340 C   0  0  0  0  0  2  0  0  0  0  0  0
  160.4750  208.8190  155.2630 N   0  0  0  0  0  2  0  0  0  0  0  0
  162.8300  209.7830  157.1620 O   0  0  0  0  0  0  0  0  0  0  0  0
  162.0030  210.6840  155.1420 C   0  0  0  0  0  2  0  0  0  0  0  0
  160.8550  210.0730  155.8920 C   0  0  2  0  0  3  0  0  0  0  0  0
  163.1300  210.6990  156.1460 C   0  0  0  0  0  2  0  0  0  0  0  0
  161.4310  209.7920  157.2610 C   0  0  0  0  0  2  0  0  0  0  0  0
  1 18  1  0  0  0  0
  1 27  2  0  0  0  0
  2 14  1  0  0  0  0
  3  7  1  0  0  0  0
  4 15  1  0  0  0  0
  4 18  2  0  0  0  0
  5 19  1  0  0  0  0
  5 11  1  0  0  0  0
  6 19  1  0  0  0  0
  7  6  1  0  0  0  0
  8 12  1  0  0  0  0
  9 13  2  0  0  0  0
  9 25  1  0  0  0  0
 12 15  1  0  0  0  0
 13 24  1  0  0  0  0
 15  5  2  0  0  0  0
 16  8  1  0  0  0  0
 16  3  1  0  0  0  0
 17 28  1  1  0  0  0
 17 10  1  0  0  0  0
 18 20  1  0  0  0  0
 20 11  2  0  0  0  0
 20 13  1  0  0  0  0
 21 23  2  0  0  0  0
 21 26  1  0  0  0  0
 22 10  1  0  0  0  0
 23  4  1  0  0  0  0
 24 22  1  0  0  0  0
 25 14  1  6  0  0  0
 25 17  1  0  0  0  0
 26  1  1  0  0  0  0
 27  2  1  0  0  0  0
 27  9  1  0  0  0  0
 28 29  1  0  0  0  0
 30 34  1  0  0  0  0
 31 32  1  0  0  0  0
 31 33  1  0  0  0  0
 32 29  1  6  0  0  0
 32 34  1  0  0  0  0
 33 30  1  0  0  0  0
M  END
>  <MODEL>
3

>  <REMARK>
 VINA RESULT:      -7.9      2.231      4.308
  Name = 
  3 active torsions:
  status: ('A' for Active; 'I' for Inactive)
    1  A    between atoms: C_17  and  C_28
    2  A    between atoms: C_28  and  N_29
    3  A    between atoms: N_29  and  C_32
                            x       y       z     vdW  Elec       q    Type
                         _______ _______ _______ _____ _____    ______ ____

>  <TORSDO>
F 3

$$$$
=
 OpenBabel11122414253D

 34 40  0  0  1  0  0  0  0  0999 V2000
  161.8520  207.8900  149.9160 C   0  0  0  0  0  0  0  0  0  0  0  0
  162.0270  210.1500  151.1190 C   0  0  0  0  0  2  0  0  0  0  0  0
  161.8470  200.5800  147.9830 C   0  0  0  0  0  2  0  0  0  0  0  0
  161.6210  205.7110  148.8910 C   0  0  0  0  0  0  0  0  0  0  0  0
  160.9080  203.8310  150.2540 C   0  0  0  0  0  0  0  0  0  0  0  0
  161.6540  201.4490  150.3070 C   0  0  0  0  0  2  0  0  0  0  0  0
  161.2750  200.3170  149.3670 C   0  0  0  0  0  2  0  0  0  0  0  0
  159.9420  202.5790  147.3590 S   0  0  0  0  0  0  0  0  0  0  0  0
  161.4010  208.1700  152.2720 C   0  0  0  0  0  0  0  0  0  0  0  0
  160.4110  208.1150  155.3590 C   0  0  0  0  0  2  0  0  0  0  0  0
  160.8420  204.6550  151.3360 N   0  0  0  0  0  0  0  0  0  0  0  0
  161.4750  203.4710  147.7830 C   0  0  0  0  0  2  0  0  0  0  0  0
  161.0790  206.8000  152.4140 C   0  0  0  0  0  0  0  0  0  0  0  0
  161.5770  210.5290  152.5310 C   0  0  0  0  0  2  0  0  0  0  0  0
  161.3010  204.3480  148.9930 C   0  0  0  0  0  0  0  0  0  0  0  0
  160.7790  200.9960  146.9700 C   0  0  0  0  0  2  0  0  0  0  0  0
  160.2210  209.1550  154.2450 C   0  0  2  0  0  3  0  0  0  0  0  0
  161.5460  206.5270  150.0280 C   0  0  0  0  0  0  0  0  0  0  0  0
  160.4840  202.4070  150.4390 C   0  0  0  0  0  2  0  0  0  0  0  0
  161.1530  205.9770  151.2670 C   0  0  0  0  0  0  0  0  0  0  0  0
  162.3170  207.5460  147.5110 C   0  0  0  0  0  3  0  0  0  0  0  0
  161.1590  206.8490  154.9360 C   0  0  0  0  0  2  0  0  0  0  0  0
  162.0270  206.2820  147.6330 N   0  0  0  0  0  0  0  0  0  0  0  0
  160.5370  206.2240  153.6970 C   0  0  0  0  0  2  0  0  0  0  0  0
  161.4540  209.2200  153.3320 C   0  0  1  0  0  3  0  0  0  0  0  0
  162.2430  208.4200  148.6450 N   0  0  0  0  0  2  0  0  0  0  0  0
  161.7660  208.6950  151.0520 C   0  0  0  0  0  0  0  0  0  0  0  0
  159.9060  210.4990  154.8920 C   0  0  0  0  0  2  0  0  0  0  0  0
  158.7180  210.3860  155.7220 N   0  0  0  0  0  2  0  0  0  0  0  0
  157.3200  212.4410  153.7460 O   0  0  0  0  0  0  0  0  0  0  0  0
  156.6510  211.6250  155.8590 C   0  0  0  0  0  2  0  0  0  0  0  0
  158.1480  211.7180  155.8410 C   0  0  2  0  0  3  0  0  0  0  0  0
  156.2230  212.3640  154.6130 C   0  0  0  0  0  2  0  0  0  0  0  0
  158.4430  212.5030  154.5830 C   0  0  0  0  0  2  0  0  0  0  0  0
  1 18  1  0  0  0  0
  1 27  2  0  0  0  0
  2 14  1  0  0  0  0
  3  7  1  0  0  0  0
  4 15  1  0  0  0  0
  4 18  2  0  0  0  0
  5 19  1  0  0  0  0
  5 11  1  0  0  0  0
  6 19  1  0  0  0  0
  7  6  1  0  0  0  0
  8 12  1  0  0  0  0
  9 13  2  0  0  0  0
  9 25  1  0  0  0  0
 12 15  1  0  0  0  0
 13 24  1  0  0  0  0
 15  5  2  0  0  0  0
 16  8  1  0  0  0  0
 16  3  1  0  0  0  0
 17 28  1  1  0  0  0
 17 10  1  0  0  0  0
 18 20  1  0  0  0  0
 20 11  2  0  0  0  0
 20 13  1  0  0  0  0
 21 23  2  0  0  0  0
 21 26  1  0  0  0  0
 22 10  1  0  0  0  0
 23  4  1  0  0  0  0
 24 22  1  0  0  0  0
 25 14  1  6  0  0  0
 25 17  1  0  0  0  0
 26  1  1  0  0  0  0
 27  2  1  0  0  0  0
 27  9  1  0  0  0  0
 28 29  1  0  0  0  0
 30 34  1  0  0  0  0
 30 33  1  0  0  0  0
 32 29  1  6  0  0  0
 32 31  1  0  0  0  0
 33 31  1  0  0  0  0
 34 32  1  0  0  0  0
M  END
>  <MODEL>
4

>  <REMARK>
 VINA RESULT:      -7.6      1.877      3.824
  Name = 
  3 active torsions:
  status: ('A' for Active; 'I' for Inactive)
    1  A    between atoms: C_17  and  C_28
    2  A    between atoms: C_28  and  N_29
    3  A    between atoms: N_29  and  C_32
                            x       y       z     vdW  Elec       q    Type
                         _______ _______ _______ _____ _____    ______ ____

>  <TORSDO>
F 3

$$$$
=
 OpenBabel11122414253D

 34 40  0  0  1  0  0  0  0  0999 V2000
  161.7910  209.6530  151.0220 C   0  0  0  0  0  0  0  0  0  0  0  0
  161.8290  211.0930  153.1470 C   0  0  0  0  0  2  0  0  0  0  0  0
  162.1800  204.0990  145.9080 C   0  0  0  0  0  2  0  0  0  0  0  0
  161.6880  208.2000  149.0920 C   0  0  0  0  0  0  0  0  0  0  0  0
  161.0360  205.8790  149.3900 C   0  0  0  0  0  0  0  0  0  0  0  0
  161.8950  203.7750  148.3580 C   0  0  0  0  0  2  0  0  0  0  0  0
  161.5910  203.2010  146.9840 C   0  0  0  0  0  2  0  0  0  0  0  0
  160.1960  206.0960  146.2070 S   0  0  0  0  0  0  0  0  0  0  0  0
  161.2740  208.7860  153.2160 C   0  0  0  0  0  0  0  0  0  0  0  0
  160.2210  207.2610  155.8780 C   0  0  0  0  0  2  0  0  0  0  0  0
  160.9070  206.0990  150.7270 N   0  0  0  0  0  0  0  0  0  0  0  0
  161.6740  206.7340  147.0620 C   0  0  0  0  0  2  0  0  0  0  0  0
  161.0160  207.4980  152.6890 C   0  0  0  0  0  0  0  0  0  0  0  0
  161.3300  210.7530  154.5520 C   0  0  0  0  0  2  0  0  0  0  0  0
  161.4310  206.9380  148.5330 C   0  0  0  0  0  0  0  0  0  0  0  0
  161.1160  204.9060  145.1610 C   0  0  0  0  0  2  0  0  0  0  0  0
  160.0050  208.6940  155.3690 C   0  0  2  0  0  3  0  0  0  0  0  0
  161.5480  208.3870  150.4740 C   0  0  0  0  0  0  0  0  0  0  0  0
  160.6770  204.5210  148.8710 C   0  0  0  0  0  2  0  0  0  0  0  0
  161.1550  207.3090  151.2960 C   0  0  0  0  0  0  0  0  0  0  0  0
  162.3250  210.4890  148.7560 C   0  0  0  0  0  3  0  0  0  0  0  0
  161.0370  206.3650  154.9450 C   0  0  0  0  0  2  0  0  0  0  0  0
  162.0930  209.3060  148.2630 N   0  0  0  0  0  0  0  0  0  0  0  0
  160.4740  206.3720  153.5330 C   0  0  0  0  0  2  0  0  0  0  0  0
  161.2530  209.2190  154.6450 C   0  0  1  0  0  3  0  0  0  0  0  0
  162.1830  210.7290  150.1630 N   0  0  0  0  0  2  0  0  0  0  0  0
  161.6400  209.8310  152.3980 C   0  0  0  0  0  0  0  0  0  0  0  0
  159.6110  209.5690  156.5550 C   0  0  0  0  0  2  0  0  0  0  0  0
  159.2080  210.8860  156.0890 N   0  0  0  0  0  2  0  0  0  0  0  0
  156.6910  212.8110  155.8890 O   0  0  0  0  0  0  0  0  0  0  0  0
  157.7320  211.4500  154.2640 C   0  0  0  0  0  2  0  0  0  0  0  0
  157.8450  210.7670  155.5960 C   0  0  2  0  0  3  0  0  0  0  0  0
  156.7530  212.5720  154.5100 C   0  0  0  0  0  2  0  0  0  0  0  0
  156.9190  211.5630  156.4860 C   0  0  0  0  0  2  0  0  0  0  0  0
  1 27  2  0  0  0  0
  2 14  1  0  0  0  0
  3  7  1  0  0  0  0
  4 18  2  0  0  0  0
  5 11  1  0  0  0  0
  6 19  1  0  0  0  0
  7  6  1  0  0  0  0
  8 12  1  0  0  0  0
  9 25  1  0  0  0  0
 11 20  2  0  0  0  0
 12 15  1  0  0  0  0
 13  9  2  0  0  0  0
 13 24  1  0  0  0  0
 15  4  1  0  0  0  0
 15  5  2  0  0  0  0
 16  3  1  0  0  0  0
 16  8  1  0  0  0  0
 17 10  1  0  0  0  0
 17 28  1  1  0  0  0
 18  1  1  0  0  0  0
 18 20  1  0  0  0  0
 19  5  1  0  0  0  0
 20 13  1  0  0  0  0
 21 26  1  0  0  0  0
 22 10  1  0  0  0  0
 23 21  2  0  0  0  0
 23  4  1  0  0  0  0
 24 22  1  0  0  0  0
 25 14  1  6  0  0  0
 25 17  1  0  0  0  0
 26  1  1  0  0  0  0
 27  2  1  0  0  0  0
 27  9  1  0  0  0  0
 29 28  1  0  0  0  0
 30 34  1  0  0  0  0
 31 33  1  0  0  0  0
 31 32  1  0  0  0  0
 32 29  1  1  0  0  0
 32 34  1  0  0  0  0
 33 30  1  0  0  0  0
M  END
>  <MODEL>
5

>  <REMARK>
 VINA RESULT:      -7.6      1.690      3.679
  Name = 
  3 active torsions:
  status: ('A' for Active; 'I' for Inactive)
    1  A    between atoms: C_17  and  C_28
    2  A    between atoms: C_28  and  N_29
    3  A    between atoms: N_29  and  C_32
                            x       y       z     vdW  Elec       q    Type
                         _______ _______ _______ _____ _____    ______ ____

>  <TORSDO>
F 3

$$$$
=
 OpenBabel11122414253D

 34 40  0  0  1  0  0  0  0  0999 V2000
  160.7660  207.1340  154.3570 C   0  0  0  0  0  0  0  0  0  0  0  0
  161.7590  205.1050  153.1380 C   0  0  0  0  0  2  0  0  0  0  0  0
  158.8520  214.0400  156.7660 C   0  0  0  0  0  2  0  0  0  0  0  0
  159.8080  209.1030  155.3840 C   0  0  0  0  0  0  0  0  0  0  0  0
  159.4260  211.0790  154.0250 C   0  0  0  0  0  0  0  0  0  0  0  0
  159.7520  213.5070  154.5080 C   0  0  0  0  0  2  0  0  0  0  0  0
  158.8550  214.4440  155.3010 C   0  0  0  0  0  2  0  0  0  0  0  0
  157.1910  211.7860  156.3470 S   0  0  0  0  0  0  0  0  0  0  0  0
  161.3550  207.1580  152.0150 C   0  0  0  0  0  0  0  0  0  0  0  0
  161.7030  207.5650  148.8170 C   0  0  0  0  0  2  0  0  0  0  0  0
  159.9310  210.4210  152.9460 N   0  0  0  0  0  0  0  0  0  0  0  0
  158.8820  211.1280  156.5270 C   0  0  0  0  0  2  0  0  0  0  0  0
  160.9110  208.4940  151.8770 C   0  0  0  0  0  0  0  0  0  0  0  0
  161.9820  204.8940  151.6390 C   0  0  0  0  0  2  0  0  0  0  0  0
  159.3500  210.4260  155.2810 C   0  0  0  0  0  0  0  0  0  0  0  0
  157.5440  213.3720  157.1940 C   0  0  0  0  0  2  0  0  0  0  0  0
  161.2400  206.3590  149.6480 C   0  0  2  0  0  3  0  0  0  0  0  0
  160.3250  208.4590  154.2510 C   0  0  0  0  0  0  0  0  0  0  0  0
  158.8980  212.4650  153.8100 C   0  0  0  0  0  2  0  0  0  0  0  0
  160.3870  209.1420  153.0180 C   0  0  0  0  0  0  0  0  0  0  0  0
  160.1610  207.1660  156.7550 C   0  0  0  0  0  3  0  0  0  0  0  0
  162.0100  208.8250  149.6280 C   0  0  0  0  0  2  0  0  0  0  0  0
  159.7530  208.3970  156.6390 N   0  0  0  0  0  0  0  0  0  0  0  0
  160.8520  209.1930  150.5420 C   0  0  0  0  0  2  0  0  0  0  0  0
  161.9930  206.2860  150.9840 C   0  0  1  0  0  3  0  0  0  0  0  0
  160.6860  206.4650  155.6200 N   0  0  0  0  0  0  0  0  0  0  0  0
  161.2720  206.5000  153.2220 C   0  0  1  0  0  3  0  0  0  0  0  0
  161.4260  205.0990  148.8080 C   0  0  0  0  0  2  0  0  0  0  0  0
  160.8580  205.2960  147.4850 N   0  0  0  0  0  2  0  0  0  0  0  0
  160.7200  204.1710  144.5190 O   0  0  0  0  0  0  0  0  0  0  0  0
  162.1030  205.8230  145.4850 C   0  0  0  0  0  2  0  0  0  0  0  0
  161.8180  204.7780  146.5240 C   0  0  2  0  0  3  0  0  0  0  0  0
  161.6080  205.2060  144.2000 C   0  0  0  0  0  2  0  0  0  0  0  0
  161.1830  203.6550  145.7370 C   0  0  0  0  0  2  0  0  0  0  0  0
  1 26  2  0  0  0  0
  3 16  1  0  0  0  0
  4 23  1  0  0  0  0
  5 15  1  0  0  0  0
  6  7  1  0  0  0  0
  7  3  1  0  0  0  0
  8 12  1  0  0  0  0
  8 16  1  0  0  0  0
  9 27  1  0  0  0  0
 10 22  1  0  0  0  0
 10 17  1  0  0  0  0
 11 20  1  0  0  0  0
 11  5  2  0  0  0  0
 13  9  2  0  0  0  0
 13 20  1  0  0  0  0
 14  2  1  0  0  0  0
 15  4  2  0  0  0  0
 15 12  1  0  0  0  0
 17 28  1  6  0  0  0
 17 25  1  0  0  0  0
 18  1  1  0  0  0  0
 18  4  1  0  0  0  0
 19  5  1  0  0  0  0
 19  6  1  0  0  0  0
 20 18  2  0  0  0  0
 22 24  1  0  0  0  0
 23 21  2  0  0  0  0
 24 13  1  0  0  0  0
 25 14  1  1  0  0  0
 25  9  1  0  0  0  0
 26 21  1  0  0  0  0
 27  2  1  6  0  0  0
 27  1  1  0  0  0  0
 29 28  1  0  0  0  0
 30 34  1  0  0  0  0
 31 32  1  0  0  0  0
 32 29  1  1  0  0  0
 33 30  1  0  0  0  0
 33 31  1  0  0  0  0
 34 32  1  0  0  0  0
M  END
>  <MODEL>
6

>  <REMARK>
 VINA RESULT:      -7.3      3.954      9.178
  Name = 
  3 active torsions:
  status: ('A' for Active; 'I' for Inactive)
    1  A    between atoms: C_17  and  C_28
    2  A    between atoms: C_28  and  N_29
    3  A    between atoms: N_29  and  C_32
                            x       y       z     vdW  Elec       q    Type
                         _______ _______ _______ _____ _____    ______ ____

>  <TORSDO>
F 3

$$$$
=
 OpenBabel11122414253D

 34 40  0  0  1  0  0  0  0  0999 V2000
  161.0090  205.3890  152.5730 C   0  0  0  0  0  0  0  0  0  0  0  0
  160.8400  206.2290  154.9930 C   0  0  0  0  0  2  0  0  0  0  0  0
  160.6040  204.4430  145.0830 C   0  0  0  0  0  2  0  0  0  0  0  0
  161.2040  204.7240  150.2560 C   0  0  0  0  0  0  0  0  0  0  0  0
  161.4040  206.4370  148.5460 C   0  0  0  0  0  0  0  0  0  0  0  0
  160.4040  206.6230  146.2660 C   0  0  0  0  0  2  0  0  0  0  0  0
  160.8420  205.9420  144.9800 C   0  0  0  0  0  2  0  0  0  0  0  0
  162.8070  204.0090  146.8070 S   0  0  0  0  0  0  0  0  0  0  0  0
  160.9880  207.7320  153.1600 C   0  0  0  0  0  0  0  0  0  0  0  0
  161.3010  210.9440  153.4800 C   0  0  0  0  0  2  0  0  0  0  0  0
  161.3350  207.3940  149.5110 N   0  0  0  0  0  0  0  0  0  0  0  0
  161.3280  203.9680  147.8730 C   0  0  0  0  0  2  0  0  0  0  0  0
  161.1190  208.1130  151.8040 C   0  0  0  0  0  0  0  0  0  0  0  0
  161.0260  207.6470  155.5370 C   0  0  0  0  0  2  0  0  0  0  0  0
  161.3430  205.0660  148.9010 C   0  0  0  0  0  0  0  0  0  0  0  0
  161.8990  203.6480  145.2570 C   0  0  0  0  0  2  0  0  0  0  0  0
  161.8340  209.7770  154.3250 C   0  0  2  0  0  3  0  0  0  0  0  0
  161.1320  205.7380  151.2220 C   0  0  2  0  0  3  0  0  0  0  0  0
  161.6200  206.8890  147.1340 C   0  0  0  0  0  2  0  0  0  0  0  0
  161.1940  207.0920  150.8300 C   0  0  0  0  0  0  0  0  0  0  0  0
  161.0190  203.0040  151.9180 C   0  0  0  0  0  3  0  0  0  0  0  0
  160.5220  210.5290  152.2300 C   0  0  0  0  0  2  0  0  0  0  0  0
  161.1360  203.3450  150.6670 N   0  0  0  0  0  0  0  0  0  0  0  0
  161.3150  209.5470  151.3810 C   0  0  0  0  0  2  0  0  0  0  0  0
  160.8330  208.6130  154.3550 C   0  0  1  0  0  3  0  0  0  0  0  0
  160.9530  204.0070  152.9410 N   0  0  0  0  0  0  0  0  0  0  0  0
  160.9460  206.4050  153.5270 C   0  0  0  0  0  0  0  0  0  0  0  0
  162.1540  210.3040  155.7200 C   0  0  0  0  0  2  0  0  0  0  0  0
  163.0260  211.4630  155.6260 N   0  0  0  0  0  2  0  0  0  0  0  0
  165.9650  212.6430  155.4010 O   0  0  0  0  0  0  0  0  0  0  0  0
  164.7660  211.8190  157.2610 C   0  0  0  0  0  2  0  0  0  0  0  0
  164.3510  211.0390  156.0480 C   0  0  2  0  0  3  0  0  0  0  0  0
  165.9750  212.5970  156.8010 C   0  0  0  0  0  2  0  0  0  0  0  0
  165.3630  211.4420  155.0000 C   0  0  0  0  0  2  0  0  0  0  0  0
  1 26  1  0  0  0  0
  1 27  2  0  0  0  0
  2 14  1  0  0  0  0
  3 16  1  0  0  0  0
  4 23  2  0  0  0  0
  5 15  2  0  0  0  0
  5 11  1  0  0  0  0
  6 19  1  0  0  0  0
  7  3  1  0  0  0  0
  7  6  1  0  0  0  0
  8 12  1  0  0  0  0
  9 27  1  0  0  0  0
  9 25  1  0  0  0  0
 10 17  1  0  0  0  0
 11 20  2  0  0  0  0
 12 15  1  0  0  0  0
 13  9  2  0  0  0  0
 15  4  1  0  0  0  0
 16  8  1  0  0  0  0
 17 25  1  0  0  0  0
 17 28  1  1  0  0  0
 18  4  1  1  0  0  0
 18  1  1  0  0  0  0
 19  5  1  0  0  0  0
 20 18  1  0  0  0  0
 20 13  1  0  0  0  0
 21 26  2  0  0  0  0
 22 10  1  0  0  0  0
 23 21  1  0  0  0  0
 24 13  1  0  0  0  0
 24 22  1  0  0  0  0
 25 14  1  1  0  0  0
 27  2  1  0  0  0  0
 29 28  1  0  0  0  0
 30 33  1  0  0  0  0
 32 29  1  6  0  0  0
 32 31  1  0  0  0  0
 33 31  1  0  0  0  0
 34 30  1  0  0  0  0
 34 32  1  0  0  0  0
M  END
>  <MODEL>
7

>  <REMARK>
 VINA RESULT:      -6.2      1.814      2.417
  Name = 
  3 active torsions:
  status: ('A' for Active; 'I' for Inactive)
    1  A    between atoms: C_17  and  C_28
    2  A    between atoms: C_28  and  N_29
    3  A    between atoms: N_29  and  C_32
                            x       y       z     vdW  Elec       q    Type
                         _______ _______ _______ _____ _____    ______ ____

>  <TORSDO>
F 3

$$$$
