=
 OpenBabel11122413173D

 31 35  0  0  1  0  0  0  0  0999 V2000
  160.9260  202.1130  150.6910 C   0  0  0  0  0  0  0  0  0  0  0  0
  161.2270  205.5360  149.1520 C   0  0  0  0  0  0  0  0  0  0  0  0
  161.2950  205.3580  147.7370 C   0  0  0  0  0  0  0  0  0  0  0  0
  161.1050  208.0350  153.7990 O   0  0  0  0  0  0  0  0  0  0  0  0
  161.2230  208.8800  152.8730 C   0  0  0  0  0  0  0  0  0  0  0  0
  161.3320  203.9730  145.5820 C   0  0  0  0  0  0  0  0  0  0  0  0
  161.1070  204.4760  150.1000 C   0  0  0  0  0  0  0  0  0  0  0  0
  160.8700  202.4420  152.0450 C   0  0  0  0  0  3  0  0  0  0  0  0
  161.2480  203.9910  147.0840 C   0  0  0  0  0  2  0  0  0  0  0  0
  161.2200  207.1150  151.0230 C   0  0  0  0  0  0  0  0  0  0  0  0
  160.8660  200.7840  150.2980 O   0  0  0  0  0  1  0  0  0  0  0  0
  161.4590  207.7310  147.4700 N   0  0  0  0  0  0  0  0  0  0  0  0
  161.2930  202.7800  144.9400 F   0  0  0  0  0  0  0  0  0  0  0  0
  161.1050  206.0800  151.8940 N   0  0  0  0  0  0  0  0  0  0  0  0
  161.2810  206.8640  149.6470 C   0  0  0  0  0  0  0  0  0  0  0  0
  161.2780  208.4660  151.5010 N   0  0  0  0  0  2  0  0  0  0  0  0
  161.0440  203.1200  149.7320 C   0  0  0  0  0  3  0  0  0  0  0  0
  161.4420  205.0880  144.8640 C   0  0  0  0  0  3  0  0  0  0  0  0
  161.0490  204.7920  151.4810 C   0  0  0  0  0  0  0  0  0  0  0  0
  160.9320  203.7790  152.4380 C   0  0  0  0  0  3  0  0  0  0  0  0
  161.3960  207.9080  148.7860 N   0  0  0  0  0  0  0  0  0  0  0  0
  161.4130  206.4960  146.9180 C   0  0  0  0  0  0  0  0  0  0  0  0
  161.4850  206.3650  145.4980 N   0  0  0  0  0  2  0  0  0  0  0  0
  160.3470  210.8920  155.8980 C   0  0  1  0  0  3  0  0  0  0  0  0
  162.2010  210.5810  154.4400 C   0  0  0  0  0  2  0  0  0  0  0  0
  159.0460  210.6480  152.4250 F   0  0  0  0  0  0  0  0  0  0  0  0
  159.7520  210.5180  157.2390 C   0  0  0  0  0  1  0  0  0  0  0  0
  161.5610  210.1120  155.6710 N   0  0  0  0  0  2  0  0  0  0  0  0
  159.9210  210.9810  153.4420 C   0  0  2  0  0  3  0  0  0  0  0  0
  161.2980  210.3370  153.2250 C   0  0  2  0  0  3  0  0  0  0  0  0
  159.3280  210.6070  154.7980 C   0  0  0  0  0  2  0  0  0  0  0  0
  1  8  1  0  0  0  0
  2 15  1  0  0  0  0
  2  7  1  0  0  0  0
  3  2  2  0  0  0  0
  5  4  2  0  0  0  0
  6  9  1  0  0  0  0
  7 19  2  0  0  0  0
  8 20  2  0  0  0  0
  9  3  1  0  0  0  0
 10 16  1  0  0  0  0
 10 14  2  0  0  0  0
 11  1  1  0  0  0  0
 12 21  1  0  0  0  0
 13  6  1  0  0  0  0
 15 10  1  0  0  0  0
 16  5  1  0  0  0  0
 17  7  1  0  0  0  0
 17  1  2  0  0  0  0
 18 23  1  0  0  0  0
 18  6  2  0  0  0  0
 19 14  1  0  0  0  0
 19 20  1  0  0  0  0
 21 15  2  0  0  0  0
 22 12  2  0  0  0  0
 22  3  1  0  0  0  0
 23 22  1  0  0  0  0
 24 27  1  1  0  0  0
 25 28  1  0  0  0  0
 28 24  1  0  0  0  0
 29 26  1  6  0  0  0
 29 31  1  0  0  0  0
 30  5  1  1  0  0  0
 30 29  1  0  0  0  0
 30 25  1  0  0  0  0
 31 24  1  0  0  0  0
M  END
>  <MODEL>
1

>  <REMARK>
 VINA RESULT:     -11.0      0.000      0.000
  Name = 
  1 active torsions:
  status: ('A' for Active; 'I' for Inactive)
    1  A    between atoms: C_5  and  C_30
                            x       y       z     vdW  Elec       q    Type
                         _______ _______ _______ _____ _____    ______ ____

>  <TORSDO>
F 1

$$$$
=
 OpenBabel11122413173D

 31 35  0  0  1  0  0  0  0  0999 V2000
  160.8580  202.1030  150.6850 C   0  0  0  0  0  0  0  0  0  0  0  0
  161.3010  205.5280  149.1840 C   0  0  0  0  0  0  0  0  0  0  0  0
  161.3830  205.3610  147.7690 C   0  0  0  0  0  0  0  0  0  0  0  0
  161.2020  207.9850  153.8540 O   0  0  0  0  0  0  0  0  0  0  0  0
  161.3630  208.8350  152.9380 C   0  0  0  0  0  0  0  0  0  0  0  0
  161.4010  203.9960  145.6000 C   0  0  0  0  0  0  0  0  0  0  0  0
  161.1300  204.4640  150.1200 C   0  0  0  0  0  0  0  0  0  0  0  0
  160.7950  202.4220  152.0410 C   0  0  0  0  0  3  0  0  0  0  0  0
  161.2960  204.0030  147.1010 C   0  0  0  0  0  2  0  0  0  0  0  0
  161.3240  207.0880  151.0710 C   0  0  0  0  0  0  0  0  0  0  0  0
  160.7560  200.7810  150.2770 O   0  0  0  0  0  1  0  0  0  0  0  0
  161.6350  207.7290  147.5270 N   0  0  0  0  0  0  0  0  0  0  0  0
  161.3290  202.8120  144.9470 F   0  0  0  0  0  0  0  0  0  0  0  0
  161.1610  206.0500  151.9290 N   0  0  0  0  0  0  0  0  0  0  0  0
  161.3960  206.8490  149.6930 C   0  0  0  0  0  0  0  0  0  0  0  0
  161.4230  208.4320  151.5640 N   0  0  0  0  0  2  0  0  0  0  0  0
  161.0240  203.1150  149.7380 C   0  0  0  0  0  3  0  0  0  0  0  0
  161.5600  205.1130  144.8960 C   0  0  0  0  0  3  0  0  0  0  0  0
  161.0640  204.7690  151.5030 C   0  0  0  0  0  0  0  0  0  0  0  0
  160.8980  203.7510  152.4480 C   0  0  0  0  0  3  0  0  0  0  0  0
  161.5590  207.8960  148.8440 N   0  0  0  0  0  0  0  0  0  0  0  0
  161.5530  206.5020  146.9630 C   0  0  0  0  0  0  0  0  0  0  0  0
  161.6400  206.3820  145.5430 N   0  0  0  0  0  2  0  0  0  0  0  0
  158.9730  211.4400  154.1500 C   0  0  1  0  0  3  0  0  0  0  0  0
  161.0870  210.5360  154.7640 C   0  0  0  0  0  2  0  0  0  0  0  0
  160.9390  210.9050  151.0420 F   0  0  0  0  0  0  0  0  0  0  0  0
  157.4870  211.4110  154.4360 C   0  0  0  0  0  1  0  0  0  0  0  0
  159.6390  210.4070  154.9420 N   0  0  0  0  0  2  0  0  0  0  0  0
  160.7040  211.2160  152.3680 C   0  0  2  0  0  3  0  0  0  0  0  0
  161.4860  210.2850  153.3060 C   0  0  2  0  0  3  0  0  0  0  0  0
  159.2050  211.1900  152.6630 C   0  0  0  0  0  2  0  0  0  0  0  0
  1  8  1  0  0  0  0
  2 15  1  0  0  0  0
  2  7  1  0  0  0  0
  3  2  2  0  0  0  0
  5  4  2  0  0  0  0
  6  9  1  0  0  0  0
  7 19  2  0  0  0  0
  8 20  2  0  0  0  0
  9  3  1  0  0  0  0
 10 16  1  0  0  0  0
 10 14  2  0  0  0  0
 11  1  1  0  0  0  0
 12 21  1  0  0  0  0
 13  6  1  0  0  0  0
 15 10  1  0  0  0  0
 16  5  1  0  0  0  0
 17  7  1  0  0  0  0
 17  1  2  0  0  0  0
 18 23  1  0  0  0  0
 18  6  2  0  0  0  0
 19 14  1  0  0  0  0
 19 20  1  0  0  0  0
 21 15  2  0  0  0  0
 22 12  2  0  0  0  0
 22  3  1  0  0  0  0
 23 22  1  0  0  0  0
 24 27  1  6  0  0  0
 24 28  1  0  0  0  0
 25 28  1  0  0  0  0
 29 26  1  6  0  0  0
 29 31  1  0  0  0  0
 29 30  1  0  0  0  0
 30  5  1  6  0  0  0
 30 25  1  0  0  0  0
 31 24  1  0  0  0  0
M  END
>  <MODEL>
2

>  <REMARK>
 VINA RESULT:     -10.8      0.877      1.097
  Name = 
  1 active torsions:
  status: ('A' for Active; 'I' for Inactive)
    1  A    between atoms: C_5  and  C_30
                            x       y       z     vdW  Elec       q    Type
                         _______ _______ _______ _____ _____    ______ ____

>  <TORSDO>
F 1

$$$$
=
 OpenBabel11122413173D

 31 35  0  0  1  0  0  0  0  0999 V2000
  161.0890  204.4670  152.1840 C   0  0  0  0  0  0  0  0  0  0  0  0
  161.3460  205.6680  148.6250 C   0  0  0  0  0  0  0  0  0  0  0  0
  161.2690  204.5170  147.7850 C   0  0  0  0  0  0  0  0  0  0  0  0
  161.7600  210.7500  149.9860 O   0  0  0  0  0  0  0  0  0  0  0  0
  161.8140  210.6480  148.7320 C   0  0  0  0  0  0  0  0  0  0  0  0
  161.0500  202.0070  147.3180 C   0  0  0  0  0  0  0  0  0  0  0  0
  161.2860  205.6400  150.0500 C   0  0  0  0  0  0  0  0  0  0  0  0
  161.1760  205.6770  152.8720 C   0  0  0  0  0  3  0  0  0  0  0  0
  161.1140  203.1140  148.3360 C   0  0  0  0  0  2  0  0  0  0  0  0
  161.5730  208.1030  148.7540 C   0  0  0  0  0  0  0  0  0  0  0  0
  160.9470  203.2790  152.8860 O   0  0  0  0  0  1  0  0  0  0  0  0
  161.4820  205.9310  145.8660 N   0  0  0  0  0  0  0  0  0  0  0  0
  160.9100  200.7300  147.7510 F   0  0  0  0  0  0  0  0  0  0  0  0
  161.5120  208.0350  150.1080 N   0  0  0  0  0  0  0  0  0  0  0  0
  161.4910  206.9300  147.9930 C   0  0  0  0  0  0  0  0  0  0  0  0
  161.7210  209.3680  148.0940 N   0  0  0  0  0  2  0  0  0  0  0  0
  161.1430  204.4520  150.7900 C   0  0  0  0  0  3  0  0  0  0  0  0
  161.1240  202.2410  146.0110 C   0  0  0  0  0  3  0  0  0  0  0  0
  161.3730  206.8600  150.7670 C   0  0  0  0  0  0  0  0  0  0  0  0
  161.3190  206.8700  152.1640 C   0  0  0  0  0  3  0  0  0  0  0  0
  161.5540  207.0110  146.6380 N   0  0  0  0  0  0  0  0  0  0  0  0
  161.3420  204.6920  146.3900 C   0  0  0  0  0  0  0  0  0  0  0  0
  161.2700  203.5680  145.5120 N   0  0  0  0  0  2  0  0  0  0  0  0
  159.9980  213.9090  148.5420 C   0  0  1  0  0  3  0  0  0  0  0  0
  162.2310  213.1240  148.7830 C   0  0  0  0  0  2  0  0  0  0  0  0
  160.4420  211.0010  146.2710 F   0  0  0  0  0  0  0  0  0  0  0  0
  158.7920  214.4530  149.2790 C   0  0  0  0  0  1  0  0  0  0  0  0
  161.0210  213.5160  149.5090 N   0  0  0  0  0  2  0  0  0  0  0  0
  160.7870  212.1470  146.9630 C   0  0  2  0  0  3  0  0  0  0  0  0
  161.9700  211.8920  147.9080 C   0  0  2  0  0  3  0  0  0  0  0  0
  159.5750  212.7020  147.7090 C   0  0  0  0  0  2  0  0  0  0  0  0
  1  8  1  0  0  0  0
  1 11  1  0  0  0  0
  2  7  1  0  0  0  0
  3  9  1  0  0  0  0
  3  2  2  0  0  0  0
  5  4  2  0  0  0  0
  6 13  1  0  0  0  0
  6  9  1  0  0  0  0
  7 19  2  0  0  0  0
  7 17  1  0  0  0  0
 10 14  2  0  0  0  0
 12 22  2  0  0  0  0
 12 21  1  0  0  0  0
 14 19  1  0  0  0  0
 15  2  1  0  0  0  0
 15 10  1  0  0  0  0
 16  5  1  0  0  0  0
 16 10  1  0  0  0  0
 17  1  2  0  0  0  0
 18  6  2  0  0  0  0
 19 20  1  0  0  0  0
 20  8  2  0  0  0  0
 21 15  2  0  0  0  0
 22  3  1  0  0  0  0
 23 18  1  0  0  0  0
 23 22  1  0  0  0  0
 24 27  1  1  0  0  0
 24 28  1  0  0  0  0
 25 28  1  0  0  0  0
 29 26  1  1  0  0  0
 29 31  1  0  0  0  0
 29 30  1  0  0  0  0
 30  5  1  1  0  0  0
 30 25  1  0  0  0  0
 31 24  1  0  0  0  0
M  END
>  <MODEL>
3

>  <REMARK>
 VINA RESULT:      -9.9      3.389      4.321
  Name = 
  1 active torsions:
  status: ('A' for Active; 'I' for Inactive)
    1  A    between atoms: C_5  and  C_30
                            x       y       z     vdW  Elec       q    Type
                         _______ _______ _______ _____ _____    ______ ____

>  <TORSDO>
F 1

$$$$
=
 OpenBabel11122413173D

 31 35  0  0  1  0  0  0  0  0999 V2000
  161.7970  206.8820  147.2360 C   0  0  0  0  0  0  0  0  0  0  0  0
  161.2530  205.1290  150.5240 C   0  0  0  0  0  0  0  0  0  0  0  0
  161.1180  203.7360  150.2420 C   0  0  0  0  0  0  0  0  0  0  0  0
  161.5040  209.5780  153.3520 O   0  0  0  0  0  0  0  0  0  0  0  0
  161.2970  208.6040  154.1230 C   0  0  0  0  0  0  0  0  0  0  0  0
  161.0320  201.6870  148.7060 C   0  0  0  0  0  0  0  0  0  0  0  0
  161.4730  206.1400  149.5410 C   0  0  0  0  0  0  0  0  0  0  0  0
  161.9090  208.2040  147.6640 C   0  0  0  0  0  3  0  0  0  0  0  0
  161.1950  203.1770  148.8350 C   0  0  0  0  0  2  0  0  0  0  0  0
  161.2850  206.8830  152.2310 C   0  0  0  0  0  0  0  0  0  0  0  0
  161.8990  206.5780  145.8860 O   0  0  0  0  0  1  0  0  0  0  0  0
  160.8280  203.3150  152.5800 N   0  0  0  0  0  0  0  0  0  0  0  0
  161.0930  201.1290  147.4730 F   0  0  0  0  0  0  0  0  0  0  0  0
  161.4940  207.8150  151.2680 N   0  0  0  0  0  0  0  0  0  0  0  0
  161.1620  205.5330  151.8810 C   0  0  0  0  0  0  0  0  0  0  0  0
  161.1890  207.2700  153.6100 N   0  0  0  0  0  2  0  0  0  0  0  0
  161.5810  205.8640  148.1660 C   0  0  0  0  0  3  0  0  0  0  0  0
  160.8310  200.9020  149.7610 C   0  0  0  0  0  3  0  0  0  0  0  0
  161.5900  207.4900  149.9570 C   0  0  0  0  0  0  0  0  0  0  0  0
  161.8050  208.5070  149.0210 C   0  0  0  0  0  3  0  0  0  0  0  0
  160.9520  204.6100  152.8540 N   0  0  0  0  0  0  0  0  0  0  0  0
  160.9030  202.8480  151.3120 C   0  0  0  0  0  0  0  0  0  0  0  0
  160.7620  201.4470  151.0760 N   0  0  0  0  0  2  0  0  0  0  0  0
  159.5220  211.1560  156.1980 C   0  0  1  0  0  3  0  0  0  0  0  0
  159.7120  208.7880  156.0620 C   0  0  0  0  0  2  0  0  0  0  0  0
  163.0790  210.3280  155.5070 F   0  0  0  0  0  0  0  0  0  0  0  0
  158.6640  212.3500  155.8380 C   0  0  0  0  0  1  0  0  0  0  0  0
  158.9560  209.9520  155.5940 N   0  0  0  0  0  2  0  0  0  0  0  0
  161.8120  210.1810  156.0410 C   0  0  2  0  0  3  0  0  0  0  0  0
  161.1710  208.8580  155.5960 C   0  0  2  0  0  3  0  0  0  0  0  0
  160.9410  211.3820  155.6830 C   0  0  0  0  0  2  0  0  0  0  0  0
  1  8  2  0  0  0  0
  1 17  1  0  0  0  0
  2 15  1  0  0  0  0
  3  2  2  0  0  0  0
  3 22  1  0  0  0  0
  4  5  2  0  0  0  0
  6  9  1  0  0  0  0
  6 18  2  0  0  0  0
  7 19  1  0  0  0  0
  7  2  1  0  0  0  0
  8 20  1  0  0  0  0
  9  3  1  0  0  0  0
 10 16  1  0  0  0  0
 11  1  1  0  0  0  0
 12 21  1  0  0  0  0
 13  6  1  0  0  0  0
 14 10  2  0  0  0  0
 15 10  1  0  0  0  0
 15 21  2  0  0  0  0
 16  5  1  0  0  0  0
 17  7  2  0  0  0  0
 18 23  1  0  0  0  0
 19 14  1  0  0  0  0
 20 19  2  0  0  0  0
 22 12  2  0  0  0  0
 23 22  1  0  0  0  0
 24 27  1  6  0  0  0
 28 25  1  0  0  0  0
 28 24  1  0  0  0  0
 29 26  1  6  0  0  0
 30  5  1  6  0  0  0
 30 29  1  0  0  0  0
 30 25  1  0  0  0  0
 31 29  1  0  0  0  0
 31 24  1  0  0  0  0
M  END
>  <MODEL>
4

>  <REMARK>
 VINA RESULT:      -9.8      2.600      4.179
  Name = 
  1 active torsions:
  status: ('A' for Active; 'I' for Inactive)
    1  A    between atoms: C_5  and  C_30
                            x       y       z     vdW  Elec       q    Type
                         _______ _______ _______ _____ _____    ______ ____

>  <TORSDO>
F 1

$$$$
=
 OpenBabel11122413173D

 31 35  0  0  1  0  0  0  0  0999 V2000
  160.8970  201.9250  150.5690 C   0  0  0  0  0  0  0  0  0  0  0  0
  161.2450  205.5560  149.6350 C   0  0  0  0  0  0  0  0  0  0  0  0
  161.3150  205.6200  148.2110 C   0  0  0  0  0  0  0  0  0  0  0  0
  161.1430  207.2290  154.6390 O   0  0  0  0  0  0  0  0  0  0  0  0
  161.2740  208.2180  153.8710 C   0  0  0  0  0  0  0  0  0  0  0  0
  161.3400  204.6220  145.8510 C   0  0  0  0  0  0  0  0  0  0  0  0
  161.1090  204.3520  150.3880 C   0  0  0  0  0  0  0  0  0  0  0  0
  160.8420  202.0200  151.9590 C   0  0  0  0  0  3  0  0  0  0  0  0
  161.2510  204.3860  147.3340 C   0  0  0  0  0  2  0  0  0  0  0  0
  161.2530  206.7930  151.7480 C   0  0  0  0  0  0  0  0  0  0  0  0
  160.8210  200.6830  149.9550 O   0  0  0  0  0  1  0  0  0  0  0  0
  161.5090  208.0020  148.3510 N   0  0  0  0  0  0  0  0  0  0  0  0
  161.2870  203.5570  145.0160 F   0  0  0  0  0  0  0  0  0  0  0  0
  161.1230  205.6270  152.4290 N   0  0  0  0  0  0  0  0  0  0  0  0
  161.3150  206.7800  150.3490 C   0  0  0  0  0  0  0  0  0  0  0  0
  161.3270  208.0430  152.4490 N   0  0  0  0  0  2  0  0  0  0  0  0
  161.0300  203.0790  149.7950 C   0  0  0  0  0  3  0  0  0  0  0  0
  161.4660  205.8420  145.3340 C   0  0  0  0  0  3  0  0  0  0  0  0
  161.0510  204.4290  151.8030 C   0  0  0  0  0  0  0  0  0  0  0  0
  160.9190  203.2690  152.5740 C   0  0  0  0  0  3  0  0  0  0  0  0
  161.4450  207.9540  149.6780 N   0  0  0  0  0  0  0  0  0  0  0  0
  161.4490  206.8790  147.5970 C   0  0  0  0  0  0  0  0  0  0  0  0
  161.5230  206.9910  146.1750 N   0  0  0  0  0  2  0  0  0  0  0  0
  159.3990  211.4140  153.3850 C   0  0  1  0  0  3  0  0  0  0  0  0
  160.0680  209.9940  155.1730 C   0  0  0  0  0  2  0  0  0  0  0  0
  162.8630  210.2570  152.6960 F   0  0  0  0  0  0  0  0  0  0  0  0
  158.2520  211.7990  152.4750 C   0  0  0  0  0  1  0  0  0  0  0  0
  159.0060  210.2690  154.2020 N   0  0  0  0  0  2  0  0  0  0  0  0
  161.7770  210.6670  153.4480 C   0  0  2  0  0  3  0  0  0  0  0  0
  161.3670  209.5920  154.4660 C   0  0  2  0  0  3  0  0  0  0  0  0
  160.6160  211.0580  152.5370 C   0  0  0  0  0  2  0  0  0  0  0  0
  1  8  1  0  0  0  0
  2 15  1  0  0  0  0
  2  7  1  0  0  0  0
  3  2  2  0  0  0  0
  5  4  2  0  0  0  0
  6  9  1  0  0  0  0
  7 19  2  0  0  0  0
  8 20  2  0  0  0  0
  9  3  1  0  0  0  0
 10 14  2  0  0  0  0
 10 16  1  0  0  0  0
 11  1  1  0  0  0  0
 12 21  1  0  0  0  0
 13  6  1  0  0  0  0
 15 10  1  0  0  0  0
 16  5  1  0  0  0  0
 17  7  1  0  0  0  0
 17  1  2  0  0  0  0
 18  6  2  0  0  0  0
 18 23  1  0  0  0  0
 19 14  1  0  0  0  0
 19 20  1  0  0  0  0
 21 15  2  0  0  0  0
 22  3  1  0  0  0  0
 22 12  2  0  0  0  0
 23 22  1  0  0  0  0
 24 27  1  6  0  0  0
 24 28  1  0  0  0  0
 28 25  1  0  0  0  0
 29 26  1  6  0  0  0
 29 30  1  0  0  0  0
 30  5  1  6  0  0  0
 30 25  1  0  0  0  0
 31 24  1  0  0  0  0
 31 29  1  0  0  0  0
M  END
>  <MODEL>
5

>  <REMARK>
 VINA RESULT:      -9.6      1.197      1.684
  Name = 
  1 active torsions:
  status: ('A' for Active; 'I' for Inactive)
    1  A    between atoms: C_5  and  C_30
                            x       y       z     vdW  Elec       q    Type
                         _______ _______ _______ _____ _____    ______ ____

>  <TORSDO>
F 1

$$$$
=
 OpenBabel11122413173D

 31 35  0  0  1  0  0  0  0  0999 V2000
  161.8300  206.6270  147.1140 C   0  0  0  0  0  0  0  0  0  0  0  0
  161.2770  205.6170  150.6990 C   0  0  0  0  0  0  0  0  0  0  0  0
  161.1330  204.1980  150.7200 C   0  0  0  0  0  0  0  0  0  0  0  0
  161.5600  210.5640  152.5160 O   0  0  0  0  0  0  0  0  0  0  0  0
  161.3470  209.7780  153.4760 C   0  0  0  0  0  0  0  0  0  0  0  0
  161.0320  201.8690  149.6550 C   0  0  0  0  0  0  0  0  0  0  0  0
  161.5040  206.3940  149.5230 C   0  0  0  0  0  0  0  0  0  0  0  0
  161.9510  208.0090  147.2500 C   0  0  0  0  0  3  0  0  0  0  0  0
  161.2060  203.3520  149.4640 C   0  0  0  0  0  2  0  0  0  0  0  0
  161.3230  207.6950  151.9940 C   0  0  0  0  0  0  0  0  0  0  0  0
  161.9290  206.0420  145.8590 O   0  0  0  0  0  1  0  0  0  0  0  0
  160.8430  204.2850  153.0940 N   0  0  0  0  0  0  0  0  0  0  0  0
  161.0890  201.0600  148.5690 F   0  0  0  0  0  0  0  0  0  0  0  0
  161.5370  208.3990  150.8540 N   0  0  0  0  0  0  0  0  0  0  0  0
  161.1910  206.3020  151.9390 C   0  0  0  0  0  0  0  0  0  0  0  0
  161.2300  208.3660  153.2590 N   0  0  0  0  0  2  0  0  0  0  0  0
  161.6080  205.8310  148.2390 C   0  0  0  0  0  3  0  0  0  0  0  0
  160.8280  201.3280  150.8530 C   0  0  0  0  0  3  0  0  0  0  0  0
  161.6300  207.8020  149.6430 C   0  0  0  0  0  0  0  0  0  0  0  0
  161.8510  208.5940  148.5120 C   0  0  0  0  0  3  0  0  0  0  0  0
  160.9760  205.6080  153.0860 N   0  0  0  0  0  0  0  0  0  0  0  0
  160.9130  203.5590  151.9540 C   0  0  0  0  0  0  0  0  0  0  0  0
  160.7630  202.1410  152.0220 N   0  0  0  0  0  2  0  0  0  0  0  0
  160.4700  208.3470  156.8150 C   0  0  1  0  0  3  0  0  0  0  0  0
  162.1940  209.6630  155.8370 C   0  0  0  0  0  2  0  0  0  0  0  0
  158.8820  210.7660  154.4830 F   0  0  0  0  0  0  0  0  0  0  0  0
  160.0810  206.9530  157.2610 C   0  0  0  0  0  1  0  0  0  0  0  0
  161.7640  208.2960  156.1390 N   0  0  0  0  0  2  0  0  0  0  0  0
  159.7910  210.2930  155.4110 C   0  0  2  0  0  3  0  0  0  0  0  0
  161.2250  210.3410  154.8620 C   0  0  2  0  0  3  0  0  0  0  0  0
  159.4050  208.8880  155.8660 C   0  0  0  0  0  2  0  0  0  0  0  0
  1  8  2  0  0  0  0
  1 17  1  0  0  0  0
  2  3  2  0  0  0  0
  2 15  1  0  0  0  0
  3 22  1  0  0  0  0
  4  5  2  0  0  0  0
  6 18  2  0  0  0  0
  7 19  1  0  0  0  0
  7  2  1  0  0  0  0
  8 20  1  0  0  0  0
  9  6  1  0  0  0  0
  9  3  1  0  0  0  0
 10 16  1  0  0  0  0
 11  1  1  0  0  0  0
 13  6  1  0  0  0  0
 14 10  2  0  0  0  0
 15 10  1  0  0  0  0
 15 21  2  0  0  0  0
 16  5  1  0  0  0  0
 17  7  2  0  0  0  0
 18 23  1  0  0  0  0
 19 14  1  0  0  0  0
 20 19  2  0  0  0  0
 21 12  1  0  0  0  0
 22 23  1  0  0  0  0
 22 12  2  0  0  0  0
 24 27  1  6  0  0  0
 25 28  1  0  0  0  0
 28 24  1  0  0  0  0
 29 26  1  6  0  0  0
 29 31  1  0  0  0  0
 30  5  1  6  0  0  0
 30 29  1  0  0  0  0
 30 25  1  0  0  0  0
 31 24  1  0  0  0  0
M  END
>  <MODEL>
6

>  <REMARK>
 VINA RESULT:      -9.0      2.359      4.179
  Name = 
  1 active torsions:
  status: ('A' for Active; 'I' for Inactive)
    1  A    between atoms: C_5  and  C_30
                            x       y       z     vdW  Elec       q    Type
                         _______ _______ _______ _____ _____    ______ ____

>  <TORSDO>
F 1

$$$$
