=
 OpenBabel11122413193D

 31 35  0  0  1  0  0  0  0  0999 V2000
  161.1050  201.4420  149.8870 C   0  0  0  0  0  0  0  0  0  0  0  0
  161.1380  205.2000  149.5960 C   0  0  0  0  0  0  0  0  0  0  0  0
  161.1060  205.5070  148.2040 C   0  0  0  0  0  0  0  0  0  0  0  0
  161.0410  204.8700  145.8450 C   0  0  0  0  0  0  0  0  0  0  0  0
  161.1370  203.8740  150.1350 C   0  0  0  0  0  0  0  0  0  0  0  0
  161.1380  201.2850  151.2720 C   0  0  0  0  0  3  0  0  0  0  0  0
  161.0710  204.5240  147.1980 C   0  0  0  0  0  3  0  0  0  0  0  0
  161.2040  206.0890  151.8930 C   0  0  0  0  0  0  0  0  0  0  0  0
  161.0740  200.3530  149.0830 F   0  0  0  0  0  0  0  0  0  0  0  0
  161.1430  207.8450  148.7300 N   0  0  0  0  0  0  0  0  0  0  0  0
  160.9970  203.6170  144.6240 Cl  0  0  0  0  0  0  0  0  0  0  0  0
  161.2030  204.7890  152.3950 C   0  0  0  0  0  3  0  0  0  0  0  0
  161.1720  206.2950  150.5040 C   0  0  0  0  0  0  0  0  0  0  0  0
  161.1050  202.7220  149.3290 C   0  0  0  0  0  3  0  0  0  0  0  0
  161.0450  206.2130  145.4690 C   0  0  0  0  0  3  0  0  0  0  0  0
  161.1700  203.6930  151.5430 C   0  0  0  0  0  0  0  0  0  0  0  0
  161.1700  202.4090  152.0970 C   0  0  0  0  0  3  0  0  0  0  0  0
  161.1740  207.5700  150.0320 N   0  0  0  0  0  0  0  0  0  0  0  0
  161.1100  206.8640  147.8010 C   0  0  0  0  0  0  0  0  0  0  0  0
  161.0800  207.2080  146.4460 C   0  0  0  0  0  3  0  0  0  0  0  0
  160.5930  206.1870  154.7690 O   0  0  0  0  0  0  0  0  0  0  0  0
  160.9220  207.2490  154.1740 C   0  0  0  0  0  0  0  0  0  0  0  0
  161.2370  207.2250  152.7720 N   0  0  0  0  0  2  0  0  0  0  0  0
  161.2520  211.0020  156.2790 C   0  0  1  0  0  3  0  0  0  0  0  0
  161.4860  209.6800  154.1920 C   0  0  0  0  0  2  0  0  0  0  0  0
  159.7340  207.7580  156.7410 O   0  0  0  0  0  0  0  0  0  0  0  0
  161.8430  211.9740  157.0840 O   0  0  0  0  0  1  0  0  0  0  0  0
  162.1900  210.6470  155.1360 C   0  0  0  0  0  2  0  0  0  0  0  0
  160.5080  208.6220  156.2500 C   0  0  0  0  0  0  0  0  0  0  0  0
  161.0080  208.4890  154.9020 N   0  0  0  0  0  0  0  0  0  0  0  0
  160.9560  209.7630  157.1130 C   0  0  0  0  0  2  0  0  0  0  0  0
  1  6  1  0  0  0  0
  2  5  2  0  0  0  0
  2 13  1  0  0  0  0
  3  2  1  0  0  0  0
  4  7  1  0  0  0  0
  5 16  1  0  0  0  0
  6 17  2  0  0  0  0
  7  3  2  0  0  0  0
  8 12  1  0  0  0  0
  8 23  1  0  0  0  0
  9  1  1  0  0  0  0
 10 18  2  0  0  0  0
 11  4  1  0  0  0  0
 13  8  2  0  0  0  0
 14  1  2  0  0  0  0
 14  5  1  0  0  0  0
 15  4  2  0  0  0  0
 15 20  1  0  0  0  0
 16 17  1  0  0  0  0
 16 12  2  0  0  0  0
 18 13  1  0  0  0  0
 19  3  1  0  0  0  0
 19 10  1  0  0  0  0
 20 19  2  0  0  0  0
 22 21  2  0  0  0  0
 22 30  1  0  0  0  0
 23 22  1  0  0  0  0
 24 27  1  1  0  0  0
 24 31  1  0  0  0  0
 25 30  1  0  0  0  0
 25 28  1  0  0  0  0
 28 24  1  0  0  0  0
 29 26  2  0  0  0  0
 29 31  1  0  0  0  0
 30 29  1  0  0  0  0
M  END
>  <MODEL>
1

>  <REMARK>
 VINA RESULT:      -9.7      0.000      0.000
  Name = 
  1 active torsions:
  status: ('A' for Active; 'I' for Inactive)
    1  A    between atoms: C_10  and  N_16
                            x       y       z     vdW  Elec       q    Type
                         _______ _______ _______ _____ _____    ______ ____

>  <TORSDO>
F 1

$$$$
=
 OpenBabel11122413193D

 31 35  0  0  1  0  0  0  0  0999 V2000
  161.2100  205.2180  145.4000 C   0  0  0  0  0  0  0  0  0  0  0  0
  161.1080  204.1140  149.0030 C   0  0  0  0  0  0  0  0  0  0  0  0
  161.1360  202.6890  148.9990 C   0  0  0  0  0  0  0  0  0  0  0  0
  161.2160  200.5260  147.8640 C   0  0  0  0  0  0  0  0  0  0  0  0
  161.1330  204.9300  147.8270 C   0  0  0  0  0  0  0  0  0  0  0  0
  161.1790  206.6040  145.5490 C   0  0  0  0  0  3  0  0  0  0  0  0
  161.1910  201.9220  147.8210 C   0  0  0  0  0  3  0  0  0  0  0  0
  161.0220  206.1620  150.3700 C   0  0  0  0  0  0  0  0  0  0  0  0
  161.2630  204.6720  144.1630 F   0  0  0  0  0  0  0  0  0  0  0  0
  161.0540  202.6920  151.3940 N   0  0  0  0  0  0  0  0  0  0  0  0
  161.2850  199.6070  146.3760 Cl  0  0  0  0  0  0  0  0  0  0  0  0
  161.0470  206.9360  149.2110 C   0  0  0  0  0  3  0  0  0  0  0  0
  161.0530  204.7620  150.2690 C   0  0  0  0  0  0  0  0  0  0  0  0
  161.1870  204.3950  146.5270 C   0  0  0  0  0  3  0  0  0  0  0  0
  161.1870  199.8660  149.0920 C   0  0  0  0  0  3  0  0  0  0  0  0
  161.1020  206.3430  147.9570 C   0  0  0  0  0  0  0  0  0  0  0  0
  161.1240  207.1640  146.8250 C   0  0  0  0  0  3  0  0  0  0  0  0
  161.0280  204.0230  151.4100 N   0  0  0  0  0  0  0  0  0  0  0  0
  161.1070  201.9990  150.2350 C   0  0  0  0  0  0  0  0  0  0  0  0
  161.1320  200.6020  150.2750 C   0  0  0  0  0  3  0  0  0  0  0  0
  161.3160  209.0060  151.0630 O   0  0  0  0  0  0  0  0  0  0  0  0
  161.1260  208.1660  151.9840 C   0  0  0  0  0  0  0  0  0  0  0  0
  160.9670  206.7730  151.6700 N   0  0  0  0  0  2  0  0  0  0  0  0
  160.8130  209.3790  156.1130 C   0  0  1  0  0  3  0  0  0  0  0  0
  160.7250  207.6040  154.3820 C   0  0  0  0  0  2  0  0  0  0  0  0
  162.0530  210.6940  152.9880 O   0  0  0  0  0  0  0  0  0  0  0  0
  160.2020  209.8830  157.2600 O   0  0  0  0  0  1  0  0  0  0  0  0
  159.9860  208.2300  155.5580 C   0  0  0  0  0  2  0  0  0  0  0  0
  161.3960  209.9420  153.7550 C   0  0  0  0  0  0  0  0  0  0  0  0
  161.0410  208.6010  153.3540 N   0  0  0  0  0  0  0  0  0  0  0  0
  160.9320  210.4850  155.0740 C   0  0  0  0  0  2  0  0  0  0  0  0
  1  6  2  0  0  0  0
  1 14  1  0  0  0  0
  2 13  1  0  0  0  0
  3  2  2  0  0  0  0
  3 19  1  0  0  0  0
  4 15  1  0  0  0  0
  5 16  1  0  0  0  0
  5  2  1  0  0  0  0
  6 17  1  0  0  0  0
  7  4  2  0  0  0  0
  7  3  1  0  0  0  0
  8 23  1  0  0  0  0
  9  1  1  0  0  0  0
 10 18  1  0  0  0  0
 11  4  1  0  0  0  0
 12  8  2  0  0  0  0
 13  8  1  0  0  0  0
 13 18  2  0  0  0  0
 14  5  2  0  0  0  0
 15 20  2  0  0  0  0
 16 12  1  0  0  0  0
 17 16  2  0  0  0  0
 19 20  1  0  0  0  0
 19 10  2  0  0  0  0
 21 22  2  0  0  0  0
 22 30  1  0  0  0  0
 23 22  1  0  0  0  0
 24 27  1  1  0  0  0
 25 28  1  0  0  0  0
 26 29  2  0  0  0  0
 28 24  1  0  0  0  0
 29 31  1  0  0  0  0
 30 29  1  0  0  0  0
 30 25  1  0  0  0  0
 31 24  1  0  0  0  0
M  END
>  <MODEL>
2

>  <REMARK>
 VINA RESULT:      -8.9      2.359      4.375
  Name = 
  1 active torsions:
  status: ('A' for Active; 'I' for Inactive)
    1  A    between atoms: C_10  and  N_16
                            x       y       z     vdW  Elec       q    Type
                         _______ _______ _______ _____ _____    ______ ____

>  <TORSDO>
F 1

$$$$
=
 OpenBabel11122413193D

 31 35  0  0  1  0  0  0  0  0999 V2000
  161.9500  210.7260  150.0040 C   0  0  0  0  0  0  0  0  0  0  0  0
  161.3580  207.2410  151.3100 C   0  0  0  0  0  0  0  0  0  0  0  0
  161.2110  207.3490  152.7250 C   0  0  0  0  0  0  0  0  0  0  0  0
  161.1400  208.6310  154.8040 C   0  0  0  0  0  0  0  0  0  0  0  0
  161.5980  208.3450  150.4320 C   0  0  0  0  0  0  0  0  0  0  0  0
  162.0730  210.4770  148.6380 C   0  0  0  0  0  3  0  0  0  0  0  0
  161.2890  208.5710  153.4170 C   0  0  0  0  0  3  0  0  0  0  0  0
  161.3860  205.7370  149.3590 C   0  0  0  0  0  0  0  0  0  0  0  0
  162.0590  211.9910  150.4740 F   0  0  0  0  0  0  0  0  0  0  0  0
  160.8920  204.9770  152.8610 N   0  0  0  0  0  0  0  0  0  0  0  0
  161.2430  210.1710  155.6290 Cl  0  0  0  0  0  0  0  0  0  0  0  0
  161.6200  206.8280  148.5240 C   0  0  0  0  0  3  0  0  0  0  0  0
  161.2550  205.9400  150.7430 C   0  0  0  0  0  0  0  0  0  0  0  0
  161.7160  209.6710  150.8870 C   0  0  0  0  0  3  0  0  0  0  0  0
  160.9080  207.4630  155.5310 C   0  0  0  0  0  3  0  0  0  0  0  0
  161.7250  208.1130  149.0380 C   0  0  0  0  0  0  0  0  0  0  0  0
  161.9610  209.1730  148.1570 C   0  0  0  0  0  3  0  0  0  0  0  0
  161.0280  204.8650  151.5420 N   0  0  0  0  0  0  0  0  0  0  0  0
  160.9750  206.1750  153.4810 C   0  0  0  0  0  0  0  0  0  0  0  0
  160.8270  206.2380  154.8700 C   0  0  0  0  0  3  0  0  0  0  0  0
  161.2210  204.9020  146.5420 O   0  0  0  0  0  0  0  0  0  0  0  0
  161.1840  204.0250  147.4460 C   0  0  0  0  0  0  0  0  0  0  0  0
  161.2750  204.4050  148.8290 N   0  0  0  0  0  2  0  0  0  0  0  0
  160.9040  199.8240  146.4990 C   0  0  1  0  0  3  0  0  0  0  0  0
  161.1310  201.6380  148.1760 C   0  0  0  0  0  2  0  0  0  0  0  0
  160.3190  203.0080  144.9010 O   0  0  0  0  0  0  0  0  0  0  0  0
  161.3570  198.5610  146.1190 O   0  0  0  0  0  1  0  0  0  0  0  0
  161.7130  200.3170  147.6880 C   0  0  0  0  0  2  0  0  0  0  0  0
  160.7720  202.2000  145.7540 C   0  0  0  0  0  0  0  0  0  0  0  0
  161.0750  202.6310  147.0980 N   0  0  0  0  0  0  0  0  0  0  0  0
  161.0540  200.7890  145.3310 C   0  0  0  0  0  2  0  0  0  0  0  0
  1  9  1  0  0  0  0
  1 14  1  0  0  0  0
  2  3  1  0  0  0  0
  3  7  2  0  0  0  0
  3 19  1  0  0  0  0
  4 15  2  0  0  0  0
  4 11  1  0  0  0  0
  5 14  2  0  0  0  0
  5  2  1  0  0  0  0
  6  1  2  0  0  0  0
  7  4  1  0  0  0  0
  8 13  1  0  0  0  0
 10 19  1  0  0  0  0
 12 16  1  0  0  0  0
 12  8  2  0  0  0  0
 13  2  2  0  0  0  0
 13 18  1  0  0  0  0
 16  5  1  0  0  0  0
 17  6  1  0  0  0  0
 17 16  2  0  0  0  0
 18 10  2  0  0  0  0
 19 20  2  0  0  0  0
 20 15  1  0  0  0  0
 21 22  2  0  0  0  0
 22 23  1  0  0  0  0
 23  8  1  0  0  0  0
 24 27  1  6  0  0  0
 24 28  1  0  0  0  0
 26 29  2  0  0  0  0
 28 25  1  0  0  0  0
 29 30  1  0  0  0  0
 30 22  1  0  0  0  0
 30 25  1  0  0  0  0
 31 29  1  0  0  0  0
 31 24  1  0  0  0  0
M  END
>  <MODEL>
3

>  <REMARK>
 VINA RESULT:      -8.2      5.038      9.251
  Name = 
  1 active torsions:
  status: ('A' for Active; 'I' for Inactive)
    1  A    between atoms: C_10  and  N_16
                            x       y       z     vdW  Elec       q    Type
                         _______ _______ _______ _____ _____    ______ ____

>  <TORSDO>
F 1

$$$$
=
 OpenBabel11122413193D

 31 35  0  0  1  0  0  0  0  0999 V2000
  160.9210  201.5460  149.8440 C   0  0  0  0  0  0  0  0  0  0  0  0
  161.2470  205.2990  149.7210 C   0  0  0  0  0  0  0  0  0  0  0  0
  161.2300  205.6700  148.3440 C   0  0  0  0  0  0  0  0  0  0  0  0
  161.1000  205.1470  145.9610 C   0  0  0  0  0  0  0  0  0  0  0  0
  161.1460  203.9540  150.2010 C   0  0  0  0  0  0  0  0  0  0  0  0
  160.9500  201.3250  151.2210 C   0  0  0  0  0  3  0  0  0  0  0  0
  161.1110  204.7390  147.2960 C   0  0  0  0  0  3  0  0  0  0  0  0
  161.3970  206.0750  152.0540 C   0  0  0  0  0  0  0  0  0  0  0  0
  160.8000  200.5000  148.9930 F   0  0  0  0  0  0  0  0  0  0  0  0
  161.4540  207.9710  148.9740 N   0  0  0  0  0  0  0  0  0  0  0  0
  160.9510  203.9590  144.6850 Cl  0  0  0  0  0  0  0  0  0  0  0  0
  161.2970  204.7580  152.4980 C   0  0  0  0  0  3  0  0  0  0  0  0
  161.3720  206.3460  150.6760 C   0  0  0  0  0  0  0  0  0  0  0  0
  161.0180  202.8460  149.3440 C   0  0  0  0  0  3  0  0  0  0  0  0
  161.2080  206.5010  145.6440 C   0  0  0  0  0  3  0  0  0  0  0  0
  161.1730  203.7070  151.5980 C   0  0  0  0  0  0  0  0  0  0  0  0
  161.0760  202.4040  152.0940 C   0  0  0  0  0  3  0  0  0  0  0  0
  161.4710  207.6370  150.2620 N   0  0  0  0  0  0  0  0  0  0  0  0
  161.3380  207.0400  148.0020 C   0  0  0  0  0  0  0  0  0  0  0  0
  161.3270  207.4450  146.6640 C   0  0  0  0  0  3  0  0  0  0  0  0
  160.0340  208.6820  152.0060 O   0  0  0  0  0  0  0  0  0  0  0  0
  160.8540  208.4350  152.9310 C   0  0  0  0  0  0  0  0  0  0  0  0
  161.5240  207.1650  152.9830 N   0  0  0  0  0  2  0  0  0  0  0  0
  161.6430  211.2910  156.0680 C   0  0  1  0  0  3  0  0  0  0  0  0
  161.9960  209.0510  155.0630 C   0  0  0  0  0  2  0  0  0  0  0  0
  160.2270  211.2340  152.7470 O   0  0  0  0  0  0  0  0  0  0  0  0
  161.4230  211.9850  157.2570 O   0  0  0  0  0  1  0  0  0  0  0  0
  161.6300  209.7960  156.3410 C   0  0  0  0  0  2  0  0  0  0  0  0
  160.6320  210.7750  153.8480 C   0  0  0  0  0  0  0  0  0  0  0  0
  161.1070  209.4150  153.9550 N   0  0  0  0  0  0  0  0  0  0  0  0
  160.5540  211.6470  155.0650 C   0  0  0  0  0  2  0  0  0  0  0  0
  1  6  1  0  0  0  0
  2  5  2  0  0  0  0
  2 13  1  0  0  0  0
  3  2  1  0  0  0  0
  4  7  1  0  0  0  0
  5 16  1  0  0  0  0
  6 17  2  0  0  0  0
  7  3  2  0  0  0  0
  8 12  1  0  0  0  0
  8 23  1  0  0  0  0
  9  1  1  0  0  0  0
 10 18  2  0  0  0  0
 11  4  1  0  0  0  0
 13  8  2  0  0  0  0
 14  1  2  0  0  0  0
 14  5  1  0  0  0  0
 15  4  2  0  0  0  0
 15 20  1  0  0  0  0
 16 17  1  0  0  0  0
 16 12  2  0  0  0  0
 18 13  1  0  0  0  0
 19  3  1  0  0  0  0
 19 10  1  0  0  0  0
 20 19  2  0  0  0  0
 21 22  2  0  0  0  0
 22 23  1  0  0  0  0
 22 30  1  0  0  0  0
 24 28  1  0  0  0  0
 24 27  1  1  0  0  0
 25 28  1  0  0  0  0
 26 29  2  0  0  0  0
 29 30  1  0  0  0  0
 29 31  1  0  0  0  0
 30 25  1  0  0  0  0
 31 24  1  0  0  0  0
M  END
>  <MODEL>
4

>  <REMARK>
 VINA RESULT:      -7.6      1.269      1.519
  Name = 
  1 active torsions:
  status: ('A' for Active; 'I' for Inactive)
    1  A    between atoms: C_10  and  N_16
                            x       y       z     vdW  Elec       q    Type
                         _______ _______ _______ _____ _____    ______ ____

>  <TORSDO>
F 1

$$$$
