=
 OpenBabel11122413333D

 37 43  0  0  1  0  0  0  0  0999 V2000
  161.9030  211.0280  149.0970 C   0  0  0  0  0  2  0  0  0  0  0  0
  161.4080  206.2660  148.9970 C   0  0  0  0  0  0  0  0  0  0  0  0
  161.0970  208.0840  152.7290 C   0  0  0  0  0  0  0  0  0  0  0  0
  162.3930  212.4430  148.8590 C   0  0  2  0  0  3  0  0  0  0  0  0
  159.1280  211.2170  152.7410 O   0  0  0  0  0  0  0  0  0  0  0  0
  161.7610  206.1100  151.4970 C   0  0  0  0  0  0  0  0  0  0  0  0
  160.7260  209.3160  152.3990 C   0  0  0  0  0  0  0  0  0  0  0  0
  160.4200  213.4490  150.0120 C   0  0  0  0  0  0  0  0  0  0  0  0
  161.5910  207.4220  151.5680 C   0  0  0  0  0  0  0  0  0  0  0  0
  159.9810  210.2480  153.3030 C   0  0  0  0  0  0  0  0  0  0  0  0
  161.6500  205.3180  152.7440 C   0  0  0  0  0  3  0  0  0  0  0  0
  161.2960  213.3450  148.9240 O   0  0  0  0  0  0  0  0  0  0  0  0
  161.5510  208.2730  150.4500 N   0  0  0  0  0  0  0  0  0  0  0  0
  159.9070  206.0290  149.0030 C   0  0  0  0  0  1  0  0  0  0  0  0
  161.2620  208.0220  155.1470 C   0  0  0  0  0  3  0  0  0  0  0  0
  161.2060  205.8840  153.8860 C   0  0  0  0  0  3  0  0  0  0  0  0
  161.6900  207.7820  149.0800 C   0  0  0  0  0  2  0  0  0  0  0  0
  160.4560  212.5250  151.2040 C   0  0  1  0  0  3  0  0  0  0  0  0
  159.1940  211.6830  151.3980 C   0  0  0  0  0  2  0  0  0  0  0  0
  160.7200  207.3250  153.9550 C   0  0  2  0  0  3  0  0  0  0  0  0
  160.9430  209.5260  150.9000 C   0  0  2  0  0  3  0  0  0  0  0  0
  162.0690  205.4900  150.1610 C   0  0  0  0  0  2  0  0  0  0  0  0
  160.0920  210.2220  154.6640 C   0  0  0  0  0  0  0  0  0  0  0  0
  161.9660  205.7440  147.6900 C   0  0  0  0  0  1  0  0  0  0  0  0
  161.6840  211.8490  151.4310 O   0  0  0  0  0  0  0  0  0  0  0  0
  159.5430  214.3510  149.9880 O   0  0  0  0  0  0  0  0  0  0  0  0
  161.8670  210.7140  150.5920 C   0  0  2  0  0  3  0  0  0  0  0  0
  160.9560  209.2870  155.4420 C   0  0  0  0  0  3  0  0  0  0  0  0
  160.0810  212.4670  155.7640 C   0  0  0  0  0  3  0  0  0  0  0  0
  159.4220  211.2580  155.4900 C   0  0  0  0  0  0  0  0  0  0  0  0
  158.1120  211.0760  155.9630 C   0  0  0  0  0  3  0  0  0  0  0  0
  156.2220  211.8810  157.1710 F   0  0  0  0  0  0  0  0  0  0  0  0
  158.1540  213.2660  156.9910 C   0  0  0  0  0  3  0  0  0  0  0  0
  157.4830  212.0720  156.7140 C   0  0  0  0  0  0  0  0  0  0  0  0
  159.4520  213.4640  156.5140 C   0  0  0  0  0  3  0  0  0  0  0  0
  162.3900  212.9680  146.5600 O   0  0  0  0  0  0  0  0  0  0  0  0
  163.0260  212.5420  147.5110 C   0  0  0  0  0  3  0  0  0  0  0  0
  2 14  1  0  0  0  0
  2 17  1  0  0  0  0
  2 22  1  0  0  0  0
  3 20  1  0  0  0  0
  4 37  1  6  0  0  0
  4 12  1  0  0  0  0
  4  1  1  0  0  0  0
  5 10  1  0  0  0  0
  6  9  2  0  0  0  0
  6 11  1  0  0  0  0
  7  3  2  0  0  0  0
  7 10  1  0  0  0  0
  8 18  1  0  0  0  0
  9  3  1  0  0  0  0
 10 23  2  0  0  0  0
 11 16  2  0  0  0  0
 12  8  1  0  0  0  0
 13 21  1  0  0  0  0
 13  9  1  0  0  0  0
 15 28  2  0  0  0  0
 17 13  1  0  0  0  0
 18 19  1  6  0  0  0
 18 25  1  0  0  0  0
 19  5  1  0  0  0  0
 20 16  1  6  0  0  0
 20 15  1  0  0  0  0
 21  7  1  1  0  0  0
 22  6  1  0  0  0  0
 23 28  1  0  0  0  0
 23 30  1  0  0  0  0
 24  2  1  0  0  0  0
 26  8  2  0  0  0  0
 27  1  1  6  0  0  0
 27 21  1  0  0  0  0
 27 25  1  0  0  0  0
 29 35  1  0  0  0  0
 30 29  2  0  0  0  0
 30 31  1  0  0  0  0
 31 34  2  0  0  0  0
 34 33  1  0  0  0  0
 34 32  1  0  0  0  0
 35 33  2  0  0  0  0
 36 37  2  0  0  0  0
M  END
>  <MODEL>
1

>  <REMARK>
 VINA RESULT:      -6.1      0.000      0.000
  Name = 
  2 active torsions:
  status: ('A' for Active; 'I' for Inactive)
    1  A    between atoms: C_4  and  C_37
    2  A    between atoms: C_23  and  C_30
                            x       y       z     vdW  Elec       q    Type
                         _______ _______ _______ _____ _____    ______ ____

>  <TORSDO>
F 2

$$$$
=
 OpenBabel11122413333D

 37 43  0  0  1  0  0  0  0  0999 V2000
  162.0710  210.2520  148.4640 C   0  0  0  0  0  2  0  0  0  0  0  0
  160.7180  206.1320  146.4320 C   0  0  0  0  0  0  0  0  0  0  0  0
  161.4190  206.0330  150.5340 C   0  0  0  0  0  0  0  0  0  0  0  0
  162.7570  211.5730  148.7520 C   0  0  2  0  0  3  0  0  0  0  0  0
  160.0800  208.9470  152.3820 O   0  0  0  0  0  0  0  0  0  0  0  0
  161.4840  204.8080  148.4490 C   0  0  0  0  0  0  0  0  0  0  0  0
  161.2220  207.3020  150.8730 C   0  0  0  0  0  0  0  0  0  0  0  0
  161.2380  212.0810  150.6680 C   0  0  0  0  0  0  0  0  0  0  0  0
  161.5670  205.9470  149.1200 C   0  0  0  0  0  0  0  0  0  0  0  0
  160.8320  207.7650  152.2420 C   0  0  0  0  0  0  0  0  0  0  0  0
  161.4590  203.5410  149.2150 C   0  0  0  0  0  3  0  0  0  0  0  0
  161.8700  212.4240  149.4660 O   0  0  0  0  0  0  0  0  0  0  0  0
  161.4800  207.2200  148.5290 N   0  0  0  0  0  0  0  0  0  0  0  0
  159.2250  206.0360  146.6990 C   0  0  0  0  0  1  0  0  0  0  0  0
  162.0040  204.8460  152.5670 C   0  0  0  0  0  3  0  0  0  0  0  0
  161.3380  203.5470  150.5580 C   0  0  0  0  0  3  0  0  0  0  0  0
  161.2780  207.4100  147.0930 C   0  0  0  0  0  2  0  0  0  0  0  0
  161.3220  210.7100  151.2920 C   0  0  1  0  0  3  0  0  0  0  0  0
  159.9850  209.9750  151.4020 C   0  0  0  0  0  2  0  0  0  0  0  0
  161.1400  204.8250  151.3610 C   0  0  2  0  0  3  0  0  0  0  0  0
  161.1980  208.1650  149.6100 C   0  0  2  0  0  3  0  0  0  0  0  0
  161.4280  204.8560  146.9460 C   0  0  0  0  0  2  0  0  0  0  0  0
  161.1810  207.1030  153.3860 C   0  0  0  0  0  0  0  0  0  0  0  0
  160.9280  206.2320  144.9360 C   0  0  0  0  0  1  0  0  0  0  0  0
  162.4290  209.9130  150.8990 O   0  0  0  0  0  0  0  0  0  0  0  0
  160.5480  212.9560  151.2510 O   0  0  0  0  0  0  0  0  0  0  0  0
  162.2500  209.2850  149.6340 C   0  0  2  0  0  3  0  0  0  0  0  0
  161.9890  205.8500  153.4450 C   0  0  0  0  0  3  0  0  0  0  0  0
  160.2400  206.9020  155.6920 C   0  0  0  0  0  3  0  0  0  0  0  0
  160.8690  207.6870  154.7130 C   0  0  0  0  0  0  0  0  0  0  0  0
  161.2400  209.0050  155.0340 C   0  0  0  0  0  3  0  0  0  0  0  0
  161.3210  210.8050  156.5930 F   0  0  0  0  0  0  0  0  0  0  0  0
  160.3280  208.7440  157.2600 C   0  0  0  0  0  3  0  0  0  0  0  0
  160.9650  209.5320  156.2990 C   0  0  0  0  0  0  0  0  0  0  0  0
  159.9660  207.4290  156.9580 C   0  0  0  0  0  3  0  0  0  0  0  0
  162.8030  213.3860  147.2440 O   0  0  0  0  0  0  0  0  0  0  0  0
  163.1430  212.2360  147.4710 C   0  0  0  0  0  3  0  0  0  0  0  0
  1  4  1  0  0  0  0
  2 14  1  0  0  0  0
  2 22  1  0  0  0  0
  2 17  1  0  0  0  0
  3  7  2  0  0  0  0
  3 20  1  0  0  0  0
  4 37  1  6  0  0  0
  4 12  1  0  0  0  0
  6  9  2  0  0  0  0
  6 11  1  0  0  0  0
  7 10  1  0  0  0  0
  8 26  2  0  0  0  0
  8 18  1  0  0  0  0
  9  3  1  0  0  0  0
 10  5  1  0  0  0  0
 10 23  2  0  0  0  0
 11 16  2  0  0  0  0
 12  8  1  0  0  0  0
 13  9  1  0  0  0  0
 13 21  1  0  0  0  0
 15 28  2  0  0  0  0
 17 13  1  0  0  0  0
 18 19  1  6  0  0  0
 19  5  1  0  0  0  0
 20 16  1  6  0  0  0
 20 15  1  0  0  0  0
 21 27  1  0  0  0  0
 21  7  1  1  0  0  0
 22  6  1  0  0  0  0
 23 28  1  0  0  0  0
 23 30  1  0  0  0  0
 24  2  1  0  0  0  0
 25 18  1  0  0  0  0
 27  1  1  6  0  0  0
 27 25  1  0  0  0  0
 29 35  1  0  0  0  0
 30 31  1  0  0  0  0
 30 29  2  0  0  0  0
 31 34  2  0  0  0  0
 34 32  1  0  0  0  0
 34 33  1  0  0  0  0
 35 33  2  0  0  0  0
 36 37  2  0  0  0  0
M  END
>  <MODEL>
2

>  <REMARK>
 VINA RESULT:      -4.6      2.107      3.220
  Name = 
  2 active torsions:
  status: ('A' for Active; 'I' for Inactive)
    1  A    between atoms: C_4  and  C_37
    2  A    between atoms: C_23  and  C_30
                            x       y       z     vdW  Elec       q    Type
                         _______ _______ _______ _____ _____    ______ ____

>  <TORSDO>
F 2

$$$$
