=
 OpenBabel11122413083D

 31 35  0  0  1  0  0  0  0  0999 V2000
  161.5740  208.7570  148.4290 C   0  0  0  0  0  0  0  0  0  0  0  0
  161.3240  207.4880  152.0300 C   0  0  0  0  0  0  0  0  0  0  0  0
  161.1760  206.0730  151.9750 C   0  0  0  0  0  0  0  0  0  0  0  0
  161.1390  203.9650  150.7470 C   0  0  0  0  0  0  0  0  0  0  0  0
  161.5970  208.3500  150.8320 C   0  0  0  0  0  0  0  0  0  0  0  0
  162.0790  210.0420  148.6330 C   0  0  0  0  0  3  0  0  0  0  0  0
  161.2830  205.3550  150.7720 C   0  0  0  0  0  3  0  0  0  0  0  0
  161.3680  209.6240  153.4130 C   0  0  2  0  0  3  0  0  0  0  0  0
  161.3120  208.3110  147.1410 O   0  0  0  0  0  1  0  0  0  0  0  0
  160.8480  206.0080  154.3920 C   0  0  0  0  0  3  0  0  0  0  0  0
  161.2510  203.2320  149.4590 C   0  0  0  0  0  1  0  0  0  0  0  0
  162.3810  210.1650  152.4050 C   0  0  0  0  0  2  0  0  0  0  0  0
  161.2470  208.1280  153.2930 C   0  0  0  0  0  0  0  0  0  0  0  0
  161.3320  207.9210  149.5210 C   0  0  0  0  0  3  0  0  0  0  0  0
  160.8880  203.2670  151.9280 C   0  0  0  0  0  3  0  0  0  0  0  0
  162.0850  209.6620  151.0240 C   0  0  0  0  0  0  0  0  0  0  0  0
  162.3360  210.4940  149.9290 C   0  0  0  0  0  3  0  0  0  0  0  0
  161.0050  207.3890  154.4520 C   0  0  0  0  0  3  0  0  0  0  0  0
  160.9330  205.3460  153.1700 C   0  0  0  0  0  0  0  0  0  0  0  0
  160.7870  203.9560  153.1380 C   0  0  0  0  0  3  0  0  0  0  0  0
  159.8230  211.0080  155.3910 O   0  0  0  0  0  0  0  0  0  0  0  0
  159.3280  210.8860  154.2370 C   0  0  0  0  0  0  0  0  0  0  0  0
  160.0710  210.2550  153.1940 N   0  0  0  0  0  2  0  0  0  0  0  0
  156.6260  213.6090  155.5760 C   0  0  1  0  0  3  0  0  0  0  0  0
  158.0020  212.8770  153.4980 C   0  0  0  0  0  2  0  0  0  0  0  0
  156.6560  209.9630  155.3130 O   0  0  0  0  0  0  0  0  0  0  0  0
  156.3610  214.4530  156.8040 C   0  0  0  0  0  1  0  0  0  0  0  0
  158.2690  214.0000  154.9070 S   0  0  0  0  0  0  0  0  0  0  0  0
  157.0040  211.1490  155.0730 C   0  0  0  0  0  0  0  0  0  0  0  0
  157.9590  211.4130  153.9400 C   0  0  2  0  0  3  0  0  0  0  0  0
  156.5360  212.1980  155.9250 N   0  0  0  0  0  2  0  0  0  0  0  0
  1  6  2  0  0  0  0
  1 14  1  0  0  0  0
  2 13  1  0  0  0  0
  3  2  2  0  0  0  0
  3 19  1  0  0  0  0
  4  7  2  0  0  0  0
  4 15  1  0  0  0  0
  5 16  1  0  0  0  0
  5  2  1  0  0  0  0
  6 17  1  0  0  0  0
  7  3  1  0  0  0  0
  8 23  1  6  0  0  0
  9  1  1  0  0  0  0
 10 18  1  0  0  0  0
 11  4  1  0  0  0  0
 12  8  1  0  0  0  0
 13  8  1  0  0  0  0
 13 18  2  0  0  0  0
 14  5  2  0  0  0  0
 15 20  2  0  0  0  0
 16 12  1  0  0  0  0
 17 16  2  0  0  0  0
 19 10  2  0  0  0  0
 20 19  1  0  0  0  0
 22 21  2  0  0  0  0
 23 22  1  0  0  0  0
 24 31  1  0  0  0  0
 24 27  1  1  0  0  0
 25 30  1  0  0  0  0
 25 28  1  0  0  0  0
 28 24  1  0  0  0  0
 29 26  2  0  0  0  0
 29 31  1  0  0  0  0
 30 22  1  1  0  0  0
 30 29  1  0  0  0  0
M  END
>  <MODEL>
1

>  <REMARK>
 VINA RESULT:      -7.4      0.000      0.000
  Name = 
  2 active torsions:
  status: ('A' for Active; 'I' for Inactive)
    1  A    between atoms: C_5  and  C_30
    2  A    between atoms: C_10  and  N_16
                            x       y       z     vdW  Elec       q    Type
                         _______ _______ _______ _____ _____    ______ ____

>  <TORSDO>
F 2

$$$$
=
 OpenBabel11122413083D

 31 35  0  0  1  0  0  0  0  0999 V2000
  160.9940  207.2800  147.3330 C   0  0  0  0  0  0  0  0  0  0  0  0
  161.3570  205.7680  150.8290 C   0  0  0  0  0  0  0  0  0  0  0  0
  161.1000  204.3710  150.7190 C   0  0  0  0  0  0  0  0  0  0  0  0
  160.6730  202.3650  149.3990 C   0  0  0  0  0  0  0  0  0  0  0  0
  161.4540  206.6970  149.6540 C   0  0  0  0  0  0  0  0  0  0  0  0
  161.6210  208.5140  147.5090 C   0  0  0  0  0  3  0  0  0  0  0  0
  160.9190  203.7380  149.4780 C   0  0  0  0  0  3  0  0  0  0  0  0
  161.8230  207.7900  152.3020 C   0  0  2  0  0  3  0  0  0  0  0  0
  160.4560  206.9450  146.0990 O   0  0  0  0  0  1  0  0  0  0  0  0
  161.2440  204.1490  153.1450 C   0  0  0  0  0  3  0  0  0  0  0  0
  160.4800  201.7220  148.0720 C   0  0  0  0  0  1  0  0  0  0  0  0
  162.6580  208.3430  151.1470 C   0  0  0  0  0  2  0  0  0  0  0  0
  161.5740  206.3160  152.1180 C   0  0  0  0  0  0  0  0  0  0  0  0
  160.9100  206.3810  148.3990 C   0  0  0  0  0  3  0  0  0  0  0  0
  160.6060  201.5980  150.5620 C   0  0  0  0  0  3  0  0  0  0  0  0
  162.0640  207.9610  149.8240 C   0  0  0  0  0  0  0  0  0  0  0  0
  162.1560  208.8540  148.7530 C   0  0  0  0  0  3  0  0  0  0  0  0
  161.5080  205.5100  153.2560 C   0  0  0  0  0  3  0  0  0  0  0  0
  161.0410  203.5740  151.8930 C   0  0  0  0  0  0  0  0  0  0  0  0
  160.7920  202.2020  151.8070 C   0  0  0  0  0  3  0  0  0  0  0  0
  161.3530  210.1850  153.8040 O   0  0  0  0  0  0  0  0  0  0  0  0
  160.3760  209.6720  153.1920 C   0  0  0  0  0  0  0  0  0  0  0  0
  160.5570  208.5100  152.3830 N   0  0  0  0  0  2  0  0  0  0  0  0
  158.5340  213.1550  154.1830 C   0  0  1  0  0  3  0  0  0  0  0  0
  158.8230  211.4110  152.2800 C   0  0  0  0  0  2  0  0  0  0  0  0
  158.5070  209.7720  155.5680 O   0  0  0  0  0  0  0  0  0  0  0  0
  158.8440  214.4530  154.8990 C   0  0  0  0  0  1  0  0  0  0  0  0
  159.6830  212.9330  152.7950 S   0  0  0  0  0  0  0  0  0  0  0  0
  158.6850  210.6760  154.7100 C   0  0  0  0  0  0  0  0  0  0  0  0
  159.0130  210.2820  153.2940 C   0  0  2  0  0  3  0  0  0  0  0  0
  158.6390  212.0460  155.1210 N   0  0  0  0  0  2  0  0  0  0  0  0
  1  6  2  0  0  0  0
  1 14  1  0  0  0  0
  2 13  1  0  0  0  0
  3  2  2  0  0  0  0
  3 19  1  0  0  0  0
  4  7  2  0  0  0  0
  4 15  1  0  0  0  0
  5 16  1  0  0  0  0
  5  2  1  0  0  0  0
  6 17  1  0  0  0  0
  7  3  1  0  0  0  0
  8 23  1  6  0  0  0
  9  1  1  0  0  0  0
 10 18  1  0  0  0  0
 11  4  1  0  0  0  0
 12  8  1  0  0  0  0
 13  8  1  0  0  0  0
 13 18  2  0  0  0  0
 14  5  2  0  0  0  0
 15 20  2  0  0  0  0
 16 12  1  0  0  0  0
 17 16  2  0  0  0  0
 19 10  2  0  0  0  0
 20 19  1  0  0  0  0
 22 21  2  0  0  0  0
 23 22  1  0  0  0  0
 24 27  1  1  0  0  0
 24 31  1  0  0  0  0
 25 28  1  0  0  0  0
 25 30  1  0  0  0  0
 28 24  1  0  0  0  0
 29 31  1  0  0  0  0
 29 26  2  0  0  0  0
 30 22  1  1  0  0  0
 30 29  1  0  0  0  0
M  END
>  <MODEL>
2

>  <REMARK>
 VINA RESULT:      -7.4      1.562      2.162
  Name = 
  2 active torsions:
  status: ('A' for Active; 'I' for Inactive)
    1  A    between atoms: C_5  and  C_30
    2  A    between atoms: C_10  and  N_16
                            x       y       z     vdW  Elec       q    Type
                         _______ _______ _______ _____ _____    ______ ____

>  <TORSDO>
F 2

$$$$
=
 OpenBabel11122413083D

 31 35  0  0  1  0  0  0  0  0999 V2000
  161.7630  209.7180  149.0640 C   0  0  0  0  0  0  0  0  0  0  0  0
  161.4550  207.5360  152.1910 C   0  0  0  0  0  0  0  0  0  0  0  0
  161.2550  206.1940  151.7580 C   0  0  0  0  0  0  0  0  0  0  0  0
  161.1440  204.4980  150.0080 C   0  0  0  0  0  0  0  0  0  0  0  0
  161.7630  208.6780  151.2680 C   0  0  0  0  0  0  0  0  0  0  0  0
  162.3150  210.8810  149.6030 C   0  0  0  0  0  3  0  0  0  0  0  0
  161.3400  205.8230  150.4060 C   0  0  0  0  0  3  0  0  0  0  0  0
  161.5730  209.2160  154.0990 C   0  0  2  0  0  3  0  0  0  0  0  0
  161.4900  209.6450  147.7060 O   0  0  0  0  0  1  0  0  0  0  0  0
  160.9170  205.4920  154.0700 C   0  0  0  0  0  3  0  0  0  0  0  0
  161.2340  204.1350  148.5700 C   0  0  0  0  0  1  0  0  0  0  0  0
  162.6090  209.9720  153.2670 C   0  0  0  0  0  2  0  0  0  0  0  0
  161.3980  207.8130  153.5810 C   0  0  0  0  0  0  0  0  0  0  0  0
  161.4880  208.6270  149.8920 C   0  0  0  0  0  3  0  0  0  0  0  0
  160.8640  203.5160  150.9590 C   0  0  0  0  0  3  0  0  0  0  0  0
  162.2990  209.8710  151.8030 C   0  0  0  0  0  0  0  0  0  0  0  0
  162.5840  210.9570  150.9710 C   0  0  0  0  0  3  0  0  0  0  0  0
  161.1240  206.7980  154.5000 C   0  0  0  0  0  3  0  0  0  0  0  0
  160.9810  205.1810  152.7150 C   0  0  0  0  0  0  0  0  0  0  0  0
  160.7850  203.8580  152.3100 C   0  0  0  0  0  3  0  0  0  0  0  0
  160.8090  211.3580  155.8430 O   0  0  0  0  0  0  0  0  0  0  0  0
  159.9620  210.9560  154.9990 C   0  0  0  0  0  0  0  0  0  0  0  0
  160.3010  209.9290  154.0670 N   0  0  0  0  0  2  0  0  0  0  0  0
  157.6700  213.4360  152.7400 C   0  0  1  0  0  3  0  0  0  0  0  0
  157.7920  211.0470  153.7530 C   0  0  0  0  0  2  0  0  0  0  0  0
  158.9970  213.5840  156.1430 O   0  0  0  0  0  0  0  0  0  0  0  0
  157.8310  214.4530  151.6310 C   0  0  0  0  0  1  0  0  0  0  0  0
  158.3290  211.8320  152.2000 S   0  0  0  0  0  0  0  0  0  0  0  0
  158.6420  213.0590  155.0550 C   0  0  0  0  0  0  0  0  0  0  0  0
  158.5920  211.5580  154.9530 C   0  0  2  0  0  3  0  0  0  0  0  0
  158.3630  213.9010  153.9330 N   0  0  0  0  0  2  0  0  0  0  0  0
  1  6  2  0  0  0  0
  1 14  1  0  0  0  0
  2 13  1  0  0  0  0
  3  2  2  0  0  0  0
  3 19  1  0  0  0  0
  4  7  2  0  0  0  0
  4 15  1  0  0  0  0
  5 16  1  0  0  0  0
  5  2  1  0  0  0  0
  6 17  1  0  0  0  0
  7  3  1  0  0  0  0
  8 23  1  6  0  0  0
  9  1  1  0  0  0  0
 10 18  1  0  0  0  0
 11  4  1  0  0  0  0
 12  8  1  0  0  0  0
 13  8  1  0  0  0  0
 13 18  2  0  0  0  0
 14  5  2  0  0  0  0
 15 20  2  0  0  0  0
 16 12  1  0  0  0  0
 17 16  2  0  0  0  0
 19 10  2  0  0  0  0
 20 19  1  0  0  0  0
 22 21  2  0  0  0  0
 23 22  1  0  0  0  0
 24 27  1  6  0  0  0
 24 31  1  0  0  0  0
 25 30  1  0  0  0  0
 28 24  1  0  0  0  0
 28 25  1  0  0  0  0
 29 26  2  0  0  0  0
 30 22  1  6  0  0  0
 30 29  1  0  0  0  0
 31 29  1  0  0  0  0
M  END
>  <MODEL>
3

>  <REMARK>
 VINA RESULT:      -6.0      1.554      1.880
  Name = 
  2 active torsions:
  status: ('A' for Active; 'I' for Inactive)
    1  A    between atoms: C_5  and  C_30
    2  A    between atoms: C_10  and  N_16
                            x       y       z     vdW  Elec       q    Type
                         _______ _______ _______ _____ _____    ______ ____

>  <TORSDO>
F 2

$$$$
=
 OpenBabel11122413083D

 31 35  0  0  1  0  0  0  0  0999 V2000
  161.2930  211.0820  147.8800 C   0  0  0  0  0  0  0  0  0  0  0  0
  161.6440  207.8950  149.9670 C   0  0  0  0  0  0  0  0  0  0  0  0
  161.4370  206.7880  149.0950 C   0  0  0  0  0  0  0  0  0  0  0  0
  161.1040  205.8400  146.8730 C   0  0  0  0  0  0  0  0  0  0  0  0
  161.7300  209.3210  149.5070 C   0  0  0  0  0  0  0  0  0  0  0  0
  161.8730  212.0240  148.7310 C   0  0  0  0  0  3  0  0  0  0  0  0
  161.3010  206.9440  147.7060 C   0  0  0  0  0  3  0  0  0  0  0  0
  162.0120  208.7720  152.3280 C   0  0  2  0  0  3  0  0  0  0  0  0
  160.7890  211.4760  146.6490 O   0  0  0  0  0  1  0  0  0  0  0  0
  161.5440  205.2630  150.9970 C   0  0  0  0  0  3  0  0  0  0  0  0
  160.9580  206.0360  145.4060 C   0  0  0  0  0  1  0  0  0  0  0  0
  162.8480  209.8870  151.7010 C   0  0  0  0  0  2  0  0  0  0  0  0
  161.8180  207.6420  151.3520 C   0  0  0  0  0  0  0  0  0  0  0  0
  161.2200  209.7420  148.2680 C   0  0  0  0  0  3  0  0  0  0  0  0
  161.0430  204.5560  147.4150 C   0  0  0  0  0  3  0  0  0  0  0  0
  162.2920  210.2900  150.3680 C   0  0  0  0  0  0  0  0  0  0  0  0
  162.3730  211.6280  149.9720 C   0  0  0  0  0  3  0  0  0  0  0  0
  161.7590  206.3390  151.8510 C   0  0  0  0  0  3  0  0  0  0  0  0
  161.3850  205.4740  149.6300 C   0  0  0  0  0  0  0  0  0  0  0  0
  161.1850  204.3740  148.7910 C   0  0  0  0  0  3  0  0  0  0  0  0
  161.3810  209.7560  154.9440 O   0  0  0  0  0  0  0  0  0  0  0  0
  160.4570  209.7310  154.0860 C   0  0  0  0  0  0  0  0  0  0  0  0
  160.7210  209.3030  152.7500 N   0  0  0  0  0  2  0  0  0  0  0  0
  158.3470  213.0410  155.1350 C   0  0  1  0  0  3  0  0  0  0  0  0
  158.4810  211.1090  153.4040 C   0  0  0  0  0  2  0  0  0  0  0  0
  159.1730  209.9030  156.8190 O   0  0  0  0  0  0  0  0  0  0  0  0
  158.5960  214.4530  155.6210 C   0  0  0  0  0  1  0  0  0  0  0  0
  159.1780  212.7870  153.5410 S   0  0  0  0  0  0  0  0  0  0  0  0
  159.0080  210.6980  155.8570 C   0  0  0  0  0  0  0  0  0  0  0  0
  159.0710  210.1630  154.4510 C   0  0  2  0  0  3  0  0  0  0  0  0
  158.8350  212.0920  156.1270 N   0  0  0  0  0  2  0  0  0  0  0  0
  1 14  2  0  0  0  0
  1  6  1  0  0  0  0
  2 13  1  0  0  0  0
  3 19  1  0  0  0  0
  3  2  2  0  0  0  0
  4 15  1  0  0  0  0
  4  7  2  0  0  0  0
  5  2  1  0  0  0  0
  5 16  2  0  0  0  0
  6 17  2  0  0  0  0
  7  3  1  0  0  0  0
  8 23  1  6  0  0  0
  9  1  1  0  0  0  0
 10 18  1  0  0  0  0
 11  4  1  0  0  0  0
 12  8  1  0  0  0  0
 13 18  2  0  0  0  0
 13  8  1  0  0  0  0
 14  5  1  0  0  0  0
 15 20  2  0  0  0  0
 16 12  1  0  0  0  0
 17 16  1  0  0  0  0
 19 10  2  0  0  0  0
 20 19  1  0  0  0  0
 22 21  2  0  0  0  0
 23 22  1  0  0  0  0
 24 27  1  1  0  0  0
 24 31  1  0  0  0  0
 25 28  1  0  0  0  0
 25 30  1  0  0  0  0
 28 24  1  0  0  0  0
 29 31  1  0  0  0  0
 29 26  2  0  0  0  0
 30 22  1  6  0  0  0
 30 29  1  0  0  0  0
M  END
>  <MODEL>
4

>  <REMARK>
 VINA RESULT:      -5.3      1.788      2.714
  Name = 
  2 active torsions:
  status: ('A' for Active; 'I' for Inactive)
    1  A    between atoms: C_5  and  C_30
    2  A    between atoms: C_10  and  N_16
                            x       y       z     vdW  Elec       q    Type
                         _______ _______ _______ _____ _____    ______ ____

>  <TORSDO>
F 2

$$$$
=
 OpenBabel11122413083D

 31 35  0  0  1  0  0  0  0  0999 V2000
  160.0910  207.3300  154.9200 C   0  0  0  0  0  0  0  0  0  0  0  0
  160.6240  210.1460  152.3860 C   0  0  0  0  0  0  0  0  0  0  0  0
  159.8340  211.2540  152.8060 C   0  0  0  0  0  0  0  0  0  0  0  0
  158.3870  212.3670  154.4240 C   0  0  0  0  0  0  0  0  0  0  0  0
  160.8020  208.8900  153.1890 C   0  0  0  0  0  0  0  0  0  0  0  0
  161.1640  206.4910  154.6170 C   0  0  0  0  0  3  0  0  0  0  0  0
  159.1510  211.2640  154.0330 C   0  0  0  0  0  3  0  0  0  0  0  0
  162.1460  209.0900  150.6410 C   0  0  2  0  0  3  0  0  0  0  0  0
  159.2030  206.9830  155.9290 O   0  0  0  0  0  1  0  0  0  0  0  0
  160.4230  212.4540  150.7650 C   0  0  0  0  0  3  0  0  0  0  0  0
  157.6700  212.3480  155.7260 C   0  0  0  0  0  1  0  0  0  0  0  0
  162.8460  208.3740  151.7950 C   0  0  0  0  0  2  0  0  0  0  0  0
  161.3180  210.2380  151.1530 C   0  0  0  0  0  0  0  0  0  0  0  0
  159.9110  208.5180  154.2080 C   0  0  0  0  0  3  0  0  0  0  0  0
  158.2960  213.4840  153.5930 C   0  0  0  0  0  3  0  0  0  0  0  0
  161.8700  208.0190  152.8770 C   0  0  0  0  0  0  0  0  0  0  0  0
  162.0540  206.8360  153.5980 C   0  0  0  0  0  3  0  0  0  0  0  0
  161.2060  211.3800  150.3560 C   0  0  0  0  0  3  0  0  0  0  0  0
  159.7410  212.4030  151.9780 C   0  0  0  0  0  0  0  0  0  0  0  0
  158.9730  213.5020  152.3730 C   0  0  0  0  0  3  0  0  0  0  0  0
  163.0230  207.3280  148.5570 O   0  0  0  0  0  0  0  0  0  0  0  0
  161.7950  207.3300  148.8490 C   0  0  0  0  0  0  0  0  0  0  0  0
  161.3060  208.1460  149.9130 N   0  0  0  0  0  2  0  0  0  0  0  0
  160.9250  203.4240  148.1480 C   0  0  1  0  0  3  0  0  0  0  0  0
  159.9400  205.6590  149.0330 C   0  0  0  0  0  2  0  0  0  0  0  0
  162.0430  206.2030  146.0530 O   0  0  0  0  0  0  0  0  0  0  0  0
  161.5640  202.0600  148.3070 C   0  0  0  0  0  1  0  0  0  0  0  0
  160.8310  204.2470  149.7630 S   0  0  0  0  0  0  0  0  0  0  0  0
  161.5370  205.6330  147.0540 C   0  0  0  0  0  0  0  0  0  0  0  0
  160.8340  206.4680  148.0910 C   0  0  2  0  0  3  0  0  0  0  0  0
  161.7030  204.2200  147.2090 N   0  0  0  0  0  2  0  0  0  0  0  0
  1  9  1  0  0  0  0
  2  3  1  0  0  0  0
  2  5  1  0  0  0  0
  3  7  1  0  0  0  0
  4 11  1  0  0  0  0
  5 14  1  0  0  0  0
  6  1  1  0  0  0  0
  7  4  2  0  0  0  0
  8 23  1  1  0  0  0
  8 13  1  0  0  0  0
  8 12  1  0  0  0  0
 10 19  1  0  0  0  0
 12 16  1  0  0  0  0
 13  2  2  0  0  0  0
 14  1  2  0  0  0  0
 15  4  1  0  0  0  0
 16  5  2  0  0  0  0
 16 17  1  0  0  0  0
 17  6  2  0  0  0  0
 18 10  2  0  0  0  0
 18 13  1  0  0  0  0
 19 20  1  0  0  0  0
 19  3  2  0  0  0  0
 20 15  2  0  0  0  0
 21 22  2  0  0  0  0
 22 23  1  0  0  0  0
 24 27  1  1  0  0  0
 24 28  1  0  0  0  0
 25 28  1  0  0  0  0
 26 29  2  0  0  0  0
 29 31  1  0  0  0  0
 29 30  1  0  0  0  0
 30 22  1  1  0  0  0
 30 25  1  0  0  0  0
 31 24  1  0  0  0  0
M  END
>  <MODEL>
5

>  <REMARK>
 VINA RESULT:      -4.8      3.292      8.375
  Name = 
  2 active torsions:
  status: ('A' for Active; 'I' for Inactive)
    1  A    between atoms: C_5  and  C_30
    2  A    between atoms: C_10  and  N_16
                            x       y       z     vdW  Elec       q    Type
                         _______ _______ _______ _____ _____    ______ ____

>  <TORSDO>
F 2

$$$$
=
 OpenBabel11122413083D

 31 35  0  0  1  0  0  0  0  0999 V2000
  161.4280  208.0010  148.4950 C   0  0  0  0  0  0  0  0  0  0  0  0
  161.4940  204.7510  150.5120 C   0  0  0  0  0  0  0  0  0  0  0  0
  161.1210  203.6950  149.6330 C   0  0  0  0  0  0  0  0  0  0  0  0
  160.5840  202.8400  147.4120 C   0  0  0  0  0  0  0  0  0  0  0  0
  161.7260  206.1670  150.0720 C   0  0  0  0  0  0  0  0  0  0  0  0
  162.1510  208.8510  149.3340 C   0  0  0  0  0  3  0  0  0  0  0  0
  160.9450  203.8950  148.2540 C   0  0  0  0  0  3  0  0  0  0  0  0
  162.0640  205.5290  152.8680 C   0  0  2  0  0  3  0  0  0  0  0  0
  160.9220  208.4780  147.2940 O   0  0  0  0  0  1  0  0  0  0  0  0
  161.1310  202.1280  151.5030 C   0  0  0  0  0  3  0  0  0  0  0  0
  160.3980  203.0830  145.9570 C   0  0  0  0  0  1  0  0  0  0  0  0
  162.9970  206.5520  152.2210 C   0  0  0  0  0  2  0  0  0  0  0  0
  161.6960  204.4510  151.8830 C   0  0  0  0  0  0  0  0  0  0  0  0
  161.2160  206.6710  148.8640 C   0  0  0  0  0  3  0  0  0  0  0  0
  160.3960  201.5610  147.9360 C   0  0  0  0  0  3  0  0  0  0  0  0
  162.4350  207.0460  150.9220 C   0  0  0  0  0  0  0  0  0  0  0  0
  162.6550  208.3740  150.5450 C   0  0  0  0  0  3  0  0  0  0  0  0
  161.5070  203.1530  152.3640 C   0  0  0  0  0  3  0  0  0  0  0  0
  160.9380  202.3850  150.1480 C   0  0  0  0  0  0  0  0  0  0  0  0
  160.5750  201.3340  149.3010 C   0  0  0  0  0  3  0  0  0  0  0  0
  162.0020  207.7300  154.7010 O   0  0  0  0  0  0  0  0  0  0  0  0
  160.8990  207.2580  154.3110 C   0  0  0  0  0  0  0  0  0  0  0  0
  160.8630  206.1970  153.3570 N   0  0  0  0  0  2  0  0  0  0  0  0
  159.4220  210.4340  156.3700 C   0  0  1  0  0  3  0  0  0  0  0  0
  159.2350  209.1220  154.1360 C   0  0  0  0  0  2  0  0  0  0  0  0
  159.5990  206.8390  157.0100 O   0  0  0  0  0  0  0  0  0  0  0  0
  159.9190  211.5630  157.2480 C   0  0  0  0  0  1  0  0  0  0  0  0
  160.2320  210.5190  154.7470 S   0  0  0  0  0  0  0  0  0  0  0  0
  159.6120  207.9020  156.3360 C   0  0  0  0  0  0  0  0  0  0  0  0
  159.6100  207.8120  154.8330 C   0  0  2  0  0  3  0  0  0  0  0  0
  159.6970  209.1580  157.0160 N   0  0  0  0  0  2  0  0  0  0  0  0
  1 14  2  0  0  0  0
  1  6  1  0  0  0  0
  2 13  1  0  0  0  0
  3 19  1  0  0  0  0
  3  2  2  0  0  0  0
  4 15  1  0  0  0  0
  4  7  2  0  0  0  0
  5  2  1  0  0  0  0
  5 16  2  0  0  0  0
  6 17  2  0  0  0  0
  7  3  1  0  0  0  0
  8 23  1  6  0  0  0
  9  1  1  0  0  0  0
 10 18  1  0  0  0  0
 11  4  1  0  0  0  0
 12  8  1  0  0  0  0
 13 18  2  0  0  0  0
 13  8  1  0  0  0  0
 14  5  1  0  0  0  0
 15 20  2  0  0  0  0
 16 12  1  0  0  0  0
 17 16  1  0  0  0  0
 19 10  2  0  0  0  0
 20 19  1  0  0  0  0
 22 21  2  0  0  0  0
 23 22  1  0  0  0  0
 24 31  1  0  0  0  0
 24 27  1  1  0  0  0
 25 28  1  0  0  0  0
 25 30  1  0  0  0  0
 28 24  1  0  0  0  0
 29 26  2  0  0  0  0
 29 31  1  0  0  0  0
 30 22  1  6  0  0  0
 30 29  1  0  0  0  0
M  END
>  <MODEL>
6

>  <REMARK>
 VINA RESULT:      -4.7      2.531      3.709
  Name = 
  2 active torsions:
  status: ('A' for Active; 'I' for Inactive)
    1  A    between atoms: C_5  and  C_30
    2  A    between atoms: C_10  and  N_16
                            x       y       z     vdW  Elec       q    Type
                         _______ _______ _______ _____ _____    ______ ____

>  <TORSDO>
F 2

$$$$
=
 OpenBabel11122413083D

 31 35  0  0  1  0  0  0  0  0999 V2000
  159.4880  209.2700  155.0620 C   0  0  0  0  0  0  0  0  0  0  0  0
  160.8880  210.6050  151.7620 C   0  0  0  0  0  0  0  0  0  0  0  0
  160.3190  211.8930  151.5470 C   0  0  0  0  0  0  0  0  0  0  0  0
  158.9870  213.8010  152.2800 C   0  0  0  0  0  0  0  0  0  0  0  0
  160.7010  209.8060  153.0180 C   0  0  0  0  0  0  0  0  0  0  0  0
  160.3780  208.2290  155.3290 C   0  0  0  0  0  3  0  0  0  0  0  0
  159.5290  212.5350  152.5150 C   0  0  0  0  0  3  0  0  0  0  0  0
  162.3190  208.6830  150.9060 C   0  0  2  0  0  3  0  0  0  0  0  0
  158.4440  209.5310  155.9390 O   0  0  0  0  0  1  0  0  0  0  0  0
  161.3690  211.9950  149.3460 C   0  0  0  0  0  3  0  0  0  0  0  0
  158.1490  214.4530  153.3200 C   0  0  0  0  0  1  0  0  0  0  0  0
  162.7190  208.4350  152.3600 C   0  0  0  0  0  2  0  0  0  0  0  0
  161.7120  210.0520  150.7500 C   0  0  0  0  0  0  0  0  0  0  0  0
  159.6480  210.0490  153.9140 C   0  0  0  0  0  3  0  0  0  0  0  0
  159.2300  214.4520  151.0700 C   0  0  0  0  0  3  0  0  0  0  0  0
  161.5800  208.7330  153.2890 C   0  0  0  0  0  0  0  0  0  0  0  0
  161.4240  207.9610  154.4440 C   0  0  0  0  0  3  0  0  0  0  0  0
  161.9370  210.7430  149.5570 C   0  0  0  0  0  3  0  0  0  0  0  0
  160.5670  212.5740  150.3260 C   0  0  0  0  0  0  0  0  0  0  0  0
  160.0200  213.8400  150.0960 C   0  0  0  0  0  3  0  0  0  0  0  0
  162.5690  207.0570  148.5590 O   0  0  0  0  0  0  0  0  0  0  0  0
  161.5320  206.9170  149.2650 C   0  0  0  0  0  0  0  0  0  0  0  0
  161.3740  207.6590  150.4740 N   0  0  0  0  0  2  0  0  0  0  0  0
  160.8220  202.9370  148.8560 C   0  0  1  0  0  3  0  0  0  0  0  0
  159.9850  205.1010  150.0250 C   0  0  0  0  0  2  0  0  0  0  0  0
  160.9650  205.7540  146.5310 O   0  0  0  0  0  0  0  0  0  0  0  0
  161.5930  201.6360  148.7920 C   0  0  0  0  0  1  0  0  0  0  0  0
  161.1810  203.7850  150.4210 S   0  0  0  0  0  0  0  0  0  0  0  0
  160.8580  205.1650  147.6380 C   0  0  0  0  0  0  0  0  0  0  0  0
  160.4570  205.9610  148.8510 C   0  0  2  0  0  3  0  0  0  0  0  0
  161.1860  203.7750  147.7220 N   0  0  0  0  0  2  0  0  0  0  0  0
  1  6  1  0  0  0  0
  1  9  1  0  0  0  0
  2  5  1  0  0  0  0
  3  2  1  0  0  0  0
  3  7  1  0  0  0  0
  4  7  2  0  0  0  0
  4 11  1  0  0  0  0
  5 16  2  0  0  0  0
  5 14  1  0  0  0  0
  8 23  1  1  0  0  0
  8 12  1  0  0  0  0
 10 18  2  0  0  0  0
 10 19  1  0  0  0  0
 12 16  1  0  0  0  0
 13  8  1  0  0  0  0
 13  2  2  0  0  0  0
 14  1  2  0  0  0  0
 15  4  1  0  0  0  0
 16 17  1  0  0  0  0
 17  6  2  0  0  0  0
 18 13  1  0  0  0  0
 19  3  2  0  0  0  0
 20 19  1  0  0  0  0
 20 15  2  0  0  0  0
 21 22  2  0  0  0  0
 22 23  1  0  0  0  0
 24 27  1  1  0  0  0
 24 28  1  0  0  0  0
 25 28  1  0  0  0  0
 26 29  2  0  0  0  0
 29 31  1  0  0  0  0
 29 30  1  0  0  0  0
 30 22  1  1  0  0  0
 30 25  1  0  0  0  0
 31 24  1  0  0  0  0
M  END
>  <MODEL>
7

>  <REMARK>
 VINA RESULT:      -4.5      3.297      8.503
  Name = 
  2 active torsions:
  status: ('A' for Active; 'I' for Inactive)
    1  A    between atoms: C_5  and  C_30
    2  A    between atoms: C_10  and  N_16
                            x       y       z     vdW  Elec       q    Type
                         _______ _______ _______ _____ _____    ______ ____

>  <TORSDO>
F 2

$$$$
