=
 OpenBabel11122413203D

 31 35  0  0  1  0  0  0  0  0999 V2000
  161.3310  208.5390  154.2900 C   0  0  0  0  0  0  0  0  0  0  0  0
  161.3390  207.7510  150.5740 C   0  0  0  0  0  0  0  0  0  0  0  0
  161.2090  206.3420  150.4630 C   0  0  0  0  0  0  0  0  0  0  0  0
  161.6660  212.8520  149.0650 O   0  0  0  0  0  0  0  0  0  0  0  0
  161.6430  212.1080  148.0480 C   0  0  0  0  0  0  0  0  0  0  0  0
  160.6670  204.1530  151.3920 C   0  0  0  0  0  0  0  0  0  0  0  0
  160.9770  208.5600  151.8190 C   0  0  1  0  0  3  0  0  0  0  0  0
  161.5040  210.0440  154.3240 C   0  0  0  0  0  2  0  0  0  0  0  0
  160.7740  205.5390  151.5310 C   0  0  0  0  0  3  0  0  0  0  0  0
  161.6790  209.9580  149.4330 C   0  0  0  0  0  0  0  0  0  0  0  0
  161.5370  207.6370  155.7780 Cl  0  0  0  0  0  0  0  0  0  0  0  0
  161.8890  206.4810  148.1370 C   0  0  0  0  0  3  0  0  0  0  0  0
  160.2530  203.3980  152.4380 F   0  0  0  0  0  0  0  0  0  0  0  0
  161.6370  210.5880  150.5710 N   0  0  0  0  0  0  0  0  0  0  0  0
  161.6770  208.4790  149.4080 C   0  0  0  0  0  0  0  0  0  0  0  0
  161.6550  210.6800  148.1950 N   0  0  0  0  0  2  0  0  0  0  0  0
  161.1740  207.8610  153.1420 C   0  0  0  0  0  3  0  0  0  0  0  0
  160.9910  203.5450  150.1780 C   0  0  0  0  0  3  0  0  0  0  0  0
  161.7470  209.8840  151.8430 C   0  0  1  0  0  3  0  0  0  0  0  0
  161.2140  210.7340  152.9860 C   0  0  0  0  0  2  0  0  0  0  0  0
  161.9500  207.8310  148.2430 N   0  0  0  0  0  0  0  0  0  0  0  0
  161.5130  205.7110  149.2330 C   0  0  0  0  0  0  0  0  0  0  0  0
  161.4100  204.3240  149.0980 C   0  0  0  0  0  3  0  0  0  0  0  0
  161.6130  213.8440  144.1220 C   0  0  0  0  0  0  0  0  0  0  0  0
  162.7810  213.2500  146.1550 C   0  0  0  0  0  3  0  0  0  0  0  0
  159.2610  212.2150  146.3870 F   0  0  0  0  0  0  0  0  0  0  0  0
  161.6170  214.4090  142.8540 O   0  0  0  0  0  1  0  0  0  0  0  0
  162.7860  213.8190  144.8780 C   0  0  0  0  0  3  0  0  0  0  0  0
  160.4250  212.7310  145.9180 C   0  0  0  0  0  0  0  0  0  0  0  0
  161.6060  212.7010  146.6910 C   0  0  0  0  0  0  0  0  0  0  0  0
  160.4360  213.3020  144.6410 C   0  0  0  0  0  3  0  0  0  0  0  0
  1  8  1  0  0  0  0
  1 11  1  0  0  0  0
  2  7  1  0  0  0  0
  3  2  1  0  0  0  0
  3  9  1  0  0  0  0
  5 16  1  0  0  0  0
  5  4  2  0  0  0  0
  6  9  2  0  0  0  0
  6 13  1  0  0  0  0
  7 19  1  0  0  0  0
  7 17  1  1  0  0  0
 10 14  2  0  0  0  0
 12 21  2  0  0  0  0
 12 22  1  0  0  0  0
 14 19  1  0  0  0  0
 15 10  1  0  0  0  0
 15  2  2  0  0  0  0
 16 10  1  0  0  0  0
 17  1  2  0  0  0  0
 18  6  1  0  0  0  0
 19 20  1  1  0  0  0
 20  8  1  0  0  0  0
 21 15  1  0  0  0  0
 22  3  2  0  0  0  0
 23 22  1  0  0  0  0
 23 18  2  0  0  0  0
 24 31  2  0  0  0  0
 24 28  1  0  0  0  0
 25 30  1  0  0  0  0
 27 24  1  0  0  0  0
 28 25  2  0  0  0  0
 29 26  1  0  0  0  0
 29 30  2  0  0  0  0
 30  5  1  0  0  0  0
 31 29  1  0  0  0  0
M  END
>  <MODEL>
1

>  <REMARK>
 VINA RESULT:     -10.0      0.000      0.000
  Name = 
  1 active torsions:
  status: ('A' for Active; 'I' for Inactive)
    1  A    between atoms: C_5  and  C_30
                            x       y       z     vdW  Elec       q    Type
                         _______ _______ _______ _____ _____    ______ ____

>  <TORSDO>
F 1

$$$$
=
 OpenBabel11122413203D

 31 35  0  0  1  0  0  0  0  0999 V2000
  161.2120  201.4160  149.5240 C   0  0  0  0  0  0  0  0  0  0  0  0
  161.0970  205.1810  149.0310 C   0  0  0  0  0  0  0  0  0  0  0  0
  161.0750  205.4010  147.6290 C   0  0  0  0  0  0  0  0  0  0  0  0
  160.9370  206.2800  154.2430 O   0  0  0  0  0  0  0  0  0  0  0  0
  160.9230  207.3530  153.5820 C   0  0  0  0  0  0  0  0  0  0  0  0
  160.7590  204.6320  145.3360 C   0  0  0  0  0  0  0  0  0  0  0  0
  160.7340  203.8600  149.7080 C   0  0  1  0  0  3  0  0  0  0  0  0
  161.2650  201.2670  151.0310 C   0  0  0  0  0  2  0  0  0  0  0  0
  160.7600  204.3840  146.7110 C   0  0  0  0  0  3  0  0  0  0  0  0
  161.2010  206.1510  151.3410 C   0  0  0  0  0  0  0  0  0  0  0  0
  161.5630  200.0170  148.5290 Cl  0  0  0  0  0  0  0  0  0  0  0  0
  161.6250  207.7350  148.0050 C   0  0  0  0  0  3  0  0  0  0  0  0
  160.4600  203.6340  144.4700 F   0  0  0  0  0  0  0  0  0  0  0  0
  161.1660  204.9650  151.8750 N   0  0  0  0  0  0  0  0  0  0  0  0
  161.3170  206.2980  149.8730 C   0  0  0  0  0  0  0  0  0  0  0  0
  161.0570  207.3240  152.1530 N   0  0  0  0  0  2  0  0  0  0  0  0
  161.0520  202.6080  148.9260 C   0  0  0  0  0  3  0  0  0  0  0  0
  161.0700  205.9040  144.8540 C   0  0  0  0  0  3  0  0  0  0  0  0
  161.3950  203.7600  151.0860 C   0  0  1  0  0  3  0  0  0  0  0  0
  160.8530  202.5300  151.7960 C   0  0  0  0  0  2  0  0  0  0  0  0
  161.5820  207.5220  149.3440 N   0  0  0  0  0  0  0  0  0  0  0  0
  161.3670  206.6910  147.1240 C   0  0  0  0  0  0  0  0  0  0  0  0
  161.3700  206.9340  145.7480 C   0  0  0  0  0  3  0  0  0  0  0  0
  160.5220  211.1590  155.5260 C   0  0  0  0  0  0  0  0  0  0  0  0
  161.3350  209.8020  153.6970 C   0  0  0  0  0  3  0  0  0  0  0  0
  159.5080  207.7010  156.0970 F   0  0  0  0  0  0  0  0  0  0  0  0
  160.4010  212.3960  156.1440 O   0  0  0  0  0  1  0  0  0  0  0  0
  161.2130  211.0480  154.3180 C   0  0  0  0  0  3  0  0  0  0  0  0
  160.0740  208.7770  155.4950 C   0  0  0  0  0  0  0  0  0  0  0  0
  160.7700  208.6540  154.2730 C   0  0  0  0  0  0  0  0  0  0  0  0
  159.9550  210.0260  156.1130 C   0  0  0  0  0  3  0  0  0  0  0  0
  1  8  1  0  0  0  0
  2  7  1  0  0  0  0
  2 15  1  0  0  0  0
  3  2  2  0  0  0  0
  5  4  2  0  0  0  0
  5 30  1  0  0  0  0
  6  9  2  0  0  0  0
  7 17  1  6  0  0  0
  7 19  1  0  0  0  0
  8 20  1  0  0  0  0
  9  3  1  0  0  0  0
 10 14  2  0  0  0  0
 10 16  1  0  0  0  0
 11  1  1  0  0  0  0
 12 21  1  0  0  0  0
 13  6  1  0  0  0  0
 15 10  1  0  0  0  0
 16  5  1  0  0  0  0
 17  1  2  0  0  0  0
 18  6  1  0  0  0  0
 18 23  2  0  0  0  0
 19 20  1  1  0  0  0
 19 14  1  0  0  0  0
 21 15  2  0  0  0  0
 22  3  1  0  0  0  0
 22 12  2  0  0  0  0
 23 22  1  0  0  0  0
 24 31  1  0  0  0  0
 24 27  1  0  0  0  0
 25 30  2  0  0  0  0
 25 28  1  0  0  0  0
 28 24  2  0  0  0  0
 29 26  1  0  0  0  0
 29 31  2  0  0  0  0
 30 29  1  0  0  0  0
M  END
>  <MODEL>
2

>  <REMARK>
 VINA RESULT:      -9.4      4.951      7.606
  Name = 
  1 active torsions:
  status: ('A' for Active; 'I' for Inactive)
    1  A    between atoms: C_5  and  C_30
                            x       y       z     vdW  Elec       q    Type
                         _______ _______ _______ _____ _____    ______ ____

>  <TORSDO>
F 1

$$$$
=
 OpenBabel11122413203D

 31 35  0  0  1  0  0  0  0  0999 V2000
  161.2890  201.3740  149.5460 C   0  0  0  0  0  0  0  0  0  0  0  0
  161.1140  205.1130  148.8960 C   0  0  0  0  0  0  0  0  0  0  0  0
  161.0590  205.2730  147.4870 C   0  0  0  0  0  0  0  0  0  0  0  0
  161.0530  206.4330  154.0590 O   0  0  0  0  0  0  0  0  0  0  0  0
  161.0110  207.4760  153.3540 C   0  0  0  0  0  0  0  0  0  0  0  0
  160.7020  204.4020  145.2370 C   0  0  0  0  0  0  0  0  0  0  0  0
  160.7830  203.8180  149.6360 C   0  0  1  0  0  3  0  0  0  0  0  0
  161.3770  201.2910  151.0570 C   0  0  0  0  0  2  0  0  0  0  0  0
  160.7370  204.2140  146.6210 C   0  0  0  0  0  3  0  0  0  0  0  0
  161.2560  206.1830  151.1600 C   0  0  0  0  0  0  0  0  0  0  0  0
  161.6370  199.9380  148.6050 Cl  0  0  0  0  0  0  0  0  0  0  0  0
  161.5860  207.6280  147.7510 C   0  0  0  0  0  3  0  0  0  0  0  0
  160.3970  203.3650  144.4210 F   0  0  0  0  0  0  0  0  0  0  0  0
  161.2480  205.0200  151.7450 N   0  0  0  0  0  0  0  0  0  0  0  0
  161.3380  206.2680  149.6850 C   0  0  0  0  0  0  0  0  0  0  0  0
  161.1150  207.3880  151.9240 N   0  0  0  0  0  2  0  0  0  0  0  0
  161.1010  202.5380  148.9020 C   0  0  0  0  0  3  0  0  0  0  0  0
  160.9860  205.6570  144.6940 C   0  0  0  0  0  3  0  0  0  0  0  0
  161.4750  203.7860  151.0020 C   0  0  1  0  0  3  0  0  0  0  0  0
  160.9660  202.5810  151.7760 C   0  0  0  0  0  2  0  0  0  0  0  0
  161.5750  207.4710  149.0980 N   0  0  0  0  0  0  0  0  0  0  0  0
  161.3230  206.5430  146.9210 C   0  0  0  0  0  0  0  0  0  0  0  0
  161.2920  206.7270  145.5360 C   0  0  0  0  0  3  0  0  0  0  0  0
  160.5470  211.2870  155.2740 C   0  0  0  0  0  0  0  0  0  0  0  0
  160.5600  208.8700  155.3620 C   0  0  0  0  0  3  0  0  0  0  0  0
  161.2820  210.0010  151.9390 F   0  0  0  0  0  0  0  0  0  0  0  0
  160.3940  212.5120  155.9080 O   0  0  0  0  0  1  0  0  0  0  0  0
  160.4060  210.1040  156.0010 C   0  0  0  0  0  3  0  0  0  0  0  0
  160.9970  210.0060  153.2660 C   0  0  0  0  0  0  0  0  0  0  0  0
  160.8560  208.8040  153.9920 C   0  0  0  0  0  0  0  0  0  0  0  0
  160.8410  211.2380  153.9100 C   0  0  0  0  0  3  0  0  0  0  0  0
  1  8  1  0  0  0  0
  2  7  1  0  0  0  0
  2 15  1  0  0  0  0
  3  2  2  0  0  0  0
  5 30  1  0  0  0  0
  5  4  2  0  0  0  0
  6  9  2  0  0  0  0
  7 17  1  6  0  0  0
  7 19  1  0  0  0  0
  8 20  1  0  0  0  0
  9  3  1  0  0  0  0
 10 14  2  0  0  0  0
 10 16  1  0  0  0  0
 11  1  1  0  0  0  0
 12 21  1  0  0  0  0
 13  6  1  0  0  0  0
 15 10  1  0  0  0  0
 16  5  1  0  0  0  0
 17  1  2  0  0  0  0
 18  6  1  0  0  0  0
 18 23  2  0  0  0  0
 19 14  1  0  0  0  0
 19 20  1  1  0  0  0
 21 15  2  0  0  0  0
 22  3  1  0  0  0  0
 22 12  2  0  0  0  0
 23 22  1  0  0  0  0
 24 27  1  0  0  0  0
 24 28  1  0  0  0  0
 25 28  2  0  0  0  0
 26 29  1  0  0  0  0
 29 31  1  0  0  0  0
 29 30  2  0  0  0  0
 30 25  1  0  0  0  0
 31 24  2  0  0  0  0
M  END
>  <MODEL>
3

>  <REMARK>
 VINA RESULT:      -9.0      4.849      7.358
  Name = 
  1 active torsions:
  status: ('A' for Active; 'I' for Inactive)
    1  A    between atoms: C_5  and  C_30
                            x       y       z     vdW  Elec       q    Type
                         _______ _______ _______ _____ _____    ______ ____

>  <TORSDO>
F 1

$$$$
=
 OpenBabel11122413203D

 31 35  0  0  1  0  0  0  0  0999 V2000
  160.8770  205.2010  145.6580 C   0  0  0  0  0  0  0  0  0  0  0  0
  161.0350  204.2590  149.3350 C   0  0  0  0  0  0  0  0  0  0  0  0
  161.0750  202.8410  149.3840 C   0  0  0  0  0  0  0  0  0  0  0  0
  161.1440  209.3030  151.0540 O   0  0  0  0  0  0  0  0  0  0  0  0
  161.1750  208.5170  152.0390 C   0  0  0  0  0  0  0  0  0  0  0  0
  161.4110  200.6620  148.3410 C   0  0  0  0  0  0  0  0  0  0  0  0
  161.3770  205.0950  148.1020 C   0  0  1  0  0  3  0  0  0  0  0  0
  160.8050  206.7140  145.6920 C   0  0  0  0  0  2  0  0  0  0  0  0
  161.3910  202.0570  148.2610 C   0  0  0  0  0  3  0  0  0  0  0  0
  160.9120  206.4340  150.5770 C   0  0  0  0  0  0  0  0  0  0  0  0
  160.5240  204.3780  144.1520 Cl  0  0  0  0  0  0  0  0  0  0  0  0
  160.5440  202.9260  151.7510 C   0  0  0  0  0  3  0  0  0  0  0  0
  161.7110  199.9270  147.2440 F   0  0  0  0  0  0  0  0  0  0  0  0
  160.9300  207.1080  149.4640 N   0  0  0  0  0  0  0  0  0  0  0  0
  160.8150  204.9580  150.5470 C   0  0  0  0  0  0  0  0  0  0  0  0
  161.0580  207.1000  151.8390 N   0  0  0  0  0  2  0  0  0  0  0  0
  161.0550  204.4660  146.7680 C   0  0  0  0  0  3  0  0  0  0  0  0
  161.1190  200.0270  149.5490 C   0  0  0  0  0  3  0  0  0  0  0  0
  160.6980  206.4660  148.1750 C   0  0  1  0  0  3  0  0  0  0  0  0
  161.2190  207.3260  147.0350 C   0  0  0  0  0  2  0  0  0  0  0  0
  160.5690  204.2810  151.7000 N   0  0  0  0  0  0  0  0  0  0  0  0
  160.8020  202.1800  150.6060 C   0  0  0  0  0  0  0  0  0  0  0  0
  160.8170  200.7850  150.6810 C   0  0  0  0  0  3  0  0  0  0  0  0
  161.6640  210.1240  155.9890 C   0  0  0  0  0  0  0  0  0  0  0  0
  161.8880  210.3250  153.5890 C   0  0  0  0  0  3  0  0  0  0  0  0
  160.4000  207.0720  154.4380 F   0  0  0  0  0  0  0  0  0  0  0  0
  161.8280  210.6560  157.2610 O   0  0  0  0  0  1  0  0  0  0  0  0
  162.0530  210.8610  154.8690 C   0  0  0  0  0  3  0  0  0  0  0  0
  160.9420  208.3110  154.5510 C   0  0  0  0  0  0  0  0  0  0  0  0
  161.3330  209.0480  153.4120 C   0  0  0  0  0  0  0  0  0  0  0  0
  161.1100  208.8520  155.8300 C   0  0  0  0  0  3  0  0  0  0  0  0
  1  8  1  0  0  0  0
  1 17  2  0  0  0  0
  2  3  2  0  0  0  0
  2 15  1  0  0  0  0
  3 22  1  0  0  0  0
  4  5  2  0  0  0  0
  5 30  1  0  0  0  0
  6 18  1  0  0  0  0
  7 17  1  6  0  0  0
  7 19  1  0  0  0  0
  7  2  1  0  0  0  0
  8 20  1  0  0  0  0
  9  6  2  0  0  0  0
  9  3  1  0  0  0  0
 10 16  1  0  0  0  0
 11  1  1  0  0  0  0
 13  6  1  0  0  0  0
 14 10  2  0  0  0  0
 15 10  1  0  0  0  0
 15 21  2  0  0  0  0
 16  5  1  0  0  0  0
 18 23  2  0  0  0  0
 19 20  1  6  0  0  0
 19 14  1  0  0  0  0
 21 12  1  0  0  0  0
 22 23  1  0  0  0  0
 22 12  2  0  0  0  0
 24 27  1  0  0  0  0
 25 28  1  0  0  0  0
 26 29  1  0  0  0  0
 28 24  2  0  0  0  0
 29 31  2  0  0  0  0
 30 25  2  0  0  0  0
 30 29  1  0  0  0  0
 31 24  1  0  0  0  0
M  END
>  <MODEL>
4

>  <REMARK>
 VINA RESULT:      -8.7      4.733      7.485
  Name = 
  1 active torsions:
  status: ('A' for Active; 'I' for Inactive)
    1  A    between atoms: C_5  and  C_30
                            x       y       z     vdW  Elec       q    Type
                         _______ _______ _______ _____ _____    ______ ____

>  <TORSDO>
F 1

$$$$
