=
 OpenBabel11122412353D

 30 36  0  0  1  0  0  0  0  0999 V2000
  161.4130  206.1730  150.1250 C   0  0  1  0  0  3  0  0  0  0  0  0
  161.1390  203.6320  150.0060 C   0  0  0  0  0  0  0  0  0  0  0  0
  160.9710  205.9810  154.4380 C   0  0  0  0  0  2  0  0  0  0  0  0
  161.7760  207.3180  151.0970 C   0  0  1  0  0  3  0  0  0  0  0  0
  162.3030  206.1950  149.0350 O   0  0  0  0  0  0  0  0  0  0  0  0
  161.9380  209.6940  148.3350 O   0  0  0  0  0  0  0  0  0  0  0  0
  160.4100  210.1500  151.8680 C   0  0  1  0  0  3  0  0  0  0  0  0
  161.8630  208.6050  148.9660 C   0  0  0  0  0  0  0  0  0  0  0  0
  160.2800  209.4800  153.2340 C   0  0  2  0  0  3  0  0  0  0  0  0
  160.9110  207.4560  154.5950 C   0  0  0  0  0  0  0  0  0  0  0  0
  161.9660  207.2990  148.2070 C   0  0  2  0  0  3  0  0  0  0  0  0
  161.6490  208.5980  150.3920 N   0  0  0  0  0  0  0  0  0  0  0  0
  160.9470  202.4010  150.6370 C   0  0  0  0  0  3  0  0  0  0  0  0
  160.7990  210.5010  154.2250 C   0  0  0  0  0  2  0  0  0  0  0  0
  160.2900  211.6410  152.1340 C   0  0  0  0  0  2  0  0  0  0  0  0
  161.1470  203.6880  148.6170 O   0  0  0  0  0  1  0  0  0  0  0  0
  161.4340  205.9130  153.0040 C   0  0  2  0  0  3  0  0  0  0  0  0
  160.9000  202.3400  152.0300 C   0  0  0  0  0  3  0  0  0  0  0  0
  161.3070  204.7960  150.7760 C   0  0  0  0  0  0  0  0  0  0  0  0
  160.8850  207.1550  152.3270 C   0  0  1  0  0  3  0  0  0  0  0  0
  160.7710  208.0130  155.7160 O   0  0  0  0  0  0  0  0  0  0  0  0
  160.9570  208.1820  153.3590 N   0  0  0  0  0  0  0  0  0  0  0  0
  160.4210  211.8440  153.6360 C   0  0  0  0  0  2  0  0  0  0  0  0
  162.9950  210.0150  151.9150 C   0  0  0  0  0  1  0  0  0  0  0  0
  161.0280  203.4720  152.7700 N   0  0  0  0  0  0  0  0  0  0  0  0
  161.1950  204.6870  152.1820 C   0  0  0  0  0  0  0  0  0  0  0  0
  161.7100  209.8720  151.1030 C   0  0  2  0  0  3  0  0  0  0  0  0
  160.7130  207.0260  147.3790 C   0  0  0  0  0  3  0  0  0  0  0  0
  160.7720  205.6200  146.8160 C   0  0  0  0  0  2  0  0  0  0  0  0
  161.1080  206.8010  145.9330 C   0  0  0  0  0  2  0  0  0  0  0  0
  1  5  1  6  0  0  0
  1 19  1  0  0  0  0
  1  4  1  0  0  0  0
  2 13  2  0  0  0  0
  2 19  1  0  0  0  0
  3 10  1  0  0  0  0
  4 12  1  6  0  0  0
  4 20  1  0  0  0  0
  6  8  2  0  0  0  0
  7 15  1  1  0  0  0
  7  9  1  0  0  0  0
  8 12  1  0  0  0  0
  9 22  1  0  0  0  0
  9 14  1  1  0  0  0
 10 21  2  0  0  0  0
 11 28  1  1  0  0  0
 11  8  1  0  0  0  0
 11  5  1  0  0  0  0
 12 27  1  0  0  0  0
 13 18  1  0  0  0  0
 15 23  1  0  0  0  0
 16  2  1  0  0  0  0
 17  3  1  1  0  0  0
 18 25  2  0  0  0  0
 19 26  2  0  0  0  0
 20 17  1  0  0  0  0
 20 22  1  1  0  0  0
 22 10  1  0  0  0  0
 23 14  1  0  0  0  0
 26 25  1  0  0  0  0
 26 17  1  0  0  0  0
 27  7  1  0  0  0  0
 27 24  1  1  0  0  0
 29 28  1  0  0  0  0
 30 29  1  0  0  0  0
 30 28  1  0  0  0  0
M  END
>  <MODEL>
1

>  <REMARK>
 VINA RESULT:      -7.8      0.000      0.000
  Name = 
  1 active torsions:
  status: ('A' for Active; 'I' for Inactive)
    1  A    between atoms: C_11  and  C_28
                            x       y       z     vdW  Elec       q    Type
                         _______ _______ _______ _____ _____    ______ ____

>  <TORSDO>
F 1

$$$$
=
 OpenBabel11122412353D

 30 36  0  0  1  0  0  0  0  0999 V2000
  161.2610  209.5760  151.6780 C   0  0  1  0  0  3  0  0  0  0  0  0
  161.1320  211.8930  150.6010 C   0  0  0  0  0  0  0  0  0  0  0  0
  162.0660  207.8490  147.7780 C   0  0  0  0  0  2  0  0  0  0  0  0
  161.8080  208.1490  151.4440 C   0  0  1  0  0  3  0  0  0  0  0  0
  161.8050  210.0870  152.8710 O   0  0  0  0  0  0  0  0  0  0  0  0
  161.0290  207.2220  154.8850 O   0  0  0  0  0  0  0  0  0  0  0  0
  160.5320  205.1790  151.6280 C   0  0  1  0  0  3  0  0  0  0  0  0
  161.2060  207.9220  153.8510 C   0  0  0  0  0  0  0  0  0  0  0  0
  160.8360  205.1810  150.1320 C   0  0  2  0  0  3  0  0  0  0  0  0
  161.9560  206.4510  148.2670 C   0  0  0  0  0  0  0  0  0  0  0  0
  161.1770  209.4320  153.9630 C   0  0  2  0  0  3  0  0  0  0  0  0
  161.4040  207.2960  152.5670 N   0  0  0  0  0  0  0  0  0  0  0  0
  161.2060  212.7120  149.4730 C   0  0  0  0  0  3  0  0  0  0  0  0
  161.5440  203.8680  149.8720 C   0  0  0  0  0  2  0  0  0  0  0  0
  160.3940  203.7160  152.0130 C   0  0  0  0  0  2  0  0  0  0  0  0
  160.7440  212.4450  151.8160 O   0  0  0  0  0  1  0  0  0  0  0  0
  162.1090  208.5620  149.1070 C   0  0  2  0  0  3  0  0  0  0  0  0
  161.5580  212.1600  148.2400 C   0  0  0  0  0  3  0  0  0  0  0  0
  161.4330  210.5240  150.4940 C   0  0  0  0  0  0  0  0  0  0  0  0
  161.3120  207.7040  150.0710 C   0  0  1  0  0  3  0  0  0  0  0  0
  162.1010  205.4550  147.5090 O   0  0  0  0  0  0  0  0  0  0  0  0
  161.6040  206.3370  149.6520 N   0  0  0  0  0  0  0  0  0  0  0  0
  160.9290  202.8910  150.8520 C   0  0  0  0  0  2  0  0  0  0  0  0
  163.0280  205.4510  152.2580 C   0  0  0  0  0  1  0  0  0  0  0  0
  161.8140  210.8310  148.1340 N   0  0  0  0  0  0  0  0  0  0  0  0
  161.7290  210.0040  149.2110 C   0  0  0  0  0  0  0  0  0  0  0  0
  161.5790  205.8470  152.5280 C   0  0  2  0  0  3  0  0  0  0  0  0
  159.7620  209.9530  154.2010 C   0  0  0  0  0  3  0  0  0  0  0  0
  159.8260  211.3620  154.7560 C   0  0  0  0  0  2  0  0  0  0  0  0
  159.5610  210.1970  155.6840 C   0  0  0  0  0  2  0  0  0  0  0  0
  1 19  1  6  0  0  0
  1  5  1  0  0  0  0
  2 16  1  0  0  0  0
  3 10  1  0  0  0  0
  4  1  1  0  0  0  0
  4 12  1  1  0  0  0
  5 11  1  0  0  0  0
  7 15  1  1  0  0  0
  7 27  1  0  0  0  0
  8 11  1  0  0  0  0
  8  6  2  0  0  0  0
  9 14  1  1  0  0  0
  9  7  1  0  0  0  0
 10 22  1  0  0  0  0
 11 28  1  6  0  0  0
 12  8  1  0  0  0  0
 13  2  2  0  0  0  0
 14 23  1  0  0  0  0
 17  3  1  6  0  0  0
 17 26  1  0  0  0  0
 17 20  1  0  0  0  0
 18 13  1  0  0  0  0
 19  2  1  0  0  0  0
 20 22  1  6  0  0  0
 20  4  1  0  0  0  0
 21 10  2  0  0  0  0
 22  9  1  0  0  0  0
 23 15  1  0  0  0  0
 25 18  2  0  0  0  0
 25 26  1  0  0  0  0
 26 19  2  0  0  0  0
 27 24  1  6  0  0  0
 27 12  1  0  0  0  0
 28 29  1  0  0  0  0
 28 30  1  0  0  0  0
 29 30  1  0  0  0  0
M  END
>  <MODEL>
2

>  <REMARK>
 VINA RESULT:      -7.3      1.875      6.993
  Name = 
  1 active torsions:
  status: ('A' for Active; 'I' for Inactive)
    1  A    between atoms: C_11  and  C_28
                            x       y       z     vdW  Elec       q    Type
                         _______ _______ _______ _____ _____    ______ ____

>  <TORSDO>
F 1

$$$$
=
 OpenBabel11122412353D

 30 36  0  0  1  0  0  0  0  0999 V2000
  161.4650  208.3270  151.6130 C   0  0  1  0  0  3  0  0  0  0  0  0
  161.6040  210.7750  150.8840 C   0  0  0  0  0  0  0  0  0  0  0  0
  162.1040  207.1040  147.4970 C   0  0  0  0  0  2  0  0  0  0  0  0
  161.8510  206.8960  151.1700 C   0  0  1  0  0  3  0  0  0  0  0  0
  162.0530  208.5960  152.8630 O   0  0  0  0  0  0  0  0  0  0  0  0
  160.9470  205.5730  154.4460 O   0  0  0  0  0  0  0  0  0  0  0  0
  160.2510  204.0930  150.9320 C   0  0  1  0  0  3  0  0  0  0  0  0
  161.2090  206.3920  153.5230 C   0  0  0  0  0  0  0  0  0  0  0  0
  160.5650  204.2780  149.4490 C   0  0  2  0  0  3  0  0  0  0  0  0
  161.8350  205.6720  147.7790 C   0  0  0  0  0  0  0  0  0  0  0  0
  161.3470  207.8630  153.8540 C   0  0  2  0  0  3  0  0  0  0  0  0
  161.3460  205.9400  152.1610 N   0  0  0  0  0  0  0  0  0  0  0  0
  161.7780  211.7360  149.8860 C   0  0  0  0  0  3  0  0  0  0  0  0
  161.1250  202.9450  148.9960 C   0  0  0  0  0  2  0  0  0  0  0  0
  159.9480  202.6130  151.1020 C   0  0  0  0  0  2  0  0  0  0  0  0
  161.2700  211.1850  152.1700 O   0  0  0  0  0  1  0  0  0  0  0  0
  162.2160  207.6080  148.9150 C   0  0  2  0  0  3  0  0  0  0  0  0
  162.0760  211.3330  148.5840 C   0  0  0  0  0  3  0  0  0  0  0  0
  161.7510  209.4110  150.5770 C   0  0  0  0  0  0  0  0  0  0  0  0
  161.3200  206.7130  149.7510 C   0  0  1  0  0  3  0  0  0  0  0  0
  161.8750  204.7860  146.8840 O   0  0  0  0  0  0  0  0  0  0  0  0
  161.4610  205.3980  149.1360 N   0  0  0  0  0  0  0  0  0  0  0  0
  160.3970  201.9120  149.8290 C   0  0  0  0  0  2  0  0  0  0  0  0
  162.7570  203.9900  151.5740 C   0  0  0  0  0  1  0  0  0  0  0  0
  162.1830  210.0130  148.2840 N   0  0  0  0  0  0  0  0  0  0  0  0
  161.9980  209.0530  149.2300 C   0  0  0  0  0  0  0  0  0  0  0  0
  161.3580  204.5020  151.9110 C   0  0  2  0  0  3  0  0  0  0  0  0
  159.9970  208.4990  154.1760 C   0  0  0  0  0  3  0  0  0  0  0  0
  160.2070  209.7270  155.0390 C   0  0  0  0  0  2  0  0  0  0  0  0
  159.7550  208.4290  155.6710 C   0  0  0  0  0  2  0  0  0  0  0  0
  1 19  1  6  0  0  0
  1  5  1  0  0  0  0
  2 16  1  0  0  0  0
  3 10  1  0  0  0  0
  4  1  1  0  0  0  0
  4 12  1  1  0  0  0
  5 11  1  0  0  0  0
  7 15  1  6  0  0  0
  7 27  1  0  0  0  0
  8 11  1  0  0  0  0
  8  6  2  0  0  0  0
  9 14  1  1  0  0  0
  9  7  1  0  0  0  0
 10 22  1  0  0  0  0
 11 28  1  6  0  0  0
 12  8  1  0  0  0  0
 13  2  2  0  0  0  0
 14 23  1  0  0  0  0
 17  3  1  6  0  0  0
 17 26  1  0  0  0  0
 17 20  1  0  0  0  0
 18 13  1  0  0  0  0
 19  2  1  0  0  0  0
 20 22  1  6  0  0  0
 20  4  1  0  0  0  0
 21 10  2  0  0  0  0
 22  9  1  0  0  0  0
 23 15  1  0  0  0  0
 25 18  2  0  0  0  0
 25 26  1  0  0  0  0
 26 19  2  0  0  0  0
 27 24  1  6  0  0  0
 27 12  1  0  0  0  0
 28 29  1  0  0  0  0
 28 30  1  0  0  0  0
 29 30  1  0  0  0  0
M  END
>  <MODEL>
3

>  <REMARK>
 VINA RESULT:      -6.8      1.853      7.004
  Name = 
  1 active torsions:
  status: ('A' for Active; 'I' for Inactive)
    1  A    between atoms: C_11  and  C_28
                            x       y       z     vdW  Elec       q    Type
                         _______ _______ _______ _____ _____    ______ ____

>  <TORSDO>
F 1

$$$$
=
 OpenBabel11122412353D

 30 36  0  0  1  0  0  0  0  0999 V2000
  159.5320  212.0650  152.7030 C   0  0  1  0  0  3  0  0  0  0  0  0
  159.2220  213.7440  150.7990 C   0  0  0  0  0  0  0  0  0  0  0  0
  162.1400  209.7120  150.1540 C   0  0  0  0  0  2  0  0  0  0  0  0
  160.4720  210.9440  153.2030 C   0  0  1  0  0  3  0  0  0  0  0  0
  159.4440  213.0650  153.6890 O   0  0  0  0  0  0  0  0  0  0  0  0
  158.7390  210.8370  156.4100 O   0  0  0  0  0  0  0  0  0  0  0  0
  160.0270  207.9050  154.2250 C   0  0  1  0  0  3  0  0  0  0  0  0
  159.1010  211.2190  155.2640 C   0  0  0  0  0  0  0  0  0  0  0  0
  160.8530  207.5860  152.9810 C   0  0  2  0  0  3  0  0  0  0  0  0
  162.2190  208.5820  151.1130 C   0  0  0  0  0  0  0  0  0  0  0  0
  158.6460  212.5700  154.7550 C   0  0  2  0  0  3  0  0  0  0  0  0
  159.9140  210.3680  154.4310 N   0  0  0  0  0  0  0  0  0  0  0  0
  159.4960  214.1670  149.4960 C   0  0  0  0  0  3  0  0  0  0  0  0
  161.9190  206.6190  153.4540 C   0  0  0  0  0  2  0  0  0  0  0  0
  160.1370  206.6760  155.1120 C   0  0  0  0  0  2  0  0  0  0  0  0
  158.2830  214.4390  151.5530 O   0  0  0  0  0  1  0  0  0  0  0  0
  161.5030  210.7420  151.0530 C   0  0  2  0  0  3  0  0  0  0  0  0
  160.4090  213.4540  148.7170 C   0  0  0  0  0  3  0  0  0  0  0  0
  159.8810  212.6200  151.3250 C   0  0  0  0  0  0  0  0  0  0  0  0
  160.6540  209.9680  152.0430 C   0  0  1  0  0  3  0  0  0  0  0  0
  162.8850  207.5390  150.8780 O   0  0  0  0  0  0  0  0  0  0  0  0
  161.4200  208.7520  152.2910 N   0  0  0  0  0  0  0  0  0  0  0  0
  161.2570  205.8130  154.5510 C   0  0  0  0  0  2  0  0  0  0  0  0
  161.9520  209.2610  155.3020 C   0  0  0  0  0  1  0  0  0  0  0  0
  161.0180  212.3480  149.2180 N   0  0  0  0  0  0  0  0  0  0  0  0
  160.7550  211.9010  150.4750 C   0  0  0  0  0  0  0  0  0  0  0  0
  160.4560  209.1460  155.0170 C   0  0  2  0  0  3  0  0  0  0  0  0
  157.1610  212.5700  154.4000 C   0  0  0  0  0  3  0  0  0  0  0  0
  156.6500  213.9960  154.3460 C   0  0  0  0  0  2  0  0  0  0  0  0
  156.3690  213.1390  155.5610 C   0  0  0  0  0  2  0  0  0  0  0  0
  1 19  1  6  0  0  0
  1  4  1  0  0  0  0
  1  5  1  0  0  0  0
  2 19  1  0  0  0  0
  2 16  1  0  0  0  0
  3 10  1  0  0  0  0
  4 12  1  1  0  0  0
  5 11  1  0  0  0  0
  7 27  1  0  0  0  0
  7 15  1  1  0  0  0
  8  6  2  0  0  0  0
  9 14  1  1  0  0  0
  9  7  1  0  0  0  0
 10 22  1  0  0  0  0
 11 28  1  6  0  0  0
 11  8  1  0  0  0  0
 12 27  1  0  0  0  0
 12  8  1  0  0  0  0
 13  2  2  0  0  0  0
 14 23  1  0  0  0  0
 17  3  1  6  0  0  0
 17 20  1  0  0  0  0
 18 25  2  0  0  0  0
 18 13  1  0  0  0  0
 20 22  1  1  0  0  0
 20  4  1  0  0  0  0
 21 10  2  0  0  0  0
 22  9  1  0  0  0  0
 23 15  1  0  0  0  0
 25 26  1  0  0  0  0
 26 17  1  0  0  0  0
 26 19  2  0  0  0  0
 27 24  1  6  0  0  0
 28 30  1  0  0  0  0
 29 28  1  0  0  0  0
 29 30  1  0  0  0  0
M  END
>  <MODEL>
4

>  <REMARK>
 VINA RESULT:      -5.2      3.042      7.618
  Name = 
  1 active torsions:
  status: ('A' for Active; 'I' for Inactive)
    1  A    between atoms: C_11  and  C_28
                            x       y       z     vdW  Elec       q    Type
                         _______ _______ _______ _____ _____    ______ ____

>  <TORSDO>
F 1

$$$$
=
 OpenBabel11122412353D

 30 36  0  0  1  0  0  0  0  0999 V2000
  161.2480  208.6660  151.6080 C   0  0  1  0  0  3  0  0  0  0  0  0
  160.6230  207.6830  153.8850 C   0  0  0  0  0  0  0  0  0  0  0  0
  160.0960  212.6010  153.0330 C   0  0  0  0  0  2  0  0  0  0  0  0
  161.6160  209.9960  150.9110 C   0  0  1  0  0  3  0  0  0  0  0  0
  162.2950  207.7440  151.4220 O   0  0  0  0  0  0  0  0  0  0  0  0
  162.5690  208.2120  147.8760 O   0  0  0  0  0  0  0  0  0  0  0  0
  160.5790  211.5170  148.2480 C   0  0  1  0  0  3  0  0  0  0  0  0
  162.2330  208.4340  149.0710 C   0  0  0  0  0  0  0  0  0  0  0  0
  160.1330  212.5620  149.2700 C   0  0  2  0  0  3  0  0  0  0  0  0
  160.2310  213.2310  151.6960 C   0  0  0  0  0  0  0  0  0  0  0  0
  162.2620  207.3000  150.0730 C   0  0  2  0  0  3  0  0  0  0  0  0
  161.7950  209.7470  149.4760 N   0  0  0  0  0  0  0  0  0  0  0  0
  160.1520  207.8450  155.1900 C   0  0  0  0  0  3  0  0  0  0  0  0
  160.6320  213.8840  148.7240 C   0  0  0  0  0  2  0  0  0  0  0  0
  160.6400  212.2500  146.9180 C   0  0  0  0  0  2  0  0  0  0  0  0
  160.8610  206.3990  153.4060 O   0  0  0  0  0  1  0  0  0  0  0  0
  160.7680  211.2820  152.7420 C   0  0  2  0  0  3  0  0  0  0  0  0
  159.8740  209.1270  155.6680 C   0  0  0  0  0  3  0  0  0  0  0  0
  160.8360  208.8080  153.0710 C   0  0  0  0  0  0  0  0  0  0  0  0
  160.5250  211.0020  151.2710 C   0  0  1  0  0  3  0  0  0  0  0  0
  159.9970  214.4530  151.4960 O   0  0  0  0  0  0  0  0  0  0  0  0
  160.5810  212.3190  150.6470 N   0  0  0  0  0  0  0  0  0  0  0  0
  160.5560  213.7390  147.2190 C   0  0  0  0  0  2  0  0  0  0  0  0
  163.0740  211.7850  148.8850 C   0  0  0  0  0  1  0  0  0  0  0  0
  160.0470  210.2090  154.8670 N   0  0  0  0  0  0  0  0  0  0  0  0
  160.4840  210.0790  153.5850 C   0  0  0  0  0  0  0  0  0  0  0  0
  161.9290  210.8430  148.5210 C   0  0  2  0  0  3  0  0  0  0  0  0
  161.1310  206.3030  149.8310 C   0  0  0  0  0  3  0  0  0  0  0  0
  161.4620  204.9860  150.5040 C   0  0  0  0  0  2  0  0  0  0  0  0
  161.6570  205.1400  149.0120 C   0  0  0  0  0  2  0  0  0  0  0  0
  1  5  1  1  0  0  0
  1 19  1  0  0  0  0
  2 13  1  0  0  0  0
  4 12  1  6  0  0  0
  4 20  1  0  0  0  0
  4  1  1  0  0  0  0
  6  8  2  0  0  0  0
  7 15  1  6  0  0  0
  7 27  1  0  0  0  0
  7  9  1  0  0  0  0
  8 12  1  0  0  0  0
  8 11  1  0  0  0  0
  9 14  1  6  0  0  0
  9 22  1  0  0  0  0
 10  3  1  0  0  0  0
 11 28  1  1  0  0  0
 11  5  1  0  0  0  0
 13 18  2  0  0  0  0
 15 23  1  0  0  0  0
 16  2  1  0  0  0  0
 17  3  1  1  0  0  0
 17 26  1  0  0  0  0
 19 26  1  0  0  0  0
 19  2  2  0  0  0  0
 20 22  1  6  0  0  0
 20 17  1  0  0  0  0
 21 10  2  0  0  0  0
 22 10  1  0  0  0  0
 23 14  1  0  0  0  0
 25 18  1  0  0  0  0
 26 25  2  0  0  0  0
 27 24  1  1  0  0  0
 27 12  1  0  0  0  0
 28 29  1  0  0  0  0
 30 28  1  0  0  0  0
 30 29  1  0  0  0  0
M  END
>  <MODEL>
5

>  <REMARK>
 VINA RESULT:      -5.0      2.576      4.955
  Name = 
  1 active torsions:
  status: ('A' for Active; 'I' for Inactive)
    1  A    between atoms: C_11  and  C_28
                            x       y       z     vdW  Elec       q    Type
                         _______ _______ _______ _____ _____    ______ ____

>  <TORSDO>
F 1

$$$$
