=
 OpenBabel11122413013D

 32 37  0  0  1  0  0  0  0  0999 V2000
  161.8540  208.9470  150.8010 C   0  0  1  0  0  3  0  0  0  0  0  0
  161.1280  210.1740  154.8370 O   0  0  0  0  0  0  0  0  0  0  0  0
  160.8500  211.4680  154.3580 C   0  0  0  0  0  2  0  0  0  0  0  0
  162.1890  210.9220  149.1700 C   0  0  0  0  0  0  0  0  0  0  0  0
  162.0570  212.3410  148.9950 N   0  0  0  0  0  0  0  0  0  0  0  0
  161.5610  206.6450  149.7010 C   0  0  2  0  0  3  0  0  0  0  0  0
  161.3000  207.1380  152.1010 O   0  0  0  0  0  0  0  0  0  0  0  0
  160.8990  214.4100  149.1010 C   0  0  1  0  0  3  0  0  0  0  0  0
  161.5930  209.4240  153.7420 C   0  0  0  0  0  2  0  0  0  0  0  0
  160.8120  208.3170  151.6270 N   0  0  1  0  0  0  0  0  0  0  0  0
  160.4350  209.1740  152.7580 C   0  0  2  0  0  3  0  0  0  0  0  0
  160.8130  211.1750  151.2440 C   0  0  2  0  0  3  0  0  0  0  0  0
  161.8950  214.4530  147.9450 C   0  0  0  0  0  2  0  0  0  0  0  0
  161.0550  206.1840  151.0890 C   0  0  2  0  0  3  0  0  0  0  0  0
  162.4220  213.0330  147.7770 C   0  0  0  0  0  2  0  0  0  0  0  0
  159.6150  211.4400  153.4510 C   0  0  0  0  0  2  0  0  0  0  0  0
  159.8600  210.5140  152.2540 C   0  0  2  0  0  3  0  0  0  0  0  0
  160.2070  212.4310  150.6280 C   0  0  0  0  0  2  0  0  0  0  0  0
  162.4110  207.9200  149.7960 C   0  0  0  0  0  2  0  0  0  0  0  0
  162.9760  210.2760  148.4260 O   0  0  0  0  0  0  0  0  0  0  0  0
  159.4970  214.2730  148.5190 C   0  0  0  0  0  1  0  0  0  0  0  0
  161.2650  210.2040  150.1370 C   0  0  2  0  0  3  0  0  0  0  0  0
  161.3270  213.1910  149.9180 C   0  0  1  0  0  3  0  0  0  0  0  0
  161.2150  204.4110  152.8170 C   0  0  0  0  0  2  0  0  0  0  0  0
  161.7180  204.8710  151.4640 C   0  0  1  0  0  3  0  0  0  0  0  0
  160.6620  203.7880  151.5540 C   0  0  1  0  0  3  0  0  0  0  0  0
  161.2890  202.4940  151.3390 N   0  0  0  0  0  2  0  0  0  0  0  0
  160.9240  201.6610  150.2400 C   0  0  0  0  0  0  0  0  0  0  0  0
  159.9550  202.0720  149.3320 O   0  0  0  0  0  0  0  0  0  0  0  0
  161.4860  200.5450  150.0890 O   0  0  0  0  0  1  0  0  0  0  0  0
  160.5160  206.5560  147.3750 S   0  0  0  0  0  0  0  0  0  0  0  0
  160.4120  206.8780  148.7700 C   0  0  0  0  0  3  0  0  0  0  0  0
  1 19  1  6  0  0  0
  1 10  1  0  0  0  0
  3  2  1  0  0  0  0
  5  4  1  0  0  0  0
  5 23  1  0  0  0  0
  6 32  1  6  0  0  0
  6 19  1  0  0  0  0
  6 14  1  0  0  0  0
  8 21  1  6  0  0  0
  8 23  1  0  0  0  0
  9  2  1  0  0  0  0
 10  7  1  1  0  0  0
 10 11  1  0  0  0  0
 11  9  1  1  0  0  0
 12 18  1  6  0  0  0
 12 17  1  0  0  0  0
 13  8  1  0  0  0  0
 14 25  1  0  0  0  0
 14  7  1  1  0  0  0
 15 13  1  0  0  0  0
 15  5  1  0  0  0  0
 16  3  1  0  0  0  0
 17 11  1  0  0  0  0
 17 16  1  1  0  0  0
 20  4  2  0  0  0  0
 22  4  1  6  0  0  0
 22  1  1  0  0  0  0
 22 12  1  0  0  0  0
 23 18  1  6  0  0  0
 25 26  1  0  0  0  0
 25 24  1  1  0  0  0
 26 27  1  1  0  0  0
 26 24  1  0  0  0  0
 28 27  1  0  0  0  0
 29 28  2  0  0  0  0
 30 28  1  0  0  0  0
 31 32  2  0  0  0  0
M  END
>  <MODEL>
1

>  <REMARK>
 VINA RESULT:      -5.4      0.000      0.000
  Name = 
  3 active torsions:
  status: ('A' for Active; 'I' for Inactive)
    1  A    between atoms: C_7  and  C_19
    2  A    between atoms: C_10  and  C_17
    3  A    between atoms: C_20  and  N_29
                            x       y       z     vdW  Elec       q    Type
                         _______ _______ _______ _____ _____    ______ ____

>  <TORSDO>
F 3

$$$$
=
 OpenBabel11122413013D

 32 37  0  0  1  0  0  0  0  0999 V2000
  160.2670  213.7890  147.5580 C   0  0  1  0  0  3  0  0  0  0  0  0
  156.0760  214.4530  146.9900 O   0  0  0  0  0  0  0  0  0  0  0  0
  156.2740  214.3010  145.6060 C   0  0  0  0  0  2  0  0  0  0  0  0
  161.6480  214.0220  145.3890 C   0  0  0  0  0  0  0  0  0  0  0  0
  161.5870  214.1150  143.9570 N   0  0  0  0  0  0  0  0  0  0  0  0
  161.5170  212.7770  149.5600 C   0  0  2  0  0  3  0  0  0  0  0  0
  159.1080  213.2880  149.4760 O   0  0  0  0  0  0  0  0  0  0  0  0
  160.8650  213.4410  141.8000 C   0  0  1  0  0  3  0  0  0  0  0  0
  157.3490  214.4470  147.5890 C   0  0  0  0  0  2  0  0  0  0  0  0
  159.2530  212.9180  148.1750 N   0  0  1  0  0  0  0  0  0  0  0  0
  157.9590  213.0370  147.4910 C   0  0  2  0  0  3  0  0  0  0  0  0
  159.2400  213.3480  145.3230 C   0  0  2  0  0  3  0  0  0  0  0  0
  162.2520  214.0670  141.6880 C   0  0  0  0  0  2  0  0  0  0  0  0
  160.1140  212.5980  150.1880 C   0  0  2  0  0  3  0  0  0  0  0  0
  162.7570  214.2500  143.1150 C   0  0  0  0  0  2  0  0  0  0  0  0
  156.7580  212.8800  145.2950 C   0  0  0  0  0  2  0  0  0  0  0  0
  158.0840  212.6060  146.0160 C   0  0  2  0  0  3  0  0  0  0  0  0
  159.4720  212.8410  143.9050 C   0  0  0  0  0  2  0  0  0  0  0  0
  161.5190  213.8420  148.4540 C   0  0  0  0  0  2  0  0  0  0  0  0
  162.6740  214.4370  145.9940 O   0  0  0  0  0  0  0  0  0  0  0  0
  161.0050  211.9320  141.6310 C   0  0  0  0  0  1  0  0  0  0  0  0
  160.5490  213.2850  146.1330 C   0  0  2  0  0  3  0  0  0  0  0  0
  160.3830  213.8420  143.1930 C   0  0  1  0  0  3  0  0  0  0  0  0
  158.7270  213.0730  152.1900 C   0  0  0  0  0  2  0  0  0  0  0  0
  160.1340  213.0810  151.6270 C   0  0  1  0  0  3  0  0  0  0  0  0
  159.6860  211.9550  152.5370 C   0  0  1  0  0  3  0  0  0  0  0  0
  160.2250  212.1760  153.8680 N   0  0  0  0  0  2  0  0  0  0  0  0
  160.8990  211.1410  154.5820 C   0  0  0  0  0  0  0  0  0  0  0  0
  161.0670  209.8840  154.0140 O   0  0  0  0  0  0  0  0  0  0  0  0
  161.3490  211.3690  155.7350 O   0  0  0  0  0  1  0  0  0  0  0  0
  161.9930  210.2810  149.7930 S   0  0  0  0  0  0  0  0  0  0  0  0
  162.0170  211.4790  149.0040 C   0  0  0  0  0  3  0  0  0  0  0  0
  1 10  1  0  0  0  0
  1 19  1  1  0  0  0
  2  9  1  0  0  0  0
  3  2  1  0  0  0  0
  4 20  2  0  0  0  0
  5  4  1  0  0  0  0
  6 32  1  6  0  0  0
  6 14  1  0  0  0  0
  8 21  1  1  0  0  0
  8 23  1  0  0  0  0
 10  7  1  1  0  0  0
 11  9  1  6  0  0  0
 11 10  1  0  0  0  0
 12 18  1  6  0  0  0
 12 17  1  0  0  0  0
 12 22  1  0  0  0  0
 13  8  1  0  0  0  0
 13 15  1  0  0  0  0
 14  7  1  6  0  0  0
 14 25  1  0  0  0  0
 15  5  1  0  0  0  0
 16  3  1  0  0  0  0
 17 16  1  6  0  0  0
 17 11  1  0  0  0  0
 19  6  1  0  0  0  0
 22  4  1  6  0  0  0
 22  1  1  0  0  0  0
 23 18  1  1  0  0  0
 23  5  1  0  0  0  0
 24 26  1  0  0  0  0
 25 24  1  6  0  0  0
 25 26  1  0  0  0  0
 26 27  1  1  0  0  0
 27 28  1  0  0  0  0
 28 30  1  0  0  0  0
 29 28  2  0  0  0  0
 32 31  2  0  0  0  0
M  END
>  <MODEL>
2

>  <REMARK>
 VINA RESULT:      -4.1      4.899      7.546
  Name = 
  3 active torsions:
  status: ('A' for Active; 'I' for Inactive)
    1  A    between atoms: C_7  and  C_19
    2  A    between atoms: C_10  and  C_17
    3  A    between atoms: C_20  and  N_29
                            x       y       z     vdW  Elec       q    Type
                         _______ _______ _______ _____ _____    ______ ____

>  <TORSDO>
F 3

$$$$
=
 OpenBabel11122413013D

 32 37  0  0  1  0  0  0  0  0999 V2000
  161.9530  206.4700  151.2810 C   0  0  1  0  0  3  0  0  0  0  0  0
  162.2680  207.9600  147.2800 O   0  0  0  0  0  0  0  0  0  0  0  0
  161.8500  206.7000  146.8140 C   0  0  0  0  0  2  0  0  0  0  0  0
  161.8140  203.8940  151.4110 C   0  0  0  0  0  0  0  0  0  0  0  0
  161.6120  202.6860  150.6630 N   0  0  0  0  0  0  0  0  0  0  0  0
  161.4340  207.7150  153.4660 C   0  0  2  0  0  3  0  0  0  0  0  0
  161.7910  208.7600  151.2630 O   0  0  0  0  0  0  0  0  0  0  0  0
  160.4770  201.3000  149.1060 C   0  0  1  0  0  3  0  0  0  0  0  0
  162.4510  207.8420  148.6700 C   0  0  0  0  0  2  0  0  0  0  0  0
  161.1730  207.6300  150.8220 N   0  0  1  0  0  0  0  0  0  0  0  0
  161.0830  207.6690  149.3570 C   0  0  2  0  0  3  0  0  0  0  0  0
  161.0150  205.1320  149.3900 C   0  0  2  0  0  3  0  0  0  0  0  0
  161.1400  200.4230  150.1650 C   0  0  0  0  0  2  0  0  0  0  0  0
  161.3130  208.9740  152.5750 C   0  0  2  0  0  3  0  0  0  0  0  0
  161.6350  201.3650  151.2560 C   0  0  0  0  0  2  0  0  0  0  0  0
  160.4220  206.4090  147.2920 C   0  0  0  0  0  2  0  0  0  0  0  0
  160.3700  206.4100  148.8250 C   0  0  2  0  0  3  0  0  0  0  0  0
  160.2450  203.8800  148.9890 C   0  0  0  0  0  2  0  0  0  0  0  0
  162.2520  206.6080  152.7860 C   0  0  0  0  0  2  0  0  0  0  0  0
  162.3960  203.8410  152.5290 O   0  0  0  0  0  0  0  0  0  0  0  0
  158.9760  201.3130  149.3660 C   0  0  0  0  0  1  0  0  0  0  0  0
  161.1870  205.1860  150.9200 C   0  0  2  0  0  3  0  0  0  0  0  0
  161.1270  202.6700  149.2940 C   0  0  1  0  0  3  0  0  0  0  0  0
  161.1280  211.2610  153.5200 C   0  0  0  0  0  2  0  0  0  0  0  0
  162.0780  210.1230  153.2070 C   0  0  1  0  0  3  0  0  0  0  0  0
  161.5820  210.3310  154.6240 C   0  0  1  0  0  3  0  0  0  0  0  0
  162.6250  210.9780  155.4030 N   0  0  0  0  0  2  0  0  0  0  0  0
  163.1210  210.4030  156.6100 C   0  0  0  0  0  0  0  0  0  0  0  0
  162.6210  209.1920  157.0750 O   0  0  0  0  0  0  0  0  0  0  0  0
  164.0220  210.9960  157.2600 O   0  0  0  0  0  1  0  0  0  0  0  0
  159.6040  207.2290  155.1760 S   0  0  0  0  0  0  0  0  0  0  0  0
  160.0790  207.1880  153.8230 C   0  0  0  0  0  3  0  0  0  0  0  0
  1 19  1  1  0  0  0
  2  9  1  0  0  0  0
  3  2  1  0  0  0  0
  3 16  1  0  0  0  0
  4 20  2  0  0  0  0
  5 15  1  0  0  0  0
  5  4  1  0  0  0  0
  6 32  1  6  0  0  0
  8 23  1  0  0  0  0
  8 21  1  1  0  0  0
  8 13  1  0  0  0  0
 10  7  1  6  0  0  0
 10  1  1  0  0  0  0
 11  9  1  6  0  0  0
 11 10  1  0  0  0  0
 12 18  1  1  0  0  0
 12 22  1  0  0  0  0
 13 15  1  0  0  0  0
 14  7  1  6  0  0  0
 14 25  1  0  0  0  0
 14  6  1  0  0  0  0
 17 16  1  6  0  0  0
 17 11  1  0  0  0  0
 17 12  1  0  0  0  0
 19  6  1  0  0  0  0
 22  1  1  0  0  0  0
 22  4  1  6  0  0  0
 23 18  1  1  0  0  0
 23  5  1  0  0  0  0
 24 26  1  0  0  0  0
 25 24  1  6  0  0  0
 25 26  1  0  0  0  0
 26 27  1  1  0  0  0
 27 28  1  0  0  0  0
 28 29  2  0  0  0  0
 28 30  1  0  0  0  0
 32 31  2  0  0  0  0
M  END
>  <MODEL>
3

>  <REMARK>
 VINA RESULT:      -3.5      3.325      8.287
  Name = 
  3 active torsions:
  status: ('A' for Active; 'I' for Inactive)
    1  A    between atoms: C_7  and  C_19
    2  A    between atoms: C_10  and  C_17
    3  A    between atoms: C_20  and  N_29
                            x       y       z     vdW  Elec       q    Type
                         _______ _______ _______ _____ _____    ______ ____

>  <TORSDO>
F 3

$$$$
=
 OpenBabel11122413013D

 32 37  0  0  1  0  0  0  0  0999 V2000
  160.4860  205.4790  150.3880 C   0  0  1  0  0  3  0  0  0  0  0  0
  159.9900  201.3180  151.2620 O   0  0  0  0  0  0  0  0  0  0  0  0
  160.3610  201.0300  149.9350 C   0  0  0  0  0  2  0  0  0  0  0  0
  160.5850  205.9950  147.8590 C   0  0  0  0  0  0  0  0  0  0  0  0
  160.7260  205.4310  146.5470 N   0  0  0  0  0  0  0  0  0  0  0  0
  161.1410  207.4200  151.9370 C   0  0  2  0  0  3  0  0  0  0  0  0
  160.6880  205.1040  152.6440 O   0  0  0  0  0  0  0  0  0  0  0  0
  161.7530  204.0510  144.9110 C   0  0  1  0  0  3  0  0  0  0  0  0
  159.8790  202.7170  151.3600 C   0  0  0  0  0  2  0  0  0  0  0  0
  161.2620  204.8110  151.4450 N   0  0  1  0  0  0  0  0  0  0  0  0
  161.2760  203.3550  151.2580 C   0  0  2  0  0  3  0  0  0  0  0  0
  161.3000  203.7710  148.7550 C   0  0  2  0  0  3  0  0  0  0  0  0
  161.1300  205.2630  144.2230 C   0  0  0  0  0  2  0  0  0  0  0  0
  161.2380  206.3420  153.0430 C   0  0  2  0  0  3  0  0  0  0  0  0
  160.7100  206.2200  145.3320 C   0  0  0  0  0  2  0  0  0  0  0  0
  161.8060  201.4770  149.6830 C   0  0  0  0  0  2  0  0  0  0  0  0
  161.9380  202.9870  149.9150 C   0  0  2  0  0  3  0  0  0  0  0  0
  162.0260  203.5290  147.4370 C   0  0  0  0  0  2  0  0  0  0  0  0
  160.2690  206.9580  150.7610 C   0  0  0  0  0  2  0  0  0  0  0  0
  160.0620  207.1340  147.9920 O   0  0  0  0  0  0  0  0  0  0  0  0
  163.2660  204.2330  144.9250 C   0  0  0  0  0  1  0  0  0  0  0  0
  161.2090  205.2820  149.0450 C   0  0  2  0  0  3  0  0  0  0  0  0
  161.1380  204.0590  146.3110 C   0  0  1  0  0  3  0  0  0  0  0  0
  161.5290  206.9910  155.4200 C   0  0  0  0  0  2  0  0  0  0  0  0
  160.5280  206.8280  154.2930 C   0  0  1  0  0  3  0  0  0  0  0  0
  161.0460  208.2050  154.6570 C   0  0  1  0  0  3  0  0  0  0  0  0
  160.0390  208.9010  155.4410 N   0  0  0  0  0  2  0  0  0  0  0  0
  160.0670  210.3170  155.6040 C   0  0  0  0  0  0  0  0  0  0  0  0
  161.0640  211.0790  155.0060 O   0  0  0  0  0  0  0  0  0  0  0  0
  159.1800  210.8830  156.2950 O   0  0  0  0  0  1  0  0  0  0  0  0
  162.6660  208.5330  150.2200 S   0  0  0  0  0  0  0  0  0  0  0  0
  162.5030  207.7870  151.4350 C   0  0  0  0  0  3  0  0  0  0  0  0
  1 19  1  1  0  0  0
  1 10  1  0  0  0  0
  2  9  1  0  0  0  0
  3  2  1  0  0  0  0
  4 20  2  0  0  0  0
  5  4  1  0  0  0  0
  6 32  1  6  0  0  0
  6 14  1  0  0  0  0
  8 21  1  1  0  0  0
  8 23  1  0  0  0  0
 10  7  1  1  0  0  0
 11  9  1  6  0  0  0
 11 10  1  0  0  0  0
 12 18  1  6  0  0  0
 12 22  1  0  0  0  0
 12 17  1  0  0  0  0
 13  8  1  0  0  0  0
 13 15  1  0  0  0  0
 14  7  1  6  0  0  0
 14 25  1  0  0  0  0
 15  5  1  0  0  0  0
 16  3  1  0  0  0  0
 17 16  1  6  0  0  0
 17 11  1  0  0  0  0
 19  6  1  0  0  0  0
 22  4  1  6  0  0  0
 22  1  1  0  0  0  0
 23  5  1  0  0  0  0
 23 18  1  1  0  0  0
 25 26  1  0  0  0  0
 25 24  1  1  0  0  0
 26 24  1  0  0  0  0
 26 27  1  1  0  0  0
 27 28  1  0  0  0  0
 28 30  1  0  0  0  0
 29 28  2  0  0  0  0
 31 32  2  0  0  0  0
M  END
>  <MODEL>
4

>  <REMARK>
 VINA RESULT:      -3.4      3.857      7.591
  Name = 
  3 active torsions:
  status: ('A' for Active; 'I' for Inactive)
    1  A    between atoms: C_7  and  C_19
    2  A    between atoms: C_10  and  C_17
    3  A    between atoms: C_20  and  N_29
                            x       y       z     vdW  Elec       q    Type
                         _______ _______ _______ _____ _____    ______ ____

>  <TORSDO>
F 3

$$$$
=
 OpenBabel11122413013D

 32 37  0  0  1  0  0  0  0  0999 V2000
  159.5530  212.6010  146.0430 C   0  0  1  0  0  3  0  0  0  0  0  0
  162.9500  213.0080  148.6160 O   0  0  0  0  0  0  0  0  0  0  0  0
  163.7600  213.1230  147.4710 C   0  0  0  0  0  2  0  0  0  0  0  0
  160.1750  212.0580  143.5960 C   0  0  0  0  0  0  0  0  0  0  0  0
  161.2410  212.0010  142.6360 N   0  0  0  0  0  0  0  0  0  0  0  0
  157.0990  213.2450  146.4420 C   0  0  2  0  0  3  0  0  0  0  0  0
  158.9050  213.3500  148.1140 O   0  0  0  0  0  0  0  0  0  0  0  0
  163.1290  212.8600  141.4850 C   0  0  1  0  0  3  0  0  0  0  0  0
  161.6550  212.6890  148.1690 C   0  0  0  0  0  2  0  0  0  0  0  0
  159.6530  213.6890  147.0290 N   0  0  1  0  0  0  0  0  0  0  0  0
  161.0440  213.9040  147.4480 C   0  0  2  0  0  3  0  0  0  0  0  0
  161.7480  213.3110  145.0830 C   0  0  2  0  0  3  0  0  0  0  0  0
  162.3720  211.9100  140.5620 C   0  0  0  0  0  2  0  0  0  0  0  0
  157.5870  213.7590  147.8170 C   0  0  2  0  0  3  0  0  0  0  0  0
  161.0560  211.5890  141.2600 C   0  0  0  0  0  2  0  0  0  0  0  0
  163.3830  214.3820  146.6820 C   0  0  0  0  0  2  0  0  0  0  0  0
  161.9160  214.3080  146.2420 C   0  0  2  0  0  3  0  0  0  0  0  0
  162.4920  213.7610  143.8320 C   0  0  0  0  0  2  0  0  0  0  0  0
  158.0730  212.2270  145.8330 C   0  0  0  0  0  2  0  0  0  0  0  0
  159.1220  211.3930  143.3940 O   0  0  0  0  0  0  0  0  0  0  0  0
  162.8720  214.2880  141.0170 C   0  0  0  0  0  1  0  0  0  0  0  0
  160.2680  213.0360  144.7530 C   0  0  2  0  0  3  0  0  0  0  0  0
  162.5540  212.5740  142.8710 C   0  0  1  0  0  3  0  0  0  0  0  0
  157.4490  212.8910  150.1380 C   0  0  0  0  0  2  0  0  0  0  0  0
  156.6500  213.2690  148.9070 C   0  0  1  0  0  3  0  0  0  0  0  0
  156.7210  214.2160  150.0880 C   0  0  1  0  0  3  0  0  0  0  0  0
  155.4870  214.1190  150.8500 N   0  0  0  0  0  2  0  0  0  0  0  0
  155.4840  214.1640  152.2760 C   0  0  0  0  0  0  0  0  0  0  0  0
  156.6730  214.3100  152.9810 O   0  0  0  0  0  1  0  0  0  0  0  0
  154.3960  214.0720  152.9010 O   0  0  0  0  0  0  0  0  0  0  0  0
  155.7520  214.4490  144.6400 S   0  0  0  0  0  0  0  0  0  0  0  0
  156.9070  214.3840  145.4890 C   0  0  0  0  0  3  0  0  0  0  0  0
  1 19  1  6  0  0  0
  1 10  1  0  0  0  0
  3  2  1  0  0  0  0
  5 23  1  0  0  0  0
  5  4  1  0  0  0  0
  6 32  1  6  0  0  0
  6 14  1  0  0  0  0
  8 21  1  6  0  0  0
  8 23  1  0  0  0  0
  9  2  1  0  0  0  0
 10 11  1  0  0  0  0
 10  7  1  1  0  0  0
 11  9  1  6  0  0  0
 12 18  1  6  0  0  0
 12 17  1  0  0  0  0
 13 15  1  0  0  0  0
 13  8  1  0  0  0  0
 14  7  1  1  0  0  0
 14 25  1  0  0  0  0
 15  5  1  0  0  0  0
 16  3  1  0  0  0  0
 17 16  1  1  0  0  0
 17 11  1  0  0  0  0
 19  6  1  0  0  0  0
 20  4  2  0  0  0  0
 22  4  1  6  0  0  0
 22 12  1  0  0  0  0
 22  1  1  0  0  0  0
 23 18  1  1  0  0  0
 25 26  1  0  0  0  0
 25 24  1  1  0  0  0
 26 24  1  0  0  0  0
 26 27  1  1  0  0  0
 27 28  1  0  0  0  0
 28 30  2  0  0  0  0
 28 29  1  0  0  0  0
 31 32  2  0  0  0  0
M  END
>  <MODEL>
5

>  <REMARK>
 VINA RESULT:      -2.7      6.658      8.837
  Name = 
  3 active torsions:
  status: ('A' for Active; 'I' for Inactive)
    1  A    between atoms: C_7  and  C_19
    2  A    between atoms: C_10  and  C_17
    3  A    between atoms: C_20  and  N_29
                            x       y       z     vdW  Elec       q    Type
                         _______ _______ _______ _____ _____    ______ ____

>  <TORSDO>
F 3

$$$$
