=
 OpenBabel11122414093D

 28 32  0  0  1  0  0  0  0  0999 V2000
  160.4690  209.9050  156.2400 C   0  0  0  0  0  0  0  0  0  0  0  0
  155.7180  210.3960  154.2590 F   0  0  0  0  0  0  0  0  0  0  0  0
  161.6570  211.0800  151.9810 O   0  0  0  0  0  0  0  0  0  0  0  0
  161.2350  212.5180  156.8870 C   0  0  0  0  0  3  0  0  0  0  0  0
  159.5470  212.0880  152.2460 N   0  0  0  0  0  0  0  0  0  0  0  0
  160.1070  208.6110  155.8620 O   0  0  0  0  0  0  0  0  0  0  0  0
  155.6110  210.9830  156.5420 C   0  0  0  0  0  1  0  0  0  0  0  0
  155.9470  211.4440  155.1370 C   0  0  1  0  0  0  0  0  0  0  0  0
  155.3760  213.4100  153.8640 C   0  0  0  0  0  0  0  0  0  0  0  0
  157.4200  211.8920  155.0810 C   0  0  2  0  0  3  0  0  0  0  0  0
  162.5170  209.1230  154.0410 O   0  0  0  0  0  1  0  0  0  0  0  0
  158.6060  210.3600  153.5900 C   0  0  1  0  0  3  0  0  0  0  0  0
  156.6330  213.3800  153.2540 O   0  0  0  0  0  0  0  0  0  0  0  0
  155.0640  212.5490  154.7830 N   0  0  0  0  0  0  0  0  0  0  0  0
  161.5190  208.1530  153.9250 C   0  0  2  0  0  3  0  0  0  0  0  0
  159.6430  210.9790  155.8750 C   0  0  0  0  0  0  0  0  0  0  0  0
  160.4990  211.0730  152.4790 C   0  0  0  0  0  0  0  0  0  0  0  0
  154.3930  214.4520  153.4690 C   0  0  0  0  0  1  0  0  0  0  0  0
  160.3840  208.6220  153.0050 C   0  0  0  0  0  2  0  0  0  0  0  0
  160.0450  212.2880  156.1920 C   0  0  0  0  0  3  0  0  0  0  0  0
  161.6650  210.1400  156.9330 C   0  0  0  0  0  3  0  0  0  0  0  0
  162.0430  211.4440  157.2610 C   0  0  0  0  0  3  0  0  0  0  0  0
  161.0380  207.6930  155.3030 C   0  0  0  0  0  2  0  0  0  0  0  0
  158.2760  211.6410  152.7910 C   0  0  1  0  0  3  0  0  0  0  0  0
  159.9910  210.0080  153.2600 N   0  0  0  0  0  0  0  0  0  0  0  0
  157.7420  212.6530  153.7910 C   0  0  2  0  0  3  0  0  0  0  0  0
  159.6830  213.1330  151.2450 C   0  0  0  0  0  1  0  0  0  0  0  0
  158.3800  210.7030  155.0790 C   0  0  1  0  0  3  0  0  0  0  0  0
  1 21  1  0  0  0  0
  2  8  1  0  0  0  0
  3 17  2  0  0  0  0
  4 22  1  0  0  0  0
  5 17  1  0  0  0  0
  5 24  1  0  0  0  0
  6  1  1  0  0  0  0
  8  7  1  1  0  0  0
  9 14  2  0  0  0  0
 10  8  1  0  0  0  0
 12 28  1  0  0  0  0
 13 26  1  0  0  0  0
 13  9  1  0  0  0  0
 14  8  1  0  0  0  0
 15 11  1  0  0  0  0
 15 23  1  0  0  0  0
 16 20  1  0  0  0  0
 16  1  2  0  0  0  0
 17 25  1  0  0  0  0
 18  9  1  0  0  0  0
 19 25  1  0  0  0  0
 19 15  1  0  0  0  0
 20  4  2  0  0  0  0
 21 22  2  0  0  0  0
 23  6  1  0  0  0  0
 24 12  1  0  0  0  0
 24 26  1  0  0  0  0
 25 12  1  0  0  0  0
 26 10  1  0  0  0  0
 27  5  1  0  0  0  0
 28 10  1  0  0  0  0
 28 16  1  0  0  0  0
M  END
>  <MODEL>
1

>  <REMARK>
 VINA RESULT:      -2.4      0.000      0.000
  Name = 
  0 active torsions:
  status: ('A' for Active; 'I' for Inactive)
                            x       y       z     vdW  Elec       q    Type
                         _______ _______ _______ _____ _____    ______ ____

>  <TORSDO>
F 0

$$$$
=
 OpenBabel11122414093D

 28 32  0  0  1  0  0  0  0  0999 V2000
  161.0720  209.5080  156.4330 C   0  0  0  0  0  0  0  0  0  0  0  0
  157.6540  211.6040  153.1680 F   0  0  0  0  0  0  0  0  0  0  0  0
  162.3490  207.2910  152.6410 O   0  0  0  0  0  0  0  0  0  0  0  0
  163.4180  210.9830  156.0370 C   0  0  0  0  0  3  0  0  0  0  0  0
  161.4520  209.3010  151.8090 N   0  0  0  0  0  0  0  0  0  0  0  0
  159.9180  208.7380  156.5850 O   0  0  0  0  0  0  0  0  0  0  0  0
  158.1650  213.2190  154.8110 C   0  0  0  0  0  1  0  0  0  0  0  0
  158.5920  212.5650  153.5110 C   0  0  1  0  0  0  0  0  0  0  0  0
  159.3380  213.4390  151.3910 C   0  0  0  0  0  0  0  0  0  0  0  0
  159.9850  211.9310  153.6870 C   0  0  2  0  0  3  0  0  0  0  0  0
  161.8970  206.6620  155.5070 O   0  0  0  0  0  1  0  0  0  0  0  0
  159.7350  209.5110  153.4470 C   0  0  1  0  0  3  0  0  0  0  0  0
  160.2060  212.3520  151.2500 O   0  0  0  0  0  0  0  0  0  0  0  0
  158.6230  213.5800  152.4640 N   0  0  0  0  0  0  0  0  0  0  0  0
  160.5020  206.6050  155.5530 C   0  0  2  0  0  3  0  0  0  0  0  0
  161.1240  210.4650  155.4070 C   0  0  0  0  0  0  0  0  0  0  0  0
  161.5210  208.2370  152.7320 C   0  0  0  0  0  0  0  0  0  0  0  0
  159.2490  214.4530  150.3090 C   0  0  0  0  0  1  0  0  0  0  0  0
  159.8760  207.0860  154.2380 C   0  0  0  0  0  2  0  0  0  0  0  0
  162.3130  211.1890  155.2080 C   0  0  0  0  0  3  0  0  0  0  0  0
  162.1860  209.3010  157.2600 C   0  0  0  0  0  3  0  0  0  0  0  0
  163.3530  210.0420  157.0650 C   0  0  0  0  0  3  0  0  0  0  0  0
  159.9640  207.3320  156.7880 C   0  0  0  0  0  2  0  0  0  0  0  0
  160.2550  210.0710  152.1050 C   0  0  1  0  0  3  0  0  0  0  0  0
  160.5120  208.2980  153.7230 N   0  0  0  0  0  0  0  0  0  0  0  0
  160.6090  211.5290  152.3470 C   0  0  2  0  0  3  0  0  0  0  0  0
  162.1480  209.3330  150.5330 C   0  0  0  0  0  1  0  0  0  0  0  0
  159.9240  210.6330  154.4920 C   0  0  1  0  0  3  0  0  0  0  0  0
  1  6  1  0  0  0  0
  1 21  1  0  0  0  0
  2  8  1  0  0  0  0
  3 17  2  0  0  0  0
  4 22  1  0  0  0  0
  5 24  1  0  0  0  0
  5 17  1  0  0  0  0
  6 23  1  0  0  0  0
  8 10  1  0  0  0  0
  8  7  1  1  0  0  0
  9 14  2  0  0  0  0
 10 28  1  0  0  0  0
 11 15  1  0  0  0  0
 12 25  1  0  0  0  0
 12 28  1  0  0  0  0
 13  9  1  0  0  0  0
 13 26  1  0  0  0  0
 14  8  1  0  0  0  0
 15 23  1  0  0  0  0
 16  1  2  0  0  0  0
 17 25  1  0  0  0  0
 18  9  1  0  0  0  0
 19 15  1  0  0  0  0
 20 16  1  0  0  0  0
 20  4  2  0  0  0  0
 22 21  2  0  0  0  0
 24 26  1  0  0  0  0
 24 12  1  0  0  0  0
 25 19  1  0  0  0  0
 26 10  1  0  0  0  0
 27  5  1  0  0  0  0
 28 16  1  0  0  0  0
M  END
>  <MODEL>
2

>  <REMARK>
 VINA RESULT:      -2.2      2.247      3.061
  Name = 
  0 active torsions:
  status: ('A' for Active; 'I' for Inactive)
                            x       y       z     vdW  Elec       q    Type
                         _______ _______ _______ _____ _____    ______ ____

>  <TORSDO>
F 0

$$$$
=
 OpenBabel11122414093D

 28 32  0  0  1  0  0  0  0  0999 V2000
  161.6950  210.0740  154.3080 C   0  0  0  0  0  0  0  0  0  0  0  0
  160.1780  214.3170  151.7730 F   0  0  0  0  0  0  0  0  0  0  0  0
  157.9370  210.9830  156.7520 O   0  0  0  0  0  0  0  0  0  0  0  0
  160.1560  208.0100  153.2100 C   0  0  0  0  0  3  0  0  0  0  0  0
  157.4390  211.9010  154.6430 N   0  0  0  0  0  0  0  0  0  0  0  0
  162.4180  211.1150  154.8930 O   0  0  0  0  0  0  0  0  0  0  0  0
  161.2680  212.9060  150.2280 C   0  0  0  0  0  1  0  0  0  0  0  0
  159.9750  213.2140  150.9590 C   0  0  1  0  0  0  0  0  0  0  0  0
  157.6830  213.4260  150.2410 C   0  0  0  0  0  0  0  0  0  0  0  0
  159.5520  211.9890  151.7930 C   0  0  2  0  0  3  0  0  0  0  0  0
  160.7370  210.1370  157.2610 O   0  0  0  0  0  1  0  0  0  0  0  0
  159.6540  212.6260  154.1510 C   0  0  1  0  0  3  0  0  0  0  0  0
  157.2540  212.8670  151.4480 O   0  0  0  0  0  0  0  0  0  0  0  0
  158.9480  213.5420  149.9770 N   0  0  0  0  0  0  0  0  0  0  0  0
  161.4160  211.3480  157.1060 C   0  0  2  0  0  3  0  0  0  0  0  0
  160.6820  210.3810  153.3870 C   0  0  0  0  0  0  0  0  0  0  0  0
  158.3150  211.5480  155.6910 C   0  0  0  0  0  0  0  0  0  0  0  0
  156.6790  213.8760  149.2420 C   0  0  0  0  0  1  0  0  0  0  0  0
  160.4940  212.4440  156.5570 C   0  0  0  0  0  2  0  0  0  0  0  0
  159.9060  209.3370  152.8530 C   0  0  0  0  0  3  0  0  0  0  0  0
  161.9410  208.7410  154.6670 C   0  0  0  0  0  3  0  0  0  0  0  0
  161.1760  207.7120  154.1150 C   0  0  0  0  0  3  0  0  0  0  0  0
  162.6950  211.1580  156.2870 C   0  0  0  0  0  2  0  0  0  0  0  0
  158.1800  212.7180  153.6970 C   0  0  1  0  0  3  0  0  0  0  0  0
  159.6470  211.9690  155.4630 N   0  0  0  0  0  0  0  0  0  0  0  0
  158.1130  212.1110  152.3060 C   0  0  2  0  0  3  0  0  0  0  0  0
  155.9880  211.8740  154.7360 C   0  0  0  0  0  1  0  0  0  0  0  0
  160.4010  211.8350  153.0540 C   0  0  1  0  0  3  0  0  0  0  0  0
  1 21  1  0  0  0  0
  1  6  1  0  0  0  0
  4 22  1  0  0  0  0
  5 27  1  0  0  0  0
  5 17  1  0  0  0  0
  6 23  1  0  0  0  0
  8  7  1  6  0  0  0
  8  2  1  0  0  0  0
  8 10  1  0  0  0  0
  9 13  1  0  0  0  0
 10 26  1  0  0  0  0
 10 28  1  0  0  0  0
 12 25  1  0  0  0  0
 13 26  1  0  0  0  0
 14  9  2  0  0  0  0
 14  8  1  0  0  0  0
 15 11  1  0  0  0  0
 16  1  2  0  0  0  0
 17  3  2  0  0  0  0
 18  9  1  0  0  0  0
 19 15  1  0  0  0  0
 20  4  2  0  0  0  0
 20 16  1  0  0  0  0
 22 21  2  0  0  0  0
 23 15  1  0  0  0  0
 24 12  1  0  0  0  0
 24  5  1  0  0  0  0
 25 17  1  0  0  0  0
 25 19  1  0  0  0  0
 26 24  1  0  0  0  0
 28 16  1  0  0  0  0
 28 12  1  0  0  0  0
M  END
>  <MODEL>
3

>  <REMARK>
 VINA RESULT:      -2.1      2.150      4.484
  Name = 
  0 active torsions:
  status: ('A' for Active; 'I' for Inactive)
                            x       y       z     vdW  Elec       q    Type
                         _______ _______ _______ _____ _____    ______ ____

>  <TORSDO>
F 0

$$$$
=
 OpenBabel11122414093D

 28 32  0  0  1  0  0  0  0  0999 V2000
  157.3760  211.6630  156.3260 C   0  0  0  0  0  0  0  0  0  0  0  0
  161.8020  208.9940  156.1760 F   0  0  0  0  0  0  0  0  0  0  0  0
  159.1580  213.5680  152.5680 O   0  0  0  0  0  0  0  0  0  0  0  0
  155.6920  210.3340  154.5270 C   0  0  0  0  0  3  0  0  0  0  0  0
  160.1230  211.4220  152.5890 N   0  0  0  0  0  0  0  0  0  0  0  0
  158.2370  212.3570  157.1770 O   0  0  0  0  0  0  0  0  0  0  0  0
  160.1510  207.5990  157.1230 C   0  0  0  0  0  1  0  0  0  0  0  0
  160.7570  208.1460  155.8440 C   0  0  1  0  0  0  0  0  0  0  0  0
  161.4680  207.1180  153.7830 C   0  0  0  0  0  0  0  0  0  0  0  0
  159.6760  208.8970  155.0430 C   0  0  2  0  0  3  0  0  0  0  0  0
  157.7110  214.4530  155.0060 O   0  0  0  0  0  1  0  0  0  0  0  0
  160.3190  211.2540  154.9580 C   0  0  1  0  0  3  0  0  0  0  0  0
  161.0440  208.2460  153.0750 O   0  0  0  0  0  0  0  0  0  0  0  0
  161.2900  207.0340  155.0650 N   0  0  0  0  0  0  0  0  0  0  0  0
  158.7340  214.4100  155.9560 C   0  0  2  0  0  3  0  0  0  0  0  0
  157.8860  210.6130  155.5460 C   0  0  0  0  0  0  0  0  0  0  0  0
  159.6020  212.5780  153.2090 C   0  0  0  0  0  0  0  0  0  0  0  0
  162.1130  205.9940  153.0550 C   0  0  0  0  0  1  0  0  0  0  0  0
  159.9990  213.7510  155.3920 C   0  0  0  0  0  2  0  0  0  0  0  0
  157.0340  209.9620  154.6360 C   0  0  0  0  0  3  0  0  0  0  0  0
  156.0290  212.0360  156.2110 C   0  0  0  0  0  3  0  0  0  0  0  0
  155.1890  211.3690  155.3170 C   0  0  0  0  0  3  0  0  0  0  0  0
  158.2440  213.7760  157.2600 C   0  0  0  0  0  2  0  0  0  0  0  0
  160.7330  210.6000  153.6210 C   0  0  1  0  0  3  0  0  0  0  0  0
  159.7070  212.5430  154.6200 N   0  0  0  0  0  0  0  0  0  0  0  0
  160.1300  209.2050  153.6130 C   0  0  2  0  0  3  0  0  0  0  0  0
  160.4260  211.3110  151.1720 C   0  0  0  0  0  1  0  0  0  0  0  0
  159.3590  210.2620  155.6520 C   0  0  1  0  0  3  0  0  0  0  0  0
  1  6  1  0  0  0  0
  3 17  2  0  0  0  0
  4 20  2  0  0  0  0
  4 22  1  0  0  0  0
  5 17  1  0  0  0  0
  5 24  1  0  0  0  0
  6 23  1  0  0  0  0
  8  2  1  0  0  0  0
  8  7  1  1  0  0  0
  9 14  2  0  0  0  0
 10 28  1  0  0  0  0
 10  8  1  0  0  0  0
 11 15  1  0  0  0  0
 12 28  1  0  0  0  0
 13 26  1  0  0  0  0
 13  9  1  0  0  0  0
 14  8  1  0  0  0  0
 15 23  1  0  0  0  0
 16 28  1  0  0  0  0
 16  1  2  0  0  0  0
 17 25  1  0  0  0  0
 18  9  1  0  0  0  0
 19 15  1  0  0  0  0
 20 16  1  0  0  0  0
 21  1  1  0  0  0  0
 22 21  2  0  0  0  0
 24 12  1  0  0  0  0
 25 12  1  0  0  0  0
 25 19  1  0  0  0  0
 26 24  1  0  0  0  0
 26 10  1  0  0  0  0
 27  5  1  0  0  0  0
M  END
>  <MODEL>
4

>  <REMARK>
 VINA RESULT:      -2.1      2.405      5.583
  Name = 
  0 active torsions:
  status: ('A' for Active; 'I' for Inactive)
                            x       y       z     vdW  Elec       q    Type
                         _______ _______ _______ _____ _____    ______ ____

>  <TORSDO>
F 0

$$$$
=
 OpenBabel11122414093D

 28 32  0  0  1  0  0  0  0  0999 V2000
  161.4300  207.8870  156.1500 C   0  0  0  0  0  0  0  0  0  0  0  0
  163.4890  207.8250  151.4070 F   0  0  0  0  0  0  0  0  0  0  0  0
  159.7400  211.8670  154.6550 O   0  0  0  0  0  0  0  0  0  0  0  0
  158.8160  206.9520  155.7940 C   0  0  0  0  0  3  0  0  0  0  0  0
  160.0010  210.6190  152.6770 N   0  0  0  0  0  0  0  0  0  0  0  0
  162.7150  208.4090  156.3140 O   0  0  0  0  0  0  0  0  0  0  0  0
  163.0810  205.5910  152.0450 C   0  0  0  0  0  1  0  0  0  0  0  0
  162.4910  206.8660  151.4740 C   0  0  1  0  0  0  0  0  0  0  0  0
  161.1020  207.3290  149.5580 C   0  0  0  0  0  0  0  0  0  0  0  0
  161.3320  207.3430  152.3710 C   0  0  2  0  0  3  0  0  0  0  0  0
  160.9810  210.7990  157.1320 O   0  0  0  0  0  1  0  0  0  0  0  0
  161.9860  209.4850  153.3500 C   0  0  1  0  0  3  0  0  0  0  0  0
  160.4560  208.3410  150.2720 O   0  0  0  0  0  0  0  0  0  0  0  0
  162.0120  206.5970  150.1230 N   0  0  0  0  0  0  0  0  0  0  0  0
  162.3290  210.7750  156.7690 C   0  0  2  0  0  3  0  0  0  0  0  0
  160.9480  207.6570  154.8520 C   0  0  0  0  0  0  0  0  0  0  0  0
  160.3650  211.0000  153.9850 C   0  0  0  0  0  0  0  0  0  0  0  0
  160.7290  207.0760  148.1420 C   0  0  0  0  0  1  0  0  0  0  0  0
  162.5160  211.0770  155.2770 C   0  0  0  0  0  2  0  0  0  0  0  0
  159.6290  207.2000  154.6850 C   0  0  0  0  0  3  0  0  0  0  0  0
  160.6100  207.6410  157.2610 C   0  0  0  0  0  3  0  0  0  0  0  0
  159.3080  207.1690  157.0820 C   0  0  0  0  0  3  0  0  0  0  0  0
  162.9950  209.4710  157.2160 C   0  0  0  0  0  2  0  0  0  0  0  0
  161.0600  209.7750  152.1480 C   0  0  1  0  0  3  0  0  0  0  0  0
  161.5500  210.3700  154.4360 N   0  0  0  0  0  0  0  0  0  0  0  0
  160.4970  208.4370  151.6980 C   0  0  2  0  0  3  0  0  0  0  0  0
  159.0270  211.3170  151.8540 C   0  0  0  0  0  1  0  0  0  0  0  0
  161.8370  207.9800  153.6650 C   0  0  1  0  0  3  0  0  0  0  0  0
  1  6  1  0  0  0  0
  1 21  1  0  0  0  0
  2  8  1  0  0  0  0
  4 22  1  0  0  0  0
  5 17  1  0  0  0  0
  6 23  1  0  0  0  0
  8  7  1  1  0  0  0
  8 10  1  0  0  0  0
  9 14  2  0  0  0  0
  9 13  1  0  0  0  0
 10 28  1  0  0  0  0
 12 28  1  0  0  0  0
 12 25  1  0  0  0  0
 13 26  1  0  0  0  0
 14  8  1  0  0  0  0
 15 11  1  0  0  0  0
 15 23  1  0  0  0  0
 16  1  2  0  0  0  0
 17 25  1  0  0  0  0
 17  3  2  0  0  0  0
 18  9  1  0  0  0  0
 19 15  1  0  0  0  0
 20 16  1  0  0  0  0
 20  4  2  0  0  0  0
 22 21  2  0  0  0  0
 24  5  1  0  0  0  0
 24 12  1  0  0  0  0
 25 19  1  0  0  0  0
 26 24  1  0  0  0  0
 26 10  1  0  0  0  0
 27  5  1  0  0  0  0
 28 16  1  0  0  0  0
M  END
>  <MODEL>
5

>  <REMARK>
 VINA RESULT:       0.5      3.326      5.818
  Name = 
  0 active torsions:
  status: ('A' for Active; 'I' for Inactive)
                            x       y       z     vdW  Elec       q    Type
                         _______ _______ _______ _____ _____    ______ ____

>  <TORSDO>
F 0

$$$$
