=
 OpenBabel11122413403D

 37 43  0  0  1  0  0  0  0  0999 V2000
  160.9420  207.9760  152.3780 O   0  0  0  0  0  0  0  0  0  0  0  0
  161.7040  211.0280  156.4570 C   0  0  0  0  0  0  0  0  0  0  0  0
  159.4220  211.4210  152.8120 C   0  0  1  0  0  3  0  0  0  0  0  0
  161.3920  206.7550  151.8420 C   0  0  2  0  0  3  0  0  0  0  0  0
  162.2930  211.4070  150.0790 C   0  0  0  0  0  2  0  0  0  0  0  0
  160.0540  212.3740  155.0770 C   0  0  1  0  0  3  0  0  0  0  0  0
  160.4940  210.8480  151.8840 C   0  0  1  0  0  3  0  0  0  0  0  0
  161.7200  207.7070  149.4820 C   0  0  2  0  0  3  0  0  0  0  0  0
  159.8940  211.1040  154.2270 C   0  0  2  0  0  3  0  0  0  0  0  0
  161.0030  211.8380  150.7990 C   0  0  2  0  0  3  0  0  0  0  0  0
  158.7860  213.0970  155.1170 N   0  0  0  0  0  2  0  0  0  0  0  0
  161.0020  206.6730  150.3630 C   0  0  0  0  0  2  0  0  0  0  0  0
  161.1090  210.2650  154.1690 N   0  0  2  0  0  0  0  0  0  0  0  0
  161.3290  209.8360  157.0480 F   0  0  0  0  0  0  0  0  0  0  0  0
  158.4590  213.2540  151.2790 C   0  0  0  0  0  2  0  0  0  0  0  0
  158.3650  213.5520  153.7780 C   0  0  0  0  0  2  0  0  0  0  0  0
  162.1960  210.7500  155.0300 C   0  0  0  0  0  2  0  0  0  0  0  0
  161.7640  209.0070  150.1650 N   0  0  2  0  0  0  0  0  0  0  0  0
  162.1670  210.1010  149.2830 C   0  0  0  0  0  2  0  0  0  0  0  0
  159.1480  212.9290  152.6090 C   0  0  1  0  0  3  0  0  0  0  0  0
  161.5950  210.2950  152.7940 C   0  0  1  0  0  3  0  0  0  0  0  0
  160.5080  211.9930  156.4800 C   0  0  0  0  0  2  0  0  0  0  0  0
  159.8980  212.1980  149.7840 C   0  0  1  0  0  3  0  0  0  0  0  0
  162.7390  211.5800  157.1860 F   0  0  0  0  0  0  0  0  0  0  0  0
  162.7170  208.9110  151.1330 O   0  0  0  0  0  0  0  0  0  0  0  0
  160.9570  207.7830  148.1640 C   0  0  0  0  0  1  0  0  0  0  0  0
  162.0310  208.8810  152.3710 C   0  0  2  0  0  3  0  0  0  0  0  0
  158.5840  212.2230  150.3220 O   0  0  0  0  0  0  0  0  0  0  0  0
  161.6000  213.9470  149.1630 C   0  0  0  0  0  3  0  0  0  0  0  0
  160.2360  213.3760  148.8550 C   0  0  1  0  0  3  0  0  0  0  0  0
  160.0370  213.0610  147.3680 C   0  0  0  0  0  2  0  0  0  0  0  0
  160.2900  213.9750  145.1820 O   0  0  0  0  0  1  0  0  0  0  0  0
  162.0400  214.3960  146.7460 C   0  0  0  0  0  2  0  0  0  0  0  0
  160.5390  214.2280  146.5290 C   0  0  2  0  0  3  0  0  0  0  0  0
  162.3970  214.4530  148.2100 C   0  0  0  0  0  3  0  0  0  0  0  0
  161.2150  205.5780  153.8940 F   0  0  0  0  0  0  0  0  0  0  0  0
  160.7520  205.6050  152.5920 C   0  0  0  0  0  2  0  0  0  0  0  0
  2 22  1  0  0  0  0
  2 14  1  0  0  0  0
  2 24  1  0  0  0  0
  3  9  1  0  0  0  0
  4  1  1  0  0  0  0
  4 37  1  0  0  0  0
  5 10  1  0  0  0  0
  6 11  1  0  0  0  0
  6 22  1  0  0  0  0
  7 21  1  0  0  0  0
  7  3  1  0  0  0  0
  8 18  1  0  0  0  0
  8 12  1  0  0  0  0
  9  6  1  0  0  0  0
 10  7  1  0  0  0  0
 12  4  1  0  0  0  0
 13  9  1  0  0  0  0
 13 17  1  0  0  0  0
 15 20  1  0  0  0  0
 16 11  1  0  0  0  0
 17  2  1  0  0  0  0
 18 25  1  0  0  0  0
 19  5  1  0  0  0  0
 19 18  1  0  0  0  0
 20  3  1  0  0  0  0
 20 16  1  0  0  0  0
 21 13  1  0  0  0  0
 23 28  1  0  0  0  0
 23 10  1  0  0  0  0
 25 27  1  0  0  0  0
 26  8  1  0  0  0  0
 27  1  1  0  0  0  0
 27 21  1  0  0  0  0
 28 15  1  0  0  0  0
 30 29  1  0  0  0  0
 30 23  1  0  0  0  0
 31 30  1  0  0  0  0
 32 34  1  0  0  0  0
 33 35  1  0  0  0  0
 34 33  1  0  0  0  0
 34 31  1  0  0  0  0
 35 29  2  0  0  0  0
 37 36  1  0  0  0  0
M  END
>  <MODEL>
1

>  <REMARK>
 VINA RESULT:      -5.0      0.000      0.000
  Name = 
  2 active torsions:
  status: ('A' for Active; 'I' for Inactive)
    1  A    between atoms: C_4  and  C_37
    2  A    between atoms: C_23  and  C_30
                            x       y       z     vdW  Elec       q    Type
                         _______ _______ _______ _____ _____    ______ ____

>  <TORSDO>
F 2

$$$$
=
 OpenBabel11122413403D

 37 43  0  0  1  0  0  0  0  0999 V2000
  161.7890  210.2470  154.9630 O   0  0  0  0  0  0  0  0  0  0  0  0
  161.7650  206.6860  151.2410 C   0  0  0  0  0  0  0  0  0  0  0  0
  161.6400  211.0020  151.2510 C   0  0  1  0  0  3  0  0  0  0  0  0
  161.7310  210.3450  156.3650 C   0  0  2  0  0  3  0  0  0  0  0  0
  158.1680  211.6860  153.0390 C   0  0  0  0  0  2  0  0  0  0  0  0
  161.7930  208.8500  149.9160 C   0  0  1  0  0  3  0  0  0  0  0  0
  160.6370  211.1350  152.3990 C   0  0  1  0  0  3  0  0  0  0  0  0
  159.9580  212.2000  156.3410 C   0  0  2  0  0  3  0  0  0  0  0  0
  162.0770  209.5420  151.2580 C   0  0  2  0  0  3  0  0  0  0  0  0
  159.3030  211.8340  152.0110 C   0  0  2  0  0  3  0  0  0  0  0  0
  162.4650  209.5750  148.8410 N   0  0  0  0  0  2  0  0  0  0  0  0
  161.3760  211.7820  156.7620 C   0  0  0  0  0  2  0  0  0  0  0  0
  161.4890  208.8520  152.4250 N   0  0  2  0  0  0  0  0  0  0  0  0
  162.8530  206.3060  152.0030 F   0  0  0  0  0  0  0  0  0  0  0  0
  160.8540  212.9540  149.7640 C   0  0  0  0  0  2  0  0  0  0  0  0
  161.9620  210.9550  148.7050 C   0  0  0  0  0  2  0  0  0  0  0  0
  160.8430  207.5760  152.0860 C   0  0  0  0  0  2  0  0  0  0  0  0
  159.6710  211.7130  154.9850 N   0  0  2  0  0  0  0  0  0  0  0  0
  158.4680  212.3110  154.4080 C   0  0  0  0  0  2  0  0  0  0  0  0
  161.0900  211.4430  149.8750 C   0  0  1  0  0  3  0  0  0  0  0  0
  160.4600  209.7280  152.9770 C   0  0  1  0  0  3  0  0  0  0  0  0
  162.2670  207.4040  149.9780 C   0  0  0  0  0  2  0  0  0  0  0  0
  159.5190  213.3160  151.6360 C   0  0  1  0  0  3  0  0  0  0  0  0
  161.0680  205.5540  150.8640 F   0  0  0  0  0  0  0  0  0  0  0  0
  159.4340  210.3760  155.0890 O   0  0  0  0  0  0  0  0  0  0  0  0
  159.8950  213.7210  156.4250 C   0  0  0  0  0  1  0  0  0  0  0  0
  160.5510  209.7240  154.5140 C   0  0  2  0  0  3  0  0  0  0  0  0
  160.7650  213.5960  151.0180 O   0  0  0  0  0  0  0  0  0  0  0  0
  158.1320  213.5440  149.5460 C   0  0  0  0  0  3  0  0  0  0  0  0
  158.3060  213.9950  150.9770 C   0  0  1  0  0  3  0  0  0  0  0  0
  157.0200  213.8890  151.8030 C   0  0  0  0  0  2  0  0  0  0  0  0
  154.6970  214.4260  151.7820 O   0  0  0  0  0  1  0  0  0  0  0  0
  155.6440  213.6070  149.7510 C   0  0  0  0  0  2  0  0  0  0  0  0
  155.8530  214.4530  151.0030 C   0  0  2  0  0  3  0  0  0  0  0  0
  156.9240  213.4150  148.9780 C   0  0  0  0  0  3  0  0  0  0  0  0
  163.9370  211.0620  156.8630 F   0  0  0  0  0  0  0  0  0  0  0  0
  163.0790  209.9830  156.9550 C   0  0  0  0  0  2  0  0  0  0  0  0
  1  4  1  0  0  0  0
  2 14  1  0  0  0  0
  2 17  1  0  0  0  0
  3  9  1  0  0  0  0
  3  7  1  0  0  0  0
  4 12  1  0  0  0  0
  4 37  1  0  0  0  0
  5 19  1  0  0  0  0
  6 22  1  0  0  0  0
  6  9  1  0  0  0  0
  7 21  1  0  0  0  0
  8 26  1  0  0  0  0
  8 12  1  0  0  0  0
  9 13  1  0  0  0  0
 10  7  1  0  0  0  0
 10  5  1  0  0  0  0
 11  6  1  0  0  0  0
 13 21  1  0  0  0  0
 15 20  1  0  0  0  0
 15 28  1  0  0  0  0
 16 11  1  0  0  0  0
 16 20  1  0  0  0  0
 17 13  1  0  0  0  0
 18 25  1  0  0  0  0
 18  8  1  0  0  0  0
 19 18  1  0  0  0  0
 20  3  1  0  0  0  0
 21 27  1  0  0  0  0
 22  2  1  0  0  0  0
 23 10  1  0  0  0  0
 24  2  1  0  0  0  0
 27  1  1  0  0  0  0
 27 25  1  0  0  0  0
 28 23  1  0  0  0  0
 29 30  1  0  0  0  0
 30 23  1  0  0  0  0
 30 31  1  0  0  0  0
 33 34  1  0  0  0  0
 34 32  1  0  0  0  0
 34 31  1  0  0  0  0
 35 29  2  0  0  0  0
 35 33  1  0  0  0  0
 36 37  1  0  0  0  0
M  END
>  <MODEL>
2

>  <REMARK>
 VINA RESULT:      -4.9      2.156      5.797
  Name = 
  2 active torsions:
  status: ('A' for Active; 'I' for Inactive)
    1  A    between atoms: C_4  and  C_37
    2  A    between atoms: C_23  and  C_30
                            x       y       z     vdW  Elec       q    Type
                         _______ _______ _______ _____ _____    ______ ____

>  <TORSDO>
F 2

$$$$
=
 OpenBabel11122413403D

 37 43  0  0  1  0  0  0  0  0999 V2000
  157.4990  213.2870  150.7500 O   0  0  0  0  0  0  0  0  0  0  0  0
  162.0990  213.4700  148.4390 C   0  0  0  0  0  0  0  0  0  0  0  0
  160.2630  210.7400  151.2370 C   0  0  1  0  0  3  0  0  0  0  0  0
  156.3310  214.0580  150.8960 C   0  0  2  0  0  3  0  0  0  0  0  0
  159.8140  213.0580  154.4210 C   0  0  0  0  0  2  0  0  0  0  0  0
  162.2320  211.2920  149.7340 C   0  0  1  0  0  3  0  0  0  0  0  0
  159.6460  211.8140  152.1330 C   0  0  1  0  0  3  0  0  0  0  0  0
  156.2140  213.7270  153.4370 C   0  0  2  0  0  3  0  0  0  0  0  0
  160.7270  211.4720  149.9820 C   0  0  2  0  0  3  0  0  0  0  0  0
  160.1620  211.8040  153.6000 C   0  0  2  0  0  3  0  0  0  0  0  0
  162.5430  209.8680  149.6340 N   0  0  0  0  0  2  0  0  0  0  0  0
  155.5170  213.5320  152.0820 C   0  0  0  0  0  2  0  0  0  0  0  0
  160.2940  212.8840  150.0420 N   0  0  2  0  0  0  0  0  0  0  0  0
  161.2300  213.6100  147.3740 F   0  0  0  0  0  0  0  0  0  0  0  0
  160.9290  209.0120  153.0280 C   0  0  0  0  0  2  0  0  0  0  0  0
  162.2450  209.1460  150.8850 C   0  0  0  0  0  2  0  0  0  0  0  0
  161.3690  213.8380  149.7380 C   0  0  0  0  0  2  0  0  0  0  0  0
  157.6430  213.4080  153.3190 N   0  0  2  0  0  0  0  0  0  0  0  0
  158.3090  213.2890  154.6150 C   0  0  0  0  0  2  0  0  0  0  0  0
  161.4050  209.9380  151.9030 C   0  0  1  0  0  3  0  0  0  0  0  0
  159.8500  213.1470  151.4070 C   0  0  1  0  0  3  0  0  0  0  0  0
  162.6310  212.0280  148.4620 C   0  0  0  0  0  2  0  0  0  0  0  0
  159.7440  210.5200  154.3480 C   0  0  1  0  0  3  0  0  0  0  0  0
  163.1620  214.3350  148.2640 F   0  0  0  0  0  0  0  0  0  0  0  0
  158.2280  214.4520  152.6700 O   0  0  0  0  0  0  0  0  0  0  0  0
  155.5090  212.8210  154.4400 C   0  0  0  0  0  1  0  0  0  0  0  0
  158.5600  213.9860  151.3760 C   0  0  2  0  0  3  0  0  0  0  0  0
  159.6580  209.3610  153.5340 O   0  0  0  0  0  0  0  0  0  0  0  0
  160.1970  208.9180  156.2380 C   0  0  0  0  0  3  0  0  0  0  0  0
  160.4460  210.3070  155.7000 C   0  0  1  0  0  3  0  0  0  0  0  0
  161.9300  210.6910  155.6880 C   0  0  0  0  0  2  0  0  0  0  0  0
  163.8960  210.7200  157.0350 O   0  0  0  0  0  1  0  0  0  0  0  0
  162.5040  208.7880  157.1820 C   0  0  0  0  0  2  0  0  0  0  0  0
  162.5660  210.3040  157.0160 C   0  0  2  0  0  3  0  0  0  0  0  0
  161.1150  208.2500  156.9500 C   0  0  0  0  0  3  0  0  0  0  0  0
  156.3070  213.6410  148.5600 F   0  0  0  0  0  0  0  0  0  0  0  0
  155.4970  213.9590  149.6340 C   0  0  0  0  0  2  0  0  0  0  0  0
  1  4  1  0  0  0  0
  1 27  1  0  0  0  0
  2 22  1  0  0  0  0
  2 17  1  0  0  0  0
  3 20  1  0  0  0  0
  3  7  1  0  0  0  0
  4 12  1  0  0  0  0
  5 19  1  0  0  0  0
  6  9  1  0  0  0  0
  7 10  1  0  0  0  0
  8 26  1  0  0  0  0
  9 13  1  0  0  0  0
  9  3  1  0  0  0  0
 10 23  1  0  0  0  0
 10  5  1  0  0  0  0
 11  6  1  0  0  0  0
 11 16  1  0  0  0  0
 12  8  1  0  0  0  0
 13 21  1  0  0  0  0
 14  2  1  0  0  0  0
 15 28  1  0  0  0  0
 16 20  1  0  0  0  0
 17 13  1  0  0  0  0
 18  8  1  0  0  0  0
 18 19  1  0  0  0  0
 20 15  1  0  0  0  0
 21  7  1  0  0  0  0
 22  6  1  0  0  0  0
 23 30  1  0  0  0  0
 24  2  1  0  0  0  0
 25 18  1  0  0  0  0
 27 21  1  0  0  0  0
 27 25  1  0  0  0  0
 28 23  1  0  0  0  0
 29 35  2  0  0  0  0
 30 29  1  0  0  0  0
 31 30  1  0  0  0  0
 31 34  1  0  0  0  0
 34 32  1  0  0  0  0
 34 33  1  0  0  0  0
 35 33  1  0  0  0  0
 36 37  1  0  0  0  0
 37  4  1  0  0  0  0
M  END
>  <MODEL>
3

>  <REMARK>
 VINA RESULT:      -4.0      3.545      7.790
  Name = 
  2 active torsions:
  status: ('A' for Active; 'I' for Inactive)
    1  A    between atoms: C_4  and  C_37
    2  A    between atoms: C_23  and  C_30
                            x       y       z     vdW  Elec       q    Type
                         _______ _______ _______ _____ _____    ______ ____

>  <TORSDO>
F 2

$$$$
