=
 OpenBabel11122413383D

 37 43  0  0  1  0  0  0  0  0999 V2000
  162.0040  210.4110  154.9190 C   0  0  0  0  0  2  0  0  0  0  0  0
  161.6880  206.4600  151.2340 C   0  0  0  0  0  0  0  0  0  0  0  0
  161.5340  210.8130  151.3880 C   0  0  1  0  0  3  0  0  0  0  0  0
  162.0730  210.9150  156.3400 C   0  0  0  0  0  0  0  0  0  0  0  0
  158.0170  211.1190  153.1550 C   0  0  0  0  0  2  0  0  0  0  0  0
  161.5870  208.6900  149.9810 C   0  0  1  0  0  3  0  0  0  0  0  0
  160.5230  210.8530  152.5450 C   0  0  1  0  0  3  0  0  0  0  0  0
  160.0920  212.3060  156.0590 C   0  0  0  0  0  0  0  0  0  0  0  0
  162.0080  209.3690  151.2930 C   0  0  2  0  0  3  0  0  0  0  0  0
  159.1340  211.4050  152.1420 C   0  0  2  0  0  3  0  0  0  0  0  0
  162.1180  209.4590  148.7700 C   0  0  0  0  0  2  0  0  0  0  0  0
  161.2420  211.8210  156.7720 N   0  0  0  0  0  0  0  0  0  0  0  0
  161.4420  208.6560  152.5200 C   0  0  2  0  0  3  0  0  0  0  0  0
  162.9600  206.0100  151.9260 C   0  0  0  0  0  1  0  0  0  0  0  0
  160.7560  212.8730  150.0650 C   0  0  0  0  0  2  0  0  0  0  0  0
  161.9090  210.9780  148.8830 C   0  0  0  0  0  2  0  0  0  0  0  0
  160.8310  207.2800  152.2090 C   0  0  0  0  0  2  0  0  0  0  0  0
  159.2970  211.4110  155.2570 N   0  0  0  0  0  0  0  0  0  0  0  0
  158.1610  211.8910  154.4710 C   0  0  0  0  0  2  0  0  0  0  0  0
  160.9950  211.3610  150.0460 C   0  0  1  0  0  3  0  0  0  0  0  0
  160.4440  209.5120  153.1550 N   0  0  1  0  0  0  0  0  0  0  0  0
  162.0600  207.2400  149.9600 C   0  0  0  0  0  2  0  0  0  0  0  0
  159.1840  212.9080  151.7880 C   0  0  1  0  0  3  0  0  0  0  0  0
  160.9050  205.2280  150.8300 C   0  0  0  0  0  1  0  0  0  0  0  0
  159.5090  209.9760  155.3850 C   0  0  0  0  0  2  0  0  0  0  0  0
  159.5830  213.8350  156.3620 S   0  0  0  0  0  0  0  0  0  0  0  0
  160.7490  209.5650  154.5970 C   0  0  2  0  0  3  0  0  0  0  0  0
  160.4500  213.3740  151.3510 O   0  0  0  0  0  0  0  0  0  0  0  0
  156.9240  213.9700  151.6050 C   0  0  0  0  0  3  0  0  0  0  0  0
  158.0290  213.4030  150.9620 C   0  0  0  0  0  0  0  0  0  0  0  0
  158.0550  213.3320  149.5600 C   0  0  0  0  0  3  0  0  0  0  0  0
  157.0030  213.7410  147.4610 F   0  0  0  0  0  0  0  0  0  0  0  0
  155.8710  214.3730  149.4620 C   0  0  0  0  0  3  0  0  0  0  0  0
  156.9760  213.8150  148.8130 C   0  0  0  0  0  0  0  0  0  0  0  0
  155.8450  214.4520  150.8570 C   0  0  0  0  0  3  0  0  0  0  0  0
  164.3610  211.4680  157.2610 C   0  0  0  0  0  1  0  0  0  0  0  0
  163.1890  210.4990  157.2520 C   0  0  0  0  0  2  0  0  0  0  0  0
  1  4  1  0  0  0  0
  2 14  1  0  0  0  0
  2 17  1  0  0  0  0
  3  7  1  0  0  0  0
  4 12  2  0  0  0  0
  4 37  1  0  0  0  0
  5 19  1  0  0  0  0
  6  9  1  0  0  0  0
  7 21  1  0  0  0  0
  8 26  2  0  0  0  0
  8 12  1  0  0  0  0
  9  3  1  0  0  0  0
  9 13  1  0  0  0  0
 10  7  1  0  0  0  0
 10  5  1  0  0  0  0
 11 16  1  0  0  0  0
 11  6  1  0  0  0  0
 13 21  1  0  0  0  0
 15 28  1  0  0  0  0
 16 20  1  0  0  0  0
 17 13  1  0  0  0  0
 18 25  1  0  0  0  0
 18  8  1  0  0  0  0
 19 18  1  0  0  0  0
 20 15  1  0  0  0  0
 20  3  1  0  0  0  0
 21 27  1  0  0  0  0
 22  6  1  0  0  0  0
 22  2  1  0  0  0  0
 23 10  1  0  0  0  0
 24  2  1  0  0  0  0
 27  1  1  0  0  0  0
 27 25  1  0  0  0  0
 28 23  1  0  0  0  0
 30 29  1  0  0  0  0
 30 23  1  0  0  0  0
 31 30  2  0  0  0  0
 32 34  1  0  0  0  0
 33 35  1  0  0  0  0
 34 33  2  0  0  0  0
 34 31  1  0  0  0  0
 35 29  2  0  0  0  0
 37 36  1  0  0  0  0
M  END
>  <MODEL>
1

>  <REMARK>
 VINA RESULT:      -7.0      0.000      0.000
  Name = 
  2 active torsions:
  status: ('A' for Active; 'I' for Inactive)
    1  A    between atoms: C_4  and  C_37
    2  A    between atoms: C_23  and  C_30
                            x       y       z     vdW  Elec       q    Type
                         _______ _______ _______ _____ _____    ______ ____

>  <TORSDO>
F 2

$$$$
