=
 OpenBabel11122414143D

 28 32  0  0  1  0  0  0  0  0999 V2000
  160.8720  209.0590  153.3940 C   0  0  0  0  0  0  0  0  0  0  0  0
  158.3550  210.8650  152.5030 F   0  0  0  0  0  0  0  0  0  0  0  0
  163.2990  212.2040  148.5450 C   0  0  0  0  0  1  0  0  0  0  0  0
  162.0450  209.9360  155.7910 C   0  0  0  0  0  3  0  0  0  0  0  0
  160.9840  212.5240  149.2430 N   0  0  0  0  0  0  0  0  0  0  0  0
  160.2530  208.4940  152.1500 C   0  0  0  0  0  2  0  0  0  0  0  0
  158.6830  211.8160  154.6380 C   0  0  0  0  0  1  0  0  0  0  0  0
  158.6750  212.0530  153.1410 C   0  0  1  0  0  0  0  0  0  0  0  0
  157.5300  213.3910  151.3650 C   0  0  1  0  0  3  0  0  0  0  0  0
  160.0660  212.5870  152.6860 C   0  0  2  0  0  3  0  0  0  0  0  0
  161.1790  208.2030  149.0170 O   0  0  0  0  0  0  0  0  0  0  0  0
  160.9430  211.0540  151.0410 C   0  0  1  0  0  3  0  0  0  0  0  0
  158.8310  214.0660  150.9660 C   0  0  0  0  0  2  0  0  0  0  0  0
  157.5740  213.0690  152.8490 C   0  0  0  0  0  2  0  0  0  0  0  0
  161.7040  208.4430  150.1360 C   0  0  0  0  0  0  0  0  0  0  0  0
  161.2620  210.4220  153.5370 C   0  0  0  0  0  0  0  0  0  0  0  0
  162.0310  211.5290  149.0340 C   0  0  2  0  0  3  0  0  0  0  0  0
  156.4210  214.2870  151.0970 N   0  0  0  0  0  1  0  0  0  0  0  0
  162.6600  209.4980  150.2670 N   0  0  0  0  0  2  0  0  0  0  0  0
  161.8530  210.8330  154.7410 C   0  0  0  0  0  3  0  0  0  0  0  0
  161.0690  208.1730  154.4620 C   0  0  0  0  0  3  0  0  0  0  0  0
  161.6500  208.6070  155.6520 C   0  0  0  0  0  3  0  0  0  0  0  0
  161.2660  207.6850  151.3450 C   0  0  0  0  0  2  0  0  0  0  0  0
  160.1870  212.0790  150.3210 N   0  0  1  0  0  0  0  0  0  0  0  0
  162.2790  210.9050  150.3740 C   0  0  2  0  0  3  0  0  0  0  0  0
  160.0440  213.1830  151.2720 C   0  0  2  0  0  3  0  0  0  0  0  0
  160.1380  212.5030  148.0590 C   0  0  0  0  0  1  0  0  0  0  0  0
  161.1080  211.4960  152.4780 C   0  0  2  0  0  3  0  0  0  0  0  0
  1 16  2  0  0  0  0
  1 21  1  0  0  0  0
  2  8  1  0  0  0  0
  3 17  1  0  0  0  0
  5 24  1  0  0  0  0
  6  1  1  0  0  0  0
  8  7  1  1  0  0  0
  9 18  1  1  0  0  0
  9 14  1  0  0  0  0
 10  8  1  0  0  0  0
 11 15  2  0  0  0  0
 12 28  1  0  0  0  0
 13 26  1  0  0  0  0
 13  9  1  0  0  0  0
 14  8  1  0  0  0  0
 15 19  1  0  0  0  0
 15 23  1  0  0  0  0
 16 20  1  0  0  0  0
 17  5  1  0  0  0  0
 17 25  1  0  0  0  0
 19 25  1  0  0  0  0
 20  4  2  0  0  0  0
 21 22  2  0  0  0  0
 22  4  1  0  0  0  0
 23  6  1  0  0  0  0
 24 12  1  0  0  0  0
 24 26  1  0  0  0  0
 25 12  1  0  0  0  0
 26 10  1  0  0  0  0
 27  5  1  0  0  0  0
 28 10  1  0  0  0  0
 28 16  1  0  0  0  0
M  END
>  <MODEL>
1

>  <REMARK>
 VINA RESULT:      -3.2      0.000      0.000
  Name = 
  0 active torsions:
  status: ('A' for Active; 'I' for Inactive)
                            x       y       z     vdW  Elec       q    Type
                         _______ _______ _______ _____ _____    ______ ____

>  <TORSDO>
F 0

$$$$
=
 OpenBabel11122414143D

 28 32  0  0  1  0  0  0  0  0999 V2000
  161.0360  209.7570  156.1090 C   0  0  0  0  0  0  0  0  0  0  0  0
  162.3500  210.5320  153.2690 F   0  0  0  0  0  0  0  0  0  0  0  0
  156.7690  213.7580  153.8550 C   0  0  0  0  0  1  0  0  0  0  0  0
  159.9850  207.1530  156.1460 C   0  0  0  0  0  3  0  0  0  0  0  0
  158.7930  213.2160  152.6070 N   0  0  0  0  0  0  0  0  0  0  0  0
  161.6380  211.1290  156.1820 C   0  0  0  0  0  2  0  0  0  0  0  0
  161.9760  208.2440  152.8270 C   0  0  0  0  0  1  0  0  0  0  0  0
  161.6500  209.6720  152.4380 C   0  0  1  0  0  0  0  0  0  0  0  0
  161.8110  211.2790  150.5280 C   0  0  1  0  0  3  0  0  0  0  0  0
  160.1130  209.9060  152.5420 C   0  0  2  0  0  3  0  0  0  0  0  0
  160.4580  214.1740  156.4890 O   0  0  0  0  0  0  0  0  0  0  0  0
  159.7440  211.7110  154.1000 C   0  0  1  0  0  3  0  0  0  0  0  0
  160.3020  211.4410  150.4740 C   0  0  0  0  0  2  0  0  0  0  0  0
  162.1410  209.8750  151.0080 C   0  0  0  0  0  2  0  0  0  0  0  0
  160.0610  212.9900  156.6460 C   0  0  0  0  0  0  0  0  0  0  0  0
  160.1210  209.3460  155.0970 C   0  0  0  0  0  0  0  0  0  0  0  0
  158.2630  213.5040  153.9360 C   0  0  2  0  0  3  0  0  0  0  0  0
  162.3670  211.4800  149.2040 N   0  0  0  0  0  1  0  0  0  0  0  0
  158.7750  212.5960  156.1610 N   0  0  0  0  0  2  0  0  0  0  0  0
  159.6040  208.0430  155.1420 C   0  0  0  0  0  3  0  0  0  0  0  0
  161.4100  208.8470  157.1070 C   0  0  0  0  0  3  0  0  0  0  0  0
  160.8900  207.5540  157.1260 C   0  0  0  0  0  3  0  0  0  0  0  0
  160.9650  211.9730  157.2610 C   0  0  0  0  0  2  0  0  0  0  0  0
  159.8600  212.3040  152.7670 N   0  0  1  0  0  0  0  0  0  0  0  0
  158.5200  212.2770  154.7570 C   0  0  2  0  0  3  0  0  0  0  0  0
  159.6560  211.1910  151.8380 C   0  0  2  0  0  3  0  0  0  0  0  0
  159.3710  214.4530  152.1040 C   0  0  0  0  0  1  0  0  0  0  0  0
  159.6280  210.2110  153.9530 C   0  0  2  0  0  3  0  0  0  0  0  0
  1  6  1  0  0  0  0
  1 21  1  0  0  0  0
  3 17  1  0  0  0  0
  4 22  1  0  0  0  0
  5 24  1  0  0  0  0
  5 17  1  0  0  0  0
  6 23  1  0  0  0  0
  8 10  1  0  0  0  0
  8  7  1  1  0  0  0
  8  2  1  0  0  0  0
  9 18  1  6  0  0  0
  9 14  1  0  0  0  0
 10 28  1  0  0  0  0
 11 15  2  0  0  0  0
 12 25  1  0  0  0  0
 13  9  1  0  0  0  0
 13 26  1  0  0  0  0
 14  8  1  0  0  0  0
 15 23  1  0  0  0  0
 16 20  1  0  0  0  0
 16  1  2  0  0  0  0
 17 25  1  0  0  0  0
 19 15  1  0  0  0  0
 20  4  2  0  0  0  0
 21 22  2  0  0  0  0
 24 12  1  0  0  0  0
 25 19  1  0  0  0  0
 26 10  1  0  0  0  0
 26 24  1  0  0  0  0
 27  5  1  0  0  0  0
 28 12  1  0  0  0  0
 28 16  1  0  0  0  0
M  END
>  <MODEL>
2

>  <REMARK>
 VINA RESULT:      -2.9      2.777      5.143
  Name = 
  0 active torsions:
  status: ('A' for Active; 'I' for Inactive)
                            x       y       z     vdW  Elec       q    Type
                         _______ _______ _______ _____ _____    ______ ____

>  <TORSDO>
F 0

$$$$
=
 OpenBabel11122414143D

 28 32  0  0  1  0  0  0  0  0999 V2000
  161.0900  209.4310  155.2650 C   0  0  0  0  0  0  0  0  0  0  0  0
  158.0890  210.6070  155.2360 F   0  0  0  0  0  0  0  0  0  0  0  0
  161.2230  212.9540  150.0820 C   0  0  0  0  0  1  0  0  0  0  0  0
  162.6930  210.5940  157.2580 C   0  0  0  0  0  3  0  0  0  0  0  0
  159.2050  212.7570  151.4380 N   0  0  0  0  0  0  0  0  0  0  0  0
  160.2720  208.7190  154.2290 C   0  0  0  0  0  2  0  0  0  0  0  0
  158.8120  211.6460  157.2280 C   0  0  0  0  0  1  0  0  0  0  0  0
  158.3110  211.8480  155.8110 C   0  0  1  0  0  0  0  0  0  0  0  0
  156.4280  212.8610  154.5140 C   0  0  1  0  0  3  0  0  0  0  0  0
  159.3530  212.6730  154.9980 C   0  0  2  0  0  3  0  0  0  0  0  0
  160.2740  208.5880  150.9520 O   0  0  0  0  0  0  0  0  0  0  0  0
  160.0220  211.3480  153.0950 C   0  0  1  0  0  3  0  0  0  0  0  0
  157.3710  213.8040  153.7870 C   0  0  0  0  0  2  0  0  0  0  0  0
  156.9780  212.5840  155.9030 C   0  0  0  0  0  2  0  0  0  0  0  0
  161.0390  208.9600  151.8790 C   0  0  0  0  0  0  0  0  0  0  0  0
  161.1940  210.8500  155.3560 C   0  0  0  0  0  0  0  0  0  0  0  0
  160.3370  212.0190  150.8850 C   0  0  2  0  0  3  0  0  0  0  0  0
  155.1210  213.4780  154.6250 N   0  0  0  0  0  1  0  0  0  0  0  0
  161.7330  210.2060  151.7790 N   0  0  0  0  0  2  0  0  0  0  0  0
  162.0070  211.4050  156.3540 C   0  0  0  0  0  3  0  0  0  0  0  0
  161.7830  208.6320  156.1840 C   0  0  0  0  0  3  0  0  0  0  0  0
  162.5790  209.2080  157.1740 C   0  0  0  0  0  3  0  0  0  0  0  0
  161.1550  208.1450  153.1240 C   0  0  0  0  0  2  0  0  0  0  0  0
  158.8800  212.1630  152.6780 N   0  0  1  0  0  0  0  0  0  0  0  0
  161.1000  211.4930  152.0620 C   0  0  2  0  0  3  0  0  0  0  0  0
  158.7840  213.2230  153.6830 C   0  0  2  0  0  3  0  0  0  0  0  0
  158.0750  212.5230  150.5520 C   0  0  0  0  0  1  0  0  0  0  0  0
  160.5020  211.8420  154.4420 C   0  0  2  0  0  3  0  0  0  0  0  0
  1 16  2  0  0  0  0
  1 21  1  0  0  0  0
  2  8  1  0  0  0  0
  3 17  1  0  0  0  0
  5 24  1  0  0  0  0
  6  1  1  0  0  0  0
  8 14  1  0  0  0  0
  8  7  1  1  0  0  0
  9 18  1  1  0  0  0
  9 14  1  0  0  0  0
 10  8  1  0  0  0  0
 11 15  2  0  0  0  0
 12 28  1  0  0  0  0
 13  9  1  0  0  0  0
 15 23  1  0  0  0  0
 16 20  1  0  0  0  0
 17  5  1  0  0  0  0
 17 25  1  0  0  0  0
 19 15  1  0  0  0  0
 19 25  1  0  0  0  0
 20  4  2  0  0  0  0
 21 22  2  0  0  0  0
 22  4  1  0  0  0  0
 23  6  1  0  0  0  0
 24 12  1  0  0  0  0
 24 26  1  0  0  0  0
 25 12  1  0  0  0  0
 26 13  1  0  0  0  0
 26 10  1  0  0  0  0
 27  5  1  0  0  0  0
 28 10  1  0  0  0  0
 28 16  1  0  0  0  0
M  END
>  <MODEL>
3

>  <REMARK>
 VINA RESULT:      -2.3      1.758      2.501
  Name = 
  0 active torsions:
  status: ('A' for Active; 'I' for Inactive)
                            x       y       z     vdW  Elec       q    Type
                         _______ _______ _______ _____ _____    ______ ____

>  <TORSDO>
F 0

$$$$
=
 OpenBabel11122414143D

 28 32  0  0  1  0  0  0  0  0999 V2000
  158.3890  213.0060  151.1180 C   0  0  0  0  0  0  0  0  0  0  0  0
  159.1410  210.1190  152.3360 F   0  0  0  0  0  0  0  0  0  0  0  0
  159.1130  214.4060  157.1850 C   0  0  0  0  0  1  0  0  0  0  0  0
  160.4800  214.1310  149.6170 C   0  0  0  0  0  3  0  0  0  0  0  0
  159.3830  212.1270  156.3610 N   0  0  0  0  0  0  0  0  0  0  0  0
  157.2080  212.4350  151.8450 C   0  0  0  0  0  2  0  0  0  0  0  0
  161.0440  210.3850  150.9650 C   0  0  0  0  0  1  0  0  0  0  0  0
  160.5220  210.2290  152.3800 C   0  0  1  0  0  0  0  0  0  0  0  0
  160.6460  208.7180  154.3690 C   0  0  1  0  0  3  0  0  0  0  0  0
  160.9680  211.4470  153.2420 C   0  0  2  0  0  3  0  0  0  0  0  0
  155.5780  213.1900  154.5880 O   0  0  0  0  0  0  0  0  0  0  0  0
  158.9810  212.5090  154.1050 C   0  0  1  0  0  3  0  0  0  0  0  0
  161.2270  209.8230  155.2330 C   0  0  0  0  0  2  0  0  0  0  0  0
  161.0940  208.9260  152.9320 C   0  0  0  0  0  2  0  0  0  0  0  0
  156.4040  213.7280  153.8060 C   0  0  0  0  0  0  0  0  0  0  0  0
  159.6920  213.1170  151.6850 C   0  0  0  0  0  0  0  0  0  0  0  0
  158.5800  213.3400  156.2470 C   0  0  2  0  0  3  0  0  0  0  0  0
  161.1240  207.4330  154.8430 N   0  0  0  0  0  1  0  0  0  0  0  0
  157.5190  214.4530  154.3300 N   0  0  0  0  0  2  0  0  0  0  0  0
  160.7170  213.6890  150.9180 C   0  0  0  0  0  3  0  0  0  0  0  0
  158.1720  213.4520  149.8070 C   0  0  0  0  0  3  0  0  0  0  0  0
  159.2080  214.0100  149.0610 C   0  0  0  0  0  3  0  0  0  0  0  0
  156.2710  213.5370  152.3320 C   0  0  0  0  0  2  0  0  0  0  0  0
  159.4040  211.5120  155.0890 N   0  0  1  0  0  0  0  0  0  0  0  0
  158.7280  213.7990  154.8280 C   0  0  2  0  0  3  0  0  0  0  0  0
  160.7950  211.2080  154.7480 C   0  0  2  0  0  3  0  0  0  0  0  0
  158.6660  211.2260  157.2510 C   0  0  0  0  0  1  0  0  0  0  0  0
  160.0820  212.6750  153.0820 C   0  0  2  0  0  3  0  0  0  0  0  0
  1 16  1  0  0  0  0
  1  6  1  0  0  0  0
  2  8  1  0  0  0  0
  4 20  1  0  0  0  0
  5 27  1  0  0  0  0
  6 23  1  0  0  0  0
  8  7  1  6  0  0  0
  8 14  1  0  0  0  0
  8 10  1  0  0  0  0
  9 18  1  1  0  0  0
  9 13  1  0  0  0  0
 10 26  1  0  0  0  0
 12 25  1  0  0  0  0
 12 24  1  0  0  0  0
 14  9  1  0  0  0  0
 15 19  1  0  0  0  0
 15 11  2  0  0  0  0
 16 28  1  0  0  0  0
 17  5  1  0  0  0  0
 17  3  1  0  0  0  0
 19 25  1  0  0  0  0
 20 16  2  0  0  0  0
 21  1  2  0  0  0  0
 22  4  2  0  0  0  0
 22 21  1  0  0  0  0
 23 15  1  0  0  0  0
 24  5  1  0  0  0  0
 25 17  1  0  0  0  0
 26 24  1  0  0  0  0
 26 13  1  0  0  0  0
 28 10  1  0  0  0  0
 28 12  1  0  0  0  0
M  END
>  <MODEL>
4

>  <REMARK>
 VINA RESULT:      -2.2      2.946      6.548
  Name = 
  0 active torsions:
  status: ('A' for Active; 'I' for Inactive)
                            x       y       z     vdW  Elec       q    Type
                         _______ _______ _______ _____ _____    ______ ____

>  <TORSDO>
F 0

$$$$
=
 OpenBabel11122414143D

 28 32  0  0  1  0  0  0  0  0999 V2000
  160.3140  211.1510  151.4890 C   0  0  0  0  0  0  0  0  0  0  0  0
  159.7060  207.9860  151.5450 F   0  0  0  0  0  0  0  0  0  0  0  0
  162.6320  209.5740  157.0960 C   0  0  0  0  0  1  0  0  0  0  0  0
  162.4060  211.8250  149.7400 C   0  0  0  0  0  3  0  0  0  0  0  0
  161.5830  207.9230  155.6390 N   0  0  0  0  0  0  0  0  0  0  0  0
  159.1440  210.8710  152.3860 C   0  0  0  0  0  2  0  0  0  0  0  0
  161.2300  207.9800  149.7420 C   0  0  0  0  0  1  0  0  0  0  0  0
  160.9410  207.4970  151.1500 C   0  0  1  0  0  0  0  0  0  0  0  0
  160.6170  205.4090  152.4880 C   0  0  1  0  0  3  0  0  0  0  0  0
  162.0730  207.9700  152.1100 C   0  0  2  0  0  3  0  0  0  0  0  0
  158.5910  211.0550  155.6130 O   0  0  0  0  0  0  0  0  0  0  0  0
  161.0600  209.3050  153.8460 C   0  0  1  0  0  3  0  0  0  0  0  0
  161.8080  205.7340  153.3730 C   0  0  0  0  0  2  0  0  0  0  0  0
  160.8640  205.9740  151.0990 C   0  0  0  0  0  2  0  0  0  0  0  0
  159.4340  211.4740  154.7770 C   0  0  0  0  0  0  0  0  0  0  0  0
  161.5690  210.4850  151.5930 C   0  0  0  0  0  0  0  0  0  0  0  0
  161.4900  209.2910  156.1380 C   0  0  2  0  0  3  0  0  0  0  0  0
  160.4570  203.9700  152.4030 N   0  0  0  0  0  1  0  0  0  0  0  0
  160.8310  211.4050  155.0720 N   0  0  0  0  0  2  0  0  0  0  0  0
  162.6000  210.8450  150.7130 C   0  0  0  0  0  3  0  0  0  0  0  0
  160.1360  212.1310  150.5030 C   0  0  0  0  0  3  0  0  0  0  0  0
  161.1740  212.4660  149.6340 C   0  0  0  0  0  3  0  0  0  0  0  0
  158.9810  211.9620  153.4410 C   0  0  0  0  0  2  0  0  0  0  0  0
  161.0820  207.9190  154.3180 N   0  0  1  0  0  0  0  0  0  0  0  0
  161.6120  210.1770  154.9360 C   0  0  2  0  0  3  0  0  0  0  0  0
  162.0550  207.2410  153.4600 C   0  0  2  0  0  3  0  0  0  0  0  0
  160.6690  207.1190  156.4360 C   0  0  0  0  0  1  0  0  0  0  0  0
  161.9100  209.4030  152.5990 C   0  0  2  0  0  3  0  0  0  0  0  0
  1 16  1  0  0  0  0
  1  6  1  0  0  0  0
  4 20  1  0  0  0  0
  5 17  1  0  0  0  0
  5 27  1  0  0  0  0
  6 23  1  0  0  0  0
  8  7  1  6  0  0  0
  8  2  1  0  0  0  0
  8 10  1  0  0  0  0
  9 18  1  6  0  0  0
  9 13  1  0  0  0  0
 10 28  1  0  0  0  0
 10 26  1  0  0  0  0
 12 24  1  0  0  0  0
 12 25  1  0  0  0  0
 13 26  1  0  0  0  0
 14  8  1  0  0  0  0
 14  9  1  0  0  0  0
 15 19  1  0  0  0  0
 15 11  2  0  0  0  0
 16 28  1  0  0  0  0
 17  3  1  0  0  0  0
 20 16  2  0  0  0  0
 21  1  2  0  0  0  0
 22  4  2  0  0  0  0
 22 21  1  0  0  0  0
 23 15  1  0  0  0  0
 24  5  1  0  0  0  0
 25 19  1  0  0  0  0
 25 17  1  0  0  0  0
 26 24  1  0  0  0  0
 28 12  1  0  0  0  0
M  END
>  <MODEL>
5

>  <REMARK>
 VINA RESULT:      -1.7      2.887      6.506
  Name = 
  0 active torsions:
  status: ('A' for Active; 'I' for Inactive)
                            x       y       z     vdW  Elec       q    Type
                         _______ _______ _______ _____ _____    ______ ____

>  <TORSDO>
F 0

$$$$
=
 OpenBabel11122414143D

 28 32  0  0  1  0  0  0  0  0999 V2000
  161.1950  210.0190  155.6170 C   0  0  0  0  0  0  0  0  0  0  0  0
  161.6090  211.7100  152.9050 F   0  0  0  0  0  0  0  0  0  0  0  0
  155.5140  212.5720  154.9050 C   0  0  0  0  0  1  0  0  0  0  0  0
  161.0670  207.2500  155.1630 C   0  0  0  0  0  3  0  0  0  0  0  0
  157.3210  213.0220  153.3300 N   0  0  0  0  0  0  0  0  0  0  0  0
  161.3250  211.4790  155.9400 C   0  0  0  0  0  2  0  0  0  0  0  0
  161.9140  209.5600  151.9820 C   0  0  0  0  0  1  0  0  0  0  0  0
  161.0760  210.8230  151.9840 C   0  0  1  0  0  0  0  0  0  0  0  0
  160.3360  212.6980  150.5040 C   0  0  1  0  0  3  0  0  0  0  0  0
  159.5970  210.4710  152.3250 C   0  0  2  0  0  3  0  0  0  0  0  0
  159.3110  213.7930  157.0990 O   0  0  0  0  0  0  0  0  0  0  0  0
  158.9770  211.7130  154.2990 C   0  0  1  0  0  3  0  0  0  0  0  0
  158.8750  212.3190  150.6720 C   0  0  0  0  0  2  0  0  0  0  0  0
  161.1870  211.4420  150.5940 C   0  0  0  0  0  2  0  0  0  0  0  0
  159.3550  212.5380  157.0180 C   0  0  0  0  0  0  0  0  0  0  0  0
  160.2820  209.4990  154.6550 C   0  0  0  0  0  0  0  0  0  0  0  0
  156.9960  212.8580  154.7440 C   0  0  2  0  0  3  0  0  0  0  0  0
  160.5270  213.3200  149.2080 N   0  0  0  0  0  1  0  0  0  0  0  0
  158.1960  211.8050  156.6110 N   0  0  0  0  0  2  0  0  0  0  0  0
  160.2320  208.1120  154.4520 C   0  0  0  0  0  3  0  0  0  0  0  0
  162.0290  209.1380  156.3190 C   0  0  0  0  0  3  0  0  0  0  0  0
  161.9670  207.7640  156.0940 C   0  0  0  0  0  3  0  0  0  0  0  0
  160.6400  211.8170  157.2610 C   0  0  0  0  0  2  0  0  0  0  0  0
  158.6340  212.5380  153.1400 N   0  0  1  0  0  0  0  0  0  0  0  0
  157.7890  211.6760  155.2140 C   0  0  2  0  0  3  0  0  0  0  0  0
  158.6230  211.6130  152.0060 C   0  0  2  0  0  3  0  0  0  0  0  0
  157.3600  214.4530  153.0690 C   0  0  0  0  0  1  0  0  0  0  0  0
  159.3250  210.3220  153.8160 C   0  0  2  0  0  3  0  0  0  0  0  0
  1  6  1  0  0  0  0
  1 21  1  0  0  0  0
  4 22  1  0  0  0  0
  5 17  1  0  0  0  0
  6 23  1  0  0  0  0
  8  7  1  1  0  0  0
  8 10  1  0  0  0  0
  8  2  1  0  0  0  0
  9 18  1  6  0  0  0
  9 14  1  0  0  0  0
  9 13  1  0  0  0  0
 10 28  1  0  0  0  0
 12 25  1  0  0  0  0
 13 26  1  0  0  0  0
 14  8  1  0  0  0  0
 15 11  2  0  0  0  0
 15 23  1  0  0  0  0
 16  1  2  0  0  0  0
 17  3  1  0  0  0  0
 17 25  1  0  0  0  0
 19 15  1  0  0  0  0
 20 16  1  0  0  0  0
 20  4  2  0  0  0  0
 22 21  2  0  0  0  0
 24  5  1  0  0  0  0
 24 12  1  0  0  0  0
 25 19  1  0  0  0  0
 26 10  1  0  0  0  0
 26 24  1  0  0  0  0
 27  5  1  0  0  0  0
 28 12  1  0  0  0  0
 28 16  1  0  0  0  0
M  END
>  <MODEL>
6

>  <REMARK>
 VINA RESULT:      -1.4      2.837      5.199
  Name = 
  0 active torsions:
  status: ('A' for Active; 'I' for Inactive)
                            x       y       z     vdW  Elec       q    Type
                         _______ _______ _______ _____ _____    ______ ____

>  <TORSDO>
F 0

$$$$
=
 OpenBabel11122414143D

 28 32  0  0  1  0  0  0  0  0999 V2000
  160.9180  211.5070  150.9270 C   0  0  0  0  0  0  0  0  0  0  0  0
  162.2850  210.6600  153.7200 F   0  0  0  0  0  0  0  0  0  0  0  0
  160.0770  205.2960  150.8480 C   0  0  0  0  0  1  0  0  0  0  0  0
  158.4520  212.8060  151.2740 C   0  0  0  0  0  3  0  0  0  0  0  0
  161.2290  206.4030  152.6900 N   0  0  0  0  0  0  0  0  0  0  0  0
  162.2590  210.8850  150.6710 C   0  0  0  0  0  2  0  0  0  0  0  0
  160.5190  211.9450  154.6140 C   0  0  0  0  0  1  0  0  0  0  0  0
  161.1590  210.5740  154.5220 C   0  0  1  0  0  0  0  0  0  0  0  0
  162.2160  208.7960  155.9290 C   0  0  1  0  0  3  0  0  0  0  0  0
  160.1310  209.5510  153.9520 C   0  0  2  0  0  3  0  0  0  0  0  0
  163.3060  208.1010  149.2910 O   0  0  0  0  0  0  0  0  0  0  0  0
  161.0730  208.5980  151.9450 C   0  0  1  0  0  3  0  0  0  0  0  0
  161.1560  207.7830  155.5310 C   0  0  0  0  0  2  0  0  0  0  0  0
  161.5980  210.1840  155.9310 C   0  0  0  0  0  2  0  0  0  0  0  0
  162.2540  208.7900  149.3400 C   0  0  0  0  0  0  0  0  0  0  0  0
  159.9030  210.9030  151.7240 C   0  0  0  0  0  0  0  0  0  0  0  0
  161.0680  206.3760  151.2400 C   0  0  2  0  0  3  0  0  0  0  0  0
  162.7070  208.4830  157.2570 N   0  0  0  0  0  1  0  0  0  0  0  0
  160.9900  208.1520  149.5450 N   0  0  0  0  0  2  0  0  0  0  0  0
  158.6780  211.5680  151.8760 C   0  0  0  0  0  3  0  0  0  0  0  0
  160.6740  212.7530  150.3330 C   0  0  0  0  0  3  0  0  0  0  0  0
  159.4510  213.3990  150.5050 C   0  0  0  0  0  3  0  0  0  0  0  0
  162.3310  210.2790  149.2730 C   0  0  0  0  0  2  0  0  0  0  0  0
  161.4760  207.7440  153.0630 N   0  0  1  0  0  0  0  0  0  0  0  0
  160.5240  207.7190  150.8600 C   0  0  2  0  0  3  0  0  0  0  0  0
  160.5650  208.0930  154.1540 C   0  0  2  0  0  3  0  0  0  0  0  0
  162.4370  205.6530  152.9970 C   0  0  0  0  0  1  0  0  0  0  0  0
  160.0210  209.5680  152.4330 C   0  0  2  0  0  3  0  0  0  0  0  0
  1 16  1  0  0  0  0
  2  8  1  0  0  0  0
  3 17  1  0  0  0  0
  4 20  1  0  0  0  0
  5 27  1  0  0  0  0
  5 24  1  0  0  0  0
  6  1  1  0  0  0  0
  8  7  1  1  0  0  0
  8 14  1  0  0  0  0
  9 14  1  0  0  0  0
  9 18  1  1  0  0  0
 10 26  1  0  0  0  0
 10  8  1  0  0  0  0
 11 15  2  0  0  0  0
 12 28  1  0  0  0  0
 12 24  1  0  0  0  0
 13  9  1  0  0  0  0
 15 19  1  0  0  0  0
 16 20  2  0  0  0  0
 16 28  1  0  0  0  0
 17  5  1  0  0  0  0
 19 25  1  0  0  0  0
 21 22  1  0  0  0  0
 21  1  2  0  0  0  0
 22  4  2  0  0  0  0
 23 15  1  0  0  0  0
 23  6  1  0  0  0  0
 24 26  1  0  0  0  0
 25 17  1  0  0  0  0
 25 12  1  0  0  0  0
 26 13  1  0  0  0  0
 28 10  1  0  0  0  0
M  END
>  <MODEL>
7

>  <REMARK>
 VINA RESULT:      -0.3      2.393      5.447
  Name = 
  0 active torsions:
  status: ('A' for Active; 'I' for Inactive)
                            x       y       z     vdW  Elec       q    Type
                         _______ _______ _______ _____ _____    ______ ____

>  <TORSDO>
F 0

$$$$
