=
 OpenBabel11122413223D

 31 35  0  0  0  0  0  0  0  0999 V2000
  161.1850  201.3950  149.9260 C   0  0  0  0  0  0  0  0  0  0  0  0
  161.1150  205.0670  149.1330 C   0  0  0  0  0  0  0  0  0  0  0  0
  161.1550  205.1780  147.7190 C   0  0  0  0  0  0  0  0  0  0  0  0
  160.9220  206.5400  154.1780 O   0  0  0  0  0  0  0  0  0  0  0  0
  160.9180  207.5730  153.4560 C   0  0  0  0  0  0  0  0  0  0  0  0
  161.2470  204.1920  145.5490 C   0  0  0  0  0  0  0  0  0  0  0  0
  161.1250  203.8310  149.8400 C   0  0  0  0  0  0  0  0  0  0  0  0
  161.1420  201.4310  151.3200 C   0  0  0  0  0  3  0  0  0  0  0  0
  161.2090  204.0850  146.9050 N   0  0  0  0  0  0  0  0  0  0  0  0
  161.0190  206.2280  151.2830 C   0  0  0  0  0  0  0  0  0  0  0  0
  161.2360  200.2040  149.2810 F   0  0  0  0  0  0  0  0  0  0  0  0
  161.0870  207.5640  147.9160 N   0  0  0  0  0  0  0  0  0  0  0  0
  161.3000  203.0740  144.7850 F   0  0  0  0  0  0  0  0  0  0  0  0
  161.0300  205.0310  151.9230 N   0  0  0  0  0  0  0  0  0  0  0  0
  161.0610  206.2690  149.8820 C   0  0  0  0  0  0  0  0  0  0  0  0
  160.9640  207.4540  152.0270 N   0  0  0  0  0  2  0  0  0  0  0  0
  161.1770  202.5840  149.1940 C   0  0  0  0  0  3  0  0  0  0  0  0
  161.2330  205.4490  144.9440 C   0  0  0  0  0  3  0  0  0  0  0  0
  161.0820  203.8520  151.2560 C   0  0  0  0  0  0  0  0  0  0  0  0
  161.0900  202.6580  151.9830 C   0  0  0  0  0  3  0  0  0  0  0  0
  161.0490  207.4700  149.2440 N   0  0  0  0  0  0  0  0  0  0  0  0
  161.1400  206.4610  147.1330 C   0  0  0  0  0  0  0  0  0  0  0  0
  161.1790  206.5890  145.7450 C   0  0  0  0  0  3  0  0  0  0  0  0
  160.7210  211.5120  155.1580 C   0  0  0  0  0  0  0  0  0  0  0  0
  160.3340  209.9840  153.3260 C   0  0  0  0  0  3  0  0  0  0  0  0
  161.8620  208.1620  156.1740 O   0  0  0  0  0  1  0  0  0  0  0  0
  160.6510  212.7590  155.6800 F   0  0  0  0  0  0  0  0  0  0  0  0
  160.2620  211.2700  153.8640 C   0  0  0  0  0  3  0  0  0  0  0  0
  161.3270  209.1740  155.3850 C   0  0  0  0  0  0  0  0  0  0  0  0
  160.8640  208.9200  154.0730 C   0  0  0  0  0  0  0  0  0  0  0  0
  161.2520  210.4660  155.9160 C   0  0  0  0  0  3  0  0  0  0  0  0
  1  8  1  0  0  0  0
  2  7  1  0  0  0  0
  2 15  1  0  0  0  0
  3  2  2  0  0  0  0
  5 30  1  0  0  0  0
  5  4  2  0  0  0  0
  6  9  2  0  0  0  0
  7 19  2  0  0  0  0
  8 20  2  0  0  0  0
  9  3  1  0  0  0  0
 10 14  2  0  0  0  0
 10 16  1  0  0  0  0
 11  1  1  0  0  0  0
 12 21  1  0  0  0  0
 13  6  1  0  0  0  0
 15 10  1  0  0  0  0
 16  5  1  0  0  0  0
 17  7  1  0  0  0  0
 17  1  2  0  0  0  0
 18  6  1  0  0  0  0
 18 23  2  0  0  0  0
 19 14  1  0  0  0  0
 19 20  1  0  0  0  0
 21 15  2  0  0  0  0
 22  3  1  0  0  0  0
 22 12  2  0  0  0  0
 23 22  1  0  0  0  0
 24 27  1  0  0  0  0
 24 31  1  0  0  0  0
 25 28  1  0  0  0  0
 25 30  2  0  0  0  0
 28 24  2  0  0  0  0
 29 31  2  0  0  0  0
 29 26  1  0  0  0  0
 30 29  1  0  0  0  0
M  END
>  <MODEL>
1

>  <REMARK>
 VINA RESULT:     -11.0      0.000      0.000
  Name = 
  1 active torsions:
  status: ('A' for Active; 'I' for Inactive)
    1  A    between atoms: C_5  and  C_30
                            x       y       z     vdW  Elec       q    Type
                         _______ _______ _______ _____ _____    ______ ____

>  <TORSDO>
F 1

$$$$
=
 OpenBabel11122413223D

 31 35  0  0  0  0  0  0  0  0999 V2000
  160.9840  207.0530  154.2590 C   0  0  0  0  0  0  0  0  0  0  0  0
  161.2580  206.7830  150.5210 C   0  0  0  0  0  0  0  0  0  0  0  0
  161.1770  205.4020  150.2060 C   0  0  0  0  0  0  0  0  0  0  0  0
  161.7090  211.9730  149.7990 O   0  0  0  0  0  0  0  0  0  0  0  0
  161.7550  211.4040  148.6750 C   0  0  0  0  0  0  0  0  0  0  0  0
  160.9510  203.1210  150.8660 C   0  0  0  0  0  0  0  0  0  0  0  0
  161.1930  207.3090  151.8420 C   0  0  0  0  0  0  0  0  0  0  0  0
  161.0760  208.4350  154.4250 C   0  0  0  0  0  3  0  0  0  0  0  0
  161.0290  204.4450  151.1670 N   0  0  0  0  0  0  0  0  0  0  0  0
  161.4970  209.0690  149.6870 C   0  0  0  0  0  0  0  0  0  0  0  0
  160.8380  206.2500  155.3400 F   0  0  0  0  0  0  0  0  0  0  0  0
  161.4000  205.9300  147.8820 N   0  0  0  0  0  0  0  0  0  0  0  0
  160.8040  202.2090  151.8570 F   0  0  0  0  0  0  0  0  0  0  0  0
  161.4320  209.5350  150.9600 N   0  0  0  0  0  0  0  0  0  0  0  0
  161.4110  207.6910  149.4440 C   0  0  0  0  0  0  0  0  0  0  0  0
  161.6530  209.9760  148.5850 N   0  0  0  0  0  2  0  0  0  0  0  0
  161.0420  206.4970  152.9800 C   0  0  0  0  0  3  0  0  0  0  0  0
  161.0230  202.6980  149.5370 C   0  0  0  0  0  3  0  0  0  0  0  0
  161.2860  208.7110  152.0270 C   0  0  0  0  0  0  0  0  0  0  0  0
  161.2270  209.2620  153.3100 C   0  0  0  0  0  3  0  0  0  0  0  0
  161.4770  207.2280  148.1670 N   0  0  0  0  0  0  0  0  0  0  0  0
  161.2530  205.0030  148.8560 C   0  0  0  0  0  0  0  0  0  0  0  0
  161.1750  203.6490  148.5290 C   0  0  0  0  0  3  0  0  0  0  0  0
  162.3140  213.7170  145.0990 C   0  0  0  0  0  0  0  0  0  0  0  0
  163.2050  212.5860  147.0400 C   0  0  0  0  0  3  0  0  0  0  0  0
  159.5110  212.2420  146.9760 O   0  0  0  0  0  1  0  0  0  0  0  0
  162.5070  214.4460  143.9740 F   0  0  0  0  0  0  0  0  0  0  0  0
  163.4050  213.3370  145.8810 C   0  0  0  0  0  3  0  0  0  0  0  0
  160.8130  212.5910  146.6360 C   0  0  0  0  0  0  0  0  0  0  0  0
  161.9130  212.2020  147.4350 C   0  0  0  0  0  0  0  0  0  0  0  0
  161.0230  213.3450  145.4770 C   0  0  0  0  0  3  0  0  0  0  0  0
  1  8  1  0  0  0  0
  1 11  1  0  0  0  0
  2  7  1  0  0  0  0
  3  2  1  0  0  0  0
  3  9  1  0  0  0  0
  5  4  2  0  0  0  0
  6  9  2  0  0  0  0
  6 13  1  0  0  0  0
  7 19  2  0  0  0  0
  7 17  1  0  0  0  0
 10 14  2  0  0  0  0
 12 21  2  0  0  0  0
 12 22  1  0  0  0  0
 14 19  1  0  0  0  0
 15 10  1  0  0  0  0
 15  2  2  0  0  0  0
 16  5  1  0  0  0  0
 16 10  1  0  0  0  0
 17  1  2  0  0  0  0
 18  6  1  0  0  0  0
 19 20  1  0  0  0  0
 20  8  2  0  0  0  0
 21 15  1  0  0  0  0
 22  3  2  0  0  0  0
 23 22  1  0  0  0  0
 23 18  2  0  0  0  0
 24 31  2  0  0  0  0
 24 28  1  0  0  0  0
 25 30  1  0  0  0  0
 27 24  1  0  0  0  0
 28 25  2  0  0  0  0
 29 26  1  0  0  0  0
 29 30  2  0  0  0  0
 30  5  1  0  0  0  0
 31 29  1  0  0  0  0
M  END
>  <MODEL>
2

>  <REMARK>
 VINA RESULT:     -10.0      4.567      6.615
  Name = 
  1 active torsions:
  status: ('A' for Active; 'I' for Inactive)
    1  A    between atoms: C_5  and  C_30
                            x       y       z     vdW  Elec       q    Type
                         _______ _______ _______ _____ _____    ______ ____

>  <TORSDO>
F 1

$$$$
=
 OpenBabel11122413223D

 31 35  0  0  0  0  0  0  0  0999 V2000
  161.7050  205.3150  145.9050 C   0  0  0  0  0  0  0  0  0  0  0  0
  161.2030  204.4470  149.5260 C   0  0  0  0  0  0  0  0  0  0  0  0
  161.1230  203.0320  149.5980 C   0  0  0  0  0  0  0  0  0  0  0  0
  161.2530  209.4560  151.1270 O   0  0  0  0  0  0  0  0  0  0  0  0
  161.0880  208.7140  152.1330 C   0  0  0  0  0  0  0  0  0  0  0  0
  161.1460  200.8850  148.5580 C   0  0  0  0  0  0  0  0  0  0  0  0
  161.3930  205.1780  148.3200 C   0  0  0  0  0  0  0  0  0  0  0  0
  161.7660  206.7070  145.9800 C   0  0  0  0  0  3  0  0  0  0  0  0
  161.2220  202.2410  148.4910 N   0  0  0  0  0  0  0  0  0  0  0  0
  161.1570  206.5700  150.7380 C   0  0  0  0  0  0  0  0  0  0  0  0
  161.8260  204.6960  144.7060 F   0  0  0  0  0  0  0  0  0  0  0  0
  160.8300  203.1790  151.9690 N   0  0  0  0  0  0  0  0  0  0  0  0
  161.2510  200.1440  147.4290 F   0  0  0  0  0  0  0  0  0  0  0  0
  161.3380  207.2350  149.5680 N   0  0  0  0  0  0  0  0  0  0  0  0
  161.0860  205.1700  150.7390 C   0  0  0  0  0  0  0  0  0  0  0  0
  161.0370  207.2880  151.9750 N   0  0  0  0  0  2  0  0  0  0  0  0
  161.5210  204.5590  147.0640 C   0  0  0  0  0  3  0  0  0  0  0  0
  160.9580  200.2540  149.7890 C   0  0  0  0  0  3  0  0  0  0  0  0
  161.4560  206.5930  148.3800 C   0  0  0  0  0  0  0  0  0  0  0  0
  161.6420  207.3440  147.2160 C   0  0  0  0  0  3  0  0  0  0  0  0
  160.9040  204.5070  151.9130 N   0  0  0  0  0  0  0  0  0  0  0  0
  160.9330  202.4200  150.8540 C   0  0  0  0  0  0  0  0  0  0  0  0
  160.8510  201.0300  150.9420 C   0  0  0  0  0  3  0  0  0  0  0  0
  160.6860  210.5110  156.0130 C   0  0  0  0  0  0  0  0  0  0  0  0
  160.9810  210.6990  153.6210 C   0  0  0  0  0  3  0  0  0  0  0  0
  160.7360  207.1220  154.5750 O   0  0  0  0  0  1  0  0  0  0  0  0
  160.5610  211.0930  157.2290 F   0  0  0  0  0  0  0  0  0  0  0  0
  160.8520  211.3000  154.8750 C   0  0  0  0  0  3  0  0  0  0  0  0
  160.7780  208.5100  154.6450 C   0  0  0  0  0  0  0  0  0  0  0  0
  160.9460  209.3020  153.4860 C   0  0  0  0  0  0  0  0  0  0  0  0
  160.6500  209.1200  155.8970 C   0  0  0  0  0  3  0  0  0  0  0  0
  1  8  2  0  0  0  0
  1 17  1  0  0  0  0
  2  3  2  0  0  0  0
  2 15  1  0  0  0  0
  3 22  1  0  0  0  0
  4  5  2  0  0  0  0
  5 30  1  0  0  0  0
  6 18  1  0  0  0  0
  7 19  1  0  0  0  0
  7  2  1  0  0  0  0
  8 20  1  0  0  0  0
  9  6  2  0  0  0  0
  9  3  1  0  0  0  0
 10 15  1  0  0  0  0
 10 16  1  0  0  0  0
 11  1  1  0  0  0  0
 13  6  1  0  0  0  0
 14 10  2  0  0  0  0
 15 21  2  0  0  0  0
 16  5  1  0  0  0  0
 17  7  2  0  0  0  0
 18 23  2  0  0  0  0
 19 14  1  0  0  0  0
 20 19  2  0  0  0  0
 21 12  1  0  0  0  0
 22 23  1  0  0  0  0
 22 12  2  0  0  0  0
 24 27  1  0  0  0  0
 25 28  1  0  0  0  0
 26 29  1  0  0  0  0
 28 24  2  0  0  0  0
 29 31  2  0  0  0  0
 30 25  2  0  0  0  0
 30 29  1  0  0  0  0
 31 24  1  0  0  0  0
M  END
>  <MODEL>
3

>  <REMARK>
 VINA RESULT:      -9.4      1.387      4.001
  Name = 
  1 active torsions:
  status: ('A' for Active; 'I' for Inactive)
    1  A    between atoms: C_5  and  C_30
                            x       y       z     vdW  Elec       q    Type
                         _______ _______ _______ _____ _____    ______ ____

>  <TORSDO>
F 1

$$$$
=
 OpenBabel11122413223D

 31 35  0  0  0  0  0  0  0  0999 V2000
  161.8630  210.9250  150.0680 C   0  0  0  0  0  0  0  0  0  0  0  0
  161.3350  207.4810  151.4730 C   0  0  0  0  0  0  0  0  0  0  0  0
  161.1870  207.6310  152.8750 C   0  0  0  0  0  0  0  0  0  0  0  0
  161.6290  205.1110  146.7870 O   0  0  0  0  0  0  0  0  0  0  0  0
  161.4340  204.2340  147.6700 C   0  0  0  0  0  0  0  0  0  0  0  0
  161.1040  208.9960  154.8310 C   0  0  0  0  0  0  0  0  0  0  0  0
  161.5530  208.5580  150.5700 C   0  0  0  0  0  0  0  0  0  0  0  0
  161.9900  210.6330  148.7100 C   0  0  0  0  0  3  0  0  0  0  0  0
  161.2460  208.8500  153.4860 N   0  0  0  0  0  0  0  0  0  0  0  0
  161.3940  205.9490  149.5670 C   0  0  0  0  0  0  0  0  0  0  0  0
  161.9490  212.2080  150.4950 F   0  0  0  0  0  0  0  0  0  0  0  0
  160.9110  205.2630  153.0920 N   0  0  0  0  0  0  0  0  0  0  0  0
  161.1700  210.2290  155.3880 F   0  0  0  0  0  0  0  0  0  0  0  0
  161.6020  207.0010  148.7360 N   0  0  0  0  0  0  0  0  0  0  0  0
  161.2570  206.1670  150.9450 C   0  0  0  0  0  0  0  0  0  0  0  0
  161.3120  204.6130  149.0490 N   0  0  0  0  0  2  0  0  0  0  0  0
  161.6460  209.8970  150.9880 C   0  0  0  0  0  3  0  0  0  0  0  0
  160.8910  207.8780  155.6380 C   0  0  0  0  0  3  0  0  0  0  0  0
  161.6850  208.2770  149.1870 C   0  0  0  0  0  0  0  0  0  0  0  0
  161.9010  209.3110  148.2710 C   0  0  0  0  0  3  0  0  0  0  0  0
  161.0480  205.1100  151.7760 N   0  0  0  0  0  0  0  0  0  0  0  0
  160.9730  206.4850  153.6690 C   0  0  0  0  0  0  0  0  0  0  0  0
  160.8260  206.6160  155.0500 C   0  0  0  0  0  3  0  0  0  0  0  0
  161.1460  200.0630  146.6830 C   0  0  0  0  0  0  0  0  0  0  0  0
  161.5880  201.8290  148.2730 C   0  0  0  0  0  3  0  0  0  0  0  0
  160.6970  203.2990  144.9850 O   0  0  0  0  0  1  0  0  0  0  0  0
  161.0600  198.7450  146.3890 F   0  0  0  0  0  0  0  0  0  0  0  0
  161.4990  200.4690  147.9700 C   0  0  0  0  0  3  0  0  0  0  0  0
  160.9680  202.3820  145.9950 C   0  0  0  0  0  0  0  0  0  0  0  0
  161.3250  202.8030  147.2970 C   0  0  0  0  0  0  0  0  0  0  0  0
  160.8820  201.0180  145.7000 C   0  0  0  0  0  3  0  0  0  0  0  0
  1 11  1  0  0  0  0
  1 17  1  0  0  0  0
  2  3  1  0  0  0  0
  3  9  2  0  0  0  0
  3 22  1  0  0  0  0
  4  5  2  0  0  0  0
  5 16  1  0  0  0  0
  6 13  1  0  0  0  0
  6 18  2  0  0  0  0
  7 17  2  0  0  0  0
  7  2  1  0  0  0  0
  8  1  2  0  0  0  0
  9  6  1  0  0  0  0
 10 15  1  0  0  0  0
 12 22  1  0  0  0  0
 14 19  1  0  0  0  0
 14 10  2  0  0  0  0
 15  2  2  0  0  0  0
 15 21  1  0  0  0  0
 16 10  1  0  0  0  0
 19  7  1  0  0  0  0
 20  8  1  0  0  0  0
 20 19  2  0  0  0  0
 21 12  2  0  0  0  0
 22 23  2  0  0  0  0
 23 18  1  0  0  0  0
 24 28  1  0  0  0  0
 26 29  1  0  0  0  0
 27 24  1  0  0  0  0
 28 25  2  0  0  0  0
 29 30  2  0  0  0  0
 30  5  1  0  0  0  0
 30 25  1  0  0  0  0
 31 29  1  0  0  0  0
 31 24  2  0  0  0  0
M  END
>  <MODEL>
4

>  <REMARK>
 VINA RESULT:      -9.4      3.207      9.161
  Name = 
  1 active torsions:
  status: ('A' for Active; 'I' for Inactive)
    1  A    between atoms: C_5  and  C_30
                            x       y       z     vdW  Elec       q    Type
                         _______ _______ _______ _____ _____    ______ ____

>  <TORSDO>
F 1

$$$$
=
 OpenBabel11122413223D

 31 35  0  0  0  0  0  0  0  0999 V2000
  160.9210  204.2950  152.6550 C   0  0  0  0  0  0  0  0  0  0  0  0
  161.3100  205.1990  149.0280 C   0  0  0  0  0  0  0  0  0  0  0  0
  161.1990  203.9900  148.2940 C   0  0  0  0  0  0  0  0  0  0  0  0
  161.9390  210.3320  149.9820 O   0  0  0  0  0  0  0  0  0  0  0  0
  162.0050  210.1430  148.7370 C   0  0  0  0  0  0  0  0  0  0  0  0
  160.8850  201.6270  148.1980 C   0  0  0  0  0  0  0  0  0  0  0  0
  161.2180  205.2860  150.4460 C   0  0  0  0  0  0  0  0  0  0  0  0
  161.0480  205.5510  153.2480 C   0  0  0  0  0  3  0  0  0  0  0  0
  160.9920  202.7860  148.9010 N   0  0  0  0  0  0  0  0  0  0  0  0
  161.6450  207.6200  148.9590 C   0  0  0  0  0  0  0  0  0  0  0  0
  160.7150  203.2010  153.4250 F   0  0  0  0  0  0  0  0  0  0  0  0
  161.5150  205.2090  146.2580 N   0  0  0  0  0  0  0  0  0  0  0  0
  160.6780  200.4580  148.8500 F   0  0  0  0  0  0  0  0  0  0  0  0
  161.5520  207.6650  150.3130 N   0  0  0  0  0  0  0  0  0  0  0  0
  161.5270  206.3910  148.2940 C   0  0  0  0  0  0  0  0  0  0  0  0
  161.8630  208.8190  148.2010 N   0  0  0  0  0  2  0  0  0  0  0  0
  161.0050  204.1660  151.2670 C   0  0  0  0  0  3  0  0  0  0  0  0
  160.9890  201.6390  146.8070 C   0  0  0  0  0  3  0  0  0  0  0  0
  161.3460  206.5550  151.0630 C   0  0  0  0  0  0  0  0  0  0  0  0
  161.2600  206.6790  152.4530 C   0  0  0  0  0  3  0  0  0  0  0  0
  161.6210  206.3500  146.9380 N   0  0  0  0  0  0  0  0  0  0  0  0
  161.3080  204.0300  146.8890 C   0  0  0  0  0  0  0  0  0  0  0  0
  161.2020  202.8510  146.1510 C   0  0  0  0  0  3  0  0  0  0  0  0
  162.7500  213.4230  146.0660 C   0  0  0  0  0  0  0  0  0  0  0  0
  163.5390  211.5710  147.4040 C   0  0  0  0  0  3  0  0  0  0  0  0
  159.8510  211.8510  147.7040 O   0  0  0  0  0  1  0  0  0  0  0  0
  163.0020  214.4530  145.2250 F   0  0  0  0  0  0  0  0  0  0  0  0
  163.7990  212.6330  146.5370 C   0  0  0  0  0  3  0  0  0  0  0  0
  161.1700  212.0870  147.3330 C   0  0  0  0  0  0  0  0  0  0  0  0
  162.2280  211.2820  147.8150 C   0  0  0  0  0  0  0  0  0  0  0  0
  161.4400  213.1500  146.4640 C   0  0  0  0  0  3  0  0  0  0  0  0
  1  8  1  0  0  0  0
  1 11  1  0  0  0  0
  2  7  1  0  0  0  0
  3  9  1  0  0  0  0
  3  2  1  0  0  0  0
  5  4  2  0  0  0  0
  6 13  1  0  0  0  0
  6  9  2  0  0  0  0
  7 19  2  0  0  0  0
  7 17  1  0  0  0  0
 10 14  2  0  0  0  0
 12 22  1  0  0  0  0
 12 21  2  0  0  0  0
 14 19  1  0  0  0  0
 15 10  1  0  0  0  0
 15  2  2  0  0  0  0
 16  5  1  0  0  0  0
 16 10  1  0  0  0  0
 17  1  2  0  0  0  0
 18  6  1  0  0  0  0
 19 20  1  0  0  0  0
 20  8  2  0  0  0  0
 21 15  1  0  0  0  0
 22  3  2  0  0  0  0
 23 18  2  0  0  0  0
 23 22  1  0  0  0  0
 24 31  2  0  0  0  0
 24 28  1  0  0  0  0
 25 30  1  0  0  0  0
 27 24  1  0  0  0  0
 28 25  2  0  0  0  0
 29 26  1  0  0  0  0
 29 30  2  0  0  0  0
 30  5  1  0  0  0  0
 31 29  1  0  0  0  0
M  END
>  <MODEL>
5

>  <REMARK>
 VINA RESULT:      -8.9      4.150      5.464
  Name = 
  1 active torsions:
  status: ('A' for Active; 'I' for Inactive)
    1  A    between atoms: C_5  and  C_30
                            x       y       z     vdW  Elec       q    Type
                         _______ _______ _______ _____ _____    ______ ____

>  <TORSDO>
F 1

$$$$
=
 OpenBabel11122413223D

 31 35  0  0  0  0  0  0  0  0999 V2000
  161.8540  210.9050  150.0370 C   0  0  0  0  0  0  0  0  0  0  0  0
  161.3230  207.4760  151.4790 C   0  0  0  0  0  0  0  0  0  0  0  0
  161.1800  207.6420  152.8810 C   0  0  0  0  0  0  0  0  0  0  0  0
  161.5940  205.0580  146.8170 O   0  0  0  0  0  0  0  0  0  0  0  0
  161.4000  204.1900  147.7100 C   0  0  0  0  0  0  0  0  0  0  0  0
  161.1080  209.0270  154.8220 C   0  0  0  0  0  0  0  0  0  0  0  0
  161.5410  208.5440  150.5640 C   0  0  0  0  0  0  0  0  0  0  0  0
  161.9760  210.5990  148.6820 C   0  0  0  0  0  3  0  0  0  0  0  0
  161.2450  208.8670  153.4790 N   0  0  0  0  0  0  0  0  0  0  0  0
  161.3710  205.9250  149.5890 C   0  0  0  0  0  0  0  0  0  0  0  0
  161.9450  212.1920  150.4510 F   0  0  0  0  0  0  0  0  0  0  0  0
  160.8990  205.2770  153.1220 N   0  0  0  0  0  0  0  0  0  0  0  0
  161.1790  210.2650  155.3660 F   0  0  0  0  0  0  0  0  0  0  0  0
  161.5790  206.9680  148.7460 N   0  0  0  0  0  0  0  0  0  0  0  0
  161.2400  206.1580  150.9660 C   0  0  0  0  0  0  0  0  0  0  0  0
  161.2850  204.5840  149.0850 N   0  0  0  0  0  2  0  0  0  0  0  0
  161.6390  209.8870  150.9680 C   0  0  0  0  0  3  0  0  0  0  0  0
  160.8960  207.9180  155.6420 C   0  0  0  0  0  3  0  0  0  0  0  0
  161.6670  208.2490  149.1840 C   0  0  0  0  0  0  0  0  0  0  0  0
  161.8820  209.2720  148.2570 C   0  0  0  0  0  3  0  0  0  0  0  0
  161.0310  205.1100  151.8070 N   0  0  0  0  0  0  0  0  0  0  0  0
  160.9670  206.5050  153.6860 C   0  0  0  0  0  0  0  0  0  0  0  0
  160.8250  206.6500  155.0660 C   0  0  0  0  0  3  0  0  0  0  0  0
  161.0580  200.0620  146.5740 C   0  0  0  0  0  0  0  0  0  0  0  0
  161.0740  202.4110  146.0070 C   0  0  0  0  0  3  0  0  0  0  0  0
  161.5940  202.0020  149.6570 O   0  0  0  0  0  1  0  0  0  0  0  0
  160.9490  198.7650  146.2000 F   0  0  0  0  0  0  0  0  0  0  0  0
  160.9610  201.0750  145.6200 C   0  0  0  0  0  3  0  0  0  0  0  0
  161.3850  201.7230  148.3110 C   0  0  0  0  0  0  0  0  0  0  0  0
  161.2870  202.7560  147.3510 C   0  0  0  0  0  0  0  0  0  0  0  0
  161.2690  200.3870  147.9150 C   0  0  0  0  0  3  0  0  0  0  0  0
  1 11  1  0  0  0  0
  1 17  1  0  0  0  0
  2  3  1  0  0  0  0
  3  9  2  0  0  0  0
  3 22  1  0  0  0  0
  4  5  2  0  0  0  0
  5 16  1  0  0  0  0
  6 13  1  0  0  0  0
  6 18  2  0  0  0  0
  7 17  2  0  0  0  0
  7  2  1  0  0  0  0
  8  1  2  0  0  0  0
  9  6  1  0  0  0  0
 10 15  1  0  0  0  0
 12 22  1  0  0  0  0
 14 19  1  0  0  0  0
 14 10  2  0  0  0  0
 15  2  2  0  0  0  0
 15 21  1  0  0  0  0
 16 10  1  0  0  0  0
 19  7  1  0  0  0  0
 20  8  1  0  0  0  0
 20 19  2  0  0  0  0
 21 12  2  0  0  0  0
 22 23  2  0  0  0  0
 23 18  1  0  0  0  0
 24 31  1  0  0  0  0
 25 30  2  0  0  0  0
 27 24  1  0  0  0  0
 28 25  1  0  0  0  0
 28 24  2  0  0  0  0
 29 26  1  0  0  0  0
 30  5  1  0  0  0  0
 30 29  1  0  0  0  0
 31 29  2  0  0  0  0
M  END
>  <MODEL>
6

>  <REMARK>
 VINA RESULT:      -8.7      2.929      9.007
  Name = 
  1 active torsions:
  status: ('A' for Active; 'I' for Inactive)
    1  A    between atoms: C_5  and  C_30
                            x       y       z     vdW  Elec       q    Type
                         _______ _______ _______ _____ _____    ______ ____

>  <TORSDO>
F 1

$$$$
