=
 OpenBabel11122413103D

 31 36  0  0  1  0  0  0  0  0999 V2000
  161.4690  207.2010  152.5730 C   0  0  0  0  0  0  0  0  0  0  0  0
  159.4030  210.2890  153.3580 C   0  0  2  0  0  3  0  0  0  0  0  0
  159.7910  210.6700  154.8070 C   0  0  1  0  0  3  0  0  0  0  0  0
  161.7370  211.0440  156.1620 C   0  0  0  0  0  0  0  0  0  0  0  0
  160.3820  209.3680  152.6790 C   0  0  0  0  0  0  0  0  0  0  0  0
  162.2830  207.6560  151.5330 C   0  0  0  0  0  3  0  0  0  0  0  0
  161.1910  210.4830  155.1310 N   0  0  0  0  0  0  0  0  0  0  0  0
  160.2880  212.1750  151.9360 C   0  0  2  0  0  3  0  0  0  0  0  0
  161.6150  205.8110  153.0760 C   0  0  0  0  0  1  0  0  0  0  0  0
  158.0610  212.2840  154.6870 O   0  0  0  0  0  0  0  0  0  0  0  0
  163.4300  210.7370  156.4980 Cl  0  0  0  0  0  0  0  0  0  0  0  0
  161.0180  211.1850  151.0210 C   0  0  0  0  0  2  0  0  0  0  0  0
  159.0110  211.5110  152.4930 C   0  0  2  0  0  3  0  0  0  0  0  0
  160.5240  208.0550  153.1450 C   0  0  0  0  0  3  0  0  0  0  0  0
  161.0050  212.0770  157.0040 C   0  0  0  0  0  2  0  0  0  0  0  0
  161.2090  209.8280  151.6330 C   0  0  0  0  0  0  0  0  0  0  0  0
  162.1460  208.9640  151.0590 C   0  0  0  0  0  3  0  0  0  0  0  0
  158.1280  212.5150  153.2920 C   0  0  0  0  0  2  0  0  0  0  0  0
  159.3760  212.0950  155.1230 C   0  0  1  0  0  3  0  0  0  0  0  0
  159.5290  212.2710  156.6210 C   0  0  0  0  0  2  0  0  0  0  0  0
  158.6440  213.1980  150.6190 C   0  0  0  0  0  2  0  0  0  0  0  0
  159.8030  213.0100  149.7610 C   0  0  2  0  0  3  0  0  0  0  0  0
  159.9950  213.3870  151.1740 N   0  0  2  0  0  0  0  0  0  0  0  0
  159.4040  213.3680  146.0480 C   0  0  1  0  0  3  0  0  0  0  0  0
  158.7120  214.4510  148.1110 O   0  0  0  0  0  0  0  0  0  0  0  0
  162.4740  213.5760  148.4680 O   0  0  0  0  0  0  0  0  0  0  0  0
  158.9490  212.3250  145.0490 C   0  0  0  0  0  1  0  0  0  0  0  0
  158.4740  213.3480  147.2600 C   0  0  0  0  0  2  0  0  0  0  0  0
  161.3380  214.2560  147.7200 S   0  0  2  0  0  0  0  0  0  0  0  0
  159.9040  214.2350  148.8390 C   0  0  2  0  0  3  0  0  0  0  0  0
  160.8300  213.0570  146.4790 C   0  0  0  0  0  2  0  0  0  0  0  0
  1  9  1  0  0  0  0
  1 14  1  0  0  0  0
  2  5  1  6  0  0  0
  2  3  1  0  0  0  0
  3 19  1  0  0  0  0
  3  7  1  6  0  0  0
  4 11  1  0  0  0  0
  4 15  1  0  0  0  0
  5 14  2  0  0  0  0
  6  1  2  0  0  0  0
  7  4  2  0  0  0  0
  8 12  1  6  0  0  0
  8 13  1  0  0  0  0
 10 19  1  0  0  0  0
 12 16  1  0  0  0  0
 13 18  1  1  0  0  0
 13  2  1  0  0  0  0
 16  5  1  0  0  0  0
 17  6  1  0  0  0  0
 17 16  2  0  0  0  0
 18 10  1  0  0  0  0
 19 20  1  1  0  0  0
 20 15  1  0  0  0  0
 22 21  1  1  0  0  0
 22 23  1  0  0  0  0
 23 21  1  1  0  0  0
 23  8  1  0  0  0  0
 24 27  1  6  0  0  0
 24 31  1  0  0  0  0
 24 28  1  0  0  0  0
 28 25  1  0  0  0  0
 29 26  2  1  0  0  0
 29 30  1  0  0  0  0
 30 25  1  6  0  0  0
 30 22  1  0  0  0  0
 31 29  1  0  0  0  0
M  END
>  <MODEL>
1

>  <REMARK>
 VINA RESULT:      -6.4      0.000      0.000
  Name = 
  2 active torsions:
  status: ('A' for Active; 'I' for Inactive)
    1  A    between atoms: C_5  and  C_30
    2  A    between atoms: C_10  and  N_16
                            x       y       z     vdW  Elec       q    Type
                         _______ _______ _______ _____ _____    ______ ____

>  <TORSDO>
F 2

$$$$
