=
 OpenBabel11122413023D

 32 37  0  0  1  0  0  0  0  0999 V2000
  161.7580  206.3580  152.0950 C   0  0  1  0  0  3  0  0  0  0  0  0
  162.4580  208.2360  148.3110 O   0  0  0  0  0  0  0  0  0  0  0  0
  162.0540  207.0490  147.6720 C   0  0  0  0  0  2  0  0  0  0  0  0
  161.6790  203.7900  151.9290 C   0  0  1  0  0  3  0  0  0  0  0  0
  160.9510  202.6970  151.1520 C   0  0  2  0  0  3  0  0  0  0  0  0
  161.1160  207.2600  154.3740 N   0  0  0  0  0  0  0  0  0  0  0  0
  161.6110  208.7190  152.3780 C   0  0  0  0  0  2  0  0  0  0  0  0
  160.5330  201.7470  149.0110 C   0  0  1  0  0  3  0  0  0  0  0  0
  162.5150  207.9600  149.6890 C   0  0  0  0  0  2  0  0  0  0  0  0
  161.0320  207.5700  151.6930 N   0  0  1  0  0  0  0  0  0  0  0  0
  161.0860  207.7620  150.2360 C   0  0  2  0  0  3  0  0  0  0  0  0
  160.9770  205.2410  149.9670 C   0  0  2  0  0  3  0  0  0  0  0  0
  161.0360  200.6350  149.9360 C   0  0  0  0  0  2  0  0  0  0  0  0
  161.2840  208.6380  153.8720 C   0  0  2  0  0  3  0  0  0  0  0  0
  161.5030  201.2960  151.2370 C   0  0  0  0  0  2  0  0  0  0  0  0
  160.5860  206.7490  147.9940 C   0  0  0  0  0  2  0  0  0  0  0  0
  160.4030  206.5870  149.5060 C   0  0  2  0  0  3  0  0  0  0  0  0
  160.2440  204.1650  149.4120 O   0  0  0  0  0  0  0  0  0  0  0  0
  161.8990  206.2600  153.6320 C   0  0  0  0  0  2  0  0  0  0  0  0
  163.0460  203.7810  151.6270 O   0  0  0  0  0  1  0  0  0  0  0  0
  159.1370  201.7110  148.9680 O   0  0  0  0  0  1  0  0  0  0  0  0
  161.0400  205.1350  151.5160 C   0  0  2  0  0  3  0  0  0  0  0  0
  161.0100  203.0180  149.6820 C   0  0  1  0  0  3  0  0  0  0  0  0
  161.9240  210.6780  154.9380 O   0  0  0  0  0  0  0  0  0  0  0  0
  162.3460  209.3620  154.6790 C   0  0  1  0  0  3  0  0  0  0  0  0
  161.7930  209.7560  155.9920 C   0  0  1  0  0  3  0  0  0  0  0  0
  162.9220  209.9590  156.9810 C   0  0  0  0  0  2  0  0  0  0  0  0
  163.1550  211.4150  157.1870 C   0  0  0  0  0  0  0  0  0  0  0  0
  162.0760  212.2870  157.2600 O   0  0  0  0  0  0  0  0  0  0  0  0
  164.3290  211.8620  157.2610 O   0  0  0  0  0  1  0  0  0  0  0  0
  158.9370  207.1810  155.9420 S   0  0  0  0  0  1  0  0  0  0  0  0
  159.7050  206.9020  154.3200 C   0  0  0  0  0  2  0  0  0  0  0  0
  1 19  1  1  0  0  0
  2  9  1  0  0  0  0
  3 16  1  0  0  0  0
  3  2  1  0  0  0  0
  4 20  1  6  0  0  0
  5 15  1  6  0  0  0
  5  4  1  0  0  0  0
  8 21  1  1  0  0  0
  8 23  1  0  0  0  0
  8 13  1  0  0  0  0
 10  1  1  0  0  0  0
 10  7  1  1  0  0  0
 11  9  1  6  0  0  0
 11 10  1  0  0  0  0
 12 18  1  1  0  0  0
 12 22  1  0  0  0  0
 13 15  1  0  0  0  0
 14  7  1  6  0  0  0
 14  6  1  0  0  0  0
 14 25  1  0  0  0  0
 17 16  1  6  0  0  0
 17 12  1  0  0  0  0
 17 11  1  0  0  0  0
 18 23  1  0  0  0  0
 19  6  1  0  0  0  0
 22  4  1  0  0  0  0
 22  1  1  0  0  0  0
 23  5  1  0  0  0  0
 24 26  1  0  0  0  0
 25 24  1  0  0  0  0
 25 26  1  0  0  0  0
 26 27  1  0  0  0  0
 27 28  1  0  0  0  0
 28 29  2  0  0  0  0
 28 30  1  0  0  0  0
 32  6  1  0  0  0  0
 32 31  1  0  0  0  0
M  END
>  <MODEL>
1

>  <REMARK>
 VINA RESULT:      -3.7      0.000      0.000
  Name = 
  4 active torsions:
  status: ('A' for Active; 'I' for Inactive)
    1  A    between atoms: N_7  and  C_19
    2  A    between atoms: C_10  and  C_17
    3  A    between atoms: C_20  and  C_29
    4  A    between atoms: C_29  and  C_30
                            x       y       z     vdW  Elec       q    Type
                         _______ _______ _______ _____ _____    ______ ____

>  <TORSDO>
F 4

$$$$
=
 OpenBabel11122413023D

 32 37  0  0  1  0  0  0  0  0999 V2000
  160.6610  205.7580  150.4490 C   0  0  1  0  0  3  0  0  0  0  0  0
  160.0510  201.5950  151.2440 O   0  0  0  0  0  0  0  0  0  0  0  0
  160.3360  201.3180  149.8930 C   0  0  0  0  0  2  0  0  0  0  0  0
  160.5110  206.3230  147.9420 C   0  0  1  0  0  3  0  0  0  0  0  0
  161.1230  205.8890  146.6130 C   0  0  2  0  0  3  0  0  0  0  0  0
  161.4260  207.6940  151.8930 N   0  0  0  0  0  0  0  0  0  0  0  0
  161.0200  205.3660  152.7710 C   0  0  0  0  0  2  0  0  0  0  0  0
  161.4130  204.1040  145.0670 C   0  0  1  0  0  3  0  0  0  0  0  0
  159.9980  202.9950  151.3720 C   0  0  0  0  0  2  0  0  0  0  0  0
  161.4820  205.0350  151.4290 N   0  0  1  0  0  0  0  0  0  0  0  0
  161.4150  203.5820  151.2080 C   0  0  2  0  0  3  0  0  0  0  0  0
  161.2970  204.0360  148.7140 C   0  0  2  0  0  3  0  0  0  0  0  0
  160.8330  205.3030  144.3090 C   0  0  0  0  0  2  0  0  0  0  0  0
  161.3690  206.8240  153.0840 C   0  0  2  0  0  3  0  0  0  0  0  0
  160.4530  206.3620  145.3480 C   0  0  0  0  0  2  0  0  0  0  0  0
  161.7790  201.7190  149.5650 C   0  0  0  0  0  2  0  0  0  0  0  0
  161.9780  203.2170  149.8190 C   0  0  2  0  0  3  0  0  0  0  0  0
  161.9210  203.8100  147.4630 O   0  0  0  0  0  0  0  0  0  0  0  0
  160.5430  207.2600  150.7990 C   0  0  0  0  0  2  0  0  0  0  0  0
  159.1420  206.0290  147.9710 O   0  0  0  0  0  1  0  0  0  0  0  0
  162.7990  204.0800  144.8950 O   0  0  0  0  0  1  0  0  0  0  0  0
  161.2570  205.5510  149.0530 C   0  0  2  0  0  3  0  0  0  0  0  0
  161.0630  204.3880  146.5130 C   0  0  1  0  0  3  0  0  0  0  0  0
  160.6070  206.7810  155.3480 O   0  0  0  0  0  0  0  0  0  0  0  0
  160.3920  207.3890  154.0980 C   0  0  1  0  0  3  0  0  0  0  0  0
  161.1330  208.0750  155.1770 C   0  0  1  0  0  3  0  0  0  0  0  0
  160.2270  209.0790  155.8600 C   0  0  0  0  0  2  0  0  0  0  0  0
  160.9310  210.3840  155.9910 C   0  0  0  0  0  0  0  0  0  0  0  0
  162.2220  210.5290  155.4990 O   0  0  0  0  0  0  0  0  0  0  0  0
  160.3720  211.3450  156.5800 O   0  0  0  0  0  1  0  0  0  0  0  0
  162.8420  208.5410  149.7740 S   0  0  0  0  0  1  0  0  0  0  0  0
  162.7990  207.7510  151.4080 C   0  0  0  0  0  2  0  0  0  0  0  0
  1 19  1  1  0  0  0
  1 10  1  0  0  0  0
  2  9  1  0  0  0  0
  3  2  1  0  0  0  0
  4 20  1  6  0  0  0
  4 22  1  0  0  0  0
  5 15  1  6  0  0  0
  5  4  1  0  0  0  0
  6 14  1  0  0  0  0
  8 21  1  1  0  0  0
  8 23  1  0  0  0  0
 10  7  1  1  0  0  0
 11  9  1  6  0  0  0
 11 10  1  0  0  0  0
 12 18  1  6  0  0  0
 12 22  1  0  0  0  0
 12 17  1  0  0  0  0
 13  8  1  0  0  0  0
 13 15  1  0  0  0  0
 14  7  1  6  0  0  0
 14 25  1  0  0  0  0
 16  3  1  0  0  0  0
 17 16  1  6  0  0  0
 17 11  1  0  0  0  0
 19  6  1  0  0  0  0
 22  1  1  0  0  0  0
 23  5  1  0  0  0  0
 23 18  1  0  0  0  0
 25 26  1  0  0  0  0
 25 24  1  0  0  0  0
 26 24  1  0  0  0  0
 26 27  1  0  0  0  0
 27 28  1  0  0  0  0
 28 30  1  0  0  0  0
 29 28  2  0  0  0  0
 31 32  1  0  0  0  0
 32  6  1  0  0  0  0
M  END
>  <MODEL>
2

>  <REMARK>
 VINA RESULT:      -3.3      2.517      4.574
  Name = 
  4 active torsions:
  status: ('A' for Active; 'I' for Inactive)
    1  A    between atoms: N_7  and  C_19
    2  A    between atoms: C_10  and  C_17
    3  A    between atoms: C_20  and  C_29
    4  A    between atoms: C_29  and  C_30
                            x       y       z     vdW  Elec       q    Type
                         _______ _______ _______ _____ _____    ______ ____

>  <TORSDO>
F 4

$$$$
=
 OpenBabel11122413023D

 32 37  0  0  1  0  0  0  0  0999 V2000
  159.2070  210.4100  153.7650 C   0  0  1  0  0  3  0  0  0  0  0  0
  158.6800  213.1350  150.5050 O   0  0  0  0  0  0  0  0  0  0  0  0
  157.7970  213.8860  151.3040 C   0  0  0  0  0  2  0  0  0  0  0  0
  157.3260  210.5810  155.5160 C   0  0  1  0  0  3  0  0  0  0  0  0
  156.6400  211.6290  156.3870 C   0  0  2  0  0  3  0  0  0  0  0  0
  161.1210  208.9020  154.4590 N   0  0  0  0  0  0  0  0  0  0  0  0
  161.1110  210.2700  152.3410 C   0  0  0  0  0  2  0  0  0  0  0  0
  155.3450  213.6250  156.4160 C   0  0  1  0  0  3  0  0  0  0  0  0
  158.9900  211.9680  151.2240 C   0  0  0  0  0  2  0  0  0  0  0  0
  160.3370  211.1580  153.1990 N   0  0  1  0  0  0  0  0  0  0  0  0
  159.8710  212.3280  152.4380 C   0  0  2  0  0  3  0  0  0  0  0  0
  158.0010  212.6000  154.1330 C   0  0  2  0  0  3  0  0  0  0  0  0
  154.6200  212.5730  157.2600 C   0  0  0  0  0  2  0  0  0  0  0  0
  161.8260  209.2250  153.2030 C   0  0  2  0  0  3  0  0  0  0  0  0
  155.3470  211.2400  157.0570 C   0  0  0  0  0  2  0  0  0  0  0  0
  158.5380  214.4530  152.5200 C   0  0  0  0  0  2  0  0  0  0  0  0
  159.1200  213.3120  153.3590 C   0  0  2  0  0  3  0  0  0  0  0  0
  157.4180  213.4690  155.0860 O   0  0  0  0  0  0  0  0  0  0  0  0
  159.6610  209.0640  154.3770 C   0  0  0  0  0  2  0  0  0  0  0  0
  156.4270  210.0530  154.5810 O   0  0  0  0  0  1  0  0  0  0  0  0
  156.0920  214.4530  157.2580 O   0  0  0  0  0  1  0  0  0  0  0  0
  158.4990  211.2890  154.8010 C   0  0  2  0  0  3  0  0  0  0  0  0
  156.2610  212.8070  155.5290 C   0  0  1  0  0  3  0  0  0  0  0  0
  160.8430  207.3040  152.1770 O   0  0  0  0  0  0  0  0  0  0  0  0
  162.0670  207.9610  152.3990 C   0  0  1  0  0  3  0  0  0  0  0  0
  161.3590  208.0530  151.1040 C   0  0  1  0  0  3  0  0  0  0  0  0
  162.0040  207.1150  150.1040 C   0  0  0  0  0  2  0  0  0  0  0  0
  162.1010  207.7840  148.7770 C   0  0  0  0  0  0  0  0  0  0  0  0
  162.1850  209.1680  148.7020 O   0  0  0  0  0  1  0  0  0  0  0  0
  162.0700  207.0980  147.7220 O   0  0  0  0  0  0  0  0  0  0  0  0
  161.9400  208.7440  157.0120 S   0  0  0  0  0  1  0  0  0  0  0  0
  161.6390  209.7460  155.5280 C   0  0  0  0  0  2  0  0  0  0  0  0
  1 19  1  1  0  0  0
  1 22  1  0  0  0  0
  2  9  1  0  0  0  0
  2  3  1  0  0  0  0
  3 16  1  0  0  0  0
  4 20  1  6  0  0  0
  4  5  1  0  0  0  0
  5 15  1  6  0  0  0
  6 32  1  0  0  0  0
  8 21  1  1  0  0  0
  8 13  1  0  0  0  0
 10  7  1  6  0  0  0
 10  1  1  0  0  0  0
 11  9  1  6  0  0  0
 11 10  1  0  0  0  0
 11 17  1  0  0  0  0
 12 22  1  0  0  0  0
 12 18  1  1  0  0  0
 14  7  1  6  0  0  0
 14  6  1  0  0  0  0
 15 13  1  0  0  0  0
 17 16  1  6  0  0  0
 17 12  1  0  0  0  0
 18 23  1  0  0  0  0
 19  6  1  0  0  0  0
 22  4  1  0  0  0  0
 23  5  1  0  0  0  0
 23  8  1  0  0  0  0
 24 25  1  0  0  0  0
 25 14  1  0  0  0  0
 26 24  1  0  0  0  0
 26 25  1  0  0  0  0
 27 26  1  0  0  0  0
 28 27  1  0  0  0  0
 29 28  1  0  0  0  0
 30 28  2  0  0  0  0
 32 31  1  0  0  0  0
M  END
>  <MODEL>
3

>  <REMARK>
 VINA RESULT:      -3.1      4.491      8.644
  Name = 
  4 active torsions:
  status: ('A' for Active; 'I' for Inactive)
    1  A    between atoms: N_7  and  C_19
    2  A    between atoms: C_10  and  C_17
    3  A    between atoms: C_20  and  C_29
    4  A    between atoms: C_29  and  C_30
                            x       y       z     vdW  Elec       q    Type
                         _______ _______ _______ _____ _____    ______ ____

>  <TORSDO>
F 4

$$$$
=
 OpenBabel11122413023D

 32 37  0  0  1  0  0  0  0  0999 V2000
  160.7010  206.9030  151.2100 C   0  0  1  0  0  3  0  0  0  0  0  0
  160.5300  202.9520  152.8530 O   0  0  0  0  0  0  0  0  0  0  0  0
  160.8930  202.4370  151.5940 C   0  0  0  0  0  2  0  0  0  0  0  0
  160.5800  206.9150  148.6380 C   0  0  1  0  0  3  0  0  0  0  0  0
  161.2850  206.2900  147.4380 C   0  0  2  0  0  3  0  0  0  0  0  0
  161.1930  209.1710  152.2250 N   0  0  0  0  0  0  0  0  0  0  0  0
  161.0180  207.0440  153.5670 C   0  0  0  0  0  2  0  0  0  0  0  0
  161.8270  204.2690  146.3040 C   0  0  1  0  0  3  0  0  0  0  0  0
  160.3170  204.3320  152.6840 C   0  0  0  0  0  2  0  0  0  0  0  0
  161.5620  206.4990  152.3300 N   0  0  1  0  0  0  0  0  0  0  0  0
  161.6650  205.0340  152.4180 C   0  0  2  0  0  3  0  0  0  0  0  0
  161.5880  204.9440  149.8830 C   0  0  2  0  0  3  0  0  0  0  0  0
  161.1460  205.2100  145.3050 C   0  0  0  0  0  2  0  0  0  0  0  0
  161.1900  208.5660  153.5720 C   0  0  2  0  0  3  0  0  0  0  0  0
  160.6120  206.4090  146.0940 C   0  0  0  0  0  2  0  0  0  0  0  0
  162.2930  202.9260  151.2070 C   0  0  0  0  0  2  0  0  0  0  0  0
  162.3150  204.4570  151.1430 C   0  0  2  0  0  3  0  0  0  0  0  0
  162.2780  204.5390  148.7150 O   0  0  0  0  0  0  0  0  0  0  0  0
  160.4040  208.4200  151.2360 C   0  0  0  0  0  2  0  0  0  0  0  0
  159.2530  206.4760  148.7120 O   0  0  0  0  0  1  0  0  0  0  0  0
  163.2130  204.3720  146.1580 O   0  0  0  0  0  1  0  0  0  0  0  0
  161.3670  206.4820  149.8960 C   0  0  2  0  0  3  0  0  0  0  0  0
  161.3960  204.8040  147.6540 C   0  0  1  0  0  3  0  0  0  0  0  0
  159.9940  208.4970  155.6380 O   0  0  0  0  0  0  0  0  0  0  0  0
  160.1200  209.2100  154.4320 C   0  0  1  0  0  3  0  0  0  0  0  0
  160.7210  209.7000  155.6910 C   0  0  1  0  0  3  0  0  0  0  0  0
  159.8480  210.7880  156.2830 C   0  0  0  0  0  2  0  0  0  0  0  0
  160.6980  211.9170  156.7500 C   0  0  0  0  0  0  0  0  0  0  0  0
  160.2640  213.2260  156.5880 O   0  0  0  0  0  0  0  0  0  0  0  0
  161.8250  211.6880  157.2610 O   0  0  0  0  0  1  0  0  0  0  0  0
  162.6040  210.1580  150.1640 S   0  0  0  0  0  1  0  0  0  0  0  0
  162.5680  209.2860  151.7570 C   0  0  0  0  0  2  0  0  0  0  0  0
  1 19  1  6  0  0  0
  1 10  1  0  0  0  0
  3  2  1  0  0  0  0
  4 20  1  1  0  0  0
  4 22  1  0  0  0  0
  5 15  1  6  0  0  0
  5 23  1  0  0  0  0
  5  4  1  0  0  0  0
  6 14  1  0  0  0  0
  8 21  1  1  0  0  0
  8 23  1  0  0  0  0
  9  2  1  0  0  0  0
 10 11  1  0  0  0  0
 10  7  1  1  0  0  0
 11  9  1  6  0  0  0
 12 18  1  6  0  0  0
 12 22  1  0  0  0  0
 12 17  1  0  0  0  0
 13 15  1  0  0  0  0
 13  8  1  0  0  0  0
 14  7  1  6  0  0  0
 14 25  1  0  0  0  0
 16  3  1  0  0  0  0
 17 16  1  1  0  0  0
 17 11  1  0  0  0  0
 19  6  1  0  0  0  0
 22  1  1  0  0  0  0
 23 18  1  0  0  0  0
 24 26  1  0  0  0  0
 25 24  1  0  0  0  0
 25 26  1  0  0  0  0
 26 27  1  0  0  0  0
 27 28  1  0  0  0  0
 28 30  1  0  0  0  0
 29 28  2  0  0  0  0
 31 32  1  0  0  0  0
 32  6  1  0  0  0  0
M  END
>  <MODEL>
4

>  <REMARK>
 VINA RESULT:      -3.0      2.342      4.169
  Name = 
  4 active torsions:
  status: ('A' for Active; 'I' for Inactive)
    1  A    between atoms: N_7  and  C_19
    2  A    between atoms: C_10  and  C_17
    3  A    between atoms: C_20  and  C_29
    4  A    between atoms: C_29  and  C_30
                            x       y       z     vdW  Elec       q    Type
                         _______ _______ _______ _____ _____    ______ ____

>  <TORSDO>
F 4

$$$$
=
 OpenBabel11122413023D

 32 37  0  0  1  0  0  0  0  0999 V2000
  158.8540  212.5620  151.6290 C   0  0  1  0  0  3  0  0  0  0  0  0
  155.3620  213.4900  153.9260 O   0  0  0  0  0  0  0  0  0  0  0  0
  156.0850  213.2030  155.1000 C   0  0  0  0  0  2  0  0  0  0  0  0
  160.5670  211.1630  152.9480 C   0  0  1  0  0  3  0  0  0  0  0  0
  161.3370  211.2070  154.2640 C   0  0  2  0  0  3  0  0  0  0  0  0
  159.6940  213.3520  149.3730 N   0  0  0  0  0  0  0  0  0  0  0  0
  157.4640  214.0100  150.3480 C   0  0  0  0  0  2  0  0  0  0  0  0
  161.1800  211.2320  156.6390 C   0  0  1  0  0  3  0  0  0  0  0  0
  156.1850  213.1340  152.8420 C   0  0  0  0  0  2  0  0  0  0  0  0
  158.2340  213.8920  151.5790 N   0  0  1  0  0  0  0  0  0  0  0  0
  157.3690  214.1180  152.7480 C   0  0  2  0  0  3  0  0  0  0  0  0
  159.0180  212.7820  154.1410 C   0  0  2  0  0  3  0  0  0  0  0  0
  162.1080  210.0820  156.2340 C   0  0  0  0  0  2  0  0  0  0  0  0
  158.4200  214.0650  149.1520 C   0  0  2  0  0  3  0  0  0  0  0  0
  162.0290  209.9430  154.7100 C   0  0  0  0  0  2  0  0  0  0  0  0
  157.2520  214.1840  155.2550 C   0  0  0  0  0  2  0  0  0  0  0  0
  158.1940  214.0740  154.0510 C   0  0  2  0  0  3  0  0  0  0  0  0
  159.8860  212.8160  155.2580 O   0  0  0  0  0  0  0  0  0  0  0  0
  159.5860  212.2220  150.3090 C   0  0  0  0  0  2  0  0  0  0  0  0
  159.6750  210.0840  152.9350 O   0  0  0  0  0  1  0  0  0  0  0  0
  161.9510  212.3460  156.9770 O   0  0  0  0  0  1  0  0  0  0  0  0
  159.8030  212.5010  152.8300 C   0  0  2  0  0  3  0  0  0  0  0  0
  160.3760  211.5050  155.3840 C   0  0  1  0  0  3  0  0  0  0  0  0
  156.7560  214.4530  147.4830 O   0  0  0  0  0  0  0  0  0  0  0  0
  157.7320  213.5340  147.9090 C   0  0  1  0  0  3  0  0  0  0  0  0
  157.9720  214.4530  146.7760 C   0  0  1  0  0  3  0  0  0  0  0  0
  157.7930  213.7090  145.4690 C   0  0  0  0  0  2  0  0  0  0  0  0
  159.1170  213.2570  144.9610 C   0  0  0  0  0  0  0  0  0  0  0  0
  160.2680  213.5200  145.6930 O   0  0  0  0  0  1  0  0  0  0  0  0
  159.1990  212.6680  143.8520 O   0  0  0  0  0  0  0  0  0  0  0  0
  162.1110  214.3370  148.7420 S   0  0  0  0  0  1  0  0  0  0  0  0
  160.6880  214.2940  149.8690 C   0  0  0  0  0  2  0  0  0  0  0  0
  1 19  1  6  0  0  0
  1 22  1  0  0  0  0
  2  3  1  0  0  0  0
  3 16  1  0  0  0  0
  4 20  1  1  0  0  0
  4  5  1  0  0  0  0
  5 15  1  1  0  0  0
  5 23  1  0  0  0  0
  6 32  1  0  0  0  0
  6 19  1  0  0  0  0
  8 21  1  6  0  0  0
  9  2  1  0  0  0  0
 10  7  1  6  0  0  0
 10  1  1  0  0  0  0
 10 11  1  0  0  0  0
 11  9  1  1  0  0  0
 11 17  1  0  0  0  0
 12 18  1  1  0  0  0
 13  8  1  0  0  0  0
 14  6  1  0  0  0  0
 14  7  1  1  0  0  0
 15 13  1  0  0  0  0
 17 12  1  0  0  0  0
 17 16  1  1  0  0  0
 18 23  1  0  0  0  0
 22  4  1  0  0  0  0
 22 12  1  0  0  0  0
 23  8  1  0  0  0  0
 24 25  1  0  0  0  0
 25 14  1  0  0  0  0
 26 24  1  0  0  0  0
 26 25  1  0  0  0  0
 27 26  1  0  0  0  0
 28 27  1  0  0  0  0
 28 29  1  0  0  0  0
 30 28  2  0  0  0  0
 31 32  1  0  0  0  0
M  END
>  <MODEL>
5

>  <REMARK>
 VINA RESULT:      -2.9      6.195      9.949
  Name = 
  4 active torsions:
  status: ('A' for Active; 'I' for Inactive)
    1  A    between atoms: N_7  and  C_19
    2  A    between atoms: C_10  and  C_17
    3  A    between atoms: C_20  and  C_29
    4  A    between atoms: C_29  and  C_30
                            x       y       z     vdW  Elec       q    Type
                         _______ _______ _______ _____ _____    ______ ____

>  <TORSDO>
F 4

$$$$
=
 OpenBabel11122413023D

 32 37  0  0  1  0  0  0  0  0999 V2000
  161.0750  207.4770  150.1050 C   0  0  1  0  0  3  0  0  0  0  0  0
  160.5350  208.2800  154.2760 O   0  0  0  0  0  0  0  0  0  0  0  0
  160.6550  206.9010  154.5340 C   0  0  0  0  0  2  0  0  0  0  0  0
  160.6310  205.0140  149.5020 C   0  0  1  0  0  3  0  0  0  0  0  0
  161.0770  203.6160  149.9190 C   0  0  2  0  0  3  0  0  0  0  0  0
  162.0210  208.8470  148.1940 N   0  0  0  0  0  0  0  0  0  0  0  0
  161.7060  209.7340  150.5330 C   0  0  0  0  0  2  0  0  0  0  0  0
  161.1670  202.0210  151.6830 C   0  0  1  0  0  3  0  0  0  0  0  0
  160.5080  208.4330  152.8780 C   0  0  0  0  0  2  0  0  0  0  0  0
  162.0020  208.3410  150.8460 N   0  0  1  0  0  0  0  0  0  0  0  0
  161.8990  208.1100  152.2960 C   0  0  2  0  0  3  0  0  0  0  0  0
  161.4870  205.6540  151.8040 C   0  0  2  0  0  3  0  0  0  0  0  0
  160.5100  201.3550  150.4700 C   0  0  0  0  0  2  0  0  0  0  0  0
  162.1000  210.0240  149.0820 C   0  0  2  0  0  3  0  0  0  0  0  0
  160.2630  202.4470  149.4240 C   0  0  0  0  0  2  0  0  0  0  0  0
  162.0520  206.4090  154.1360 C   0  0  0  0  0  2  0  0  0  0  0  0
  162.2900  206.6580  152.6430 C   0  0  2  0  0  3  0  0  0  0  0  0
  161.9560  204.3350  152.0150 O   0  0  0  0  0  0  0  0  0  0  0  0
  161.0100  207.8600  148.6070 C   0  0  0  0  0  2  0  0  0  0  0  0
  159.2730  205.2030  149.7900 O   0  0  0  0  0  1  0  0  0  0  0  0
  162.5230  201.6840  151.7110 O   0  0  0  0  0  1  0  0  0  0  0  0
  161.4980  206.0170  150.2940 C   0  0  2  0  0  3  0  0  0  0  0  0
  160.9950  203.5020  151.4180 C   0  0  1  0  0  3  0  0  0  0  0  0
  161.6710  212.3740  149.0920 O   0  0  0  0  0  0  0  0  0  0  0  0
  161.2540  211.1550  148.5270 C   0  0  1  0  0  3  0  0  0  0  0  0
  162.1130  212.1010  147.7850 C   0  0  1  0  0  3  0  0  0  0  0  0
  161.2730  212.8850  146.7970 C   0  0  0  0  0  2  0  0  0  0  0  0
  162.1410  213.4300  145.7180 C   0  0  0  0  0  0  0  0  0  0  0  0
  161.6680  214.4400  144.8900 O   0  0  0  0  0  0  0  0  0  0  0  0
  163.2910  212.9540  145.5340 O   0  0  0  0  0  1  0  0  0  0  0  0
  163.1720  206.5690  147.3600 S   0  0  0  0  0  1  0  0  0  0  0  0
  163.3260  208.2020  148.1370 C   0  0  0  0  0  2  0  0  0  0  0  0
  1 19  1  6  0  0  0
  1 22  1  0  0  0  0
  1 10  1  0  0  0  0
  2  3  1  0  0  0  0
  4 20  1  1  0  0  0
  4  5  1  0  0  0  0
  4 22  1  0  0  0  0
  5 15  1  6  0  0  0
  5 23  1  0  0  0  0
  6 19  1  0  0  0  0
  6 14  1  0  0  0  0
  8 21  1  6  0  0  0
  9  2  1  0  0  0  0
 10  7  1  1  0  0  0
 10 11  1  0  0  0  0
 11 17  1  0  0  0  0
 11  9  1  6  0  0  0
 12 18  1  6  0  0  0
 12 17  1  0  0  0  0
 13  8  1  0  0  0  0
 14  7  1  1  0  0  0
 15 13  1  0  0  0  0
 16  3  1  0  0  0  0
 17 16  1  1  0  0  0
 22 12  1  0  0  0  0
 23  8  1  0  0  0  0
 23 18  1  0  0  0  0
 25 14  1  0  0  0  0
 25 24  1  0  0  0  0
 26 25  1  0  0  0  0
 26 24  1  0  0  0  0
 27 26  1  0  0  0  0
 28 27  1  0  0  0  0
 29 28  2  0  0  0  0
 30 28  1  0  0  0  0
 31 32  1  0  0  0  0
 32  6  1  0  0  0  0
M  END
>  <MODEL>
6

>  <REMARK>
 VINA RESULT:      -2.4      3.364      6.122
  Name = 
  4 active torsions:
  status: ('A' for Active; 'I' for Inactive)
    1  A    between atoms: N_7  and  C_19
    2  A    between atoms: C_10  and  C_17
    3  A    between atoms: C_20  and  C_29
    4  A    between atoms: C_29  and  C_30
                            x       y       z     vdW  Elec       q    Type
                         _______ _______ _______ _____ _____    ______ ____

>  <TORSDO>
F 4

$$$$
=
 OpenBabel11122413023D

 32 37  0  0  1  0  0  0  0  0999 V2000
  159.2900  212.4840  150.5860 C   0  0  1  0  0  3  0  0  0  0  0  0
  155.4260  213.7510  151.9290 O   0  0  0  0  0  0  0  0  0  0  0  0
  155.8260  213.4910  153.2540 C   0  0  0  0  0  2  0  0  0  0  0  0
  160.5350  211.0670  152.3380 C   0  0  1  0  0  3  0  0  0  0  0  0
  160.9700  211.1430  153.7990 C   0  0  2  0  0  3  0  0  0  0  0  0
  160.6970  213.0900  148.5680 N   0  0  0  0  0  0  0  0  0  0  0  0
  158.3510  213.9340  148.9460 C   0  0  0  0  0  2  0  0  0  0  0  0
  160.2530  211.3170  156.0610 C   0  0  1  0  0  3  0  0  0  0  0  0
  156.4560  213.2840  151.0920 C   0  0  0  0  0  2  0  0  0  0  0  0
  158.7960  213.8440  150.3310 N   0  0  1  0  0  0  0  0  0  0  0  0
  157.6960  214.1890  151.2450 C   0  0  2  0  0  3  0  0  0  0  0  0
  158.8650  212.8420  153.0510 C   0  0  2  0  0  3  0  0  0  0  0  0
  161.1670  210.0930  155.9420 C   0  0  0  0  0  2  0  0  0  0  0  0
  159.5670  213.8620  148.0150 C   0  0  2  0  0  3  0  0  0  0  0  0
  161.4430  209.8690  154.4520 C   0  0  0  0  0  2  0  0  0  0  0  0
  156.9900  214.4090  153.6440 C   0  0  0  0  0  2  0  0  0  0  0  0
  158.1810  214.1730  152.7090 C   0  0  2  0  0  3  0  0  0  0  0  0
  159.4420  212.8900  154.3420 O   0  0  0  0  0  0  0  0  0  0  0  0
  160.2890  212.0250  149.4980 C   0  0  0  0  0  2  0  0  0  0  0  0
  159.5970  210.0440  152.1570 O   0  0  0  0  0  1  0  0  0  0  0  0
  161.0000  212.4020  156.5280 O   0  0  0  0  0  1  0  0  0  0  0  0
  159.9180  212.4380  151.9820 C   0  0  2  0  0  3  0  0  0  0  0  0
  159.7930  211.5630  154.6390 C   0  0  1  0  0  3  0  0  0  0  0  0
  158.7230  214.3470  145.8340 O   0  0  0  0  0  0  0  0  0  0  0  0
  159.1590  213.3010  146.6670 C   0  0  1  0  0  3  0  0  0  0  0  0
  160.0250  213.8640  145.6100 C   0  0  1  0  0  3  0  0  0  0  0  0
  160.0200  212.9470  144.4030 C   0  0  0  0  0  2  0  0  0  0  0  0
  161.4110  212.7550  143.9110 C   0  0  0  0  0  0  0  0  0  0  0  0
  162.4870  213.1110  144.7140 O   0  0  0  0  0  1  0  0  0  0  0  0
  161.6130  212.3030  142.7540 O   0  0  0  0  0  0  0  0  0  0  0  0
  162.9700  214.4520  148.1360 S   0  0  0  0  0  1  0  0  0  0  0  0
  161.6090  213.9990  149.2490 C   0  0  0  0  0  2  0  0  0  0  0  0
  1 19  1  6  0  0  0
  1 22  1  0  0  0  0
  2  3  1  0  0  0  0
  3 16  1  0  0  0  0
  4 20  1  1  0  0  0
  4  5  1  0  0  0  0
  5 15  1  1  0  0  0
  5 23  1  0  0  0  0
  6 32  1  0  0  0  0
  6 19  1  0  0  0  0
  8 21  1  6  0  0  0
  9  2  1  0  0  0  0
 10  7  1  6  0  0  0
 10  1  1  0  0  0  0
 10 11  1  0  0  0  0
 11  9  1  1  0  0  0
 11 17  1  0  0  0  0
 12 18  1  1  0  0  0
 13  8  1  0  0  0  0
 14  6  1  0  0  0  0
 14  7  1  1  0  0  0
 15 13  1  0  0  0  0
 17 12  1  0  0  0  0
 17 16  1  1  0  0  0
 18 23  1  0  0  0  0
 22  4  1  0  0  0  0
 22 12  1  0  0  0  0
 23  8  1  0  0  0  0
 24 25  1  0  0  0  0
 25 14  1  0  0  0  0
 26 24  1  0  0  0  0
 26 25  1  0  0  0  0
 27 26  1  0  0  0  0
 28 27  1  0  0  0  0
 28 29  1  0  0  0  0
 30 28  2  0  0  0  0
 31 32  1  0  0  0  0
M  END
>  <MODEL>
7

>  <REMARK>
 VINA RESULT:      -2.3      6.068      9.893
  Name = 
  4 active torsions:
  status: ('A' for Active; 'I' for Inactive)
    1  A    between atoms: N_7  and  C_19
    2  A    between atoms: C_10  and  C_17
    3  A    between atoms: C_20  and  C_29
    4  A    between atoms: C_29  and  C_30
                            x       y       z     vdW  Elec       q    Type
                         _______ _______ _______ _____ _____    ______ ____

>  <TORSDO>
F 4

$$$$
=
 OpenBabel11122413023D

 32 37  0  0  1  0  0  0  0  0999 V2000
  161.6810  208.9000  150.8580 C   0  0  1  0  0  3  0  0  0  0  0  0
  160.7910  210.4810  154.7370 O   0  0  0  0  0  0  0  0  0  0  0  0
  160.6640  211.7600  154.1620 C   0  0  0  0  0  2  0  0  0  0  0  0
  162.4220  210.7170  149.1910 C   0  0  1  0  0  3  0  0  0  0  0  0
  161.9350  212.0510  148.6330 C   0  0  2  0  0  3  0  0  0  0  0  0
  161.3410  206.6200  149.8070 N   0  0  0  0  0  0  0  0  0  0  0  0
  160.8310  207.1400  152.2200 C   0  0  0  0  0  2  0  0  0  0  0  0
  161.3570  214.3040  149.1360 C   0  0  1  0  0  3  0  0  0  0  0  0
  161.2650  209.6240  153.7270 C   0  0  0  0  0  2  0  0  0  0  0  0
  160.5200  208.4360  151.6290 N   0  0  1  0  0  0  0  0  0  0  0  0
  160.1570  209.4030  152.6760 C   0  0  2  0  0  3  0  0  0  0  0  0
  160.8310  211.2680  151.0910 C   0  0  2  0  0  3  0  0  0  0  0  0
  162.4070  214.3180  148.0210 C   0  0  0  0  0  2  0  0  0  0  0  0
  160.9180  206.0830  151.1150 C   0  0  2  0  0  3  0  0  0  0  0  0
  162.9240  212.8860  147.8590 C   0  0  0  0  0  2  0  0  0  0  0  0
  159.5000  211.7760  153.1640 C   0  0  0  0  0  2  0  0  0  0  0  0
  159.7490  210.7530  152.0510 C   0  0  2  0  0  3  0  0  0  0  0  0
  160.3870  212.4240  150.4070 O   0  0  0  0  0  0  0  0  0  0  0  0
  162.2110  207.8030  149.9050 C   0  0  0  0  0  2  0  0  0  0  0  0
  163.6000  210.8930  149.9280 O   0  0  0  0  0  1  0  0  0  0  0  0
  160.0850  214.4190  148.5700 O   0  0  0  0  0  1  0  0  0  0  0  0
  161.2940  210.1700  150.0940 C   0  0  2  0  0  3  0  0  0  0  0  0
  161.5300  212.9430  149.7770 C   0  0  1  0  0  3  0  0  0  0  0  0
  161.4830  204.5190  152.8300 O   0  0  0  0  0  0  0  0  0  0  0  0
  161.8390  204.9560  151.5410 C   0  0  1  0  0  3  0  0  0  0  0  0
  161.0520  203.7230  151.7540 C   0  0  1  0  0  3  0  0  0  0  0  0
  161.9570  202.5140  151.6310 C   0  0  0  0  0  2  0  0  0  0  0  0
  161.5640  201.7090  150.4420 C   0  0  0  0  0  0  0  0  0  0  0  0
  161.5580  202.2910  149.1810 O   0  0  0  0  0  0  0  0  0  0  0  0
  161.2030  200.5120  150.5830 O   0  0  0  0  0  1  0  0  0  0  0  0
  160.4560  206.5770  147.2720 S   0  0  0  0  0  1  0  0  0  0  0  0
  160.1600  206.9560  149.0230 C   0  0  0  0  0  2  0  0  0  0  0  0
  1 19  1  6  0  0  0
  1 10  1  0  0  0  0
  3  2  1  0  0  0  0
  4 20  1  1  0  0  0
  4 22  1  0  0  0  0
  5 15  1  1  0  0  0
  5  4  1  0  0  0  0
  5 23  1  0  0  0  0
  6 19  1  0  0  0  0
  6 14  1  0  0  0  0
  8 21  1  6  0  0  0
  8 23  1  0  0  0  0
  9  2  1  0  0  0  0
 10  7  1  1  0  0  0
 10 11  1  0  0  0  0
 11  9  1  1  0  0  0
 12 18  1  6  0  0  0
 12 17  1  0  0  0  0
 13  8  1  0  0  0  0
 14 25  1  0  0  0  0
 14  7  1  1  0  0  0
 15 13  1  0  0  0  0
 16  3  1  0  0  0  0
 17 11  1  0  0  0  0
 17 16  1  1  0  0  0
 22  1  1  0  0  0  0
 22 12  1  0  0  0  0
 23 18  1  0  0  0  0
 25 26  1  0  0  0  0
 25 24  1  0  0  0  0
 26 24  1  0  0  0  0
 27 26  1  0  0  0  0
 28 30  1  0  0  0  0
 28 27  1  0  0  0  0
 29 28  2  0  0  0  0
 31 32  1  0  0  0  0
 32  6  1  0  0  0  0
M  END
>  <MODEL>
8

>  <REMARK>
 VINA RESULT:      -1.7      3.552      8.282
  Name = 
  4 active torsions:
  status: ('A' for Active; 'I' for Inactive)
    1  A    between atoms: N_7  and  C_19
    2  A    between atoms: C_10  and  C_17
    3  A    between atoms: C_20  and  C_29
    4  A    between atoms: C_29  and  C_30
                            x       y       z     vdW  Elec       q    Type
                         _______ _______ _______ _____ _____    ______ ____

>  <TORSDO>
F 4

$$$$
=
 OpenBabel11122413023D

 32 37  0  0  1  0  0  0  0  0999 V2000
  161.2490  212.5880  147.9040 C   0  0  1  0  0  3  0  0  0  0  0  0
  157.3380  214.3210  147.7110 O   0  0  0  0  0  0  0  0  0  0  0  0
  157.4890  214.4530  146.3180 C   0  0  0  0  0  2  0  0  0  0  0  0
  162.6680  213.1060  145.8190 C   0  0  1  0  0  3  0  0  0  0  0  0
  162.5920  212.9830  144.3000 C   0  0  2  0  0  3  0  0  0  0  0  0
  162.3240  210.9310  149.4910 N   0  0  0  0  0  0  0  0  0  0  0  0
  160.0010  211.8630  149.7990 C   0  0  0  0  0  2  0  0  0  0  0  0
  161.4410  213.6440  142.3250 C   0  0  1  0  0  3  0  0  0  0  0  0
  158.5760  213.8870  148.2170 C   0  0  0  0  0  2  0  0  0  0  0  0
  160.0590  211.8480  148.3420 N   0  0  1  0  0  0  0  0  0  0  0  0
  158.8330  212.4310  147.7760 C   0  0  2  0  0  3  0  0  0  0  0  0
  160.1390  212.9530  145.6630 C   0  0  2  0  0  3  0  0  0  0  0  0
  162.9290  213.9580  142.1390 C   0  0  0  0  0  2  0  0  0  0  0  0
  161.1340  210.9980  150.3620 C   0  0  2  0  0  3  0  0  0  0  0  0
  163.6190  213.7300  143.4870 C   0  0  0  0  0  2  0  0  0  0  0  0
  157.6270  213.0710  145.6690 C   0  0  0  0  0  2  0  0  0  0  0  0
  158.8510  212.3450  146.2350 C   0  0  2  0  0  3  0  0  0  0  0  0
  160.2210  212.7340  144.2670 O   0  0  0  0  0  0  0  0  0  0  0  0
  162.5180  212.1290  148.6600 C   0  0  0  0  0  2  0  0  0  0  0  0
  162.7130  214.4520  146.2010 O   0  0  0  0  0  1  0  0  0  0  0  0
  161.1520  212.4170  141.7230 O   0  0  0  0  0  1  0  0  0  0  0  0
  161.4060  212.4220  146.3890 C   0  0  2  0  0  3  0  0  0  0  0  0
  161.2790  213.5480  143.8280 C   0  0  1  0  0  3  0  0  0  0  0  0
  160.3640  211.7350  152.5000 O   0  0  0  0  0  0  0  0  0  0  0  0
  161.5240  211.4850  151.7450 C   0  0  1  0  0  3  0  0  0  0  0  0
  161.0400  210.5300  152.7640 C   0  0  1  0  0  3  0  0  0  0  0  0
  161.8570  210.6800  154.0310 C   0  0  0  0  0  2  0  0  0  0  0  0
  161.0770  210.1790  155.1950 C   0  0  0  0  0  0  0  0  0  0  0  0
  161.6020  210.2780  156.4780 O   0  0  0  0  0  1  0  0  0  0  0  0
  159.9580  209.6320  155.0160 O   0  0  0  0  0  0  0  0  0  0  0  0
  161.9250  208.2790  149.6380 S   0  0  0  0  0  1  0  0  0  0  0  0
  162.2200  209.7610  148.6300 C   0  0  0  0  0  2  0  0  0  0  0  0
  1 10  1  0  0  0  0
  1 19  1  1  0  0  0
  2  9  1  0  0  0  0
  3  2  1  0  0  0  0
  4 20  1  6  0  0  0
  4 22  1  0  0  0  0
  5 15  1  6  0  0  0
  5  4  1  0  0  0  0
  6 14  1  0  0  0  0
  8 21  1  6  0  0  0
  8 23  1  0  0  0  0
 10  7  1  1  0  0  0
 11  9  1  6  0  0  0
 11 10  1  0  0  0  0
 12 18  1  6  0  0  0
 12 17  1  0  0  0  0
 12 22  1  0  0  0  0
 13  8  1  0  0  0  0
 13 15  1  0  0  0  0
 14  7  1  6  0  0  0
 14 25  1  0  0  0  0
 16  3  1  0  0  0  0
 17 16  1  6  0  0  0
 17 11  1  0  0  0  0
 19  6  1  0  0  0  0
 22  1  1  0  0  0  0
 23 18  1  0  0  0  0
 23  5  1  0  0  0  0
 24 26  1  0  0  0  0
 25 24  1  0  0  0  0
 25 26  1  0  0  0  0
 26 27  1  0  0  0  0
 27 28  1  0  0  0  0
 28 29  1  0  0  0  0
 30 28  2  0  0  0  0
 32  6  1  0  0  0  0
 32 31  1  0  0  0  0
M  END
>  <MODEL>
9

>  <REMARK>
 VINA RESULT:      -1.5      5.856      8.628
  Name = 
  4 active torsions:
  status: ('A' for Active; 'I' for Inactive)
    1  A    between atoms: N_7  and  C_19
    2  A    between atoms: C_10  and  C_17
    3  A    between atoms: C_20  and  C_29
    4  A    between atoms: C_29  and  C_30
                            x       y       z     vdW  Elec       q    Type
                         _______ _______ _______ _____ _____    ______ ____

>  <TORSDO>
F 4

$$$$
