=
 OpenBabel11122413193D

 31 35  0  0  0  0  0  0  0  0999 V2000
  161.2080  208.0230  154.1890 C   0  0  0  0  0  0  0  0  0  0  0  0
  161.4160  207.4940  150.4630 C   0  0  0  0  0  0  0  0  0  0  0  0
  161.2830  206.0870  150.2380 C   0  0  0  0  0  0  0  0  0  0  0  0
  160.9840  203.7910  151.0240 C   0  0  0  0  0  0  0  0  0  0  0  0
  161.3900  208.1150  151.7520 C   0  0  0  0  0  0  0  0  0  0  0  0
  161.3480  209.4070  154.2660 C   0  0  0  0  0  3  0  0  0  0  0  0
  161.1100  205.1580  151.2800 C   0  0  0  0  0  3  0  0  0  0  0  0
  161.7240  209.7200  149.4480 C   0  0  0  0  0  0  0  0  0  0  0  0
  161.0460  207.2760  155.3480 O   0  0  0  0  0  1  0  0  0  0  0  0
  161.4920  206.4580  147.8480 C   0  0  0  0  0  3  0  0  0  0  0  0
  160.8030  202.8380  152.1500 C   0  0  0  0  0  1  0  0  0  0  0  0
  161.6960  210.2990  150.7150 C   0  0  0  0  0  3  0  0  0  0  0  0
  161.5850  208.3290  149.3180 C   0  0  0  0  0  0  0  0  0  0  0  0
  161.2280  207.3870  152.9460 C   0  0  0  0  0  3  0  0  0  0  0  0
  161.0280  203.3200  149.7120 C   0  0  0  0  0  3  0  0  0  0  0  0
  161.5320  209.5220  151.8540 C   0  0  0  0  0  0  0  0  0  0  0  0
  161.5100  210.1550  153.1000 C   0  0  0  0  0  3  0  0  0  0  0  0
  161.6170  207.7860  148.0700 N   0  0  0  0  0  0  0  0  0  0  0  0
  161.3240  205.5860  148.9120 C   0  0  0  0  0  0  0  0  0  0  0  0
  161.1980  204.2180  148.6580 C   0  0  0  0  0  3  0  0  0  0  0  0
  160.9870  212.5400  149.0390 O   0  0  0  0  0  0  0  0  0  0  0  0
  161.5240  211.9010  148.0940 C   0  0  0  0  0  0  0  0  0  0  0  0
  161.8930  210.5240  148.2690 N   0  0  0  0  0  2  0  0  0  0  0  0
  162.3660  213.8290  144.3490 C   0  0  0  0  0  0  0  0  0  0  0  0
  163.0880  212.9760  146.4930 C   0  0  0  0  0  3  0  0  0  0  0  0
  159.4450  212.4100  146.0830 O   0  0  0  0  0  1  0  0  0  0  0  0
  162.6560  214.4530  143.1440 O   0  0  0  0  0  1  0  0  0  0  0  0
  163.3800  213.6050  145.2810 C   0  0  0  0  0  3  0  0  0  0  0  0
  160.7590  212.7960  145.8440 C   0  0  0  0  0  0  0  0  0  0  0  0
  161.7800  212.5630  146.7940 C   0  0  0  0  0  0  0  0  0  0  0  0
  161.0600  213.4260  144.6310 C   0  0  0  0  0  3  0  0  0  0  0  0
  1  6  1  0  0  0  0
  1  9  1  0  0  0  0
  2  5  1  0  0  0  0
  3  2  1  0  0  0  0
  3  7  2  0  0  0  0
  4  7  1  0  0  0  0
  4 11  1  0  0  0  0
  5 16  2  0  0  0  0
  5 14  1  0  0  0  0
  8 12  2  0  0  0  0
 10 18  2  0  0  0  0
 10 19  1  0  0  0  0
 12 16  1  0  0  0  0
 13  8  1  0  0  0  0
 13  2  2  0  0  0  0
 14  1  2  0  0  0  0
 15  4  2  0  0  0  0
 16 17  1  0  0  0  0
 17  6  2  0  0  0  0
 18 13  1  0  0  0  0
 19  3  1  0  0  0  0
 20 19  2  0  0  0  0
 20 15  1  0  0  0  0
 22 23  1  0  0  0  0
 22 21  2  0  0  0  0
 23  8  1  0  0  0  0
 24 31  2  0  0  0  0
 24 28  1  0  0  0  0
 25 30  1  0  0  0  0
 27 24  1  0  0  0  0
 28 25  2  0  0  0  0
 29 26  1  0  0  0  0
 29 30  2  0  0  0  0
 30 22  1  0  0  0  0
 31 29  1  0  0  0  0
M  END
>  <MODEL>
1

>  <REMARK>
 VINA RESULT:      -9.9      0.000      0.000
  Name = 
  2 active torsions:
  status: ('A' for Active; 'I' for Inactive)
    1  A    between atoms: C_5  and  C_30
    2  A    between atoms: C_10  and  N_16
                            x       y       z     vdW  Elec       q    Type
                         _______ _______ _______ _____ _____    ______ ____

>  <TORSDO>
F 2

$$$$
=
 OpenBabel11122413193D

 31 35  0  0  0  0  0  0  0  0999 V2000
  161.3400  205.3440  145.6890 C   0  0  0  0  0  0  0  0  0  0  0  0
  161.0650  204.5920  149.3720 C   0  0  0  0  0  0  0  0  0  0  0  0
  161.0950  203.1680  149.5060 C   0  0  0  0  0  0  0  0  0  0  0  0
  161.2350  200.9110  148.5730 C   0  0  0  0  0  0  0  0  0  0  0  0
  161.1460  205.2920  148.1260 C   0  0  0  0  0  0  0  0  0  0  0  0
  161.3000  206.7370  145.7010 C   0  0  0  0  0  3  0  0  0  0  0  0
  161.2090  202.2980  148.4060 C   0  0  0  0  0  3  0  0  0  0  0  0
  160.9100  206.7650  150.5280 C   0  0  0  0  0  0  0  0  0  0  0  0
  161.4580  204.6630  144.4850 O   0  0  0  0  0  1  0  0  0  0  0  0
  160.8940  203.3980  151.9140 C   0  0  0  0  0  3  0  0  0  0  0  0
  161.3560  200.0230  147.3880 C   0  0  0  0  0  1  0  0  0  0  0  0
  160.9890  207.4200  149.3010 C   0  0  0  0  0  3  0  0  0  0  0  0
  160.9470  205.3610  150.5690 C   0  0  0  0  0  0  0  0  0  0  0  0
  161.2650  204.6330  146.8880 C   0  0  0  0  0  3  0  0  0  0  0  0
  161.1470  200.3610  149.8520 C   0  0  0  0  0  3  0  0  0  0  0  0
  161.1060  206.7090  148.1150 C   0  0  0  0  0  0  0  0  0  0  0  0
  161.1830  207.4180  146.9130 C   0  0  0  0  0  3  0  0  0  0  0  0
  160.8670  204.7430  151.7790 N   0  0  0  0  0  0  0  0  0  0  0  0
  161.0080  202.5870  150.7960 C   0  0  0  0  0  0  0  0  0  0  0  0
  161.0340  201.1990  150.9610 C   0  0  0  0  0  3  0  0  0  0  0  0
  162.3850  209.1690  151.3690 O   0  0  0  0  0  0  0  0  0  0  0  0
  161.5230  208.6740  152.1440 C   0  0  0  0  0  0  0  0  0  0  0  0
  160.7900  207.5010  151.7570 N   0  0  0  0  0  2  0  0  0  0  0  0
  160.7560  210.5690  155.9220 C   0  0  0  0  0  0  0  0  0  0  0  0
  161.1930  210.6950  153.5480 C   0  0  0  0  0  3  0  0  0  0  0  0
  161.1170  207.1450  154.6180 O   0  0  0  0  0  1  0  0  0  0  0  0
  160.5100  211.1970  157.1340 O   0  0  0  0  0  1  0  0  0  0  0  0
  160.9450  211.3290  154.7670 C   0  0  0  0  0  3  0  0  0  0  0  0
  161.0650  208.5340  154.6380 C   0  0  0  0  0  0  0  0  0  0  0  0
  161.2570  209.2950  153.4620 C   0  0  0  0  0  0  0  0  0  0  0  0
  160.8170  209.1760  155.8560 C   0  0  0  0  0  3  0  0  0  0  0  0
  1  6  2  0  0  0  0
  1 14  1  0  0  0  0
  2  3  2  0  0  0  0
  2 13  1  0  0  0  0
  3 19  1  0  0  0  0
  4 15  1  0  0  0  0
  5  2  1  0  0  0  0
  6 17  1  0  0  0  0
  7  4  2  0  0  0  0
  7  3  1  0  0  0  0
  8 13  1  0  0  0  0
  8 23  1  0  0  0  0
  9  1  1  0  0  0  0
 11  4  1  0  0  0  0
 12  8  2  0  0  0  0
 13 18  2  0  0  0  0
 14  5  2  0  0  0  0
 15 20  2  0  0  0  0
 16  5  1  0  0  0  0
 16 12  1  0  0  0  0
 17 16  2  0  0  0  0
 18 10  1  0  0  0  0
 19 20  1  0  0  0  0
 19 10  2  0  0  0  0
 21 22  2  0  0  0  0
 22 30  1  0  0  0  0
 23 22  1  0  0  0  0
 24 27  1  0  0  0  0
 25 28  1  0  0  0  0
 26 29  1  0  0  0  0
 28 24  2  0  0  0  0
 29 31  2  0  0  0  0
 30 25  2  0  0  0  0
 30 29  1  0  0  0  0
 31 24  1  0  0  0  0
M  END
>  <MODEL>
2

>  <REMARK>
 VINA RESULT:      -9.5      3.897      7.187
  Name = 
  2 active torsions:
  status: ('A' for Active; 'I' for Inactive)
    1  A    between atoms: C_5  and  C_30
    2  A    between atoms: C_10  and  N_16
                            x       y       z     vdW  Elec       q    Type
                         _______ _______ _______ _____ _____    ______ ____

>  <TORSDO>
F 2

$$$$
=
 OpenBabel11122413193D

 31 35  0  0  0  0  0  0  0  0999 V2000
  161.0630  201.6340  150.2380 C   0  0  0  0  0  0  0  0  0  0  0  0
  161.2120  205.3600  149.6870 C   0  0  0  0  0  0  0  0  0  0  0  0
  161.2910  205.5650  148.2730 C   0  0  0  0  0  0  0  0  0  0  0  0
  161.3810  204.7440  145.9710 C   0  0  0  0  0  0  0  0  0  0  0  0
  161.1380  204.0770  150.3170 C   0  0  0  0  0  0  0  0  0  0  0  0
  160.9900  201.5760  151.6280 C   0  0  0  0  0  3  0  0  0  0  0  0
  161.3030  204.5080  147.3450 C   0  0  0  0  0  3  0  0  0  0  0  0
  161.1340  206.4090  151.9170 C   0  0  0  0  0  0  0  0  0  0  0  0
  161.0620  200.4620  149.4930 O   0  0  0  0  0  1  0  0  0  0  0  0
  161.3510  207.9650  148.6330 C   0  0  0  0  0  3  0  0  0  0  0  0
  161.3920  203.6020  145.0200 C   0  0  0  0  0  1  0  0  0  0  0  0
  161.0630  205.1470  152.5050 C   0  0  0  0  0  3  0  0  0  0  0  0
  161.2080  206.5190  150.5190 C   0  0  0  0  0  0  0  0  0  0  0  0
  161.1360  202.8700  149.5930 C   0  0  0  0  0  3  0  0  0  0  0  0
  161.4480  206.0520  145.4910 C   0  0  0  0  0  3  0  0  0  0  0  0
  161.0640  203.9950  151.7310 C   0  0  0  0  0  0  0  0  0  0  0  0
  160.9910  202.7560  152.3730 C   0  0  0  0  0  3  0  0  0  0  0  0
  161.2770  207.7620  149.9680 N   0  0  0  0  0  0  0  0  0  0  0  0
  161.3600  206.8860  147.7630 C   0  0  0  0  0  0  0  0  0  0  0  0
  161.4380  207.1210  146.3870 C   0  0  0  0  0  3  0  0  0  0  0  0
  160.3120  206.7210  154.7260 O   0  0  0  0  0  0  0  0  0  0  0  0
  160.7250  207.7280  154.0900 C   0  0  0  0  0  0  0  0  0  0  0  0
  161.1320  207.6020  152.7180 N   0  0  0  0  0  2  0  0  0  0  0  0
  160.8770  211.6100  155.9240 C   0  0  0  0  0  0  0  0  0  0  0  0
  160.1890  210.1530  154.1210 C   0  0  0  0  0  3  0  0  0  0  0  0
  162.0700  208.2050  156.6570 O   0  0  0  0  0  1  0  0  0  0  0  0
  160.9160  212.8710  156.5020 O   0  0  0  0  0  1  0  0  0  0  0  0
  160.2290  211.4220  154.7020 C   0  0  0  0  0  3  0  0  0  0  0  0
  161.4510  209.2540  155.9870 C   0  0  0  0  0  0  0  0  0  0  0  0
  160.7960  209.0530  154.7500 C   0  0  0  0  0  0  0  0  0  0  0  0
  161.4860  210.5290  156.5620 C   0  0  0  0  0  3  0  0  0  0  0  0
  1  6  1  0  0  0  0
  2  5  2  0  0  0  0
  2 13  1  0  0  0  0
  3  2  1  0  0  0  0
  4  7  1  0  0  0  0
  5 16  1  0  0  0  0
  6 17  2  0  0  0  0
  7  3  2  0  0  0  0
  8 12  1  0  0  0  0
  8 23  1  0  0  0  0
  9  1  1  0  0  0  0
 10 18  2  0  0  0  0
 11  4  1  0  0  0  0
 13  8  2  0  0  0  0
 14  1  2  0  0  0  0
 14  5  1  0  0  0  0
 15  4  2  0  0  0  0
 15 20  1  0  0  0  0
 16 17  1  0  0  0  0
 16 12  2  0  0  0  0
 18 13  1  0  0  0  0
 19  3  1  0  0  0  0
 19 10  1  0  0  0  0
 20 19  2  0  0  0  0
 22 21  2  0  0  0  0
 22 30  1  0  0  0  0
 23 22  1  0  0  0  0
 24 27  1  0  0  0  0
 24 31  1  0  0  0  0
 25 28  1  0  0  0  0
 25 30  2  0  0  0  0
 28 24  2  0  0  0  0
 29 31  2  0  0  0  0
 29 26  1  0  0  0  0
 30 29  1  0  0  0  0
M  END
>  <MODEL>
3

>  <REMARK>
 VINA RESULT:      -9.3      4.559      7.360
  Name = 
  2 active torsions:
  status: ('A' for Active; 'I' for Inactive)
    1  A    between atoms: C_5  and  C_30
    2  A    between atoms: C_10  and  N_16
                            x       y       z     vdW  Elec       q    Type
                         _______ _______ _______ _____ _____    ______ ____

>  <TORSDO>
F 2

$$$$
=
 OpenBabel11122413193D

 31 35  0  0  0  0  0  0  0  0999 V2000
  161.3520  205.4950  145.8290 C   0  0  0  0  0  0  0  0  0  0  0  0
  161.0660  204.8390  149.5300 C   0  0  0  0  0  0  0  0  0  0  0  0
  161.0830  203.4180  149.7000 C   0  0  0  0  0  0  0  0  0  0  0  0
  161.2020  201.1380  148.8250 C   0  0  0  0  0  0  0  0  0  0  0  0
  161.1550  205.5060  148.2670 C   0  0  0  0  0  0  0  0  0  0  0  0
  161.3240  206.8880  145.8070 C   0  0  0  0  0  3  0  0  0  0  0  0
  161.1900  202.5190  148.6230 C   0  0  0  0  0  3  0  0  0  0  0  0
  160.9300  207.0410  150.6310 C   0  0  0  0  0  0  0  0  0  0  0  0
  161.4640  204.7830  144.6430 O   0  0  0  0  0  1  0  0  0  0  0  0
  160.8820  203.7110  152.1020 C   0  0  0  0  0  3  0  0  0  0  0  0
  161.3160  200.2180  147.6630 C   0  0  0  0  0  1  0  0  0  0  0  0
  161.0170  207.6650  149.3880 C   0  0  0  0  0  3  0  0  0  0  0  0
  160.9540  205.6390  150.7070 C   0  0  0  0  0  0  0  0  0  0  0  0
  161.2680  204.8150  147.0460 C   0  0  0  0  0  3  0  0  0  0  0  0
  161.1090  200.6210  150.1170 C   0  0  0  0  0  3  0  0  0  0  0  0
  161.1270  206.9230  148.2200 C   0  0  0  0  0  0  0  0  0  0  0  0
  161.2120  207.6000  147.0010 C   0  0  0  0  0  3  0  0  0  0  0  0
  160.8670  205.0530  151.9320 N   0  0  0  0  0  0  0  0  0  0  0  0
  160.9880  202.8710  151.0040 C   0  0  0  0  0  0  0  0  0  0  0  0
  161.0020  201.4870  151.2050 C   0  0  0  0  0  3  0  0  0  0  0  0
  162.3950  209.4770  151.3930 O   0  0  0  0  0  0  0  0  0  0  0  0
  161.5440  208.9970  152.1890 C   0  0  0  0  0  0  0  0  0  0  0  0
  160.8150  207.8090  151.8400 N   0  0  0  0  0  2  0  0  0  0  0  0
  160.8260  210.8110  156.0160 C   0  0  0  0  0  0  0  0  0  0  0  0
  161.5810  208.9500  154.6710 C   0  0  0  0  0  3  0  0  0  0  0  0
  160.4340  211.7020  152.4660 O   0  0  0  0  0  1  0  0  0  0  0  0
  160.6010  211.3820  157.2600 O   0  0  0  0  0  1  0  0  0  0  0  0
  161.3540  209.5230  155.9240 C   0  0  0  0  0  3  0  0  0  0  0  0
  160.7480  210.9570  153.5960 C   0  0  0  0  0  0  0  0  0  0  0  0
  161.2840  209.6520  153.4920 C   0  0  0  0  0  0  0  0  0  0  0  0
  160.5240  211.5240  154.8550 C   0  0  0  0  0  3  0  0  0  0  0  0
  1 14  1  0  0  0  0
  2  3  2  0  0  0  0
  2 13  1  0  0  0  0
  3 19  1  0  0  0  0
  4 15  1  0  0  0  0
  5  2  1  0  0  0  0
  6  1  2  0  0  0  0
  6 17  1  0  0  0  0
  7  4  2  0  0  0  0
  7  3  1  0  0  0  0
  8 13  1  0  0  0  0
  8 23  1  0  0  0  0
  9  1  1  0  0  0  0
 11  4  1  0  0  0  0
 12  8  2  0  0  0  0
 13 18  2  0  0  0  0
 14  5  2  0  0  0  0
 15 20  2  0  0  0  0
 16  5  1  0  0  0  0
 16 12  1  0  0  0  0
 17 16  2  0  0  0  0
 18 10  1  0  0  0  0
 19 20  1  0  0  0  0
 19 10  2  0  0  0  0
 21 22  2  0  0  0  0
 22 30  1  0  0  0  0
 23 22  1  0  0  0  0
 24 27  1  0  0  0  0
 25 28  2  0  0  0  0
 26 29  1  0  0  0  0
 28 24  1  0  0  0  0
 29 31  1  0  0  0  0
 30 29  2  0  0  0  0
 30 25  1  0  0  0  0
 31 24  2  0  0  0  0
M  END
>  <MODEL>
4

>  <REMARK>
 VINA RESULT:      -9.1      3.863      6.932
  Name = 
  2 active torsions:
  status: ('A' for Active; 'I' for Inactive)
    1  A    between atoms: C_5  and  C_30
    2  A    between atoms: C_10  and  N_16
                            x       y       z     vdW  Elec       q    Type
                         _______ _______ _______ _____ _____    ______ ____

>  <TORSDO>
F 2

$$$$
=
 OpenBabel11122413193D

 31 35  0  0  0  0  0  0  0  0999 V2000
  161.8190  211.0430  150.0110 C   0  0  0  0  0  0  0  0  0  0  0  0
  161.3590  207.5490  151.3470 C   0  0  0  0  0  0  0  0  0  0  0  0
  161.1920  207.6670  152.7630 C   0  0  0  0  0  0  0  0  0  0  0  0
  161.0460  208.9810  154.8210 C   0  0  0  0  0  0  0  0  0  0  0  0
  161.5620  208.6530  150.4590 C   0  0  0  0  0  0  0  0  0  0  0  0
  161.9670  210.7870  148.6500 C   0  0  0  0  0  3  0  0  0  0  0  0
  161.2110  208.9020  153.4360 C   0  0  0  0  0  3  0  0  0  0  0  0
  161.4740  206.0290  149.4090 C   0  0  0  0  0  0  0  0  0  0  0  0
  161.8690  212.3480  150.4820 O   0  0  0  0  0  1  0  0  0  0  0  0
  160.9690  205.2550  152.9310 C   0  0  0  0  0  3  0  0  0  0  0  0
  161.0720  210.3040  155.4980 C   0  0  0  0  0  1  0  0  0  0  0  0
  161.6710  207.1220  148.5670 C   0  0  0  0  0  3  0  0  0  0  0  0
  161.3180  206.2360  150.7890 C   0  0  0  0  0  0  0  0  0  0  0  0
  161.6180  209.9880  150.9030 C   0  0  0  0  0  3  0  0  0  0  0  0
  160.8550  207.8180  155.5670 C   0  0  0  0  0  3  0  0  0  0  0  0
  161.7160  208.4150  149.0700 C   0  0  0  0  0  0  0  0  0  0  0  0
  161.9150  209.4740  148.1810 C   0  0  0  0  0  3  0  0  0  0  0  0
  161.1280  205.1530  151.5910 N   0  0  0  0  0  0  0  0  0  0  0  0
  160.9970  206.4980  153.5420 C   0  0  0  0  0  0  0  0  0  0  0  0
  160.8310  206.5790  154.9280 C   0  0  0  0  0  3  0  0  0  0  0  0
  161.0650  205.1660  146.6240 O   0  0  0  0  0  0  0  0  0  0  0  0
  161.2250  204.2950  147.5220 C   0  0  0  0  0  0  0  0  0  0  0  0
  161.4270  204.6900  148.8880 N   0  0  0  0  0  2  0  0  0  0  0  0
  161.2060  200.0950  146.6200 C   0  0  0  0  0  0  0  0  0  0  0  0
  161.5800  201.9210  148.1590 C   0  0  0  0  0  3  0  0  0  0  0  0
  160.4520  203.2540  144.8860 O   0  0  0  0  0  1  0  0  0  0  0  0
  161.2060  198.7350  146.3450 O   0  0  0  0  0  1  0  0  0  0  0  0
  161.5800  200.5520  147.8840 C   0  0  0  0  0  3  0  0  0  0  0  0
  160.8310  202.3810  145.8990 C   0  0  0  0  0  0  0  0  0  0  0  0
  161.2070  202.8540  147.1780 C   0  0  0  0  0  0  0  0  0  0  0  0
  160.8340  201.0070  145.6320 C   0  0  0  0  0  3  0  0  0  0  0  0
  1  9  1  0  0  0  0
  1 14  1  0  0  0  0
  2  3  1  0  0  0  0
  3  7  2  0  0  0  0
  3 19  1  0  0  0  0
  4 11  1  0  0  0  0
  4 15  2  0  0  0  0
  5 14  2  0  0  0  0
  5  2  1  0  0  0  0
  6  1  2  0  0  0  0
  7  4  1  0  0  0  0
  8 13  1  0  0  0  0
 10 19  1  0  0  0  0
 12 16  1  0  0  0  0
 12  8  2  0  0  0  0
 13  2  2  0  0  0  0
 13 18  1  0  0  0  0
 16  5  1  0  0  0  0
 17  6  1  0  0  0  0
 17 16  2  0  0  0  0
 18 10  2  0  0  0  0
 19 20  2  0  0  0  0
 20 15  1  0  0  0  0
 21 22  2  0  0  0  0
 22 23  1  0  0  0  0
 23  8  1  0  0  0  0
 24 28  1  0  0  0  0
 26 29  1  0  0  0  0
 27 24  1  0  0  0  0
 28 25  2  0  0  0  0
 29 30  2  0  0  0  0
 30 22  1  0  0  0  0
 30 25  1  0  0  0  0
 31 29  1  0  0  0  0
 31 24  2  0  0  0  0
M  END
>  <MODEL>
5

>  <REMARK>
 VINA RESULT:      -7.5      3.688      7.743
  Name = 
  2 active torsions:
  status: ('A' for Active; 'I' for Inactive)
    1  A    between atoms: C_5  and  C_30
    2  A    between atoms: C_10  and  N_16
                            x       y       z     vdW  Elec       q    Type
                         _______ _______ _______ _____ _____    ______ ____

>  <TORSDO>
F 2

$$$$
=
 OpenBabel11122413193D

 31 35  0  0  0  0  0  0  0  0999 V2000
  161.4670  212.5140  149.9190 C   0  0  0  0  0  0  0  0  0  0  0  0
  161.1490  209.1790  151.6450 C   0  0  0  0  0  0  0  0  0  0  0  0
  160.8910  209.4520  153.0260 C   0  0  0  0  0  0  0  0  0  0  0  0
  160.5410  210.9860  154.8980 C   0  0  0  0  0  0  0  0  0  0  0  0
  161.3340  210.1820  150.6410 C   0  0  0  0  0  0  0  0  0  0  0  0
  161.7110  212.1100  148.6080 C   0  0  0  0  0  3  0  0  0  0  0  0
  160.7930  210.7560  153.5440 C   0  0  0  0  0  3  0  0  0  0  0  0
  161.4730  207.4530  149.9150 C   0  0  0  0  0  0  0  0  0  0  0  0
  161.4070  213.8660  150.2290 O   0  0  0  0  0  1  0  0  0  0  0  0
  160.8100  207.0670  153.4740 C   0  0  0  0  0  3  0  0  0  0  0  0
  160.4440  212.3780  155.4090 C   0  0  0  0  0  1  0  0  0  0  0  0
  161.6510  208.4490  148.9570 C   0  0  0  0  0  3  0  0  0  0  0  0
  161.2240  207.8100  151.2500 C   0  0  0  0  0  0  0  0  0  0  0  0
  161.2810  211.5600  150.9210 C   0  0  0  0  0  3  0  0  0  0  0  0
  160.3790  209.9100  155.7700 C   0  0  0  0  0  3  0  0  0  0  0  0
  161.5850  209.7930  149.3010 C   0  0  0  0  0  0  0  0  0  0  0  0
  161.7700  210.7510  148.3000 C   0  0  0  0  0  3  0  0  0  0  0  0
  161.0540  206.8180  152.1670 N   0  0  0  0  0  0  0  0  0  0  0  0
  160.7240  208.3730  153.9310 C   0  0  0  0  0  0  0  0  0  0  0  0
  160.4710  208.6050  155.2860 C   0  0  0  0  0  3  0  0  0  0  0  0
  160.0820  206.0560  147.7290 O   0  0  0  0  0  0  0  0  0  0  0  0
  160.8510  205.4030  148.4850 C   0  0  0  0  0  0  0  0  0  0  0  0
  161.5420  206.0610  149.5590 N   0  0  0  0  0  2  0  0  0  0  0  0
  161.4050  201.1740  147.9770 C   0  0  0  0  0  0  0  0  0  0  0  0
  160.8350  203.0770  149.3550 C   0  0  0  0  0  3  0  0  0  0  0  0
  161.6800  204.2200  145.9280 O   0  0  0  0  0  1  0  0  0  0  0  0
  161.5790  199.8050  147.8300 O   0  0  0  0  0  1  0  0  0  0  0  0
  161.0110  201.6990  149.2080 C   0  0  0  0  0  3  0  0  0  0  0  0
  161.4510  203.4080  147.0330 C   0  0  0  0  0  0  0  0  0  0  0  0
  161.0500  203.9500  148.2760 C   0  0  0  0  0  0  0  0  0  0  0  0
  161.6240  202.0260  146.8940 C   0  0  0  0  0  3  0  0  0  0  0  0
  1  9  1  0  0  0  0
  1 14  1  0  0  0  0
  2  3  1  0  0  0  0
  3  7  2  0  0  0  0
  3 19  1  0  0  0  0
  4 11  1  0  0  0  0
  4 15  2  0  0  0  0
  5 14  2  0  0  0  0
  5  2  1  0  0  0  0
  6  1  2  0  0  0  0
  7  4  1  0  0  0  0
  8 13  1  0  0  0  0
 10 19  1  0  0  0  0
 12 16  1  0  0  0  0
 12  8  2  0  0  0  0
 13  2  2  0  0  0  0
 13 18  1  0  0  0  0
 16  5  1  0  0  0  0
 17  6  1  0  0  0  0
 17 16  2  0  0  0  0
 18 10  2  0  0  0  0
 19 20  2  0  0  0  0
 20 15  1  0  0  0  0
 21 22  2  0  0  0  0
 22 23  1  0  0  0  0
 23  8  1  0  0  0  0
 24 28  1  0  0  0  0
 26 29  1  0  0  0  0
 27 24  1  0  0  0  0
 28 25  2  0  0  0  0
 29 30  2  0  0  0  0
 30 22  1  0  0  0  0
 30 25  1  0  0  0  0
 31 29  1  0  0  0  0
 31 24  2  0  0  0  0
M  END
>  <MODEL>
6

>  <REMARK>
 VINA RESULT:      -7.1      3.159      7.719
  Name = 
  2 active torsions:
  status: ('A' for Active; 'I' for Inactive)
    1  A    between atoms: C_5  and  C_30
    2  A    between atoms: C_10  and  N_16
                            x       y       z     vdW  Elec       q    Type
                         _______ _______ _______ _____ _____    ______ ____

>  <TORSDO>
F 2

$$$$
