=
 OpenBabel11122412563D

 32 37  0  0  1  0  0  0  0  0999 V2000
  159.8140  201.5380  149.3540 C   0  0  0  0  0  2  0  0  0  0  0  0
  161.5780  206.2750  151.5740 C   0  0  2  0  0  3  0  0  0  0  0  0
  162.4200  209.5640  148.1360 C   0  0  0  0  0  2  0  0  0  0  0  0
  162.0300  210.6580  149.1110 C   0  0  0  0  0  3  0  0  0  0  0  0
  161.2930  207.0000  154.0030 C   0  0  0  0  0  0  0  0  0  0  0  0
  160.9540  208.0540  154.9530 C   0  0  0  0  0  0  0  0  0  0  0  0
  161.2540  203.8750  150.8460 C   0  0  2  0  0  3  0  0  0  0  0  0
  161.3990  205.5950  149.1540 C   0  0  0  0  0  2  0  0  0  0  0  0
  160.6750  210.0910  155.7650 C   0  0  0  0  0  0  0  0  0  0  0  0
  161.3560  203.3870  148.5190 C   0  0  0  0  0  2  0  0  0  0  0  0
  162.4410  208.1690  148.7850 C   0  0  0  0  0  2  0  0  0  0  0  0
  161.0560  206.6730  150.1850 C   0  0  2  0  0  3  0  0  0  0  0  0
  161.3470  208.0630  149.7560 N   0  0  1  0  0  0  0  0  0  0  0  0
  160.9130  208.6750  152.1340 C   0  0  2  0  0  3  0  0  0  0  0  0
  160.6480  209.3620  156.8310 N   0  0  0  0  0  0  0  0  0  0  0  0
  160.8000  201.4740  150.4240 N   0  0  0  0  0  2  0  0  0  0  0  0
  160.7970  204.3070  149.5050 N   0  0  1  0  0  0  0  0  0  0  0  0
  160.8120  207.9620  156.4390 C   0  0  0  0  0  2  0  0  0  0  0  0
  160.5310  202.6020  151.3030 C   0  0  0  0  0  2  0  0  0  0  0  0
  160.3560  202.2920  148.1390 C   0  0  1  0  0  3  0  0  0  0  0  0
  161.6560  210.3870  150.3730 C   0  0  0  0  0  3  0  0  0  0  0  0
  161.7090  208.9620  150.8570 C   0  0  2  0  0  3  0  0  0  0  0  0
  161.2200  209.7560  153.1980 C   0  0  0  0  0  2  0  0  0  0  0  0
  160.9280  204.9330  151.9030 C   0  0  0  0  0  2  0  0  0  0  0  0
  161.6430  205.8650  154.4260 O   0  0  0  0  0  0  0  0  0  0  0  0
  160.5750  211.5110  155.7980 N   0  0  0  0  0  1  0  0  0  0  0  0
  161.2500  207.3010  152.5870 N   0  0  0  0  0  0  0  0  0  0  0  0
  160.8450  209.3000  154.5680 C   0  0  0  0  0  0  0  0  0  0  0  0
  160.9840  201.3490  147.2270 N   0  0  0  0  0  2  0  0  0  0  0  0
  160.4760  201.0850  145.9180 C   0  0  0  0  0  0  0  0  0  0  0  0
  159.4280  201.6540  145.5090 O   0  0  0  0  0  1  0  0  0  0  0  0
  161.1380  200.1890  145.0910 O   0  0  0  0  0  0  0  0  0  0  0  0
  1 16  1  0  0  0  0
  2 24  1  1  0  0  0
  2 27  1  0  0  0  0
  3 11  1  0  0  0  0
  3  4  1  0  0  0  0
  4 21  2  0  0  0  0
  5 25  2  0  0  0  0
  5  6  1  0  0  0  0
  6 18  1  0  0  0  0
  7 19  1  1  0  0  0
  7 24  1  0  0  0  0
  8 17  1  0  0  0  0
  9 26  1  0  0  0  0
  9 15  2  0  0  0  0
 12  8  1  6  0  0  0
 12  2  1  0  0  0  0
 13 11  1  6  0  0  0
 13 12  1  0  0  0  0
 13 22  1  0  0  0  0
 14 27  1  0  0  0  0
 14 23  1  1  0  0  0
 16 19  1  0  0  0  0
 17 10  1  6  0  0  0
 17  7  1  0  0  0  0
 18 15  1  0  0  0  0
 20 29  1  6  0  0  0
 20 10  1  0  0  0  0
 20  1  1  0  0  0  0
 22 21  1  6  0  0  0
 22 14  1  0  0  0  0
 23 28  1  0  0  0  0
 27  5  1  0  0  0  0
 28  6  2  0  0  0  0
 28  9  1  0  0  0  0
 30 29  1  0  0  0  0
 31 30  1  0  0  0  0
 32 30  2  0  0  0  0
M  END
>  <MODEL>
1

>  <REMARK>
 VINA RESULT:      -8.1      0.000      0.000
  Name = 
  1 active torsions:
  status: ('A' for Active; 'I' for Inactive)
    1  A    between atoms: C_20  and  N_29
                            x       y       z     vdW  Elec       q    Type
                         _______ _______ _______ _____ _____    ______ ____

>  <TORSDO>
F 1

$$$$
=
 OpenBabel11122412563D

 32 37  0  0  1  0  0  0  0  0999 V2000
  160.3420  211.7060  152.4710 C   0  0  0  0  0  2  0  0  0  0  0  0
  161.7310  206.9210  150.0940 C   0  0  2  0  0  3  0  0  0  0  0  0
  160.9520  203.2250  153.1070 C   0  0  0  0  0  2  0  0  0  0  0  0
  160.6500  202.3390  151.9150 C   0  0  0  0  0  3  0  0  0  0  0  0
  162.0010  206.5020  147.5910 C   0  0  0  0  0  0  0  0  0  0  0  0
  161.7470  205.6410  146.4410 C   0  0  0  0  0  0  0  0  0  0  0  0
  161.6740  209.2560  151.0630 C   0  0  2  0  0  3  0  0  0  0  0  0
  161.0180  207.3980  152.4630 C   0  0  0  0  0  2  0  0  0  0  0  0
  161.3270  203.8000  145.2930 C   0  0  0  0  0  0  0  0  0  0  0  0
  161.2160  209.4940  153.3850 C   0  0  0  0  0  2  0  0  0  0  0  0
  161.4140  204.6350  152.6980 C   0  0  0  0  0  2  0  0  0  0  0  0
  160.7790  206.5220  151.2310 C   0  0  2  0  0  3  0  0  0  0  0  0
  160.6730  205.0680  151.5100 N   0  0  1  0  0  0  0  0  0  0  0  0
  160.8090  204.7880  149.0360 C   0  0  2  0  0  3  0  0  0  0  0  0
  161.7340  204.6110  144.3750 N   0  0  0  0  0  0  0  0  0  0  0  0
  161.5800  211.6490  151.7070 N   0  0  0  0  0  2  0  0  0  0  0  0
  160.7900  208.8140  152.1660 N   0  0  1  0  0  0  0  0  0  0  0  0
  162.0430  205.8990  144.9990 C   0  0  0  0  0  3  0  0  0  0  0  0
  161.3580  210.6930  150.6310 C   0  0  0  0  0  2  0  0  0  0  0  0
  160.3740  210.7420  153.6580 C   0  0  1  0  0  3  0  0  0  0  0  0
  160.6990  202.8010  150.6550 C   0  0  0  0  0  3  0  0  0  0  0  0
  161.1500  204.2170  150.4150 C   0  0  2  0  0  3  0  0  0  0  0  0
  161.1900  203.7690  147.9360 C   0  0  0  0  0  2  0  0  0  0  0  0
  161.4620  208.3980  149.8130 C   0  0  0  0  0  2  0  0  0  0  0  0
  162.6610  207.5660  147.4430 O   0  0  0  0  0  0  0  0  0  0  0  0
  160.9750  202.4460  145.0270 N   0  0  0  0  0  1  0  0  0  0  0  0
  161.5100  206.0900  148.8910 N   0  0  0  0  0  0  0  0  0  0  0  0
  161.3030  204.4200  146.5980 C   0  0  1  0  0  3  0  0  0  0  0  0
  160.8900  211.4360  154.8290 N   0  0  0  0  0  2  0  0  0  0  0  0
  160.3860  211.2070  156.1460 C   0  0  0  0  0  0  0  0  0  0  0  0
  159.4410  210.3960  156.3410 O   0  0  0  0  0  0  0  0  0  0  0  0
  160.9400  211.8870  157.2210 O   0  0  0  0  0  1  0  0  0  0  0  0
  1 20  1  0  0  0  0
  2 24  1  6  0  0  0
  2 12  1  0  0  0  0
  4  3  1  0  0  0  0
  5 27  1  0  0  0  0
  6 28  1  0  0  0  0
  6  5  1  0  0  0  0
  7 24  1  6  0  0  0
  7 17  1  0  0  0  0
  9 28  1  0  0  0  0
 10 20  1  0  0  0  0
 11  3  1  0  0  0  0
 12 13  1  0  0  0  0
 12  8  1  1  0  0  0
 13 11  1  1  0  0  0
 14 23  1  6  0  0  0
 14 22  1  0  0  0  0
 15 18  1  0  0  0  0
 15  9  2  0  0  0  0
 16  1  1  0  0  0  0
 17  8  1  1  0  0  0
 17 10  1  0  0  0  0
 18  6  2  0  0  0  0
 19  7  1  0  0  0  0
 19 16  1  0  0  0  0
 20 29  1  1  0  0  0
 21  4  2  0  0  0  0
 22 21  1  1  0  0  0
 22 13  1  0  0  0  0
 25  5  2  0  0  0  0
 26  9  1  0  0  0  0
 27 14  1  0  0  0  0
 27  2  1  0  0  0  0
 28 23  1  1  0  0  0
 29 30  1  0  0  0  0
 30 31  2  0  0  0  0
 30 32  1  0  0  0  0
M  END
>  <MODEL>
2

>  <REMARK>
 VINA RESULT:      -6.5      2.741      9.154
  Name = 
  1 active torsions:
  status: ('A' for Active; 'I' for Inactive)
    1  A    between atoms: C_20  and  N_29
                            x       y       z     vdW  Elec       q    Type
                         _______ _______ _______ _____ _____    ______ ____

>  <TORSDO>
F 1

$$$$
=
 OpenBabel11122412563D

 32 37  0  0  1  0  0  0  0  0999 V2000
  160.8140  203.8430  149.2050 C   0  0  0  0  0  2  0  0  0  0  0  0
  161.4820  208.6260  151.8810 C   0  0  2  0  0  3  0  0  0  0  0  0
  161.8650  212.2930  148.7580 C   0  0  0  0  0  2  0  0  0  0  0  0
  161.2100  213.2060  149.7770 C   0  0  0  0  0  3  0  0  0  0  0  0
  160.9170  209.0770  154.3280 C   0  0  0  0  0  0  0  0  0  0  0  0
  160.3220  209.9630  155.3230 C   0  0  0  0  0  0  0  0  0  0  0  0
  161.6780  206.2780  150.9620 C   0  0  2  0  0  3  0  0  0  0  0  0
  161.5820  208.1310  149.4130 C   0  0  0  0  0  2  0  0  0  0  0  0
  159.6020  211.8330  156.2550 C   0  0  0  0  0  0  0  0  0  0  0  0
  162.0100  206.0160  148.6210 C   0  0  0  0  0  2  0  0  0  0  0  0
  162.1200  210.8780  149.3060 C   0  0  0  0  0  2  0  0  0  0  0  0
  160.9740  209.0320  150.4890 C   0  0  2  0  0  3  0  0  0  0  0  0
  161.0130  210.4840  150.1820 N   0  0  1  0  0  0  0  0  0  0  0  0
  160.3280  210.7990  152.5590 C   0  0  2  0  0  3  0  0  0  0  0  0
  159.6560  211.0250  157.2610 N   0  0  0  0  0  0  0  0  0  0  0  0
  161.7290  203.8790  150.3380 N   0  0  0  0  0  2  0  0  0  0  0  0
  161.2250  206.7260  149.6250 N   0  0  1  0  0  0  0  0  0  0  0  0
  160.1140  209.7200  156.7830 C   0  0  0  0  0  2  0  0  0  0  0  0
  161.1920  204.8570  151.2720 C   0  0  0  0  0  2  0  0  0  0  0  0
  161.2680  204.7870  148.0910 C   0  0  1  0  0  3  0  0  0  0  0  0
  160.8230  212.7630  150.9840 C   0  0  0  0  0  3  0  0  0  0  0  0
  161.1250  211.3400  151.3690 C   0  0  2  0  0  3  0  0  0  0  0  0
  160.3530  211.8260  153.7170 C   0  0  0  0  0  2  0  0  0  0  0  0
  161.0890  207.1620  152.0650 C   0  0  0  0  0  2  0  0  0  0  0  0
  161.4570  207.9980  154.6940 O   0  0  0  0  0  0  0  0  0  0  0  0
  159.2240  213.2000  156.3810 N   0  0  0  0  0  1  0  0  0  0  0  0
  160.8990  209.4820  152.9370 N   0  0  0  0  0  0  0  0  0  0  0  0
  159.9940  211.1930  155.0200 C   0  0  0  0  0  0  0  0  0  0  0  0
  162.1220  204.0610  147.1620 N   0  0  0  0  0  2  0  0  0  0  0  0
  162.6200  204.6420  145.9550 C   0  0  0  0  0  0  0  0  0  0  0  0
  162.3100  205.8200  145.6340 O   0  0  0  0  0  1  0  0  0  0  0  0
  163.4480  203.8990  145.1260 O   0  0  0  0  0  0  0  0  0  0  0  0
  1 16  1  0  0  0  0
  2 24  1  1  0  0  0
  2 27  1  0  0  0  0
  3 11  1  0  0  0  0
  3  4  1  0  0  0  0
  4 21  2  0  0  0  0
  5 25  2  0  0  0  0
  5  6  1  0  0  0  0
  6 18  1  0  0  0  0
  7 19  1  1  0  0  0
  7 24  1  0  0  0  0
  8 17  1  0  0  0  0
  9 26  1  0  0  0  0
  9 15  2  0  0  0  0
 12  8  1  6  0  0  0
 12  2  1  0  0  0  0
 13 11  1  6  0  0  0
 13 12  1  0  0  0  0
 13 22  1  0  0  0  0
 14 27  1  0  0  0  0
 14 23  1  1  0  0  0
 16 19  1  0  0  0  0
 17 10  1  6  0  0  0
 17  7  1  0  0  0  0
 18 15  1  0  0  0  0
 20 29  1  6  0  0  0
 20 10  1  0  0  0  0
 20  1  1  0  0  0  0
 22 21  1  6  0  0  0
 22 14  1  0  0  0  0
 23 28  1  0  0  0  0
 27  5  1  0  0  0  0
 28  6  2  0  0  0  0
 28  9  1  0  0  0  0
 30 29  1  0  0  0  0
 31 30  1  0  0  0  0
 32 30  2  0  0  0  0
M  END
>  <MODEL>
3

>  <REMARK>
 VINA RESULT:      -5.1      2.039      2.689
  Name = 
  1 active torsions:
  status: ('A' for Active; 'I' for Inactive)
    1  A    between atoms: C_20  and  N_29
                            x       y       z     vdW  Elec       q    Type
                         _______ _______ _______ _____ _____    ______ ____

>  <TORSDO>
F 1

$$$$
=
 OpenBabel11122412563D

 32 37  0  0  1  0  0  0  0  0999 V2000
  161.9700  208.5920  157.0730 C   0  0  0  0  0  2  0  0  0  0  0  0
  160.8300  206.8200  151.9700 C   0  0  2  0  0  3  0  0  0  0  0  0
  162.0660  210.1450  148.6890 C   0  0  0  0  0  2  0  0  0  0  0  0
  162.3690  209.0340  147.7030 C   0  0  0  0  0  3  0  0  0  0  0  0
  160.4530  204.3970  151.2630 C   0  0  0  0  0  0  0  0  0  0  0  0
  160.7090  203.3290  150.3030 C   0  0  0  0  0  0  0  0  0  0  0  0
  160.7570  207.5350  154.3940 C   0  0  2  0  0  3  0  0  0  0  0  0
  161.6350  209.0750  152.7520 C   0  0  0  0  0  2  0  0  0  0  0  0
  161.2070  202.3540  148.3830 C   0  0  0  0  0  0  0  0  0  0  0  0
  161.3260  209.7860  154.9150 C   0  0  0  0  0  2  0  0  0  0  0  0
  161.4720  209.6220  150.0090 C   0  0  0  0  0  2  0  0  0  0  0  0
  161.8730  207.9290  151.7670 C   0  0  2  0  0  3  0  0  0  0  0  0
  162.1090  208.3500  150.3630 N   0  0  1  0  0  0  0  0  0  0  0  0
  161.8550  205.9330  149.8070 C   0  0  2  0  0  3  0  0  0  0  0  0
  160.6860  201.3850  149.0590 N   0  0  0  0  0  0  0  0  0  0  0  0
  160.6990  207.9190  156.8430 N   0  0  0  0  0  2  0  0  0  0  0  0
  161.7340  208.6190  154.1400 N   0  0  1  0  0  0  0  0  0  0  0  0
  160.3130  201.8890  150.3800 C   0  0  0  0  0  2  0  0  0  0  0  0
  160.9340  206.9370  155.7950 C   0  0  0  0  0  2  0  0  0  0  0  0
  162.0810  209.8720  156.2440 C   0  0  1  0  0  3  0  0  0  0  0  0
  162.2130  207.7390  148.0200 C   0  0  0  0  0  3  0  0  0  0  0  0
  161.6380  207.3820  149.3650 C   0  0  2  0  0  3  0  0  0  0  0  0
  161.4940  204.9710  148.6490 C   0  0  0  0  0  2  0  0  0  0  0  0
  160.9650  206.3710  153.4230 C   0  0  0  0  0  2  0  0  0  0  0  0
  159.7040  204.1820  152.2540 O   0  0  0  0  0  0  0  0  0  0  0  0
  161.6490  202.2080  147.0370 N   0  0  0  0  0  1  0  0  0  0  0  0
  161.0480  205.6980  151.0310 N   0  0  0  0  0  0  0  0  0  0  0  0
  161.2550  203.5830  149.1410 C   0  0  0  0  0  0  0  0  0  0  0  0
  161.5790  210.9950  157.0210 N   0  0  0  0  0  2  0  0  0  0  0  0
  160.7620  212.0220  156.4560 C   0  0  0  0  0  0  0  0  0  0  0  0
  160.4620  212.0030  155.2320 O   0  0  0  0  0  0  0  0  0  0  0  0
  160.3000  213.0540  157.2610 O   0  0  0  0  0  1  0  0  0  0  0  0
  2 24  1  1  0  0  0
  3 11  1  0  0  0  0
  4 21  2  0  0  0  0
  4  3  1  0  0  0  0
  5 25  2  0  0  0  0
  6 18  1  0  0  0  0
  6  5  1  0  0  0  0
  7 24  1  6  0  0  0
  7 19  1  0  0  0  0
  9 15  2  0  0  0  0
  9 28  1  0  0  0  0
 10 20  1  0  0  0  0
 12  2  1  0  0  0  0
 12  8  1  1  0  0  0
 13 11  1  6  0  0  0
 13 12  1  0  0  0  0
 14 23  1  6  0  0  0
 14 27  1  0  0  0  0
 15 18  1  0  0  0  0
 16  1  1  0  0  0  0
 17  8  1  6  0  0  0
 17  7  1  0  0  0  0
 17 10  1  0  0  0  0
 19 16  1  0  0  0  0
 20 29  1  1  0  0  0
 20  1  1  0  0  0  0
 22 21  1  6  0  0  0
 22 14  1  0  0  0  0
 22 13  1  0  0  0  0
 23 28  1  0  0  0  0
 26  9  1  0  0  0  0
 27  5  1  0  0  0  0
 27  2  1  0  0  0  0
 28  6  2  0  0  0  0
 30 29  1  0  0  0  0
 30 32  1  0  0  0  0
 31 30  2  0  0  0  0
M  END
>  <MODEL>
4

>  <REMARK>
 VINA RESULT:      -5.1      2.356      8.262
  Name = 
  1 active torsions:
  status: ('A' for Active; 'I' for Inactive)
    1  A    between atoms: C_20  and  N_29
                            x       y       z     vdW  Elec       q    Type
                         _______ _______ _______ _____ _____    ______ ____

>  <TORSDO>
F 1

$$$$
