=
 OpenBabel11122414283D

 34 41  0  0  1  0  0  0  0  0999 V2000
  161.2290  207.7340  149.5230 C   0  0  1  0  0  3  0  0  0  0  0  0
  161.7460  206.0170  147.7040 C   0  0  0  0  0  3  0  0  0  0  0  0
  161.6740  209.1920  155.9330 C   0  0  2  0  0  3  0  0  0  0  0  0
  161.4340  209.2340  151.6070 C   0  0  0  0  0  0  0  0  0  0  0  0
  160.9710  208.2350  153.8230 C   0  0  0  0  0  0  0  0  0  0  0  0
  160.8740  207.2460  156.2430 C   0  0  0  0  0  2  0  0  0  0  0  0
  161.7130  208.2080  157.0820 C   0  0  0  0  0  2  0  0  0  0  0  0
  160.6400  211.1580  154.7980 C   0  0  0  0  0  2  0  0  0  0  0  0
  161.2980  205.2690  149.8770 C   0  0  0  0  0  0  0  0  0  0  0  0
  160.7740  202.3420  150.8320 C   0  0  0  0  0  3  0  0  0  0  0  0
  160.8950  207.0620  153.2630 N   0  0  0  0  0  0  0  0  0  0  0  0
  161.5360  210.7510  153.6090 C   0  0  0  0  0  2  0  0  0  0  0  0
  161.0230  205.4470  151.3200 C   0  0  0  0  0  0  0  0  0  0  0  0
  161.4120  204.5290  147.6820 C   0  0  0  0  0  3  0  0  0  0  0  0
  161.2160  209.4270  153.0210 N   0  0  0  0  0  0  0  0  0  0  0  0
  161.1300  210.5910  156.1490 C   0  0  0  0  0  2  0  0  0  0  0  0
  160.6480  202.9070  149.5230 N   0  0  0  0  0  0  0  0  0  0  0  0
  161.2720  207.8840  151.0290 C   0  0  0  0  0  0  0  0  0  0  0  0
  160.6100  208.3740  155.2630 C   0  0  1  0  0  3  0  0  0  0  0  0
  161.0630  206.8370  151.8510 C   0  0  0  0  0  0  0  0  0  0  0  0
  162.2430  209.9940  149.4130 C   0  0  0  0  0  3  0  0  0  0  0  0
  160.8770  203.0070  151.9760 C   0  0  0  0  0  3  0  0  0  0  0  0
  161.8900  210.2260  150.8270 C   0  0  0  0  0  3  0  0  0  0  0  0
  160.8800  204.4530  152.1980 C   0  0  0  0  0  3  0  0  0  0  0  0
  161.1480  204.1930  149.1170 C   0  0  0  0  0  0  0  0  0  0  0  0
  161.9880  208.8260  148.8160 C   0  0  0  0  0  3  0  0  0  0  0  0
  161.6580  206.4030  149.1020 N   0  0  0  0  0  0  0  0  0  0  0  0
  160.2150  201.9750  148.4900 C   0  0  0  0  0  2  0  0  0  0  0  0
  161.1550  200.8690  148.3960 N   0  0  0  0  0  2  0  0  0  0  0  0
  160.5860  199.5070  145.3890 N   0  0  0  0  0  0  0  0  0  0  0  0
  160.7340  201.6810  146.1390 C   0  0  0  0  0  2  0  0  0  0  0  0
  161.6390  200.8340  147.0260 C   0  0  2  0  0  3  0  0  0  0  0  0
  160.1620  200.6940  145.1900 C   0  0  0  0  0  3  0  0  0  0  0  0
  161.5130  199.4160  146.4810 C   0  0  0  0  0  2  0  0  0  0  0  0
  1 26  1  6  0  0  0
  1 18  1  0  0  0  0
  2 27  1  0  0  0  0
  3 16  1  1  0  0  0
  3  7  1  0  0  0  0
  4 15  1  0  0  0  0
  5 19  1  0  0  0  0
  6  7  1  0  0  0  0
  8 16  1  0  0  0  0
  9 13  1  0  0  0  0
 10 22  2  0  0  0  0
 11  5  2  0  0  0  0
 12  8  1  0  0  0  0
 13 20  1  0  0  0  0
 13 24  2  0  0  0  0
 14  2  2  0  0  0  0
 14 25  1  0  0  0  0
 15 12  1  0  0  0  0
 15  5  1  0  0  0  0
 17 10  1  0  0  0  0
 18  4  1  0  0  0  0
 18 20  2  0  0  0  0
 19  3  1  0  0  0  0
 19  6  1  1  0  0  0
 20 11  1  0  0  0  0
 21 23  1  0  0  0  0
 22 24  1  0  0  0  0
 23  4  2  0  0  0  0
 25 17  1  0  0  0  0
 25  9  2  0  0  0  0
 26 21  2  0  0  0  0
 27  1  1  0  0  0  0
 27  9  1  0  0  0  0
 28 17  1  0  0  0  0
 29 28  1  0  0  0  0
 30 34  1  0  0  0  0
 31 32  1  0  0  0  0
 32 29  1  1  0  0  0
 33 30  2  0  0  0  0
 33 31  1  0  0  0  0
 34 32  1  0  0  0  0
M  END
>  <MODEL>
1

>  <REMARK>
 VINA RESULT:     -10.5      0.000      0.000
  Name = 
  3 active torsions:
  status: ('A' for Active; 'I' for Inactive)
    1  A    between atoms: N_17  and  C_28
    2  A    between atoms: C_28  and  N_29
    3  A    between atoms: N_29  and  C_32
                            x       y       z     vdW  Elec       q    Type
                         _______ _______ _______ _____ _____    ______ ____

>  <TORSDO>
F 3

$$$$
=
 OpenBabel11122414283D

 34 41  0  0  1  0  0  0  0  0999 V2000
  160.6400  205.1930  152.1460 C   0  0  1  0  0  3  0  0  0  0  0  0
  161.1470  206.6410  154.1880 C   0  0  0  0  0  3  0  0  0  0  0  0
  162.1230  203.9260  145.8520 C   0  0  2  0  0  3  0  0  0  0  0  0
  160.9250  203.7760  150.0130 C   0  0  0  0  0  0  0  0  0  0  0  0
  161.2270  204.9490  147.8560 C   0  0  0  0  0  0  0  0  0  0  0  0
  161.9180  206.0240  145.5730 C   0  0  0  0  0  2  0  0  0  0  0  0
  162.6580  204.9100  144.8350 C   0  0  0  0  0  2  0  0  0  0  0  0
  160.4100  202.2560  146.5590 C   0  0  0  0  0  2  0  0  0  0  0  0
  161.3920  207.5660  152.0500 C   0  0  0  0  0  0  0  0  0  0  0  0
  161.8330  210.5640  151.2930 C   0  0  0  0  0  3  0  0  0  0  0  0
  161.3210  206.0770  148.4980 N   0  0  0  0  0  0  0  0  0  0  0  0
  161.0920  202.3660  147.9390 C   0  0  0  0  0  2  0  0  0  0  0  0
  161.4100  207.5240  150.5720 C   0  0  0  0  0  0  0  0  0  0  0  0
  161.1950  208.1620  154.2830 C   0  0  0  0  0  3  0  0  0  0  0  0
  160.9860  203.7040  148.5740 N   0  0  0  0  0  0  0  0  0  0  0  0
  161.3130  202.7280  145.3970 C   0  0  0  0  0  2  0  0  0  0  0  0
  161.2840  210.0000  152.4880 N   0  0  0  0  0  0  0  0  0  0  0  0
  160.9780  205.0980  150.6730 C   0  0  0  0  0  0  0  0  0  0  0  0
  161.1720  204.9670  146.3650 C   0  0  1  0  0  3  0  0  0  0  0  0
  161.2220  206.1940  149.9300 C   0  0  0  0  0  0  0  0  0  0  0  0
  161.0140  202.7440  152.2440 C   0  0  0  0  0  3  0  0  0  0  0  0
  162.0200  209.9410  150.1360 C   0  0  0  0  0  3  0  0  0  0  0  0
  160.9380  202.6700  150.7720 C   0  0  0  0  0  3  0  0  0  0  0  0
  161.7140  208.5550  149.7820 C   0  0  0  0  0  3  0  0  0  0  0  0
  161.3480  208.6130  152.8630 C   0  0  0  0  0  0  0  0  0  0  0  0
  160.9290  203.9140  152.8850 C   0  0  0  0  0  3  0  0  0  0  0  0
  161.2800  206.3480  152.7710 N   0  0  0  0  0  0  0  0  0  0  0  0
  160.8760  210.9710  153.4960 C   0  0  0  0  0  2  0  0  0  0  0  0
  159.9760  211.9490  152.9050 N   0  0  0  0  0  2  0  0  0  0  0  0
  156.9390  212.0170  154.3160 N   0  0  0  0  0  0  0  0  0  0  0  0
  159.0440  211.5210  155.1140 C   0  0  0  0  0  2  0  0  0  0  0  0
  159.2130  212.5390  153.9920 C   0  0  2  0  0  3  0  0  0  0  0  0
  157.5750  211.3130  155.1700 C   0  0  0  0  0  3  0  0  0  0  0  0
  157.7980  212.8390  153.5120 C   0  0  0  0  0  2  0  0  0  0  0  0
  1 27  1  0  0  0  0
  1 26  1  1  0  0  0
  2 14  2  0  0  0  0
  3  7  1  6  0  0  0
  3 19  1  0  0  0  0
  4 18  1  0  0  0  0
  4 23  2  0  0  0  0
  5 11  2  0  0  0  0
  5 15  1  0  0  0  0
  7  6  1  0  0  0  0
  8 12  1  0  0  0  0
  9 27  1  0  0  0  0
  9 25  2  0  0  0  0
 10 17  1  0  0  0  0
 11 20  1  0  0  0  0
 12 15  1  0  0  0  0
 13  9  1  0  0  0  0
 15  4  1  0  0  0  0
 16  3  1  0  0  0  0
 16  8  1  0  0  0  0
 17 25  1  0  0  0  0
 17 28  1  0  0  0  0
 18  1  1  0  0  0  0
 19  6  1  6  0  0  0
 19  5  1  0  0  0  0
 20 13  1  0  0  0  0
 20 18  2  0  0  0  0
 21 26  2  0  0  0  0
 22 10  2  0  0  0  0
 23 21  1  0  0  0  0
 24 22  1  0  0  0  0
 24 13  2  0  0  0  0
 25 14  1  0  0  0  0
 27  2  1  0  0  0  0
 29 28  1  0  0  0  0
 30 33  2  0  0  0  0
 31 33  1  0  0  0  0
 32 29  1  6  0  0  0
 32 31  1  0  0  0  0
 34 32  1  0  0  0  0
 34 30  1  0  0  0  0
M  END
>  <MODEL>
2

>  <REMARK>
 VINA RESULT:      -9.9      1.750      9.347
  Name = 
  3 active torsions:
  status: ('A' for Active; 'I' for Inactive)
    1  A    between atoms: N_17  and  C_28
    2  A    between atoms: C_28  and  N_29
    3  A    between atoms: N_29  and  C_32
                            x       y       z     vdW  Elec       q    Type
                         _______ _______ _______ _____ _____    ______ ____

>  <TORSDO>
F 3

$$$$
=
 OpenBabel11122414283D

 34 41  0  0  1  0  0  0  0  0999 V2000
  160.5660  204.8960  152.0650 C   0  0  1  0  0  3  0  0  0  0  0  0
  161.0200  206.2250  154.1980 C   0  0  0  0  0  3  0  0  0  0  0  0
  162.1890  204.0050  145.7410 C   0  0  2  0  0  3  0  0  0  0  0  0
  160.9060  203.6060  149.8610 C   0  0  0  0  0  0  0  0  0  0  0  0
  161.2450  204.9040  147.7820 C   0  0  0  0  0  0  0  0  0  0  0  0
  161.9750  206.1140  145.5800 C   0  0  0  0  0  2  0  0  0  0  0  0
  162.7380  205.0500  144.7940 C   0  0  0  0  0  2  0  0  0  0  0  0
  160.4730  202.2870  146.3130 C   0  0  0  0  0  2  0  0  0  0  0  0
  161.3040  207.2750  152.1240 C   0  0  0  0  0  0  0  0  0  0  0  0
  161.7380  210.3130  151.5510 C   0  0  0  0  0  3  0  0  0  0  0  0
  161.3170  205.9940  148.4900 N   0  0  0  0  0  0  0  0  0  0  0  0
  161.1260  202.3210  147.7120 C   0  0  0  0  0  2  0  0  0  0  0  0
  161.3520  207.3190  150.6460 C   0  0  0  0  0  0  0  0  0  0  0  0
  161.0550  207.7390  154.3830 C   0  0  0  0  0  3  0  0  0  0  0  0
  160.9980  203.6180  148.4210 N   0  0  0  0  0  0  0  0  0  0  0  0
  161.3970  202.8310  145.2010 C   0  0  0  0  0  2  0  0  0  0  0  0
  161.1680  209.6780  152.7000 N   0  0  0  0  0  0  0  0  0  0  0  0
  160.9350  204.8880  150.5960 C   0  0  0  0  0  0  0  0  0  0  0  0
  161.2200  205.0080  146.2940 C   0  0  1  0  0  3  0  0  0  0  0  0
  161.1870  206.0270  149.9240 C   0  0  0  0  0  0  0  0  0  0  0  0
  160.9560  202.4470  152.0290 C   0  0  0  0  0  3  0  0  0  0  0  0
  161.9540  209.7600  150.3640 C   0  0  0  0  0  3  0  0  0  0  0  0
  160.9110  202.4580  150.5540 C   0  0  0  0  0  3  0  0  0  0  0  0
  161.6660  208.3950  149.9240 C   0  0  0  0  0  3  0  0  0  0  0  0
  161.2340  208.2720  152.9950 C   0  0  0  0  0  0  0  0  0  0  0  0
  160.8490  203.5770  152.7350 C   0  0  0  0  0  3  0  0  0  0  0  0
  161.1850  206.0150  152.7700 N   0  0  0  0  0  0  0  0  0  0  0  0
  160.7330  210.5860  153.7530 C   0  0  0  0  0  2  0  0  0  0  0  0
  161.8590  210.9270  154.6080 N   0  0  0  0  0  2  0  0  0  0  0  0
  159.2050  210.6270  156.6290 N   0  0  0  0  0  0  0  0  0  0  0  0
  161.4610  210.2570  156.9150 C   0  0  0  0  0  2  0  0  0  0  0  0
  161.3120  211.3670  155.8810 C   0  0  2  0  0  3  0  0  0  0  0  0
  160.0570  209.9190  157.2610 C   0  0  0  0  0  3  0  0  0  0  0  0
  159.8090  211.5770  155.7400 C   0  0  0  0  0  2  0  0  0  0  0  0
  1 26  1  1  0  0  0
  1 27  1  0  0  0  0
  2 14  2  0  0  0  0
  3  7  1  6  0  0  0
  3 19  1  0  0  0  0
  4 23  2  0  0  0  0
  4 18  1  0  0  0  0
  5 15  1  0  0  0  0
  5 11  2  0  0  0  0
  7  6  1  0  0  0  0
  8 12  1  0  0  0  0
  9 27  1  0  0  0  0
  9 25  2  0  0  0  0
 10 17  1  0  0  0  0
 11 20  1  0  0  0  0
 12 15  1  0  0  0  0
 13  9  1  0  0  0  0
 15  4  1  0  0  0  0
 16  3  1  0  0  0  0
 16  8  1  0  0  0  0
 17 25  1  0  0  0  0
 17 28  1  0  0  0  0
 18  1  1  0  0  0  0
 19  6  1  1  0  0  0
 19  5  1  0  0  0  0
 20 18  2  0  0  0  0
 20 13  1  0  0  0  0
 21 26  2  0  0  0  0
 22 10  2  0  0  0  0
 23 21  1  0  0  0  0
 24 22  1  0  0  0  0
 24 13  2  0  0  0  0
 25 14  1  0  0  0  0
 27  2  1  0  0  0  0
 28 29  1  0  0  0  0
 30 33  2  0  0  0  0
 31 33  1  0  0  0  0
 32 29  1  6  0  0  0
 32 31  1  0  0  0  0
 34 32  1  0  0  0  0
 34 30  1  0  0  0  0
M  END
>  <MODEL>
3

>  <REMARK>
 VINA RESULT:      -9.4      1.550      9.377
  Name = 
  3 active torsions:
  status: ('A' for Active; 'I' for Inactive)
    1  A    between atoms: N_17  and  C_28
    2  A    between atoms: C_28  and  N_29
    3  A    between atoms: N_29  and  C_32
                            x       y       z     vdW  Elec       q    Type
                         _______ _______ _______ _____ _____    ______ ____

>  <TORSDO>
F 3

$$$$
=
 OpenBabel11122414283D

 34 41  0  0  1  0  0  0  0  0999 V2000
  160.7540  206.1480  151.8370 C   0  0  1  0  0  3  0  0  0  0  0  0
  161.2680  208.0290  153.4870 C   0  0  0  0  0  3  0  0  0  0  0  0
  162.1110  203.5430  145.9390 C   0  0  2  0  0  3  0  0  0  0  0  0
  161.0290  204.2970  150.0660 C   0  0  0  0  0  0  0  0  0  0  0  0
  161.2360  204.9650  147.6930 C   0  0  0  0  0  0  0  0  0  0  0  0
  161.8320  205.5190  145.2060 C   0  0  0  0  0  2  0  0  0  0  0  0
  162.5880  204.2870  144.7110 C   0  0  0  0  0  2  0  0  0  0  0  0
  160.4710  202.0300  147.0550 C   0  0  0  0  0  2  0  0  0  0  0  0
  161.4280  208.4580  151.1900 C   0  0  0  0  0  0  0  0  0  0  0  0
  161.7520  211.2200  149.7700 C   0  0  0  0  0  3  0  0  0  0  0  0
  161.3110  206.2110  148.0640 N   0  0  0  0  0  0  0  0  0  0  0  0
  161.1860  202.4640  148.3530 C   0  0  0  0  0  2  0  0  0  0  0  0
  161.4070  208.0860  149.7580 C   0  0  0  0  0  0  0  0  0  0  0  0
  161.2700  209.5330  153.2400 C   0  0  0  0  0  3  0  0  0  0  0  0
  161.0540  203.9060  148.6770 N   0  0  0  0  0  0  0  0  0  0  0  0
  161.3280  202.2530  145.7890 C   0  0  0  0  0  2  0  0  0  0  0  0
  161.2530  210.9250  151.0780 N   0  0  0  0  0  0  0  0  0  0  0  0
  161.0560  205.7340  150.4120 C   0  0  0  0  0  0  0  0  0  0  0  0
  161.1420  204.6470  146.2380 C   0  0  1  0  0  3  0  0  0  0  0  0
  161.2450  206.6420  149.4350 C   0  0  0  0  0  0  0  0  0  0  0  0
  161.2090  203.7930  152.4660 C   0  0  0  0  0  3  0  0  0  0  0  0
  161.9280  210.3590  148.7750 C   0  0  0  0  0  3  0  0  0  0  0  0
  161.0970  203.3890  151.0510 C   0  0  0  0  0  3  0  0  0  0  0  0
  161.6580  208.9220  148.7500 C   0  0  0  0  0  3  0  0  0  0  0  0
  161.3710  209.6590  151.7510 C   0  0  0  0  0  0  0  0  0  0  0  0
  161.1040  205.0740  152.8330 C   0  0  0  0  0  3  0  0  0  0  0  0
  161.3730  207.4290  152.1670 N   0  0  0  0  0  0  0  0  0  0  0  0
  160.8410  212.0850  151.8570 C   0  0  0  0  0  2  0  0  0  0  0  0
  159.3960  212.0840  152.0200 N   0  0  0  0  0  2  0  0  0  0  0  0
  159.8630  214.4510  149.6970 N   0  0  0  0  0  0  0  0  0  0  0  0
  158.0390  213.1930  150.3290 C   0  0  0  0  0  2  0  0  0  0  0  0
  158.9130  213.3760  151.5650 C   0  0  2  0  0  3  0  0  0  0  0  0
  158.7850  213.9180  149.2700 C   0  0  0  0  0  3  0  0  0  0  0  0
  160.0910  214.2210  151.0950 C   0  0  0  0  0  2  0  0  0  0  0  0
  1 27  1  0  0  0  0
  1 26  1  1  0  0  0
  3  7  1  6  0  0  0
  3 19  1  0  0  0  0
  4 18  1  0  0  0  0
  4 23  2  0  0  0  0
  5 11  2  0  0  0  0
  5 15  1  0  0  0  0
  7  6  1  0  0  0  0
  8 12  1  0  0  0  0
  9 25  2  0  0  0  0
  9 27  1  0  0  0  0
 10 17  1  0  0  0  0
 11 20  1  0  0  0  0
 12 15  1  0  0  0  0
 13  9  1  0  0  0  0
 14  2  2  0  0  0  0
 15  4  1  0  0  0  0
 16  3  1  0  0  0  0
 16  8  1  0  0  0  0
 17 25  1  0  0  0  0
 17 28  1  0  0  0  0
 18  1  1  0  0  0  0
 19  6  1  6  0  0  0
 19  5  1  0  0  0  0
 20 13  1  0  0  0  0
 20 18  2  0  0  0  0
 21 26  2  0  0  0  0
 22 10  2  0  0  0  0
 23 21  1  0  0  0  0
 24 22  1  0  0  0  0
 24 13  2  0  0  0  0
 25 14  1  0  0  0  0
 27  2  1  0  0  0  0
 28 29  1  0  0  0  0
 30 34  1  0  0  0  0
 31 32  1  0  0  0  0
 32 29  1  6  0  0  0
 33 30  2  0  0  0  0
 33 31  1  0  0  0  0
 34 32  1  0  0  0  0
M  END
>  <MODEL>
4

>  <REMARK>
 VINA RESULT:      -8.6      2.365      9.272
  Name = 
  3 active torsions:
  status: ('A' for Active; 'I' for Inactive)
    1  A    between atoms: N_17  and  C_28
    2  A    between atoms: C_28  and  N_29
    3  A    between atoms: N_29  and  C_32
                            x       y       z     vdW  Elec       q    Type
                         _______ _______ _______ _____ _____    ______ ____

>  <TORSDO>
F 3

$$$$
=
 OpenBabel11122414283D

 34 41  0  0  1  0  0  0  0  0999 V2000
  161.9680  208.5450  150.2720 C   0  0  1  0  0  3  0  0  0  0  0  0
  161.5410  210.5990  151.7280 C   0  0  0  0  0  3  0  0  0  0  0  0
  160.2330  202.3230  148.9720 C   0  0  2  0  0  3  0  0  0  0  0  0
  161.5990  206.4320  148.8430 C   0  0  0  0  0  0  0  0  0  0  0  0
  161.2070  204.2840  150.0060 C   0  0  0  0  0  0  0  0  0  0  0  0
  160.4220  202.0260  151.0680 C   0  0  0  0  0  2  0  0  0  0  0  0
  159.6550  201.3230  149.9500 C   0  0  0  0  0  2  0  0  0  0  0  0
  161.9770  202.9670  147.3080 C   0  0  0  0  0  2  0  0  0  0  0  0
  161.2070  208.4690  152.6430 C   0  0  0  0  0  0  0  0  0  0  0  0
  160.7300  207.7170  155.6350 C   0  0  0  0  0  3  0  0  0  0  0  0
  161.1370  204.9240  151.1370 N   0  0  0  0  0  0  0  0  0  0  0  0
  161.3510  204.3730  147.4240 C   0  0  0  0  0  2  0  0  0  0  0  0
  161.1300  206.9920  152.5930 C   0  0  0  0  0  0  0  0  0  0  0  0
  161.4940  210.6890  153.2500 C   0  0  0  0  0  3  0  0  0  0  0  0
  161.4800  204.9970  148.7640 N   0  0  0  0  0  0  0  0  0  0  0  0
  161.0270  201.8410  147.7730 C   0  0  0  0  0  2  0  0  0  0  0  0
  161.3280  208.8910  155.0790 N   0  0  0  0  0  0  0  0  0  0  0  0
  161.5710  207.0870  150.1680 C   0  0  0  0  0  0  0  0  0  0  0  0
  161.2020  202.7920  150.0160 C   0  0  1  0  0  3  0  0  0  0  0  0
  161.2940  206.3500  151.2610 C   0  0  0  0  0  0  0  0  0  0  0  0
  161.6030  208.6700  147.8220 C   0  0  0  0  0  3  0  0  0  0  0  0
  160.4970  206.5700  155.0070 C   0  0  0  0  0  3  0  0  0  0  0  0
  161.6200  207.1960  147.7410 C   0  0  0  0  0  3  0  0  0  0  0  0
  160.7910  206.2120  153.6200 C   0  0  0  0  0  3  0  0  0  0  0  0
  161.2820  209.2750  153.6930 C   0  0  0  0  0  0  0  0  0  0  0  0
  161.7110  209.3010  148.9950 C   0  0  0  0  0  3  0  0  0  0  0  0
  161.3510  209.1900  151.4280 N   0  0  0  0  0  0  0  0  0  0  0  0
  161.7740  209.8760  156.0550 C   0  0  0  0  0  2  0  0  0  0  0  0
  160.6600  210.2750  156.9000 N   0  0  0  0  0  2  0  0  0  0  0  0
  157.6360  211.6500  156.4690 N   0  0  0  0  0  0  0  0  0  0  0  0
  159.6650  212.4800  157.1780 C   0  0  0  0  0  2  0  0  0  0  0  0
  159.9570  211.3410  156.2080 C   0  0  2  0  0  3  0  0  0  0  0  0
  158.1820  212.5230  157.2220 C   0  0  0  0  0  3  0  0  0  0  0  0
  158.5880  210.8400  155.7630 C   0  0  0  0  0  2  0  0  0  0  0  0
  1 26  1  6  0  0  0
  1 27  1  0  0  0  0
  2 14  2  0  0  0  0
  3 16  1  6  0  0  0
  3  7  1  0  0  0  0
  3 19  1  0  0  0  0
  4 18  1  0  0  0  0
  5 19  1  0  0  0  0
  5 11  2  0  0  0  0
  7  6  1  0  0  0  0
  8 12  1  0  0  0  0
  8 16  1  0  0  0  0
  9 25  2  0  0  0  0
 11 20  1  0  0  0  0
 12 15  1  0  0  0  0
 13  9  1  0  0  0  0
 13 24  2  0  0  0  0
 14 25  1  0  0  0  0
 15  4  1  0  0  0  0
 15  5  1  0  0  0  0
 17 10  1  0  0  0  0
 17 28  1  0  0  0  0
 18  1  1  0  0  0  0
 18 20  2  0  0  0  0
 19  6  1  1  0  0  0
 20 13  1  0  0  0  0
 21 26  2  0  0  0  0
 22 10  2  0  0  0  0
 23 21  1  0  0  0  0
 23  4  2  0  0  0  0
 24 22  1  0  0  0  0
 25 17  1  0  0  0  0
 27  2  1  0  0  0  0
 27  9  1  0  0  0  0
 28 29  1  0  0  0  0
 30 33  2  0  0  0  0
 31 33  1  0  0  0  0
 32 29  1  1  0  0  0
 32 31  1  0  0  0  0
 34 32  1  0  0  0  0
 34 30  1  0  0  0  0
M  END
>  <MODEL>
5

>  <REMARK>
 VINA RESULT:      -8.5      1.927      8.798
  Name = 
  3 active torsions:
  status: ('A' for Active; 'I' for Inactive)
    1  A    between atoms: N_17  and  C_28
    2  A    between atoms: C_28  and  N_29
    3  A    between atoms: N_29  and  C_32
                            x       y       z     vdW  Elec       q    Type
                         _______ _______ _______ _____ _____    ______ ____

>  <TORSDO>
F 3

$$$$
