=
 OpenBabel11122412333D

 30 35  0  0  1  0  0  0  0  0999 V2000
  161.1720  204.8170  148.3900 C   0  0  1  0  0  3  0  0  0  0  0  0
  161.1420  202.3640  147.6680 C   0  0  0  0  0  0  0  0  0  0  0  0
  161.0570  203.6970  152.3760 C   0  0  0  0  0  3  0  0  0  0  0  0
  161.6080  205.6610  149.6080 C   0  0  1  0  0  3  0  0  0  0  0  0
  162.0190  205.1010  147.3010 O   0  0  0  0  0  0  0  0  0  0  0  0
  161.8560  208.6580  147.5200 O   0  0  0  0  0  0  0  0  0  0  0  0
  160.7730  208.4240  151.1780 C   0  0  1  0  0  3  0  0  0  0  0  0
  161.7390  207.4510  147.8610 C   0  0  0  0  0  0  0  0  0  0  0  0
  160.4760  207.3880  152.2790 C   0  0  2  0  0  3  0  0  0  0  0  0
  161.1270  205.0160  152.9670 C   0  0  0  0  0  0  0  0  0  0  0  0
  161.6840  206.3840  146.7980 C   0  0  2  0  0  3  0  0  0  0  0  0
  161.6410  207.0870  149.2510 N   0  0  0  0  0  0  0  0  0  0  0  0
  161.0360  201.0040  147.9710 C   0  0  0  0  0  3  0  0  0  0  0  0
  161.0900  208.0150  153.4830 C   0  0  0  0  0  2  0  0  0  0  0  0
  161.0730  209.6950  151.9670 C   0  0  0  0  0  2  0  0  0  0  0  0
  161.2750  202.7320  146.3690 F   0  0  0  0  0  0  0  0  0  0  0  0
  160.7950  203.9080  151.0920 C   0  0  0  0  0  0  0  0  0  0  0  0
  160.8680  200.5860  149.2930 C   0  0  0  0  0  3  0  0  0  0  0  0
  161.1020  203.3260  148.6970 C   0  0  0  0  0  0  0  0  0  0  0  0
  160.6480  205.3620  150.7560 C   0  0  1  0  0  3  0  0  0  0  0  0
  161.2860  205.2260  154.1980 O   0  0  0  0  0  0  0  0  0  0  0  0
  160.9990  206.0510  151.9910 N   0  0  0  0  0  0  0  0  0  0  0  0
  161.3880  209.2420  153.2950 N   0  0  0  0  0  2  0  0  0  0  0  0
  163.2810  207.8110  150.9630 C   0  0  0  0  0  1  0  0  0  0  0  0
  160.7870  201.5270  150.3180 C   0  0  0  0  0  3  0  0  0  0  0  0
  160.8810  202.8950  150.0270 C   0  0  0  0  0  0  0  0  0  0  0  0
  161.9630  208.1070  150.2520 C   0  0  2  0  0  3  0  0  0  0  0  0
  160.3430  206.3870  146.0710 C   0  0  0  0  0  2  0  0  0  0  0  0
  161.4130  205.7030  144.1180 C   0  0  0  0  0  1  0  0  0  0  0  0
  160.3390  205.3700  145.0340 N   0  0  0  0  0  2  0  0  0  0  0  0
  1  5  1  6  0  0  0
  1 19  1  0  0  0  0
  1  4  1  0  0  0  0
  2 13  2  0  0  0  0
  2 19  1  0  0  0  0
  3 10  1  0  0  0  0
  4 12  1  6  0  0  0
  4 20  1  0  0  0  0
  6  8  2  0  0  0  0
  7 15  1  1  0  0  0
  7  9  1  0  0  0  0
  8 12  1  0  0  0  0
  9 14  1  1  0  0  0
 10 21  2  0  0  0  0
 11 28  1  1  0  0  0
 11  5  1  0  0  0  0
 11  8  1  0  0  0  0
 12 27  1  0  0  0  0
 13 18  1  0  0  0  0
 15 23  1  0  0  0  0
 16  2  1  0  0  0  0
 17  3  2  0  0  0  0
 18 25  2  0  0  0  0
 19 26  2  0  0  0  0
 20 17  1  1  0  0  0
 20 22  1  0  0  0  0
 22  9  1  0  0  0  0
 22 10  1  0  0  0  0
 23 14  1  0  0  0  0
 26 25  1  0  0  0  0
 26 17  1  0  0  0  0
 27 24  1  1  0  0  0
 27  7  1  0  0  0  0
 29 30  1  0  0  0  0
 30 28  1  0  0  0  0
M  END
>  <MODEL>
1

>  <REMARK>
 VINA RESULT:      -8.1      0.000      0.000
  Name = 
  2 active torsions:
  status: ('A' for Active; 'I' for Inactive)
    1  A    between atoms: C_11  and  C_28
    2  A    between atoms: C_28  and  N_30
                            x       y       z     vdW  Elec       q    Type
                         _______ _______ _______ _____ _____    ______ ____

>  <TORSDO>
F 2

$$$$
=
 OpenBabel11122412333D

 30 35  0  0  1  0  0  0  0  0999 V2000
  161.3960  206.3160  149.9770 C   0  0  1  0  0  3  0  0  0  0  0  0
  161.5770  203.7710  149.7920 C   0  0  0  0  0  0  0  0  0  0  0  0
  160.9180  206.0340  154.0810 C   0  0  0  0  0  3  0  0  0  0  0  0
  161.6530  207.4220  151.0230 C   0  0  1  0  0  3  0  0  0  0  0  0
  162.3370  206.4340  148.9360 O   0  0  0  0  0  0  0  0  0  0  0  0
  161.9570  209.9370  148.3790 O   0  0  0  0  0  0  0  0  0  0  0  0
  160.5040  210.3770  151.8860 C   0  0  1  0  0  3  0  0  0  0  0  0
  161.8710  208.8200  148.9560 C   0  0  0  0  0  0  0  0  0  0  0  0
  160.1490  209.5710  153.1500 C   0  0  2  0  0  3  0  0  0  0  0  0
  160.8520  207.4480  154.3820 C   0  0  0  0  0  0  0  0  0  0  0  0
  161.9880  207.5560  148.1430 C   0  0  2  0  0  3  0  0  0  0  0  0
  161.6450  208.7430  150.3760 N   0  0  0  0  0  0  0  0  0  0  0  0
  161.5140  202.4990  150.3660 C   0  0  0  0  0  3  0  0  0  0  0  0
  160.5960  210.4770  154.2450 C   0  0  0  0  0  2  0  0  0  0  0  0
  160.6490  211.8030  152.4130 C   0  0  0  0  0  2  0  0  0  0  0  0
  161.8280  203.8740  148.4630 F   0  0  0  0  0  0  0  0  0  0  0  0
  160.7830  205.9560  152.7630 C   0  0  0  0  0  0  0  0  0  0  0  0
  161.2290  202.3500  151.7250 C   0  0  0  0  0  3  0  0  0  0  0  0
  161.3750  204.9190  150.5850 C   0  0  0  0  0  0  0  0  0  0  0  0
  160.5930  207.2940  152.1140 C   0  0  1  0  0  3  0  0  0  0  0  0
  160.8670  207.9170  155.5510 O   0  0  0  0  0  0  0  0  0  0  0  0
  160.7720  208.2470  153.2020 N   0  0  0  0  0  0  0  0  0  0  0  0
  160.8440  211.6580  153.8290 N   0  0  0  0  0  2  0  0  0  0  0  0
  163.0510  209.9260  152.0400 C   0  0  0  0  0  1  0  0  0  0  0  0
  160.9880  203.4730  152.5150 C   0  0  0  0  0  3  0  0  0  0  0  0
  161.0370  204.7550  151.9500 C   0  0  0  0  0  0  0  0  0  0  0  0
  161.8020  209.9690  151.1630 C   0  0  2  0  0  3  0  0  0  0  0  0
  160.7340  207.3080  147.3110 C   0  0  0  0  0  2  0  0  0  0  0  0
  160.2490  206.2670  145.2840 C   0  0  0  0  0  1  0  0  0  0  0  0
  160.8630  206.0590  146.5810 N   0  0  0  0  0  2  0  0  0  0  0  0
  1  5  1  6  0  0  0
  1 19  1  0  0  0  0
  1  4  1  0  0  0  0
  2 13  2  0  0  0  0
  2 19  1  0  0  0  0
  3 10  1  0  0  0  0
  4 12  1  6  0  0  0
  4 20  1  0  0  0  0
  6  8  2  0  0  0  0
  7 15  1  1  0  0  0
  7  9  1  0  0  0  0
  8 12  1  0  0  0  0
  9 22  1  0  0  0  0
  9 14  1  1  0  0  0
 10 21  2  0  0  0  0
 11 28  1  1  0  0  0
 11  5  1  0  0  0  0
 11  8  1  0  0  0  0
 12 27  1  0  0  0  0
 13 18  1  0  0  0  0
 15 23  1  0  0  0  0
 16  2  1  0  0  0  0
 17  3  2  0  0  0  0
 18 25  2  0  0  0  0
 19 26  2  0  0  0  0
 20 17  1  1  0  0  0
 20 22  1  0  0  0  0
 22 10  1  0  0  0  0
 23 14  1  0  0  0  0
 26 25  1  0  0  0  0
 26 17  1  0  0  0  0
 27  7  1  0  0  0  0
 27 24  1  1  0  0  0
 29 30  1  0  0  0  0
 30 28  1  0  0  0  0
M  END
>  <MODEL>
2

>  <REMARK>
 VINA RESULT:      -7.5      1.651      2.385
  Name = 
  2 active torsions:
  status: ('A' for Active; 'I' for Inactive)
    1  A    between atoms: C_11  and  C_28
    2  A    between atoms: C_28  and  N_30
                            x       y       z     vdW  Elec       q    Type
                         _______ _______ _______ _____ _____    ______ ____

>  <TORSDO>
F 2

$$$$
=
 OpenBabel11122412333D

 30 35  0  0  1  0  0  0  0  0999 V2000
  161.5430  208.2790  149.2660 C   0  0  1  0  0  3  0  0  0  0  0  0
  161.8160  206.2680  147.7090 C   0  0  0  0  0  0  0  0  0  0  0  0
  161.0180  205.7600  152.5110 C   0  0  0  0  0  3  0  0  0  0  0  0
  161.7470  208.6260  150.7570 C   0  0  1  0  0  3  0  0  0  0  0  0
  162.4950  208.9740  148.4940 O   0  0  0  0  0  0  0  0  0  0  0  0
  162.0000  212.1900  149.9580 O   0  0  0  0  0  0  0  0  0  0  0  0
  160.4830  210.5820  153.0750 C   0  0  1  0  0  3  0  0  0  0  0  0
  161.9450  210.9390  149.8170 C   0  0  0  0  0  0  0  0  0  0  0  0
  160.1380  209.2030  153.6700 C   0  0  2  0  0  3  0  0  0  0  0  0
  160.8980  206.7680  153.5420 C   0  0  0  0  0  0  0  0  0  0  0  0
  162.1180  210.3400  148.4450 C   0  0  2  0  0  3  0  0  0  0  0  0
  161.7010  210.0830  150.9500 N   0  0  0  0  0  0  0  0  0  0  0  0
  161.7900  204.8900  147.4810 C   0  0  0  0  0  3  0  0  0  0  0  0
  160.5380  209.3590  155.0960 C   0  0  0  0  0  2  0  0  0  0  0  0
  160.5700  211.4790  154.3070 C   0  0  0  0  0  2  0  0  0  0  0  0
  162.0820  207.0950  146.6680 F   0  0  0  0  0  0  0  0  0  0  0  0
  160.9050  206.4230  151.3670 C   0  0  0  0  0  0  0  0  0  0  0  0
  161.4910  204.0070  148.5210 C   0  0  0  0  0  3  0  0  0  0  0  0
  161.5630  206.7790  148.9980 C   0  0  0  0  0  0  0  0  0  0  0  0
  160.6770  207.8920  151.5610 C   0  0  1  0  0  3  0  0  0  0  0  0
  160.8810  206.5110  154.7750 O   0  0  0  0  0  0  0  0  0  0  0  0
  160.8070  208.0850  153.0000 N   0  0  0  0  0  0  0  0  0  0  0  0
  160.7510  210.5780  155.4120 N   0  0  0  0  0  2  0  0  0  0  0  0
  163.0420  210.1750  153.0330 C   0  0  0  0  0  1  0  0  0  0  0  0
  161.2000  204.4990  149.7930 C   0  0  0  0  0  3  0  0  0  0  0  0
  161.2120  205.8790  150.0330 C   0  0  0  0  0  0  0  0  0  0  0  0
  161.8040  210.6700  152.2880 C   0  0  2  0  0  3  0  0  0  0  0  0
  160.8850  210.5680  147.5750 C   0  0  0  0  0  2  0  0  0  0  0  0
  159.7330  212.5550  147.1870 C   0  0  0  0  0  1  0  0  0  0  0  0
  160.9760  211.8580  146.9150 N   0  0  0  0  0  2  0  0  0  0  0  0
  1  5  1  6  0  0  0
  1  4  1  0  0  0  0
  2 19  1  0  0  0  0
  3 10  1  0  0  0  0
  4 12  1  6  0  0  0
  4 20  1  0  0  0  0
  7  9  1  0  0  0  0
  7 15  1  1  0  0  0
  8  6  2  0  0  0  0
  8 12  1  0  0  0  0
  9 14  1  1  0  0  0
 10 21  2  0  0  0  0
 11 28  1  6  0  0  0
 11  5  1  0  0  0  0
 11  8  1  0  0  0  0
 12 27  1  0  0  0  0
 13  2  2  0  0  0  0
 13 18  1  0  0  0  0
 14 23  1  0  0  0  0
 15 23  1  0  0  0  0
 16  2  1  0  0  0  0
 17  3  2  0  0  0  0
 18 25  2  0  0  0  0
 19  1  1  0  0  0  0
 19 26  2  0  0  0  0
 20 17  1  1  0  0  0
 20 22  1  0  0  0  0
 22 10  1  0  0  0  0
 22  9  1  0  0  0  0
 25 26  1  0  0  0  0
 26 17  1  0  0  0  0
 27 24  1  1  0  0  0
 27  7  1  0  0  0  0
 30 29  1  0  0  0  0
 30 28  1  0  0  0  0
M  END
>  <MODEL>
3

>  <REMARK>
 VINA RESULT:      -5.7      2.451      3.686
  Name = 
  2 active torsions:
  status: ('A' for Active; 'I' for Inactive)
    1  A    between atoms: C_11  and  C_28
    2  A    between atoms: C_28  and  N_30
                            x       y       z     vdW  Elec       q    Type
                         _______ _______ _______ _____ _____    ______ ____

>  <TORSDO>
F 2

$$$$
