=
 OpenBabel11122413253D

 31 35  0  0  1  0  0  0  0  0999 V2000
  161.3120  200.6740  148.6670 C   0  0  0  0  0  0  0  0  0  0  0  0
  162.0110  204.3780  148.1530 C   0  0  2  0  0  3  0  0  0  0  0  0
  161.2900  204.8000  146.8800 C   0  0  0  0  0  0  0  0  0  0  0  0
  160.1420  204.3120  144.7720 C   0  0  0  0  0  0  0  0  0  0  0  0
  161.4850  203.0950  148.7570 C   0  0  0  0  0  0  0  0  0  0  0  0
  160.4630  200.6890  149.7740 C   0  0  0  0  0  3  0  0  0  0  0  0
  160.7410  203.8970  146.0520 C   0  0  0  0  0  3  0  0  0  0  0  0
  160.6440  205.6330  149.8540 C   0  0  2  0  0  3  0  0  0  0  0  0
  161.6400  199.4990  148.0800 F   0  0  0  0  0  0  0  0  0  0  0  0
  161.8940  207.1440  147.2490 C   0  0  0  0  0  3  0  0  0  0  0  0
  159.5990  203.4590  144.0240 O   0  0  0  0  0  0  0  0  0  0  0  0
  160.3470  204.3660  150.6490 C   0  0  0  0  0  2  0  0  0  0  0  0
  162.0220  205.5230  149.1850 C   0  0  2  0  0  3  0  0  0  0  0  0
  161.8220  201.8720  148.1620 C   0  0  0  0  0  3  0  0  0  0  0  0
  160.1930  205.7270  144.3660 C   0  0  0  0  0  3  0  0  0  0  0  0
  160.6270  203.1060  149.8800 C   0  0  0  0  0  0  0  0  0  0  0  0
  160.1300  201.9000  150.3850 C   0  0  0  0  0  3  0  0  0  0  0  0
  162.3910  206.7850  148.5420 N   0  0  0  0  0  2  0  0  0  0  0  0
  161.3310  206.2280  146.4630 C   0  0  0  0  0  0  0  0  0  0  0  0
  160.7610  206.6340  145.1650 C   0  0  0  0  0  3  0  0  0  0  0  0
  162.2470  205.9390  152.1790 O   0  0  0  0  0  0  0  0  0  0  0  0
  161.4100  206.8520  151.9350 C   0  0  0  0  0  0  0  0  0  0  0  0
  160.6000  206.7740  150.7570 N   0  0  0  0  0  2  0  0  0  0  0  0
  161.0080  210.2400  154.5360 C   0  0  0  0  0  0  0  0  0  0  0  0
  161.5160  209.2960  152.3690 C   0  0  0  0  0  3  0  0  0  0  0  0
  160.6220  206.6150  154.7210 F   0  0  0  0  0  0  0  0  0  0  0  0
  160.8720  211.4220  155.4260 C   0  0  0  0  0  1  0  0  0  0  0  0
  161.3890  210.4070  153.2050 C   0  0  0  0  0  3  0  0  0  0  0  0
  160.8790  207.8420  154.2020 C   0  0  0  0  0  0  0  0  0  0  0  0
  161.2650  208.0030  152.8530 C   0  0  0  0  0  0  0  0  0  0  0  0
  160.7530  208.9600  155.0320 C   0  0  0  0  0  3  0  0  0  0  0  0
  1  6  1  0  0  0  0
  2  3  1  6  0  0  0
  2  5  1  0  0  0  0
  2 13  1  0  0  0  0
  4  7  1  0  0  0  0
  5 16  2  0  0  0  0
  6 17  2  0  0  0  0
  7  3  2  0  0  0  0
  8 12  1  0  0  0  0
  8 23  1  1  0  0  0
  9  1  1  0  0  0  0
 10 18  1  0  0  0  0
 11  4  2  0  0  0  0
 13 18  1  6  0  0  0
 13  8  1  0  0  0  0
 14  1  2  0  0  0  0
 14  5  1  0  0  0  0
 15  4  1  0  0  0  0
 15 20  2  0  0  0  0
 16 17  1  0  0  0  0
 16 12  1  0  0  0  0
 19  3  1  0  0  0  0
 19 10  2  0  0  0  0
 20 19  1  0  0  0  0
 22 21  2  0  0  0  0
 22 30  1  0  0  0  0
 23 22  1  0  0  0  0
 24 31  1  0  0  0  0
 24 27  1  0  0  0  0
 25 30  2  0  0  0  0
 25 28  1  0  0  0  0
 28 24  2  0  0  0  0
 29 26  1  0  0  0  0
 29 31  2  0  0  0  0
 30 29  1  0  0  0  0
M  END
>  <MODEL>
1

>  <REMARK>
 VINA RESULT:      -7.6      0.000      0.000
  Name = 
  2 active torsions:
  status: ('A' for Active; 'I' for Inactive)
    1  A    between atoms: C_5  and  C_30
    2  A    between atoms: C_10  and  N_16
                            x       y       z     vdW  Elec       q    Type
                         _______ _______ _______ _____ _____    ______ ____

>  <TORSDO>
F 2

$$$$
=
 OpenBabel11122413253D

 31 35  0  0  1  0  0  0  0  0999 V2000
  161.3970  200.6110  148.6340 C   0  0  0  0  0  0  0  0  0  0  0  0
  162.0340  204.3210  148.0840 C   0  0  2  0  0  3  0  0  0  0  0  0
  161.3030  204.7190  146.8090 C   0  0  0  0  0  0  0  0  0  0  0  0
  160.1600  204.1930  144.7080 C   0  0  0  0  0  0  0  0  0  0  0  0
  161.5290  203.0360  148.7010 C   0  0  0  0  0  0  0  0  0  0  0  0
  160.5490  200.6220  149.7430 C   0  0  0  0  0  3  0  0  0  0  0  0
  160.7680  203.8000  145.9910 C   0  0  0  0  0  3  0  0  0  0  0  0
  160.6490  205.5700  149.7760 C   0  0  2  0  0  3  0  0  0  0  0  0
  161.7420  199.4360  148.0580 F   0  0  0  0  0  0  0  0  0  0  0  0
  161.8690  207.0760  147.1550 C   0  0  0  0  0  3  0  0  0  0  0  0
  159.6290  203.3240  143.9680 O   0  0  0  0  0  0  0  0  0  0  0  0
  160.3740  204.3050  150.5830 C   0  0  0  0  0  2  0  0  0  0  0  0
  162.0270  205.4760  149.1060 C   0  0  2  0  0  3  0  0  0  0  0  0
  161.8860  201.8130  148.1170 C   0  0  0  0  0  3  0  0  0  0  0  0
  160.1870  205.6040  144.2890 C   0  0  0  0  0  3  0  0  0  0  0  0
  160.6730  203.0430  149.8260 C   0  0  0  0  0  0  0  0  0  0  0  0
  160.1970  201.8340  150.3430 C   0  0  0  0  0  3  0  0  0  0  0  0
  162.3750  206.7380  148.4500 N   0  0  0  0  0  2  0  0  0  0  0  0
  161.3200  206.1440  146.3780 C   0  0  0  0  0  0  0  0  0  0  0  0
  160.7410  206.5280  145.0780 C   0  0  0  0  0  3  0  0  0  0  0  0
  162.2620  205.9320  152.0860 O   0  0  0  0  0  0  0  0  0  0  0  0
  161.4050  206.8240  151.8400 C   0  0  0  0  0  0  0  0  0  0  0  0
  160.5880  206.7180  150.6690 N   0  0  0  0  0  2  0  0  0  0  0  0
  160.9270  210.1270  154.5360 C   0  0  0  0  0  0  0  0  0  0  0  0
  161.0010  207.7480  154.1100 C   0  0  0  0  0  3  0  0  0  0  0  0
  161.5600  209.5940  150.9800 F   0  0  0  0  0  0  0  0  0  0  0  0
  160.7590  211.2620  155.4800 C   0  0  0  0  0  1  0  0  0  0  0  0
  160.8430  208.8140  154.9990 C   0  0  0  0  0  3  0  0  0  0  0  0
  161.3270  209.3130  152.2870 C   0  0  0  0  0  0  0  0  0  0  0  0
  161.2430  207.9800  152.7480 C   0  0  0  0  0  0  0  0  0  0  0  0
  161.1680  210.3750  153.1830 C   0  0  0  0  0  3  0  0  0  0  0  0
  1  6  1  0  0  0  0
  2  3  1  6  0  0  0
  2  5  1  0  0  0  0
  2 13  1  0  0  0  0
  4  7  1  0  0  0  0
  5 16  2  0  0  0  0
  6 17  2  0  0  0  0
  7  3  2  0  0  0  0
  8 12  1  0  0  0  0
  8 23  1  1  0  0  0
  9  1  1  0  0  0  0
 10 18  1  0  0  0  0
 11  4  2  0  0  0  0
 13 18  1  6  0  0  0
 13  8  1  0  0  0  0
 14  1  2  0  0  0  0
 14  5  1  0  0  0  0
 15  4  1  0  0  0  0
 15 20  2  0  0  0  0
 16 17  1  0  0  0  0
 16 12  1  0  0  0  0
 19  3  1  0  0  0  0
 19 10  2  0  0  0  0
 20 19  1  0  0  0  0
 22 21  2  0  0  0  0
 22 30  1  0  0  0  0
 23 22  1  0  0  0  0
 24 28  1  0  0  0  0
 24 27  1  0  0  0  0
 25 28  2  0  0  0  0
 26 29  1  0  0  0  0
 29 30  2  0  0  0  0
 29 31  1  0  0  0  0
 30 25  1  0  0  0  0
 31 24  2  0  0  0  0
M  END
>  <MODEL>
2

>  <REMARK>
 VINA RESULT:      -7.4      0.885      1.238
  Name = 
  2 active torsions:
  status: ('A' for Active; 'I' for Inactive)
    1  A    between atoms: C_5  and  C_30
    2  A    between atoms: C_10  and  N_16
                            x       y       z     vdW  Elec       q    Type
                         _______ _______ _______ _____ _____    ______ ____

>  <TORSDO>
F 2

$$$$
=
 OpenBabel11122413253D

 31 35  0  0  1  0  0  0  0  0999 V2000
  162.0870  213.0860  148.5330 C   0  0  0  0  0  0  0  0  0  0  0  0
  162.1220  210.2570  151.0760 C   0  0  2  0  0  3  0  0  0  0  0  0
  160.9380  210.4740  152.0080 C   0  0  0  0  0  0  0  0  0  0  0  0
  159.1540  211.8520  152.9660 C   0  0  0  0  0  0  0  0  0  0  0  0
  162.0050  210.9900  149.7580 C   0  0  0  0  0  0  0  0  0  0  0  0
  161.7120  212.4230  147.3640 C   0  0  0  0  0  3  0  0  0  0  0  0
  160.2270  211.6130  151.9860 C   0  0  0  0  0  3  0  0  0  0  0  0
  161.3490  208.1790  149.8830 C   0  0  2  0  0  3  0  0  0  0  0  0
  162.3040  214.4220  148.5130 F   0  0  0  0  0  0  0  0  0  0  0  0
  161.3660  208.3450  153.1390 C   0  0  0  0  0  3  0  0  0  0  0  0
  158.4730  212.9080  152.9100 O   0  0  0  0  0  0  0  0  0  0  0  0
  161.5130  208.8250  148.5110 C   0  0  0  0  0  2  0  0  0  0  0  0
  162.3840  208.7530  150.8610 C   0  0  2  0  0  3  0  0  0  0  0  0
  162.2340  212.3720  149.7250 C   0  0  0  0  0  3  0  0  0  0  0  0
  158.8910  210.8570  154.0190 C   0  0  0  0  0  3  0  0  0  0  0  0
  161.6290  210.3210  148.5720 C   0  0  0  0  0  0  0  0  0  0  0  0
  161.4940  211.0430  147.3810 C   0  0  0  0  0  3  0  0  0  0  0  0
  162.3440  208.0410  152.1390 N   0  0  0  0  0  2  0  0  0  0  0  0
  160.6600  209.4720  153.0730 C   0  0  0  0  0  0  0  0  0  0  0  0
  159.6080  209.7320  154.0730 C   0  0  0  0  0  3  0  0  0  0  0  0
  160.0010  206.5520  147.9840 O   0  0  0  0  0  0  0  0  0  0  0  0
  160.7770  205.9690  148.7900 C   0  0  0  0  0  0  0  0  0  0  0  0
  161.5140  206.7390  149.7450 N   0  0  0  0  0  2  0  0  0  0  0  0
  161.2590  201.7100  148.5980 C   0  0  0  0  0  0  0  0  0  0  0  0
  161.3310  203.8880  147.5510 C   0  0  0  0  0  3  0  0  0  0  0  0
  160.3180  204.2270  151.0690 F   0  0  0  0  0  0  0  0  0  0  0  0
  161.4300  200.2360  148.5170 C   0  0  0  0  0  1  0  0  0  0  0  0
  161.4920  202.5030  147.4740 C   0  0  0  0  0  3  0  0  0  0  0  0
  160.7020  203.6890  149.8840 C   0  0  0  0  0  0  0  0  0  0  0  0
  160.9350  204.4990  148.7500 C   0  0  0  0  0  0  0  0  0  0  0  0
  160.8650  202.3030  149.7990 C   0  0  0  0  0  3  0  0  0  0  0  0
  1 14  1  0  0  0  0
  2  5  1  6  0  0  0
  2  3  1  0  0  0  0
  3 19  1  0  0  0  0
  4 15  1  0  0  0  0
  6 17  1  0  0  0  0
  6  1  2  0  0  0  0
  7  3  2  0  0  0  0
  7  4  1  0  0  0  0
  8 23  1  6  0  0  0
  8 13  1  0  0  0  0
  9  1  1  0  0  0  0
 11  4  2  0  0  0  0
 12 16  1  0  0  0  0
 12  8  1  0  0  0  0
 13  2  1  0  0  0  0
 13 18  1  1  0  0  0
 14  5  2  0  0  0  0
 15 20  2  0  0  0  0
 16  5  1  0  0  0  0
 17 16  2  0  0  0  0
 18 10  1  0  0  0  0
 19 10  2  0  0  0  0
 19 20  1  0  0  0  0
 21 22  2  0  0  0  0
 22 23  1  0  0  0  0
 24 31  1  0  0  0  0
 25 30  2  0  0  0  0
 27 24  1  0  0  0  0
 28 25  1  0  0  0  0
 28 24  2  0  0  0  0
 29 26  1  0  0  0  0
 30 22  1  0  0  0  0
 30 29  1  0  0  0  0
 31 29  2  0  0  0  0
M  END
>  <MODEL>
3

>  <REMARK>
 VINA RESULT:      -6.7      3.469      8.659
  Name = 
  2 active torsions:
  status: ('A' for Active; 'I' for Inactive)
    1  A    between atoms: C_5  and  C_30
    2  A    between atoms: C_10  and  N_16
                            x       y       z     vdW  Elec       q    Type
                         _______ _______ _______ _____ _____    ______ ____

>  <TORSDO>
F 2

$$$$
=
 OpenBabel11122413253D

 31 35  0  0  1  0  0  0  0  0999 V2000
  161.9860  212.8400  148.7820 C   0  0  0  0  0  0  0  0  0  0  0  0
  162.4050  209.5790  150.6960 C   0  0  2  0  0  3  0  0  0  0  0  0
  161.3910  209.5910  151.8310 C   0  0  0  0  0  0  0  0  0  0  0  0
  159.8030  210.7240  153.3130 C   0  0  0  0  0  0  0  0  0  0  0  0
  162.0830  210.5480  149.5790 C   0  0  0  0  0  0  0  0  0  0  0  0
  161.4180  212.4040  147.5830 C   0  0  0  0  0  3  0  0  0  0  0  0
  160.7000  210.6980  152.1440 C   0  0  0  0  0  3  0  0  0  0  0  0
  161.4240  207.7510  149.2680 C   0  0  2  0  0  3  0  0  0  0  0  0
  162.2130  214.1600  148.9830 F   0  0  0  0  0  0  0  0  0  0  0  0
  161.9750  207.2940  152.4490 C   0  0  0  0  0  3  0  0  0  0  0  0
  159.1340  211.7570  153.5710 O   0  0  0  0  0  0  0  0  0  0  0  0
  161.3690  208.6500  148.0380 C   0  0  0  0  0  2  0  0  0  0  0  0
  162.6120  208.1490  150.1570 C   0  0  2  0  0  3  0  0  0  0  0  0
  162.3190  211.9150  149.7740 C   0  0  0  0  0  3  0  0  0  0  0  0
  159.7050  209.5420  154.1840 C   0  0  0  0  0  3  0  0  0  0  0  0
  161.5100  210.1100  148.3640 C   0  0  0  0  0  0  0  0  0  0  0  0
  161.1900  211.0420  147.3720 C   0  0  0  0  0  3  0  0  0  0  0  0
  162.7720  207.2060  151.2650 N   0  0  0  0  0  2  0  0  0  0  0  0
  161.2800  208.3980  152.7160 C   0  0  0  0  0  0  0  0  0  0  0  0
  160.4080  208.4410  153.9040 C   0  0  0  0  0  3  0  0  0  0  0  0
  159.7380  205.6190  150.0940 O   0  0  0  0  0  0  0  0  0  0  0  0
  160.6880  205.3300  149.3150 C   0  0  0  0  0  0  0  0  0  0  0  0
  161.5480  206.3680  148.8330 N   0  0  0  0  0  2  0  0  0  0  0  0
  161.3260  201.2470  148.1620 C   0  0  0  0  0  0  0  0  0  0  0  0
  160.8310  202.9080  149.8480 C   0  0  0  0  0  3  0  0  0  0  0  0
  161.2960  204.5400  146.5870 F   0  0  0  0  0  0  0  0  0  0  0  0
  161.5450  199.8290  147.7770 C   0  0  0  0  0  1  0  0  0  0  0  0
  161.0370  201.5750  149.4870 C   0  0  0  0  0  3  0  0  0  0  0  0
  161.2060  203.5910  147.5520 C   0  0  0  0  0  0  0  0  0  0  0  0
  160.9130  203.9310  148.8910 C   0  0  0  0  0  0  0  0  0  0  0  0
  161.4110  202.2540  147.1980 C   0  0  0  0  0  3  0  0  0  0  0  0
  1  9  1  0  0  0  0
  1 14  1  0  0  0  0
  2  5  1  6  0  0  0
  2  3  1  0  0  0  0
  3  7  2  0  0  0  0
  3 19  1  0  0  0  0
  4 11  2  0  0  0  0
  4 15  1  0  0  0  0
  5 14  2  0  0  0  0
  6  1  2  0  0  0  0
  7  4  1  0  0  0  0
  8 23  1  6  0  0  0
  8 13  1  0  0  0  0
 10 19  2  0  0  0  0
 12 16  1  0  0  0  0
 12  8  1  0  0  0  0
 13  2  1  0  0  0  0
 13 18  1  1  0  0  0
 16  5  1  0  0  0  0
 17  6  1  0  0  0  0
 17 16  2  0  0  0  0
 18 10  1  0  0  0  0
 19 20  1  0  0  0  0
 20 15  2  0  0  0  0
 22 21  2  0  0  0  0
 23 22  1  0  0  0  0
 24 28  1  0  0  0  0
 26 29  1  0  0  0  0
 27 24  1  0  0  0  0
 28 25  2  0  0  0  0
 29 30  2  0  0  0  0
 30 22  1  0  0  0  0
 30 25  1  0  0  0  0
 31 29  1  0  0  0  0
 31 24  2  0  0  0  0
M  END
>  <MODEL>
4

>  <REMARK>
 VINA RESULT:      -6.4      3.213      8.640
  Name = 
  2 active torsions:
  status: ('A' for Active; 'I' for Inactive)
    1  A    between atoms: C_5  and  C_30
    2  A    between atoms: C_10  and  N_16
                            x       y       z     vdW  Elec       q    Type
                         _______ _______ _______ _____ _____    ______ ____

>  <TORSDO>
F 2

$$$$
=
 OpenBabel11122413253D

 31 35  0  0  1  0  0  0  0  0999 V2000
  161.2550  205.6480  145.7310 C   0  0  0  0  0  0  0  0  0  0  0  0
  160.3470  204.7490  149.3150 C   0  0  2  0  0  3  0  0  0  0  0  0
  160.8330  203.3270  149.5590 C   0  0  0  0  0  0  0  0  0  0  0  0
  161.6330  201.1440  148.7880 C   0  0  0  0  0  0  0  0  0  0  0  0
  161.0130  205.4290  148.1380 C   0  0  0  0  0  0  0  0  0  0  0  0
  162.2750  206.5840  145.9150 C   0  0  0  0  0  3  0  0  0  0  0  0
  161.2690  202.5520  148.5530 C   0  0  0  0  0  3  0  0  0  0  0  0
  161.9310  206.0030  150.8170 C   0  0  2  0  0  3  0  0  0  0  0  0
  160.8770  205.2950  144.4800 F   0  0  0  0  0  0  0  0  0  0  0  0
  160.2140  203.4620  151.9240 C   0  0  0  0  0  3  0  0  0  0  0  0
  162.0750  200.4410  147.8430 O   0  0  0  0  0  0  0  0  0  0  0  0
  162.4010  206.9050  149.6810 C   0  0  0  0  0  2  0  0  0  0  0  0
  160.4660  205.5990  150.5960 C   0  0  2  0  0  3  0  0  0  0  0  0
  160.6250  205.0750  146.8390 C   0  0  0  0  0  3  0  0  0  0  0  0
  161.4650  200.5600  150.1290 C   0  0  0  0  0  3  0  0  0  0  0  0
  162.0430  206.3780  148.3200 C   0  0  0  0  0  0  0  0  0  0  0  0
  162.6600  206.9540  147.2050 C   0  0  0  0  0  3  0  0  0  0  0  0
  159.9510  204.8580  151.7480 N   0  0  0  0  0  2  0  0  0  0  0  0
  160.6710  202.7280  150.9120 C   0  0  0  0  0  0  0  0  0  0  0  0
  161.0040  201.3090  151.1340 C   0  0  0  0  0  3  0  0  0  0  0  0
  160.4290  208.2870  151.5900 O   0  0  0  0  0  0  0  0  0  0  0  0
  161.3190  207.8880  152.3910 C   0  0  0  0  0  0  0  0  0  0  0  0
  162.0830  206.7190  152.0760 N   0  0  0  0  0  2  0  0  0  0  0  0
  162.0750  210.0590  156.0140 C   0  0  0  0  0  0  0  0  0  0  0  0
  162.0540  209.9310  153.6000 C   0  0  0  0  0  3  0  0  0  0  0  0
  160.8750  206.7550  155.0290 F   0  0  0  0  0  0  0  0  0  0  0  0
  162.3410  210.8220  157.2610 C   0  0  0  0  0  1  0  0  0  0  0  0
  162.3040  210.6490  154.7710 C   0  0  0  0  0  3  0  0  0  0  0  0
  161.3420  208.0240  154.9180 C   0  0  0  0  0  0  0  0  0  0  0  0
  161.5720  208.6140  153.6550 C   0  0  0  0  0  0  0  0  0  0  0  0
  161.5950  208.7490  156.0860 C   0  0  0  0  0  3  0  0  0  0  0  0
  1  6  2  0  0  0  0
  1 14  1  0  0  0  0
  2  5  1  6  0  0  0
  2  3  1  0  0  0  0
  2 13  1  0  0  0  0
  3 19  1  0  0  0  0
  4 15  1  0  0  0  0
  5 16  1  0  0  0  0
  6 17  1  0  0  0  0
  7  4  1  0  0  0  0
  7  3  2  0  0  0  0
  8 23  1  1  0  0  0
  9  1  1  0  0  0  0
 11  4  2  0  0  0  0
 12  8  1  0  0  0  0
 13  8  1  0  0  0  0
 13 18  1  1  0  0  0
 14  5  2  0  0  0  0
 15 20  2  0  0  0  0
 16 12  1  0  0  0  0
 17 16  2  0  0  0  0
 18 10  1  0  0  0  0
 19 20  1  0  0  0  0
 19 10  2  0  0  0  0
 21 22  2  0  0  0  0
 22 30  1  0  0  0  0
 23 22  1  0  0  0  0
 24 31  1  0  0  0  0
 24 27  1  0  0  0  0
 25 30  2  0  0  0  0
 25 28  1  0  0  0  0
 28 24  2  0  0  0  0
 29 26  1  0  0  0  0
 29 31  2  0  0  0  0
 30 29  1  0  0  0  0
M  END
>  <MODEL>
5

>  <REMARK>
 VINA RESULT:      -5.1      2.099      4.245
  Name = 
  2 active torsions:
  status: ('A' for Active; 'I' for Inactive)
    1  A    between atoms: C_5  and  C_30
    2  A    between atoms: C_10  and  N_16
                            x       y       z     vdW  Elec       q    Type
                         _______ _______ _______ _____ _____    ______ ____

>  <TORSDO>
F 2

$$$$
=
 OpenBabel11122413253D

 31 35  0  0  1  0  0  0  0  0999 V2000
  161.3160  205.3560  145.4050 C   0  0  0  0  0  0  0  0  0  0  0  0
  160.3480  204.5830  149.0030 C   0  0  2  0  0  3  0  0  0  0  0  0
  160.7960  203.1570  149.2930 C   0  0  0  0  0  0  0  0  0  0  0  0
  161.5520  200.9340  148.5950 C   0  0  0  0  0  0  0  0  0  0  0  0
  161.0420  205.2120  147.8150 C   0  0  0  0  0  0  0  0  0  0  0  0
  162.3560  206.2720  145.5740 C   0  0  0  0  0  3  0  0  0  0  0  0
  161.2250  202.3430  148.3150 C   0  0  0  0  0  3  0  0  0  0  0  0
  161.9450  205.8420  150.4870 C   0  0  2  0  0  3  0  0  0  0  0  0
  160.9440  204.9750  144.1610 F   0  0  0  0  0  0  0  0  0  0  0  0
  160.1550  203.3760  151.6460 C   0  0  0  0  0  3  0  0  0  0  0  0
  161.9870  200.1940  147.6760 O   0  0  0  0  0  0  0  0  0  0  0  0
  162.4490  206.6990  149.3300 C   0  0  0  0  0  2  0  0  0  0  0  0
  160.4730  205.4660  150.2600 C   0  0  2  0  0  3  0  0  0  0  0  0
  160.6610  204.8300  146.5220 C   0  0  0  0  0  3  0  0  0  0  0  0
  161.3550  200.3940  149.9500 C   0  0  0  0  0  3  0  0  0  0  0  0
  162.0940  206.1410  147.9820 C   0  0  0  0  0  0  0  0  0  0  0  0
  162.7360  206.6700  146.8580 C   0  0  0  0  0  3  0  0  0  0  0  0
  159.9270  204.7720  151.4270 N   0  0  0  0  0  2  0  0  0  0  0  0
  160.6060  202.6020  150.6610 C   0  0  0  0  0  0  0  0  0  0  0  0
  160.9020  201.1820  150.9280 C   0  0  0  0  0  3  0  0  0  0  0  0
  160.3880  208.0940  151.2420 O   0  0  0  0  0  0  0  0  0  0  0  0
  161.3060  207.7410  152.0330 C   0  0  0  0  0  0  0  0  0  0  0  0
  162.1000  206.5900  151.7260 N   0  0  0  0  0  2  0  0  0  0  0  0
  162.0300  209.8850  155.6780 C   0  0  0  0  0  0  0  0  0  0  0  0
  161.3260  207.8860  154.5130 C   0  0  0  0  0  3  0  0  0  0  0  0
  162.2900  210.4730  152.0850 F   0  0  0  0  0  0  0  0  0  0  0  0
  162.2760  210.6150  156.9480 C   0  0  0  0  0  1  0  0  0  0  0  0
  161.5570  208.5730  155.7070 C   0  0  0  0  0  3  0  0  0  0  0  0
  162.0420  209.8310  153.2540 C   0  0  0  0  0  0  0  0  0  0  0  0
  161.5630  208.5020  153.2740 C   0  0  0  0  0  0  0  0  0  0  0  0
  162.2710  210.5110  154.4530 C   0  0  0  0  0  3  0  0  0  0  0  0
  1  6  2  0  0  0  0
  1 14  1  0  0  0  0
  2  5  1  6  0  0  0
  2  3  1  0  0  0  0
  2 13  1  0  0  0  0
  3 19  1  0  0  0  0
  4 15  1  0  0  0  0
  5 16  1  0  0  0  0
  6 17  1  0  0  0  0
  7  4  1  0  0  0  0
  7  3  2  0  0  0  0
  8 23  1  1  0  0  0
  9  1  1  0  0  0  0
 11  4  2  0  0  0  0
 12  8  1  0  0  0  0
 13  8  1  0  0  0  0
 13 18  1  1  0  0  0
 14  5  2  0  0  0  0
 15 20  2  0  0  0  0
 16 12  1  0  0  0  0
 17 16  2  0  0  0  0
 18 10  1  0  0  0  0
 19 20  1  0  0  0  0
 19 10  2  0  0  0  0
 21 22  2  0  0  0  0
 22 30  1  0  0  0  0
 23 22  1  0  0  0  0
 24 28  1  0  0  0  0
 24 27  1  0  0  0  0
 25 28  2  0  0  0  0
 26 29  1  0  0  0  0
 29 30  2  0  0  0  0
 29 31  1  0  0  0  0
 30 25  1  0  0  0  0
 31 24  2  0  0  0  0
M  END
>  <MODEL>
6

>  <REMARK>
 VINA RESULT:      -5.0      2.225      4.342
  Name = 
  2 active torsions:
  status: ('A' for Active; 'I' for Inactive)
    1  A    between atoms: C_5  and  C_30
    2  A    between atoms: C_10  and  N_16
                            x       y       z     vdW  Elec       q    Type
                         _______ _______ _______ _____ _____    ______ ____

>  <TORSDO>
F 2

$$$$
=
 OpenBabel11122413253D

 31 35  0  0  1  0  0  0  0  0999 V2000
  161.3500  201.6110  150.4970 C   0  0  0  0  0  0  0  0  0  0  0  0
  161.9720  204.1090  147.6960 C   0  0  2  0  0  3  0  0  0  0  0  0
  161.1010  203.6920  146.5190 C   0  0  0  0  0  0  0  0  0  0  0  0
  159.7080  202.0770  145.3150 C   0  0  0  0  0  0  0  0  0  0  0  0
  161.5260  203.5330  149.0220 C   0  0  0  0  0  0  0  0  0  0  0  0
  160.6410  202.3810  151.4220 C   0  0  0  0  0  3  0  0  0  0  0  0
  160.4580  202.5130  146.5050 C   0  0  0  0  0  3  0  0  0  0  0  0
  160.8170  206.2510  148.3420 C   0  0  2  0  0  3  0  0  0  0  0  0
  161.6070  200.3080  150.7570 F   0  0  0  0  0  0  0  0  0  0  0  0
  161.7390  205.6960  145.2650 C   0  0  0  0  0  3  0  0  0  0  0  0
  159.0800  200.9870  145.3290 O   0  0  0  0  0  0  0  0  0  0  0  0
  160.6220  205.7890  149.7830 C   0  0  0  0  0  2  0  0  0  0  0  0
  162.1050  205.6440  147.7660 C   0  0  2  0  0  3  0  0  0  0  0  0
  161.7920  202.1860  149.3030 C   0  0  0  0  0  3  0  0  0  0  0  0
  159.7060  202.9150  144.1040 C   0  0  0  0  0  3  0  0  0  0  0  0
  160.8100  204.3100  149.9610 C   0  0  0  0  0  0  0  0  0  0  0  0
  160.3810  203.7280  151.1580 C   0  0  0  0  0  3  0  0  0  0  0  0
  162.3900  206.1910  146.4390 N   0  0  0  0  0  2  0  0  0  0  0  0
  161.0880  204.5350  145.2920 C   0  0  0  0  0  0  0  0  0  0  0  0
  160.3640  204.0770  144.0920 C   0  0  0  0  0  3  0  0  0  0  0  0
  162.6720  207.8280  149.8050 O   0  0  0  0  0  0  0  0  0  0  0  0
  161.8170  208.4450  149.1110 C   0  0  0  0  0  0  0  0  0  0  0  0
  160.8800  207.7050  148.3220 N   0  0  0  0  0  2  0  0  0  0  0  0
  161.7220  212.7330  149.0080 C   0  0  0  0  0  0  0  0  0  0  0  0
  161.9520  210.6030  147.8870 C   0  0  0  0  0  3  0  0  0  0  0  0
  161.4060  210.0690  151.4840 F   0  0  0  0  0  0  0  0  0  0  0  0
  161.6920  214.2180  148.9580 C   0  0  0  0  0  1  0  0  0  0  0  0
  161.9230  211.9980  147.8390 C   0  0  0  0  0  3  0  0  0  0  0  0
  161.5780  210.6750  150.2820 C   0  0  0  0  0  0  0  0  0  0  0  0
  161.7810  209.9230  149.1040 C   0  0  0  0  0  0  0  0  0  0  0  0
  161.5500  212.0710  150.2260 C   0  0  0  0  0  3  0  0  0  0  0  0
  1  9  1  0  0  0  0
  1  6  1  0  0  0  0
  2  3  1  6  0  0  0
  2 13  1  0  0  0  0
  2  5  1  0  0  0  0
  4 11  2  0  0  0  0
  4  7  1  0  0  0  0
  5 14  1  0  0  0  0
  5 16  2  0  0  0  0
  7  3  2  0  0  0  0
  8 23  1  1  0  0  0
  8 12  1  0  0  0  0
 10 19  2  0  0  0  0
 10 18  1  0  0  0  0
 12 16  1  0  0  0  0
 13 18  1  6  0  0  0
 13  8  1  0  0  0  0
 14  1  2  0  0  0  0
 15  4  1  0  0  0  0
 16 17  1  0  0  0  0
 17  6  2  0  0  0  0
 19  3  1  0  0  0  0
 20 15  2  0  0  0  0
 20 19  1  0  0  0  0
 22 21  2  0  0  0  0
 23 22  1  0  0  0  0
 24 31  1  0  0  0  0
 25 30  2  0  0  0  0
 27 24  1  0  0  0  0
 28 25  1  0  0  0  0
 28 24  2  0  0  0  0
 29 26  1  0  0  0  0
 30 22  1  0  0  0  0
 30 29  1  0  0  0  0
 31 29  2  0  0  0  0
M  END
>  <MODEL>
7

>  <REMARK>
 VINA RESULT:      -4.9      2.627      3.348
  Name = 
  2 active torsions:
  status: ('A' for Active; 'I' for Inactive)
    1  A    between atoms: C_5  and  C_30
    2  A    between atoms: C_10  and  N_16
                            x       y       z     vdW  Elec       q    Type
                         _______ _______ _______ _____ _____    ______ ____

>  <TORSDO>
F 2

$$$$
=
 OpenBabel11122413253D

 31 35  0  0  1  0  0  0  0  0999 V2000
  162.7400  211.7230  138.6310 C   0  0  0  0  0  0  0  0  0  0  0  0
  159.5890  213.3300  140.0320 C   0  0  2  0  0  3  0  0  0  0  0  0
  158.4070  212.5150  139.5290 C   0  0  0  0  0  0  0  0  0  0  0  0
  157.3840  210.8690  138.0300 C   0  0  0  0  0  0  0  0  0  0  0  0
  160.9100  212.5940  139.9690 C   0  0  0  0  0  0  0  0  0  0  0  0
  163.3120  211.1580  139.7730 C   0  0  0  0  0  3  0  0  0  0  0  0
  158.5540  211.5740  138.5830 C   0  0  0  0  0  3  0  0  0  0  0  0
  159.4910  212.7560  142.4820 C   0  0  2  0  0  3  0  0  0  0  0  0
  163.3430  211.5730  137.4280 F   0  0  0  0  0  0  0  0  0  0  0  0
  156.8520  213.8250  140.8940 C   0  0  0  0  0  3  0  0  0  0  0  0
  157.5420  209.9640  137.1710 O   0  0  0  0  0  0  0  0  0  0  0  0
  160.9400  212.2790  142.4960 C   0  0  0  0  0  2  0  0  0  0  0  0
  159.3180  213.8780  141.4470 C   0  0  2  0  0  3  0  0  0  0  0  0
  161.5450  212.4390  138.7300 C   0  0  0  0  0  3  0  0  0  0  0  0
  156.0310  211.2380  138.4760 C   0  0  0  0  0  3  0  0  0  0  0  0
  161.4930  212.0240  141.1230 C   0  0  0  0  0  0  0  0  0  0  0  0
  162.6950  211.3170  141.0160 C   0  0  0  0  0  3  0  0  0  0  0  0
  157.9740  214.4530  141.5220 N   0  0  0  0  0  2  0  0  0  0  0  0
  157.0340  212.8760  139.9780 C   0  0  0  0  0  0  0  0  0  0  0  0
  155.8640  212.1920  139.3950 C   0  0  0  0  0  3  0  0  0  0  0  0
  159.8200  211.2690  144.8800 O   0  0  0  0  0  0  0  0  0  0  0  0
  159.2960  212.4130  144.9810 C   0  0  0  0  0  0  0  0  0  0  0  0
  159.1400  213.2260  143.8140 N   0  0  0  0  0  2  0  0  0  0  0  0
  158.0740  213.9230  148.8070 C   0  0  0  0  0  0  0  0  0  0  0  0
  159.7400  213.6800  147.0720 C   0  0  0  0  0  3  0  0  0  0  0  0
  156.6530  211.9410  146.0910 F   0  0  0  0  0  0  0  0  0  0  0  0
  157.6640  214.4520  150.1340 C   0  0  0  0  0  1  0  0  0  0  0  0
  159.3560  214.1780  148.3190 C   0  0  0  0  0  3  0  0  0  0  0  0
  157.5540  212.6680  146.7990 C   0  0  0  0  0  0  0  0  0  0  0  0
  158.8500  212.9210  146.2970 C   0  0  0  0  0  0  0  0  0  0  0  0
  157.1760  213.1690  148.0480 C   0  0  0  0  0  3  0  0  0  0  0  0
  1 14  2  0  0  0  0
  1  6  1  0  0  0  0
  2  3  1  1  0  0  0
  2 13  1  0  0  0  0
  3 19  1  0  0  0  0
  4 15  1  0  0  0  0
  4  7  1  0  0  0  0
  5  2  1  0  0  0  0
  5 16  2  0  0  0  0
  6 17  2  0  0  0  0
  7  3  2  0  0  0  0
  8 12  1  0  0  0  0
  8 23  1  1  0  0  0
  9  1  1  0  0  0  0
 10 18  1  0  0  0  0
 11  4  2  0  0  0  0
 13 18  1  6  0  0  0
 13  8  1  0  0  0  0
 14  5  1  0  0  0  0
 15 20  2  0  0  0  0
 16 12  1  0  0  0  0
 17 16  1  0  0  0  0
 19 10  2  0  0  0  0
 20 19  1  0  0  0  0
 21 22  2  0  0  0  0
 22 30  1  0  0  0  0
 23 22  1  0  0  0  0
 24 27  1  0  0  0  0
 25 28  2  0  0  0  0
 26 29  1  0  0  0  0
 28 24  1  0  0  0  0
 29 31  1  0  0  0  0
 30 29  2  0  0  0  0
 30 25  1  0  0  0  0
 31 24  2  0  0  0  0
M  END
>  <MODEL>
8

>  <REMARK>
 VINA RESULT:      -4.9      9.067     10.926
  Name = 
  2 active torsions:
  status: ('A' for Active; 'I' for Inactive)
    1  A    between atoms: C_5  and  C_30
    2  A    between atoms: C_10  and  N_16
                            x       y       z     vdW  Elec       q    Type
                         _______ _______ _______ _____ _____    ______ ____

>  <TORSDO>
F 2

$$$$
