=
 OpenBabel11122413313D

 31 35  0  0  1  0  0  0  0  0999 V2000
  159.4290  213.2370  156.8080 C   0  0  2  0  0  3  0  0  0  0  0  0
  160.6830  211.0010  154.2400 C   0  0  2  0  0  3  0  0  0  0  0  0
  160.7100  209.4860  154.1910 C   0  0  0  0  0  0  0  0  0  0  0  0
  160.6840  207.3310  155.3110 C   0  0  0  0  0  0  0  0  0  0  0  0
  159.7690  211.5460  155.3480 C   0  0  1  0  0  3  0  0  0  0  0  0
  157.9260  213.3410  156.5500 C   0  0  0  0  0  2  0  0  0  0  0  0
  160.6270  208.7260  155.3670 C   0  0  0  0  0  3  0  0  0  0  0  0
  158.8540  211.4990  152.5290 C   0  0  2  0  0  3  0  0  0  0  0  0
  159.9020  214.4530  157.2610 F   0  0  0  0  0  0  0  0  0  0  0  0
  161.0280  209.5680  151.7770 O   0  0  0  0  0  0  0  0  0  0  0  0
  160.5620  206.3920  156.7830 Cl  0  0  0  0  0  0  0  0  0  0  0  0
  157.9960  212.1040  153.6360 C   0  0  0  0  0  2  0  0  0  0  0  0
  160.3470  211.6320  152.8690 C   0  0  2  0  0  3  0  0  0  0  0  0
  160.0920  212.8910  155.6180 O   0  0  0  0  0  0  0  0  0  0  0  0
  160.8370  206.6850  154.0810 C   0  0  0  0  0  3  0  0  0  0  0  0
  158.2810  211.4070  154.9640 C   0  0  2  0  0  3  0  0  0  0  0  0
  157.4050  211.9850  156.0760 C   0  0  0  0  0  2  0  0  0  0  0  0
  161.2150  210.9830  151.7910 C   0  0  0  0  0  2  0  0  0  0  0  0
  160.9010  208.8310  152.9580 C   0  0  0  0  0  0  0  0  0  0  0  0
  160.9470  207.4350  152.9070 C   0  0  0  0  0  3  0  0  0  0  0  0
  159.0820  214.3090  152.0760 O   0  0  0  0  0  0  0  0  0  0  0  0
  158.7140  213.5880  151.1090 C   0  0  0  0  0  0  0  0  0  0  0  0
  158.5680  212.1770  151.2710 N   0  0  0  0  0  2  0  0  0  0  0  0
  158.1280  213.0830  147.0420 C   0  0  2  0  0  3  0  0  0  0  0  0
  157.1690  213.5990  149.2450 N   0  0  0  0  0  2  0  0  0  0  0  0
  160.8260  214.1120  149.4390 O   0  0  0  0  0  1  0  0  0  0  0  0
  158.3540  213.7200  145.7570 N   0  0  0  0  0  1  0  0  0  0  0  0
  157.0510  213.8570  147.8110 C   0  0  0  0  0  2  0  0  0  0  0  0
  159.5890  214.1580  148.7910 C   0  0  2  0  0  3  0  0  0  0  0  0
  158.3970  214.2090  149.7840 C   0  0  2  0  0  3  0  0  0  0  0  0
  159.4490  212.9940  147.8160 C   0  0  0  0  0  2  0  0  0  0  0  0
  1  9  1  6  0  0  0
  2  3  1  6  0  0  0
  2  5  1  0  0  0  0
  3  7  1  0  0  0  0
  4  7  2  0  0  0  0
  4 11  1  0  0  0  0
  5 14  1  6  0  0  0
  6  1  1  0  0  0  0
  8 23  1  6  0  0  0
  8 13  1  0  0  0  0
  8 12  1  0  0  0  0
 10 18  1  0  0  0  0
 10 19  1  0  0  0  0
 13 18  1  6  0  0  0
 13  2  1  0  0  0  0
 14  1  1  0  0  0  0
 15  4  1  0  0  0  0
 16 12  1  6  0  0  0
 16  5  1  0  0  0  0
 16 17  1  0  0  0  0
 17  6  1  0  0  0  0
 19  3  2  0  0  0  0
 20 19  1  0  0  0  0
 20 15  2  0  0  0  0
 22 23  1  0  0  0  0
 22 21  2  0  0  0  0
 24 27  1  6  0  0  0
 24 28  1  0  0  0  0
 24 31  1  0  0  0  0
 25 30  1  0  0  0  0
 28 25  1  0  0  0  0
 29 26  1  1  0  0  0
 29 30  1  0  0  0  0
 30 22  1  1  0  0  0
 31 29  1  0  0  0  0
M  END
>  <MODEL>
1

>  <REMARK>
 VINA RESULT:      -5.3      0.000      0.000
  Name = 
  2 active torsions:
  status: ('A' for Active; 'I' for Inactive)
    1  A    between atoms: C_5  and  C_30
    2  A    between atoms: C_10  and  N_16
                            x       y       z     vdW  Elec       q    Type
                         _______ _______ _______ _____ _____    ______ ____

>  <TORSDO>
F 2

$$$$
=
 OpenBabel11122413313D

 31 35  0  0  1  0  0  0  0  0999 V2000
  161.3350  205.4900  144.5970 C   0  0  2  0  0  3  0  0  0  0  0  0
  160.4610  204.6000  148.0040 C   0  0  2  0  0  3  0  0  0  0  0  0
  160.7520  203.3370  148.7900 C   0  0  0  0  0  0  0  0  0  0  0  0
  161.2830  200.9680  148.8690 C   0  0  0  0  0  0  0  0  0  0  0  0
  161.2900  204.7060  146.7160 C   0  0  1  0  0  3  0  0  0  0  0  0
  162.7680  206.0150  144.6750 C   0  0  0  0  0  2  0  0  0  0  0  0
  161.0480  202.1330  148.1340 C   0  0  0  0  0  3  0  0  0  0  0  0
  162.0600  206.2400  149.1330 C   0  0  2  0  0  3  0  0  0  0  0  0
  160.6390  206.1990  143.6380 F   0  0  0  0  0  0  0  0  0  0  0  0
  160.3090  204.5260  150.8700 O   0  0  0  0  0  0  0  0  0  0  0  0
  161.6700  199.4770  148.0400 Cl  0  0  0  0  0  0  0  0  0  0  0  0
  162.8230  206.3850  147.8190 C   0  0  0  0  0  2  0  0  0  0  0  0
  160.5910  205.8780  148.8660 C   0  0  2  0  0  3  0  0  0  0  0  0
  160.7050  205.6450  145.8440 O   0  0  0  0  0  0  0  0  0  0  0  0
  161.2120  200.9940  150.2640 C   0  0  0  0  0  3  0  0  0  0  0  0
  162.7540  205.0850  147.0240 C   0  0  2  0  0  3  0  0  0  0  0  0
  163.5410  205.2080  145.7180 C   0  0  0  0  0  2  0  0  0  0  0  0
  159.8290  205.6790  150.1770 C   0  0  0  0  0  2  0  0  0  0  0  0
  160.6440  203.3490  150.1950 C   0  0  0  0  0  0  0  0  0  0  0  0
  160.8920  202.1830  150.9260 C   0  0  0  0  0  3  0  0  0  0  0  0
  162.5530  206.4670  151.9360 O   0  0  0  0  0  0  0  0  0  0  0  0
  162.4000  207.5330  151.2810 C   0  0  0  0  0  0  0  0  0  0  0  0
  162.1380  207.4910  149.8770 N   0  0  0  0  0  2  0  0  0  0  0  0
  160.3580  210.6970  153.0000 C   0  0  2  0  0  3  0  0  0  0  0  0
  161.8210  208.7450  153.2950 N   0  0  0  0  0  2  0  0  0  0  0  0
  161.9750  209.7640  149.7440 O   0  0  0  0  0  1  0  0  0  0  0  0
  160.3920  212.1400  153.1610 N   0  0  0  0  0  1  0  0  0  0  0  0
  161.4870  210.0670  153.8230 C   0  0  0  0  0  2  0  0  0  0  0  0
  161.8860  210.0170  151.1160 C   0  0  2  0  0  3  0  0  0  0  0  0
  162.4620  208.8590  151.9730 C   0  0  2  0  0  3  0  0  0  0  0  0
  160.4490  210.3400  151.5110 C   0  0  0  0  0  2  0  0  0  0  0  0
  1  9  1  6  0  0  0
  1  6  1  0  0  0  0
  1 14  1  0  0  0  0
  2  3  1  1  0  0  0
  2 13  1  0  0  0  0
  3 19  1  0  0  0  0
  4 15  2  0  0  0  0
  5 14  1  6  0  0  0
  5 16  1  0  0  0  0
  5  2  1  0  0  0  0
  6 17  1  0  0  0  0
  7  3  2  0  0  0  0
  7  4  1  0  0  0  0
  8 23  1  6  0  0  0
 11  4  1  0  0  0  0
 12  8  1  0  0  0  0
 13  8  1  0  0  0  0
 13 18  1  1  0  0  0
 15 20  1  0  0  0  0
 16 17  1  6  0  0  0
 16 12  1  0  0  0  0
 18 10  1  0  0  0  0
 19 10  1  0  0  0  0
 19 20  2  0  0  0  0
 22 21  2  0  0  0  0
 23 22  1  0  0  0  0
 24 27  1  6  0  0  0
 24 28  1  0  0  0  0
 25 28  1  0  0  0  0
 29 26  1  6  0  0  0
 29 31  1  0  0  0  0
 29 30  1  0  0  0  0
 30 22  1  6  0  0  0
 30 25  1  0  0  0  0
 31 24  1  0  0  0  0
M  END
>  <MODEL>
2

>  <REMARK>
 VINA RESULT:      -3.9      6.233      9.168
  Name = 
  2 active torsions:
  status: ('A' for Active; 'I' for Inactive)
    1  A    between atoms: C_5  and  C_30
    2  A    between atoms: C_10  and  N_16
                            x       y       z     vdW  Elec       q    Type
                         _______ _______ _______ _____ _____    ______ ____

>  <TORSDO>
F 2

$$$$
=
 OpenBabel11122413313D

 31 35  0  0  1  0  0  0  0  0999 V2000
  162.9580  213.1260  147.9290 C   0  0  2  0  0  3  0  0  0  0  0  0
  161.8840  211.2240  150.8260 C   0  0  2  0  0  3  0  0  0  0  0  0
  160.6050  211.3120  151.6350 C   0  0  0  0  0  0  0  0  0  0  0  0
  158.6600  212.5560  152.3900 C   0  0  0  0  0  0  0  0  0  0  0  0
  161.7970  211.9730  149.4880 C   0  0  1  0  0  3  0  0  0  0  0  0
  162.2990  212.4400  146.7330 C   0  0  0  0  0  2  0  0  0  0  0  0
  159.8200  212.4760  151.6160 C   0  0  0  0  0  3  0  0  0  0  0  0
  161.5090  209.0240  149.5840 C   0  0  2  0  0  3  0  0  0  0  0  0
  164.2050  213.5910  147.5610 F   0  0  0  0  0  0  0  0  0  0  0  0
  161.0250  209.0930  152.5480 O   0  0  0  0  0  0  0  0  0  0  0  0
  157.6800  214.0050  152.3450 Cl  0  0  0  0  0  0  0  0  0  0  0  0
  161.5020  209.7840  148.2610 C   0  0  0  0  0  2  0  0  0  0  0  0
  162.3600  209.7660  150.6270 C   0  0  2  0  0  3  0  0  0  0  0  0
  163.0930  212.2090  148.9860 O   0  0  0  0  0  0  0  0  0  0  0  0
  158.2810  211.4810  153.1980 C   0  0  0  0  0  3  0  0  0  0  0  0
  160.9480  211.1920  148.4640 C   0  0  2  0  0  3  0  0  0  0  0  0
  160.9080  211.9530  147.1390 C   0  0  0  0  0  2  0  0  0  0  0  0
  162.3310  209.0400  151.9730 C   0  0  0  0  0  2  0  0  0  0  0  0
  160.2380  210.2460  152.4800 C   0  0  0  0  0  0  0  0  0  0  0  0
  159.0700  210.3280  153.2440 C   0  0  0  0  0  3  0  0  0  0  0  0
  159.9440  206.6700  149.1840 O   0  0  0  0  0  0  0  0  0  0  0  0
  161.1990  206.5490  149.1630 C   0  0  0  0  0  0  0  0  0  0  0  0
  162.0410  207.6840  149.3690 N   0  0  0  0  0  2  0  0  0  0  0  0
  160.6750  202.4780  148.6290 C   0  0  2  0  0  3  0  0  0  0  0  0
  161.3420  204.6430  147.6780 N   0  0  0  0  0  2  0  0  0  0  0  0
  161.4480  204.9300  151.3630 O   0  0  0  0  0  1  0  0  0  0  0  0
  161.2560  201.1880  148.9580 N   0  0  0  0  0  1  0  0  0  0  0  0
  161.5810  203.2020  147.6260 C   0  0  0  0  0  2  0  0  0  0  0  0
  161.6180  204.2460  150.1560 C   0  0  2  0  0  3  0  0  0  0  0  0
  161.8230  205.2050  148.9520 C   0  0  2  0  0  3  0  0  0  0  0  0
  160.4560  203.2900  149.9120 C   0  0  0  0  0  2  0  0  0  0  0  0
  1  9  1  6  0  0  0
  1 14  1  0  0  0  0
  2  3  1  6  0  0  0
  3 19  1  0  0  0  0
  4 15  2  0  0  0  0
  5 14  1  6  0  0  0
  5  2  1  0  0  0  0
  6 17  1  0  0  0  0
  6  1  1  0  0  0  0
  7  3  2  0  0  0  0
  7  4  1  0  0  0  0
  8 23  1  6  0  0  0
  8 13  1  0  0  0  0
 11  4  1  0  0  0  0
 12 16  1  0  0  0  0
 12  8  1  0  0  0  0
 13  2  1  0  0  0  0
 13 18  1  1  0  0  0
 15 20  1  0  0  0  0
 16 17  1  6  0  0  0
 16  5  1  0  0  0  0
 18 10  1  0  0  0  0
 19 10  1  0  0  0  0
 19 20  2  0  0  0  0
 22 21  2  0  0  0  0
 22 23  1  0  0  0  0
 24 27  1  1  0  0  0
 24 31  1  0  0  0  0
 25 30  1  0  0  0  0
 28 25  1  0  0  0  0
 28 24  1  0  0  0  0
 29 26  1  1  0  0  0
 30 22  1  1  0  0  0
 30 29  1  0  0  0  0
 31 29  1  0  0  0  0
M  END
>  <MODEL>
3

>  <REMARK>
 VINA RESULT:      -3.8      4.893      7.919
  Name = 
  2 active torsions:
  status: ('A' for Active; 'I' for Inactive)
    1  A    between atoms: C_5  and  C_30
    2  A    between atoms: C_10  and  N_16
                            x       y       z     vdW  Elec       q    Type
                         _______ _______ _______ _____ _____    ______ ____

>  <TORSDO>
F 2

$$$$
=
 OpenBabel11122413313D

 31 35  0  0  1  0  0  0  0  0999 V2000
  160.7960  206.0250  145.4750 C   0  0  2  0  0  3  0  0  0  0  0  0
  160.4270  204.2030  148.5910 C   0  0  2  0  0  3  0  0  0  0  0  0
  160.8100  202.7790  148.9420 C   0  0  0  0  0  0  0  0  0  0  0  0
  161.3040  200.4950  148.2790 C   0  0  0  0  0  0  0  0  0  0  0  0
  161.0560  204.6820  147.2740 C   0  0  1  0  0  3  0  0  0  0  0  0
  162.2340  206.5420  145.4810 C   0  0  0  0  0  2  0  0  0  0  0  0
  160.9820  201.8120  147.9400 C   0  0  0  0  0  3  0  0  0  0  0  0
  162.2080  205.5040  149.8790 C   0  0  2  0  0  3  0  0  0  0  0  0
  159.9760  206.9550  144.8660 F   0  0  0  0  0  0  0  0  0  0  0  0
  160.7070  203.3330  151.3130 O   0  0  0  0  0  0  0  0  0  0  0  0
  161.5350  199.3020  147.0200 Cl  0  0  0  0  0  0  0  0  0  0  0  0
  162.7670  206.0260  148.5590 C   0  0  0  0  0  2  0  0  0  0  0  0
  160.7090  205.1940  149.7440 C   0  0  2  0  0  3  0  0  0  0  0  0
  160.3630  205.8120  146.7950 O   0  0  0  0  0  0  0  0  0  0  0  0
  161.4440  200.1310  149.6210 C   0  0  0  0  0  3  0  0  0  0  0  0
  162.5560  204.9960  147.4520 C   0  0  2  0  0  3  0  0  0  0  0  0
  163.1390  205.4960  146.1300 C   0  0  0  0  0  2  0  0  0  0  0  0
  160.1490  204.6200  151.0470 C   0  0  0  0  0  2  0  0  0  0  0  0
  160.9150  202.3980  150.2950 C   0  0  0  0  0  0  0  0  0  0  0  0
  161.2480  201.0810  150.6270 C   0  0  0  0  0  3  0  0  0  0  0  0
  160.6480  207.8670  150.2470 O   0  0  0  0  0  0  0  0  0  0  0  0
  161.5920  207.6570  151.0560 C   0  0  0  0  0  0  0  0  0  0  0  0
  162.4190  206.5000  150.9210 N   0  0  0  0  0  2  0  0  0  0  0  0
  160.1930  210.6710  153.5250 C   0  0  2  0  0  3  0  0  0  0  0  0
  160.9860  208.3560  153.2930 N   0  0  0  0  0  2  0  0  0  0  0  0
  162.0930  210.2490  150.3160 O   0  0  0  0  0  1  0  0  0  0  0  0
  160.5860  211.9170  154.1600 N   0  0  0  0  0  1  0  0  0  0  0  0
  160.9290  209.5040  154.1960 C   0  0  0  0  0  2  0  0  0  0  0  0
  161.8130  210.1120  151.6780 C   0  0  2  0  0  3  0  0  0  0  0  0
  161.8760  208.6350  152.1530 C   0  0  2  0  0  3  0  0  0  0  0  0
  160.4690  210.7470  152.0190 C   0  0  0  0  0  2  0  0  0  0  0  0
  1  9  1  1  0  0  0
  1  6  1  0  0  0  0
  1 14  1  0  0  0  0
  2  3  1  1  0  0  0
  2 13  1  0  0  0  0
  3 19  1  0  0  0  0
  4 15  2  0  0  0  0
  5 14  1  1  0  0  0
  5 16  1  0  0  0  0
  5  2  1  0  0  0  0
  6 17  1  0  0  0  0
  7  4  1  0  0  0  0
  7  3  2  0  0  0  0
  8 23  1  1  0  0  0
 11  4  1  0  0  0  0
 12  8  1  0  0  0  0
 13  8  1  0  0  0  0
 13 18  1  1  0  0  0
 15 20  1  0  0  0  0
 16 17  1  6  0  0  0
 16 12  1  0  0  0  0
 18 10  1  0  0  0  0
 19 20  2  0  0  0  0
 19 10  1  0  0  0  0
 21 22  2  0  0  0  0
 23 22  1  0  0  0  0
 24 27  1  1  0  0  0
 24 28  1  0  0  0  0
 25 28  1  0  0  0  0
 29 26  1  6  0  0  0
 29 31  1  0  0  0  0
 29 30  1  0  0  0  0
 30 22  1  6  0  0  0
 30 25  1  0  0  0  0
 31 24  1  0  0  0  0
M  END
>  <MODEL>
4

>  <REMARK>
 VINA RESULT:      -3.6      6.161      9.086
  Name = 
  2 active torsions:
  status: ('A' for Active; 'I' for Inactive)
    1  A    between atoms: C_5  and  C_30
    2  A    between atoms: C_10  and  N_16
                            x       y       z     vdW  Elec       q    Type
                         _______ _______ _______ _____ _____    ______ ____

>  <TORSDO>
F 2

$$$$
=
 OpenBabel11122413313D

 31 35  0  0  1  0  0  0  0  0999 V2000
  161.1620  205.3810  144.9850 C   0  0  2  0  0  3  0  0  0  0  0  0
  160.5000  205.0380  148.5360 C   0  0  2  0  0  3  0  0  0  0  0  0
  160.7870  203.8860  149.4770 C   0  0  0  0  0  0  0  0  0  0  0  0
  161.2090  201.5250  149.8660 C   0  0  0  0  0  0  0  0  0  0  0  0
  161.2360  204.9110  147.1940 C   0  0  1  0  0  3  0  0  0  0  0  0
  162.6200  205.8280  144.8910 C   0  0  0  0  0  2  0  0  0  0  0  0
  160.9760  202.5850  148.9860 C   0  0  0  0  0  3  0  0  0  0  0  0
  162.2550  206.7270  149.3040 C   0  0  2  0  0  3  0  0  0  0  0  0
  160.4310  205.9860  143.9810 F   0  0  0  0  0  0  0  0  0  0  0  0
  160.5570  205.3830  151.3860 O   0  0  0  0  0  0  0  0  0  0  0  0
  161.4620  199.9110  149.2410 Cl  0  0  0  0  0  0  0  0  0  0  0  0
  162.9250  206.6380  147.9360 C   0  0  0  0  0  2  0  0  0  0  0  0
  160.7540  206.4160  149.1910 C   0  0  2  0  0  3  0  0  0  0  0  0
  160.6330  205.7490  146.2340 O   0  0  0  0  0  0  0  0  0  0  0  0
  161.2420  201.7540  151.2440 C   0  0  0  0  0  3  0  0  0  0  0  0
  162.7350  205.2440  147.3460 C   0  0  2  0  0  3  0  0  0  0  0  0
  163.4280  205.1330  145.9870 C   0  0  0  0  0  2  0  0  0  0  0  0
  160.0830  206.4510  150.5650 C   0  0  0  0  0  2  0  0  0  0  0  0
  160.7840  204.1040  150.8700 C   0  0  0  0  0  0  0  0  0  0  0  0
  161.0290  203.0410  151.7450 C   0  0  0  0  0  3  0  0  0  0  0  0
  161.2670  209.1420  148.1480 O   0  0  0  0  0  0  0  0  0  0  0  0
  161.9140  209.2320  149.2260 C   0  0  0  0  0  0  0  0  0  0  0  0
  162.4470  208.0640  149.8510 N   0  0  0  0  0  2  0  0  0  0  0  0
  160.5530  213.0760  149.9400 C   0  0  2  0  0  3  0  0  0  0  0  0
  161.0940  210.8500  150.8290 N   0  0  0  0  0  2  0  0  0  0  0  0
  162.8110  211.2320  147.5770 O   0  0  0  0  0  1  0  0  0  0  0  0
  160.9980  214.4530  150.0590 N   0  0  0  0  0  1  0  0  0  0  0  0
  161.0480  212.2750  151.1500 C   0  0  0  0  0  2  0  0  0  0  0  0
  162.3330  211.7040  148.8030 C   0  0  2  0  0  3  0  0  0  0  0  0
  162.1580  210.5710  149.8500 C   0  0  2  0  0  3  0  0  0  0  0  0
  161.0390  212.4870  148.6100 C   0  0  0  0  0  2  0  0  0  0  0  0
  1  9  1  6  0  0  0
  1 14  1  0  0  0  0
  2 13  1  0  0  0  0
  2  3  1  1  0  0  0
  3 19  1  0  0  0  0
  4 15  2  0  0  0  0
  5 14  1  6  0  0  0
  5 16  1  0  0  0  0
  5  2  1  0  0  0  0
  6  1  1  0  0  0  0
  6 17  1  0  0  0  0
  7  3  2  0  0  0  0
  7  4  1  0  0  0  0
  8 23  1  6  0  0  0
 11  4  1  0  0  0  0
 12  8  1  0  0  0  0
 13  8  1  0  0  0  0
 13 18  1  1  0  0  0
 15 20  1  0  0  0  0
 16 17  1  6  0  0  0
 16 12  1  0  0  0  0
 18 10  1  0  0  0  0
 19 10  1  0  0  0  0
 19 20  2  0  0  0  0
 21 22  2  0  0  0  0
 22 23  1  0  0  0  0
 24 27  1  1  0  0  0
 24 28  1  0  0  0  0
 25 28  1  0  0  0  0
 29 26  1  6  0  0  0
 29 30  1  0  0  0  0
 30 22  1  6  0  0  0
 30 25  1  0  0  0  0
 31 29  1  0  0  0  0
 31 24  1  0  0  0  0
M  END
>  <MODEL>
5

>  <REMARK>
 VINA RESULT:      -3.6      5.874      8.321
  Name = 
  2 active torsions:
  status: ('A' for Active; 'I' for Inactive)
    1  A    between atoms: C_5  and  C_30
    2  A    between atoms: C_10  and  N_16
                            x       y       z     vdW  Elec       q    Type
                         _______ _______ _______ _____ _____    ______ ____

>  <TORSDO>
F 2

$$$$
=
 OpenBabel11122413313D

 31 35  0  0  1  0  0  0  0  0999 V2000
  161.9930  202.2900  151.3900 C   0  0  2  0  0  3  0  0  0  0  0  0
  162.1680  205.0460  149.0360 C   0  0  2  0  0  3  0  0  0  0  0  0
  161.5570  205.1940  147.6570 C   0  0  0  0  0  0  0  0  0  0  0  0
  160.6430  204.2140  145.6300 C   0  0  0  0  0  0  0  0  0  0  0  0
  161.5780  203.8680  149.8270 C   0  0  1  0  0  3  0  0  0  0  0  0
  160.6700  202.4790  152.1300 C   0  0  0  0  0  2  0  0  0  0  0  0
  161.1760  204.0660  146.9130 C   0  0  0  0  0  3  0  0  0  0  0  0
  160.6980  206.6450  150.3800 C   0  0  2  0  0  3  0  0  0  0  0  0
  162.9360  201.7800  152.2600 F   0  0  0  0  0  0  0  0  0  0  0  0
  161.8550  207.6090  147.7810 O   0  0  0  0  0  0  0  0  0  0  0  0
  160.1540  202.8020  144.7200 Cl  0  0  0  0  0  0  0  0  0  0  0  0
  160.1840  205.4660  151.2010 C   0  0  0  0  0  2  0  0  0  0  0  0
  162.1130  206.3580  149.8520 C   0  0  2  0  0  3  0  0  0  0  0  0
  162.4370  203.5260  150.8910 O   0  0  0  0  0  0  0  0  0  0  0  0
  160.4990  205.4880  145.0750 C   0  0  0  0  0  3  0  0  0  0  0  0
  160.1650  204.1990  150.3510 C   0  0  2  0  0  3  0  0  0  0  0  0
  159.6230  203.0170  151.1550 C   0  0  0  0  0  2  0  0  0  0  0  0
  162.6180  207.5120  148.9840 C   0  0  0  0  0  2  0  0  0  0  0  0
  161.4440  206.4730  147.0770 C   0  0  0  0  0  0  0  0  0  0  0  0
  160.9000  206.6160  145.7970 C   0  0  0  0  0  3  0  0  0  0  0  0
  162.0650  206.9210  152.8700 O   0  0  0  0  0  0  0  0  0  0  0  0
  161.4250  207.9180  152.4410 C   0  0  0  0  0  0  0  0  0  0  0  0
  160.7090  207.8440  151.2080 N   0  0  0  0  0  2  0  0  0  0  0  0
  159.2740  211.2470  153.6360 C   0  0  2  0  0  3  0  0  0  0  0  0
  160.3040  209.0970  154.2340 N   0  0  0  0  0  2  0  0  0  0  0  0
  161.8330  210.2600  151.0750 O   0  0  0  0  0  1  0  0  0  0  0  0
  159.4110  212.6610  153.9370 N   0  0  0  0  0  1  0  0  0  0  0  0
  159.9550  210.4250  154.7360 C   0  0  0  0  0  2  0  0  0  0  0  0
  161.2880  210.4550  152.3470 C   0  0  2  0  0  3  0  0  0  0  0  0
  161.3840  209.1860  153.2360 C   0  0  2  0  0  3  0  0  0  0  0  0
  159.8510  210.9550  152.2460 C   0  0  0  0  0  2  0  0  0  0  0  0
  1  6  1  0  0  0  0
  1  9  1  1  0  0  0
  2  3  1  6  0  0  0
  2  5  1  0  0  0  0
  2 13  1  0  0  0  0
  4  7  1  0  0  0  0
  5 16  1  0  0  0  0
  5 14  1  1  0  0  0
  7  3  2  0  0  0  0
  8 12  1  0  0  0  0
  8 23  1  1  0  0  0
 10 18  1  0  0  0  0
 11  4  1  0  0  0  0
 13 18  1  6  0  0  0
 13  8  1  0  0  0  0
 14  1  1  0  0  0  0
 15  4  2  0  0  0  0
 15 20  1  0  0  0  0
 16 17  1  1  0  0  0
 16 12  1  0  0  0  0
 17  6  1  0  0  0  0
 19  3  1  0  0  0  0
 19 10  1  0  0  0  0
 20 19  2  0  0  0  0
 22 21  2  0  0  0  0
 23 22  1  0  0  0  0
 24 27  1  1  0  0  0
 24 28  1  0  0  0  0
 25 28  1  0  0  0  0
 29 26  1  6  0  0  0
 29 30  1  0  0  0  0
 30 22  1  6  0  0  0
 30 25  1  0  0  0  0
 31 29  1  0  0  0  0
 31 24  1  0  0  0  0
M  END
>  <MODEL>
6

>  <REMARK>
 VINA RESULT:      -3.1      5.543      8.429
  Name = 
  2 active torsions:
  status: ('A' for Active; 'I' for Inactive)
    1  A    between atoms: C_5  and  C_30
    2  A    between atoms: C_10  and  N_16
                            x       y       z     vdW  Elec       q    Type
                         _______ _______ _______ _____ _____    ______ ____

>  <TORSDO>
F 2

$$$$
=
 OpenBabel11122413313D

 31 35  0  0  1  0  0  0  0  0999 V2000
  162.1060  202.2950  151.5140 C   0  0  2  0  0  3  0  0  0  0  0  0
  162.1730  205.2020  149.3440 C   0  0  2  0  0  3  0  0  0  0  0  0
  161.6000  205.3980  147.9540 C   0  0  0  0  0  0  0  0  0  0  0  0
  160.8220  204.4940  145.8380 C   0  0  0  0  0  0  0  0  0  0  0  0
  161.6380  203.9400  150.0370 C   0  0  1  0  0  3  0  0  0  0  0  0
  160.7490  202.3490  152.2140 C   0  0  0  0  0  2  0  0  0  0  0  0
  161.3210  204.2980  147.1280 C   0  0  0  0  0  3  0  0  0  0  0  0
  160.5540  206.6120  150.7280 C   0  0  2  0  0  3  0  0  0  0  0  0
  163.0520  201.7920  152.3860 F   0  0  0  0  0  0  0  0  0  0  0  0
  161.7290  207.8140  148.2390 O   0  0  0  0  0  0  0  0  0  0  0  0
  160.4600  203.1140  144.8240 Cl  0  0  0  0  0  0  0  0  0  0  0  0
  160.0940  205.3520  151.4550 C   0  0  0  0  0  2  0  0  0  0  0  0
  162.0020  206.4530  150.2370 C   0  0  2  0  0  3  0  0  0  0  0  0
  162.4820  203.5870  151.1090 O   0  0  0  0  0  0  0  0  0  0  0  0
  160.6100  205.7890  145.3580 C   0  0  0  0  0  3  0  0  0  0  0  0
  160.1890  204.1440  150.5270 C   0  0  2  0  0  3  0  0  0  0  0  0
  159.7020  202.8790  151.2360 C   0  0  0  0  0  2  0  0  0  0  0  0
  162.4560  207.6900  149.4610 C   0  0  0  0  0  2  0  0  0  0  0  0
  161.4200  206.7020  147.4510 C   0  0  0  0  0  0  0  0  0  0  0  0
  160.9100  206.8910  146.1630 C   0  0  0  0  0  3  0  0  0  0  0  0
  161.5230  206.6860  153.4120 O   0  0  0  0  0  0  0  0  0  0  0  0
  160.9740  207.7270  152.9600 C   0  0  0  0  0  0  0  0  0  0  0  0
  160.4560  207.7530  151.6290 N   0  0  0  0  0  2  0  0  0  0  0  0
  162.3880  209.9550  156.1480 C   0  0  2  0  0  3  0  0  0  0  0  0
  162.0550  209.7540  153.7220 N   0  0  0  0  0  2  0  0  0  0  0  0
  159.7570  207.3880  155.3940 O   0  0  0  0  0  1  0  0  0  0  0  0
  161.9530  210.7810  157.2610 N   0  0  0  0  0  1  0  0  0  0  0  0
  162.1390  210.7010  154.8320 C   0  0  0  0  0  2  0  0  0  0  0  0
  160.4470  208.5990  155.2890 C   0  0  2  0  0  3  0  0  0  0  0  0
  160.8310  208.9400  153.8240 C   0  0  2  0  0  3  0  0  0  0  0  0
  161.6720  208.6000  156.1980 C   0  0  0  0  0  2  0  0  0  0  0  0
  1  6  1  0  0  0  0
  1  9  1  1  0  0  0
  2  3  1  6  0  0  0
  2  5  1  0  0  0  0
  2 13  1  0  0  0  0
  4  7  1  0  0  0  0
  5 16  1  0  0  0  0
  5 14  1  1  0  0  0
  7  3  2  0  0  0  0
  8 12  1  0  0  0  0
  8 23  1  1  0  0  0
 10 18  1  0  0  0  0
 11  4  1  0  0  0  0
 13 18  1  6  0  0  0
 13  8  1  0  0  0  0
 14  1  1  0  0  0  0
 15  4  2  0  0  0  0
 15 20  1  0  0  0  0
 16 17  1  1  0  0  0
 16 12  1  0  0  0  0
 17  6  1  0  0  0  0
 19  3  1  0  0  0  0
 19 10  1  0  0  0  0
 20 19  2  0  0  0  0
 22 21  2  0  0  0  0
 23 22  1  0  0  0  0
 24 31  1  0  0  0  0
 24 27  1  1  0  0  0
 25 30  1  0  0  0  0
 25 28  1  0  0  0  0
 28 24  1  0  0  0  0
 29 26  1  6  0  0  0
 29 31  1  0  0  0  0
 30 22  1  6  0  0  0
 30 29  1  0  0  0  0
M  END
>  <MODEL>
7

>  <REMARK>
 VINA RESULT:      -3.1      5.865      8.973
  Name = 
  2 active torsions:
  status: ('A' for Active; 'I' for Inactive)
    1  A    between atoms: C_5  and  C_30
    2  A    between atoms: C_10  and  N_16
                            x       y       z     vdW  Elec       q    Type
                         _______ _______ _______ _____ _____    ______ ____

>  <TORSDO>
F 2

$$$$
=
 OpenBabel11122413313D

 31 35  0  0  1  0  0  0  0  0999 V2000
  161.1680  204.4850  144.9590 C   0  0  2  0  0  3  0  0  0  0  0  0
  160.4560  205.1310  148.4570 C   0  0  2  0  0  3  0  0  0  0  0  0
  160.8420  204.3460  149.6950 C   0  0  0  0  0  0  0  0  0  0  0  0
  161.5080  202.2660  150.7610 C   0  0  0  0  0  0  0  0  0  0  0  0
  161.2360  204.6960  147.2080 C   0  0  1  0  0  3  0  0  0  0  0  0
  162.5710  205.0430  144.7260 C   0  0  0  0  0  2  0  0  0  0  0  0
  161.1840  202.9870  149.6090 C   0  0  0  0  0  3  0  0  0  0  0  0
  161.9970  207.1550  148.6800 C   0  0  2  0  0  3  0  0  0  0  0  0
  160.4020  204.6810  143.8260 F   0  0  0  0  0  0  0  0  0  0  0  0
  160.4020  206.3030  151.0780 O   0  0  0  0  0  0  0  0  0  0  0  0
  161.9510  200.5780  150.6380 Cl  0  0  0  0  0  0  0  0  0  0  0  0
  162.7080  206.7420  147.3930 C   0  0  0  0  0  2  0  0  0  0  0  0
  160.5430  206.6590  148.6750 C   0  0  2  0  0  3  0  0  0  0  0  0
  160.5710  205.1420  146.0480 O   0  0  0  0  0  0  0  0  0  0  0  0
  161.4810  202.8930  152.0090 C   0  0  0  0  0  3  0  0  0  0  0  0
  162.6860  205.2240  147.2430 C   0  0  2  0  0  3  0  0  0  0  0  0
  163.4210  204.7960  145.9720 C   0  0  0  0  0  2  0  0  0  0  0  0
  159.8360  207.0220  149.9820 C   0  0  0  0  0  2  0  0  0  0  0  0
  160.7800  204.9620  150.9610 C   0  0  0  0  0  0  0  0  0  0  0  0
  161.1160  204.2380  152.1090 C   0  0  0  0  0  3  0  0  0  0  0  0
  162.5520  208.5930  151.0820 O   0  0  0  0  0  0  0  0  0  0  0  0
  162.3260  209.2630  150.0390 C   0  0  0  0  0  0  0  0  0  0  0  0
  162.0290  208.6060  148.8060 N   0  0  0  0  0  2  0  0  0  0  0  0
  160.5770  212.8280  148.8680 C   0  0  2  0  0  3  0  0  0  0  0  0
  161.0710  211.2340  150.6720 N   0  0  0  0  0  2  0  0  0  0  0  0
  163.4110  210.5720  147.8870 O   0  0  0  0  0  1  0  0  0  0  0  0
  160.8890  214.1920  148.4800 N   0  0  0  0  0  1  0  0  0  0  0  0
  160.8580  212.6470  150.3640 C   0  0  0  0  0  2  0  0  0  0  0  0
  162.6510  211.4060  148.7110 C   0  0  2  0  0  3  0  0  0  0  0  0
  162.3360  210.7590  150.0860 C   0  0  2  0  0  3  0  0  0  0  0  0
  161.3760  211.8470  148.0000 C   0  0  0  0  0  2  0  0  0  0  0  0
  1  9  1  6  0  0  0
  1 14  1  0  0  0  0
  2 13  1  0  0  0  0
  2  3  1  1  0  0  0
  3 19  1  0  0  0  0
  4 15  2  0  0  0  0
  5 14  1  6  0  0  0
  5 16  1  0  0  0  0
  5  2  1  0  0  0  0
  6  1  1  0  0  0  0
  6 17  1  0  0  0  0
  7  3  2  0  0  0  0
  7  4  1  0  0  0  0
  8 23  1  6  0  0  0
 11  4  1  0  0  0  0
 12  8  1  0  0  0  0
 13  8  1  0  0  0  0
 13 18  1  1  0  0  0
 15 20  1  0  0  0  0
 16 17  1  6  0  0  0
 16 12  1  0  0  0  0
 18 10  1  0  0  0  0
 19 10  1  0  0  0  0
 19 20  2  0  0  0  0
 22 21  2  0  0  0  0
 23 22  1  0  0  0  0
 24 27  1  6  0  0  0
 24 28  1  0  0  0  0
 28 25  1  0  0  0  0
 29 26  1  6  0  0  0
 29 30  1  0  0  0  0
 30 22  1  6  0  0  0
 30 25  1  0  0  0  0
 31 29  1  0  0  0  0
 31 24  1  0  0  0  0
M  END
>  <MODEL>
8

>  <REMARK>
 VINA RESULT:      -2.9      5.801      8.248
  Name = 
  2 active torsions:
  status: ('A' for Active; 'I' for Inactive)
    1  A    between atoms: C_5  and  C_30
    2  A    between atoms: C_10  and  N_16
                            x       y       z     vdW  Elec       q    Type
                         _______ _______ _______ _____ _____    ______ ____

>  <TORSDO>
F 2

$$$$
=
 OpenBabel11122413313D

 31 35  0  0  1  0  0  0  0  0999 V2000
  162.3570  210.3040  154.3760 C   0  0  2  0  0  3  0  0  0  0  0  0
  162.4130  208.5580  151.1960 C   0  0  2  0  0  3  0  0  0  0  0  0
  161.7880  207.2370  150.7940 C   0  0  0  0  0  0  0  0  0  0  0  0
  160.8960  205.0540  151.3760 C   0  0  0  0  0  0  0  0  0  0  0  0
  161.8730  209.0930  152.5300 C   0  0  1  0  0  3  0  0  0  0  0  0
  161.0330  211.0670  154.3910 C   0  0  0  0  0  2  0  0  0  0  0  0
  161.4430  206.2800  151.7610 C   0  0  0  0  0  3  0  0  0  0  0  0
  160.8960  210.1970  149.9580 C   0  0  2  0  0  3  0  0  0  0  0  0
  163.3250  211.0530  155.0170 F   0  0  0  0  0  0  0  0  0  0  0  0
  161.9980  207.8480  148.4450 O   0  0  0  0  0  0  0  0  0  0  0  0
  160.4520  203.8760  152.5920 Cl  0  0  0  0  0  0  0  0  0  0  0  0
  160.4310  210.7620  151.2970 C   0  0  0  0  0  2  0  0  0  0  0  0
  162.3160  209.6230  150.0790 C   0  0  2  0  0  3  0  0  0  0  0  0
  162.7520  210.0660  153.0480 O   0  0  0  0  0  0  0  0  0  0  0  0
  160.7000  204.7680  150.0230 C   0  0  0  0  0  3  0  0  0  0  0  0
  160.4530  209.6730  152.3660 C   0  0  2  0  0  3  0  0  0  0  0  0
  159.9600  210.2200  153.7060 C   0  0  0  0  0  2  0  0  0  0  0  0
  162.7720  209.0070  148.7560 C   0  0  0  0  0  2  0  0  0  0  0  0
  161.6230  206.9280  149.4290 C   0  0  0  0  0  0  0  0  0  0  0  0
  161.0650  205.7040  149.0510 C   0  0  0  0  0  3  0  0  0  0  0  0
  160.7180  212.9940  150.5010 O   0  0  0  0  0  0  0  0  0  0  0  0
  160.7900  212.6360  149.2940 C   0  0  0  0  0  0  0  0  0  0  0  0
  160.8680  211.2520  148.9530 N   0  0  0  0  0  2  0  0  0  0  0  0
  160.9470  213.4490  145.2390 C   0  0  2  0  0  3  0  0  0  0  0  0
  159.6250  213.3840  147.3090 N   0  0  0  0  0  2  0  0  0  0  0  0
  163.2040  213.3930  148.2360 O   0  0  0  0  0  1  0  0  0  0  0  0
  161.4470  214.4130  144.2740 N   0  0  0  0  0  1  0  0  0  0  0  0
  159.7930  214.0730  146.0310 C   0  0  0  0  0  2  0  0  0  0  0  0
  162.1150  213.7730  147.4470 C   0  0  2  0  0  3  0  0  0  0  0  0
  160.7640  213.6590  148.2020 C   0  0  2  0  0  3  0  0  0  0  0  0
  162.0920  212.9800  146.1450 C   0  0  0  0  0  2  0  0  0  0  0  0
  1  6  1  0  0  0  0
  1  9  1  6  0  0  0
  2  3  1  6  0  0  0
  2  5  1  0  0  0  0
  3  7  1  0  0  0  0
  4  7  2  0  0  0  0
  4 11  1  0  0  0  0
  5 14  1  6  0  0  0
  8 23  1  6  0  0  0
  8 13  1  0  0  0  0
  8 12  1  0  0  0  0
 10 18  1  0  0  0  0
 10 19  1  0  0  0  0
 13 18  1  6  0  0  0
 13  2  1  0  0  0  0
 14  1  1  0  0  0  0
 15  4  1  0  0  0  0
 16 12  1  6  0  0  0
 16  5  1  0  0  0  0
 16 17  1  0  0  0  0
 17  6  1  0  0  0  0
 19  3  2  0  0  0  0
 20 19  1  0  0  0  0
 20 15  2  0  0  0  0
 22 21  2  0  0  0  0
 23 22  1  0  0  0  0
 24 27  1  6  0  0  0
 24 28  1  0  0  0  0
 24 31  1  0  0  0  0
 25 30  1  0  0  0  0
 28 25  1  0  0  0  0
 29 30  1  0  0  0  0
 29 26  1  1  0  0  0
 30 22  1  1  0  0  0
 31 29  1  0  0  0  0
M  END
>  <MODEL>
9

>  <REMARK>
 VINA RESULT:      -2.8      2.842      3.905
  Name = 
  2 active torsions:
  status: ('A' for Active; 'I' for Inactive)
    1  A    between atoms: C_5  and  C_30
    2  A    between atoms: C_10  and  N_16
                            x       y       z     vdW  Elec       q    Type
                         _______ _______ _______ _____ _____    ______ ____

>  <TORSDO>
F 2

$$$$
