=
 OpenBabel11122414083D

 28 32  0  0  1  0  0  0  0  0999 V2000
  158.6860  213.6120  141.3920 C   0  0  0  0  0  0  0  0  0  0  0  0
  162.0440  214.4530  139.7310 O   0  0  0  0  0  0  0  0  0  0  0  0
  159.7660  208.4640  137.8380 O   0  0  0  0  0  0  0  0  0  0  0  0
  159.5180  213.4730  144.0650 C   0  0  0  0  0  3  0  0  0  0  0  0
  161.0370  208.4850  139.9000 C   0  0  2  0  0  3  0  0  0  0  0  0
  158.1610  213.6610  139.9930 C   0  0  0  0  0  2  0  0  0  0  0  0
  164.2110  213.5480  140.4370 O   0  0  0  0  0  0  0  0  0  0  0  0
  162.8680  213.2030  139.8560 S   0  0  0  0  0  0  0  0  0  0  0  0
  162.5310  211.1460  138.3460 C   0  0  1  0  0  3  0  0  0  0  0  0
  162.0530  212.0200  140.9190 C   0  0  2  0  0  3  0  0  0  0  0  0
  156.4650  210.5160  139.1880 O   0  0  0  0  0  0  0  0  0  0  0  0
  160.0510  210.6030  140.6560 C   0  0  2  0  0  3  0  0  0  0  0  0
  163.1650  210.4000  139.3610 O   0  0  0  0  0  0  0  0  0  0  0  0
  163.0880  212.4900  138.2940 N   0  0  0  0  0  2  0  0  0  0  0  0
  157.3680  211.3920  139.1870 C   0  0  0  0  0  0  0  0  0  0  0  0
  159.8140  212.8370  141.7350 C   0  0  0  0  0  0  0  0  0  0  0  0
  160.0770  209.0290  138.9190 C   0  0  0  0  0  0  0  0  0  0  0  0
  162.7400  210.4630  137.0110 C   0  0  0  0  0  1  0  0  0  0  0  0
  158.6700  211.1020  138.5140 C   0  0  0  0  0  2  0  0  0  0  0  0
  160.2110  212.7650  143.0810 C   0  0  0  0  0  3  0  0  0  0  0  0
  157.9950  214.3140  142.3860 C   0  0  0  0  0  3  0  0  0  0  0  0
  158.4140  214.2500  143.7170 C   0  0  0  0  0  3  0  0  0  0  0  0
  157.1270  212.6500  139.8210 N   0  0  0  0  0  2  0  0  0  0  0  0
  161.2690  209.6890  140.8440 C   0  0  2  0  0  3  0  0  0  0  0  0
  159.5060  210.2500  139.3510 N   0  0  0  0  0  0  0  0  0  0  0  0
  162.5020  210.5840  140.6080 C   0  0  2  0  0  3  0  0  0  0  0  0
  162.2020  208.0150  139.2900 O   0  0  0  0  0  1  0  0  0  0  0  0
  160.5470  212.0450  140.6860 C   0  0  1  0  0  3  0  0  0  0  0  0
  1 16  2  0  0  0  0
  1 21  1  0  0  0  0
  2  8  2  0  0  0  0
  3 17  2  0  0  0  0
  5 27  1  6  0  0  0
  5 24  1  0  0  0  0
  6  1  1  0  0  0  0
  8  7  2  0  0  0  0
  9 18  1  6  0  0  0
  9 13  1  0  0  0  0
 10  8  1  6  0  0  0
 12 25  1  6  0  0  0
 12 28  1  0  0  0  0
 12 24  1  0  0  0  0
 13 26  1  0  0  0  0
 14  9  1  0  0  0  0
 14  8  1  0  0  0  0
 15 11  2  0  0  0  0
 15 23  1  0  0  0  0
 16 20  1  0  0  0  0
 17 25  1  0  0  0  0
 17  5  1  0  0  0  0
 19 15  1  0  0  0  0
 19 25  1  0  0  0  0
 20  4  2  0  0  0  0
 21 22  2  0  0  0  0
 22  4  1  0  0  0  0
 23  6  1  0  0  0  0
 26 24  1  0  0  0  0
 26 10  1  0  0  0  0
 28 10  1  0  0  0  0
 28 16  1  0  0  0  0
M  END
>  <MODEL>
1

>  <REMARK>
 VINA RESULT:      -3.0      0.000      0.000
  Name = 
  0 active torsions:
  status: ('A' for Active; 'I' for Inactive)
                            x       y       z     vdW  Elec       q    Type
                         _______ _______ _______ _____ _____    ______ ____

>  <TORSDO>
F 0

$$$$
=
 OpenBabel11122414083D

 28 32  0  0  1  0  0  0  0  0999 V2000
  157.6020  213.1130  153.8930 C   0  0  0  0  0  0  0  0  0  0  0  0
  160.3520  212.2860  156.4420 O   0  0  0  0  0  0  0  0  0  0  0  0
  162.2270  210.8220  150.1980 O   0  0  0  0  0  0  0  0  0  0  0  0
  155.6470  211.2820  154.7170 C   0  0  0  0  0  3  0  0  0  0  0  0
  160.9670  209.0920  151.3350 C   0  0  2  0  0  3  0  0  0  0  0  0
  158.5910  214.1140  153.3860 C   0  0  0  0  0  2  0  0  0  0  0  0
  160.8580  210.0310  157.2600 O   0  0  0  0  0  0  0  0  0  0  0  0
  160.8530  210.9250  156.0510 S   0  0  0  0  0  0  0  0  0  0  0  0
  162.4450  210.5340  154.0670 C   0  0  1  0  0  3  0  0  0  0  0  0
  159.8040  210.2100  154.7940 C   0  0  2  0  0  3  0  0  0  0  0  0
  159.1920  213.5720  149.8140 O   0  0  0  0  0  0  0  0  0  0  0  0
  159.4480  210.7000  152.4030 C   0  0  2  0  0  3  0  0  0  0  0  0
  161.9810  209.2030  154.0640 O   0  0  0  0  0  0  0  0  0  0  0  0
  162.4620  211.0520  155.4280 N   0  0  0  0  0  2  0  0  0  0  0  0
  159.4100  213.5560  151.0530 C   0  0  0  0  0  0  0  0  0  0  0  0
  157.9480  211.7600  154.0870 C   0  0  0  0  0  0  0  0  0  0  0  0
  161.3000  210.4870  150.9820 C   0  0  0  0  0  0  0  0  0  0  0  0
  163.8450  210.5830  153.4920 C   0  0  0  0  0  1  0  0  0  0  0  0
  160.6250  212.8610  151.5740 C   0  0  0  0  0  2  0  0  0  0  0  0
  156.9540  210.8500  154.4860 C   0  0  0  0  0  3  0  0  0  0  0  0
  156.2870  213.5360  154.1220 C   0  0  0  0  0  3  0  0  0  0  0  0
  155.3140  212.6240  154.5390 C   0  0  0  0  0  3  0  0  0  0  0  0
  158.4950  214.2080  151.9370 N   0  0  0  0  0  2  0  0  0  0  0  0
  159.9980  209.2720  152.5270 C   0  0  2  0  0  3  0  0  0  0  0  0
  160.4270  211.4160  151.5950 N   0  0  0  0  0  0  0  0  0  0  0  0
  160.5610  209.1670  153.9580 C   0  0  2  0  0  3  0  0  0  0  0  0
  162.1050  208.3430  151.6420 O   0  0  0  0  0  1  0  0  0  0  0  0
  159.3470  211.2800  153.8100 C   0  0  1  0  0  3  0  0  0  0  0  0
  1 16  2  0  0  0  0
  1 21  1  0  0  0  0
  3 17  2  0  0  0  0
  5 27  1  1  0  0  0
  5 24  1  0  0  0  0
  6  1  1  0  0  0  0
  8  2  2  0  0  0  0
  8  7  2  0  0  0  0
  9 18  1  1  0  0  0
  9 14  1  0  0  0  0
 10  8  1  1  0  0  0
 11 15  2  0  0  0  0
 12 25  1  6  0  0  0
 12 24  1  0  0  0  0
 12 28  1  0  0  0  0
 13  9  1  0  0  0  0
 14  8  1  0  0  0  0
 15 19  1  0  0  0  0
 15 23  1  0  0  0  0
 16 20  1  0  0  0  0
 17  5  1  0  0  0  0
 17 25  1  0  0  0  0
 19 25  1  0  0  0  0
 20  4  2  0  0  0  0
 21 22  2  0  0  0  0
 22  4  1  0  0  0  0
 23  6  1  0  0  0  0
 24 26  1  0  0  0  0
 26 13  1  0  0  0  0
 26 10  1  0  0  0  0
 28 16  1  0  0  0  0
 28 10  1  0  0  0  0
M  END
>  <MODEL>
2

>  <REMARK>
 VINA RESULT:      -0.6     11.609     13.544
  Name = 
  0 active torsions:
  status: ('A' for Active; 'I' for Inactive)
                            x       y       z     vdW  Elec       q    Type
                         _______ _______ _______ _____ _____    ______ ____

>  <TORSDO>
F 0

$$$$
