=
 OpenBabel11122414323D

 34 40  0  0  1  0  0  0  0  0999 V2000
  160.7530  206.9980  154.1780 C   0  0  0  0  0  0  0  0  0  0  0  0
  161.4740  204.7050  153.0920 C   0  0  0  0  0  2  0  0  0  0  0  0
  158.7870  213.2790  153.8450 C   0  0  2  0  0  3  0  0  0  0  0  0
  160.1120  209.2060  155.0160 C   0  0  0  0  0  0  0  0  0  0  0  0
  160.0480  211.0860  153.4580 C   0  0  0  0  0  0  0  0  0  0  0  0
  159.7400  212.6790  151.7020 O   0  0  0  0  0  1  0  0  0  0  0  0
  158.2130  214.4530  153.0670 C   0  0  0  0  0  1  0  0  0  0  0  0
  160.0820  212.7780  155.9860 C   0  0  0  0  0  2  0  0  0  0  0  0
  161.3770  206.6750  151.8510 C   0  0  0  0  0  0  0  0  0  0  0  0
  161.8250  206.7160  148.7110 C   0  0  0  0  0  2  0  0  0  0  0  0
  160.4610  210.2380  152.4730 N   0  0  0  0  0  0  0  0  0  0  0  0
  159.3960  211.4260  155.9340 C   0  0  0  0  0  2  0  0  0  0  0  0
  161.1130  208.0700  151.5800 N   0  0  0  0  0  0  0  0  0  0  0  0
  161.6930  204.3430  151.6250 C   0  0  0  0  0  2  0  0  0  0  0  0
  159.8840  210.5800  154.7830 C   0  0  0  0  0  0  0  0  0  0  0  0
  159.2900  213.8090  155.1880 C   0  0  0  0  0  2  0  0  0  0  0  0
  161.1410  205.7740  149.6070 N   0  0  0  0  0  0  0  0  0  0  0  0
  160.5230  208.3710  153.9570 C   0  0  0  0  0  0  0  0  0  0  0  0
  159.9110  212.5540  153.0860 C   0  0  1  0  0  3  0  0  0  0  0  0
  160.6950  208.9150  152.6740 C   0  0  0  0  0  0  0  0  0  0  0  0
  160.1660  207.2800  156.5100 C   0  0  0  0  0  3  0  0  0  0  0  0
  162.1560  208.0700  149.3490 C   0  0  0  0  0  2  0  0  0  0  0  0
  159.9380  208.6410  156.2920 C   0  0  0  0  0  3  0  0  0  0  0  0
  161.0140  208.5810  150.2120 C   0  0  0  0  0  2  0  0  0  0  0  0
  161.8920  205.6730  150.8710 C   0  0  1  0  0  3  0  0  0  0  0  0
  160.5740  206.4590  155.4560 C   0  0  0  0  0  3  0  0  0  0  0  0
  161.1930  206.1590  153.0490 C   0  0  0  0  0  0  0  0  0  0  0  0
  161.1560  204.5050  148.8870 C   0  0  0  0  0  2  0  0  0  0  0  0
  161.5420  204.7470  147.4390 C   0  0  0  0  0  2  0  0  0  0  0  0
  160.7290  201.3530  146.5380 C   0  0  0  0  0  2  0  0  0  0  0  0
  161.0310  203.4360  145.3770 C   0  0  0  0  0  2  0  0  0  0  0  0
  161.7370  203.4250  146.7180 C   0  0  2  0  0  3  0  0  0  0  0  0
  160.3880  202.0780  145.2550 C   0  0  0  0  0  2  0  0  0  0  0  0
  161.1640  202.3460  147.5070 N   0  0  0  0  0  2  0  0  0  0  0  0
  1 26  1  0  0  0  0
  3  7  1  6  0  0  0
  3 16  1  0  0  0  0
  4 23  2  0  0  0  0
  5 15  2  0  0  0  0
  9 27  2  0  0  0  0
 10 22  1  0  0  0  0
 10 17  1  0  0  0  0
 11 20  2  0  0  0  0
 11  5  1  0  0  0  0
 12  8  1  0  0  0  0
 13  9  1  0  0  0  0
 13 20  1  0  0  0  0
 14  2  1  0  0  0  0
 15  4  1  0  0  0  0
 15 12  1  0  0  0  0
 16  8  1  0  0  0  0
 17 25  1  0  0  0  0
 18  1  2  0  0  0  0
 18  4  1  0  0  0  0
 19  6  1  6  0  0  0
 19  5  1  0  0  0  0
 19  3  1  0  0  0  0
 20 18  1  0  0  0  0
 22 24  1  0  0  0  0
 23 21  1  0  0  0  0
 24 13  1  0  0  0  0
 25 14  1  1  0  0  0
 25  9  1  0  0  0  0
 26 21  2  0  0  0  0
 27  2  1  0  0  0  0
 27  1  1  0  0  0  0
 28 17  1  0  0  0  0
 29 28  1  0  0  0  0
 30 34  1  0  0  0  0
 31 32  1  0  0  0  0
 32 29  1  1  0  0  0
 32 34  1  0  0  0  0
 33 31  1  0  0  0  0
 33 30  1  0  0  0  0
M  END
>  <MODEL>
1

>  <REMARK>
 VINA RESULT:      -9.5      0.000      0.000
  Name = 
  3 active torsions:
  status: ('A' for Active; 'I' for Inactive)
    1  A    between atoms: N_17  and  C_28
    2  A    between atoms: C_28  and  C_29
    3  A    between atoms: C_29  and  C_32
                            x       y       z     vdW  Elec       q    Type
                         _______ _______ _______ _____ _____    ______ ____

>  <TORSDO>
F 3

$$$$
=
 OpenBabel11122414323D

 34 40  0  0  1  0  0  0  0  0999 V2000
  161.4970  209.0780  150.9300 C   0  0  0  0  0  0  0  0  0  0  0  0
  161.4910  211.0670  152.6620 C   0  0  0  0  0  2  0  0  0  0  0  0
  160.3370  202.8350  149.1680 C   0  0  2  0  0  3  0  0  0  0  0  0
  161.4780  207.1160  149.4670 C   0  0  0  0  0  0  0  0  0  0  0  0
  161.0930  204.9150  150.4540 C   0  0  0  0  0  0  0  0  0  0  0  0
  160.3750  202.9360  151.5870 O   0  0  0  0  0  1  0  0  0  0  0  0
  159.6720  201.4880  149.4060 C   0  0  0  0  0  1  0  0  0  0  0  0
  162.2410  203.8840  147.8320 C   0  0  0  0  0  2  0  0  0  0  0  0
  161.1990  208.8530  153.3310 C   0  0  0  0  0  0  0  0  0  0  0  0
  160.4920  208.0730  156.3230 C   0  0  0  0  0  2  0  0  0  0  0  0
  161.0170  205.5150  151.6760 N   0  0  0  0  0  0  0  0  0  0  0  0
  161.4200  205.1580  147.9030 C   0  0  0  0  0  2  0  0  0  0  0  0
  161.0300  207.4260  153.1830 N   0  0  0  0  0  0  0  0  0  0  0  0
  161.1210  211.0720  154.1440 C   0  0  0  0  0  2  0  0  0  0  0  0
  161.3540  205.7190  149.3040 C   0  0  0  0  0  0  0  0  0  0  0  0
  161.3500  202.6630  148.0360 C   0  0  0  0  0  2  0  0  0  0  0  0
  160.0640  209.1780  155.4550 N   0  0  0  0  0  0  0  0  0  0  0  0
  161.3750  207.6850  150.7540 C   0  0  0  0  0  0  0  0  0  0  0  0
  161.0140  203.3970  150.4300 C   0  0  1  0  0  3  0  0  0  0  0  0
  161.1410  206.8550  151.8610 C   0  0  0  0  0  0  0  0  0  0  0  0
  161.8260  209.3460  148.5460 C   0  0  0  0  0  3  0  0  0  0  0  0
  161.1950  206.9260  155.5890 C   0  0  0  0  0  2  0  0  0  0  0  0
  161.7050  207.9650  148.3700 C   0  0  0  0  0  3  0  0  0  0  0  0
  160.5110  206.5970  154.2720 C   0  0  0  0  0  2  0  0  0  0  0  0
  161.1990  209.6080  154.6190 C   0  0  1  0  0  3  0  0  0  0  0  0
  161.7230  209.9030  149.8230 C   0  0  0  0  0  3  0  0  0  0  0  0
  161.3950  209.6360  152.2890 C   0  0  0  0  0  0  0  0  0  0  0  0
  159.6630  210.2360  156.3760 C   0  0  0  0  0  2  0  0  0  0  0  0
  158.2130  210.6090  156.1200 C   0  0  0  0  0  2  0  0  0  0  0  0
  159.3580  214.0250  155.9870 C   0  0  0  0  0  2  0  0  0  0  0  0
  157.9110  212.6220  154.6760 C   0  0  0  0  0  2  0  0  0  0  0  0
  158.0540  212.1190  156.0980 C   0  0  2  0  0  3  0  0  0  0  0  0
  158.7500  213.8740  154.6100 C   0  0  0  0  0  2  0  0  0  0  0  0
  159.2360  212.7450  156.6680 N   0  0  0  0  0  2  0  0  0  0  0  0
  1 27  1  0  0  0  0
  2 14  1  0  0  0  0
  3  7  1  1  0  0  0
  3 19  1  0  0  0  0
  4 18  1  0  0  0  0
  5 11  2  0  0  0  0
  8 12  1  0  0  0  0
  8 16  1  0  0  0  0
  9 25  1  0  0  0  0
 11 20  1  0  0  0  0
 12 15  1  0  0  0  0
 13  9  1  0  0  0  0
 13 24  1  0  0  0  0
 15  4  2  0  0  0  0
 15  5  1  0  0  0  0
 16  3  1  0  0  0  0
 17 10  1  0  0  0  0
 17 28  1  0  0  0  0
 18  1  1  0  0  0  0
 18 20  2  0  0  0  0
 19  5  1  0  0  0  0
 19  6  1  1  0  0  0
 20 13  1  0  0  0  0
 21 26  1  0  0  0  0
 22 10  1  0  0  0  0
 23 21  2  0  0  0  0
 23  4  1  0  0  0  0
 24 22  1  0  0  0  0
 25 14  1  6  0  0  0
 25 17  1  0  0  0  0
 26  1  2  0  0  0  0
 27  2  1  0  0  0  0
 27  9  2  0  0  0  0
 29 28  1  0  0  0  0
 30 34  1  0  0  0  0
 31 32  1  0  0  0  0
 32 29  1  6  0  0  0
 32 34  1  0  0  0  0
 33 31  1  0  0  0  0
 33 30  1  0  0  0  0
M  END
>  <MODEL>
2

>  <REMARK>
 VINA RESULT:      -8.8      2.427      9.207
  Name = 
  3 active torsions:
  status: ('A' for Active; 'I' for Inactive)
    1  A    between atoms: N_17  and  C_28
    2  A    between atoms: C_28  and  C_29
    3  A    between atoms: C_29  and  C_32
                            x       y       z     vdW  Elec       q    Type
                         _______ _______ _______ _____ _____    ______ ____

>  <TORSDO>
F 3

$$$$
=
 OpenBabel11122414323D

 34 40  0  0  1  0  0  0  0  0999 V2000
  160.9460  205.0720  152.5390 C   0  0  0  0  0  0  0  0  0  0  0  0
  160.7180  206.3630  154.8280 C   0  0  0  0  0  2  0  0  0  0  0  0
  162.4160  204.7290  146.1240 C   0  0  2  0  0  3  0  0  0  0  0  0
  161.1690  204.0420  150.3300 C   0  0  0  0  0  0  0  0  0  0  0  0
  161.4800  205.4850  148.3830 C   0  0  0  0  0  0  0  0  0  0  0  0
  162.1010  207.0610  146.6960 O   0  0  0  0  0  1  0  0  0  0  0  0
  163.0750  205.3020  144.8780 C   0  0  0  0  0  1  0  0  0  0  0  0
  160.6570  203.0130  146.8110 C   0  0  0  0  0  2  0  0  0  0  0  0
  160.9730  207.4880  152.8030 C   0  0  0  0  0  0  0  0  0  0  0  0
  161.3490  210.6340  152.6550 C   0  0  0  0  0  2  0  0  0  0  0  0
  161.4050  206.5630  149.2150 N   0  0  0  0  0  0  0  0  0  0  0  0
  161.4410  202.9160  148.1070 C   0  0  0  0  0  2  0  0  0  0  0  0
  161.1840  207.6470  151.3820 N   0  0  0  0  0  0  0  0  0  0  0  0
  160.9160  207.8450  155.1390 C   0  0  0  0  0  2  0  0  0  0  0  0
  161.3360  204.1750  148.9340 C   0  0  0  0  0  0  0  0  0  0  0  0
  161.5420  203.5510  145.6920 C   0  0  0  0  0  2  0  0  0  0  0  0
  161.8520  209.6140  153.5840 N   0  0  0  0  0  0  0  0  0  0  0  0
  161.1140  205.1920  151.1440 C   0  0  0  0  0  0  0  0  0  0  0  0
  161.5890  205.7720  146.8940 C   0  0  1  0  0  3  0  0  0  0  0  0
  161.2360  206.4620  150.5580 C   0  0  0  0  0  0  0  0  0  0  0  0
  160.8860  202.6620  152.3190 C   0  0  0  0  0  3  0  0  0  0  0  0
  160.7560  210.0730  151.3580 C   0  0  0  0  0  2  0  0  0  0  0  0
  161.0520  202.7790  150.9370 C   0  0  0  0  0  3  0  0  0  0  0  0
  161.5910  208.9300  150.8050 C   0  0  0  0  0  2  0  0  0  0  0  0
  160.8120  208.5920  153.7950 C   0  0  1  0  0  3  0  0  0  0  0  0
  160.8330  203.8050  153.1200 C   0  0  0  0  0  3  0  0  0  0  0  0
  160.8820  206.2960  153.3560 C   0  0  0  0  0  0  0  0  0  0  0  0
  162.1260  210.3430  154.8180 C   0  0  0  0  0  2  0  0  0  0  0  0
  161.2030  211.5440  154.9140 C   0  0  0  0  0  2  0  0  0  0  0  0
  158.6720  212.5970  157.2550 C   0  0  0  0  0  2  0  0  0  0  0  0
  158.8820  210.9000  155.5660 C   0  0  0  0  0  2  0  0  0  0  0  0
  160.2310  211.3710  156.0670 C   0  0  2  0  0  3  0  0  0  0  0  0
  157.8660  211.6890  156.3530 C   0  0  0  0  0  2  0  0  0  0  0  0
  160.0300  212.6460  156.7360 N   0  0  0  0  0  2  0  0  0  0  0  0
  1 26  1  0  0  0  0
  1 27  1  0  0  0  0
  2 14  1  0  0  0  0
  3  7  1  6  0  0  0
  3 19  1  0  0  0  0
  4 23  2  0  0  0  0
  4 18  1  0  0  0  0
  5 15  2  0  0  0  0
  5 11  1  0  0  0  0
  8 12  1  0  0  0  0
  9 27  2  0  0  0  0
  9 25  1  0  0  0  0
 10 17  1  0  0  0  0
 11 20  2  0  0  0  0
 12 15  1  0  0  0  0
 13  9  1  0  0  0  0
 15  4  1  0  0  0  0
 16  3  1  0  0  0  0
 16  8  1  0  0  0  0
 17 25  1  0  0  0  0
 17 28  1  0  0  0  0
 18  1  2  0  0  0  0
 19  6  1  1  0  0  0
 19  5  1  0  0  0  0
 20 18  1  0  0  0  0
 20 13  1  0  0  0  0
 21 26  2  0  0  0  0
 22 10  1  0  0  0  0
 23 21  1  0  0  0  0
 24 22  1  0  0  0  0
 24 13  1  0  0  0  0
 25 14  1  1  0  0  0
 27  2  1  0  0  0  0
 28 29  1  0  0  0  0
 31 32  1  0  0  0  0
 31 33  1  0  0  0  0
 32 29  1  6  0  0  0
 32 34  1  0  0  0  0
 33 30  1  0  0  0  0
 34 30  1  0  0  0  0
M  END
>  <MODEL>
3

>  <REMARK>
 VINA RESULT:      -8.7      2.199      8.787
  Name = 
  3 active torsions:
  status: ('A' for Active; 'I' for Inactive)
    1  A    between atoms: N_17  and  C_28
    2  A    between atoms: C_28  and  C_29
    3  A    between atoms: C_29  and  C_32
                            x       y       z     vdW  Elec       q    Type
                         _______ _______ _______ _____ _____    ______ ____

>  <TORSDO>
F 3

$$$$
=
 OpenBabel11122414323D

 34 40  0  0  1  0  0  0  0  0999 V2000
  161.5990  208.4590  150.3340 C   0  0  0  0  0  0  0  0  0  0  0  0
  161.7620  210.6370  151.8130 C   0  0  0  0  0  2  0  0  0  0  0  0
  160.0810  202.1170  149.3860 C   0  0  2  0  0  3  0  0  0  0  0  0
  161.4240  206.3410  149.1210 C   0  0  0  0  0  0  0  0  0  0  0  0
  160.9880  204.2940  150.3810 C   0  0  0  0  0  0  0  0  0  0  0  0
  160.2360  202.5010  151.7720 O   0  0  0  0  0  1  0  0  0  0  0  0
  159.3680  200.8420  149.8120 C   0  0  0  0  0  1  0  0  0  0  0  0
  161.9650  202.9040  147.8570 C   0  0  0  0  0  2  0  0  0  0  0  0
  161.4040  208.5350  152.7560 C   0  0  0  0  0  0  0  0  0  0  0  0
  160.8040  208.1510  155.8460 C   0  0  0  0  0  2  0  0  0  0  0  0
  160.9960  205.0380  151.5230 N   0  0  0  0  0  0  0  0  0  0  0  0
  161.2060  204.2170  147.8070 C   0  0  0  0  0  2  0  0  0  0  0  0
  161.1650  207.1100  152.7870 N   0  0  0  0  0  0  0  0  0  0  0  0
  161.4640  210.8350  153.2980 C   0  0  0  0  0  2  0  0  0  0  0  0
  161.2310  204.9420  149.1320 C   0  0  0  0  0  0  0  0  0  0  0  0
  161.0310  201.7620  148.2420 C   0  0  0  0  0  2  0  0  0  0  0  0
  160.3850  209.1640  154.8690 N   0  0  0  0  0  0  0  0  0  0  0  0
  161.4070  207.0630  150.3320 C   0  0  0  0  0  0  0  0  0  0  0  0
  160.8410  202.7890  150.5420 C   0  0  1  0  0  3  0  0  0  0  0  0
  161.1880  206.3820  151.5400 C   0  0  0  0  0  0  0  0  0  0  0  0
  161.8270  208.4260  147.9240 C   0  0  0  0  0  3  0  0  0  0  0  0
  161.4200  206.8910  155.2280 C   0  0  0  0  0  2  0  0  0  0  0  0
  161.6370  207.0420  147.9210 C   0  0  0  0  0  3  0  0  0  0  0  0
  160.6610  206.4430  153.9890 C   0  0  0  0  0  2  0  0  0  0  0  0
  161.4990  209.4360  153.9420 C   0  0  1  0  0  3  0  0  0  0  0  0
  161.8090  209.1350  149.1280 C   0  0  0  0  0  3  0  0  0  0  0  0
  161.5860  209.1780  151.6200 C   0  0  0  0  0  0  0  0  0  0  0  0
  160.0750  210.3420  155.6720 C   0  0  0  0  0  2  0  0  0  0  0  0
  158.5690  210.5130  155.7630 C   0  0  0  0  0  2  0  0  0  0  0  0
  157.0780  213.0320  153.6580 C   0  0  0  0  0  2  0  0  0  0  0  0
  156.8110  212.2780  155.9240 C   0  0  0  0  0  2  0  0  0  0  0  0
  158.1740  211.9250  155.3660 C   0  0  2  0  0  3  0  0  0  0  0  0
  156.1040  213.0130  154.8140 C   0  0  0  0  0  2  0  0  0  0  0  0
  158.0940  212.0230  153.9170 N   0  0  0  0  0  2  0  0  0  0  0  0
  1 27  1  0  0  0  0
  2 14  1  0  0  0  0
  3  7  1  1  0  0  0
  3 19  1  0  0  0  0
  4 15  2  0  0  0  0
  4 18  1  0  0  0  0
  5 19  1  0  0  0  0
  5 11  2  0  0  0  0
  8 16  1  0  0  0  0
  9 13  1  0  0  0  0
  9 25  1  0  0  0  0
 11 20  1  0  0  0  0
 12  8  1  0  0  0  0
 12 15  1  0  0  0  0
 13 24  1  0  0  0  0
 15  5  1  0  0  0  0
 16  3  1  0  0  0  0
 17 28  1  0  0  0  0
 17 10  1  0  0  0  0
 18  1  1  0  0  0  0
 18 20  2  0  0  0  0
 19  6  1  1  0  0  0
 20 13  1  0  0  0  0
 21 26  1  0  0  0  0
 22 10  1  0  0  0  0
 23 21  2  0  0  0  0
 23  4  1  0  0  0  0
 24 22  1  0  0  0  0
 25 14  1  6  0  0  0
 25 17  1  0  0  0  0
 26  1  2  0  0  0  0
 27  2  1  0  0  0  0
 27  9  2  0  0  0  0
 28 29  1  0  0  0  0
 30 34  1  0  0  0  0
 30 33  1  0  0  0  0
 32 29  1  6  0  0  0
 32 31  1  0  0  0  0
 33 31  1  0  0  0  0
 34 32  1  0  0  0  0
M  END
>  <MODEL>
4

>  <REMARK>
 VINA RESULT:      -8.4      2.477      9.202
  Name = 
  3 active torsions:
  status: ('A' for Active; 'I' for Inactive)
    1  A    between atoms: N_17  and  C_28
    2  A    between atoms: C_28  and  C_29
    3  A    between atoms: C_29  and  C_32
                            x       y       z     vdW  Elec       q    Type
                         _______ _______ _______ _____ _____    ______ ____

>  <TORSDO>
F 3

$$$$
=
 OpenBabel11122414323D

 34 40  0  0  1  0  0  0  0  0999 V2000
  160.9410  207.7880  154.0090 C   0  0  0  0  0  0  0  0  0  0  0  0
  162.2060  206.1260  152.3990 C   0  0  0  0  0  2  0  0  0  0  0  0
  157.5010  213.2710  155.2470 C   0  0  2  0  0  3  0  0  0  0  0  0
  159.7750  209.4580  155.3650 C   0  0  0  0  0  0  0  0  0  0  0  0
  159.2620  211.6320  154.3730 C   0  0  0  0  0  0  0  0  0  0  0  0
  158.5830  213.5360  153.0970 O   0  0  0  0  0  1  0  0  0  0  0  0
  156.6620  214.4490  154.7760 C   0  0  0  0  0  1  0  0  0  0  0  0
  158.8690  212.5060  157.2610 C   0  0  0  0  0  2  0  0  0  0  0  0
  161.6360  208.2860  151.7330 C   0  0  0  0  0  0  0  0  0  0  0  0
  162.0770  209.3090  148.7640 C   0  0  0  0  0  2  0  0  0  0  0  0
  159.8750  211.2140  153.2290 N   0  0  0  0  0  0  0  0  0  0  0  0
  158.5330  211.1020  156.7950 C   0  0  0  0  0  2  0  0  0  0  0  0
  161.0410  209.5990  151.8320 N   0  0  0  0  0  0  0  0  0  0  0  0
  162.5140  206.2520  150.9080 C   0  0  0  0  0  2  0  0  0  0  0  0
  159.2200  210.7510  155.4960 C   0  0  0  0  0  0  0  0  0  0  0  0
  157.8530  213.5050  156.7160 C   0  0  0  0  0  2  0  0  0  0  0  0
  161.6390  208.0220  149.3190 N   0  0  0  0  0  0  0  0  0  0  0  0
  160.3830  209.0750  154.1520 C   0  0  0  0  0  0  0  0  0  0  0  0
  158.7720  213.0710  154.4040 C   0  0  1  0  0  3  0  0  0  0  0  0
  160.4230  209.9810  153.0810 C   0  0  0  0  0  0  0  0  0  0  0  0
  160.2910  207.2590  156.2800 C   0  0  0  0  0  3  0  0  0  0  0  0
  162.0640  210.4680  149.7670 C   0  0  0  0  0  2  0  0  0  0  0  0
  159.7380  208.5340  156.4240 C   0  0  0  0  0  3  0  0  0  0  0  0
  160.8270  210.4360  150.6500 C   0  0  0  0  0  2  0  0  0  0  0  0
  162.3850  207.7480  150.5600 C   0  0  1  0  0  3  0  0  0  0  0  0
  160.8920  206.8850  155.0760 C   0  0  0  0  0  3  0  0  0  0  0  0
  161.5780  207.4260  152.7310 C   0  0  0  0  0  0  0  0  0  0  0  0
  161.9680  207.0450  148.2850 C   0  0  0  0  0  2  0  0  0  0  0  0
  160.7700  206.1460  148.0370 C   0  0  0  0  0  2  0  0  0  0  0  0
  161.3250  205.4520  144.5440 C   0  0  0  0  0  2  0  0  0  0  0  0
  162.5000  205.0600  146.6030 C   0  0  0  0  0  2  0  0  0  0  0  0
  161.0160  205.2630  146.8270 C   0  0  2  0  0  3  0  0  0  0  0  0
  162.6970  205.1680  145.1120 C   0  0  0  0  0  2  0  0  0  0  0  0
  160.4760  205.9010  145.6370 N   0  0  0  0  0  2  0  0  0  0  0  0
  1 18  2  0  0  0  0
  1 26  1  0  0  0  0
  2 27  1  0  0  0  0
  3  7  1  6  0  0  0
  3 16  1  0  0  0  0
  4 15  1  0  0  0  0
  4 23  2  0  0  0  0
  5 19  1  0  0  0  0
  5 15  2  0  0  0  0
  9 13  1  0  0  0  0
  9 27  2  0  0  0  0
 10 17  1  0  0  0  0
 10 22  1  0  0  0  0
 11  5  1  0  0  0  0
 12  8  1  0  0  0  0
 13 20  1  0  0  0  0
 14  2  1  0  0  0  0
 15 12  1  0  0  0  0
 16  8  1  0  0  0  0
 17 25  1  0  0  0  0
 18  4  1  0  0  0  0
 19  6  1  6  0  0  0
 19  3  1  0  0  0  0
 20 11  2  0  0  0  0
 20 18  1  0  0  0  0
 21 23  1  0  0  0  0
 22 24  1  0  0  0  0
 24 13  1  0  0  0  0
 25 14  1  1  0  0  0
 25  9  1  0  0  0  0
 26 21  2  0  0  0  0
 27  1  1  0  0  0  0
 28 17  1  0  0  0  0
 29 28  1  0  0  0  0
 30 33  1  0  0  0  0
 30 34  1  0  0  0  0
 31 32  1  0  0  0  0
 32 29  1  1  0  0  0
 33 31  1  0  0  0  0
 34 32  1  0  0  0  0
M  END
>  <MODEL>
5

>  <REMARK>
 VINA RESULT:      -8.0      1.749      2.087
  Name = 
  3 active torsions:
  status: ('A' for Active; 'I' for Inactive)
    1  A    between atoms: N_17  and  C_28
    2  A    between atoms: C_28  and  C_29
    3  A    between atoms: C_29  and  C_32
                            x       y       z     vdW  Elec       q    Type
                         _______ _______ _______ _____ _____    ______ ____

>  <TORSDO>
F 3

$$$$
=
 OpenBabel11122414323D

 34 40  0  0  1  0  0  0  0  0999 V2000
  161.6320  208.1650  149.3160 C   0  0  0  0  0  0  0  0  0  0  0  0
  161.6480  206.6600  147.1500 C   0  0  0  0  0  2  0  0  0  0  0  0
  161.6040  209.0370  155.8480 C   0  0  2  0  0  3  0  0  0  0  0  0
  161.5690  209.4080  151.4230 C   0  0  0  0  0  0  0  0  0  0  0  0
  161.0690  208.2020  153.4880 C   0  0  0  0  0  0  0  0  0  0  0  0
  160.8920  206.7680  155.3920 O   0  0  0  0  0  1  0  0  0  0  0  0
  161.8000  208.5090  157.2610 C   0  0  0  0  0  1  0  0  0  0  0  0
  160.5070  210.9760  154.6040 C   0  0  0  0  0  2  0  0  0  0  0  0
  161.1520  205.7830  149.2520 C   0  0  0  0  0  0  0  0  0  0  0  0
  160.7330  202.6760  149.7290 C   0  0  0  0  0  2  0  0  0  0  0  0
  160.9400  207.0630  152.7490 N   0  0  0  0  0  0  0  0  0  0  0  0
  161.5720  210.7360  153.5500 C   0  0  0  0  0  2  0  0  0  0  0  0
  160.9820  205.7730  150.6870 N   0  0  0  0  0  0  0  0  0  0  0  0
  161.5590  205.1420  147.0130 C   0  0  0  0  0  2  0  0  0  0  0  0
  161.3700  209.4280  152.8210 C   0  0  0  0  0  0  0  0  0  0  0  0
  160.9550  210.4170  155.9500 C   0  0  0  0  0  2  0  0  0  0  0  0
  161.6640  203.4370  148.8860 N   0  0  0  0  0  0  0  0  0  0  0  0
  161.4370  208.1980  150.7120 C   0  0  0  0  0  0  0  0  0  0  0  0
  160.7580  208.0970  154.9720 C   0  0  1  0  0  3  0  0  0  0  0  0
  161.1170  207.0190  151.4040 C   0  0  0  0  0  0  0  0  0  0  0  0
  162.0910  210.5430  149.3290 C   0  0  0  0  0  3  0  0  0  0  0  0
  160.0020  203.5150  150.7840 C   0  0  0  0  0  2  0  0  0  0  0  0
  161.8970  210.5760  150.7130 C   0  0  0  0  0  3  0  0  0  0  0  0
  160.9300  204.5210  151.4440 C   0  0  0  0  0  2  0  0  0  0  0  0
  160.9720  204.6170  148.3380 C   0  0  1  0  0  3  0  0  0  0  0  0
  161.9590  209.3400  148.6310 C   0  0  0  0  0  3  0  0  0  0  0  0
  161.4750  206.8850  148.6050 C   0  0  0  0  0  0  0  0  0  0  0  0
  162.0390  202.5110  147.8230 C   0  0  0  0  0  2  0  0  0  0  0  0
  161.5570  201.1140  148.1720 C   0  0  0  0  0  2  0  0  0  0  0  0
  160.0810  200.9750  144.8860 C   0  0  0  0  0  2  0  0  0  0  0  0
  161.2060  199.4400  146.3550 C   0  0  0  0  0  2  0  0  0  0  0  0
  160.6000  200.6060  147.1080 C   0  0  2  0  0  3  0  0  0  0  0  0
  160.8530  199.6740  144.9080 C   0  0  0  0  0  2  0  0  0  0  0  0
  160.3330  201.6610  146.1440 N   0  0  0  0  0  2  0  0  0  0  0  0
  1 18  1  0  0  0  0
  2 27  1  0  0  0  0
  3 16  1  0  0  0  0
  3  7  1  1  0  0  0
  4 15  1  0  0  0  0
  5 19  1  0  0  0  0
  8 16  1  0  0  0  0
  9 13  1  0  0  0  0
 10 22  1  0  0  0  0
 11  5  1  0  0  0  0
 12  8  1  0  0  0  0
 13 20  1  0  0  0  0
 13 24  1  0  0  0  0
 14  2  1  0  0  0  0
 15  5  2  0  0  0  0
 15 12  1  0  0  0  0
 17 10  1  0  0  0  0
 18 20  1  0  0  0  0
 18  4  2  0  0  0  0
 19  6  1  1  0  0  0
 19  3  1  0  0  0  0
 20 11  2  0  0  0  0
 21 23  2  0  0  0  0
 22 24  1  0  0  0  0
 23  4  1  0  0  0  0
 25 14  1  6  0  0  0
 25 17  1  0  0  0  0
 25  9  1  0  0  0  0
 26  1  2  0  0  0  0
 26 21  1  0  0  0  0
 27  9  2  0  0  0  0
 27  1  1  0  0  0  0
 28 29  1  0  0  0  0
 28 17  1  0  0  0  0
 30 33  1  0  0  0  0
 30 34  1  0  0  0  0
 31 32  1  0  0  0  0
 32 29  1  1  0  0  0
 33 31  1  0  0  0  0
 34 32  1  0  0  0  0
M  END
>  <MODEL>
6

>  <REMARK>
 VINA RESULT:      -7.9      2.150      4.470
  Name = 
  3 active torsions:
  status: ('A' for Active; 'I' for Inactive)
    1  A    between atoms: N_17  and  C_28
    2  A    between atoms: C_28  and  C_29
    3  A    between atoms: C_29  and  C_32
                            x       y       z     vdW  Elec       q    Type
                         _______ _______ _______ _____ _____    ______ ____

>  <TORSDO>
F 3

$$$$
=
 OpenBabel11122414323D

 34 40  0  0  1  0  0  0  0  0999 V2000
  161.7390  207.8240  149.4880 C   0  0  0  0  0  0  0  0  0  0  0  0
  161.9660  210.2180  150.5700 C   0  0  0  0  0  2  0  0  0  0  0  0
  160.0200  201.4630  149.6350 C   0  0  2  0  0  3  0  0  0  0  0  0
  161.5010  205.5340  148.6580 C   0  0  0  0  0  0  0  0  0  0  0  0
  160.9930  203.7510  150.2480 C   0  0  0  0  0  0  0  0  0  0  0  0
  160.1770  202.2500  151.9210 O   0  0  0  0  0  1  0  0  0  0  0  0
  159.2640  200.3050  150.2680 C   0  0  0  0  0  1  0  0  0  0  0  0
  161.9360  201.9150  148.0130 C   0  0  0  0  0  2  0  0  0  0  0  0
  161.5350  208.3240  151.8580 C   0  0  0  0  0  0  0  0  0  0  0  0
  160.9080  208.4990  154.9620 C   0  0  0  0  0  2  0  0  0  0  0  0
  161.0200  204.6800  151.2450 N   0  0  0  0  0  0  0  0  0  0  0  0
  161.2200  203.2220  147.7290 C   0  0  0  0  0  2  0  0  0  0  0  0
  161.2500  206.9340  152.1330 N   0  0  0  0  0  0  0  0  0  0  0  0
  161.6670  210.6800  151.9950 C   0  0  0  0  0  2  0  0  0  0  0  0
  161.2620  204.1650  148.9090 C   0  0  0  0  0  0  0  0  0  0  0  0
  160.9630  200.8860  148.5800 C   0  0  0  0  0  2  0  0  0  0  0  0
  160.5280  209.3410  153.8210 N   0  0  0  0  0  0  0  0  0  0  0  0
  161.5020  206.4540  149.7260 C   0  0  0  0  0  0  0  0  0  0  0  0
  160.7960  202.3020  150.6660 C   0  0  1  0  0  3  0  0  0  0  0  0
  161.2550  206.0010  151.0310 C   0  0  0  0  0  0  0  0  0  0  0  0
  161.9780  207.3670  147.1230 C   0  0  0  0  0  3  0  0  0  0  0  0
  161.4860  207.1330  154.5770 C   0  0  0  0  0  2  0  0  0  0  0  0
  161.7430  206.0090  147.3570 C   0  0  0  0  0  3  0  0  0  0  0  0
  160.7190  206.5010  153.4270 C   0  0  0  0  0  2  0  0  0  0  0  0
  161.6530  209.4130  152.8720 C   0  0  1  0  0  3  0  0  0  0  0  0
  161.9770  208.2730  148.1850 C   0  0  0  0  0  3  0  0  0  0  0  0
  161.7430  208.7540  150.6300 C   0  0  0  0  0  0  0  0  0  0  0  0
  160.2520  210.6500  154.4040 C   0  0  0  0  0  2  0  0  0  0  0  0
  158.7530  210.8910  154.4250 C   0  0  0  0  0  2  0  0  0  0  0  0
  159.5050  214.0230  152.8070 C   0  0  0  0  0  2  0  0  0  0  0  0
  158.1370  212.1040  152.3330 C   0  0  0  0  0  2  0  0  0  0  0  0
  158.4280  212.2420  153.8130 C   0  0  2  0  0  3  0  0  0  0  0  0
  158.8270  213.2760  151.6800 C   0  0  0  0  0  2  0  0  0  0  0  0
  159.5690  213.1320  153.9550 N   0  0  0  0  0  2  0  0  0  0  0  0
  1 18  1  0  0  0  0
  1 27  1  0  0  0  0
  2 27  1  0  0  0  0
  2 14  1  0  0  0  0
  3  7  1  1  0  0  0
  3 19  1  0  0  0  0
  4 15  2  0  0  0  0
  4 18  1  0  0  0  0
  5 19  1  0  0  0  0
  5 11  2  0  0  0  0
  8 16  1  0  0  0  0
  9 13  1  0  0  0  0
  9 25  1  0  0  0  0
 12  8  1  0  0  0  0
 12 15  1  0  0  0  0
 13 24  1  0  0  0  0
 15  5  1  0  0  0  0
 16  3  1  0  0  0  0
 17 28  1  0  0  0  0
 17 10  1  0  0  0  0
 18 20  2  0  0  0  0
 19  6  1  1  0  0  0
 20 11  1  0  0  0  0
 20 13  1  0  0  0  0
 21 23  2  0  0  0  0
 21 26  1  0  0  0  0
 22 10  1  0  0  0  0
 23  4  1  0  0  0  0
 24 22  1  0  0  0  0
 25 14  1  6  0  0  0
 25 17  1  0  0  0  0
 26  1  2  0  0  0  0
 27  9  2  0  0  0  0
 28 29  1  0  0  0  0
 30 34  1  0  0  0  0
 31 32  1  0  0  0  0
 32 34  1  0  0  0  0
 32 29  1  6  0  0  0
 33 31  1  0  0  0  0
 33 30  1  0  0  0  0
M  END
>  <MODEL>
7

>  <REMARK>
 VINA RESULT:      -7.1      2.485      9.153
  Name = 
  3 active torsions:
  status: ('A' for Active; 'I' for Inactive)
    1  A    between atoms: N_17  and  C_28
    2  A    between atoms: C_28  and  C_29
    3  A    between atoms: C_29  and  C_32
                            x       y       z     vdW  Elec       q    Type
                         _______ _______ _______ _____ _____    ______ ____

>  <TORSDO>
F 3

$$$$
