=
 OpenBabel11122412483D

 32 38  0  0  1  0  0  0  0  0999 V2000
  158.6720  214.2660  150.8880 C   0  0  2  0  0  3  0  0  0  0  0  0
  160.3890  209.6320  152.3780 C   0  0  1  0  0  3  0  0  0  0  0  0
  160.1040  208.3960  157.2610 C   0  0  0  0  0  3  0  0  0  0  0  0
  160.3580  207.1170  156.9470 C   0  0  0  0  0  3  0  0  0  0  0  0
  161.3370  207.9010  150.7540 C   0  0  2  0  0  3  0  0  0  0  0  0
  162.1080  206.5760  150.5470 C   0  0  2  0  0  3  0  0  0  0  0  0
  160.2950  211.9540  151.6880 C   0  0  0  0  0  0  0  0  0  0  0  0
  159.2530  211.1720  153.9070 C   0  0  0  0  0  2  0  0  0  0  0  0
  160.8960  204.8660  151.4500 C   0  0  1  0  0  3  0  0  0  0  0  0
  158.2080  213.1270  152.7620 C   0  0  0  0  0  2  0  0  0  0  0  0
  160.1640  209.5010  156.2410 C   0  0  0  0  0  2  0  0  0  0  0  0
  160.3530  210.1230  153.8280 C   0  0  1  0  0  3  0  0  0  0  0  0
  160.0540  208.9840  154.8020 C   0  0  1  0  0  3  0  0  0  0  0  0
  161.0650  207.3460  153.1610 C   0  0  2  0  0  3  0  0  0  0  0  0
  160.5660  204.9610  150.0310 N   0  0  0  0  0  2  0  0  0  0  0  0
  159.5940  213.6230  149.8800 C   0  0  0  0  0  2  0  0  0  0  0  0
  159.5320  212.3510  152.9750 C   0  0  2  0  0  3  0  0  0  0  0  0
  161.4790  205.8620  149.4480 N   0  0  0  0  0  2  0  0  0  0  0  0
  160.7460  213.0010  150.6840 C   0  0  0  0  0  2  0  0  0  0  0  0
  157.8650  213.1280  151.3560 N   0  0  1  0  0  0  0  0  0  0  0  0
  160.6120  206.6710  155.5310 C   0  0  0  0  0  2  0  0  0  0  0  0
  161.0410  207.8260  154.6160 C   0  0  2  0  0  3  0  0  0  0  0  0
  162.1220  206.2650  152.9990 C   0  0  0  0  0  2  0  0  0  0  0  0
  160.7030  210.7420  151.4990 N   0  0  0  0  0  0  0  0  0  0  0  0
  161.8710  208.8910  149.7310 C   0  0  0  0  0  1  0  0  0  0  0  0
  161.1490  203.4170  151.8160 C   0  0  0  0  0  1  0  0  0  0  0  0
  161.3960  208.4750  152.1850 C   0  0  2  0  0  3  0  0  0  0  0  0
  162.0960  205.6470  151.6720 N   0  0  2  0  0  0  0  0  0  0  0  0
  157.2030  214.3350  150.8400 C   0  0  2  0  0  3  0  0  0  0  0  0
  156.6080  214.1170  149.4360 C   0  0  0  0  0  3  0  0  0  0  0  0
  155.2540  214.4530  149.3530 O   0  0  0  0  0  1  0  0  0  0  0  0
  156.7990  212.7980  149.0200 O   0  0  0  0  0  1  0  0  0  0  0  0
  1 16  1  6  0  0  0
  1 20  1  0  0  0  0
  2 24  1  6  0  0  0
  2 12  1  0  0  0  0
  4  3  2  0  0  0  0
  5 25  1  6  0  0  0
  5 27  1  0  0  0  0
  6 18  1  6  0  0  0
  6  5  1  0  0  0  0
  6 28  1  0  0  0  0
  7 17  1  0  0  0  0
  9 28  1  0  0  0  0
  9 26  1  6  0  0  0
 11  3  1  0  0  0  0
 12  8  1  6  0  0  0
 12 13  1  0  0  0  0
 13 11  1  1  0  0  0
 14 23  1  1  0  0  0
 14 22  1  0  0  0  0
 15  9  1  0  0  0  0
 16 19  1  0  0  0  0
 17 10  1  6  0  0  0
 17  8  1  0  0  0  0
 18 15  1  0  0  0  0
 19  7  1  0  0  0  0
 20 10  1  1  0  0  0
 21  4  1  0  0  0  0
 22 13  1  0  0  0  0
 22 21  1  1  0  0  0
 24  7  2  0  0  0  0
 27  2  1  0  0  0  0
 27 14  1  0  0  0  0
 28 23  1  0  0  0  0
 29  1  1  0  0  0  0
 29 20  1  0  0  0  0
 30 29  1  0  0  0  0
 31 30  1  0  0  0  0
 32 30  1  0  0  0  0
M  END
>  <MODEL>
1

>  <REMARK>
 VINA RESULT:      -8.6      0.000      0.000
  Name = 
  1 active torsions:
  status: ('A' for Active; 'I' for Inactive)
    1  A    between atoms: C_29  and  C_30
                            x       y       z     vdW  Elec       q    Type
                         _______ _______ _______ _____ _____    ______ ____

>  <TORSDO>
F 1

$$$$
=
 OpenBabel11122412483D

 32 38  0  0  1  0  0  0  0  0999 V2000
  161.1800  210.0870  153.4100 C   0  0  2  0  0  3  0  0  0  0  0  0
  161.3270  206.2620  149.9480 C   0  0  1  0  0  3  0  0  0  0  0  0
  161.0760  201.4970  151.5870 C   0  0  0  0  0  3  0  0  0  0  0  0
  160.8460  201.0830  150.3330 C   0  0  0  0  0  3  0  0  0  0  0  0
  161.4710  206.6590  147.4270 C   0  0  2  0  0  3  0  0  0  0  0  0
  161.7180  206.0750  146.0160 C   0  0  2  0  0  3  0  0  0  0  0  0
  161.9740  208.0500  151.4520 C   0  0  0  0  0  0  0  0  0  0  0  0
  160.9320  205.8680  152.3330 C   0  0  0  0  0  2  0  0  0  0  0  0
  160.0780  204.5580  145.5470 C   0  0  1  0  0  3  0  0  0  0  0  0
  160.5240  207.9560  153.6360 C   0  0  0  0  0  2  0  0  0  0  0  0
  161.4200  202.9270  151.9110 C   0  0  0  0  0  2  0  0  0  0  0  0
  161.5920  205.2820  151.0930 C   0  0  1  0  0  3  0  0  0  0  0  0
  161.0100  203.9000  150.8010 C   0  0  1  0  0  3  0  0  0  0  0  0
  161.2440  204.3520  148.3230 C   0  0  2  0  0  3  0  0  0  0  0  0
  159.6750  205.8510  145.0020 N   0  0  0  0  0  2  0  0  0  0  0  0
  161.7300  210.5190  152.0720 C   0  0  0  0  0  2  0  0  0  0  0  0
  161.5140  207.2370  152.6860 C   0  0  2  0  0  3  0  0  0  0  0  0
  160.7860  206.7130  145.1010 N   0  0  0  0  0  2  0  0  0  0  0  0
  162.6660  209.3930  151.6060 C   0  0  0  0  0  2  0  0  0  0  0  0
  160.0760  209.1920  153.0290 N   0  0  1  0  0  0  0  0  0  0  0  0
  160.8010  202.0340  149.1670 C   0  0  0  0  0  2  0  0  0  0  0  0
  161.5170  203.3600  149.4580 C   0  0  2  0  0  3  0  0  0  0  0  0
  161.8450  203.8240  147.0300 C   0  0  0  0  0  2  0  0  0  0  0  0
  161.9220  207.5470  150.2620 N   0  0  0  0  0  0  0  0  0  0  0  0
  162.2180  207.9810  147.4980 C   0  0  0  0  0  1  0  0  0  0  0  0
  159.8500  203.4770  144.5090 C   0  0  0  0  0  1  0  0  0  0  0  0
  161.8530  205.7270  148.5970 C   0  0  2  0  0  3  0  0  0  0  0  0
  161.4890  204.6420  145.8690 N   0  0  2  0  0  0  0  0  0  0  0  0
  159.8260  210.3200  153.9380 C   0  0  2  0  0  3  0  0  0  0  0  0
  159.0690  211.4670  153.2440 C   0  0  0  0  0  3  0  0  0  0  0  0
  159.5590  212.7330  153.5800 O   0  0  0  0  0  1  0  0  0  0  0  0
  157.7030  211.3960  153.5220 O   0  0  0  0  0  1  0  0  0  0  0  0
  1 16  1  6  0  0  0
  1 29  1  0  0  0  0
  2 24  1  1  0  0  0
  2 12  1  0  0  0  0
  3 11  1  0  0  0  0
  4  3  2  0  0  0  0
  5 25  1  1  0  0  0
  5 27  1  0  0  0  0
  6 18  1  6  0  0  0
  6  5  1  0  0  0  0
  7 19  1  0  0  0  0
  7 17  1  0  0  0  0
  9 26  1  6  0  0  0
  9 28  1  0  0  0  0
 12  8  1  1  0  0  0
 13 12  1  0  0  0  0
 13 11  1  1  0  0  0
 14 23  1  6  0  0  0
 14 27  1  0  0  0  0
 14 22  1  0  0  0  0
 15 18  1  0  0  0  0
 15  9  1  0  0  0  0
 17  8  1  6  0  0  0
 17 10  1  0  0  0  0
 19 16  1  0  0  0  0
 20  1  1  0  0  0  0
 20 10  1  1  0  0  0
 20 29  1  0  0  0  0
 21  4  1  0  0  0  0
 22 21  1  6  0  0  0
 22 13  1  0  0  0  0
 24  7  2  0  0  0  0
 27  2  1  0  0  0  0
 28  6  1  0  0  0  0
 28 23  1  0  0  0  0
 30 32  1  0  0  0  0
 30 31  1  0  0  0  0
 30 29  1  0  0  0  0
M  END
>  <MODEL>
2

>  <REMARK>
 VINA RESULT:      -8.0      3.136      5.793
  Name = 
  1 active torsions:
  status: ('A' for Active; 'I' for Inactive)
    1  A    between atoms: C_29  and  C_30
                            x       y       z     vdW  Elec       q    Type
                         _______ _______ _______ _____ _____    ______ ____

>  <TORSDO>
F 1

$$$$
=
 OpenBabel11122412483D

 32 38  0  0  1  0  0  0  0  0999 V2000
  160.9100  213.6780  147.8160 C   0  0  2  0  0  3  0  0  0  0  0  0
  161.2730  209.4380  150.7360 C   0  0  1  0  0  3  0  0  0  0  0  0
  160.3190  209.8080  155.6770 C   0  0  0  0  0  3  0  0  0  0  0  0
  160.2610  208.4710  155.7610 C   0  0  0  0  0  3  0  0  0  0  0  0
  161.8660  207.1360  149.7970 C   0  0  2  0  0  3  0  0  0  0  0  0
  162.2870  205.6730  150.0700 C   0  0  2  0  0  3  0  0  0  0  0  0
  161.8250  211.4090  149.4380 C   0  0  0  0  0  0  0  0  0  0  0  0
  160.4570  211.5760  151.6100 C   0  0  0  0  0  2  0  0  0  0  0  0
  160.6150  204.6240  151.2160 C   0  0  1  0  0  3  0  0  0  0  0  0
  160.0330  213.2820  149.8400 C   0  0  0  0  0  2  0  0  0  0  0  0
  160.7350  210.5170  154.4150 C   0  0  0  0  0  2  0  0  0  0  0  0
  161.2550  210.3330  151.9780 C   0  0  1  0  0  3  0  0  0  0  0  0
  160.6040  209.6330  153.1700 C   0  0  1  0  0  3  0  0  0  0  0  0
  161.2840  207.3990  152.1980 C   0  0  2  0  0  3  0  0  0  0  0  0
  160.4270  204.3630  149.7920 N   0  0  0  0  0  2  0  0  0  0  0  0
  161.7110  212.5760  147.1640 C   0  0  0  0  0  2  0  0  0  0  0  0
  161.0950  212.3300  150.4440 C   0  0  2  0  0  3  0  0  0  0  0  0
  161.5810  204.8230  149.1250 N   0  0  0  0  0  2  0  0  0  0  0  0
  162.6030  211.9820  148.2650 C   0  0  0  0  0  2  0  0  0  0  0  0
  159.8070  212.9410  148.4520 N   0  0  1  0  0  0  0  0  0  0  0  0
  160.4970  207.5790  154.5710 C   0  0  0  0  0  2  0  0  0  0  0  0
  161.2740  208.2820  153.4500 C   0  0  2  0  0  3  0  0  0  0  0  0
  162.0380  206.1120  152.4900 C   0  0  0  0  0  2  0  0  0  0  0  0
  161.9240  210.1370  149.6450 N   0  0  0  0  0  0  0  0  0  0  0  0
  162.7090  207.6320  148.6330 C   0  0  0  0  0  1  0  0  0  0  0  0
  160.4620  203.3320  151.9930 C   0  0  0  0  0  1  0  0  0  0  0  0
  161.9630  208.0830  151.0120 C   0  0  2  0  0  3  0  0  0  0  0  0
  161.9550  205.1490  151.3900 N   0  0  2  0  0  0  0  0  0  0  0  0
  159.5150  214.0550  147.5380 C   0  0  2  0  0  3  0  0  0  0  0  0
  158.9910  213.5670  146.1750 C   0  0  0  0  0  3  0  0  0  0  0  0
  158.0860  214.4530  145.5830 O   0  0  0  0  0  1  0  0  0  0  0  0
  158.4120  212.3020  146.2940 O   0  0  0  0  0  1  0  0  0  0  0  0
  1 16  1  6  0  0  0
  1 20  1  0  0  0  0
  2 24  1  6  0  0  0
  2 27  1  0  0  0  0
  2 12  1  0  0  0  0
  3  4  2  0  0  0  0
  5 25  1  6  0  0  0
  5  6  1  0  0  0  0
  5 27  1  0  0  0  0
  6 18  1  6  0  0  0
  6 28  1  0  0  0  0
  7 24  2  0  0  0  0
  7 17  1  0  0  0  0
  9 28  1  0  0  0  0
  9 26  1  1  0  0  0
 11  3  1  0  0  0  0
 12  8  1  6  0  0  0
 12 13  1  0  0  0  0
 13 22  1  0  0  0  0
 13 11  1  1  0  0  0
 14 23  1  1  0  0  0
 14 22  1  0  0  0  0
 15  9  1  0  0  0  0
 16 19  1  0  0  0  0
 17 10  1  6  0  0  0
 17  8  1  0  0  0  0
 18 15  1  0  0  0  0
 19  7  1  0  0  0  0
 20 10  1  1  0  0  0
 21  4  1  0  0  0  0
 22 21  1  1  0  0  0
 27 14  1  0  0  0  0
 28 23  1  0  0  0  0
 29  1  1  0  0  0  0
 29 20  1  0  0  0  0
 30 32  1  0  0  0  0
 30 29  1  0  0  0  0
 31 30  1  0  0  0  0
M  END
>  <MODEL>
3

>  <REMARK>
 VINA RESULT:      -7.6      1.910      2.472
  Name = 
  1 active torsions:
  status: ('A' for Active; 'I' for Inactive)
    1  A    between atoms: C_29  and  C_30
                            x       y       z     vdW  Elec       q    Type
                         _______ _______ _______ _____ _____    ______ ____

>  <TORSDO>
F 1

$$$$
=
 OpenBabel11122412483D

 32 38  0  0  1  0  0  0  0  0999 V2000
  158.8840  214.2220  148.0420 C   0  0  2  0  0  3  0  0  0  0  0  0
  159.2610  211.9970  152.6840 C   0  0  1  0  0  3  0  0  0  0  0  0
  156.3300  213.6850  156.4270 C   0  0  0  0  0  3  0  0  0  0  0  0
  156.6380  212.5990  157.1510 C   0  0  0  0  0  3  0  0  0  0  0  0
  160.8300  210.0400  153.1770 C   0  0  2  0  0  3  0  0  0  0  0  0
  161.5130  209.1350  154.2280 C   0  0  2  0  0  3  0  0  0  0  0  0
  159.6870  213.3750  150.7360 C   0  0  0  0  0  0  0  0  0  0  0  0
  157.5740  213.6970  152.1680 C   0  0  0  0  0  2  0  0  0  0  0  0
  159.9090  207.9530  155.3400 C   0  0  1  0  0  3  0  0  0  0  0  0
  157.4220  214.2490  149.7400 C   0  0  0  0  0  2  0  0  0  0  0  0
  156.9920  213.9870  155.1090 C   0  0  0  0  0  2  0  0  0  0  0  0
  158.4810  213.1750  153.2740 C   0  0  1  0  0  3  0  0  0  0  0  0
  157.6410  212.7500  154.4770 C   0  0  1  0  0  3  0  0  0  0  0  0
  159.2780  210.8750  154.9280 C   0  0  2  0  0  3  0  0  0  0  0  0
  160.3980  207.1330  154.2360 N   0  0  0  0  0  2  0  0  0  0  0  0
  160.1640  213.4420  148.2230 C   0  0  0  0  0  2  0  0  0  0  0  0
  158.3770  214.1700  150.9580 C   0  0  2  0  0  3  0  0  0  0  0  0
  161.5330  207.7800  153.7040 N   0  0  0  0  0  2  0  0  0  0  0  0
  160.6660  213.7600  149.6400 C   0  0  0  0  0  2  0  0  0  0  0  0
  157.8880  213.3600  148.6970 N   0  0  1  0  0  0  0  0  0  0  0  0
  157.5850  211.5410  156.6510 C   0  0  0  0  0  2  0  0  0  0  0  0
  158.5040  212.0510  155.5340 C   0  0  2  0  0  3  0  0  0  0  0  0
  160.1910  210.2700  155.9820 C   0  0  0  0  0  2  0  0  0  0  0  0
  160.0610  212.4580  151.5660 N   0  0  0  0  0  0  0  0  0  0  0  0
  161.8860  210.3950  152.1420 C   0  0  0  0  0  1  0  0  0  0  0  0
  159.8420  207.1150  156.6020 C   0  0  0  0  0  1  0  0  0  0  0  0
  160.1450  211.3010  153.7440 C   0  0  2  0  0  3  0  0  0  0  0  0
  160.8460  209.0440  155.5220 N   0  0  2  0  0  0  0  0  0  0  0  0
  157.6770  213.8030  147.3110 C   0  0  2  0  0  3  0  0  0  0  0  0
  157.9170  212.6700  146.2970 C   0  0  0  0  0  3  0  0  0  0  0  0
  158.3470  213.1310  145.0480 O   0  0  0  0  0  1  0  0  0  0  0  0
  156.7700  211.8890  146.1480 O   0  0  0  0  0  1  0  0  0  0  0  0
  1 16  1  6  0  0  0
  1 20  1  0  0  0  0
  2 24  1  6  0  0  0
  2 12  1  0  0  0  0
  2 27  1  0  0  0  0
  3  4  2  0  0  0  0
  5 25  1  6  0  0  0
  5 27  1  0  0  0  0
  5  6  1  0  0  0  0
  6 18  1  6  0  0  0
  6 28  1  0  0  0  0
  7 17  1  0  0  0  0
  7 24  2  0  0  0  0
  9 28  1  0  0  0  0
  9 26  1  1  0  0  0
 11  3  1  0  0  0  0
 12  8  1  6  0  0  0
 12 13  1  0  0  0  0
 13 11  1  1  0  0  0
 13 22  1  0  0  0  0
 14 22  1  0  0  0  0
 14 23  1  1  0  0  0
 15  9  1  0  0  0  0
 16 19  1  0  0  0  0
 17 10  1  6  0  0  0
 17  8  1  0  0  0  0
 18 15  1  0  0  0  0
 19  7  1  0  0  0  0
 20 10  1  1  0  0  0
 21  4  1  0  0  0  0
 22 21  1  1  0  0  0
 27 14  1  0  0  0  0
 28 23  1  0  0  0  0
 29  1  1  0  0  0  0
 29 20  1  0  0  0  0
 30 29  1  0  0  0  0
 31 30  1  0  0  0  0
 32 30  1  0  0  0  0
M  END
>  <MODEL>
4

>  <REMARK>
 VINA RESULT:      -6.6      2.622      4.245
  Name = 
  1 active torsions:
  status: ('A' for Active; 'I' for Inactive)
    1  A    between atoms: C_29  and  C_30
                            x       y       z     vdW  Elec       q    Type
                         _______ _______ _______ _____ _____    ______ ____

>  <TORSDO>
F 1

$$$$
=
 OpenBabel11122412483D

 32 38  0  0  1  0  0  0  0  0999 V2000
  160.2110  213.8380  148.9440 C   0  0  2  0  0  3  0  0  0  0  0  0
  160.9670  209.3930  151.4570 C   0  0  1  0  0  3  0  0  0  0  0  0
  160.2590  209.2800  156.4510 C   0  0  0  0  0  3  0  0  0  0  0  0
  160.2810  207.9400  156.4190 C   0  0  0  0  0  3  0  0  0  0  0  0
  161.6380  207.2210  150.2900 C   0  0  2  0  0  3  0  0  0  0  0  0
  162.1540  205.7680  150.4110 C   0  0  2  0  0  3  0  0  0  0  0  0
  161.3380  211.4980  150.3130 C   0  0  0  0  0  0  0  0  0  0  0  0
  160.0800  211.3960  152.5550 C   0  0  0  0  0  2  0  0  0  0  0  0
  160.6080  204.5260  151.5400 C   0  0  1  0  0  3  0  0  0  0  0  0
  159.4660  213.2180  150.9660 C   0  0  0  0  0  2  0  0  0  0  0  0
  160.5660  210.1190  155.2390 C   0  0  0  0  0  2  0  0  0  0  0  0
  160.9650  210.1770  152.7730 C   0  0  1  0  0  3  0  0  0  0  0  0
  160.4190  209.3390  153.9280 C   0  0  1  0  0  3  0  0  0  0  0  0
  161.1700  207.2410  152.7300 C   0  0  2  0  0  3  0  0  0  0  0  0
  160.3590  204.3760  150.1090 N   0  0  0  0  0  2  0  0  0  0  0  0
  161.0360  212.8470  148.1600 C   0  0  0  0  0  2  0  0  0  0  0  0
  160.6110  212.2840  151.4310 C   0  0  2  0  0  3  0  0  0  0  0  0
  161.4480  204.9610  149.4310 N   0  0  0  0  0  2  0  0  0  0  0  0
  162.0170  212.2160  149.1590 C   0  0  0  0  0  2  0  0  0  0  0  0
  159.1860  212.9830  149.5650 N   0  0  1  0  0  0  0  0  0  0  0  0
  160.5030  207.1700  155.1440 C   0  0  0  0  0  2  0  0  0  0  0  0
  161.1780  208.0120  154.0540 C   0  0  2  0  0  3  0  0  0  0  0  0
  162.0110  205.9820  152.8700 C   0  0  0  0  0  2  0  0  0  0  0  0
  161.5180  210.2220  150.4020 N   0  0  0  0  0  0  0  0  0  0  0  0
  162.3880  207.8650  149.1350 C   0  0  0  0  0  1  0  0  0  0  0  0
  160.5690  203.1640  152.2050 C   0  0  0  0  0  1  0  0  0  0  0  0
  161.7460  208.0640  151.5780 C   0  0  2  0  0  3  0  0  0  0  0  0
  161.9230  205.1140  151.6940 N   0  0  2  0  0  0  0  0  0  0  0  0
  158.7840  214.1530  148.7690 C   0  0  2  0  0  3  0  0  0  0  0  0
  158.2160  213.7510  147.3950 C   0  0  0  0  0  3  0  0  0  0  0  0
  157.4410  212.5890  147.4370 O   0  0  0  0  0  1  0  0  0  0  0  0
  159.2430  213.6060  146.4600 O   0  0  0  0  0  1  0  0  0  0  0  0
  1 16  1  6  0  0  0
  1 20  1  0  0  0  0
  2 24  1  6  0  0  0
  2 27  1  0  0  0  0
  2 12  1  0  0  0  0
  4  3  2  0  0  0  0
  5 25  1  6  0  0  0
  5  6  1  0  0  0  0
  5 27  1  0  0  0  0
  6 18  1  6  0  0  0
  6 28  1  0  0  0  0
  7 24  2  0  0  0  0
  7 17  1  0  0  0  0
  9 28  1  0  0  0  0
  9 26  1  1  0  0  0
 11  3  1  0  0  0  0
 12  8  1  6  0  0  0
 12 13  1  0  0  0  0
 13 22  1  0  0  0  0
 13 11  1  1  0  0  0
 14 23  1  1  0  0  0
 14 22  1  0  0  0  0
 15  9  1  0  0  0  0
 16 19  1  0  0  0  0
 17 10  1  6  0  0  0
 17  8  1  0  0  0  0
 18 15  1  0  0  0  0
 19  7  1  0  0  0  0
 20 10  1  1  0  0  0
 21  4  1  0  0  0  0
 22 21  1  1  0  0  0
 27 14  1  0  0  0  0
 28 23  1  0  0  0  0
 29  1  1  0  0  0  0
 29 20  1  0  0  0  0
 30 31  1  0  0  0  0
 30 29  1  0  0  0  0
 32 30  1  0  0  0  0
M  END
>  <MODEL>
5

>  <REMARK>
 VINA RESULT:      -6.4      1.388      1.690
  Name = 
  1 active torsions:
  status: ('A' for Active; 'I' for Inactive)
    1  A    between atoms: C_29  and  C_30
                            x       y       z     vdW  Elec       q    Type
                         _______ _______ _______ _____ _____    ______ ____

>  <TORSDO>
F 1

$$$$
=
 OpenBabel11122412483D

 32 38  0  0  1  0  0  0  0  0999 V2000
  159.8580  214.4530  147.0500 C   0  0  2  0  0  3  0  0  0  0  0  0
  159.8940  211.9920  151.5870 C   0  0  1  0  0  3  0  0  0  0  0  0
  156.8180  213.6060  155.2450 C   0  0  0  0  0  3  0  0  0  0  0  0
  157.0460  212.4750  155.9290 C   0  0  0  0  0  3  0  0  0  0  0  0
  161.3630  209.9560  152.0640 C   0  0  2  0  0  3  0  0  0  0  0  0
  161.9540  208.9750  153.1040 C   0  0  2  0  0  3  0  0  0  0  0  0
  160.4770  213.4470  149.7370 C   0  0  0  0  0  0  0  0  0  0  0  0
  158.3000  213.7780  151.0670 C   0  0  0  0  0  2  0  0  0  0  0  0
  160.2490  207.8020  154.0650 C   0  0  1  0  0  3  0  0  0  0  0  0
  158.3040  214.4530  148.6650 C   0  0  0  0  0  2  0  0  0  0  0  0
  157.5630  213.9460  153.9820 C   0  0  0  0  0  2  0  0  0  0  0  0
  159.1240  213.1690  152.1920 C   0  0  1  0  0  3  0  0  0  0  0  0
  158.2030  212.7180  153.3240 C   0  0  1  0  0  3  0  0  0  0  0  0
  159.7450  210.7630  153.7680 C   0  0  2  0  0  3  0  0  0  0  0  0
  160.7710  207.0190  152.9490 N   0  0  0  0  0  2  0  0  0  0  0  0
  161.0980  213.6170  147.2610 C   0  0  0  0  0  2  0  0  0  0  0  0
  159.1860  214.2780  149.9270 C   0  0  2  0  0  3  0  0  0  0  0  0
  161.9550  207.6470  152.5140 N   0  0  0  0  0  2  0  0  0  0  0  0
  161.5300  213.8470  148.7170 C   0  0  0  0  0  2  0  0  0  0  0  0
  158.7960  213.5990  147.6050 N   0  0  1  0  0  0  0  0  0  0  0  0
  157.9820  211.4070  155.4280 C   0  0  0  0  0  2  0  0  0  0  0  0
  158.9800  211.9360  154.3900 C   0  0  2  0  0  3  0  0  0  0  0  0
  160.5760  210.0720  154.8380 C   0  0  0  0  0  2  0  0  0  0  0  0
  160.7720  212.4770  150.5380 N   0  0  0  0  0  0  0  0  0  0  0  0
  162.4870  210.3200  151.1070 C   0  0  0  0  0  1  0  0  0  0  0  0
  160.0810  206.9070  155.2770 C   0  0  0  0  0  1  0  0  0  0  0  0
  160.6920  211.2130  152.6570 C   0  0  2  0  0  3  0  0  0  0  0  0
  161.2120  208.8460  154.3530 N   0  0  2  0  0  0  0  0  0  0  0  0
  158.6800  214.1170  146.2340 C   0  0  2  0  0  3  0  0  0  0  0  0
  158.9370  213.0270  145.1780 C   0  0  0  0  0  3  0  0  0  0  0  0
  158.8300  213.4950  143.8650 O   0  0  0  0  0  1  0  0  0  0  0  0
  158.0790  211.9420  145.3690 O   0  0  0  0  0  1  0  0  0  0  0  0
  1 16  1  6  0  0  0
  1 20  1  0  0  0  0
  2 24  1  6  0  0  0
  2 12  1  0  0  0  0
  2 27  1  0  0  0  0
  3  4  2  0  0  0  0
  5 25  1  6  0  0  0
  5 27  1  0  0  0  0
  5  6  1  0  0  0  0
  6 18  1  6  0  0  0
  6 28  1  0  0  0  0
  7 17  1  0  0  0  0
  7 24  2  0  0  0  0
  9 28  1  0  0  0  0
  9 26  1  1  0  0  0
 11  3  1  0  0  0  0
 12  8  1  6  0  0  0
 12 13  1  0  0  0  0
 13 11  1  1  0  0  0
 13 22  1  0  0  0  0
 14 22  1  0  0  0  0
 14 23  1  1  0  0  0
 15  9  1  0  0  0  0
 16 19  1  0  0  0  0
 17 10  1  6  0  0  0
 17  8  1  0  0  0  0
 18 15  1  0  0  0  0
 19  7  1  0  0  0  0
 20 10  1  1  0  0  0
 21  4  1  0  0  0  0
 22 21  1  1  0  0  0
 27 14  1  0  0  0  0
 28 23  1  0  0  0  0
 29  1  1  0  0  0  0
 29 20  1  0  0  0  0
 30 32  1  0  0  0  0
 30 29  1  0  0  0  0
 31 30  1  0  0  0  0
M  END
>  <MODEL>
6

>  <REMARK>
 VINA RESULT:      -5.7      2.458      4.202
  Name = 
  1 active torsions:
  status: ('A' for Active; 'I' for Inactive)
    1  A    between atoms: C_29  and  C_30
                            x       y       z     vdW  Elec       q    Type
                         _______ _______ _______ _____ _____    ______ ____

>  <TORSDO>
F 1

$$$$
