=
 OpenBabel11122412383D

 30 35  0  0  1  0  0  0  0  0999 V2000
  161.5030  208.5610  151.6680 C   0  0  0  0  0  0  0  0  0  0  0  0
  161.2720  209.2400  154.0920 C   0  0  0  0  0  0  0  0  0  0  0  0
  160.8650  204.6630  152.6560 N   0  0  0  0  0  0  0  0  0  0  0  0
  161.4470  207.5390  150.6700 C   0  0  0  0  0  0  0  0  0  0  0  0
  161.7940  209.8610  151.2550 C   0  0  0  0  0  3  0  0  0  0  0  0
  162.0180  209.4670  147.7440 O   0  0  0  0  0  0  0  0  0  0  0  0
  162.1910  205.7330  148.2530 C   0  0  1  0  0  3  0  0  0  0  0  0
  161.8680  209.1690  148.9630 C   0  0  0  0  0  0  0  0  0  0  0  0
  161.6560  204.7180  149.1280 N   0  0  0  0  0  0  0  0  0  0  0  0
  161.0160  204.0420  151.4720 C   0  0  0  0  0  0  0  0  0  0  0  0
  161.9970  210.1740  149.9170 C   0  0  0  0  0  0  0  0  0  0  0  0
  161.5690  207.8800  149.3310 N   0  0  0  0  0  0  0  0  0  0  0  0
  161.0220  208.8590  155.4120 C   0  0  0  0  0  3  0  0  0  0  0  0
  161.5100  203.4300  148.4780 C   0  0  0  0  0  2  0  0  0  0  0  0
  162.2630  205.0970  146.8760 C   0  0  0  0  0  2  0  0  0  0  0  0
  161.5200  210.6220  153.8480 N   0  0  0  0  0  1  0  0  0  0  0  0
  161.0140  205.9620  152.4400 N   0  0  0  0  0  0  0  0  0  0  0  0
  160.7660  207.5310  155.7370 C   0  0  0  0  0  3  0  0  0  0  0  0
  161.2660  208.2640  153.0480 C   0  0  0  0  0  0  0  0  0  0  0  0
  161.2470  206.2130  151.1360 C   0  0  0  0  0  0  0  0  0  0  0  0
  160.9780  202.5610  151.3220 C   0  0  0  0  0  1  0  0  0  0  0  0
  161.2770  204.9830  150.4840 C   0  0  0  0  0  0  0  0  0  0  0  0
  162.1060  203.6000  147.0930 C   0  0  0  0  0  2  0  0  0  0  0  0
  159.7920  206.6480  148.1150 C   0  0  0  0  0  1  0  0  0  0  0  0
  160.7590  206.5640  154.7380 C   0  0  0  0  0  3  0  0  0  0  0  0
  161.0020  206.9160  153.4040 C   0  0  0  0  0  0  0  0  0  0  0  0
  161.2850  206.9530  148.2300 C   0  0  2  0  0  3  0  0  0  0  0  0
  162.3090  211.4790  149.5150 O   0  0  0  0  0  0  0  0  0  0  0  0
  161.6660  213.0160  147.7930 C   0  0  0  0  0  1  0  0  0  0  0  0
  161.3180  212.4270  149.1440 C   0  0  0  0  0  2  0  0  0  0  0  0
  1 19  1  0  0  0  0
  2 13  1  0  0  0  0
  4 20  1  0  0  0  0
  4  1  2  0  0  0  0
  5  1  1  0  0  0  0
  6  8  2  0  0  0  0
  7 15  1  6  0  0  0
  7  9  1  0  0  0  0
  8 12  1  0  0  0  0
  8 11  1  0  0  0  0
  9 22  1  0  0  0  0
 10  3  2  0  0  0  0
 11  5  2  0  0  0  0
 12  4  1  0  0  0  0
 13 18  2  0  0  0  0
 14  9  1  0  0  0  0
 15 23  1  0  0  0  0
 16  2  1  0  0  0  0
 17  3  1  0  0  0  0
 17 26  1  0  0  0  0
 19 26  1  0  0  0  0
 19  2  2  0  0  0  0
 20 17  1  0  0  0  0
 21 10  1  0  0  0  0
 22 20  2  0  0  0  0
 22 10  1  0  0  0  0
 23 14  1  0  0  0  0
 25 18  1  0  0  0  0
 26 25  2  0  0  0  0
 27 24  1  1  0  0  0
 27  7  1  0  0  0  0
 27 12  1  0  0  0  0
 28 11  1  0  0  0  0
 29 30  1  0  0  0  0
 30 28  1  0  0  0  0
M  END
>  <MODEL>
1

>  <REMARK>
 VINA RESULT:      -7.9      0.000      0.000
  Name = 
  2 active torsions:
  status: ('A' for Active; 'I' for Inactive)
    1  A    between atoms: C_11  and  O_28
    2  A    between atoms: O_28  and  C_30
                            x       y       z     vdW  Elec       q    Type
                         _______ _______ _______ _____ _____    ______ ____

>  <TORSDO>
F 2

$$$$
=
 OpenBabel11122412383D

 30 35  0  0  1  0  0  0  0  0999 V2000
  161.1520  205.5660  149.7670 C   0  0  0  0  0  0  0  0  0  0  0  0
  161.1000  203.0440  149.6070 C   0  0  0  0  0  0  0  0  0  0  0  0
  160.9570  205.3540  153.8280 N   0  0  0  0  0  0  0  0  0  0  0  0
  161.1950  206.7430  150.5780 C   0  0  0  0  0  0  0  0  0  0  0  0
  161.1540  205.7270  148.3810 C   0  0  0  0  0  3  0  0  0  0  0  0
  161.4350  209.2420  148.0680 O   0  0  0  0  0  0  0  0  0  0  0  0
  160.5570  209.5610  151.7230 C   0  0  1  0  0  3  0  0  0  0  0  0
  161.3350  208.1050  148.6100 C   0  0  0  0  0  0  0  0  0  0  0  0
  160.7660  208.8600  152.9670 N   0  0  0  0  0  0  0  0  0  0  0  0
  160.8960  206.6510  154.1780 C   0  0  0  0  0  0  0  0  0  0  0  0
  161.2240  206.9830  147.7930 C   0  0  0  0  0  0  0  0  0  0  0  0
  161.3500  207.9830  149.9780 N   0  0  0  0  0  0  0  0  0  0  0  0
  161.0660  201.8130  150.2670 C   0  0  0  0  0  3  0  0  0  0  0  0
  160.7950  209.7450  154.1160 C   0  0  0  0  0  2  0  0  0  0  0  0
  160.6020  211.0390  152.0660 C   0  0  0  0  0  2  0  0  0  0  0  0
  161.1310  203.0190  148.1820 N   0  0  0  0  0  1  0  0  0  0  0  0
  161.0650  205.3060  152.5080 N   0  0  0  0  0  0  0  0  0  0  0  0
  161.0390  201.7480  151.6560 C   0  0  0  0  0  3  0  0  0  0  0  0
  161.1100  204.2620  150.3550 C   0  0  0  0  0  0  0  0  0  0  0  0
  161.0910  206.5470  151.9800 C   0  0  0  0  0  0  0  0  0  0  0  0
  160.7080  207.1050  155.5840 C   0  0  0  0  0  1  0  0  0  0  0  0
  160.9600  207.4420  153.0380 C   0  0  0  0  0  0  0  0  0  0  0  0
  160.4680  211.1250  153.5790 C   0  0  0  0  0  2  0  0  0  0  0  0
  163.0660  209.2030  151.2890 C   0  0  0  0  0  1  0  0  0  0  0  0
  161.0450  202.9200  152.4030 C   0  0  0  0  0  3  0  0  0  0  0  0
  161.0830  204.1690  151.7700 C   0  0  0  0  0  0  0  0  0  0  0  0
  161.6470  209.2120  150.7220 C   0  0  2  0  0  3  0  0  0  0  0  0
  161.2050  207.1360  146.4010 O   0  0  0  0  0  0  0  0  0  0  0  0
  161.4040  205.4740  144.6860 C   0  0  0  0  0  1  0  0  0  0  0  0
  160.4560  206.2840  145.5440 C   0  0  0  0  0  2  0  0  0  0  0  0
  1 19  1  0  0  0  0
  1  4  2  0  0  0  0
  2 13  2  0  0  0  0
  2 19  1  0  0  0  0
  3 10  2  0  0  0  0
  4 20  1  0  0  0  0
  5  1  1  0  0  0  0
  6  8  2  0  0  0  0
  7 15  1  1  0  0  0
  7  9  1  0  0  0  0
  8 12  1  0  0  0  0
  9 22  1  0  0  0  0
  9 14  1  0  0  0  0
 10 21  1  0  0  0  0
 11  5  2  0  0  0  0
 11  8  1  0  0  0  0
 12  4  1  0  0  0  0
 12 27  1  0  0  0  0
 13 18  1  0  0  0  0
 15 23  1  0  0  0  0
 16  2  1  0  0  0  0
 17  3  1  0  0  0  0
 18 25  2  0  0  0  0
 19 26  2  0  0  0  0
 20 17  1  0  0  0  0
 20 22  2  0  0  0  0
 22 10  1  0  0  0  0
 23 14  1  0  0  0  0
 26 25  1  0  0  0  0
 26 17  1  0  0  0  0
 27 24  1  1  0  0  0
 27  7  1  0  0  0  0
 28 11  1  0  0  0  0
 29 30  1  0  0  0  0
 30 28  1  0  0  0  0
M  END
>  <MODEL>
2

>  <REMARK>
 VINA RESULT:      -7.9      1.645      5.598
  Name = 
  2 active torsions:
  status: ('A' for Active; 'I' for Inactive)
    1  A    between atoms: C_11  and  O_28
    2  A    between atoms: O_28  and  C_30
                            x       y       z     vdW  Elec       q    Type
                         _______ _______ _______ _____ _____    ______ ____

>  <TORSDO>
F 2

$$$$
=
 OpenBabel11122412383D

 30 35  0  0  1  0  0  0  0  0999 V2000
  161.3360  207.8620  151.5500 C   0  0  0  0  0  0  0  0  0  0  0  0
  161.6880  210.3090  151.0280 C   0  0  0  0  0  0  0  0  0  0  0  0
  161.8330  206.9090  147.6240 N   0  0  0  0  0  0  0  0  0  0  0  0
  161.3080  206.5030  151.1040 C   0  0  0  0  0  0  0  0  0  0  0  0
  161.0880  208.1090  152.9010 C   0  0  0  0  0  3  0  0  0  0  0  0
  160.7150  204.8290  154.1780 O   0  0  0  0  0  0  0  0  0  0  0  0
  160.3930  203.5710  150.6360 C   0  0  1  0  0  3  0  0  0  0  0  0
  160.8970  205.7630  153.3470 C   0  0  0  0  0  0  0  0  0  0  0  0
  160.9140  203.8500  149.3200 N   0  0  0  0  0  0  0  0  0  0  0  0
  161.6090  205.5830  147.6230 C   0  0  0  0  0  0  0  0  0  0  0  0
  160.8490  207.0790  153.8010 C   0  0  0  0  0  0  0  0  0  0  0  0
  161.1510  205.4810  152.0280 N   0  0  0  0  0  0  0  0  0  0  0  0
  161.9700  211.2910  150.0750 C   0  0  0  0  0  3  0  0  0  0  0  0
  160.9760  202.6740  148.4740 C   0  0  0  0  0  2  0  0  0  0  0  0
  160.2400  202.0620  150.7100 C   0  0  0  0  0  2  0  0  0  0  0  0
  161.4930  210.7420  152.3730 N   0  0  0  0  0  1  0  0  0  0  0  0
  161.7350  207.3230  148.8790 N   0  0  0  0  0  0  0  0  0  0  0  0
  162.1770  210.9530  148.7420 C   0  0  0  0  0  3  0  0  0  0  0  0
  161.6110  208.9350  150.6450 C   0  0  0  0  0  0  0  0  0  0  0  0
  161.4650  206.2960  149.7090 C   0  0  0  0  0  0  0  0  0  0  0  0
  161.5750  204.7660  146.3780 C   0  0  0  0  0  1  0  0  0  0  0  0
  161.3540  205.1540  148.9190 C   0  0  0  0  0  0  0  0  0  0  0  0
  160.3380  201.5570  149.2770 C   0  0  0  0  0  2  0  0  0  0  0  0
  162.8230  203.7400  151.4560 C   0  0  0  0  0  1  0  0  0  0  0  0
  162.1030  209.6230  148.3460 C   0  0  0  0  0  3  0  0  0  0  0  0
  161.8260  208.6160  149.2800 C   0  0  0  0  0  0  0  0  0  0  0  0
  161.3510  204.0630  151.7080 C   0  0  2  0  0  3  0  0  0  0  0  0
  160.5820  207.3400  155.1510 O   0  0  0  0  0  0  0  0  0  0  0  0
  161.9320  208.6000  156.6770 C   0  0  0  0  0  1  0  0  0  0  0  0
  160.7480  208.6250  155.7330 C   0  0  0  0  0  2  0  0  0  0  0  0
  1  5  1  0  0  0  0
  2 16  1  0  0  0  0
  3 17  1  0  0  0  0
  4  1  2  0  0  0  0
  4 12  1  0  0  0  0
  5 11  2  0  0  0  0
  7 15  1  6  0  0  0
  7 27  1  0  0  0  0
  8 11  1  0  0  0  0
  8  6  2  0  0  0  0
  9  7  1  0  0  0  0
 10  3  2  0  0  0  0
 10 22  1  0  0  0  0
 11 28  1  0  0  0  0
 12  8  1  0  0  0  0
 13  2  2  0  0  0  0
 14 23  1  0  0  0  0
 14  9  1  0  0  0  0
 17 26  1  0  0  0  0
 17 20  1  0  0  0  0
 18 13  1  0  0  0  0
 19  2  1  0  0  0  0
 19  1  1  0  0  0  0
 20  4  1  0  0  0  0
 21 10  1  0  0  0  0
 22  9  1  0  0  0  0
 22 20  2  0  0  0  0
 23 15  1  0  0  0  0
 25 18  2  0  0  0  0
 25 26  1  0  0  0  0
 26 19  2  0  0  0  0
 27 24  1  6  0  0  0
 27 12  1  0  0  0  0
 28 30  1  0  0  0  0
 30 29  1  0  0  0  0
M  END
>  <MODEL>
3

>  <REMARK>
 VINA RESULT:      -7.0      2.260      4.984
  Name = 
  2 active torsions:
  status: ('A' for Active; 'I' for Inactive)
    1  A    between atoms: C_11  and  O_28
    2  A    between atoms: O_28  and  C_30
                            x       y       z     vdW  Elec       q    Type
                         _______ _______ _______ _____ _____    ______ ____

>  <TORSDO>
F 2

$$$$
=
 OpenBabel11122412383D

 30 35  0  0  1  0  0  0  0  0999 V2000
  161.3690  207.6170  150.7600 C   0  0  0  0  0  0  0  0  0  0  0  0
  161.3440  205.3360  149.6730 C   0  0  0  0  0  0  0  0  0  0  0  0
  160.5330  205.9480  154.3780 N   0  0  0  0  0  0  0  0  0  0  0  0
  161.2830  208.4130  151.9450 C   0  0  0  0  0  0  0  0  0  0  0  0
  161.5910  208.2740  149.5490 C   0  0  0  0  0  3  0  0  0  0  0  0
  161.9190  211.6370  150.6030 O   0  0  0  0  0  0  0  0  0  0  0  0
  160.4720  210.6490  153.9440 C   0  0  1  0  0  3  0  0  0  0  0  0
  161.7340  210.3890  150.6650 C   0  0  0  0  0  0  0  0  0  0  0  0
  160.4810  209.5320  154.8570 N   0  0  0  0  0  0  0  0  0  0  0  0
  160.4170  207.0290  155.1690 C   0  0  0  0  0  0  0  0  0  0  0  0
  161.7540  209.6520  149.4840 C   0  0  0  0  0  0  0  0  0  0  0  0
  161.5310  209.7750  151.8770 N   0  0  0  0  0  0  0  0  0  0  0  0
  161.2060  203.9540  149.8170 C   0  0  0  0  0  3  0  0  0  0  0  0
  160.3270  209.9320  156.2420 C   0  0  0  0  0  2  0  0  0  0  0  0
  160.4610  211.8940  154.8130 C   0  0  0  0  0  2  0  0  0  0  0  0
  161.6000  205.8320  148.3600 N   0  0  0  0  0  1  0  0  0  0  0  0
  160.8490  206.3800  153.1660 N   0  0  0  0  0  0  0  0  0  0  0  0
  160.9590  203.3870  151.0630 C   0  0  0  0  0  3  0  0  0  0  0  0
  161.2350  206.1940  150.8100 C   0  0  0  0  0  0  0  0  0  0  0  0
  160.9590  207.7240  153.1440 C   0  0  0  0  0  0  0  0  0  0  0  0
  160.0090  206.9490  156.5990 C   0  0  0  0  0  1  0  0  0  0  0  0
  160.6610  208.1770  154.4260 C   0  0  0  0  0  0  0  0  0  0  0  0
  160.0890  211.4300  156.2130 C   0  0  0  0  0  2  0  0  0  0  0  0
  163.0180  210.3280  153.7840 C   0  0  0  0  0  1  0  0  0  0  0  0
  160.8460  204.2030  152.1830 C   0  0  0  0  0  3  0  0  0  0  0  0
  160.9840  205.5920  152.0700 C   0  0  0  0  0  0  0  0  0  0  0  0
  161.7070  210.6270  153.0580 C   0  0  2  0  0  3  0  0  0  0  0  0
  161.9560  210.3030  148.2610 O   0  0  0  0  0  0  0  0  0  0  0  0
  162.1750  212.5330  147.4110 C   0  0  0  0  0  1  0  0  0  0  0  0
  161.2180  211.4530  147.8710 C   0  0  0  0  0  2  0  0  0  0  0  0
  1 19  1  0  0  0  0
  1  4  2  0  0  0  0
  2 13  2  0  0  0  0
  2 19  1  0  0  0  0
  3 10  2  0  0  0  0
  4 20  1  0  0  0  0
  5  1  1  0  0  0  0
  6  8  2  0  0  0  0
  7 15  1  1  0  0  0
  7  9  1  0  0  0  0
  8 12  1  0  0  0  0
  9 14  1  0  0  0  0
 10 21  1  0  0  0  0
 11  5  2  0  0  0  0
 11  8  1  0  0  0  0
 12  4  1  0  0  0  0
 12 27  1  0  0  0  0
 13 18  1  0  0  0  0
 15 23  1  0  0  0  0
 16  2  1  0  0  0  0
 17  3  1  0  0  0  0
 18 25  2  0  0  0  0
 19 26  2  0  0  0  0
 20 17  1  0  0  0  0
 20 22  2  0  0  0  0
 22  9  1  0  0  0  0
 22 10  1  0  0  0  0
 23 14  1  0  0  0  0
 26 25  1  0  0  0  0
 26 17  1  0  0  0  0
 27 24  1  1  0  0  0
 27  7  1  0  0  0  0
 28 11  1  0  0  0  0
 29 30  1  0  0  0  0
 30 28  1  0  0  0  0
M  END
>  <MODEL>
4

>  <REMARK>
 VINA RESULT:      -6.7      1.433      5.582
  Name = 
  2 active torsions:
  status: ('A' for Active; 'I' for Inactive)
    1  A    between atoms: C_11  and  O_28
    2  A    between atoms: O_28  and  C_30
                            x       y       z     vdW  Elec       q    Type
                         _______ _______ _______ _____ _____    ______ ____

>  <TORSDO>
F 2

$$$$
=
 OpenBabel11122412383D

 30 35  0  0  1  0  0  0  0  0999 V2000
  161.1400  209.0880  151.5000 C   0  0  0  0  0  0  0  0  0  0  0  0
  161.3000  211.4910  150.7350 C   0  0  0  0  0  0  0  0  0  0  0  0
  161.9330  207.7890  147.7240 N   0  0  0  0  0  0  0  0  0  0  0  0
  161.2580  207.6950  151.2010 C   0  0  0  0  0  0  0  0  0  0  0  0
  160.7980  209.4490  152.8040 C   0  0  0  0  0  3  0  0  0  0  0  0
  160.6510  206.2960  154.4070 O   0  0  0  0  0  0  0  0  0  0  0  0
  160.6350  204.6560  151.0100 C   0  0  1  0  0  3  0  0  0  0  0  0
  160.7940  207.1540  153.4900 C   0  0  0  0  0  0  0  0  0  0  0  0
  161.2000  204.8470  149.6960 N   0  0  0  0  0  0  0  0  0  0  0  0
  161.8280  206.4540  147.8560 C   0  0  0  0  0  0  0  0  0  0  0  0
  160.6040  208.4980  153.7980 C   0  0  0  0  0  0  0  0  0  0  0  0
  161.1440  206.7620  152.2210 N   0  0  0  0  0  0  0  0  0  0  0  0
  161.5440  212.3920  149.6950 C   0  0  0  0  0  3  0  0  0  0  0  0
  161.4120  203.6020  148.9850 C   0  0  0  0  0  2  0  0  0  0  0  0
  160.6140  203.1560  151.2380 C   0  0  0  0  0  2  0  0  0  0  0  0
  160.9950  212.0400  152.0150 N   0  0  0  0  0  1  0  0  0  0  0  0
  161.7300  208.3190  148.9220 N   0  0  0  0  0  0  0  0  0  0  0  0
  161.8530  211.9410  148.4170 C   0  0  0  0  0  3  0  0  0  0  0  0
  161.3670  210.0840  150.4980 C   0  0  0  0  0  0  0  0  0  0  0  0
  161.5080  207.3610  149.8440 C   0  0  0  0  0  0  0  0  0  0  0  0
  161.9350  205.5140  146.7050 C   0  0  0  0  0  1  0  0  0  0  0  0
  161.5430  206.1390  149.1780 C   0  0  0  0  0  0  0  0  0  0  0  0
  160.8340  202.5180  149.8740 C   0  0  0  0  0  2  0  0  0  0  0  0
  162.9930  205.1380  151.9150 C   0  0  0  0  0  1  0  0  0  0  0  0
  161.9190  210.5760  148.1630 C   0  0  0  0  0  3  0  0  0  0  0  0
  161.6840  209.6480  149.1860 C   0  0  0  0  0  0  0  0  0  0  0  0
  161.4860  205.3440  152.0650 C   0  0  2  0  0  3  0  0  0  0  0  0
  160.2410  208.8700  155.0980 O   0  0  0  0  0  0  0  0  0  0  0  0
  158.7320  210.6230  155.7240 C   0  0  0  0  0  1  0  0  0  0  0  0
  160.1790  210.2250  155.5220 C   0  0  0  0  0  2  0  0  0  0  0  0
  1  5  1  0  0  0  0
  2 16  1  0  0  0  0
  3 10  2  0  0  0  0
  3 17  1  0  0  0  0
  4  1  2  0  0  0  0
  4 12  1  0  0  0  0
  5 11  2  0  0  0  0
  7 15  1  1  0  0  0
  7 27  1  0  0  0  0
  8 11  1  0  0  0  0
  8  6  2  0  0  0  0
  9  7  1  0  0  0  0
 10 22  1  0  0  0  0
 11 28  1  0  0  0  0
 12  8  1  0  0  0  0
 13  2  2  0  0  0  0
 14  9  1  0  0  0  0
 14 23  1  0  0  0  0
 17 26  1  0  0  0  0
 17 20  1  0  0  0  0
 18 13  1  0  0  0  0
 19  2  1  0  0  0  0
 19  1  1  0  0  0  0
 20  4  1  0  0  0  0
 21 10  1  0  0  0  0
 22  9  1  0  0  0  0
 22 20  2  0  0  0  0
 23 15  1  0  0  0  0
 25 18  2  0  0  0  0
 25 26  1  0  0  0  0
 26 19  2  0  0  0  0
 27 24  1  6  0  0  0
 27 12  1  0  0  0  0
 28 30  1  0  0  0  0
 30 29  1  0  0  0  0
M  END
>  <MODEL>
5

>  <REMARK>
 VINA RESULT:      -6.3      2.174      4.909
  Name = 
  2 active torsions:
  status: ('A' for Active; 'I' for Inactive)
    1  A    between atoms: C_11  and  O_28
    2  A    between atoms: O_28  and  C_30
                            x       y       z     vdW  Elec       q    Type
                         _______ _______ _______ _____ _____    ______ ____

>  <TORSDO>
F 2

$$$$
