=
 OpenBabel11122412573D

 32 37  0  0  1  0  0  0  0  0999 V2000
  161.0590  208.6660  156.1970 C   0  0  0  0  0  2  0  0  0  0  0  0
  160.4790  205.9030  151.3640 C   0  0  2  0  0  3  0  0  0  0  0  0
  162.6490  207.4890  147.2040 C   0  0  0  0  0  2  0  0  0  0  0  0
  161.8550  206.3600  146.5790 C   0  0  0  0  0  2  0  0  0  0  0  0
  161.1530  203.3430  151.0540 C   0  0  0  0  0  0  0  0  0  0  0  0
  161.2680  202.2370  150.0970 C   0  0  0  0  0  0  0  0  0  0  0  0
  160.4180  207.0710  153.5850 C   0  0  2  0  0  3  0  0  0  0  0  0
  161.2770  208.2810  151.5640 C   0  0  0  0  0  2  0  0  0  0  0  0
  161.1570  201.1560  148.2020 C   0  0  0  0  0  0  0  0  0  0  0  0
  161.3120  209.4360  153.7570 C   0  0  0  0  0  2  0  0  0  0  0  0
  162.7180  207.2720  148.7040 C   0  0  0  0  0  2  0  0  0  0  0  0
  161.4550  206.9600  150.8220 C   0  0  2  0  0  3  0  0  0  0  0  0
  161.3080  207.1960  149.3040 C   0  0  2  0  0  3  0  0  0  0  0  0
  160.8920  204.8330  149.0680 C   0  0  2  0  0  3  0  0  0  0  0  0
  161.6270  200.3230  149.2080 C   0  0  0  0  0  3  0  0  0  0  0  0
  159.9970  207.9500  155.6230 O   0  0  0  0  0  0  0  0  0  0  0  0
  161.4550  208.0830  153.0660 C   0  0  1  0  0  3  0  0  0  0  0  0
  161.6800  201.0130  150.3340 O   0  0  0  0  0  0  0  0  0  0  0  0
  160.5650  206.8750  155.0200 N   0  0  0  0  0  2  0  0  0  0  0  0
  161.9260  209.3940  155.1560 C   0  0  1  0  0  3  0  0  0  0  0  0
  160.4510  206.3470  147.1750 C   0  0  0  0  0  2  0  0  0  0  0  0
  160.4590  206.1720  148.6390 N   0  0  2  0  0  0  0  0  0  0  0  0
  160.4160  203.6630  148.1780 C   0  0  0  0  0  2  0  0  0  0  0  0
  160.5910  205.7300  152.8780 C   0  0  0  0  0  2  0  0  0  0  0  0
  161.5480  203.2140  152.2420 O   0  0  0  0  0  0  0  0  0  0  0  0
  160.9400  200.7820  146.7780 C   0  0  0  0  0  1  0  0  0  0  0  0
  160.4710  204.5960  150.5350 C   0  0  2  0  0  3  0  0  0  0  0  0
  160.9400  202.3850  148.7740 C   0  0  0  0  0  0  0  0  0  0  0  0
  162.1950  210.7470  155.6180 N   0  0  0  0  0  2  0  0  0  0  0  0
  160.9350  211.3180  156.0650 C   0  0  0  0  0  3  0  0  0  0  0  0
  161.1840  212.2130  157.2610 C   0  0  0  0  0  1  0  0  0  0  0  0
  160.3200  212.1390  154.9480 C   0  0  0  0  0  1  0  0  0  0  0  0
  2 24  1  1  0  0  0
  3 11  1  0  0  0  0
  4 21  1  0  0  0  0
  4  3  1  0  0  0  0
  5 25  2  0  0  0  0
  6 18  1  0  0  0  0
  6  5  1  0  0  0  0
  7 24  1  6  0  0  0
  7 19  1  0  0  0  0
  9 28  1  0  0  0  0
  9 15  2  0  0  0  0
 10 20  1  0  0  0  0
 12  2  1  0  0  0  0
 12  8  1  1  0  0  0
 13 11  1  6  0  0  0
 13 12  1  0  0  0  0
 14 23  1  6  0  0  0
 14 27  1  0  0  0  0
 15 18  1  0  0  0  0
 16  1  1  0  0  0  0
 17  8  1  6  0  0  0
 17  7  1  0  0  0  0
 17 10  1  0  0  0  0
 19 16  1  0  0  0  0
 20 29  1  1  0  0  0
 20  1  1  0  0  0  0
 22 21  1  6  0  0  0
 22 14  1  0  0  0  0
 22 13  1  0  0  0  0
 23 28  1  0  0  0  0
 26  9  1  0  0  0  0
 27  5  1  1  0  0  0
 27  2  1  0  0  0  0
 28  6  2  0  0  0  0
 29 30  1  0  0  0  0
 30 31  1  0  0  0  0
 32 30  1  0  0  0  0
M  END
>  <MODEL>
1

>  <REMARK>
 VINA RESULT:      -6.7      0.000      0.000
  Name = 
  2 active torsions:
  status: ('A' for Active; 'I' for Inactive)
    1  A    between atoms: C_20  and  N_29
    2  A    between atoms: N_29  and  C_30
                            x       y       z     vdW  Elec       q    Type
                         _______ _______ _______ _____ _____    ______ ____

>  <TORSDO>
F 2

$$$$
=
 OpenBabel11122412573D

 32 37  0  0  1  0  0  0  0  0999 V2000
  161.9910  212.7860  146.1290 C   0  0  0  0  0  2  0  0  0  0  0  0
  161.2690  211.3960  151.5030 C   0  0  2  0  0  3  0  0  0  0  0  0
  157.3510  212.9890  154.0800 C   0  0  0  0  0  2  0  0  0  0  0  0
  158.0770  212.3310  155.2360 C   0  0  0  0  0  2  0  0  0  0  0  0
  161.1380  208.8740  152.3550 C   0  0  0  0  0  0  0  0  0  0  0  0
  160.9190  208.0070  153.5180 C   0  0  0  0  0  0  0  0  0  0  0  0
  161.9160  212.0480  149.1670 C   0  0  2  0  0  3  0  0  0  0  0  0
  160.0850  213.2920  150.3450 C   0  0  0  0  0  2  0  0  0  0  0  0
  160.5310  207.4270  155.5880 C   0  0  0  0  0  0  0  0  0  0  0  0
  160.6400  213.9060  148.0080 C   0  0  0  0  0  2  0  0  0  0  0  0
  157.9230  212.4640  152.7760 C   0  0  0  0  0  2  0  0  0  0  0  0
  159.9440  212.1630  151.3610 C   0  0  2  0  0  3  0  0  0  0  0  0
  159.4310  212.7340  152.7000 C   0  0  2  0  0  3  0  0  0  0  0  0
  160.2550  210.7350  153.7660 C   0  0  2  0  0  3  0  0  0  0  0  0
  160.6960  206.3010  154.7920 C   0  0  0  0  0  3  0  0  0  0  0  0
  162.8810  212.5870  147.1960 O   0  0  0  0  0  0  0  0  0  0  0  0
  160.5560  212.7490  149.0000 C   0  0  1  0  0  3  0  0  0  0  0  0
  160.9260  206.6950  153.5510 O   0  0  0  0  0  0  0  0  0  0  0  0
  162.3880  211.5310  147.8900 N   0  0  0  0  0  2  0  0  0  0  0  0
  160.6450  213.3850  146.5710 C   0  0  1  0  0  3  0  0  0  0  0  0
  159.5650  212.6580  155.1420 C   0  0  0  0  0  2  0  0  0  0  0  0
  160.1660  212.1990  153.8760 N   0  0  2  0  0  0  0  0  0  0  0  0
  160.6050  209.9890  155.0730 C   0  0  0  0  0  2  0  0  0  0  0  0
  161.7970  210.8960  150.1590 C   0  0  0  0  0  2  0  0  0  0  0  0
  161.2760  208.3870  151.2030 O   0  0  0  0  0  0  0  0  0  0  0  0
  160.2580  207.4390  157.0510 C   0  0  0  0  0  1  0  0  0  0  0  0
  161.2560  210.3580  152.6510 C   0  0  2  0  0  3  0  0  0  0  0  0
  160.6640  208.5180  154.7650 C   0  0  0  0  0  0  0  0  0  0  0  0
  160.2720  214.4530  145.6580 N   0  0  0  0  0  2  0  0  0  0  0  0
  159.0680  214.0340  144.9580 C   0  0  0  0  0  3  0  0  0  0  0  0
  159.3740  213.8680  143.4850 C   0  0  0  0  0  1  0  0  0  0  0  0
  158.5840  212.7110  145.5190 C   0  0  0  0  0  1  0  0  0  0  0  0
  1 20  1  0  0  0  0
  1 16  1  0  0  0  0
  2 24  1  6  0  0  0
  2 27  1  0  0  0  0
  3  4  1  0  0  0  0
  5  6  1  0  0  0  0
  6 18  1  0  0  0  0
  6 28  2  0  0  0  0
  7 24  1  1  0  0  0
  9 26  1  0  0  0  0
 11  3  1  0  0  0  0
 12  8  1  6  0  0  0
 12  2  1  0  0  0  0
 12 13  1  0  0  0  0
 13 11  1  1  0  0  0
 13 22  1  0  0  0  0
 14 22  1  0  0  0  0
 14 23  1  1  0  0  0
 15  9  2  0  0  0  0
 16 19  1  0  0  0  0
 17 10  1  6  0  0  0
 17  7  1  0  0  0  0
 17  8  1  0  0  0  0
 18 15  1  0  0  0  0
 19  7  1  0  0  0  0
 20 29  1  6  0  0  0
 20 10  1  0  0  0  0
 21  4  1  0  0  0  0
 22 21  1  1  0  0  0
 25  5  2  0  0  0  0
 27  5  1  6  0  0  0
 27 14  1  0  0  0  0
 28 23  1  0  0  0  0
 28  9  1  0  0  0  0
 30 32  1  0  0  0  0
 30 29  1  0  0  0  0
 31 30  1  0  0  0  0
M  END
>  <MODEL>
2

>  <REMARK>
 VINA RESULT:      -6.2      4.773      8.692
  Name = 
  2 active torsions:
  status: ('A' for Active; 'I' for Inactive)
    1  A    between atoms: C_20  and  N_29
    2  A    between atoms: N_29  and  C_30
                            x       y       z     vdW  Elec       q    Type
                         _______ _______ _______ _____ _____    ______ ____

>  <TORSDO>
F 2

$$$$
=
 OpenBabel11122412573D

 32 37  0  0  1  0  0  0  0  0999 V2000
  161.4040  211.0780  154.6350 C   0  0  0  0  0  2  0  0  0  0  0  0
  161.9370  206.7880  151.0810 C   0  0  2  0  0  3  0  0  0  0  0  0
  159.7830  202.4160  151.9660 C   0  0  0  0  0  2  0  0  0  0  0  0
  160.5600  201.9930  150.7350 C   0  0  0  0  0  2  0  0  0  0  0  0
  161.2260  206.9180  148.5160 C   0  0  0  0  0  0  0  0  0  0  0  0
  161.0940  206.1640  147.2640 C   0  0  0  0  0  0  0  0  0  0  0  0
  162.0180  208.7770  152.6100 C   0  0  2  0  0  3  0  0  0  0  0  0
  161.1730  206.5790  153.4700 C   0  0  0  0  0  2  0  0  0  0  0  0
  161.1870  204.4810  145.8750 C   0  0  0  0  0  0  0  0  0  0  0  0
  161.1580  208.5430  154.9820 C   0  0  0  0  0  2  0  0  0  0  0  0
  159.7140  203.9320  152.0080 C   0  0  0  0  0  2  0  0  0  0  0  0
  160.9750  206.0730  152.0440 C   0  0  2  0  0  3  0  0  0  0  0  0
  161.1230  204.5370  152.0160 C   0  0  2  0  0  3  0  0  0  0  0  0
  161.5050  204.7070  149.6420 C   0  0  2  0  0  3  0  0  0  0  0  0
  160.7070  205.6140  145.2320 C   0  0  0  0  0  3  0  0  0  0  0  0
  162.4550  210.6360  153.8170 O   0  0  0  0  0  0  0  0  0  0  0  0
  160.9950  208.0920  153.5330 C   0  0  1  0  0  3  0  0  0  0  0  0
  160.6660  206.6060  146.1050 O   0  0  0  0  0  0  0  0  0  0  0  0
  161.8710  210.2250  152.6640 N   0  0  0  0  0  2  0  0  0  0  0  0
  160.5450  209.9280  155.1880 C   0  0  1  0  0  3  0  0  0  0  0  0
  161.9650  202.5850  150.8040 C   0  0  0  0  0  2  0  0  0  0  0  0
  161.9560  204.0570  150.8820 N   0  0  2  0  0  0  0  0  0  0  0  0
  161.9640  204.0300  148.3300 C   0  0  0  0  0  2  0  0  0  0  0  0
  161.8250  208.3090  151.1710 C   0  0  0  0  0  2  0  0  0  0  0  0
  160.8310  208.1100  148.5970 O   0  0  0  0  0  0  0  0  0  0  0  0
  161.3960  203.1410  145.2610 C   0  0  0  0  0  1  0  0  0  0  0  0
  161.9250  206.1940  149.6520 C   0  0  2  0  0  3  0  0  0  0  0  0
  161.4230  204.8350  147.1810 C   0  0  0  0  0  0  0  0  0  0  0  0
  160.2960  210.1520  156.6030 N   0  0  0  0  0  2  0  0  0  0  0  0
  158.9680  210.7310  156.7300 C   0  0  0  0  0  3  0  0  0  0  0  0
  159.0860  212.1650  157.2000 C   0  0  0  0  0  1  0  0  0  0  0  0
  158.2670  210.7030  155.3860 C   0  0  0  0  0  1  0  0  0  0  0  0
  1 20  1  0  0  0  0
  2 24  1  6  0  0  0
  2 12  1  0  0  0  0
  3 11  1  0  0  0  0
  4 21  1  0  0  0  0
  4  3  1  0  0  0  0
  5 25  2  0  0  0  0
  6  5  1  0  0  0  0
  7 24  1  6  0  0  0
  7 19  1  0  0  0  0
  7 17  1  0  0  0  0
  9 28  1  0  0  0  0
 10 20  1  0  0  0  0
 12  8  1  1  0  0  0
 13 11  1  6  0  0  0
 13 12  1  0  0  0  0
 14 23  1  6  0  0  0
 14 27  1  0  0  0  0
 14 22  1  0  0  0  0
 15  9  2  0  0  0  0
 15 18  1  0  0  0  0
 16  1  1  0  0  0  0
 17  8  1  1  0  0  0
 17 10  1  0  0  0  0
 18  6  1  0  0  0  0
 19 16  1  0  0  0  0
 20 29  1  1  0  0  0
 22 21  1  6  0  0  0
 22 13  1  0  0  0  0
 26  9  1  0  0  0  0
 27  5  1  6  0  0  0
 27  2  1  0  0  0  0
 28  6  2  0  0  0  0
 28 23  1  0  0  0  0
 29 30  1  0  0  0  0
 30 31  1  0  0  0  0
 32 30  1  0  0  0  0
M  END
>  <MODEL>
3

>  <REMARK>
 VINA RESULT:      -5.9      2.462      3.942
  Name = 
  2 active torsions:
  status: ('A' for Active; 'I' for Inactive)
    1  A    between atoms: C_20  and  N_29
    2  A    between atoms: N_29  and  C_30
                            x       y       z     vdW  Elec       q    Type
                         _______ _______ _______ _____ _____    ______ ____

>  <TORSDO>
F 2

$$$$
=
 OpenBabel11122412573D

 32 37  0  0  1  0  0  0  0  0999 V2000
  162.4120  213.3670  142.0440 C   0  0  0  0  0  2  0  0  0  0  0  0
  161.0460  213.2980  147.4720 C   0  0  2  0  0  3  0  0  0  0  0  0
  156.3180  213.3310  148.9470 C   0  0  0  0  0  2  0  0  0  0  0  0
  156.9410  213.4630  150.3220 C   0  0  0  0  0  2  0  0  0  0  0  0
  161.8340  211.3860  149.1520 C   0  0  0  0  0  0  0  0  0  0  0  0
  161.7340  210.8740  150.5240 C   0  0  0  0  0  0  0  0  0  0  0  0
  161.9050  213.5350  145.1250 C   0  0  2  0  0  3  0  0  0  0  0  0
  159.4820  213.9540  145.6120 C   0  0  0  0  0  2  0  0  0  0  0  0
  161.1340  210.7550  152.6210 C   0  0  0  0  0  0  0  0  0  0  0  0
  160.2790  214.1120  143.2700 C   0  0  0  0  0  2  0  0  0  0  0  0
  157.3720  212.8370  147.9730 C   0  0  0  0  0  2  0  0  0  0  0  0
  159.6020  213.2250  146.9470 C   0  0  2  0  0  3  0  0  0  0  0  0
  158.5690  213.7960  147.9410 C   0  0  2  0  0  3  0  0  0  0  0  0
  159.8930  212.8510  149.7200 C   0  0  2  0  0  3  0  0  0  0  0  0
  161.9750  209.6990  152.2970 C   0  0  0  0  0  3  0  0  0  0  0  0
  162.9960  213.9350  143.1870 O   0  0  0  0  0  0  0  0  0  0  0  0
  160.4680  213.3830  144.5970 C   0  0  1  0  0  3  0  0  0  0  0  0
  162.3130  209.8070  151.0240 O   0  0  0  0  0  0  0  0  0  0  0  0
  162.8640  213.0040  144.1650 N   0  0  0  0  0  2  0  0  0  0  0  0
  160.8770  213.3020  142.1200 C   0  0  1  0  0  3  0  0  0  0  0  0
  158.1000  214.4530  150.2520 C   0  0  0  0  0  2  0  0  0  0  0  0
  159.1400  214.0390  149.2920 N   0  0  2  0  0  0  0  0  0  0  0  0
  160.1930  212.7620  151.2340 C   0  0  0  0  0  2  0  0  0  0  0  0
  162.0620  212.7920  146.4480 C   0  0  0  0  0  2  0  0  0  0  0  0
  162.4600  210.7460  148.2670 O   0  0  0  0  0  0  0  0  0  0  0  0
  160.5230  211.0190  153.9520 C   0  0  0  0  0  1  0  0  0  0  0  0
  161.2030  212.7440  148.9080 C   0  0  2  0  0  3  0  0  0  0  0  0
  160.9730  211.4990  151.4780 C   0  0  0  0  0  0  0  0  0  0  0  0
  160.3150  213.7490  140.8560 N   0  0  0  0  0  2  0  0  0  0  0  0
  159.2860  212.7970  140.4710 C   0  0  0  0  0  3  0  0  0  0  0  0
  158.7900  213.1270  139.0780 C   0  0  0  0  0  1  0  0  0  0  0  0
  159.8590  211.3930  140.4760 C   0  0  0  0  0  1  0  0  0  0  0  0
  1 20  1  0  0  0  0
  1 16  1  0  0  0  0
  2 24  1  6  0  0  0
  2 27  1  0  0  0  0
  3  4  1  0  0  0  0
  5  6  1  0  0  0  0
  6 18  1  0  0  0  0
  6 28  2  0  0  0  0
  7 24  1  1  0  0  0
  9 26  1  0  0  0  0
 11  3  1  0  0  0  0
 12  8  1  6  0  0  0
 12  2  1  0  0  0  0
 12 13  1  0  0  0  0
 13 11  1  1  0  0  0
 13 22  1  0  0  0  0
 14 23  1  1  0  0  0
 15  9  2  0  0  0  0
 16 19  1  0  0  0  0
 17 10  1  6  0  0  0
 17  7  1  0  0  0  0
 17  8  1  0  0  0  0
 18 15  1  0  0  0  0
 19  7  1  0  0  0  0
 20 29  1  6  0  0  0
 20 10  1  0  0  0  0
 21  4  1  0  0  0  0
 22 14  1  0  0  0  0
 22 21  1  1  0  0  0
 23 28  1  0  0  0  0
 25  5  2  0  0  0  0
 27  5  1  6  0  0  0
 27 14  1  0  0  0  0
 28  9  1  0  0  0  0
 30 32  1  0  0  0  0
 30 29  1  0  0  0  0
 31 30  1  0  0  0  0
M  END
>  <MODEL>
4

>  <REMARK>
 VINA RESULT:      -5.5      7.022     10.955
  Name = 
  2 active torsions:
  status: ('A' for Active; 'I' for Inactive)
    1  A    between atoms: C_20  and  N_29
    2  A    between atoms: N_29  and  C_30
                            x       y       z     vdW  Elec       q    Type
                         _______ _______ _______ _____ _____    ______ ____

>  <TORSDO>
F 2

$$$$
=
 OpenBabel11122412573D

 32 37  0  0  1  0  0  0  0  0999 V2000
  161.7720  211.3890  150.4980 C   0  0  0  0  0  2  0  0  0  0  0  0
  161.8250  206.0570  148.7970 C   0  0  2  0  0  3  0  0  0  0  0  0
  159.9780  202.4270  151.6160 C   0  0  0  0  0  2  0  0  0  0  0  0
  160.5490  201.5420  150.5260 C   0  0  0  0  0  2  0  0  0  0  0  0
  160.6890  205.2360  146.5310 C   0  0  0  0  0  0  0  0  0  0  0  0
  160.3700  204.0700  145.6990 C   0  0  0  0  0  0  0  0  0  0  0  0
  162.1040  208.4730  149.4230 C   0  0  2  0  0  3  0  0  0  0  0  0
  161.4800  206.7950  151.1790 C   0  0  0  0  0  2  0  0  0  0  0  0
  160.2760  201.9850  145.0550 C   0  0  0  0  0  0  0  0  0  0  0  0
  161.6630  209.1840  151.8140 C   0  0  0  0  0  2  0  0  0  0  0  0
  159.8730  203.8480  151.0930 C   0  0  0  0  0  2  0  0  0  0  0  0
  161.0600  205.7960  150.1050 C   0  0  2  0  0  3  0  0  0  0  0  0
  161.2460  204.3590  150.6360 C   0  0  2  0  0  3  0  0  0  0  0  0
  161.2170  203.6050  148.3460 C   0  0  2  0  0  3  0  0  0  0  0  0
  159.6620  202.8080  144.1210 C   0  0  0  0  0  3  0  0  0  0  0  0
  162.6830  210.6320  149.7450 O   0  0  0  0  0  0  0  0  0  0  0  0
  161.2710  208.2260  150.6930 C   0  0  1  0  0  3  0  0  0  0  0  0
  159.7400  204.0570  144.5470 O   0  0  0  0  0  0  0  0  0  0  0  0
  161.9250  209.8380  148.9490 N   0  0  0  0  0  2  0  0  0  0  0  0
  161.0530  210.5660  151.5800 C   0  0  1  0  0  3  0  0  0  0  0  0
  161.9280  202.0630  150.1310 C   0  0  0  0  0  2  0  0  0  0  0  0
  161.8890  203.4550  149.6460 N   0  0  2  0  0  0  0  0  0  0  0  0
  161.4680  202.4660  147.3320 C   0  0  0  0  0  2  0  0  0  0  0  0
  161.6850  207.5030  148.3220 C   0  0  0  0  0  2  0  0  0  0  0  0
  160.2780  206.3840  146.2190 O   0  0  0  0  0  0  0  0  0  0  0  0
  160.4180  200.5060  144.9680 C   0  0  0  0  0  1  0  0  0  0  0  0
  161.5900  204.9690  147.7230 C   0  0  2  0  0  3  0  0  0  0  0  0
  160.7180  202.7960  146.0710 C   0  0  0  0  0  0  0  0  0  0  0  0
  161.0390  211.3170  152.8250 N   0  0  0  0  0  2  0  0  0  0  0  0
  159.9240  210.8290  153.6210 C   0  0  0  0  0  3  0  0  0  0  0  0
  160.1290  211.2220  155.0690 C   0  0  0  0  0  1  0  0  0  0  0  0
  158.6300  211.4380  153.1170 C   0  0  0  0  0  1  0  0  0  0  0  0
  1 20  1  0  0  0  0
  2 24  1  6  0  0  0
  2 12  1  0  0  0  0
  4  3  1  0  0  0  0
  6 28  2  0  0  0  0
  6  5  1  0  0  0  0
  7 24  1  6  0  0  0
  7 17  1  0  0  0  0
  9 28  1  0  0  0  0
 11  3  1  0  0  0  0
 12 13  1  0  0  0  0
 12  8  1  1  0  0  0
 13 11  1  6  0  0  0
 14 23  1  6  0  0  0
 14 22  1  0  0  0  0
 15 18  1  0  0  0  0
 15  9  2  0  0  0  0
 16  1  1  0  0  0  0
 17  8  1  1  0  0  0
 17 10  1  0  0  0  0
 18  6  1  0  0  0  0
 19  7  1  0  0  0  0
 19 16  1  0  0  0  0
 20 10  1  0  0  0  0
 20 29  1  1  0  0  0
 21  4  1  0  0  0  0
 22 21  1  1  0  0  0
 22 13  1  0  0  0  0
 25  5  2  0  0  0  0
 26  9  1  0  0  0  0
 27  5  1  6  0  0  0
 27 14  1  0  0  0  0
 27  2  1  0  0  0  0
 28 23  1  0  0  0  0
 29 30  1  0  0  0  0
 30 31  1  0  0  0  0
 32 30  1  0  0  0  0
M  END
>  <MODEL>
5

>  <REMARK>
 VINA RESULT:      -4.8      2.855      4.454
  Name = 
  2 active torsions:
  status: ('A' for Active; 'I' for Inactive)
    1  A    between atoms: C_20  and  N_29
    2  A    between atoms: N_29  and  C_30
                            x       y       z     vdW  Elec       q    Type
                         _______ _______ _______ _____ _____    ______ ____

>  <TORSDO>
F 2

$$$$
=
 OpenBabel11122412573D

 32 37  0  0  1  0  0  0  0  0999 V2000
  160.9400  201.1420  149.8960 C   0  0  0  0  0  2  0  0  0  0  0  0
  161.8440  206.2420  152.0200 C   0  0  2  0  0  3  0  0  0  0  0  0
  161.5280  210.3050  149.2060 C   0  0  0  0  0  2  0  0  0  0  0  0
  162.0380  210.9880  150.4590 C   0  0  0  0  0  2  0  0  0  0  0  0
  160.4660  207.2340  154.0730 C   0  0  0  0  0  0  0  0  0  0  0  0
  160.2510  208.4130  154.9200 C   0  0  0  0  0  0  0  0  0  0  0  0
  161.6910  203.8540  151.2600 C   0  0  2  0  0  3  0  0  0  0  0  0
  161.8600  205.6920  149.5630 C   0  0  0  0  0  2  0  0  0  0  0  0
  160.5000  210.4360  155.7060 C   0  0  0  0  0  0  0  0  0  0  0  0
  161.6240  203.3530  148.7770 C   0  0  0  0  0  2  0  0  0  0  0  0
  160.9900  208.9350  149.5750 C   0  0  0  0  0  2  0  0  0  0  0  0
  161.4590  206.7250  150.6120 C   0  0  2  0  0  3  0  0  0  0  0  0
  162.0790  208.0930  150.2530 C   0  0  2  0  0  3  0  0  0  0  0  0
  161.7320  208.7510  152.5460 C   0  0  2  0  0  3  0  0  0  0  0  0
  159.5280  209.7530  156.4250 C   0  0  0  0  0  3  0  0  0  0  0  0
  161.8170  201.6300  150.8780 O   0  0  0  0  0  0  0  0  0  0  0  0
  161.2300  204.3380  149.8740 C   0  0  1  0  0  3  0  0  0  0  0  0
  159.4080  208.5380  155.9180 O   0  0  0  0  0  0  0  0  0  0  0  0
  161.1080  202.5560  151.5710 N   0  0  0  0  0  2  0  0  0  0  0  0
  160.6790  202.1520  148.7660 C   0  0  1  0  0  3  0  0  0  0  0  0
  163.1420  210.1360  151.0780 C   0  0  0  0  0  2  0  0  0  0  0  0
  162.6830  208.7790  151.4250 N   0  0  2  0  0  0  0  0  0  0  0  0
  162.0120  209.7590  153.6830 C   0  0  0  0  0  2  0  0  0  0  0  0
  161.2780  204.8570  152.3330 C   0  0  0  0  0  2  0  0  0  0  0  0
  159.7470  206.2090  154.1970 O   0  0  0  0  0  0  0  0  0  0  0  0
  160.9550  211.8330  155.9450 C   0  0  0  0  0  1  0  0  0  0  0  0
  161.6390  207.3170  153.1130 C   0  0  2  0  0  3  0  0  0  0  0  0
  160.9530  209.5770  154.7350 C   0  0  0  0  0  0  0  0  0  0  0  0
  160.7620  201.4700  147.4850 N   0  0  0  0  0  2  0  0  0  0  0  0
  160.4020  202.4290  146.4520 C   0  0  0  0  0  3  0  0  0  0  0  0
  161.6330  203.2030  146.0320 C   0  0  0  0  0  1  0  0  0  0  0  0
  159.8370  201.6980  145.2490 C   0  0  0  0  0  1  0  0  0  0  0  0
  1 16  1  0  0  0  0
  2 24  1  1  0  0  0
  2 27  1  0  0  0  0
  3 11  1  0  0  0  0
  3  4  1  0  0  0  0
  4 21  1  0  0  0  0
  5 25  2  0  0  0  0
  5  6  1  0  0  0  0
  6 18  1  0  0  0  0
  7 19  1  0  0  0  0
  7 24  1  1  0  0  0
  8 17  1  0  0  0  0
  9 26  1  0  0  0  0
  9 15  2  0  0  0  0
 12  8  1  6  0  0  0
 12  2  1  0  0  0  0
 13 11  1  1  0  0  0
 13 12  1  0  0  0  0
 13 22  1  0  0  0  0
 14 27  1  0  0  0  0
 14 23  1  1  0  0  0
 16 19  1  0  0  0  0
 17 10  1  6  0  0  0
 17  7  1  0  0  0  0
 18 15  1  0  0  0  0
 20 29  1  6  0  0  0
 20 10  1  0  0  0  0
 20  1  1  0  0  0  0
 22 21  1  6  0  0  0
 22 14  1  0  0  0  0
 23 28  1  0  0  0  0
 27  5  1  6  0  0  0
 28  6  2  0  0  0  0
 28  9  1  0  0  0  0
 30 29  1  0  0  0  0
 31 30  1  0  0  0  0
 32 30  1  0  0  0  0
M  END
>  <MODEL>
6

>  <REMARK>
 VINA RESULT:      -4.2      2.073      8.196
  Name = 
  2 active torsions:
  status: ('A' for Active; 'I' for Inactive)
    1  A    between atoms: C_20  and  N_29
    2  A    between atoms: N_29  and  C_30
                            x       y       z     vdW  Elec       q    Type
                         _______ _______ _______ _____ _____    ______ ____

>  <TORSDO>
F 2

$$$$
=
 OpenBabel11122412573D

 32 37  0  0  1  0  0  0  0  0999 V2000
  161.4640  212.9240  147.5840 C   0  0  0  0  0  2  0  0  0  0  0  0
  162.0770  207.8430  149.8480 C   0  0  2  0  0  3  0  0  0  0  0  0
  160.4610  206.8390  154.4210 C   0  0  0  0  0  2  0  0  0  0  0  0
  161.1540  205.5140  154.1760 C   0  0  0  0  0  2  0  0  0  0  0  0
  161.1150  205.6210  148.7350 C   0  0  0  0  0  0  0  0  0  0  0  0
  160.9380  204.1730  148.8960 C   0  0  0  0  0  0  0  0  0  0  0  0
  162.1070  210.0770  148.7050 C   0  0  2  0  0  3  0  0  0  0  0  0
  161.5690  209.9360  151.1500 C   0  0  0  0  0  2  0  0  0  0  0  0
  161.0640  202.1890  149.8020 C   0  0  0  0  0  0  0  0  0  0  0  0
  161.5050  212.1490  150.0350 C   0  0  0  0  0  2  0  0  0  0  0  0
  160.2460  207.5370  153.0910 C   0  0  0  0  0  2  0  0  0  0  0  0
  161.2870  208.4420  151.0240 C   0  0  2  0  0  3  0  0  0  0  0  0
  161.5830  207.7450  152.3680 C   0  0  2  0  0  3  0  0  0  0  0  0
  161.7170  205.6650  151.1570 C   0  0  2  0  0  3  0  0  0  0  0  0
  160.4150  202.1230  148.5760 C   0  0  0  0  0  3  0  0  0  0  0  0
  162.4710  211.9500  147.4950 O   0  0  0  0  0  0  0  0  0  0  0  0
  161.2490  210.6570  149.8450 C   0  0  1  0  0  3  0  0  0  0  0  0
  160.3590  203.3400  148.0640 O   0  0  0  0  0  0  0  0  0  0  0  0
  161.8220  210.7600  147.4500 N   0  0  0  0  0  2  0  0  0  0  0  0
  160.7810  212.9610  148.9610 C   0  0  1  0  0  3  0  0  0  0  0  0
  162.4940  205.7710  153.4920 C   0  0  0  0  0  2  0  0  0  0  0  0
  162.3470  206.4790  152.2070 N   0  0  2  0  0  0  0  0  0  0  0  0
  162.1130  204.1710  151.1470 C   0  0  0  0  0  2  0  0  0  0  0  0
  161.8240  208.5870  148.5380 C   0  0  0  0  0  2  0  0  0  0  0  0
  160.6130  206.2280  147.7530 O   0  0  0  0  0  0  0  0  0  0  0  0
  161.3450  201.0470  150.7130 C   0  0  0  0  0  1  0  0  0  0  0  0
  161.9870  206.2990  149.7750 C   0  0  2  0  0  3  0  0  0  0  0  0
  161.3870  203.5080  150.0080 C   0  0  0  0  0  0  0  0  0  0  0  0
  160.6470  214.3430  149.3940 N   0  0  0  0  0  2  0  0  0  0  0  0
  159.4050  214.4510  150.1430 C   0  0  0  0  0  3  0  0  0  0  0  0
  158.3080  213.7100  149.4090 C   0  0  0  0  0  1  0  0  0  0  0  0
  159.5820  213.8430  151.5210 C   0  0  0  0  0  1  0  0  0  0  0  0
  1 20  1  0  0  0  0
  2 24  1  6  0  0  0
  2 12  1  0  0  0  0
  4  3  1  0  0  0  0
  5  6  1  0  0  0  0
  6 28  2  0  0  0  0
  7 24  1  6  0  0  0
  7 17  1  0  0  0  0
  9 28  1  0  0  0  0
  9 26  1  0  0  0  0
 11  3  1  0  0  0  0
 12  8  1  1  0  0  0
 12 13  1  0  0  0  0
 13 11  1  6  0  0  0
 14 23  1  6  0  0  0
 14 22  1  0  0  0  0
 15  9  2  0  0  0  0
 16  1  1  0  0  0  0
 17 10  1  1  0  0  0
 17  8  1  0  0  0  0
 18 15  1  0  0  0  0
 18  6  1  0  0  0  0
 19 16  1  0  0  0  0
 19  7  1  0  0  0  0
 20 29  1  1  0  0  0
 20 10  1  0  0  0  0
 21  4  1  0  0  0  0
 22 13  1  0  0  0  0
 22 21  1  1  0  0  0
 25  5  2  0  0  0  0
 27  5  1  6  0  0  0
 27  2  1  0  0  0  0
 27 14  1  0  0  0  0
 28 23  1  0  0  0  0
 29 30  1  0  0  0  0
 30 32  1  0  0  0  0
 31 30  1  0  0  0  0
M  END
>  <MODEL>
7

>  <REMARK>
 VINA RESULT:      -4.1      3.626      5.401
  Name = 
  2 active torsions:
  status: ('A' for Active; 'I' for Inactive)
    1  A    between atoms: C_20  and  N_29
    2  A    between atoms: N_29  and  C_30
                            x       y       z     vdW  Elec       q    Type
                         _______ _______ _______ _____ _____    ______ ____

>  <TORSDO>
F 2

$$$$
=
 OpenBabel11122412573D

 32 37  0  0  1  0  0  0  0  0999 V2000
  161.3390  207.9260  153.9880 C   0  0  0  0  0  2  0  0  0  0  0  0
  160.5760  204.8790  149.3560 C   0  0  2  0  0  3  0  0  0  0  0  0
  162.5220  206.2480  145.0120 C   0  0  0  0  0  2  0  0  0  0  0  0
  161.7180  205.0740  144.4920 C   0  0  0  0  0  2  0  0  0  0  0  0
  161.2750  202.3150  149.1630 C   0  0  0  0  0  0  0  0  0  0  0  0
  161.3630  201.1560  148.2670 C   0  0  0  0  0  0  0  0  0  0  0  0
  160.6010  206.1740  151.5070 C   0  0  2  0  0  3  0  0  0  0  0  0
  161.3450  207.2750  149.3800 C   0  0  0  0  0  2  0  0  0  0  0  0
  161.1800  199.9650  146.4450 C   0  0  0  0  0  0  0  0  0  0  0  0
  161.4640  208.5560  151.4990 C   0  0  0  0  0  2  0  0  0  0  0  0
  162.6650  206.1200  146.5180 C   0  0  0  0  0  2  0  0  0  0  0  0
  161.5080  205.9160  148.7080 C   0  0  2  0  0  3  0  0  0  0  0  0
  161.2860  206.0610  147.1880 C   0  0  2  0  0  3  0  0  0  0  0  0
  160.8970  203.6830  147.1090 C   0  0  2  0  0  3  0  0  0  0  0  0
  161.7100  199.1980  147.4740 C   0  0  0  0  0  3  0  0  0  0  0  0
  160.2620  207.1640  153.5090 O   0  0  0  0  0  0  0  0  0  0  0  0
  161.5960  207.1680  150.8810 C   0  0  1  0  0  3  0  0  0  0  0  0
  161.8050  199.9540  148.5540 O   0  0  0  0  0  0  0  0  0  0  0  0
  160.8180  206.0640  152.9430 N   0  0  0  0  0  2  0  0  0  0  0  0
  162.1440  208.6040  152.8670 C   0  0  1  0  0  3  0  0  0  0  0  0
  160.3430  205.0770  145.1550 C   0  0  0  0  0  2  0  0  0  0  0  0
  160.4240  204.9880  146.6250 N   0  0  2  0  0  0  0  0  0  0  0  0
  160.3980  202.4560  146.3120 C   0  0  0  0  0  2  0  0  0  0  0  0
  160.7620  204.7970  150.8710 C   0  0  0  0  0  2  0  0  0  0  0  0
  161.7280  202.2600  150.3360 O   0  0  0  0  0  0  0  0  0  0  0  0
  160.9020  199.5060  145.0560 C   0  0  0  0  0  1  0  0  0  0  0  0
  160.5500  203.5260  148.6060 C   0  0  2  0  0  3  0  0  0  0  0  0
  160.9700  201.2230  146.9540 C   0  0  0  0  0  0  0  0  0  0  0  0
  162.4130  209.9850  153.2370 N   0  0  0  0  0  2  0  0  0  0  0  0
  161.5610  210.3120  154.3680 C   0  0  0  0  0  3  0  0  0  0  0  0
  162.4200  210.7430  155.5380 C   0  0  0  0  0  1  0  0  0  0  0  0
  160.6240  211.4440  153.9940 C   0  0  0  0  0  1  0  0  0  0  0  0
  2 24  1  1  0  0  0
  3 11  1  0  0  0  0
  4  3  1  0  0  0  0
  4 21  1  0  0  0  0
  5 25  2  0  0  0  0
  6 18  1  0  0  0  0
  6  5  1  0  0  0  0
  7 24  1  6  0  0  0
  7 19  1  0  0  0  0
  9 28  1  0  0  0  0
  9 15  2  0  0  0  0
 10 20  1  0  0  0  0
 12  2  1  0  0  0  0
 12  8  1  1  0  0  0
 13 11  1  6  0  0  0
 13 12  1  0  0  0  0
 14 23  1  6  0  0  0
 14 27  1  0  0  0  0
 15 18  1  0  0  0  0
 16  1  1  0  0  0  0
 17  8  1  6  0  0  0
 17 10  1  0  0  0  0
 17  7  1  0  0  0  0
 19 16  1  0  0  0  0
 20 29  1  1  0  0  0
 20  1  1  0  0  0  0
 22 21  1  6  0  0  0
 22 14  1  0  0  0  0
 22 13  1  0  0  0  0
 23 28  1  0  0  0  0
 26  9  1  0  0  0  0
 27  5  1  1  0  0  0
 27  2  1  0  0  0  0
 28  6  2  0  0  0  0
 29 30  1  0  0  0  0
 30 31  1  0  0  0  0
 32 30  1  0  0  0  0
M  END
>  <MODEL>
8

>  <REMARK>
 VINA RESULT:      -3.8      1.451      2.270
  Name = 
  2 active torsions:
  status: ('A' for Active; 'I' for Inactive)
    1  A    between atoms: C_20  and  N_29
    2  A    between atoms: N_29  and  C_30
                            x       y       z     vdW  Elec       q    Type
                         _______ _______ _______ _____ _____    ______ ____

>  <TORSDO>
F 2

$$$$
