=
 OpenBabel11122413013D

 32 37  0  0  1  0  0  0  0  0999 V2000
  159.1750  210.5420  154.2430 C   0  0  1  0  0  3  0  0  0  0  0  0
  159.5830  213.1050  150.5470 C   0  0  0  0  0  2  0  0  0  0  0  0
  158.3820  213.9360  151.0120 C   0  0  0  0  0  2  0  0  0  0  0  0
  156.8560  210.7900  155.1710 C   0  0  0  0  0  0  0  0  0  0  0  0
  155.5980  211.5890  155.3890 C   0  0  1  0  0  3  0  0  0  0  0  0
  160.6940  208.6740  154.9070 N   0  0  0  0  0  0  0  0  0  0  0  0
  161.6680  210.6730  153.6880 C   0  0  0  0  0  2  0  0  0  0  0  0
  155.1840  213.7690  156.3560 C   0  0  1  0  0  3  0  0  0  0  0  0
  159.8650  211.9560  151.5170 C   0  0  0  0  0  2  0  0  0  0  0  0
  160.3740  211.4460  153.9670 C   0  0  1  0  0  3  0  0  0  0  0  0
  160.0800  212.5210  152.9230 C   0  0  2  0  0  3  0  0  0  0  0  0
  157.8800  212.7780  154.1490 C   0  0  0  0  0  0  0  0  0  0  0  0
  154.4200  212.7290  157.1640 C   0  0  0  0  0  2  0  0  0  0  0  0
  161.4920  209.1440  153.7540 C   0  0  2  0  0  3  0  0  0  0  0  0
  154.9890  211.3700  156.7590 C   0  0  0  0  0  2  0  0  0  0  0  0
  158.6110  214.4500  152.4340 C   0  0  0  0  0  2  0  0  0  0  0  0
  158.9120  213.3190  153.3040 N   0  0  0  0  0  0  0  0  0  0  0  0
  156.9020  213.5380  154.5430 N   0  0  0  0  0  0  0  0  0  0  0  0
  159.6220  209.5850  155.3470 C   0  0  0  0  0  2  0  0  0  0  0  0
  156.8360  209.4350  155.4850 O   0  0  0  0  0  1  0  0  0  0  0  0
  156.1950  214.4530  157.2610 C   0  0  0  0  0  1  0  0  0  0  0  0
  157.9450  211.3550  154.6020 C   0  0  0  0  0  0  0  0  0  0  0  0
  155.8640  213.0110  155.3250 N   0  0  0  0  0  0  0  0  0  0  0  0
  161.9080  208.7810  151.3280 C   0  0  0  0  0  2  0  0  0  0  0  0
  160.9080  208.6120  152.4540 C   0  0  1  0  0  3  0  0  0  0  0  0
  161.7290  207.4280  151.9820 C   0  0  1  0  0  3  0  0  0  0  0  0
  160.8600  206.5490  151.1050 C   0  0  0  0  0  2  0  0  0  0  0  0
  161.1590  205.1150  151.3720 C   0  0  0  0  0  0  0  0  0  0  0  0
  161.2740  204.6620  152.6800 O   0  0  0  0  0  1  0  0  0  0  0  0
  161.3400  204.3200  150.4140 O   0  0  0  0  0  0  0  0  0  0  0  0
  161.0910  209.2980  157.2230 C   0  0  0  0  0  1  0  0  0  0  0  0
  161.5940  208.4990  156.0350 C   0  0  0  0  0  2  0  0  0  0  0  0
  1 22  1  0  0  0  0
  1 19  1  1  0  0  0
  2  3  1  0  0  0  0
  2  9  1  0  0  0  0
  3 16  1  0  0  0  0
  4  5  1  0  0  0  0
  4 20  1  0  0  0  0
  5 15  1  1  0  0  0
  6 19  1  0  0  0  0
  6 32  1  0  0  0  0
  8 13  1  0  0  0  0
  8 21  1  1  0  0  0
 10  7  1  6  0  0  0
 10  1  1  0  0  0  0
 11  9  1  6  0  0  0
 11 17  1  0  0  0  0
 11 10  1  0  0  0  0
 12 18  2  0  0  0  0
 12 22  1  0  0  0  0
 14  7  1  6  0  0  0
 14  6  1  0  0  0  0
 15 13  1  0  0  0  0
 16 17  1  0  0  0  0
 17 12  1  0  0  0  0
 18 23  1  0  0  0  0
 22  4  2  0  0  0  0
 23  5  1  0  0  0  0
 23  8  1  0  0  0  0
 24 26  1  0  0  0  0
 25 24  1  6  0  0  0
 25 14  1  0  0  0  0
 26 27  1  6  0  0  0
 26 25  1  0  0  0  0
 27 28  1  0  0  0  0
 28 29  1  0  0  0  0
 30 28  2  0  0  0  0
 32 31  1  0  0  0  0
M  END
>  <MODEL>
1

>  <REMARK>
 VINA RESULT:      -4.7      0.000      0.000
  Name = 
  4 active torsions:
  status: ('A' for Active; 'I' for Inactive)
    1  A    between atoms: N_7  and  C_19
    2  A    between atoms: C_10  and  C_17
    3  A    between atoms: C_20  and  C_29
    4  A    between atoms: C_29  and  C_30
                            x       y       z     vdW  Elec       q    Type
                         _______ _______ _______ _____ _____    ______ ____

>  <TORSDO>
F 4

$$$$
=
 OpenBabel11122413013D

 32 37  0  0  1  0  0  0  0  0999 V2000
  161.4820  208.0180  149.6380 C   0  0  1  0  0  3  0  0  0  0  0  0
  160.7980  205.2440  153.1360 C   0  0  0  0  0  2  0  0  0  0  0  0
  160.7850  204.0560  152.1690 C   0  0  0  0  0  2  0  0  0  0  0  0
  160.7760  206.8700  147.5210 C   0  0  0  0  0  0  0  0  0  0  0  0
  160.5640  205.6250  146.7010 C   0  0  1  0  0  3  0  0  0  0  0  0
  161.8400  210.4860  149.7720 N   0  0  0  0  0  0  0  0  0  0  0  0
  162.7150  209.0170  151.6440 C   0  0  0  0  0  2  0  0  0  0  0  0
  162.0260  203.8030  146.0690 C   0  0  1  0  0  3  0  0  0  0  0  0
  160.9660  206.5650  152.3820 C   0  0  0  0  0  2  0  0  0  0  0  0
  162.5030  207.7890  150.7510 C   0  0  1  0  0  3  0  0  0  0  0  0
  162.2440  206.5090  151.5420 C   0  0  2  0  0  3  0  0  0  0  0  0
  161.7960  205.4780  149.2720 C   0  0  0  0  0  0  0  0  0  0  0  0
  161.5220  204.4790  144.8020 C   0  0  0  0  0  2  0  0  0  0  0  0
  161.8610  210.2290  151.2300 C   0  0  2  0  0  3  0  0  0  0  0  0
  160.9170  205.8130  145.2390 C   0  0  0  0  0  2  0  0  0  0  0  0
  162.0540  204.0520  151.3160 C   0  0  0  0  0  2  0  0  0  0  0  0
  162.1830  205.3450  150.6530 N   0  0  0  0  0  0  0  0  0  0  0  0
  161.8380  204.4430  148.4870 N   0  0  0  0  0  0  0  0  0  0  0  0
  161.9310  209.2880  148.9190 C   0  0  0  0  0  2  0  0  0  0  0  0
  160.2580  208.0690  147.0430 O   0  0  0  0  0  1  0  0  0  0  0  0
  163.5390  203.9280  146.1280 C   0  0  0  0  0  1  0  0  0  0  0  0
  161.3780  206.8070  148.7310 C   0  0  0  0  0  0  0  0  0  0  0  0
  161.4180  204.5470  147.1530 N   0  0  0  0  0  0  0  0  0  0  0  0
  160.4690  209.9540  153.2720 C   0  0  0  0  0  2  0  0  0  0  0  0
  160.4420  210.0990  151.7640 C   0  0  1  0  0  3  0  0  0  0  0  0
  160.1290  211.2900  152.6480 C   0  0  1  0  0  3  0  0  0  0  0  0
  158.6270  211.4980  152.6740 C   0  0  0  0  0  2  0  0  0  0  0  0
  158.2060  211.9760  154.0190 C   0  0  0  0  0  0  0  0  0  0  0  0
  159.0050  212.8720  154.7190 O   0  0  0  0  0  1  0  0  0  0  0  0
  157.1440  211.5450  154.5370 O   0  0  0  0  0  0  0  0  0  0  0  0
  162.6720  212.1590  148.2170 C   0  0  0  0  0  1  0  0  0  0  0  0
  162.9800  211.3290  149.4480 C   0  0  0  0  0  2  0  0  0  0  0  0
  1 19  1  6  0  0  0
  1 10  1  0  0  0  0
  3  2  1  0  0  0  0
  4 22  2  0  0  0  0
  5 15  1  6  0  0  0
  5 23  1  0  0  0  0
  5  4  1  0  0  0  0
  6 14  1  0  0  0  0
  8 21  1  1  0  0  0
  8 23  1  0  0  0  0
  9  2  1  0  0  0  0
 10 11  1  0  0  0  0
 10  7  1  1  0  0  0
 11  9  1  6  0  0  0
 12 17  1  0  0  0  0
 13 15  1  0  0  0  0
 13  8  1  0  0  0  0
 14  7  1  6  0  0  0
 14 25  1  0  0  0  0
 16  3  1  0  0  0  0
 17 16  1  0  0  0  0
 17 11  1  0  0  0  0
 18 12  2  0  0  0  0
 19  6  1  0  0  0  0
 20  4  1  0  0  0  0
 22 12  1  0  0  0  0
 22  1  1  0  0  0  0
 23 18  1  0  0  0  0
 25 26  1  0  0  0  0
 25 24  1  1  0  0  0
 26 27  1  6  0  0  0
 26 24  1  0  0  0  0
 27 28  1  0  0  0  0
 28 30  2  0  0  0  0
 28 29  1  0  0  0  0
 31 32  1  0  0  0  0
 32  6  1  0  0  0  0
M  END
>  <MODEL>
2

>  <REMARK>
 VINA RESULT:      -3.9      3.942      9.404
  Name = 
  4 active torsions:
  status: ('A' for Active; 'I' for Inactive)
    1  A    between atoms: N_7  and  C_19
    2  A    between atoms: C_10  and  C_17
    3  A    between atoms: C_20  and  C_29
    4  A    between atoms: C_29  and  C_30
                            x       y       z     vdW  Elec       q    Type
                         _______ _______ _______ _____ _____    ______ ____

>  <TORSDO>
F 4

$$$$
=
 OpenBabel11122413013D

 32 37  0  0  1  0  0  0  0  0999 V2000
  161.0820  208.3140  151.3650 C   0  0  1  0  0  3  0  0  0  0  0  0
  159.8910  208.6640  155.7070 C   0  0  0  0  0  2  0  0  0  0  0  0
  159.8100  207.1360  155.7910 C   0  0  0  0  0  2  0  0  0  0  0  0
  160.3890  206.0640  150.4950 C   0  0  0  0  0  0  0  0  0  0  0  0
  160.0940  204.6020  150.7010 C   0  0  1  0  0  3  0  0  0  0  0  0
  161.6940  210.2070  149.8550 N   0  0  0  0  0  0  0  0  0  0  0  0
  162.2890  210.3590  152.3150 C   0  0  0  0  0  2  0  0  0  0  0  0
  161.3890  202.7780  151.6280 C   0  0  1  0  0  3  0  0  0  0  0  0
  160.2460  209.1200  154.2910 C   0  0  0  0  0  2  0  0  0  0  0  0
  162.0020  208.8590  152.4550 C   0  0  1  0  0  3  0  0  0  0  0  0
  161.5590  208.4620  153.8610 C   0  0  2  0  0  3  0  0  0  0  0  0
  161.1440  206.1860  152.8320 C   0  0  0  0  0  0  0  0  0  0  0  0
  161.0380  202.4380  150.1860 C   0  0  0  0  0  2  0  0  0  0  0  0
  161.5980  211.0030  151.0990 C   0  0  2  0  0  3  0  0  0  0  0  0
  160.5550  203.7380  149.5440 C   0  0  0  0  0  2  0  0  0  0  0  0
  161.1210  206.5090  155.3160 C   0  0  0  0  0  2  0  0  0  0  0  0
  161.4280  207.0080  153.9800 N   0  0  0  0  0  0  0  0  0  0  0  0
  161.1230  204.8920  152.9530 N   0  0  0  0  0  0  0  0  0  0  0  0
  161.7080  208.7450  150.0400 C   0  0  0  0  0  2  0  0  0  0  0  0
  160.0320  206.6420  149.2820 O   0  0  0  0  0  1  0  0  0  0  0  0
  162.9000  202.8540  151.7650 C   0  0  0  0  0  1  0  0  0  0  0  0
  160.9050  206.8130  151.4970 C   0  0  0  0  0  0  0  0  0  0  0  0
  160.7980  204.0820  151.8550 N   0  0  0  0  0  0  0  0  0  0  0  0
  160.0570  212.1710  152.6630 C   0  0  0  0  0  2  0  0  0  0  0  0
  160.1430  211.3220  151.4120 C   0  0  1  0  0  3  0  0  0  0  0  0
  159.9230  212.8180  151.3010 C   0  0  1  0  0  3  0  0  0  0  0  0
  158.4600  213.0760  151.0010 C   0  0  0  0  0  2  0  0  0  0  0  0
  158.3270  213.7510  149.6800 C   0  0  0  0  0  0  0  0  0  0  0  0
  157.0680  213.9590  149.1300 O   0  0  0  0  0  1  0  0  0  0  0  0
  159.3550  214.1030  149.0470 O   0  0  0  0  0  0  0  0  0  0  0  0
  162.7640  211.8820  148.4560 C   0  0  0  0  0  1  0  0  0  0  0  0
  162.9350  210.5650  149.1880 C   0  0  0  0  0  2  0  0  0  0  0  0
  1 19  1  6  0  0  0
  1 22  1  0  0  0  0
  1 10  1  0  0  0  0
  2  3  1  0  0  0  0
  4  5  1  0  0  0  0
  4 22  2  0  0  0  0
  5 15  1  6  0  0  0
  5 23  1  0  0  0  0
  6 19  1  0  0  0  0
  6 14  1  0  0  0  0
  8 21  1  6  0  0  0
  8 23  1  0  0  0  0
  9  2  1  0  0  0  0
 10  7  1  1  0  0  0
 10 11  1  0  0  0  0
 11 17  1  0  0  0  0
 11  9  1  6  0  0  0
 12 18  2  0  0  0  0
 12 17  1  0  0  0  0
 13  8  1  0  0  0  0
 14 25  1  0  0  0  0
 14  7  1  1  0  0  0
 15 13  1  0  0  0  0
 16  3  1  0  0  0  0
 17 16  1  0  0  0  0
 20  4  1  0  0  0  0
 22 12  1  0  0  0  0
 23 18  1  0  0  0  0
 25 24  1  1  0  0  0
 26 27  1  1  0  0  0
 26 25  1  0  0  0  0
 26 24  1  0  0  0  0
 28 27  1  0  0  0  0
 29 28  1  0  0  0  0
 30 28  2  0  0  0  0
 31 32  1  0  0  0  0
 32  6  1  0  0  0  0
M  END
>  <MODEL>
3

>  <REMARK>
 VINA RESULT:      -3.0      3.905      8.238
  Name = 
  4 active torsions:
  status: ('A' for Active; 'I' for Inactive)
    1  A    between atoms: N_7  and  C_19
    2  A    between atoms: C_10  and  C_17
    3  A    between atoms: C_20  and  C_29
    4  A    between atoms: C_29  and  C_30
                            x       y       z     vdW  Elec       q    Type
                         _______ _______ _______ _____ _____    ______ ____

>  <TORSDO>
F 4

$$$$
=
 OpenBabel11122413013D

 32 37  0  0  1  0  0  0  0  0999 V2000
  159.6090  210.2650  153.1930 C   0  0  1  0  0  3  0  0  0  0  0  0
  160.3750  212.9530  149.6450 C   0  0  0  0  0  2  0  0  0  0  0  0
  159.3730  213.9630  150.2150 C   0  0  0  0  0  2  0  0  0  0  0  0
  157.4130  210.8830  154.2410 C   0  0  0  0  0  0  0  0  0  0  0  0
  156.3410  211.8900  154.5660 C   0  0  1  0  0  3  0  0  0  0  0  0
  160.7620  208.1020  153.6700 N   0  0  0  0  0  0  0  0  0  0  0  0
  162.0600  209.9590  152.5310 C   0  0  0  0  0  2  0  0  0  0  0  0
  156.3870  214.0370  155.6830 C   0  0  1  0  0  3  0  0  0  0  0  0
  160.4640  211.7070  150.5290 C   0  0  0  0  0  2  0  0  0  0  0  0
  160.9490  210.9420  152.9170 C   0  0  1  0  0  3  0  0  0  0  0  0
  160.8320  212.1220  151.9550 C   0  0  2  0  0  3  0  0  0  0  0  0
  158.7650  212.7070  153.2960 C   0  0  0  0  0  0  0  0  0  0  0  0
  155.4660  213.1070  156.4600 C   0  0  0  0  0  2  0  0  0  0  0  0
  161.5960  208.4910  152.5110 C   0  0  2  0  0  3  0  0  0  0  0  0
  155.7480  211.6960  155.9470 C   0  0  0  0  0  2  0  0  0  0  0  0
  159.7450  214.3250  151.6540 C   0  0  0  0  0  2  0  0  0  0  0  0
  159.8530  213.1000  152.4380 N   0  0  0  0  0  0  0  0  0  0  0  0
  157.9660  213.6100  153.7810 N   0  0  0  0  0  0  0  0  0  0  0  0
  159.9010  209.1670  154.2130 C   0  0  0  0  0  2  0  0  0  0  0  0
  157.1440  209.5380  154.4720 O   0  0  0  0  0  1  0  0  0  0  0  0
  157.5410  214.4530  156.5790 C   0  0  0  0  0  1  0  0  0  0  0  0
  158.5710  211.2700  153.6570 C   0  0  0  0  0  0  0  0  0  0  0  0
  156.8730  213.2370  154.5770 N   0  0  0  0  0  0  0  0  0  0  0  0
  161.7480  208.5450  150.0290 C   0  0  0  0  0  2  0  0  0  0  0  0
  160.8760  208.1700  151.2090 C   0  0  1  0  0  3  0  0  0  0  0  0
  161.6450  207.0980  150.4620 C   0  0  1  0  0  3  0  0  0  0  0  0
  160.6890  206.3590  149.5460 C   0  0  0  0  0  2  0  0  0  0  0  0
  161.0110  204.9050  149.5480 C   0  0  0  0  0  0  0  0  0  0  0  0
  161.3560  204.2690  148.3630 O   0  0  0  0  0  0  0  0  0  0  0  0
  160.9370  204.2460  150.6170 O   0  0  0  0  0  1  0  0  0  0  0  0
  161.4060  208.5330  155.9740 C   0  0  0  0  0  1  0  0  0  0  0  0
  161.6500  207.6820  154.7420 C   0  0  0  0  0  2  0  0  0  0  0  0
  1 22  1  0  0  0  0
  1 19  1  1  0  0  0
  2  3  1  0  0  0  0
  2  9  1  0  0  0  0
  3 16  1  0  0  0  0
  4 20  1  0  0  0  0
  4  5  1  0  0  0  0
  5 23  1  0  0  0  0
  5 15  1  1  0  0  0
  6 19  1  0  0  0  0
  6 32  1  0  0  0  0
  8 13  1  0  0  0  0
  8 21  1  1  0  0  0
 10  7  1  6  0  0  0
 10  1  1  0  0  0  0
 11  9  1  6  0  0  0
 11 17  1  0  0  0  0
 11 10  1  0  0  0  0
 12 22  1  0  0  0  0
 12 18  2  0  0  0  0
 14  7  1  1  0  0  0
 14  6  1  0  0  0  0
 15 13  1  0  0  0  0
 16 17  1  0  0  0  0
 17 12  1  0  0  0  0
 18 23  1  0  0  0  0
 22  4  2  0  0  0  0
 23  8  1  0  0  0  0
 24 26  1  0  0  0  0
 25 24  1  6  0  0  0
 25 14  1  0  0  0  0
 26 27  1  6  0  0  0
 26 25  1  0  0  0  0
 27 28  1  0  0  0  0
 28 30  1  0  0  0  0
 29 28  2  0  0  0  0
 32 31  1  0  0  0  0
M  END
>  <MODEL>
4

>  <REMARK>
 VINA RESULT:      -2.7      1.205      1.507
  Name = 
  4 active torsions:
  status: ('A' for Active; 'I' for Inactive)
    1  A    between atoms: N_7  and  C_19
    2  A    between atoms: C_10  and  C_17
    3  A    between atoms: C_20  and  C_29
    4  A    between atoms: C_29  and  C_30
                            x       y       z     vdW  Elec       q    Type
                         _______ _______ _______ _____ _____    ______ ____

>  <TORSDO>
F 4

$$$$
