=
 OpenBabel11122414123D

 28 32  0  0  1  0  0  0  0  0999 V2000
  160.3530  209.5070  154.1580 C   0  0  2  0  0  3  0  0  0  0  0  0
  157.9490  210.3830  155.5020 O   0  0  0  0  0  0  0  0  0  0  0  0
  160.4670  213.0020  148.7530 O   0  0  0  0  0  0  0  0  0  0  0  0
  162.2020  210.4950  156.2250 C   0  0  0  0  0  2  0  0  0  0  0  0
  159.0760  213.6360  150.5560 N   0  0  0  0  0  0  0  0  0  0  0  0
  160.0420  208.9180  152.7750 C   0  0  0  0  0  2  0  0  0  0  0  0
  158.3230  212.6330  156.4350 O   0  0  0  0  0  0  0  0  0  0  0  0
  157.8520  211.8570  155.2370 S   0  0  0  0  0  0  0  0  0  0  0  0
  156.0050  213.3480  153.8210 C   0  0  0  0  0  0  0  0  0  0  0  0
  158.7580  212.3060  153.8450 N   0  0  0  0  0  0  0  0  0  0  0  0
  163.0360  210.2750  151.8300 N   0  0  0  0  0  2  0  0  0  0  0  0
  160.2730  212.5850  152.2350 C   0  0  0  0  0  0  0  0  0  0  0  0
  156.9180  213.6550  152.9430 N   0  0  0  0  0  0  0  0  0  0  0  0
  156.1580  212.2670  154.8680 C   0  0  0  0  0  2  0  0  0  0  0  0
  161.8680  209.9090  151.4110 C   0  0  0  0  0  0  0  0  0  0  0  0
  160.9110  210.9480  154.1150 C   0  0  2  0  0  3  0  0  0  0  0  0
  160.2210  212.9910  149.9880 C   0  0  0  0  0  0  0  0  0  0  0  0
  154.6710  213.9930  153.7030 C   0  0  0  0  0  1  0  0  0  0  0  0
  161.0190  210.8390  150.7380 N   0  0  0  0  0  2  0  0  0  0  0  0
  161.2600  211.4580  155.5140 C   0  0  0  0  0  2  0  0  0  0  0  0
  161.2720  208.5690  154.9460 C   0  0  0  0  0  2  0  0  0  0  0  0
  161.5490  209.1240  156.3370 C   0  0  0  0  0  2  0  0  0  0  0  0
  161.2790  208.6380  151.9150 C   0  0  0  0  0  2  0  0  0  0  0  0
  159.1900  213.3350  151.9320 C   0  0  0  0  0  0  0  0  0  0  0  0
  161.0750  212.2670  151.0050 C   0  0  2  0  0  3  0  0  0  0  0  0
  158.2480  213.1240  152.9090 C   0  0  0  0  0  0  0  0  0  0  0  0
  157.8400  213.9250  149.8490 C   0  0  0  0  0  1  0  0  0  0  0  0
  159.9970  211.9260  153.4280 C   0  0  0  0  0  0  0  0  0  0  0  0
  1  6  1  6  0  0  0
  1 21  1  0  0  0  0
  3 17  2  0  0  0  0
  4 22  1  0  0  0  0
  5 24  1  0  0  0  0
  8  2  2  0  0  0  0
  8  7  2  0  0  0  0
  9 14  1  0  0  0  0
 10  8  1  0  0  0  0
 12 28  2  0  0  0  0
 13  9  2  0  0  0  0
 14  8  1  0  0  0  0
 15 11  2  0  0  0  0
 15 23  1  0  0  0  0
 16  1  1  0  0  0  0
 16 20  1  1  0  0  0
 17  5  1  0  0  0  0
 18  9  1  0  0  0  0
 19 25  1  0  0  0  0
 19 15  1  0  0  0  0
 20  4  1  0  0  0  0
 21 22  1  0  0  0  0
 23  6  1  0  0  0  0
 24 12  1  0  0  0  0
 24 26  2  0  0  0  0
 25 17  1  6  0  0  0
 25 12  1  0  0  0  0
 26 13  1  0  0  0  0
 26 10  1  0  0  0  0
 27  5  1  0  0  0  0
 28 10  1  0  0  0  0
 28 16  1  0  0  0  0
M  END
>  <MODEL>
1

>  <REMARK>
 VINA RESULT:      -3.9      0.000      0.000
  Name = 
  0 active torsions:
  status: ('A' for Active; 'I' for Inactive)
                            x       y       z     vdW  Elec       q    Type
                         _______ _______ _______ _____ _____    ______ ____

>  <TORSDO>
F 0

$$$$
=
 OpenBabel11122414123D

 28 32  0  0  1  0  0  0  0  0999 V2000
  161.6280  208.7070  155.8520 C   0  0  2  0  0  3  0  0  0  0  0  0
  162.5720  206.9570  153.7560 O   0  0  0  0  0  0  0  0  0  0  0  0
  159.6460  213.9640  152.7080 O   0  0  0  0  0  0  0  0  0  0  0  0
  159.4210  206.9560  156.7030 C   0  0  0  0  0  2  0  0  0  0  0  0
  159.9990  211.9370  151.5430 N   0  0  0  0  0  0  0  0  0  0  0  0
  162.4020  210.0330  155.8700 C   0  0  0  0  0  2  0  0  0  0  0  0
  160.6340  206.0430  152.5370 O   0  0  0  0  0  0  0  0  0  0  0  0
  161.6330  207.1640  152.6030 S   0  0  0  0  0  0  0  0  0  0  0  0
  162.0340  208.2110  150.0760 C   0  0  0  0  0  0  0  0  0  0  0  0
  160.8210  208.6760  152.7180 N   0  0  0  0  0  0  0  0  0  0  0  0
  159.4350  211.4330  156.8370 N   0  0  0  0  0  2  0  0  0  0  0  0
  159.7210  210.5110  153.3450 C   0  0  0  0  0  0  0  0  0  0  0  0
  161.2630  209.2220  150.3680 N   0  0  0  0  0  0  0  0  0  0  0  0
  162.5770  207.2330  151.0930 C   0  0  0  0  0  2  0  0  0  0  0  0
  160.5580  211.6590  156.2370 C   0  0  0  0  0  0  0  0  0  0  0  0
  160.2280  208.8060  155.2060 C   0  0  2  0  0  3  0  0  0  0  0  0
  159.7010  212.7050  152.7140 C   0  0  0  0  0  0  0  0  0  0  0  0
  162.5330  208.0860  148.6820 C   0  0  0  0  0  1  0  0  0  0  0  0
  160.5730  212.1550  154.8980 N   0  0  0  0  0  2  0  0  0  0  0  0
  159.4820  207.4730  155.2720 C   0  0  0  0  0  2  0  0  0  0  0  0
  161.5580  208.1090  157.2610 C   0  0  0  0  0  2  0  0  0  0  0  0
  160.8320  206.7710  157.2450 C   0  0  0  0  0  2  0  0  0  0  0  0
  161.8140  211.0960  156.8040 C   0  0  0  0  0  2  0  0  0  0  0  0
  159.9890  210.6070  152.0230 C   0  0  0  0  0  0  0  0  0  0  0  0
  159.5030  211.8650  153.9570 C   0  0  2  0  0  3  0  0  0  0  0  0
  160.7020  209.4930  151.6570 C   0  0  0  0  0  0  0  0  0  0  0  0
  160.7390  212.4190  150.3900 C   0  0  0  0  0  1  0  0  0  0  0  0
  160.2570  209.3050  153.7860 C   0  0  0  0  0  0  0  0  0  0  0  0
  1  6  1  1  0  0  0
  1 21  1  0  0  0  0
  3 17  2  0  0  0  0
  4 22  1  0  0  0  0
  5 24  1  0  0  0  0
  5 17  1  0  0  0  0
  6 23  1  0  0  0  0
  7  8  2  0  0  0  0
  8 10  1  0  0  0  0
  8  2  2  0  0  0  0
  9 13  2  0  0  0  0
  9 14  1  0  0  0  0
 10 28  1  0  0  0  0
 12 28  2  0  0  0  0
 12 25  1  0  0  0  0
 13 26  1  0  0  0  0
 14  8  1  0  0  0  0
 15 23  1  0  0  0  0
 15 11  2  0  0  0  0
 16 20  1  6  0  0  0
 16  1  1  0  0  0  0
 18  9  1  0  0  0  0
 19 15  1  0  0  0  0
 20  4  1  0  0  0  0
 22 21  1  0  0  0  0
 24 12  1  0  0  0  0
 25 17  1  6  0  0  0
 25 19  1  0  0  0  0
 26 24  2  0  0  0  0
 26 10  1  0  0  0  0
 27  5  1  0  0  0  0
 28 16  1  0  0  0  0
M  END
>  <MODEL>
2

>  <REMARK>
 VINA RESULT:      -3.3      2.770      5.269
  Name = 
  0 active torsions:
  status: ('A' for Active; 'I' for Inactive)
                            x       y       z     vdW  Elec       q    Type
                         _______ _______ _______ _____ _____    ______ ____

>  <TORSDO>
F 0

$$$$
=
 OpenBabel11122414123D

 28 32  0  0  1  0  0  0  0  0999 V2000
  160.8300  205.9860  151.0240 C   0  0  2  0  0  3  0  0  0  0  0  0
  159.9970  206.9290  153.6250 O   0  0  0  0  0  0  0  0  0  0  0  0
  161.8540  211.3860  147.6720 O   0  0  0  0  0  0  0  0  0  0  0  0
  163.3090  204.7130  151.9710 C   0  0  0  0  0  2  0  0  0  0  0  0
  161.7070  211.4530  150.0300 N   0  0  0  0  0  0  0  0  0  0  0  0
  159.8840  206.4750  149.9190 C   0  0  0  0  0  2  0  0  0  0  0  0
  161.9560  207.8300  154.8200 O   0  0  0  0  0  0  0  0  0  0  0  0
  160.8200  208.1570  153.8930 S   0  0  0  0  0  0  0  0  0  0  0  0
  160.1100  210.8120  154.1800 C   0  0  0  0  0  0  0  0  0  0  0  0
  161.4210  208.8390  152.4330 N   0  0  0  0  0  0  0  0  0  0  0  0
  162.6880  206.6190  147.9660 N   0  0  0  0  0  2  0  0  0  0  0  0
  162.2980  209.2510  150.4260 C   0  0  0  0  0  0  0  0  0  0  0  0
  160.7520  211.1070  153.0830 N   0  0  0  0  0  0  0  0  0  0  0  0
  159.7750  209.4050  154.6190 C   0  0  0  0  0  2  0  0  0  0  0  0
  161.5070  207.1140  148.1480 C   0  0  0  0  0  0  0  0  0  0  0  0
  162.1560  206.7740  151.1090 C   0  0  2  0  0  3  0  0  0  0  0  0
  161.9740  210.8040  148.7830 C   0  0  0  0  0  0  0  0  0  0  0  0
  159.5400  211.9260  154.9820 C   0  0  0  0  0  1  0  0  0  0  0  0
  161.3340  208.5190  148.3330 N   0  0  0  0  0  2  0  0  0  0  0  0
  163.0810  206.2030  152.1850 C   0  0  0  0  0  2  0  0  0  0  0  0
  161.0750  204.4800  150.8910 C   0  0  0  0  0  2  0  0  0  0  0  0
  161.9760  203.9770  152.0110 C   0  0  0  0  0  2  0  0  0  0  0  0
  160.3810  206.2030  148.4950 C   0  0  0  0  0  2  0  0  0  0  0  0
  161.9320  210.4290  150.9780 C   0  0  0  0  0  0  0  0  0  0  0  0
  162.3680  209.3500  148.9280 C   0  0  2  0  0  3  0  0  0  0  0  0
  161.3560  210.1610  152.1950 C   0  0  0  0  0  0  0  0  0  0  0  0
  160.8310  212.5990  150.2090 C   0  0  0  0  0  1  0  0  0  0  0  0
  161.9640  208.2500  151.3320 C   0  0  0  0  0  0  0  0  0  0  0  0
  1  6  1  6  0  0  0
  1 16  1  0  0  0  0
  2  8  2  0  0  0  0
  3 17  2  0  0  0  0
  4 22  1  0  0  0  0
  4 20  1  0  0  0  0
  5 27  1  0  0  0  0
  5 24  1  0  0  0  0
  8 14  1  0  0  0  0
  8  7  2  0  0  0  0
  9 14  1  0  0  0  0
  9 18  1  0  0  0  0
 10  8  1  0  0  0  0
 11 15  2  0  0  0  0
 12 24  1  0  0  0  0
 12 28  2  0  0  0  0
 13  9  2  0  0  0  0
 15 19  1  0  0  0  0
 15 23  1  0  0  0  0
 16 28  1  0  0  0  0
 16 20  1  1  0  0  0
 17 25  1  0  0  0  0
 17  5  1  0  0  0  0
 21  1  1  0  0  0  0
 21 22  1  0  0  0  0
 23  6  1  0  0  0  0
 24 26  2  0  0  0  0
 25 19  1  6  0  0  0
 25 12  1  0  0  0  0
 26 10  1  0  0  0  0
 26 13  1  0  0  0  0
 28 10  1  0  0  0  0
M  END
>  <MODEL>
3

>  <REMARK>
 VINA RESULT:      -3.3      3.134      4.790
  Name = 
  0 active torsions:
  status: ('A' for Active; 'I' for Inactive)
                            x       y       z     vdW  Elec       q    Type
                         _______ _______ _______ _____ _____    ______ ____

>  <TORSDO>
F 0

$$$$
=
 OpenBabel11122414123D

 28 32  0  0  1  0  0  0  0  0999 V2000
  161.2140  210.5130  155.8740 C   0  0  2  0  0  3  0  0  0  0  0  0
  162.8430  209.9500  153.5550 O   0  0  0  0  0  0  0  0  0  0  0  0
  156.6420  214.4530  153.6340 O   0  0  0  0  0  0  0  0  0  0  0  0
  160.2880  207.7440  156.2420 C   0  0  0  0  0  2  0  0  0  0  0  0
  157.9530  213.1740  152.1400 N   0  0  0  0  0  0  0  0  0  0  0  0
  161.1790  212.0160  156.1860 C   0  0  0  0  0  2  0  0  0  0  0  0
  161.6210  208.4120  152.0660 O   0  0  0  0  0  0  0  0  0  0  0  0
  161.8870  209.8520  152.4020 S   0  0  0  0  0  0  0  0  0  0  0  0
  161.5720  211.4150  150.1440 C   0  0  0  0  0  0  0  0  0  0  0  0
  160.4090  210.6660  152.7420 N   0  0  0  0  0  0  0  0  0  0  0  0
  157.9630  211.4490  157.2020 N   0  0  0  0  0  2  0  0  0  0  0  0
  158.5400  211.4990  153.6250 C   0  0  0  0  0  0  0  0  0  0  0  0
  160.4000  211.7990  150.5670 N   0  0  0  0  0  0  0  0  0  0  0  0
  162.5900  210.6900  150.9950 C   0  0  0  0  0  2  0  0  0  0  0  0
  158.7750  212.3370  156.7270 C   0  0  0  0  0  0  0  0  0  0  0  0
  159.9430  209.9900  155.1680 C   0  0  2  0  0  3  0  0  0  0  0  0
  157.3470  213.4340  153.4110 C   0  0  0  0  0  0  0  0  0  0  0  0
  162.0030  211.8380  148.7860 C   0  0  0  0  0  1  0  0  0  0  0  0
  158.4710  213.0140  155.5070 N   0  0  0  0  0  2  0  0  0  0  0  0
  160.0090  208.4790  154.9390 C   0  0  0  0  0  2  0  0  0  0  0  0
  161.5270  209.7110  157.1400 C   0  0  0  0  0  2  0  0  0  0  0  0
  161.6090  208.2220  156.8300 C   0  0  0  0  0  2  0  0  0  0  0  0
  160.1630  212.4150  157.2610 C   0  0  0  0  0  2  0  0  0  0  0  0
  158.6610  211.9710  152.3640 C   0  0  0  0  0  0  0  0  0  0  0  0
  157.6720  212.3950  154.4610 C   0  0  2  0  0  3  0  0  0  0  0  0
  159.8350  211.4850  151.8450 C   0  0  0  0  0  0  0  0  0  0  0  0
  158.2810  214.1810  151.1460 C   0  0  0  0  0  1  0  0  0  0  0  0
  159.6460  210.6900  153.8700 C   0  0  0  0  0  0  0  0  0  0  0  0
  1  6  1  1  0  0  0
  1 21  1  0  0  0  0
  4 22  1  0  0  0  0
  5 24  1  0  0  0  0
  5 17  1  0  0  0  0
  6 23  1  0  0  0  0
  7  8  2  0  0  0  0
  8 10  1  0  0  0  0
  8  2  2  0  0  0  0
  9 13  2  0  0  0  0
  9 14  1  0  0  0  0
 10 28  1  0  0  0  0
 12 28  2  0  0  0  0
 12 25  1  0  0  0  0
 13 26  1  0  0  0  0
 14  8  1  0  0  0  0
 15 11  2  0  0  0  0
 15 23  1  0  0  0  0
 16 20  1  6  0  0  0
 16  1  1  0  0  0  0
 17  3  2  0  0  0  0
 18  9  1  0  0  0  0
 19 15  1  0  0  0  0
 20  4  1  0  0  0  0
 22 21  1  0  0  0  0
 24 12  1  0  0  0  0
 25 17  1  6  0  0  0
 25 19  1  0  0  0  0
 26 24  2  0  0  0  0
 26 10  1  0  0  0  0
 27  5  1  0  0  0  0
 28 16  1  0  0  0  0
M  END
>  <MODEL>
4

>  <REMARK>
 VINA RESULT:      -3.1      2.456      4.876
  Name = 
  0 active torsions:
  status: ('A' for Active; 'I' for Inactive)
                            x       y       z     vdW  Elec       q    Type
                         _______ _______ _______ _____ _____    ______ ____

>  <TORSDO>
F 0

$$$$
=
 OpenBabel11122414123D

 28 32  0  0  1  0  0  0  0  0999 V2000
  160.2730  208.1850  154.8410 C   0  0  2  0  0  3  0  0  0  0  0  0
  158.8350  210.6730  155.1520 O   0  0  0  0  0  0  0  0  0  0  0  0
  162.5620  208.4600  148.8310 O   0  0  0  0  0  0  0  0  0  0  0  0
  162.3010  208.7790  156.8900 C   0  0  0  0  0  2  0  0  0  0  0  0
  161.7840  210.4180  149.9030 N   0  0  0  0  0  0  0  0  0  0  0  0
  159.7020  207.3460  153.6900 C   0  0  0  0  0  2  0  0  0  0  0  0
  160.4560  212.5160  155.3770 O   0  0  0  0  0  0  0  0  0  0  0  0
  159.6420  211.7010  154.4130 S   0  0  0  0  0  0  0  0  0  0  0  0
  159.0760  213.2010  152.1620 C   0  0  0  0  0  0  0  0  0  0  0  0
  160.6660  210.9700  153.2390 N   0  0  0  0  0  0  0  0  0  0  0  0
  162.9340  206.3510  153.1800 N   0  0  0  0  0  2  0  0  0  0  0  0
  162.0830  209.6980  152.0820 C   0  0  0  0  0  0  0  0  0  0  0  0
  160.0120  212.5750  151.5040 N   0  0  0  0  0  0  0  0  0  0  0  0
  158.5330  212.7570  153.5010 C   0  0  0  0  0  2  0  0  0  0  0  0
  161.7880  206.5330  152.6100 C   0  0  0  0  0  0  0  0  0  0  0  0
  161.5800  208.9290  154.4870 C   0  0  2  0  0  3  0  0  0  0  0  0
  162.3320  209.0950  149.8940 C   0  0  0  0  0  0  0  0  0  0  0  0
  158.3930  214.3410  151.4970 C   0  0  0  0  0  1  0  0  0  0  0  0
  161.6730  207.3940  151.4760 N   0  0  0  0  0  2  0  0  0  0  0  0
  162.1340  209.6980  155.6870 C   0  0  0  0  0  2  0  0  0  0  0  0
  160.4350  207.3280  156.1010 C   0  0  0  0  0  2  0  0  0  0  0  0
  160.9580  208.1650  157.2610 C   0  0  0  0  0  2  0  0  0  0  0  0
  160.5460  206.1210  153.3220 C   0  0  0  0  0  2  0  0  0  0  0  0
  161.6670  210.7050  151.2820 C   0  0  0  0  0  0  0  0  0  0  0  0
  162.5640  208.5260  151.2760 C   0  0  2  0  0  3  0  0  0  0  0  0
  160.7640  211.4580  151.9910 C   0  0  0  0  0  0  0  0  0  0  0  0
  160.9790  210.9990  148.8420 C   0  0  0  0  0  1  0  0  0  0  0  0
  161.4430  209.8540  153.3080 C   0  0  0  0  0  0  0  0  0  0  0  0
  1  6  1  6  0  0  0
  1 21  1  0  0  0  0
  3 17  2  0  0  0  0
  4 22  1  0  0  0  0
  5 24  1  0  0  0  0
  8  2  2  0  0  0  0
  8  7  2  0  0  0  0
  9 14  1  0  0  0  0
 10 28  1  0  0  0  0
 10  8  1  0  0  0  0
 12 28  2  0  0  0  0
 13 26  1  0  0  0  0
 13  9  2  0  0  0  0
 14  8  1  0  0  0  0
 15 11  2  0  0  0  0
 15 23  1  0  0  0  0
 16  1  1  0  0  0  0
 16 20  1  1  0  0  0
 17  5  1  0  0  0  0
 18  9  1  0  0  0  0
 19 15  1  0  0  0  0
 20  4  1  0  0  0  0
 21 22  1  0  0  0  0
 23  6  1  0  0  0  0
 24 26  2  0  0  0  0
 24 12  1  0  0  0  0
 25 17  1  6  0  0  0
 25 19  1  0  0  0  0
 25 12  1  0  0  0  0
 26 10  1  0  0  0  0
 27  5  1  0  0  0  0
 28 16  1  0  0  0  0
M  END
>  <MODEL>
5

>  <REMARK>
 VINA RESULT:      -1.3      2.126      3.179
  Name = 
  0 active torsions:
  status: ('A' for Active; 'I' for Inactive)
                            x       y       z     vdW  Elec       q    Type
                         _______ _______ _______ _____ _____    ______ ____

>  <TORSDO>
F 0

$$$$
=
 OpenBabel11122414123D

 28 32  0  0  1  0  0  0  0  0999 V2000
  161.7390  209.5560  154.6470 C   0  0  2  0  0  3  0  0  0  0  0  0
  163.0490  209.5990  152.0720 O   0  0  0  0  0  0  0  0  0  0  0  0
  157.1900  214.0840  154.1480 O   0  0  0  0  0  0  0  0  0  0  0  0
  160.6930  206.8180  154.3810 C   0  0  0  0  0  2  0  0  0  0  0  0
  158.2370  213.2230  152.2110 N   0  0  0  0  0  0  0  0  0  0  0  0
  161.8350  210.9170  155.3500 C   0  0  0  0  0  2  0  0  0  0  0  0
  161.5680  208.5600  150.3980 O   0  0  0  0  0  0  0  0  0  0  0  0
  161.9600  209.8460  151.0680 S   0  0  0  0  0  0  0  0  0  0  0  0
  161.4820  211.9720  149.3690 C   0  0  0  0  0  0  0  0  0  0  0  0
  160.5860  210.5780  151.8010 N   0  0  0  0  0  0  0  0  0  0  0  0
  158.7300  210.1860  156.5850 N   0  0  0  0  0  2  0  0  0  0  0  0
  158.8880  211.1910  153.1070 C   0  0  0  0  0  0  0  0  0  0  0  0
  160.3930  212.2600  150.0260 N   0  0  0  0  0  0  0  0  0  0  0  0
  162.5450  211.0150  149.8570 C   0  0  0  0  0  2  0  0  0  0  0  0
  159.5340  211.1460  156.2630 C   0  0  0  0  0  0  0  0  0  0  0  0
  160.3640  209.2800  153.9970 C   0  0  2  0  0  3  0  0  0  0  0  0
  157.8010  213.1440  153.5720 C   0  0  0  0  0  0  0  0  0  0  0  0
  161.7770  212.7370  148.1290 C   0  0  0  0  0  1  0  0  0  0  0  0
  159.1330  212.1380  155.3180 N   0  0  0  0  0  2  0  0  0  0  0  0
  160.3090  207.8880  153.3680 C   0  0  0  0  0  2  0  0  0  0  0  0
  162.1480  208.4300  155.6020 C   0  0  0  0  0  2  0  0  0  0  0  0
  162.1000  207.0800  154.8990 C   0  0  0  0  0  2  0  0  0  0  0  0
  160.9770  211.0370  156.6150 C   0  0  0  0  0  2  0  0  0  0  0  0
  158.8890  211.9850  152.0130 C   0  0  0  0  0  0  0  0  0  0  0  0
  158.1810  211.8500  154.2570 C   0  0  2  0  0  3  0  0  0  0  0  0
  159.9630  211.6260  151.2360 C   0  0  0  0  0  0  0  0  0  0  0  0
  158.5090  214.4530  151.4870 C   0  0  0  0  0  1  0  0  0  0  0  0
  159.9620  210.3160  152.9830 C   0  0  0  0  0  0  0  0  0  0  0  0
  1  6  1  1  0  0  0
  1 21  1  0  0  0  0
  4 22  1  0  0  0  0
  5 17  1  0  0  0  0
  6 23  1  0  0  0  0
  7  8  2  0  0  0  0
  8 10  1  0  0  0  0
  8  2  2  0  0  0  0
  9 14  1  0  0  0  0
  9 13  2  0  0  0  0
 10 28  1  0  0  0  0
 13 26  1  0  0  0  0
 14  8  1  0  0  0  0
 15 11  2  0  0  0  0
 15 23  1  0  0  0  0
 16 20  1  6  0  0  0
 16  1  1  0  0  0  0
 17  3  2  0  0  0  0
 17 25  1  0  0  0  0
 18  9  1  0  0  0  0
 19 15  1  0  0  0  0
 20  4  1  0  0  0  0
 22 21  1  0  0  0  0
 24  5  1  0  0  0  0
 24 12  1  0  0  0  0
 25 12  1  6  0  0  0
 25 19  1  0  0  0  0
 26 10  1  0  0  0  0
 26 24  2  0  0  0  0
 27  5  1  0  0  0  0
 28 12  2  0  0  0  0
 28 16  1  0  0  0  0
M  END
>  <MODEL>
6

>  <REMARK>
 VINA RESULT:      -1.2      2.419      4.888
  Name = 
  0 active torsions:
  status: ('A' for Active; 'I' for Inactive)
                            x       y       z     vdW  Elec       q    Type
                         _______ _______ _______ _____ _____    ______ ____

>  <TORSDO>
F 0

$$$$
=
 OpenBabel11122414123D

 28 32  0  0  1  0  0  0  0  0999 V2000
  162.2730  205.3710  146.7220 C   0  0  2  0  0  3  0  0  0  0  0  0
  162.9020  208.0920  147.4620 O   0  0  0  0  0  0  0  0  0  0  0  0
  160.6100  202.5970  152.2880 O   0  0  0  0  0  0  0  0  0  0  0  0
  159.9670  206.0680  145.0320 C   0  0  0  0  0  2  0  0  0  0  0  0
  160.6860  204.9520  152.1030 N   0  0  0  0  0  0  0  0  0  0  0  0
  163.1720  204.3660  147.4560 C   0  0  0  0  0  2  0  0  0  0  0  0
  160.8080  209.2980  147.9520 O   0  0  0  0  0  0  0  0  0  0  0  0
  161.9130  208.4600  148.5310 S   0  0  0  0  0  0  0  0  0  0  0  0
  162.2470  209.0670  151.2060 C   0  0  0  0  0  0  0  0  0  0  0  0
  161.2620  207.0600  149.2910 N   0  0  0  0  0  0  0  0  0  0  0  0
  160.4260  202.3270  147.4510 N   0  0  0  0  0  2  0  0  0  0  0  0
  160.3900  205.0770  149.8110 C   0  0  0  0  0  0  0  0  0  0  0  0
  161.6000  207.9850  151.5380 N   0  0  0  0  0  0  0  0  0  0  0  0
  162.7590  209.3620  149.8140 C   0  0  0  0  0  2  0  0  0  0  0  0
  161.5230  202.6110  148.0740 C   0  0  0  0  0  0  0  0  0  0  0  0
  160.8500  205.4880  147.3130 C   0  0  2  0  0  3  0  0  0  0  0  0
  160.5420  203.6310  151.5720 C   0  0  0  0  0  0  0  0  0  0  0  0
  162.6390  210.0100  152.2860 C   0  0  0  0  0  1  0  0  0  0  0  0
  161.4990  202.9580  149.4590 N   0  0  0  0  0  2  0  0  0  0  0  0
  159.9840  206.4550  146.5050 C   0  0  0  0  0  2  0  0  0  0  0  0
  162.2380  205.0620  145.2220 C   0  0  0  0  0  2  0  0  0  0  0  0
  161.3850  206.0810  144.4790 C   0  0  0  0  0  2  0  0  0  0  0  0
  162.7530  202.9020  147.2860 C   0  0  0  0  0  2  0  0  0  0  0  0
  160.5780  205.7710  150.9560 C   0  0  0  0  0  0  0  0  0  0  0  0
  160.3460  203.5980  150.0720 C   0  0  2  0  0  3  0  0  0  0  0  0
  161.1530  206.9730  150.6280 C   0  0  0  0  0  0  0  0  0  0  0  0
  161.3930  205.2920  153.3270 C   0  0  0  0  0  1  0  0  0  0  0  0
  160.8330  205.8800  148.7650 C   0  0  0  0  0  0  0  0  0  0  0  0
  1 21  1  6  0  0  0
  1 16  1  0  0  0  0
  1  6  1  0  0  0  0
  2  8  2  0  0  0  0
  4 20  1  0  0  0  0
  5 27  1  0  0  0  0
  7  8  2  0  0  0  0
  8 10  1  0  0  0  0
  8 14  1  0  0  0  0
  9 13  2  0  0  0  0
  9 18  1  0  0  0  0
 10 26  1  0  0  0  0
 11 15  2  0  0  0  0
 12 25  1  0  0  0  0
 12 24  1  0  0  0  0
 14  9  1  0  0  0  0
 15 19  1  0  0  0  0
 16 20  1  6  0  0  0
 16 28  1  0  0  0  0
 17  5  1  0  0  0  0
 17  3  2  0  0  0  0
 22  4  1  0  0  0  0
 22 21  1  0  0  0  0
 23  6  1  0  0  0  0
 23 15  1  0  0  0  0
 24  5  1  0  0  0  0
 25 19  1  6  0  0  0
 25 17  1  0  0  0  0
 26 24  2  0  0  0  0
 26 13  1  0  0  0  0
 28 10  1  0  0  0  0
 28 12  2  0  0  0  0
M  END
>  <MODEL>
7

>  <REMARK>
 VINA RESULT:      -0.9      5.841      9.045
  Name = 
  0 active torsions:
  status: ('A' for Active; 'I' for Inactive)
                            x       y       z     vdW  Elec       q    Type
                         _______ _______ _______ _____ _____    ______ ____

>  <TORSDO>
F 0

$$$$
