=
 OpenBabel11122414233D

 34 42  0  0  1  0  0  0  0  0999 V2000
  161.0030  207.9420  154.1150 C   0  0  0  0  0  0  0  0  0  0  0  0
  162.3470  206.1920  152.9020 C   0  0  0  0  0  2  0  0  0  0  0  0
  159.1620  213.5940  155.3660 C   0  0  2  0  0  0  0  0  0  0  0  0
  159.1860  209.4100  154.8170 C   0  0  0  0  0  0  0  0  0  0  0  0
  158.8550  211.6490  153.6920 C   0  0  1  0  0  3  0  0  0  0  0  0
  160.1330  212.4940  155.7780 C   0  0  2  0  0  3  0  0  0  0  0  0
  160.1090  213.8110  156.5260 C   0  0  0  0  0  2  0  0  0  0  0  0
  157.4390  211.9290  156.4660 C   0  0  0  0  0  2  0  0  0  0  0  0
  162.3700  208.4670  152.0280 N   0  0  2  0  0  0  0  0  0  0  0  0
  161.5080  208.4570  148.8840 C   0  0  0  0  0  2  0  0  0  0  0  0
  159.4970  210.9930  152.4740 C   0  0  0  0  0  2  0  0  0  0  0  0
  157.2030  210.8640  155.4060 C   0  0  0  0  0  2  0  0  0  0  0  0
  161.2340  209.3540  151.6740 C   0  0  1  0  0  3  0  0  0  0  0  0
  163.0990  206.1890  151.6040 C   0  0  0  0  0  2  0  0  0  0  0  0
  158.4240  210.6210  154.6440 N   0  0  0  0  0  0  0  0  0  0  0  0
  157.7100  213.2920  155.8200 C   0  0  0  0  0  2  0  0  0  0  0  0
  161.6540  207.2770  149.8620 C   0  0  1  0  0  3  0  0  0  0  0  0
  160.2620  209.1200  153.9470 C   0  0  0  0  0  0  0  0  0  0  0  0
  159.8050  212.7020  154.3040 C   0  0  2  0  0  3  0  0  0  0  0  0
  160.6770  210.1030  152.8880 C   0  0  2  0  0  3  0  0  0  0  0  0
  159.6010  207.3350  156.0060 C   0  0  0  0  0  3  0  0  0  0  0  0
  162.2410  209.7260  149.3260 C   0  0  0  0  0  2  0  0  0  0  0  0
  158.8580  208.5020  155.8350 C   0  0  0  0  0  3  0  0  0  0  0  0
  161.6350  210.3600  150.5790 C   0  0  0  0  0  2  0  0  0  0  0  0
  162.7300  207.5040  150.9550 C   0  0  1  0  0  3  0  0  0  0  0  0
  160.6740  207.0640  155.1590 C   0  0  0  0  0  3  0  0  0  0  0  0
  162.2190  207.6610  153.2630 C   0  0  1  0  0  3  0  0  0  0  0  0
  160.4130  206.9690  150.4280 O   0  0  0  0  0  0  0  0  0  0  0  0
  159.9700  205.8220  149.7640 C   0  0  0  0  0  2  0  0  0  0  0  0
  160.6220  202.6310  148.7500 C   0  0  0  0  0  2  0  0  0  0  0  0
  160.5580  203.7220  150.8770 N   0  0  0  0  0  2  0  0  0  0  0  0
  161.0000  204.7060  149.8910 C   0  0  1  0  0  3  0  0  0  0  0  0
  160.6710  202.4160  150.2410 C   0  0  0  0  0  2  0  0  0  0  0  0
  161.2060  204.0030  148.5610 C   0  0  0  0  0  2  0  0  0  0  0  0
  1 26  1  0  0  0  0
  2 27  1  0  0  0  0
  3  6  1  0  0  0  0
  3 16  1  1  0  0  0
  3  7  1  0  0  0  0
  4 23  2  0  0  0  0
  5 11  1  6  0  0  0
  5 19  1  0  0  0  0
  5 15  1  0  0  0  0
  6  7  1  6  0  0  0
  9 27  1  0  0  0  0
 10 22  1  0  0  0  0
 10 17  1  0  0  0  0
 11 20  1  0  0  0  0
 12  8  1  0  0  0  0
 13  9  1  0  0  0  0
 13 20  1  0  0  0  0
 14  2  1  0  0  0  0
 15  4  1  0  0  0  0
 15 12  1  0  0  0  0
 16  8  1  0  0  0  0
 17 28  1  0  0  0  0
 17 25  1  0  0  0  0
 18  1  2  0  0  0  0
 18  4  1  0  0  0  0
 19  3  1  0  0  0  0
 19  6  1  0  0  0  0
 20 18  1  0  0  0  0
 22 24  1  0  0  0  0
 23 21  1  0  0  0  0
 24 13  1  0  0  0  0
 25 14  1  0  0  0  0
 25  9  1  0  0  0  0
 26 21  2  0  0  0  0
 27  1  1  0  0  0  0
 29 32  1  0  0  0  0
 29 28  1  0  0  0  0
 30 33  1  0  0  0  0
 32 31  1  0  0  0  0
 33 31  1  0  0  0  0
 34 30  1  0  0  0  0
 34 32  1  0  0  0  0
M  END
>  <MODEL>
1

>  <REMARK>
 VINA RESULT:      -5.4      0.000      0.000
  Name = 
  3 active torsions:
  status: ('A' for Active; 'I' for Inactive)
    1  A    between atoms: C_17  and  O_28
    2  A    between atoms: O_28  and  C_29
    3  A    between atoms: C_29  and  C_32
                            x       y       z     vdW  Elec       q    Type
                         _______ _______ _______ _____ _____    ______ ____

>  <TORSDO>
F 3

$$$$
=
 OpenBabel11122414233D

 34 42  0  0  1  0  0  0  0  0999 V2000
  161.1240  211.2910  151.1580 C   0  0  0  0  0  0  0  0  0  0  0  0
  160.7950  213.1440  149.4860 C   0  0  0  0  0  2  0  0  0  0  0  0
  160.9290  208.7390  156.6670 C   0  0  2  0  0  0  0  0  0  0  0  0
  160.8110  209.2670  152.4820 C   0  0  0  0  0  0  0  0  0  0  0  0
  159.4690  209.3440  154.6230 C   0  0  1  0  0  3  0  0  0  0  0  0
  161.8240  209.4850  155.6840 C   0  0  2  0  0  3  0  0  0  0  0  0
  162.3670  209.0430  157.0280 C   0  0  0  0  0  2  0  0  0  0  0  0
  161.2820  206.8110  154.9040 C   0  0  0  0  0  2  0  0  0  0  0  0
  159.8320  213.4200  151.7070 N   0  0  2  0  0  0  0  0  0  0  0  0
  156.6480  214.0750  151.4620 C   0  0  0  0  0  2  0  0  0  0  0  0
  158.7270  210.5060  153.9710 C   0  0  0  0  0  2  0  0  0  0  0  0
  160.3250  207.1470  153.7710 C   0  0  0  0  0  2  0  0  0  0  0  0
  158.9330  212.5150  152.4650 C   0  0  1  0  0  3  0  0  0  0  0  0
  159.9760  214.4000  149.4890 C   0  0  0  0  0  2  0  0  0  0  0  0
  160.2120  208.5920  153.6060 N   0  0  0  0  0  0  0  0  0  0  0  0
  160.7110  207.2610  156.2530 C   0  0  0  0  0  2  0  0  0  0  0  0
  157.6850  213.8370  150.3500 C   0  0  1  0  0  3  0  0  0  0  0  0
  160.5420  210.6360  152.2530 C   0  0  0  0  0  0  0  0  0  0  0  0
  160.3480  209.8470  155.7890 C   0  0  2  0  0  3  0  0  0  0  0  0
  159.7000  211.4240  153.2160 C   0  0  2  0  0  3  0  0  0  0  0  0
  162.2340  209.2260  150.5170 C   0  0  0  0  0  3  0  0  0  0  0  0
  157.2600  214.4490  152.8140 C   0  0  0  0  0  2  0  0  0  0  0  0
  161.6480  208.5700  151.5990 C   0  0  0  0  0  3  0  0  0  0  0  0
  158.0500  213.3050  153.4490 C   0  0  0  0  0  2  0  0  0  0  0  0
  159.1200  214.2850  150.7300 C   0  0  1  0  0  3  0  0  0  0  0  0
  161.9830  210.5800  150.3060 C   0  0  0  0  0  3  0  0  0  0  0  0
  160.9330  212.7760  150.9510 C   0  0  1  0  0  3  0  0  0  0  0  0
  157.6610  212.4940  149.9550 O   0  0  0  0  0  0  0  0  0  0  0  0
  156.9330  212.4660  148.7620 C   0  0  0  0  0  2  0  0  0  0  0  0
  156.6290  213.5570  145.5450 C   0  0  0  0  0  2  0  0  0  0  0  0
  158.4790  212.9130  146.9170 N   0  0  0  0  0  2  0  0  0  0  0  0
  157.4700  213.5090  147.7900 C   0  0  1  0  0  3  0  0  0  0  0  0
  158.1080  213.2630  145.5530 C   0  0  0  0  0  2  0  0  0  0  0  0
  156.3540  214.0740  146.9290 C   0  0  0  0  0  2  0  0  0  0  0  0
  1 18  1  0  0  0  0
  2 14  1  0  0  0  0
  2 27  1  0  0  0  0
  3 16  1  6  0  0  0
  3  7  1  0  0  0  0
  4 15  1  0  0  0  0
  5 11  1  6  0  0  0
  5 19  1  0  0  0  0
  6 19  1  0  0  0  0
  6  3  1  0  0  0  0
  6  7  1  1  0  0  0
  8 16  1  0  0  0  0
  9 13  1  0  0  0  0
 10 22  1  0  0  0  0
 12  8  1  0  0  0  0
 13 20  1  0  0  0  0
 13 24  1  0  0  0  0
 14 25  1  0  0  0  0
 15 12  1  0  0  0  0
 15  5  1  0  0  0  0
 17 25  1  0  0  0  0
 17 10  1  0  0  0  0
 18  4  2  0  0  0  0
 18 20  1  0  0  0  0
 19  3  1  0  0  0  0
 20 11  1  0  0  0  0
 21 23  2  0  0  0  0
 22 24  1  0  0  0  0
 23  4  1  0  0  0  0
 25  9  1  0  0  0  0
 26 21  1  0  0  0  0
 26  1  2  0  0  0  0
 27  1  1  0  0  0  0
 27  9  1  0  0  0  0
 28 17  1  0  0  0  0
 29 28  1  0  0  0  0
 30 33  1  0  0  0  0
 30 34  1  0  0  0  0
 31 32  1  0  0  0  0
 32 29  1  0  0  0  0
 33 31  1  0  0  0  0
 34 32  1  0  0  0  0
M  END
>  <MODEL>
2

>  <REMARK>
 VINA RESULT:      -3.1      3.702      6.766
  Name = 
  3 active torsions:
  status: ('A' for Active; 'I' for Inactive)
    1  A    between atoms: C_17  and  O_28
    2  A    between atoms: O_28  and  C_29
    3  A    between atoms: C_29  and  C_32
                            x       y       z     vdW  Elec       q    Type
                         _______ _______ _______ _____ _____    ______ ____

>  <TORSDO>
F 3

$$$$
