=
 OpenBabel11122414183D

 34 41  0  0  1  0  0  0  0  0999 V2000
  161.8550  209.3910  151.3020 C   0  0  0  0  0  0  0  0  0  0  0  0
  161.7110  211.0860  153.1880 C   0  0  0  0  0  2  0  0  0  0  0  0
  161.1830  203.3480  148.9850 C   0  0  0  0  0  0  0  0  0  0  0  0
  161.5210  207.7320  149.5880 C   0  0  0  0  0  0  0  0  0  0  0  0
  160.7800  205.4770  150.1560 C   0  0  0  0  0  0  0  0  0  0  0  0
  160.2810  203.1500  150.9650 C   0  0  0  0  0  2  0  0  0  0  0  0
  161.1740  202.3280  150.0970 C   0  0  0  0  0  2  0  0  0  0  0  0
  161.5350  204.8470  147.1330 C   0  0  0  0  0  3  0  0  0  0  0  0
  161.8400  208.7360  153.7410 C   0  0  2  0  0  3  0  0  0  0  0  0
  159.6010  207.8870  155.9170 C   0  0  0  0  0  3  0  0  0  0  0  0
  160.7590  205.8900  151.5020 O   0  0  0  0  0  0  0  0  0  0  0  0
  161.2820  206.0230  147.7310 C   0  0  0  0  0  3  0  0  0  0  0  0
  160.9940  207.5240  153.3020 C   0  0  1  0  0  3  0  0  0  0  0  0
  161.6160  210.9480  154.6990 C   0  0  0  0  0  2  0  0  0  0  0  0
  161.2010  206.3400  149.1900 C   0  0  0  0  0  0  0  0  0  0  0  0
  161.7560  203.5670  147.8180 C   0  0  0  0  0  3  0  0  0  0  0  0
  159.8500  209.2220  155.2630 C   0  0  2  0  0  3  0  0  0  0  0  0
  161.6230  208.0610  150.9410 C   0  0  0  0  0  0  0  0  0  0  0  0
  160.2150  204.1230  149.8320 C   0  0  2  0  0  3  0  0  0  0  0  0
  161.5480  206.9790  151.9810 C   0  0  2  0  0  3  0  0  0  0  0  0
  161.8960  210.0040  149.0200 C   0  0  0  0  0  3  0  0  0  0  0  0
  160.0880  206.7000  155.5140 C   0  0  0  0  0  3  0  0  0  0  0  0
  161.6660  208.7140  148.6540 N   0  0  0  0  0  0  0  0  0  0  0  0
  161.0560  206.4590  154.3850 C   0  0  0  0  0  2  0  0  0  0  0  0
  161.3460  209.4690  154.9960 C   0  0  1  0  0  3  0  0  0  0  0  0
  161.9800  210.3390  150.3360 N   0  0  0  0  0  0  0  0  0  0  0  0
  161.8930  209.7400  152.6910 N   0  0  0  0  0  0  0  0  0  0  0  0
  159.3140  210.2260  156.0770 O   0  0  0  0  0  0  0  0  0  0  0  0
  158.1460  210.6320  155.4240 C   0  0  0  0  0  2  0  0  0  0  0  0
  156.9520  213.2720  153.5570 C   0  0  0  0  0  2  0  0  0  0  0  0
  156.8010  212.7030  155.7060 C   0  0  0  0  0  2  0  0  0  0  0  0
  158.1360  212.1420  155.2730 C   0  0  2  0  0  3  0  0  0  0  0  0
  156.4190  213.6900  154.7840 O   0  0  0  0  0  0  0  0  0  0  0  0
  158.2300  212.5110  153.8240 C   0  0  0  0  0  2  0  0  0  0  0  0
  1 27  1  0  0  0  0
  2 14  1  0  0  0  0
  3 19  1  0  0  0  0
  3  7  1  0  0  0  0
  4 18  2  0  0  0  0
  5 11  1  0  0  0  0
  7  6  1  0  0  0  0
  8 12  2  0  0  0  0
  8 16  1  0  0  0  0
  9 27  1  6  0  0  0
  9 25  1  0  0  0  0
 11 20  1  0  0  0  0
 12 15  1  0  0  0  0
 13  9  1  0  0  0  0
 13 24  1  1  0  0  0
 15  4  1  0  0  0  0
 15  5  2  0  0  0  0
 16  3  2  0  0  0  0
 17 10  1  0  0  0  0
 17 28  1  1  0  0  0
 18  1  1  0  0  0  0
 19  5  1  0  0  0  0
 19  6  1  1  0  0  0
 20 18  1  6  0  0  0
 20 13  1  0  0  0  0
 21 26  1  0  0  0  0
 22 10  2  0  0  0  0
 23 21  2  0  0  0  0
 23  4  1  0  0  0  0
 24 22  1  0  0  0  0
 25 14  1  6  0  0  0
 25 17  1  0  0  0  0
 26  1  2  0  0  0  0
 27  2  1  0  0  0  0
 29 28  1  0  0  0  0
 30 34  1  0  0  0  0
 30 33  1  0  0  0  0
 32 29  1  6  0  0  0
 32 31  1  0  0  0  0
 33 31  1  0  0  0  0
 34 32  1  0  0  0  0
M  END
>  <MODEL>
1

>  <REMARK>
 VINA RESULT:      -9.3      0.000      0.000
  Name = 
  3 active torsions:
  status: ('A' for Active; 'I' for Inactive)
    1  A    between atoms: C_17  and  O_28
    2  A    between atoms: O_28  and  C_29
    3  A    between atoms: C_29  and  C_32
                            x       y       z     vdW  Elec       q    Type
                         _______ _______ _______ _____ _____    ______ ____

>  <TORSDO>
F 3

$$$$
=
 OpenBabel11122414183D

 34 41  0  0  1  0  0  0  0  0999 V2000
  161.9030  208.1000  149.9340 C   0  0  0  0  0  0  0  0  0  0  0  0
  161.9130  210.1360  151.4530 C   0  0  0  0  0  2  0  0  0  0  0  0
  161.0720  201.7260  148.9250 C   0  0  0  0  0  0  0  0  0  0  0  0
  161.4330  206.1390  148.6170 C   0  0  0  0  0  0  0  0  0  0  0  0
  160.7580  204.0480  149.6830 C   0  0  0  0  0  0  0  0  0  0  0  0
  160.3480  201.9330  150.9760 C   0  0  0  0  0  2  0  0  0  0  0  0
  161.1660  200.9460  150.2140 C   0  0  0  0  0  2  0  0  0  0  0  0
  161.2510  202.8250  146.7900 C   0  0  0  0  0  3  0  0  0  0  0  0
  162.1060  207.9400  152.4460 C   0  0  2  0  0  3  0  0  0  0  0  0
  160.0700  207.5610  154.9330 C   0  0  0  0  0  3  0  0  0  0  0  0
  160.8520  204.7190  150.9170 O   0  0  0  0  0  0  0  0  0  0  0  0
  161.0440  204.0990  147.1630 C   0  0  0  0  0  3  0  0  0  0  0  0
  161.2330  206.6750  152.3310 C   0  0  1  0  0  3  0  0  0  0  0  0
  161.9510  210.3000  152.9640 C   0  0  0  0  0  2  0  0  0  0  0  0
  161.0880  204.6980  148.5320 C   0  0  0  0  0  0  0  0  0  0  0  0
  161.5390  201.7030  147.6930 C   0  0  0  0  0  3  0  0  0  0  0  0
  160.2530  208.7380  154.0090 C   0  0  2  0  0  3  0  0  0  0  0  0
  161.6500  206.7270  149.8640 C   0  0  0  0  0  0  0  0  0  0  0  0
  160.1770  202.6630  149.6830 C   0  0  2  0  0  3  0  0  0  0  0  0
  161.6730  205.8730  151.1000 C   0  0  2  0  0  3  0  0  0  0  0  0
  161.7410  208.2490  147.5810 C   0  0  0  0  0  3  0  0  0  0  0  0
  160.5280  206.3130  154.7320 C   0  0  0  0  0  3  0  0  0  0  0  0
  161.4890  206.9140  147.4980 N   0  0  0  0  0  0  0  0  0  0  0  0
  161.3960  205.8430  153.5930 C   0  0  0  0  0  2  0  0  0  0  0  0
  161.7180  208.9120  153.5690 C   0  0  1  0  0  3  0  0  0  0  0  0
  161.9380  208.8360  148.7920 N   0  0  0  0  0  0  0  0  0  0  0  0
  162.0610  208.7160  151.2180 N   0  0  0  0  0  0  0  0  0  0  0  0
  159.7830  209.8890  154.6520 O   0  0  0  0  0  0  0  0  0  0  0  0
  160.0470  209.6750  156.0080 C   0  0  0  0  0  2  0  0  0  0  0  0
  159.8300  213.1150  156.0530 C   0  0  0  0  0  2  0  0  0  0  0  0
  158.3410  211.4690  156.2370 C   0  0  0  0  0  2  0  0  0  0  0  0
  159.6070  210.8810  156.8170 C   0  0  2  0  0  3  0  0  0  0  0  0
  158.4630  212.8660  156.2390 O   0  0  0  0  0  0  0  0  0  0  0  0
  160.6120  211.9830  156.6790 C   0  0  0  0  0  2  0  0  0  0  0  0
  1 27  1  0  0  0  0
  2 14  1  0  0  0  0
  3 19  1  0  0  0  0
  3  7  1  0  0  0  0
  4 18  2  0  0  0  0
  5 11  1  0  0  0  0
  7  6  1  0  0  0  0
  8 12  2  0  0  0  0
  8 16  1  0  0  0  0
  9 27  1  6  0  0  0
  9 25  1  0  0  0  0
 11 20  1  0  0  0  0
 12 15  1  0  0  0  0
 13  9  1  0  0  0  0
 13 24  1  1  0  0  0
 15  4  1  0  0  0  0
 15  5  2  0  0  0  0
 16  3  2  0  0  0  0
 17 28  1  1  0  0  0
 17 10  1  0  0  0  0
 18  1  1  0  0  0  0
 19  5  1  0  0  0  0
 19  6  1  1  0  0  0
 20 18  1  6  0  0  0
 20 13  1  0  0  0  0
 21 26  1  0  0  0  0
 22 10  2  0  0  0  0
 23 21  2  0  0  0  0
 23  4  1  0  0  0  0
 24 22  1  0  0  0  0
 25 14  1  6  0  0  0
 25 17  1  0  0  0  0
 26  1  2  0  0  0  0
 27  2  1  0  0  0  0
 28 29  1  0  0  0  0
 30 33  1  0  0  0  0
 30 34  1  0  0  0  0
 31 33  1  0  0  0  0
 31 32  1  0  0  0  0
 32 29  1  6  0  0  0
 34 32  1  0  0  0  0
M  END
>  <MODEL>
2

>  <REMARK>
 VINA RESULT:      -8.6      1.459      1.952
  Name = 
  3 active torsions:
  status: ('A' for Active; 'I' for Inactive)
    1  A    between atoms: C_17  and  O_28
    2  A    between atoms: O_28  and  C_29
    3  A    between atoms: C_29  and  C_32
                            x       y       z     vdW  Elec       q    Type
                         _______ _______ _______ _____ _____    ______ ____

>  <TORSDO>
F 3

$$$$
=
 OpenBabel11122414183D

 34 41  0  0  1  0  0  0  0  0999 V2000
  160.8530  207.7080  154.1220 C   0  0  0  0  0  0  0  0  0  0  0  0
  161.7280  205.5000  153.2200 C   0  0  0  0  0  2  0  0  0  0  0  0
  158.9740  213.8810  153.2840 C   0  0  0  0  0  0  0  0  0  0  0  0
  159.6580  209.7230  154.6780 C   0  0  0  0  0  0  0  0  0  0  0  0
  159.2690  211.4520  152.9990 C   0  0  0  0  0  0  0  0  0  0  0  0
  159.2100  213.2210  151.2150 C   0  0  0  0  0  2  0  0  0  0  0  0
  159.5170  214.4530  151.9970 C   0  0  0  0  0  2  0  0  0  0  0  0
  158.3570  213.1840  155.5050 C   0  0  0  0  0  3  0  0  0  0  0  0
  162.0770  207.5100  151.9210 C   0  0  2  0  0  3  0  0  0  0  0  0
  161.2530  207.0960  148.8200 C   0  0  0  0  0  3  0  0  0  0  0  0
  159.9480  210.6280  152.0830 O   0  0  0  0  0  0  0  0  0  0  0  0
  158.4690  211.8510  155.3730 C   0  0  0  0  0  3  0  0  0  0  0  0
  161.1040  208.5860  151.4020 C   0  0  1  0  0  3  0  0  0  0  0  0
  162.4180  205.1120  151.9220 C   0  0  0  0  0  2  0  0  0  0  0  0
  159.1520  211.0660  154.3000 C   0  0  0  0  0  0  0  0  0  0  0  0
  158.8730  214.1850  154.5620 C   0  0  0  0  0  3  0  0  0  0  0  0
  161.1570  206.1350  149.9780 C   0  0  2  0  0  3  0  0  0  0  0  0
  160.4440  209.0000  153.7800 C   0  0  0  0  0  0  0  0  0  0  0  0
  158.5920  212.6820  152.4650 C   0  0  2  0  0  3  0  0  0  0  0  0
  160.8920  209.6390  152.4960 C   0  0  2  0  0  3  0  0  0  0  0  0
  159.7320  207.9000  156.1930 C   0  0  0  0  0  3  0  0  0  0  0  0
  161.4420  208.4250  148.9020 C   0  0  0  0  0  3  0  0  0  0  0  0
  159.3220  209.1570  155.8720 N   0  0  0  0  0  0  0  0  0  0  0  0
  161.6910  209.2250  150.1540 C   0  0  0  0  0  2  0  0  0  0  0  0
  162.3100  206.3180  150.9820 C   0  0  1  0  0  3  0  0  0  0  0  0
  160.4840  207.1790  155.3180 N   0  0  0  0  0  0  0  0  0  0  0  0
  161.6050  206.9410  153.1730 N   0  0  0  0  0  0  0  0  0  0  0  0
  161.1340  204.8300  149.4750 O   0  0  0  0  0  0  0  0  0  0  0  0
  161.1460  204.9810  148.0850 C   0  0  0  0  0  2  0  0  0  0  0  0
  160.6560  201.8130  146.8160 C   0  0  0  0  0  2  0  0  0  0  0  0
  161.4660  203.7090  145.9730 C   0  0  0  0  0  2  0  0  0  0  0  0
  161.8190  203.7830  147.4410 C   0  0  2  0  0  3  0  0  0  0  0  0
  161.2010  202.3700  145.6500 O   0  0  0  0  0  0  0  0  0  0  0  0
  161.2610  202.5150  148.0100 C   0  0  0  0  0  2  0  0  0  0  0  0
  1 26  1  0  0  0  0
  3 16  2  0  0  0  0
  4 23  2  0  0  0  0
  5 15  2  0  0  0  0
  6  7  1  0  0  0  0
  7  3  1  0  0  0  0
  9 27  1  1  0  0  0
 10 22  2  0  0  0  0
 10 17  1  0  0  0  0
 11  5  1  0  0  0  0
 12  8  2  0  0  0  0
 13 24  1  6  0  0  0
 13  9  1  0  0  0  0
 13 20  1  0  0  0  0
 14  2  1  0  0  0  0
 15  4  1  0  0  0  0
 15 12  1  0  0  0  0
 16  8  1  0  0  0  0
 17 28  1  6  0  0  0
 17 25  1  0  0  0  0
 18  1  2  0  0  0  0
 18  4  1  0  0  0  0
 19  6  1  6  0  0  0
 19  5  1  0  0  0  0
 19  3  1  0  0  0  0
 20 11  1  6  0  0  0
 20 18  1  0  0  0  0
 22 24  1  0  0  0  0
 23 21  1  0  0  0  0
 25  9  1  0  0  0  0
 25 14  1  1  0  0  0
 26 21  2  0  0  0  0
 27  2  1  0  0  0  0
 27  1  1  0  0  0  0
 29 28  1  0  0  0  0
 30 34  1  0  0  0  0
 31 32  1  0  0  0  0
 32 34  1  0  0  0  0
 32 29  1  1  0  0  0
 33 31  1  0  0  0  0
 33 30  1  0  0  0  0
M  END
>  <MODEL>
3

>  <REMARK>
 VINA RESULT:      -8.5      2.250      8.740
  Name = 
  3 active torsions:
  status: ('A' for Active; 'I' for Inactive)
    1  A    between atoms: C_17  and  O_28
    2  A    between atoms: O_28  and  C_29
    3  A    between atoms: C_29  and  C_32
                            x       y       z     vdW  Elec       q    Type
                         _______ _______ _______ _____ _____    ______ ____

>  <TORSDO>
F 3

$$$$
=
 OpenBabel11122414183D

 34 41  0  0  1  0  0  0  0  0999 V2000
  161.8580  207.1790  148.1670 C   0  0  0  0  0  0  0  0  0  0  0  0
  161.9700  209.5720  149.0110 C   0  0  0  0  0  2  0  0  0  0  0  0
  161.1290  200.7910  149.1720 C   0  0  0  0  0  0  0  0  0  0  0  0
  161.3080  204.9170  147.5460 C   0  0  0  0  0  0  0  0  0  0  0  0
  160.8250  203.2350  149.2480 C   0  0  0  0  0  0  0  0  0  0  0  0
  160.6310  201.5950  151.1430 C   0  0  0  0  0  2  0  0  0  0  0  0
  161.3910  200.4260  150.6130 C   0  0  0  0  0  2  0  0  0  0  0  0
  161.0330  201.2120  146.8040 C   0  0  0  0  0  3  0  0  0  0  0  0
  162.3440  207.7650  150.5750 C   0  0  2  0  0  3  0  0  0  0  0  0
  160.6110  208.1400  153.2820 C   0  0  0  0  0  3  0  0  0  0  0  0
  161.0340  204.2390  150.2120 O   0  0  0  0  0  0  0  0  0  0  0  0
  160.8270  202.5400  146.8090 C   0  0  0  0  0  3  0  0  0  0  0  0
  161.5060  206.5240  150.9370 C   0  0  1  0  0  3  0  0  0  0  0  0
  162.1710  210.1740  150.3930 C   0  0  0  0  0  2  0  0  0  0  0  0
  161.0040  203.5160  147.9270 C   0  0  0  0  0  0  0  0  0  0  0  0
  161.4560  200.4060  147.9560 C   0  0  0  0  0  3  0  0  0  0  0  0
  160.6510  208.9920  152.0390 C   0  0  2  0  0  3  0  0  0  0  0  0
  161.6440  205.8460  148.5320 C   0  0  0  0  0  0  0  0  0  0  0  0
  160.2930  201.9120  149.7210 C   0  0  2  0  0  3  0  0  0  0  0  0
  161.8320  205.3940  149.9530 C   0  0  2  0  0  3  0  0  0  0  0  0
  161.4300  206.6280  145.9090 C   0  0  0  0  0  3  0  0  0  0  0  0
  161.0850  206.8870  153.4030 C   0  0  0  0  0  3  0  0  0  0  0  0
  161.2140  205.3290  146.2510 N   0  0  0  0  0  0  0  0  0  0  0  0
  161.8360  206.1010  152.3600 C   0  0  0  0  0  2  0  0  0  0  0  0
  162.0520  209.0260  151.4010 C   0  0  1  0  0  3  0  0  0  0  0  0
  161.7410  207.5460  146.8640 N   0  0  0  0  0  0  0  0  0  0  0  0
  162.1370  208.1460  149.1870 N   0  0  0  0  0  0  0  0  0  0  0  0
  160.2190  210.2820  152.3660 O   0  0  0  0  0  0  0  0  0  0  0  0
  160.9210  210.6100  153.5300 C   0  0  0  0  0  2  0  0  0  0  0  0
  158.4270  211.5300  155.7250 C   0  0  0  0  0  2  0  0  0  0  0  0
  160.6360  211.8120  155.6880 C   0  0  0  0  0  2  0  0  0  0  0  0
  160.2490  211.7790  154.2270 C   0  0  2  0  0  3  0  0  0  0  0  0
  159.4890  212.0990  156.4420 O   0  0  0  0  0  0  0  0  0  0  0  0
  158.7650  211.5740  154.2530 C   0  0  0  0  0  2  0  0  0  0  0  0
  1 18  1  0  0  0  0
  1 27  1  0  0  0  0
  2 27  1  0  0  0  0
  2 14  1  0  0  0  0
  3 19  1  0  0  0  0
  3  7  1  0  0  0  0
  4 15  1  0  0  0  0
  4 18  2  0  0  0  0
  5 19  1  0  0  0  0
  5 11  1  0  0  0  0
  7  6  1  0  0  0  0
  8 12  2  0  0  0  0
  8 16  1  0  0  0  0
  9 27  1  6  0  0  0
  9 13  1  0  0  0  0
  9 25  1  0  0  0  0
 10 22  2  0  0  0  0
 12 15  1  0  0  0  0
 13 24  1  1  0  0  0
 15  5  2  0  0  0  0
 16  3  2  0  0  0  0
 17 28  1  1  0  0  0
 17 10  1  0  0  0  0
 19  6  1  1  0  0  0
 20 18  1  6  0  0  0
 20 11  1  0  0  0  0
 20 13  1  0  0  0  0
 21 23  2  0  0  0  0
 21 26  1  0  0  0  0
 23  4  1  0  0  0  0
 24 22  1  0  0  0  0
 25 14  1  6  0  0  0
 25 17  1  0  0  0  0
 26  1  2  0  0  0  0
 28 29  1  0  0  0  0
 30 33  1  0  0  0  0
 31 33  1  0  0  0  0
 32 29  1  6  0  0  0
 32 34  1  0  0  0  0
 32 31  1  0  0  0  0
 34 30  1  0  0  0  0
M  END
>  <MODEL>
4

>  <REMARK>
 VINA RESULT:      -8.4      1.720      3.281
  Name = 
  3 active torsions:
  status: ('A' for Active; 'I' for Inactive)
    1  A    between atoms: C_17  and  O_28
    2  A    between atoms: O_28  and  C_29
    3  A    between atoms: C_29  and  C_32
                            x       y       z     vdW  Elec       q    Type
                         _______ _______ _______ _____ _____    ______ ____

>  <TORSDO>
F 3

$$$$
=
 OpenBabel11122414183D

 34 41  0  0  1  0  0  0  0  0999 V2000
  160.7710  204.7960  151.6750 C   0  0  0  0  0  0  0  0  0  0  0  0
  160.8320  206.3410  153.6910 C   0  0  0  0  0  2  0  0  0  0  0  0
  161.2270  203.7350  145.2720 C   0  0  0  0  0  0  0  0  0  0  0  0
  161.1660  203.4730  149.7020 C   0  0  0  0  0  0  0  0  0  0  0  0
  161.6590  204.5360  147.5600 C   0  0  0  0  0  0  0  0  0  0  0  0
  161.8790  205.8160  145.4080 C   0  0  0  0  0  2  0  0  0  0  0  0
  161.0290  205.0080  144.4860 C   0  0  0  0  0  2  0  0  0  0  0  0
  161.2070  201.6100  146.4030 C   0  0  0  0  0  3  0  0  0  0  0  0
  160.4560  207.2960  151.5010 C   0  0  2  0  0  3  0  0  0  0  0  0
  162.3600  209.8570  150.9630 C   0  0  0  0  0  3  0  0  0  0  0  0
  161.5590  205.7740  148.2220 O   0  0  0  0  0  0  0  0  0  0  0  0
  161.4810  202.0080  147.6570 C   0  0  0  0  0  3  0  0  0  0  0  0
  161.2490  207.1990  150.1830 C   0  0  1  0  0  3  0  0  0  0  0  0
  160.7430  207.8520  153.8410 C   0  0  0  0  0  2  0  0  0  0  0  0
  161.4200  203.3820  148.2430 C   0  0  0  0  0  0  0  0  0  0  0  0
  160.8090  202.4850  145.2930 C   0  0  0  0  0  3  0  0  0  0  0  0
  162.2920  208.9420  152.1590 C   0  0  2  0  0  3  0  0  0  0  0  0
  160.9370  204.7180  150.2890 C   0  0  0  0  0  0  0  0  0  0  0  0
  162.1490  204.5410  146.1400 C   0  0  2  0  0  3  0  0  0  0  0  0
  160.8080  205.9410  149.4250 C   0  0  2  0  0  3  0  0  0  0  0  0
  161.0380  202.4540  151.8390 C   0  0  0  0  0  3  0  0  0  0  0  0
  161.8300  209.6210  149.7500 C   0  0  0  0  0  3  0  0  0  0  0  0
  161.2060  202.3640  150.4920 N   0  0  0  0  0  0  0  0  0  0  0  0
  160.9800  208.4420  149.3500 C   0  0  0  0  0  2  0  0  0  0  0  0
  160.8600  208.4470  152.4330 C   0  0  1  0  0  3  0  0  0  0  0  0
  160.8310  203.6650  152.4250 N   0  0  0  0  0  0  0  0  0  0  0  0
  160.6020  206.0810  152.2860 N   0  0  0  0  0  0  0  0  0  0  0  0
  162.8080  209.6190  153.2700 O   0  0  0  0  0  0  0  0  0  0  0  0
  161.9060  210.6600  153.5070 C   0  0  0  0  0  2  0  0  0  0  0  0
  160.3080  210.4760  156.5560 C   0  0  0  0  0  2  0  0  0  0  0  0
  162.3310  209.8890  155.8320 C   0  0  0  0  0  2  0  0  0  0  0  0
  161.9640  211.0730  154.9660 C   0  0  2  0  0  3  0  0  0  0  0  0
  161.5200  209.9120  156.9770 O   0  0  0  0  0  0  0  0  0  0  0  0
  160.5960  211.4570  155.4430 C   0  0  0  0  0  2  0  0  0  0  0  0
  1 27  1  0  0  0  0
  1 26  1  0  0  0  0
  2 14  1  0  0  0  0
  3 16  2  0  0  0  0
  3 19  1  0  0  0  0
  4 18  1  0  0  0  0
  4 23  2  0  0  0  0
  5 11  1  0  0  0  0
  5 15  2  0  0  0  0
  7  3  1  0  0  0  0
  7  6  1  0  0  0  0
  8 12  2  0  0  0  0
  9 27  1  1  0  0  0
  9 25  1  0  0  0  0
 10 17  1  0  0  0  0
 12 15  1  0  0  0  0
 13 24  1  6  0  0  0
 13  9  1  0  0  0  0
 15  4  1  0  0  0  0
 16  8  1  0  0  0  0
 17 25  1  0  0  0  0
 17 28  1  1  0  0  0
 18  1  2  0  0  0  0
 19  6  1  6  0  0  0
 19  5  1  0  0  0  0
 20 11  1  6  0  0  0
 20 13  1  0  0  0  0
 20 18  1  0  0  0  0
 21 26  2  0  0  0  0
 22 10  2  0  0  0  0
 23 21  1  0  0  0  0
 24 22  1  0  0  0  0
 25 14  1  1  0  0  0
 27  2  1  0  0  0  0
 28 29  1  0  0  0  0
 30 33  1  0  0  0  0
 31 33  1  0  0  0  0
 32 29  1  6  0  0  0
 32 34  1  0  0  0  0
 32 31  1  0  0  0  0
 34 30  1  0  0  0  0
M  END
>  <MODEL>
5

>  <REMARK>
 VINA RESULT:      -7.8      2.502      4.772
  Name = 
  3 active torsions:
  status: ('A' for Active; 'I' for Inactive)
    1  A    between atoms: C_17  and  O_28
    2  A    between atoms: O_28  and  C_29
    3  A    between atoms: C_29  and  C_32
                            x       y       z     vdW  Elec       q    Type
                         _______ _______ _______ _____ _____    ______ ____

>  <TORSDO>
F 3

$$$$
=
 OpenBabel11122414183D

 34 41  0  0  1  0  0  0  0  0999 V2000
  160.8900  207.4170  154.1350 C   0  0  0  0  0  0  0  0  0  0  0  0
  161.8350  205.3740  152.9590 C   0  0  0  0  0  2  0  0  0  0  0  0
  158.8620  213.6000  154.1070 C   0  0  0  0  0  0  0  0  0  0  0  0
  159.6330  209.3090  154.9370 C   0  0  0  0  0  0  0  0  0  0  0  0
  159.2240  211.2400  153.5010 C   0  0  0  0  0  0  0  0  0  0  0  0
  159.1460  213.2330  151.9710 C   0  0  0  0  0  2  0  0  0  0  0  0
  159.4080  214.3540  152.9190 C   0  0  0  0  0  2  0  0  0  0  0  0
  158.2300  212.5930  156.2010 C   0  0  0  0  0  3  0  0  0  0  0  0
  162.1510  207.5490  151.9500 C   0  0  2  0  0  3  0  0  0  0  0  0
  161.3830  207.5400  148.8070 C   0  0  0  0  0  3  0  0  0  0  0  0
  159.9380  210.5640  152.4940 O   0  0  0  0  0  0  0  0  0  0  0  0
  158.3790  211.2940  155.8920 C   0  0  0  0  0  3  0  0  0  0  0  0
  161.1570  208.6620  151.5640 C   0  0  1  0  0  3  0  0  0  0  0  0
  162.5540  205.1820  151.6320 C   0  0  0  0  0  2  0  0  0  0  0  0
  159.0990  210.6780  154.7350 C   0  0  0  0  0  0  0  0  0  0  0  0
  158.7340  213.7250  155.4120 C   0  0  0  0  0  3  0  0  0  0  0  0
  161.2960  206.4290  149.8220 C   0  0  2  0  0  3  0  0  0  0  0  0
  160.4520  208.7340  153.9640 C   0  0  0  0  0  0  0  0  0  0  0  0
  158.5230  212.5150  153.1260 C   0  0  2  0  0  3  0  0  0  0  0  0
  160.9010  209.5510  152.7860 C   0  0  2  0  0  3  0  0  0  0  0  0
  159.7330  207.2990  156.1920 C   0  0  0  0  0  3  0  0  0  0  0  0
  161.5360  208.8500  149.0710 C   0  0  0  0  0  3  0  0  0  0  0  0
  159.2960  208.5780  156.0370 N   0  0  0  0  0  0  0  0  0  0  0  0
  161.7450  209.4780  150.4250 C   0  0  0  0  0  2  0  0  0  0  0  0
  162.4280  206.5010  150.8630 C   0  0  1  0  0  3  0  0  0  0  0  0
  160.5170  206.7220  155.2410 N   0  0  0  0  0  0  0  0  0  0  0  0
  161.6750  206.8040  153.1040 N   0  0  0  0  0  0  0  0  0  0  0  0
  161.3130  205.2040  149.1470 O   0  0  0  0  0  0  0  0  0  0  0  0
  160.7710  205.4800  147.8880 C   0  0  0  0  0  2  0  0  0  0  0  0
  161.2430  203.6160  145.0270 C   0  0  0  0  0  2  0  0  0  0  0  0
  161.4070  205.7860  145.5040 C   0  0  0  0  0  2  0  0  0  0  0  0
  161.7620  205.1000  146.8040 C   0  0  2  0  0  3  0  0  0  0  0  0
  161.5570  204.8600  144.4610 O   0  0  0  0  0  0  0  0  0  0  0  0
  161.6370  203.6410  146.4860 C   0  0  0  0  0  2  0  0  0  0  0  0
  1 26  1  0  0  0  0
  2 27  1  0  0  0  0
  3 16  2  0  0  0  0
  4 23  2  0  0  0  0
  5 15  2  0  0  0  0
  6  7  1  0  0  0  0
  7  3  1  0  0  0  0
  9 27  1  1  0  0  0
 10 22  2  0  0  0  0
 10 17  1  0  0  0  0
 11  5  1  0  0  0  0
 12  8  2  0  0  0  0
 13 24  1  6  0  0  0
 13  9  1  0  0  0  0
 13 20  1  0  0  0  0
 14  2  1  0  0  0  0
 15  4  1  0  0  0  0
 15 12  1  0  0  0  0
 16  8  1  0  0  0  0
 17 28  1  6  0  0  0
 17 25  1  0  0  0  0
 18  1  2  0  0  0  0
 18  4  1  0  0  0  0
 19  6  1  6  0  0  0
 19  5  1  0  0  0  0
 19  3  1  0  0  0  0
 20 11  1  6  0  0  0
 20 18  1  0  0  0  0
 22 24  1  0  0  0  0
 23 21  1  0  0  0  0
 25 14  1  1  0  0  0
 25  9  1  0  0  0  0
 26 21  2  0  0  0  0
 27  1  1  0  0  0  0
 29 28  1  0  0  0  0
 30 34  1  0  0  0  0
 31 32  1  0  0  0  0
 32 29  1  1  0  0  0
 33 30  1  0  0  0  0
 33 31  1  0  0  0  0
 34 32  1  0  0  0  0
M  END
>  <MODEL>
6

>  <REMARK>
 VINA RESULT:      -7.4      2.243      8.681
  Name = 
  3 active torsions:
  status: ('A' for Active; 'I' for Inactive)
    1  A    between atoms: C_17  and  O_28
    2  A    between atoms: O_28  and  C_29
    3  A    between atoms: C_29  and  C_32
                            x       y       z     vdW  Elec       q    Type
                         _______ _______ _______ _____ _____    ______ ____

>  <TORSDO>
F 3

$$$$
=
 OpenBabel11122414183D

 34 41  0  0  1  0  0  0  0  0999 V2000
  161.4790  208.5940  149.4790 C   0  0  0  0  0  0  0  0  0  0  0  0
  161.5920  207.3230  147.2830 C   0  0  0  0  0  2  0  0  0  0  0  0
  160.5630  208.8080  155.9180 C   0  0  0  0  0  0  0  0  0  0  0  0
  161.7290  209.5090  151.6930 C   0  0  0  0  0  0  0  0  0  0  0  0
  161.3120  208.1370  153.6690 C   0  0  0  0  0  0  0  0  0  0  0  0
  160.5750  206.6530  155.5580 C   0  0  0  0  0  2  0  0  0  0  0  0
  159.7990  207.6020  156.4070 C   0  0  0  0  0  2  0  0  0  0  0  0
  161.4730  210.9190  155.2000 C   0  0  0  0  0  3  0  0  0  0  0  0
  160.3970  206.3380  149.1390 C   0  0  2  0  0  3  0  0  0  0  0  0
  161.2400  203.2490  149.6090 C   0  0  0  0  0  3  0  0  0  0  0  0
  161.0200  207.0750  152.7930 O   0  0  0  0  0  0  0  0  0  0  0  0
  161.9290  210.5770  153.9830 C   0  0  0  0  0  3  0  0  0  0  0  0
  160.8140  206.0350  150.5920 C   0  0  1  0  0  3  0  0  0  0  0  0
  161.0970  205.9510  146.8530 C   0  0  0  0  0  2  0  0  0  0  0  0
  161.6130  209.3660  153.1650 C   0  0  0  0  0  0  0  0  0  0  0  0
  160.5600  210.1210  156.0280 C   0  0  0  0  0  3  0  0  0  0  0  0
  161.7600  204.2470  148.6060 C   0  0  2  0  0  3  0  0  0  0  0  0
  161.2970  208.4760  150.8600 C   0  0  0  0  0  0  0  0  0  0  0  0
  161.3940  207.8300  155.1370 C   0  0  2  0  0  3  0  0  0  0  0  0
  160.5900  207.2870  151.4480 C   0  0  2  0  0  3  0  0  0  0  0  0
  162.4670  210.7180  149.7910 C   0  0  0  0  0  3  0  0  0  0  0  0
  160.5120  203.5280  150.7040 C   0  0  0  0  0  3  0  0  0  0  0  0
  162.3010  210.6140  151.1380 N   0  0  0  0  0  0  0  0  0  0  0  0
  159.9810  204.8770  151.1160 C   0  0  0  0  0  2  0  0  0  0  0  0
  160.6640  205.2160  148.1260 C   0  0  1  0  0  3  0  0  0  0  0  0
  162.0660  209.7090  148.9710 N   0  0  0  0  0  0  0  0  0  0  0  0
  161.0960  207.5050  148.6290 N   0  0  0  0  0  0  0  0  0  0  0  0
  162.3190  203.5500  147.5290 O   0  0  0  0  0  0  0  0  0  0  0  0
  161.4880  202.4390  147.3520 C   0  0  0  0  0  2  0  0  0  0  0  0
  159.3880  201.2810  144.8760 C   0  0  0  0  0  2  0  0  0  0  0  0
  160.5480  203.1600  145.1660 C   0  0  0  0  0  2  0  0  0  0  0  0
  161.3730  202.1100  145.8750 C   0  0  2  0  0  3  0  0  0  0  0  0
  159.6820  202.5120  144.2730 O   0  0  0  0  0  0  0  0  0  0  0  0
  160.5840  200.8490  145.6930 C   0  0  0  0  0  2  0  0  0  0  0  0
  1 18  1  0  0  0  0
  2 27  1  0  0  0  0
  3 16  2  0  0  0  0
  3  7  1  0  0  0  0
  4 15  1  0  0  0  0
  5 19  1  0  0  0  0
  6  7  1  0  0  0  0
  8 16  1  0  0  0  0
  9 27  1  6  0  0  0
  9 13  1  0  0  0  0
 10 22  2  0  0  0  0
 11  5  1  0  0  0  0
 12  8  2  0  0  0  0
 13 24  1  1  0  0  0
 13 20  1  0  0  0  0
 14  2  1  0  0  0  0
 15  5  2  0  0  0  0
 15 12  1  0  0  0  0
 17 28  1  6  0  0  0
 17 10  1  0  0  0  0
 18  4  2  0  0  0  0
 19  6  1  6  0  0  0
 19  3  1  0  0  0  0
 20 18  1  6  0  0  0
 20 11  1  0  0  0  0
 21 23  2  0  0  0  0
 22 24  1  0  0  0  0
 23  4  1  0  0  0  0
 25 14  1  6  0  0  0
 25 17  1  0  0  0  0
 25  9  1  0  0  0  0
 26  1  2  0  0  0  0
 26 21  1  0  0  0  0
 27  1  1  0  0  0  0
 29 28  1  0  0  0  0
 30 34  1  0  0  0  0
 31 32  1  0  0  0  0
 32 29  1  1  0  0  0
 33 30  1  0  0  0  0
 33 31  1  0  0  0  0
 34 32  1  0  0  0  0
M  END
>  <MODEL>
7

>  <REMARK>
 VINA RESULT:      -7.3      2.436      8.375
  Name = 
  3 active torsions:
  status: ('A' for Active; 'I' for Inactive)
    1  A    between atoms: C_17  and  O_28
    2  A    between atoms: O_28  and  C_29
    3  A    between atoms: C_29  and  C_32
                            x       y       z     vdW  Elec       q    Type
                         _______ _______ _______ _____ _____    ______ ____

>  <TORSDO>
F 3

$$$$
