=
 OpenBabel11122413213D

 31 35  0  0  1  0  0  0  0  0999 V2000
  160.8200  205.0800  145.8280 C   0  0  1  0  0  3  0  0  0  0  0  0
  161.3740  204.8460  149.2580 C   0  0  0  0  0  0  0  0  0  0  0  0
  161.2060  203.4400  149.4160 C   0  0  0  0  0  0  0  0  0  0  0  0
  161.6630  210.0090  150.4960 O   0  0  0  0  0  0  0  0  0  0  0  0
  161.3960  209.3440  151.5340 C   0  0  0  0  0  0  0  0  0  0  0  0
  161.2670  201.1520  148.5670 C   0  0  0  0  0  0  0  0  0  0  0  0
  161.7970  205.4820  148.0230 N   0  0  0  0  0  0  0  0  0  0  0  0
  160.7260  206.5920  145.6150 C   0  0  0  0  0  2  0  0  0  0  0  0
  161.4460  202.5250  148.3770 C   0  0  0  0  0  3  0  0  0  0  0  0
  161.3370  207.1160  150.2730 C   0  0  0  0  0  0  0  0  0  0  0  0
  161.0390  204.3930  144.4970 C   0  0  0  0  0  1  0  0  0  0  0  0
  160.5470  203.7990  151.7240 C   0  0  0  0  0  3  0  0  0  0  0  0
  161.5260  200.2090  147.4480 C   0  0  0  0  0  1  0  0  0  0  0  0
  161.6490  207.6580  149.1360 N   0  0  0  0  0  0  0  0  0  0  0  0
  161.1270  205.6670  150.3740 C   0  0  0  0  0  0  0  0  0  0  0  0
  161.2250  207.9200  151.4570 N   0  0  0  0  0  2  0  0  0  0  0  0
  161.9770  204.7550  146.7680 C   0  0  0  0  0  2  0  0  0  0  0  0
  160.8440  200.6680  149.8040 C   0  0  0  0  0  3  0  0  0  0  0  0
  161.7530  206.9430  147.8640 C   0  0  2  0  0  3  0  0  0  0  0  0
  160.5870  207.3200  146.9530 C   0  0  0  0  0  2  0  0  0  0  0  0
  160.7270  205.1310  151.5580 N   0  0  0  0  0  0  0  0  0  0  0  0
  160.7820  202.9280  150.6670 C   0  0  0  0  0  0  0  0  0  0  0  0
  160.6030  201.5550  150.8540 C   0  0  0  0  0  3  0  0  0  0  0  0
  161.0630  211.2930  155.3440 C   0  0  0  0  0  0  0  0  0  0  0  0
  162.3320  210.0030  153.7400 C   0  0  0  0  0  3  0  0  0  0  0  0
  158.9970  210.7460  152.3860 F   0  0  0  0  0  0  0  0  0  0  0  0
  160.9690  211.9190  156.5780 O   0  0  0  0  0  1  0  0  0  0  0  0
  162.2390  210.6340  154.9830 C   0  0  0  0  0  3  0  0  0  0  0  0
  160.0690  210.6940  153.2150 C   0  0  0  0  0  0  0  0  0  0  0  0
  161.2550  210.0240  152.8410 C   0  0  0  0  0  0  0  0  0  0  0  0
  159.9820  211.3230  154.4610 C   0  0  0  0  0  3  0  0  0  0  0  0
  1 11  1  6  0  0  0
  1 17  1  0  0  0  0
  2  3  2  0  0  0  0
  2 15  1  0  0  0  0
  3 22  1  0  0  0  0
  4  5  2  0  0  0  0
  5 30  1  0  0  0  0
  6 18  1  0  0  0  0
  7  2  1  0  0  0  0
  8  1  1  0  0  0  0
  8 20  1  0  0  0  0
  9  6  2  0  0  0  0
  9  3  1  0  0  0  0
 10 15  1  0  0  0  0
 10 16  1  0  0  0  0
 13  6  1  0  0  0  0
 14 10  2  0  0  0  0
 15 21  2  0  0  0  0
 16  5  1  0  0  0  0
 17  7  1  0  0  0  0
 18 23  2  0  0  0  0
 19 20  1  6  0  0  0
 19  7  1  0  0  0  0
 19 14  1  0  0  0  0
 21 12  1  0  0  0  0
 22 23  1  0  0  0  0
 22 12  2  0  0  0  0
 24 27  1  0  0  0  0
 25 28  2  0  0  0  0
 26 29  1  0  0  0  0
 28 24  1  0  0  0  0
 29 31  1  0  0  0  0
 30 29  2  0  0  0  0
 30 25  1  0  0  0  0
 31 24  2  0  0  0  0
M  END
>  <MODEL>
1

>  <REMARK>
 VINA RESULT:      -9.6      0.000      0.000
  Name = 
  1 active torsions:
  status: ('A' for Active; 'I' for Inactive)
    1  A    between atoms: C_5  and  C_30
                            x       y       z     vdW  Elec       q    Type
                         _______ _______ _______ _____ _____    ______ ____

>  <TORSDO>
F 1

$$$$
=
 OpenBabel11122413213D

 31 35  0  0  1  0  0  0  0  0999 V2000
  161.4330  201.7660  149.8430 C   0  0  1  0  0  3  0  0  0  0  0  0
  161.1160  205.2310  149.6990 C   0  0  0  0  0  0  0  0  0  0  0  0
  161.3850  205.4230  148.3130 C   0  0  0  0  0  0  0  0  0  0  0  0
  160.5650  206.3180  154.8750 O   0  0  0  0  0  0  0  0  0  0  0  0
  160.9410  207.3570  154.2670 C   0  0  0  0  0  0  0  0  0  0  0  0
  161.4220  204.6540  145.9970 C   0  0  0  0  0  0  0  0  0  0  0  0
  160.5730  204.0070  150.2620 N   0  0  0  0  0  0  0  0  0  0  0  0
  161.4130  201.4990  151.3490 C   0  0  0  0  0  2  0  0  0  0  0  0
  161.1410  204.4320  147.3480 C   0  0  0  0  0  3  0  0  0  0  0  0
  161.0670  206.1680  152.0030 C   0  0  0  0  0  0  0  0  0  0  0  0
  161.1760  200.4760  149.0940 C   0  0  0  0  0  1  0  0  0  0  0  0
  162.1650  207.6690  148.7970 C   0  0  0  0  0  3  0  0  0  0  0  0
  161.1550  203.5860  144.9990 C   0  0  0  0  0  1  0  0  0  0  0  0
  160.6470  205.0360  152.4820 N   0  0  0  0  0  0  0  0  0  0  0  0
  161.3780  206.3010  150.5750 C   0  0  0  0  0  0  0  0  0  0  0  0
  161.2000  207.3150  152.8550 N   0  0  0  0  0  2  0  0  0  0  0  0
  160.3620  202.7910  149.4790 C   0  0  0  0  0  2  0  0  0  0  0  0
  161.9540  205.8760  145.5860 C   0  0  0  0  0  3  0  0  0  0  0  0
  160.5100  203.7980  151.7150 C   0  0  2  0  0  3  0  0  0  0  0  0
  161.5880  202.8000  152.1320 C   0  0  0  0  0  2  0  0  0  0  0  0
  161.8870  207.4730  150.1090 N   0  0  0  0  0  0  0  0  0  0  0  0
  161.9210  206.6600  147.8760 C   0  0  0  0  0  0  0  0  0  0  0  0
  162.2030  206.8780  146.5240 C   0  0  0  0  0  3  0  0  0  0  0  0
  161.4950  211.0060  156.4590 C   0  0  0  0  0  0  0  0  0  0  0  0
  161.7660  208.6120  156.2480 C   0  0  0  0  0  3  0  0  0  0  0  0
  160.0270  209.9380  153.2930 F   0  0  0  0  0  0  0  0  0  0  0  0
  161.6810  212.1780  157.1780 O   0  0  0  0  0  1  0  0  0  0  0  0
  161.9540  209.7920  156.9720 C   0  0  0  0  0  3  0  0  0  0  0  0
  160.6590  209.8630  154.4910 C   0  0  0  0  0  0  0  0  0  0  0  0
  161.1200  208.6300  155.0020 C   0  0  0  0  0  0  0  0  0  0  0  0
  160.8490  211.0400  155.2220 C   0  0  0  0  0  3  0  0  0  0  0  0
  1 11  1  6  0  0  0
  1  8  1  0  0  0  0
  2  7  1  0  0  0  0
  2 15  1  0  0  0  0
  3  2  2  0  0  0  0
  5  4  2  0  0  0  0
  5 30  1  0  0  0  0
  6  9  2  0  0  0  0
  7 19  1  0  0  0  0
  8 20  1  0  0  0  0
  9  3  1  0  0  0  0
 10 14  2  0  0  0  0
 10 16  1  0  0  0  0
 12 21  1  0  0  0  0
 13  6  1  0  0  0  0
 15 10  1  0  0  0  0
 16  5  1  0  0  0  0
 17  1  1  0  0  0  0
 17  7  1  0  0  0  0
 18  6  1  0  0  0  0
 18 23  2  0  0  0  0
 19 20  1  1  0  0  0
 19 14  1  0  0  0  0
 21 15  2  0  0  0  0
 22  3  1  0  0  0  0
 22 12  2  0  0  0  0
 23 22  1  0  0  0  0
 24 28  1  0  0  0  0
 24 27  1  0  0  0  0
 25 28  2  0  0  0  0
 26 29  1  0  0  0  0
 29 30  2  0  0  0  0
 29 31  1  0  0  0  0
 30 25  1  0  0  0  0
 31 24  2  0  0  0  0
M  END
>  <MODEL>
2

>  <REMARK>
 VINA RESULT:      -9.1      1.737      4.101
  Name = 
  1 active torsions:
  status: ('A' for Active; 'I' for Inactive)
    1  A    between atoms: C_5  and  C_30
                            x       y       z     vdW  Elec       q    Type
                         _______ _______ _______ _____ _____    ______ ____

>  <TORSDO>
F 1

$$$$
=
 OpenBabel11122413213D

 31 35  0  0  1  0  0  0  0  0999 V2000
  162.3310  209.6390  150.0840 C   0  0  1  0  0  3  0  0  0  0  0  0
  161.0400  206.4890  150.8150 C   0  0  0  0  0  0  0  0  0  0  0  0
  161.0170  206.5800  152.2360 C   0  0  0  0  0  0  0  0  0  0  0  0
  161.0520  204.3410  145.9500 O   0  0  0  0  0  0  0  0  0  0  0  0
  161.0190  203.4220  146.8130 C   0  0  0  0  0  0  0  0  0  0  0  0
  160.8920  207.8560  154.3130 C   0  0  0  0  0  0  0  0  0  0  0  0
  160.9590  207.6320  149.9230 N   0  0  0  0  0  0  0  0  0  0  0  0
  162.6300  209.5300  148.5880 C   0  0  0  0  0  2  0  0  0  0  0  0
  160.9060  207.8040  152.9170 C   0  0  0  0  0  3  0  0  0  0  0  0
  161.1040  205.0600  148.7790 C   0  0  0  0  0  0  0  0  0  0  0  0
  162.3270  211.0960  150.4970 C   0  0  0  0  0  1  0  0  0  0  0  0
  161.2060  204.1650  152.3740 C   0  0  0  0  0  3  0  0  0  0  0  0
  160.7770  209.1660  155.0050 C   0  0  0  0  0  1  0  0  0  0  0  0
  161.1010  206.1080  148.0130 N   0  0  0  0  0  0  0  0  0  0  0  0
  161.1300  205.2080  150.2390 C   0  0  0  0  0  0  0  0  0  0  0  0
  161.0480  203.7430  148.2130 N   0  0  0  0  0  2  0  0  0  0  0  0
  160.9720  209.0170  150.3930 C   0  0  0  0  0  2  0  0  0  0  0  0
  160.9880  206.6810  155.0570 C   0  0  0  0  0  3  0  0  0  0  0  0
  161.1930  207.4920  148.4790 C   0  0  2  0  0  3  0  0  0  0  0  0
  162.5590  208.0750  148.1260 C   0  0  0  0  0  2  0  0  0  0  0  0
  161.2100  204.0980  151.0210 N   0  0  0  0  0  0  0  0  0  0  0  0
  161.1090  205.3960  153.0090 C   0  0  0  0  0  0  0  0  0  0  0  0
  161.0950  205.4510  154.4060 C   0  0  0  0  0  3  0  0  0  0  0  0
  160.8710  199.2920  145.6560 C   0  0  0  0  0  0  0  0  0  0  0  0
  161.6210  201.0350  147.1550 C   0  0  0  0  0  3  0  0  0  0  0  0
  159.5710  202.4900  144.4730 F   0  0  0  0  0  0  0  0  0  0  0  0
  160.8310  197.9530  145.2930 O   0  0  0  0  0  1  0  0  0  0  0  0
  161.5810  199.6870  146.7910 C   0  0  0  0  0  3  0  0  0  0  0  0
  160.2350  201.5960  145.2460 C   0  0  0  0  0  0  0  0  0  0  0  0
  160.9520  202.0050  146.3920 C   0  0  0  0  0  0  0  0  0  0  0  0
  160.2000  200.2440  144.8870 C   0  0  0  0  0  3  0  0  0  0  0  0
  1 17  1  0  0  0  0
  1 11  1  6  0  0  0
  2  3  1  0  0  0  0
  3  9  2  0  0  0  0
  3 22  1  0  0  0  0
  4  5  2  0  0  0  0
  5 16  1  0  0  0  0
  6 13  1  0  0  0  0
  6 18  2  0  0  0  0
  7 17  1  0  0  0  0
  7  2  1  0  0  0  0
  8  1  1  0  0  0  0
  9  6  1  0  0  0  0
 10 15  1  0  0  0  0
 12 22  1  0  0  0  0
 14 19  1  0  0  0  0
 14 10  2  0  0  0  0
 15  2  2  0  0  0  0
 15 21  1  0  0  0  0
 16 10  1  0  0  0  0
 19 20  1  1  0  0  0
 19  7  1  0  0  0  0
 20  8  1  0  0  0  0
 21 12  2  0  0  0  0
 22 23  2  0  0  0  0
 23 18  1  0  0  0  0
 24 28  1  0  0  0  0
 26 29  1  0  0  0  0
 27 24  1  0  0  0  0
 28 25  2  0  0  0  0
 29 30  2  0  0  0  0
 30  5  1  0  0  0  0
 30 25  1  0  0  0  0
 31 29  1  0  0  0  0
 31 24  2  0  0  0  0
M  END
>  <MODEL>
3

>  <REMARK>
 VINA RESULT:      -6.9      3.881      8.436
  Name = 
  1 active torsions:
  status: ('A' for Active; 'I' for Inactive)
    1  A    between atoms: C_5  and  C_30
                            x       y       z     vdW  Elec       q    Type
                         _______ _______ _______ _____ _____    ______ ____

>  <TORSDO>
F 1

$$$$
=
 OpenBabel11122413213D

 31 35  0  0  1  0  0  0  0  0999 V2000
  161.6980  208.2020  153.9270 C   0  0  1  0  0  3  0  0  0  0  0  0
  161.2080  207.8700  150.4950 C   0  0  0  0  0  0  0  0  0  0  0  0
  161.2010  206.4480  150.4080 C   0  0  0  0  0  0  0  0  0  0  0  0
  161.6080  212.9610  149.0140 O   0  0  0  0  0  0  0  0  0  0  0  0
  161.8150  212.2170  148.0170 C   0  0  0  0  0  0  0  0  0  0  0  0
  160.8290  204.2300  151.3580 C   0  0  0  0  0  0  0  0  0  0  0  0
  160.8370  208.6140  151.6850 N   0  0  0  0  0  0  0  0  0  0  0  0
  161.9770  209.6990  154.0730 C   0  0  0  0  0  2  0  0  0  0  0  0
  160.8200  205.6230  151.4780 C   0  0  0  0  0  3  0  0  0  0  0  0
  161.5590  210.0650  149.3790 C   0  0  0  0  0  0  0  0  0  0  0  0
  161.3590  207.6130  155.2810 C   0  0  0  0  0  1  0  0  0  0  0  0
  161.9600  206.6070  148.1080 C   0  0  0  0  0  3  0  0  0  0  0  0
  160.4230  203.3830  152.5090 C   0  0  0  0  0  1  0  0  0  0  0  0
  161.2880  210.6970  150.4800 N   0  0  0  0  0  0  0  0  0  0  0  0
  161.5860  208.5970  149.3520 C   0  0  0  0  0  0  0  0  0  0  0  0
  161.8020  210.7890  148.1640 N   0  0  0  0  0  2  0  0  0  0  0  0
  160.5330  207.9780  152.9660 C   0  0  0  0  0  2  0  0  0  0  0  0
  161.2190  203.6360  150.1580 C   0  0  0  0  0  3  0  0  0  0  0  0
  161.0610  210.0640  151.7800 C   0  0  2  0  0  3  0  0  0  0  0  0
  162.2410  210.3360  152.7100 C   0  0  0  0  0  2  0  0  0  0  0  0
  161.9460  207.9580  148.2070 N   0  0  0  0  0  0  0  0  0  0  0  0
  161.5890  205.8260  149.1950 C   0  0  0  0  0  0  0  0  0  0  0  0
  161.5980  204.4330  149.0770 C   0  0  0  0  0  3  0  0  0  0  0  0
  162.6460  213.9100  144.1610 C   0  0  0  0  0  0  0  0  0  0  0  0
  163.3640  212.7170  146.1380 C   0  0  0  0  0  3  0  0  0  0  0  0
  159.8040  213.5860  146.4270 F   0  0  0  0  0  0  0  0  0  0  0  0
  162.9280  214.4530  142.9160 O   0  0  0  0  0  1  0  0  0  0  0  0
  163.6490  213.2620  144.8840 C   0  0  0  0  0  3  0  0  0  0  0  0
  161.0670  213.4670  145.9470 C   0  0  0  0  0  0  0  0  0  0  0  0
  162.0750  212.8090  146.6850 C   0  0  0  0  0  0  0  0  0  0  0  0
  161.3590  214.0120  144.6920 C   0  0  0  0  0  3  0  0  0  0  0  0
  1  8  1  0  0  0  0
  1 11  1  1  0  0  0
  2  7  1  0  0  0  0
  3  2  1  0  0  0  0
  3  9  1  0  0  0  0
  5 16  1  0  0  0  0
  5  4  2  0  0  0  0
  6  9  2  0  0  0  0
  6 13  1  0  0  0  0
  7 19  1  0  0  0  0
  7 17  1  0  0  0  0
 10 14  2  0  0  0  0
 12 21  2  0  0  0  0
 12 22  1  0  0  0  0
 14 19  1  0  0  0  0
 15 10  1  0  0  0  0
 15  2  2  0  0  0  0
 16 10  1  0  0  0  0
 17  1  1  0  0  0  0
 18  6  1  0  0  0  0
 19 20  1  1  0  0  0
 20  8  1  0  0  0  0
 21 15  1  0  0  0  0
 22  3  2  0  0  0  0
 23 22  1  0  0  0  0
 23 18  2  0  0  0  0
 24 31  2  0  0  0  0
 24 28  1  0  0  0  0
 25 30  1  0  0  0  0
 27 24  1  0  0  0  0
 28 25  2  0  0  0  0
 29 26  1  0  0  0  0
 29 30  2  0  0  0  0
 30  5  1  0  0  0  0
 31 29  1  0  0  0  0
M  END
>  <MODEL>
4

>  <REMARK>
 VINA RESULT:      -6.7      3.907      6.837
  Name = 
  1 active torsions:
  status: ('A' for Active; 'I' for Inactive)
    1  A    between atoms: C_5  and  C_30
                            x       y       z     vdW  Elec       q    Type
                         _______ _______ _______ _____ _____    ______ ____

>  <TORSDO>
F 1

$$$$
