=
 OpenBabel11122414123D

 28 33  0  0  1  0  0  0  0  0999 V2000
  159.1980  211.6030  152.2680 C   0  0  0  0  0  0  0  0  0  0  0  0
  160.5490  208.5480  149.9480 O   0  0  0  0  0  0  0  0  0  0  0  0
  159.1590  207.1560  156.1780 C   0  0  0  0  0  1  0  0  0  0  0  0
  161.1480  212.5370  150.4900 C   0  0  0  0  0  3  0  0  0  0  0  0
  161.4500  208.0980  156.0080 C   0  0  1  0  0  3  0  0  0  0  0  0
  158.2070  211.1400  153.2950 C   0  0  1  0  0  3  0  0  0  0  0  0
  162.8280  207.6600  150.1140 O   0  0  0  0  0  0  0  0  0  0  0  0
  161.5200  207.8200  150.8360 S   0  0  0  0  0  0  0  0  0  0  0  0
  161.6050  205.6580  152.4270 C   0  0  2  0  0  3  0  0  0  0  0  0
  161.8000  208.7330  152.3560 C   0  0  2  0  0  3  0  0  0  0  0  0
  159.7640  212.5210  154.6910 O   0  0  0  0  0  1  0  0  0  0  0  0
  160.7710  209.7070  154.3350 C   0  0  2  0  0  3  0  0  0  0  0  0
  161.3620  206.5590  153.6260 C   0  0  0  0  0  2  0  0  0  0  0  0
  160.8700  206.2140  151.2240 C   0  0  0  0  0  2  0  0  0  0  0  0
  158.7130  211.5960  154.6690 C   0  0  2  0  0  0  0  0  0  0  0  0
  160.3930  210.8650  152.0910 C   0  0  0  0  0  0  0  0  0  0  0  0
  159.9760  208.4330  156.1560 C   0  0  1  0  0  3  0  0  0  0  0  0
  161.0790  204.2730  152.7320 C   0  0  0  0  0  1  0  0  0  0  0  0
  158.8230  210.4110  155.6240 C   0  0  0  0  0  2  0  0  0  0  0  0
  161.3660  211.3570  151.2040 C   0  0  0  0  0  3  0  0  0  0  0  0
  158.9820  212.7800  151.5390 C   0  0  0  0  0  3  0  0  0  0  0  0
  159.9540  213.2430  150.6500 C   0  0  0  0  0  3  0  0  0  0  0  0
  157.4260  212.1610  154.1200 C   0  0  0  0  0  2  0  0  0  0  0  0
  161.9070  208.7890  154.7420 C   0  0  2  0  0  3  0  0  0  0  0  0
  159.5530  209.2720  155.0370 N   0  0  1  0  0  0  0  0  0  0  0  0
  162.1860  207.8600  153.5490 C   0  0  2  0  0  3  0  0  0  0  0  0
  162.1520  208.6140  157.0970 O   0  0  0  0  0  1  0  0  0  0  0  0
  160.5950  209.5400  152.8190 C   0  0  1  0  0  3  0  0  0  0  0  0
  1  6  1  0  0  0  0
  2  8  2  0  0  0  0
  4 22  2  0  0  0  0
  4 20  1  0  0  0  0
  5 17  1  0  0  0  0
  5 27  1  1  0  0  0
  6 23  1  6  0  0  0
  6 15  1  0  0  0  0
  7  8  2  0  0  0  0
  8 14  1  0  0  0  0
  9 18  1  1  0  0  0
  9 13  1  0  0  0  0
 10  8  1  6  0  0  0
 10 28  1  0  0  0  0
 10 26  1  0  0  0  0
 12 24  1  0  0  0  0
 12 25  1  0  0  0  0
 14  9  1  0  0  0  0
 15 11  1  0  0  0  0
 15 19  1  0  0  0  0
 16  1  1  0  0  0  0
 16 28  1  0  0  0  0
 17  3  1  0  0  0  0
 20 16  2  0  0  0  0
 21  1  2  0  0  0  0
 22 21  1  0  0  0  0
 23 15  1  0  0  0  0
 24  5  1  0  0  0  0
 25 19  1  0  0  0  0
 25 17  1  0  0  0  0
 26 13  1  0  0  0  0
 26 24  1  0  0  0  0
 28 12  1  0  0  0  0
M  END
>  <MODEL>
1

>  <REMARK>
 VINA RESULT:      -3.5      0.000      0.000
  Name = 
  0 active torsions:
  status: ('A' for Active; 'I' for Inactive)
                            x       y       z     vdW  Elec       q    Type
                         _______ _______ _______ _____ _____    ______ ____

>  <TORSDO>
F 0

$$$$
=
 OpenBabel11122414123D

 28 33  0  0  1  0  0  0  0  0999 V2000
  160.8490  209.8720  152.6260 C   0  0  0  0  0  0  0  0  0  0  0  0
  157.4070  212.0060  153.0030 O   0  0  0  0  0  0  0  0  0  0  0  0
  160.2690  211.9970  147.1300 C   0  0  0  0  0  1  0  0  0  0  0  0
  160.7470  211.0920  155.1430 C   0  0  0  0  0  3  0  0  0  0  0  0
  161.3160  213.7170  148.5830 C   0  0  1  0  0  3  0  0  0  0  0  0
  160.9930  209.2620  151.2630 C   0  0  1  0  0  3  0  0  0  0  0  0
  157.3690  214.4530  153.1340 O   0  0  0  0  0  0  0  0  0  0  0  0
  157.6850  213.2780  152.2530 S   0  0  0  0  0  0  0  0  0  0  0  0
  157.2190  214.3700  149.8430 C   0  0  2  0  0  3  0  0  0  0  0  0
  159.4100  213.3640  151.7630 C   0  0  2  0  0  3  0  0  0  0  0  0
  163.2410  210.3250  151.5710 O   0  0  0  0  0  1  0  0  0  0  0  0
  161.2060  212.2820  150.5270 C   0  0  2  0  0  3  0  0  0  0  0  0
  158.6100  213.9440  149.4060 C   0  0  0  0  0  2  0  0  0  0  0  0
  156.6580  213.3420  150.8060 C   0  0  0  0  0  2  0  0  0  0  0  0
  162.3410  209.7120  150.6900 C   0  0  2  0  0  0  0  0  0  0  0  0
  160.4580  211.2290  152.7290 C   0  0  0  0  0  0  0  0  0  0  0  0
  161.3410  212.2550  148.1710 C   0  0  1  0  0  3  0  0  0  0  0  0
  156.3200  214.4530  148.6290 C   0  0  0  0  0  1  0  0  0  0  0  0
  162.1550  210.3790  149.3300 C   0  0  0  0  0  2  0  0  0  0  0  0
  160.4260  211.8270  154.0010 C   0  0  0  0  0  3  0  0  0  0  0  0
  161.1590  209.1380  153.7790 C   0  0  0  0  0  3  0  0  0  0  0  0
  161.1050  209.7470  155.0340 C   0  0  0  0  0  3  0  0  0  0  0  0
  162.1060  208.2520  150.9890 C   0  0  0  0  0  2  0  0  0  0  0  0
  161.0630  213.7220  150.0750 C   0  0  2  0  0  3  0  0  0  0  0  0
  161.1040  211.4150  149.3430 N   0  0  1  0  0  0  0  0  0  0  0  0
  159.6640  214.1920  150.5040 C   0  0  2  0  0  3  0  0  0  0  0  0
  162.5600  214.2900  148.3210 O   0  0  0  0  0  1  0  0  0  0  0  0
  160.0400  212.0060  151.4860 C   0  0  1  0  0  3  0  0  0  0  0  0
  1 16  2  0  0  0  0
  1 21  1  0  0  0  0
  3 17  1  0  0  0  0
  5 27  1  1  0  0  0
  5 24  1  0  0  0  0
  6 23  1  1  0  0  0
  6  1  1  0  0  0  0
  8  2  2  0  0  0  0
  8  7  2  0  0  0  0
  9 18  1  6  0  0  0
  9 14  1  0  0  0  0
 10  8  1  6  0  0  0
 12 28  1  0  0  0  0
 13  9  1  0  0  0  0
 13 26  1  0  0  0  0
 14  8  1  0  0  0  0
 15 23  1  0  0  0  0
 15  6  1  0  0  0  0
 15 11  1  0  0  0  0
 16 20  1  0  0  0  0
 17  5  1  0  0  0  0
 17 25  1  0  0  0  0
 19 25  1  0  0  0  0
 19 15  1  0  0  0  0
 20  4  2  0  0  0  0
 21 22  2  0  0  0  0
 22  4  1  0  0  0  0
 24 26  1  0  0  0  0
 24 12  1  0  0  0  0
 25 12  1  0  0  0  0
 26 10  1  0  0  0  0
 28 10  1  0  0  0  0
 28 16  1  0  0  0  0
M  END
>  <MODEL>
2

>  <REMARK>
 VINA RESULT:      -3.1      2.974      7.085
  Name = 
  0 active torsions:
  status: ('A' for Active; 'I' for Inactive)
                            x       y       z     vdW  Elec       q    Type
                         _______ _______ _______ _____ _____    ______ ____

>  <TORSDO>
F 0

$$$$
=
 OpenBabel11122414123D

 28 33  0  0  1  0  0  0  0  0999 V2000
  159.5190  212.5770  150.3640 C   0  0  0  0  0  0  0  0  0  0  0  0
  160.9520  208.8000  149.8990 O   0  0  0  0  0  0  0  0  0  0  0  0
  158.2990  210.2800  155.6830 C   0  0  0  0  0  1  0  0  0  0  0  0
  161.8490  212.6190  148.8130 C   0  0  0  0  0  3  0  0  0  0  0  0
  160.6670  211.0240  155.6180 C   0  0  1  0  0  3  0  0  0  0  0  0
  158.3130  212.6220  151.2550 C   0  0  1  0  0  3  0  0  0  0  0  0
  163.0570  208.0450  150.9020 O   0  0  0  0  0  0  0  0  0  0  0  0
  161.6620  208.5190  151.1940 S   0  0  0  0  0  0  0  0  0  0  0  0
  161.2270  207.2660  153.5290 C   0  0  2  0  0  3  0  0  0  0  0  0
  161.7490  210.0000  152.2050 C   0  0  2  0  0  3  0  0  0  0  0  0
  159.7190  214.4530  152.2290 O   0  0  0  0  0  1  0  0  0  0  0  0
  160.4790  211.7510  153.3200 C   0  0  2  0  0  3  0  0  0  0  0  0
  160.8620  208.6020  154.1530 C   0  0  0  0  0  2  0  0  0  0  0  0
  160.7890  207.2510  152.0790 C   0  0  0  0  0  2  0  0  0  0  0  0
  158.6000  213.6230  152.3790 C   0  0  2  0  0  0  0  0  0  0  0  0
  160.6430  211.8210  150.7730 C   0  0  0  0  0  0  0  0  0  0  0  0
  159.2340  211.4090  155.2950 C   0  0  1  0  0  3  0  0  0  0  0  0
  160.5140  206.1590  154.2730 C   0  0  0  0  0  1  0  0  0  0  0  0
  158.4090  212.9720  153.7460 C   0  0  0  0  0  2  0  0  0  0  0  0
  161.8080  211.8660  149.9880 C   0  0  0  0  0  3  0  0  0  0  0  0
  159.5640  213.3220  149.1770 C   0  0  0  0  0  3  0  0  0  0  0  0
  160.7250  213.3400  148.4040 C   0  0  0  0  0  3  0  0  0  0  0  0
  157.5020  213.9100  151.3840 C   0  0  0  0  0  2  0  0  0  0  0  0
  161.4190  211.0880  154.3070 C   0  0  2  0  0  3  0  0  0  0  0  0
  159.1130  211.6820  153.8650 N   0  0  1  0  0  0  0  0  0  0  0  0
  161.8150  209.7290  153.7080 C   0  0  2  0  0  3  0  0  0  0  0  0
  161.2050  211.9540  156.5070 O   0  0  0  0  0  1  0  0  0  0  0  0
  160.5690  210.9430  152.0170 C   0  0  1  0  0  3  0  0  0  0  0  0
  1 16  1  0  0  0  0
  1  6  1  0  0  0  0
  2  8  2  0  0  0  0
  4 20  1  0  0  0  0
  5 27  1  1  0  0  0
  6 23  1  6  0  0  0
  6 15  1  0  0  0  0
  7  8  2  0  0  0  0
  8 14  1  0  0  0  0
  9 13  1  0  0  0  0
  9 18  1  1  0  0  0
 10  8  1  6  0  0  0
 10 26  1  0  0  0  0
 11 15  1  0  0  0  0
 12 25  1  0  0  0  0
 12 24  1  0  0  0  0
 14  9  1  0  0  0  0
 15 19  1  0  0  0  0
 16 28  1  0  0  0  0
 17  5  1  0  0  0  0
 17  3  1  0  0  0  0
 19 25  1  0  0  0  0
 20 16  2  0  0  0  0
 21  1  2  0  0  0  0
 22  4  2  0  0  0  0
 22 21  1  0  0  0  0
 23 15  1  0  0  0  0
 24  5  1  0  0  0  0
 25 17  1  0  0  0  0
 26 13  1  0  0  0  0
 26 24  1  0  0  0  0
 28 10  1  0  0  0  0
 28 12  1  0  0  0  0
M  END
>  <MODEL>
3

>  <REMARK>
 VINA RESULT:      -2.8      1.623      2.376
  Name = 
  0 active torsions:
  status: ('A' for Active; 'I' for Inactive)
                            x       y       z     vdW  Elec       q    Type
                         _______ _______ _______ _____ _____    ______ ____

>  <TORSDO>
F 0

$$$$
=
 OpenBabel11122414123D

 28 33  0  0  1  0  0  0  0  0999 V2000
  160.8310  207.6870  151.7970 C   0  0  0  0  0  0  0  0  0  0  0  0
  158.4910  210.7030  153.2010 O   0  0  0  0  0  0  0  0  0  0  0  0
  160.6720  211.2440  147.0660 C   0  0  0  0  0  1  0  0  0  0  0  0
  161.3930  208.1600  154.4980 C   0  0  0  0  0  3  0  0  0  0  0  0
  162.4020  212.0480  148.6570 C   0  0  1  0  0  3  0  0  0  0  0  0
  160.6270  207.4460  150.3300 C   0  0  1  0  0  3  0  0  0  0  0  0
  159.3910  212.8860  153.8600 O   0  0  0  0  0  0  0  0  0  0  0  0
  159.1710  211.9500  152.7060 S   0  0  0  0  0  0  0  0  0  0  0  0
  158.9660  213.7270  150.7020 C   0  0  2  0  0  3  0  0  0  0  0  0
  160.7570  211.5570  151.9620 C   0  0  2  0  0  3  0  0  0  0  0  0
  163.1270  207.5420  150.4760 O   0  0  0  0  0  1  0  0  0  0  0  0
  161.9090  210.2850  150.2360 C   0  0  2  0  0  3  0  0  0  0  0  0
  160.0550  212.9760  149.9550 C   0  0  0  0  0  2  0  0  0  0  0  0
  158.1350  212.7440  151.5020 C   0  0  0  0  0  2  0  0  0  0  0  0
  161.9970  207.5340  149.6480 C   0  0  2  0  0  0  0  0  0  0  0  0
  160.9910  209.0180  152.2540 C   0  0  0  0  0  0  0  0  0  0  0  0
  161.8400  210.8320  147.9420 C   0  0  1  0  0  3  0  0  0  0  0  0
  158.0740  214.4330  149.7050 C   0  0  0  0  0  1  0  0  0  0  0  0
  161.9710  208.5560  148.5150 C   0  0  0  0  0  2  0  0  0  0  0  0
  161.2870  209.2340  153.6110 C   0  0  0  0  0  3  0  0  0  0  0  0
  160.9290  206.6160  152.6960 C   0  0  0  0  0  3  0  0  0  0  0  0
  161.2060  206.8540  154.0430 C   0  0  0  0  0  3  0  0  0  0  0  0
  161.2510  206.2230  149.6610 C   0  0  0  0  0  2  0  0  0  0  0  0
  162.2860  211.7500  150.1350 C   0  0  2  0  0  3  0  0  0  0  0  0
  161.3950  209.8500  148.9280 N   0  0  1  0  0  0  0  0  0  0  0  0
  161.2060  212.5450  150.8860 C   0  0  2  0  0  3  0  0  0  0  0  0
  163.7450  212.2020  148.3190 O   0  0  0  0  0  1  0  0  0  0  0  0
  160.8020  210.1880  151.2970 C   0  0  1  0  0  3  0  0  0  0  0  0
  1 16  2  0  0  0  0
  1 21  1  0  0  0  0
  3 17  1  0  0  0  0
  5 27  1  6  0  0  0
  5 24  1  0  0  0  0
  6 23  1  1  0  0  0
  6  1  1  0  0  0  0
  8  2  2  0  0  0  0
  8  7  2  0  0  0  0
  9 18  1  6  0  0  0
  9 14  1  0  0  0  0
 10  8  1  6  0  0  0
 12 28  1  0  0  0  0
 13  9  1  0  0  0  0
 13 26  1  0  0  0  0
 14  8  1  0  0  0  0
 15 23  1  0  0  0  0
 15  6  1  0  0  0  0
 15 11  1  0  0  0  0
 16 20  1  0  0  0  0
 17  5  1  0  0  0  0
 17 25  1  0  0  0  0
 19 25  1  0  0  0  0
 19 15  1  0  0  0  0
 20  4  2  0  0  0  0
 21 22  2  0  0  0  0
 22  4  1  0  0  0  0
 24 12  1  0  0  0  0
 24 26  1  0  0  0  0
 25 12  1  0  0  0  0
 26 10  1  0  0  0  0
 28 10  1  0  0  0  0
 28 16  1  0  0  0  0
M  END
>  <MODEL>
4

>  <REMARK>
 VINA RESULT:      -2.4      2.547      6.835
  Name = 
  0 active torsions:
  status: ('A' for Active; 'I' for Inactive)
                            x       y       z     vdW  Elec       q    Type
                         _______ _______ _______ _____ _____    ______ ____

>  <TORSDO>
F 0

$$$$
=
 OpenBabel11122414123D

 28 33  0  0  1  0  0  0  0  0999 V2000
  158.9790  212.9490  142.7070 C   0  0  0  0  0  0  0  0  0  0  0  0
  156.9490  210.7670  139.9400 O   0  0  0  0  0  0  0  0  0  0  0  0
  163.4350  210.0110  140.1440 C   0  0  0  0  0  1  0  0  0  0  0  0
  156.8610  214.4530  141.6640 C   0  0  0  0  0  3  0  0  0  0  0  0
  162.8540  212.0030  138.7790 C   0  0  1  0  0  3  0  0  0  0  0  0
  160.1750  212.2180  143.2410 C   0  0  1  0  0  3  0  0  0  0  0  0
  156.9500  211.3180  137.5520 O   0  0  0  0  0  0  0  0  0  0  0  0
  157.8000  210.8660  138.7050 S   0  0  0  0  0  0  0  0  0  0  0  0
  159.6500  209.4380  137.3810 C   0  0  2  0  0  3  0  0  0  0  0  0
  159.1340  212.0440  138.9430 C   0  0  2  0  0  3  0  0  0  0  0  0
  161.1640  214.4530  142.6870 O   0  0  0  0  0  1  0  0  0  0  0  0
  161.0740  212.6390  140.2870 C   0  0  2  0  0  3  0  0  0  0  0  0
  160.7350  210.2610  138.0540 C   0  0  0  0  0  2  0  0  0  0  0  0
  158.4830  209.2700  138.3320 C   0  0  0  0  0  2  0  0  0  0  0  0
  161.4000  213.1180  143.0410 C   0  0  2  0  0  0  0  0  0  0  0  0
  158.7570  212.9680  141.3090 C   0  0  0  0  0  0  0  0  0  0  0  0
  163.1370  211.4980  140.1830 C   0  0  1  0  0  3  0  0  0  0  0  0
  160.2050  208.0740  137.0320 C   0  0  0  0  0  1  0  0  0  0  0  0
  162.4880  212.3860  142.2600 C   0  0  0  0  0  2  0  0  0  0  0  0
  157.6970  213.7390  140.8030 C   0  0  0  0  0  3  0  0  0  0  0  0
  158.1280  213.6600  143.5650 C   0  0  0  0  0  3  0  0  0  0  0  0
  157.0710  214.4070  143.0440 C   0  0  0  0  0  3  0  0  0  0  0  0
  160.9430  212.7760  144.4380 C   0  0  0  0  0  2  0  0  0  0  0  0
  161.4590  212.5850  138.8210 C   0  0  2  0  0  3  0  0  0  0  0  0
  161.9750  211.7460  141.0330 N   0  0  1  0  0  0  0  0  0  0  0  0
  160.3790  211.7600  138.1030 C   0  0  2  0  0  3  0  0  0  0  0  0
  163.7660  213.0070  138.4580 O   0  0  0  0  0  1  0  0  0  0  0  0
  159.6290  212.1290  140.3810 C   0  0  1  0  0  3  0  0  0  0  0  0
  1  6  1  0  0  0  0
  1 21  1  0  0  0  0
  3 17  1  0  0  0  0
  4 22  1  0  0  0  0
  5 27  1  1  0  0  0
  5 24  1  0  0  0  0
  5 17  1  0  0  0  0
  6 23  1  1  0  0  0
  7  8  2  0  0  0  0
  8  2  2  0  0  0  0
  9 18  1  1  0  0  0
  9 13  1  0  0  0  0
  9 14  1  0  0  0  0
 10  8  1  1  0  0  0
 10 28  1  0  0  0  0
 11 15  1  0  0  0  0
 12 28  1  0  0  0  0
 12 25  1  0  0  0  0
 13 26  1  0  0  0  0
 14  8  1  0  0  0  0
 15  6  1  0  0  0  0
 15 23  1  0  0  0  0
 16  1  2  0  0  0  0
 17 25  1  0  0  0  0
 19 15  1  0  0  0  0
 20 16  1  0  0  0  0
 20  4  2  0  0  0  0
 22 21  2  0  0  0  0
 24 12  1  0  0  0  0
 25 19  1  0  0  0  0
 26 24  1  0  0  0  0
 26 10  1  0  0  0  0
 28 16  1  0  0  0  0
M  END
>  <MODEL>
5

>  <REMARK>
 VINA RESULT:      -2.4     10.895     13.704
  Name = 
  0 active torsions:
  status: ('A' for Active; 'I' for Inactive)
                            x       y       z     vdW  Elec       q    Type
                         _______ _______ _______ _____ _____    ______ ____

>  <TORSDO>
F 0

$$$$
=
 OpenBabel11122414123D

 28 33  0  0  1  0  0  0  0  0999 V2000
  161.0850  206.3050  150.2310 C   0  0  0  0  0  0  0  0  0  0  0  0
  159.7530  208.3860  153.4610 O   0  0  0  0  0  0  0  0  0  0  0  0
  160.3320  211.6710  147.8430 C   0  0  0  0  0  1  0  0  0  0  0  0
  162.4000  205.4340  152.5420 C   0  0  0  0  0  3  0  0  0  0  0  0
  162.5280  211.5730  149.0010 C   0  0  1  0  0  3  0  0  0  0  0  0
  160.4690  206.7880  148.9500 C   0  0  1  0  0  3  0  0  0  0  0  0
  161.1610  209.9710  154.6930 O   0  0  0  0  0  0  0  0  0  0  0  0
  160.4890  209.6950  153.3780 S   0  0  0  0  0  0  0  0  0  0  0  0
  160.0880  212.2110  152.5280 C   0  0  2  0  0  3  0  0  0  0  0  0
  161.7340  209.6430  152.0860 C   0  0  2  0  0  3  0  0  0  0  0  0
  162.8980  206.7190  148.3390 O   0  0  0  0  0  1  0  0  0  0  0  0
  162.1590  209.2920  149.7150 C   0  0  2  0  0  3  0  0  0  0  0  0
  160.7970  211.8620  151.2300 C   0  0  0  0  0  2  0  0  0  0  0  0
  159.3330  210.9970  153.0310 C   0  0  0  0  0  2  0  0  0  0  0  0
  161.6090  207.1400  147.9880 C   0  0  2  0  0  0  0  0  0  0  0  0
  161.5880  207.2580  151.1490 C   0  0  0  0  0  0  0  0  0  0  0  0
  161.5960  210.8550  148.0400 C   0  0  1  0  0  3  0  0  0  0  0  0
  159.1060  213.3330  152.2720 C   0  0  0  0  0  1  0  0  0  0  0  0
  161.4710  208.5740  147.4870 C   0  0  0  0  0  2  0  0  0  0  0  0
  162.2580  206.8010  152.2970 C   0  0  0  0  0  3  0  0  0  0  0  0
  161.2230  204.9340  150.4900 C   0  0  0  0  0  3  0  0  0  0  0  0
  161.8760  204.5010  151.6450 C   0  0  0  0  0  3  0  0  0  0  0  0
  160.6740  206.0020  147.6570 C   0  0  0  0  0  2  0  0  0  0  0  0
  162.7480  210.6180  150.1540 C   0  0  2  0  0  3  0  0  0  0  0  0
  161.2560  209.5410  148.5800 N   0  0  1  0  0  0  0  0  0  0  0  0
  162.0560  211.0050  151.4700 C   0  0  2  0  0  3  0  0  0  0  0  0
  163.7430  211.8210  148.3650 O   0  0  0  0  0  1  0  0  0  0  0  0
  161.3660  208.7470  150.9120 C   0  0  1  0  0  3  0  0  0  0  0  0
  1 21  2  0  0  0  0
  1 16  1  0  0  0  0
  3 17  1  0  0  0  0
  5 27  1  6  0  0  0
  5 24  1  0  0  0  0
  6 23  1  6  0  0  0
  6  1  1  0  0  0  0
  8  2  2  0  0  0  0
  8  7  2  0  0  0  0
  9 18  1  6  0  0  0
  9 14  1  0  0  0  0
 10  8  1  1  0  0  0
 12 24  1  0  0  0  0
 12 28  1  0  0  0  0
 13 26  1  0  0  0  0
 13  9  1  0  0  0  0
 14  8  1  0  0  0  0
 15 11  1  0  0  0  0
 15  6  1  0  0  0  0
 16 20  2  0  0  0  0
 17 25  1  0  0  0  0
 17  5  1  0  0  0  0
 19 15  1  0  0  0  0
 19 25  1  0  0  0  0
 20  4  1  0  0  0  0
 21 22  1  0  0  0  0
 22  4  2  0  0  0  0
 23 15  1  0  0  0  0
 24 26  1  0  0  0  0
 25 12  1  0  0  0  0
 26 10  1  0  0  0  0
 28 16  1  0  0  0  0
 28 10  1  0  0  0  0
M  END
>  <MODEL>
6

>  <REMARK>
 VINA RESULT:      -2.0      2.690      6.873
  Name = 
  0 active torsions:
  status: ('A' for Active; 'I' for Inactive)
                            x       y       z     vdW  Elec       q    Type
                         _______ _______ _______ _____ _____    ______ ____

>  <TORSDO>
F 0

$$$$
=
 OpenBabel11122414123D

 28 33  0  0  1  0  0  0  0  0999 V2000
  161.1200  206.4230  150.0760 C   0  0  0  0  0  0  0  0  0  0  0  0
  160.3290  206.9580  146.1220 O   0  0  0  0  0  0  0  0  0  0  0  0
  159.0170  201.0760  148.6450 C   0  0  0  0  0  1  0  0  0  0  0  0
  163.0770  208.0540  148.9170 C   0  0  0  0  0  3  0  0  0  0  0  0
  161.4190  201.2200  148.0290 C   0  0  1  0  0  3  0  0  0  0  0  0
  160.1450  205.4890  150.7290 C   0  0  1  0  0  3  0  0  0  0  0  0
  161.7440  206.0340  144.3470 O   0  0  0  0  0  0  0  0  0  0  0  0
  160.8190  205.6900  145.4800 S   0  0  0  0  0  0  0  0  0  0  0  0
  159.8520  203.3470  144.5900 C   0  0  2  0  0  3  0  0  0  0  0  0
  161.7020  204.6750  146.6670 C   0  0  2  0  0  3  0  0  0  0  0  0
  162.3320  204.5550  151.5190 O   0  0  0  0  0  1  0  0  0  0  0  0
  161.5800  203.5070  148.7990 C   0  0  2  0  0  3  0  0  0  0  0  0
  160.2650  202.7040  145.9040 C   0  0  0  0  0  2  0  0  0  0  0  0
  159.4320  204.7820  144.8430 C   0  0  0  0  0  2  0  0  0  0  0  0
  160.9480  204.3700  151.4020 C   0  0  2  0  0  0  0  0  0  0  0  0
  161.6860  206.0570  148.8300 C   0  0  0  0  0  0  0  0  0  0  0  0
  160.3970  201.4900  149.1190 C   0  0  1  0  0  3  0  0  0  0  0  0
  158.6820  202.5840  144.0090 C   0  0  0  0  0  1  0  0  0  0  0  0
  160.4800  203.0010  150.9180 C   0  0  0  0  0  2  0  0  0  0  0  0
  162.6770  206.8830  148.2720 C   0  0  0  0  0  3  0  0  0  0  0  0
  161.5190  207.6060  150.7120 C   0  0  0  0  0  3  0  0  0  0  0  0
  162.4930  208.4200  150.1310 C   0  0  0  0  0  3  0  0  0  0  0  0
  160.1410  205.3240  152.2470 C   0  0  0  0  0  2  0  0  0  0  0  0
  162.0550  202.5570  147.7170 C   0  0  2  0  0  3  0  0  0  0  0  0
  160.3990  202.9140  149.4480 N   0  0  1  0  0  0  0  0  0  0  0  0
  161.6570  203.1770  146.3680 C   0  0  2  0  0  3  0  0  0  0  0  0
  162.3910  200.3460  148.5140 O   0  0  0  0  0  1  0  0  0  0  0  0
  161.1940  204.8160  148.0960 C   0  0  1  0  0  3  0  0  0  0  0  0
  1 21  1  0  0  0  0
  1  6  1  0  0  0  0
  3 17  1  0  0  0  0
  4 22  1  0  0  0  0
  5 27  1  1  0  0  0
  5 17  1  0  0  0  0
  6 15  1  0  0  0  0
  6 23  1  1  0  0  0
  7  8  2  0  0  0  0
  8  2  2  0  0  0  0
  9 18  1  1  0  0  0
  9 14  1  0  0  0  0
  9 13  1  0  0  0  0
 10  8  1  6  0  0  0
 10 28  1  0  0  0  0
 12 25  1  0  0  0  0
 13 26  1  0  0  0  0
 14  8  1  0  0  0  0
 15 11  1  0  0  0  0
 15 23  1  0  0  0  0
 16  1  2  0  0  0  0
 17 25  1  0  0  0  0
 19 15  1  0  0  0  0
 20 16  1  0  0  0  0
 20  4  2  0  0  0  0
 22 21  2  0  0  0  0
 24  5  1  0  0  0  0
 24 12  1  0  0  0  0
 25 19  1  0  0  0  0
 26 10  1  0  0  0  0
 26 24  1  0  0  0  0
 28 12  1  0  0  0  0
 28 16  1  0  0  0  0
M  END
>  <MODEL>
7

>  <REMARK>
 VINA RESULT:      -1.3      4.955      7.848
  Name = 
  0 active torsions:
  status: ('A' for Active; 'I' for Inactive)
                            x       y       z     vdW  Elec       q    Type
                         _______ _______ _______ _____ _____    ______ ____

>  <TORSDO>
F 0

$$$$
=
 OpenBabel11122414123D

 28 33  0  0  1  0  0  0  0  0999 V2000
  160.6710  209.0510  154.6180 C   0  0  0  0  0  0  0  0  0  0  0  0
  157.4740  210.6830  156.5310 O   0  0  0  0  0  0  0  0  0  0  0  0
  158.2620  212.2100  150.2270 C   0  0  0  0  0  1  0  0  0  0  0  0
  161.3570  209.6960  157.2530 C   0  0  0  0  0  3  0  0  0  0  0  0
  159.6710  213.6870  151.6420 C   0  0  1  0  0  3  0  0  0  0  0  0
  160.3810  208.7590  153.1750 C   0  0  1  0  0  3  0  0  0  0  0  0
  157.4030  213.0300  157.2330 O   0  0  0  0  0  0  0  0  0  0  0  0
  157.4520  212.1060  156.0490 S   0  0  0  0  0  0  0  0  0  0  0  0
  156.1900  213.6250  154.2280 C   0  0  2  0  0  3  0  0  0  0  0  0
  158.9190  212.4750  155.0820 C   0  0  2  0  0  3  0  0  0  0  0  0
  162.5720  209.9640  153.0080 O   0  0  0  0  0  1  0  0  0  0  0  0
  160.2470  211.8720  153.1340 C   0  0  2  0  0  3  0  0  0  0  0  0
  157.3760  213.4500  153.2930 C   0  0  0  0  0  2  0  0  0  0  0  0
  156.0070  212.3650  155.0490 C   0  0  0  0  0  2  0  0  0  0  0  0
  161.4540  209.4600  152.3330 C   0  0  2  0  0  0  0  0  0  0  0  0
  160.2920  210.3070  155.1500 C   0  0  0  0  0  0  0  0  0  0  0  0
  159.6060  212.3550  150.9140 C   0  0  1  0  0  3  0  0  0  0  0  0
  154.9420  213.8670  153.4070 C   0  0  0  0  0  1  0  0  0  0  0  0
  160.8130  210.3740  151.2920 C   0  0  0  0  0  2  0  0  0  0  0  0
  160.6580  210.6180  156.4710 C   0  0  0  0  0  3  0  0  0  0  0  0
  161.3630  208.1270  155.4130 C   0  0  0  0  0  3  0  0  0  0  0  0
  161.7020  208.4500  156.7280 C   0  0  0  0  0  3  0  0  0  0  0  0
  161.3760  207.9530  152.3410 C   0  0  0  0  0  2  0  0  0  0  0  0
  159.9190  213.3520  153.0970 C   0  0  2  0  0  3  0  0  0  0  0  0
  159.7920  211.2670  151.8720 N   0  0  1  0  0  0  0  0  0  0  0  0
  158.7220  213.5710  154.0360 C   0  0  2  0  0  3  0  0  0  0  0  0
  160.7420  214.4300  151.1490 O   0  0  0  0  0  1  0  0  0  0  0  0
  159.4660  211.2790  154.3150 C   0  0  1  0  0  3  0  0  0  0  0  0
  1 16  2  0  0  0  0
  1 21  1  0  0  0  0
  3 17  1  0  0  0  0
  5 27  1  6  0  0  0
  5 24  1  0  0  0  0
  6 23  1  1  0  0  0
  6  1  1  0  0  0  0
  8  2  2  0  0  0  0
  8  7  2  0  0  0  0
  9 18  1  6  0  0  0
  9 14  1  0  0  0  0
 10  8  1  6  0  0  0
 12 28  1  0  0  0  0
 13 26  1  0  0  0  0
 13  9  1  0  0  0  0
 14  8  1  0  0  0  0
 15 23  1  0  0  0  0
 15 11  1  0  0  0  0
 15  6  1  0  0  0  0
 16 20  1  0  0  0  0
 17  5  1  0  0  0  0
 17 25  1  0  0  0  0
 19 25  1  0  0  0  0
 19 15  1  0  0  0  0
 20  4  2  0  0  0  0
 21 22  2  0  0  0  0
 22  4  1  0  0  0  0
 24 12  1  0  0  0  0
 24 26  1  0  0  0  0
 25 12  1  0  0  0  0
 26 10  1  0  0  0  0
 28 10  1  0  0  0  0
 28 16  1  0  0  0  0
M  END
>  <MODEL>
8

>  <REMARK>
 VINA RESULT:      -1.2      2.638      6.732
  Name = 
  0 active torsions:
  status: ('A' for Active; 'I' for Inactive)
                            x       y       z     vdW  Elec       q    Type
                         _______ _______ _______ _____ _____    ______ ____

>  <TORSDO>
F 0

$$$$
