=
 OpenBabel11122412403D

 30 35  0  0  1  0  0  0  0  0999 V2000
  161.3910  208.6120  151.7740 C   0  0  0  0  0  0  0  0  0  0  0  0
  161.0650  209.5920  154.0390 C   0  0  0  0  0  0  0  0  0  0  0  0
  160.9400  204.7880  153.2240 N   0  0  0  0  0  2  0  0  0  0  0  0
  161.4270  207.4730  150.9270 C   0  0  0  0  0  0  0  0  0  0  0  0
  161.5750  209.8810  151.2130 O   0  0  0  0  0  0  0  0  0  0  0  0
  161.9430  209.1560  147.7410 O   0  0  0  0  0  0  0  0  0  0  0  0
  162.0730  205.4870  148.5820 C   0  0  1  0  0  3  0  0  0  0  0  0
  161.8430  208.9720  148.9850 C   0  0  0  0  0  0  0  0  0  0  0  0
  161.8570  204.4670  149.6900 C   0  0  2  0  0  3  0  0  0  0  0  0
  161.1510  204.1420  152.0570 C   0  0  0  0  0  0  0  0  0  0  0  0
  162.1780  210.0860  149.9370 C   0  0  1  0  0  3  0  0  0  0  0  0
  161.4900  207.6780  149.5010 N   0  0  0  0  0  0  0  0  0  0  0  0
  160.8120  209.4040  155.4020 C   0  0  0  0  0  3  0  0  0  0  0  0
  160.9660  203.3990  149.0890 C   0  0  0  0  0  2  0  0  0  0  0  0
  161.9620  204.7010  147.2850 C   0  0  0  0  0  2  0  0  0  0  0  0
  161.2370  210.8920  153.5760 O   0  0  0  0  0  1  0  0  0  0  0  0
  161.0370  206.0800  152.8670 C   0  0  0  0  0  0  0  0  0  0  0  0
  160.6310  208.1240  155.9220 C   0  0  0  0  0  3  0  0  0  0  0  0
  161.1380  208.4770  153.1690 C   0  0  0  0  0  0  0  0  0  0  0  0
  161.2860  206.2020  151.5230 C   0  0  0  0  0  0  0  0  0  0  0  0
  161.1920  202.8840  151.9870 O   0  0  0  0  0  0  0  0  0  0  0  0
  161.3540  204.9560  150.9870 N   0  0  0  0  0  0  0  0  0  0  0  0
  161.3500  203.3500  147.6260 C   0  0  0  0  0  2  0  0  0  0  0  0
  159.6170  206.2770  148.7030 C   0  0  0  0  0  1  0  0  0  0  0  0
  160.7010  207.0140  155.0830 C   0  0  0  0  0  3  0  0  0  0  0  0
  160.9500  207.1800  153.7170 C   0  0  0  0  0  0  0  0  0  0  0  0
  161.0900  206.6500  148.5530 C   0  0  2  0  0  3  0  0  0  0  0  0
  161.8060  211.4650  149.3960 C   0  0  0  0  0  2  0  0  0  0  0  0
  162.4700  213.3870  147.9800 C   0  0  0  0  0  1  0  0  0  0  0  0
  162.8650  212.0020  148.4460 C   0  0  0  0  0  2  0  0  0  0  0  0
  1 19  1  0  0  0  0
  2 13  1  0  0  0  0
  4 20  1  0  0  0  0
  4  1  2  0  0  0  0
  5  1  1  0  0  0  0
  6  8  2  0  0  0  0
  7 15  1  6  0  0  0
  7  9  1  0  0  0  0
  8 12  1  0  0  0  0
  8 11  1  0  0  0  0
  9 14  1  6  0  0  0
  9 22  1  0  0  0  0
 10  3  1  0  0  0  0
 11 28  1  6  0  0  0
 11  5  1  0  0  0  0
 12  4  1  0  0  0  0
 13 18  2  0  0  0  0
 15 23  1  0  0  0  0
 16  2  1  0  0  0  0
 17  3  1  0  0  0  0
 17 26  1  0  0  0  0
 19 26  1  0  0  0  0
 19  2  2  0  0  0  0
 20 17  2  0  0  0  0
 21 10  2  0  0  0  0
 22 20  1  0  0  0  0
 22 10  1  0  0  0  0
 23 14  1  0  0  0  0
 25 18  1  0  0  0  0
 26 25  2  0  0  0  0
 27  7  1  0  0  0  0
 27 24  1  1  0  0  0
 27 12  1  0  0  0  0
 29 30  1  0  0  0  0
 30 28  1  0  0  0  0
M  END
>  <MODEL>
1

>  <REMARK>
 VINA RESULT:      -8.0      0.000      0.000
  Name = 
  2 active torsions:
  status: ('A' for Active; 'I' for Inactive)
    1  A    between atoms: C_11  and  C_28
    2  A    between atoms: C_28  and  C_30
                            x       y       z     vdW  Elec       q    Type
                         _______ _______ _______ _____ _____    ______ ____

>  <TORSDO>
F 2

$$$$
=
 OpenBabel11122412403D

 30 35  0  0  1  0  0  0  0  0999 V2000
  161.0010  204.6100  148.7590 C   0  0  0  0  0  0  0  0  0  0  0  0
  160.9590  202.1680  148.2740 C   0  0  0  0  0  0  0  0  0  0  0  0
  161.0750  203.9330  152.8170 N   0  0  0  0  0  2  0  0  0  0  0  0
  161.0770  205.6700  149.7000 C   0  0  0  0  0  0  0  0  0  0  0  0
  160.9570  204.9170  147.3940 O   0  0  0  0  0  0  0  0  0  0  0  0
  161.1750  208.4760  147.3850 O   0  0  0  0  0  0  0  0  0  0  0  0
  160.7870  208.4490  151.1320 C   0  0  1  0  0  3  0  0  0  0  0  0
  161.0520  207.2980  147.8200 C   0  0  0  0  0  0  0  0  0  0  0  0
  160.7760  207.5580  152.3640 C   0  0  2  0  0  3  0  0  0  0  0  0
  161.0490  205.2270  153.2010 C   0  0  0  0  0  0  0  0  0  0  0  0
  160.5920  206.2040  146.8990 C   0  0  1  0  0  3  0  0  0  0  0  0
  161.2690  207.0120  149.2110 N   0  0  0  0  0  0  0  0  0  0  0  0
  160.9650  200.8520  148.7460 C   0  0  0  0  0  3  0  0  0  0  0  0
  161.7240  208.2140  153.3470 C   0  0  0  0  0  2  0  0  0  0  0  0
  161.0970  209.8450  151.6480 C   0  0  0  0  0  2  0  0  0  0  0  0
  160.9110  202.3730  146.9000 O   0  0  0  0  0  1  0  0  0  0  0  0
  161.0820  204.0240  151.4760 C   0  0  0  0  0  0  0  0  0  0  0  0
  161.0130  200.5860  150.1130 C   0  0  0  0  0  3  0  0  0  0  0  0
  161.0040  203.2510  149.1860 C   0  0  0  0  0  0  0  0  0  0  0  0
  161.0730  205.3360  151.0720 C   0  0  0  0  0  0  0  0  0  0  0  0
  160.9820  205.5630  154.4140 O   0  0  0  0  0  0  0  0  0  0  0  0
  161.0600  206.1230  152.1780 N   0  0  0  0  0  0  0  0  0  0  0  0
  161.5980  209.6980  153.0780 C   0  0  0  0  0  2  0  0  0  0  0  0
  163.2080  207.7670  150.5460 C   0  0  0  0  0  1  0  0  0  0  0  0
  161.0560  201.6380  151.0270 C   0  0  0  0  0  3  0  0  0  0  0  0
  161.0530  202.9620  150.5760 C   0  0  0  0  0  0  0  0  0  0  0  0
  161.7950  208.0750  150.0540 C   0  0  2  0  0  3  0  0  0  0  0  0
  161.0940  206.3780  145.4670 C   0  0  0  0  0  2  0  0  0  0  0  0
  163.0710  204.8850  145.5050 C   0  0  0  0  0  1  0  0  0  0  0  0
  161.6910  205.0910  144.9190 C   0  0  0  0  0  2  0  0  0  0  0  0
  1 19  2  0  0  0  0
  1  4  1  0  0  0  0
  2 13  2  0  0  0  0
  2 19  1  0  0  0  0
  3 10  1  0  0  0  0
  4 20  2  0  0  0  0
  5  1  1  0  0  0  0
  6  8  2  0  0  0  0
  7 15  1  1  0  0  0
  7  9  1  0  0  0  0
  8 12  1  0  0  0  0
  9 14  1  1  0  0  0
 10 21  2  0  0  0  0
 11 28  1  6  0  0  0
 11  5  1  0  0  0  0
 11  8  1  0  0  0  0
 12  4  1  0  0  0  0
 12 27  1  0  0  0  0
 13 18  1  0  0  0  0
 15 23  1  0  0  0  0
 16  2  1  0  0  0  0
 17  3  1  0  0  0  0
 18 25  2  0  0  0  0
 19 26  1  0  0  0  0
 20 17  1  0  0  0  0
 20 22  1  0  0  0  0
 22  9  1  0  0  0  0
 22 10  1  0  0  0  0
 23 14  1  0  0  0  0
 26 25  1  0  0  0  0
 26 17  2  0  0  0  0
 27 24  1  1  0  0  0
 27  7  1  0  0  0  0
 30 28  1  0  0  0  0
 30 29  1  0  0  0  0
M  END
>  <MODEL>
2

>  <REMARK>
 VINA RESULT:      -7.4      2.346      5.939
  Name = 
  2 active torsions:
  status: ('A' for Active; 'I' for Inactive)
    1  A    between atoms: C_11  and  C_28
    2  A    between atoms: C_28  and  C_30
                            x       y       z     vdW  Elec       q    Type
                         _______ _______ _______ _____ _____    ______ ____

>  <TORSDO>
F 2

$$$$
=
 OpenBabel11122412403D

 30 35  0  0  1  0  0  0  0  0999 V2000
  161.4370  207.9820  151.4420 C   0  0  0  0  0  0  0  0  0  0  0  0
  161.9040  210.3620  150.8770 C   0  0  0  0  0  0  0  0  0  0  0  0
  161.5560  206.8840  147.4790 N   0  0  0  0  0  2  0  0  0  0  0  0
  161.2740  206.6350  151.0260 C   0  0  0  0  0  0  0  0  0  0  0  0
  161.3610  208.2860  152.8070 O   0  0  0  0  0  0  0  0  0  0  0  0
  160.8500  205.0840  154.2920 O   0  0  0  0  0  0  0  0  0  0  0  0
  160.3910  203.6270  150.8480 C   0  0  1  0  0  3  0  0  0  0  0  0
  160.9590  205.9740  153.4040 C   0  0  0  0  0  0  0  0  0  0  0  0
  160.5340  203.9090  149.3600 C   0  0  2  0  0  3  0  0  0  0  0  0
  161.2590  205.5800  147.6590 C   0  0  0  0  0  0  0  0  0  0  0  0
  160.7520  207.4180  153.7620 C   0  0  1  0  0  3  0  0  0  0  0  0
  161.1990  205.6080  152.0350 N   0  0  0  0  0  0  0  0  0  0  0  0
  162.1680  211.3340  149.9070 C   0  0  0  0  0  3  0  0  0  0  0  0
  161.3070  202.7340  148.7980 C   0  0  0  0  0  2  0  0  0  0  0  0
  160.3990  202.1120  150.9720 C   0  0  0  0  0  2  0  0  0  0  0  0
  161.8460  210.7600  152.2080 O   0  0  0  0  0  1  0  0  0  0  0  0
  161.5740  207.3590  148.7360 C   0  0  0  0  0  0  0  0  0  0  0  0
  162.2380  210.9920  148.5580 C   0  0  0  0  0  3  0  0  0  0  0  0
  161.7060  209.0120  150.4960 C   0  0  0  0  0  0  0  0  0  0  0  0
  161.3080  206.3620  149.6420 C   0  0  0  0  0  0  0  0  0  0  0  0
  161.0970  204.7910  146.6900 O   0  0  0  0  0  0  0  0  0  0  0  0
  161.1100  205.2060  148.9580 N   0  0  0  0  0  0  0  0  0  0  0  0
  160.8870  201.5510  149.6440 C   0  0  0  0  0  2  0  0  0  0  0  0
  162.9130  204.0060  151.2580 C   0  0  0  0  0  1  0  0  0  0  0  0
  162.0450  209.6700  148.1620 C   0  0  0  0  0  3  0  0  0  0  0  0
  161.7830  208.6820  149.1160 C   0  0  0  0  0  0  0  0  0  0  0  0
  161.4790  204.2110  151.7400 C   0  0  2  0  0  3  0  0  0  0  0  0
  161.2410  207.7610  155.1680 C   0  0  0  0  0  2  0  0  0  0  0  0
  160.1480  207.0060  157.2590 C   0  0  0  0  0  1  0  0  0  0  0  0
  160.0830  208.0040  156.1240 C   0  0  0  0  0  2  0  0  0  0  0  0
  1  5  1  0  0  0  0
  2 16  1  0  0  0  0
  3 10  1  0  0  0  0
  3 17  1  0  0  0  0
  4  1  1  0  0  0  0
  4 12  1  0  0  0  0
  5 11  1  0  0  0  0
  7 15  1  6  0  0  0
  7 27  1  0  0  0  0
  8 11  1  0  0  0  0
  8  6  2  0  0  0  0
  9 14  1  1  0  0  0
  9  7  1  0  0  0  0
 10 22  1  0  0  0  0
 11 28  1  1  0  0  0
 12  8  1  0  0  0  0
 13  2  2  0  0  0  0
 14 23  1  0  0  0  0
 17 26  2  0  0  0  0
 17 20  1  0  0  0  0
 18 13  1  0  0  0  0
 19  2  1  0  0  0  0
 19  1  2  0  0  0  0
 20  4  2  0  0  0  0
 21 10  2  0  0  0  0
 22  9  1  0  0  0  0
 22 20  1  0  0  0  0
 23 15  1  0  0  0  0
 25 18  2  0  0  0  0
 25 26  1  0  0  0  0
 26 19  1  0  0  0  0
 27 24  1  6  0  0  0
 27 12  1  0  0  0  0
 28 30  1  0  0  0  0
 30 29  1  0  0  0  0
M  END
>  <MODEL>
3

>  <REMARK>
 VINA RESULT:      -6.7      1.635      5.155
  Name = 
  2 active torsions:
  status: ('A' for Active; 'I' for Inactive)
    1  A    between atoms: C_11  and  C_28
    2  A    between atoms: C_28  and  C_30
                            x       y       z     vdW  Elec       q    Type
                         _______ _______ _______ _____ _____    ______ ____

>  <TORSDO>
F 2

$$$$
=
 OpenBabel11122412403D

 30 35  0  0  1  0  0  0  0  0999 V2000
  161.2820  208.7050  151.6070 C   0  0  0  0  0  0  0  0  0  0  0  0
  161.6710  210.9970  150.7170 C   0  0  0  0  0  0  0  0  0  0  0  0
  161.6030  207.0530  147.8520 N   0  0  0  0  0  2  0  0  0  0  0  0
  161.1920  207.3050  151.3870 C   0  0  0  0  0  0  0  0  0  0  0  0
  161.1390  209.1980  152.9090 O   0  0  0  0  0  0  0  0  0  0  0  0
  160.7040  206.2230  154.8280 O   0  0  0  0  0  0  0  0  0  0  0  0
  160.4430  204.2650  151.6210 C   0  0  1  0  0  3  0  0  0  0  0  0
  160.8110  206.9800  153.8240 C   0  0  0  0  0  0  0  0  0  0  0  0
  160.6340  204.3360  150.1130 C   0  0  2  0  0  3  0  0  0  0  0  0
  161.3540  205.7760  148.2110 C   0  0  0  0  0  0  0  0  0  0  0  0
  160.5300  208.4500  153.9600 C   0  0  1  0  0  3  0  0  0  0  0  0
  161.1200  206.4320  152.5320 N   0  0  0  0  0  0  0  0  0  0  0  0
  161.9320  211.8300  149.6240 C   0  0  0  0  0  3  0  0  0  0  0  0
  161.4760  203.1290  149.7530 C   0  0  0  0  0  2  0  0  0  0  0  0
  160.5100  202.7850  151.9640 C   0  0  0  0  0  2  0  0  0  0  0  0
  161.5430  211.5800  151.9720 O   0  0  0  0  0  1  0  0  0  0  0  0
  161.5520  207.7040  149.0270 C   0  0  0  0  0  0  0  0  0  0  0  0
  162.0700  211.3020  148.3420 C   0  0  0  0  0  3  0  0  0  0  0  0
  161.5450  209.5990  150.5290 C   0  0  0  0  0  0  0  0  0  0  0  0
  161.2920  206.8380  150.0590 C   0  0  0  0  0  0  0  0  0  0  0  0
  161.2640  204.8480  147.3630 O   0  0  0  0  0  0  0  0  0  0  0  0
  161.1700  205.5860  149.5450 N   0  0  0  0  0  0  0  0  0  0  0  0
  161.0730  202.0630  150.7490 C   0  0  0  0  0  2  0  0  0  0  0  0
  162.9290  204.8170  152.0540 C   0  0  0  0  0  1  0  0  0  0  0  0
  161.9480  209.9290  148.1370 C   0  0  0  0  0  3  0  0  0  0  0  0
  161.6900  209.0770  149.2160 C   0  0  0  0  0  0  0  0  0  0  0  0
  161.4700  205.0220  152.4520 C   0  0  2  0  0  3  0  0  0  0  0  0
  160.9480  209.0140  155.3170 C   0  0  0  0  0  2  0  0  0  0  0  0
  162.6990  210.6590  155.9200 C   0  0  0  0  0  1  0  0  0  0  0  0
  161.3740  210.4710  155.2140 C   0  0  0  0  0  2  0  0  0  0  0  0
  1  5  1  0  0  0  0
  2 16  1  0  0  0  0
  3 10  1  0  0  0  0
  3 17  1  0  0  0  0
  4  1  1  0  0  0  0
  4 12  1  0  0  0  0
  5 11  1  0  0  0  0
  7 15  1  1  0  0  0
  7 27  1  0  0  0  0
  8 11  1  0  0  0  0
  8  6  2  0  0  0  0
  9 14  1  1  0  0  0
  9  7  1  0  0  0  0
 10 22  1  0  0  0  0
 11 28  1  1  0  0  0
 12  8  1  0  0  0  0
 13  2  2  0  0  0  0
 14 23  1  0  0  0  0
 17 26  2  0  0  0  0
 17 20  1  0  0  0  0
 18 13  1  0  0  0  0
 19  2  1  0  0  0  0
 19  1  2  0  0  0  0
 20  4  2  0  0  0  0
 21 10  2  0  0  0  0
 22 20  1  0  0  0  0
 22  9  1  0  0  0  0
 23 15  1  0  0  0  0
 25 18  2  0  0  0  0
 25 26  1  0  0  0  0
 26 19  1  0  0  0  0
 27 24  1  6  0  0  0
 27 12  1  0  0  0  0
 30 28  1  0  0  0  0
 30 29  1  0  0  0  0
M  END
>  <MODEL>
4

>  <REMARK>
 VINA RESULT:      -6.4      1.696      4.840
  Name = 
  2 active torsions:
  status: ('A' for Active; 'I' for Inactive)
    1  A    between atoms: C_11  and  C_28
    2  A    between atoms: C_28  and  C_30
                            x       y       z     vdW  Elec       q    Type
                         _______ _______ _______ _____ _____    ______ ____

>  <TORSDO>
F 2

$$$$
=
 OpenBabel11122412403D

 30 35  0  0  1  0  0  0  0  0999 V2000
  161.3540  207.8610  151.1420 C   0  0  0  0  0  0  0  0  0  0  0  0
  161.5960  205.6760  149.9720 C   0  0  0  0  0  0  0  0  0  0  0  0
  160.5140  206.0000  154.7140 N   0  0  0  0  0  2  0  0  0  0  0  0
  161.1320  208.5900  152.3390 C   0  0  0  0  0  0  0  0  0  0  0  0
  161.6120  208.5620  149.9580 O   0  0  0  0  0  0  0  0  0  0  0  0
  161.5810  211.9600  151.0400 O   0  0  0  0  0  0  0  0  0  0  0  0
  160.3220  210.8150  154.4010 C   0  0  1  0  0  3  0  0  0  0  0  0
  161.4400  210.7060  151.0690 C   0  0  0  0  0  0  0  0  0  0  0  0
  160.0820  209.5960  155.2780 C   0  0  2  0  0  3  0  0  0  0  0  0
  160.3100  207.1200  155.4400 C   0  0  0  0  0  0  0  0  0  0  0  0
  161.2860  209.9400  149.7860 C   0  0  1  0  0  3  0  0  0  0  0  0
  161.3420  210.0160  152.3250 N   0  0  0  0  0  0  0  0  0  0  0  0
  161.5810  204.2790  150.0270 C   0  0  0  0  0  3  0  0  0  0  0  0
  160.7240  209.9230  156.6110 C   0  0  0  0  0  2  0  0  0  0  0  0
  160.4050  211.9910  155.3610 C   0  0  0  0  0  2  0  0  0  0  0  0
  161.8590  206.2830  148.7490 O   0  0  0  0  0  1  0  0  0  0  0  0
  160.8310  206.4880  153.5030 C   0  0  0  0  0  0  0  0  0  0  0  0
  161.3230  203.6160  151.2250 C   0  0  0  0  0  3  0  0  0  0  0  0
  161.3490  206.4360  151.1410 C   0  0  0  0  0  0  0  0  0  0  0  0
  160.8280  207.8610  153.5090 C   0  0  0  0  0  0  0  0  0  0  0  0
  159.9350  207.0780  156.6430 O   0  0  0  0  0  0  0  0  0  0  0  0
  160.5000  208.2810  154.7580 N   0  0  0  0  0  0  0  0  0  0  0  0
  160.5630  211.4200  156.7630 C   0  0  0  0  0  2  0  0  0  0  0  0
  162.8540  210.3270  154.2550 C   0  0  0  0  0  1  0  0  0  0  0  0
  161.0760  204.3460  152.3870 C   0  0  0  0  0  3  0  0  0  0  0  0
  161.0890  205.7440  152.3540 C   0  0  0  0  0  0  0  0  0  0  0  0
  161.5800  210.7750  153.5430 C   0  0  2  0  0  3  0  0  0  0  0  0
  162.1000  210.5320  148.6360 C   0  0  0  0  0  2  0  0  0  0  0  0
  162.2190  212.7900  147.6230 C   0  0  0  0  0  1  0  0  0  0  0  0
  161.3200  211.6010  147.8860 C   0  0  0  0  0  2  0  0  0  0  0  0
  1  4  1  0  0  0  0
  2 13  2  0  0  0  0
  2 19  1  0  0  0  0
  3 10  1  0  0  0  0
  4 20  2  0  0  0  0
  5  1  1  0  0  0  0
  6  8  2  0  0  0  0
  7  9  1  0  0  0  0
  7 15  1  1  0  0  0
  8 12  1  0  0  0  0
  9 14  1  1  0  0  0
 10 21  2  0  0  0  0
 11 28  1  6  0  0  0
 11  5  1  0  0  0  0
 11  8  1  0  0  0  0
 12  4  1  0  0  0  0
 12 27  1  0  0  0  0
 13 18  1  0  0  0  0
 14 23  1  0  0  0  0
 15 23  1  0  0  0  0
 16  2  1  0  0  0  0
 17 20  1  0  0  0  0
 17  3  1  0  0  0  0
 18 25  2  0  0  0  0
 19  1  2  0  0  0  0
 19 26  1  0  0  0  0
 20 22  1  0  0  0  0
 22  9  1  0  0  0  0
 22 10  1  0  0  0  0
 26 25  1  0  0  0  0
 26 17  2  0  0  0  0
 27 24  1  1  0  0  0
 27  7  1  0  0  0  0
 29 30  1  0  0  0  0
 30 28  1  0  0  0  0
M  END
>  <MODEL>
5

>  <REMARK>
 VINA RESULT:      -5.8      1.941      5.627
  Name = 
  2 active torsions:
  status: ('A' for Active; 'I' for Inactive)
    1  A    between atoms: C_11  and  C_28
    2  A    between atoms: C_28  and  C_30
                            x       y       z     vdW  Elec       q    Type
                         _______ _______ _______ _____ _____    ______ ____

>  <TORSDO>
F 2

$$$$
=
 OpenBabel11122412403D

 30 35  0  0  1  0  0  0  0  0999 V2000
  161.4790  206.0830  150.3150 C   0  0  0  0  0  0  0  0  0  0  0  0
  161.1240  205.3440  152.6660 C   0  0  0  0  0  0  0  0  0  0  0  0
  160.8800  202.2700  148.8900 N   0  0  0  0  0  2  0  0  0  0  0  0
  161.5040  205.7820  148.9280 C   0  0  0  0  0  0  0  0  0  0  0  0
  161.7150  207.4000  150.7280 O   0  0  0  0  0  0  0  0  0  0  0  0
  162.1500  209.1230  147.6370 O   0  0  0  0  0  0  0  0  0  0  0  0
  162.1520  205.8040  145.8550 C   0  0  1  0  0  3  0  0  0  0  0  0
  162.0130  208.1700  148.4530 C   0  0  0  0  0  0  0  0  0  0  0  0
  161.8770  204.3170  146.0180 C   0  0  2  0  0  3  0  0  0  0  0  0
  161.1020  202.5430  147.5870 C   0  0  0  0  0  0  0  0  0  0  0  0
  162.3550  208.3690  149.9020 C   0  0  1  0  0  3  0  0  0  0  0  0
  161.6100  206.8710  147.9900 N   0  0  0  0  0  0  0  0  0  0  0  0
  160.8310  204.3160  153.5680 C   0  0  0  0  0  3  0  0  0  0  0  0
  160.9720  203.9430  144.8630 C   0  0  0  0  0  2  0  0  0  0  0  0
  162.0500  206.0700  144.3620 C   0  0  0  0  0  2  0  0  0  0  0  0
  161.3450  206.6190  153.1720 O   0  0  0  0  0  1  0  0  0  0  0  0
  161.0230  203.4730  149.4720 C   0  0  0  0  0  0  0  0  0  0  0  0
  160.6000  203.0180  153.1180 C   0  0  0  0  0  3  0  0  0  0  0  0
  161.1870  205.0730  151.2770 C   0  0  0  0  0  0  0  0  0  0  0  0
  161.3100  204.4390  148.5400 C   0  0  0  0  0  0  0  0  0  0  0  0
  161.1080  201.6410  146.7060 O   0  0  0  0  0  0  0  0  0  0  0  0
  161.3560  203.8510  147.3160 N   0  0  0  0  0  0  0  0  0  0  0  0
  161.3920  204.8540  143.7290 C   0  0  0  0  0  2  0  0  0  0  0  0
  159.7170  206.4150  146.4660 C   0  0  0  0  0  1  0  0  0  0  0  0
  160.6590  202.7310  151.7550 C   0  0  0  0  0  3  0  0  0  0  0  0
  160.9470  203.7450  150.8360 C   0  0  0  0  0  0  0  0  0  0  0  0
  161.2040  206.7360  146.5990 C   0  0  2  0  0  3  0  0  0  0  0  0
  162.0380  209.7770  150.4030 C   0  0  0  0  0  2  0  0  0  0  0  0
  160.6920  210.3360  152.4060 C   0  0  0  0  0  1  0  0  0  0  0  0
  162.0410  209.8500  151.9220 C   0  0  0  0  0  2  0  0  0  0  0  0
  1  5  1  0  0  0  0
  1 19  1  0  0  0  0
  2 16  1  0  0  0  0
  2 13  1  0  0  0  0
  3 17  1  0  0  0  0
  4  1  2  0  0  0  0
  6  8  2  0  0  0  0
  7 15  1  6  0  0  0
  7  9  1  0  0  0  0
  7 27  1  0  0  0  0
  8 11  1  0  0  0  0
  9 14  1  6  0  0  0
  9 22  1  0  0  0  0
 10  3  1  0  0  0  0
 11 28  1  1  0  0  0
 11  5  1  0  0  0  0
 12  8  1  0  0  0  0
 12  4  1  0  0  0  0
 17 26  1  0  0  0  0
 18 13  2  0  0  0  0
 19  2  2  0  0  0  0
 20  4  1  0  0  0  0
 20 17  2  0  0  0  0
 21 10  2  0  0  0  0
 22 10  1  0  0  0  0
 22 20  1  0  0  0  0
 23 15  1  0  0  0  0
 23 14  1  0  0  0  0
 25 18  1  0  0  0  0
 26 19  1  0  0  0  0
 26 25  2  0  0  0  0
 27 24  1  1  0  0  0
 27 12  1  0  0  0  0
 28 30  1  0  0  0  0
 30 29  1  0  0  0  0
M  END
>  <MODEL>
6

>  <REMARK>
 VINA RESULT:      -5.6      2.445      3.858
  Name = 
  2 active torsions:
  status: ('A' for Active; 'I' for Inactive)
    1  A    between atoms: C_11  and  C_28
    2  A    between atoms: C_28  and  C_30
                            x       y       z     vdW  Elec       q    Type
                         _______ _______ _______ _____ _____    ______ ____

>  <TORSDO>
F 2

$$$$
=
 OpenBabel11122412403D

 30 35  0  0  1  0  0  0  0  0999 V2000
  160.1490  211.9160  151.9390 C   0  0  0  0  0  0  0  0  0  0  0  0
  160.7520  213.1670  149.8730 C   0  0  0  0  0  0  0  0  0  0  0  0
  162.3260  208.6360  150.7420 N   0  0  0  0  0  2  0  0  0  0  0  0
  160.2720  210.7550  152.7470 C   0  0  0  0  0  0  0  0  0  0  0  0
  159.3720  212.9850  152.4010 O   0  0  0  0  0  0  0  0  0  0  0  0
  158.2890  211.8390  155.6000 O   0  0  0  0  0  0  0  0  0  0  0  0
  159.7180  208.4460  154.8010 C   0  0  1  0  0  3  0  0  0  0  0  0
  158.8070  211.8240  154.4490 C   0  0  0  0  0  0  0  0  0  0  0  0
  160.5940  207.6750  153.8260 C   0  0  2  0  0  3  0  0  0  0  0  0
  162.0270  207.8450  151.7940 C   0  0  0  0  0  0  0  0  0  0  0  0
  158.3920  212.8450  153.4270 C   0  0  1  0  0  3  0  0  0  0  0  0
  159.7280  210.7850  154.0810 N   0  0  0  0  0  0  0  0  0  0  0  0
  161.4410  213.2120  148.6560 C   0  0  0  0  0  3  0  0  0  0  0  0
  161.5890  206.9200  154.6840 C   0  0  0  0  0  2  0  0  0  0  0  0
  159.7170  207.6220  156.0780 C   0  0  0  0  0  2  0  0  0  0  0  0
  160.0040  214.2780  150.2460 O   0  0  0  0  0  1  0  0  0  0  0  0
  161.6790  209.7760  151.0370 C   0  0  0  0  0  0  0  0  0  0  0  0
  162.2060  212.1280  148.2310 C   0  0  0  0  0  3  0  0  0  0  0  0
  160.8290  212.0130  150.6900 C   0  0  0  0  0  0  0  0  0  0  0  0
  161.0220  209.6730  152.2370 C   0  0  0  0  0  0  0  0  0  0  0  0
  162.4150  206.6480  151.8630 O   0  0  0  0  0  0  0  0  0  0  0  0
  161.2460  208.4310  152.7410 N   0  0  0  0  0  0  0  0  0  0  0  0
  160.8380  206.5990  155.9580 C   0  0  0  0  0  2  0  0  0  0  0  0
  161.6560  210.0330  155.4330 C   0  0  0  0  0  1  0  0  0  0  0  0
  162.2930  210.9820  149.0200 C   0  0  0  0  0  3  0  0  0  0  0  0
  161.6140  210.9180  150.2420 C   0  0  0  0  0  0  0  0  0  0  0  0
  160.1710  209.8650  155.1180 C   0  0  2  0  0  3  0  0  0  0  0  0
  158.0760  214.2080  154.0400 C   0  0  0  0  0  2  0  0  0  0  0  0
  155.9220  214.0450  152.8280 C   0  0  0  0  0  1  0  0  0  0  0  0
  156.5780  214.4530  154.1290 C   0  0  0  0  0  2  0  0  0  0  0  0
  1  5  1  0  0  0  0
  1  4  1  0  0  0  0
  2 16  1  0  0  0  0
  2 19  1  0  0  0  0
  3 17  1  0  0  0  0
  3 10  1  0  0  0  0
  4 12  1  0  0  0  0
  5 11  1  0  0  0  0
  7 27  1  0  0  0  0
  7 15  1  1  0  0  0
  8  6  2  0  0  0  0
  9 14  1  1  0  0  0
  9  7  1  0  0  0  0
 10 21  2  0  0  0  0
 10 22  1  0  0  0  0
 11 28  1  1  0  0  0
 11  8  1  0  0  0  0
 12  8  1  0  0  0  0
 12 27  1  0  0  0  0
 13  2  2  0  0  0  0
 14 23  1  0  0  0  0
 17 20  1  0  0  0  0
 18 13  1  0  0  0  0
 18 25  2  0  0  0  0
 19  1  2  0  0  0  0
 20 22  1  0  0  0  0
 20  4  2  0  0  0  0
 22  9  1  0  0  0  0
 23 15  1  0  0  0  0
 25 26  1  0  0  0  0
 26 19  1  0  0  0  0
 26 17  2  0  0  0  0
 27 24  1  6  0  0  0
 28 30  1  0  0  0  0
 29 30  1  0  0  0  0
M  END
>  <MODEL>
7

>  <REMARK>
 VINA RESULT:      -5.5      3.113      6.416
  Name = 
  2 active torsions:
  status: ('A' for Active; 'I' for Inactive)
    1  A    between atoms: C_11  and  C_28
    2  A    between atoms: C_28  and  C_30
                            x       y       z     vdW  Elec       q    Type
                         _______ _______ _______ _____ _____    ______ ____

>  <TORSDO>
F 2

$$$$
=
 OpenBabel11122412403D

 30 35  0  0  1  0  0  0  0  0999 V2000
  161.5190  207.6240  150.8630 C   0  0  0  0  0  0  0  0  0  0  0  0
  161.1850  207.8030  153.3240 C   0  0  0  0  0  0  0  0  0  0  0  0
  161.1050  203.5320  150.9750 N   0  0  0  0  0  2  0  0  0  0  0  0
  161.5670  206.8280  149.6890 C   0  0  0  0  0  0  0  0  0  0  0  0
  161.6910  209.0090  150.7520 O   0  0  0  0  0  0  0  0  0  0  0  0
  162.0650  209.4690  147.2350 O   0  0  0  0  0  0  0  0  0  0  0  0
  162.2310  205.7280  146.8240 C   0  0  1  0  0  3  0  0  0  0  0  0
  161.9670  208.8850  148.3490 C   0  0  0  0  0  0  0  0  0  0  0  0
  162.0240  204.3990  147.5350 C   0  0  2  0  0  3  0  0  0  0  0  0
  161.3220  203.3080  149.6620 C   0  0  0  0  0  0  0  0  0  0  0  0
  162.2920  209.6270  149.6150 C   0  0  1  0  0  3  0  0  0  0  0  0
  161.6270  207.4900  148.4110 N   0  0  0  0  0  0  0  0  0  0  0  0
  160.9340  207.1760  154.5490 C   0  0  0  0  0  3  0  0  0  0  0  0
  161.1440  203.5790  146.6140 C   0  0  0  0  0  2  0  0  0  0  0  0
  162.1260  205.4110  145.3410 C   0  0  0  0  0  2  0  0  0  0  0  0
  161.3440  209.1840  153.3140 O   0  0  0  0  0  1  0  0  0  0  0  0
  161.1900  204.8710  151.0640 C   0  0  0  0  0  0  0  0  0  0  0  0
  160.7660  205.7940  154.6190 C   0  0  0  0  0  3  0  0  0  0  0  0
  161.2680  207.0360  152.1370 C   0  0  0  0  0  0  0  0  0  0  0  0
  161.4370  205.4300  149.8350 C   0  0  0  0  0  0  0  0  0  0  0  0
  161.3750  202.1430  149.1830 O   0  0  0  0  0  0  0  0  0  0  0  0
  161.5170  204.4300  148.9190 N   0  0  0  0  0  0  0  0  0  0  0  0
  161.5280  204.0170  145.2170 C   0  0  0  0  0  2  0  0  0  0  0  0
  159.7670  206.4120  147.1910 C   0  0  0  0  0  1  0  0  0  0  0  0
  160.8460  205.0220  153.4630 C   0  0  0  0  0  3  0  0  0  0  0  0
  161.0930  205.6300  152.2270 C   0  0  0  0  0  0  0  0  0  0  0  0
  161.2370  206.8260  147.1760 C   0  0  2  0  0  3  0  0  0  0  0  0
  161.9060  211.1040  149.5560 C   0  0  0  0  0  2  0  0  0  0  0  0
  161.8490  213.1670  148.1860 C   0  0  0  0  0  1  0  0  0  0  0  0
  162.4260  211.7730  148.2930 C   0  0  0  0  0  2  0  0  0  0  0  0
  1 19  1  0  0  0  0
  2 13  1  0  0  0  0
  3 17  1  0  0  0  0
  4 20  1  0  0  0  0
  4  1  2  0  0  0  0
  5  1  1  0  0  0  0
  6  8  2  0  0  0  0
  7 15  1  6  0  0  0
  7 27  1  0  0  0  0
  7  9  1  0  0  0  0
  8 12  1  0  0  0  0
  8 11  1  0  0  0  0
  9 14  1  6  0  0  0
  9 22  1  0  0  0  0
 10  3  1  0  0  0  0
 11 28  1  6  0  0  0
 11  5  1  0  0  0  0
 12  4  1  0  0  0  0
 13 18  2  0  0  0  0
 16  2  1  0  0  0  0
 17 26  1  0  0  0  0
 19 26  1  0  0  0  0
 19  2  2  0  0  0  0
 20 17  2  0  0  0  0
 21 10  2  0  0  0  0
 22 10  1  0  0  0  0
 22 20  1  0  0  0  0
 23 15  1  0  0  0  0
 23 14  1  0  0  0  0
 25 18  1  0  0  0  0
 26 25  2  0  0  0  0
 27 24  1  1  0  0  0
 27 12  1  0  0  0  0
 29 30  1  0  0  0  0
 30 28  1  0  0  0  0
M  END
>  <MODEL>
8

>  <REMARK>
 VINA RESULT:      -5.5      1.314      1.873
  Name = 
  2 active torsions:
  status: ('A' for Active; 'I' for Inactive)
    1  A    between atoms: C_11  and  C_28
    2  A    between atoms: C_28  and  C_30
                            x       y       z     vdW  Elec       q    Type
                         _______ _______ _______ _____ _____    ______ ____

>  <TORSDO>
F 2

$$$$
=
 OpenBabel11122412403D

 30 35  0  0  1  0  0  0  0  0999 V2000
  161.6810  206.5180  148.3650 C   0  0  0  0  0  0  0  0  0  0  0  0
  161.8450  205.3710  146.1610 C   0  0  0  0  0  0  0  0  0  0  0  0
  160.7660  202.9910  150.2770 N   0  0  0  0  0  2  0  0  0  0  0  0
  161.4840  206.4490  149.7700 C   0  0  0  0  0  0  0  0  0  0  0  0
  161.9660  207.7570  147.7800 O   0  0  0  0  0  0  0  0  0  0  0  0
  162.0580  209.9470  150.5940 O   0  0  0  0  0  0  0  0  0  0  0  0
  160.7510  207.1430  152.7430 C   0  0  1  0  0  3  0  0  0  0  0  0
  161.8710  208.9020  149.9120 C   0  0  0  0  0  0  0  0  0  0  0  0
  160.4650  205.6490  152.7820 C   0  0  2  0  0  3  0  0  0  0  0  0
  160.6020  203.5100  151.5120 C   0  0  0  0  0  0  0  0  0  0  0  0
  161.6920  209.0000  148.4230 C   0  0  1  0  0  3  0  0  0  0  0  0
  161.7450  207.6250  150.5590 N   0  0  0  0  0  0  0  0  0  0  0  0
  161.7780  204.1890  145.4170 C   0  0  0  0  0  3  0  0  0  0  0  0
  161.1160  205.1450  154.0540 C   0  0  0  0  0  2  0  0  0  0  0  0
  160.8760  207.5660  154.1980 C   0  0  0  0  0  2  0  0  0  0  0  0
  162.1320  206.5540  145.4910 O   0  0  0  0  0  1  0  0  0  0  0  0
  161.1030  204.0680  149.5470 C   0  0  0  0  0  0  0  0  0  0  0  0
  161.4940  202.9730  146.0370 C   0  0  0  0  0  3  0  0  0  0  0  0
  161.6240  205.3440  147.5600 C   0  0  0  0  0  0  0  0  0  0  0  0
  161.1510  205.1960  150.3280 C   0  0  0  0  0  0  0  0  0  0  0  0
  160.2230  202.8070  152.4870 O   0  0  0  0  0  0  0  0  0  0  0  0
  160.8360  204.8460  151.6020 N   0  0  0  0  0  0  0  0  0  0  0  0
  161.0100  206.2980  155.0280 C   0  0  0  0  0  2  0  0  0  0  0  0
  163.2640  206.7430  152.2980 C   0  0  0  0  0  1  0  0  0  0  0  0
  161.2710  202.9250  147.4120 C   0  0  0  0  0  3  0  0  0  0  0  0
  161.3360  204.0960  148.1750 C   0  0  0  0  0  0  0  0  0  0  0  0
  162.0090  207.5550  151.9890 C   0  0  2  0  0  3  0  0  0  0  0  0
  162.5290  210.1130  147.7930 C   0  0  0  0  0  2  0  0  0  0  0  0
  162.8080  212.5370  148.2190 C   0  0  0  0  0  1  0  0  0  0  0  0
  161.8160  211.4550  147.8510 C   0  0  0  0  0  2  0  0  0  0  0  0
  1  4  1  0  0  0  0
  2 19  1  0  0  0  0
  3 10  1  0  0  0  0
  4 20  2  0  0  0  0
  4 12  1  0  0  0  0
  5  1  1  0  0  0  0
  5 11  1  0  0  0  0
  7  9  1  0  0  0  0
  7 15  1  1  0  0  0
  8 12  1  0  0  0  0
  8  6  2  0  0  0  0
  9 14  1  1  0  0  0
 10 22  1  0  0  0  0
 10 21  2  0  0  0  0
 11 28  1  6  0  0  0
 11  8  1  0  0  0  0
 12 27  1  0  0  0  0
 13 18  1  0  0  0  0
 13  2  2  0  0  0  0
 14 23  1  0  0  0  0
 15 23  1  0  0  0  0
 16  2  1  0  0  0  0
 17  3  1  0  0  0  0
 17 20  1  0  0  0  0
 18 25  2  0  0  0  0
 19 26  1  0  0  0  0
 19  1  2  0  0  0  0
 20 22  1  0  0  0  0
 22  9  1  0  0  0  0
 25 26  1  0  0  0  0
 26 17  2  0  0  0  0
 27 24  1  6  0  0  0
 27  7  1  0  0  0  0
 28 30  1  0  0  0  0
 30 29  1  0  0  0  0
M  END
>  <MODEL>
9

>  <REMARK>
 VINA RESULT:      -5.1      1.352      5.442
  Name = 
  2 active torsions:
  status: ('A' for Active; 'I' for Inactive)
    1  A    between atoms: C_11  and  C_28
    2  A    between atoms: C_28  and  C_30
                            x       y       z     vdW  Elec       q    Type
                         _______ _______ _______ _____ _____    ______ ____

>  <TORSDO>
F 2

$$$$
