=
 OpenBabel11122413483D

 37 44  0  0  1  0  0  0  0  0999 V2000
  160.6330  207.8790  151.9960 C   0  0  0  0  0  2  0  0  0  0  0  0
  159.4010  210.2500  155.8270 C   0  0  0  0  0  0  0  0  0  0  0  0
  160.0190  212.4740  152.3500 C   0  0  0  0  0  0  0  0  0  0  0  0
  161.3170  206.4910  152.0940 C   0  0  1  0  0  3  0  0  0  0  0  0
  161.7840  210.7910  149.3040 C   0  0  0  0  0  2  0  0  0  0  0  0
  159.3340  212.5110  154.6720 C   0  0  0  0  0  0  0  0  0  0  0  0
  160.6540  211.5470  151.5180 C   0  0  0  0  0  0  0  0  0  0  0  0
  162.3290  206.7980  149.7490 C   0  0  0  0  0  0  0  0  0  0  0  0
  159.9050  211.8850  153.5780 C   0  0  0  0  0  0  0  0  0  0  0  0
  160.9910  211.7600  150.1000 N   0  0  0  0  0  0  0  0  0  0  0  0
  158.8660  213.8240  154.5050 C   0  0  0  0  0  3  0  0  0  0  0  0
  162.4270  206.1180  151.0780 C   0  0  0  0  0  2  0  0  0  0  0  0
  160.3950  210.6450  153.5930 N   0  0  0  0  0  0  0  0  0  0  0  0
  158.0500  209.7080  155.3930 C   0  0  0  0  0  1  0  0  0  0  0  0
  159.5940  214.4530  150.8090 C   0  0  0  0  0  2  0  0  0  0  0  0
  158.9700  214.4530  153.2430 C   0  0  0  0  0  3  0  0  0  0  0  0
  160.4770  209.8250  154.8020 C   0  0  0  0  0  2  0  0  0  0  0  0
  162.2750  208.2090  149.7530 N   0  0  0  0  0  0  0  0  0  0  0  0
  161.3730  209.4180  149.7220 C   0  0  1  0  0  3  0  0  0  0  0  0
  159.5600  213.7860  152.1480 C   0  0  0  0  0  0  0  0  0  0  0  0
  160.8790  210.3980  152.3540 C   0  0  0  0  0  0  0  0  0  0  0  0
  159.3150  211.7880  155.9910 C   0  0  0  0  0  2  0  0  0  0  0  0
  160.4150  212.9360  149.4230 C   0  0  1  0  0  3  0  0  0  0  0  0
  159.7480  209.6410  157.1680 C   0  0  0  0  0  1  0  0  0  0  0  0
  162.3240  209.3210  150.7070 C   0  0  1  0  0  3  0  0  0  0  0  0
  162.2820  206.1470  148.6740 O   0  0  0  0  0  0  0  0  0  0  0  0
  161.5870  209.0980  152.0090 C   0  0  2  0  0  3  0  0  0  0  0  0
  160.7550  214.1060  150.1130 O   0  0  0  0  0  0  0  0  0  0  0  0
  161.9090  213.8210  147.6150 C   0  0  0  0  0  3  0  0  0  0  0  0
  160.7900  213.0600  147.9710 C   0  0  0  0  0  0  0  0  0  0  0  0
  160.0170  212.4520  146.9710 C   0  0  0  0  0  3  0  0  0  0  0  0
  159.6210  212.0090  144.6630 F   0  0  0  0  0  0  0  0  0  0  0  0
  161.4900  213.3550  145.2750 C   0  0  0  0  0  3  0  0  0  0  0  0
  160.3690  212.5980  145.6270 C   0  0  0  0  0  0  0  0  0  0  0  0
  162.2600  213.9670  146.2700 C   0  0  0  0  0  3  0  0  0  0  0  0
  160.7750  206.4020  154.4200 O   0  0  0  0  0  1  0  0  0  0  0  0
  161.8140  206.2290  153.5060 C   0  0  0  0  0  2  0  0  0  0  0  0
  1  4  1  0  0  0  0
  2 22  1  0  0  0  0
  2 24  1  0  0  0  0
  3  9  1  0  0  0  0
  4 37  1  1  0  0  0
  5 10  1  0  0  0  0
  6 22  1  0  0  0  0
  7  3  1  0  0  0  0
  7 21  2  0  0  0  0
  8 18  1  0  0  0  0
  8 12  1  0  0  0  0
  9 13  1  0  0  0  0
  9  6  2  0  0  0  0
 10  7  1  0  0  0  0
 11  6  1  0  0  0  0
 12  4  1  0  0  0  0
 13 17  1  0  0  0  0
 14  2  1  0  0  0  0
 15 20  1  0  0  0  0
 16 11  2  0  0  0  0
 17  2  1  0  0  0  0
 19  5  1  6  0  0  0
 19 18  1  0  0  0  0
 19 25  1  0  0  0  0
 20  3  2  0  0  0  0
 20 16  1  0  0  0  0
 21 13  1  0  0  0  0
 23 30  1  6  0  0  0
 23 10  1  0  0  0  0
 23 28  1  0  0  0  0
 25 18  1  6  0  0  0
 25 27  1  0  0  0  0
 26  8  2  0  0  0  0
 27  1  1  6  0  0  0
 27 21  1  0  0  0  0
 28 15  1  0  0  0  0
 29 30  1  0  0  0  0
 31 30  2  0  0  0  0
 32 34  1  0  0  0  0
 33 34  2  0  0  0  0
 33 35  1  0  0  0  0
 34 31  1  0  0  0  0
 35 29  2  0  0  0  0
 37 36  1  0  0  0  0
M  END
>  <MODEL>
1

>  <REMARK>
 VINA RESULT:      -5.3      0.000      0.000
  Name = 
  2 active torsions:
  status: ('A' for Active; 'I' for Inactive)
    1  A    between atoms: C_4  and  C_37
    2  A    between atoms: C_23  and  C_30
                            x       y       z     vdW  Elec       q    Type
                         _______ _______ _______ _____ _____    ______ ____

>  <TORSDO>
F 2

$$$$
=
 OpenBabel11122413483D

 37 44  0  0  1  0  0  0  0  0999 V2000
  161.7870  207.5900  153.9580 C   0  0  0  0  0  2  0  0  0  0  0  0
  160.9420  203.5660  151.7450 C   0  0  0  0  0  0  0  0  0  0  0  0
  161.3300  206.9770  149.3720 C   0  0  0  0  0  0  0  0  0  0  0  0
  161.3950  207.7880  155.4450 C   0  0  1  0  0  3  0  0  0  0  0  0
  161.2570  210.4910  151.0670 C   0  0  0  0  0  2  0  0  0  0  0  0
  161.0280  204.5760  149.4150 C   0  0  0  0  0  0  0  0  0  0  0  0
  161.2610  208.0020  150.3200 C   0  0  0  0  0  0  0  0  0  0  0  0
  161.3470  210.3390  155.1180 C   0  0  0  0  0  0  0  0  0  0  0  0
  161.0620  205.8120  150.0350 C   0  0  0  0  0  0  0  0  0  0  0  0
  161.4740  209.4340  150.0490 N   0  0  0  0  0  0  0  0  0  0  0  0
  161.2660  204.5280  148.0330 C   0  0  0  0  0  3  0  0  0  0  0  0
  160.8650  209.1680  155.9140 C   0  0  0  0  0  2  0  0  0  0  0  0
  160.8500  206.0070  151.3360 N   0  0  0  0  0  0  0  0  0  0  0  0
  162.4310  203.4260  152.0110 C   0  0  0  0  0  1  0  0  0  0  0  0
  161.9440  208.1990  147.2280 C   0  0  0  0  0  2  0  0  0  0  0  0
  161.5500  205.7200  147.3270 C   0  0  0  0  0  3  0  0  0  0  0  0
  160.4560  204.9410  152.2580 C   0  0  0  0  0  2  0  0  0  0  0  0
  161.1270  210.3010  153.7240 N   0  0  0  0  0  0  0  0  0  0  0  0
  161.7220  209.9550  152.3810 C   0  0  1  0  0  3  0  0  0  0  0  0
  161.5750  206.9660  147.9890 C   0  0  0  0  0  0  0  0  0  0  0  0
  160.9480  207.3380  151.5570 C   0  0  0  0  0  0  0  0  0  0  0  0
  160.6640  203.3660  150.2340 C   0  0  0  0  0  2  0  0  0  0  0  0
  162.0360  209.8130  148.7400 C   0  0  1  0  0  3  0  0  0  0  0  0
  160.2180  202.4820  152.5150 C   0  0  0  0  0  1  0  0  0  0  0  0
  160.4980  209.4360  152.7210 C   0  0  1  0  0  3  0  0  0  0  0  0
  161.9340  211.3110  155.6590 O   0  0  0  0  0  0  0  0  0  0  0  0
  160.6920  207.9500  152.9250 C   0  0  2  0  0  3  0  0  0  0  0  0
  161.2380  209.3070  147.7070 O   0  0  0  0  0  0  0  0  0  0  0  0
  163.5080  211.7630  148.1810 C   0  0  0  0  0  3  0  0  0  0  0  0
  162.2460  211.2910  148.5590 C   0  0  0  0  0  0  0  0  0  0  0  0
  161.2060  212.2030  148.7960 C   0  0  0  0  0  3  0  0  0  0  0  0
  160.4210  214.4520  148.8720 F   0  0  0  0  0  0  0  0  0  0  0  0
  162.6880  214.0410  148.2610 C   0  0  0  0  0  3  0  0  0  0  0  0
  161.4270  213.5740  148.6440 C   0  0  0  0  0  0  0  0  0  0  0  0
  163.7280  213.1350  148.0290 C   0  0  0  0  0  3  0  0  0  0  0  0
  160.0800  206.9080  157.2380 O   0  0  0  0  0  1  0  0  0  0  0  0
  160.4420  206.6970  155.9060 C   0  0  0  0  0  2  0  0  0  0  0  0
  1  4  1  0  0  0  0
  2 14  1  0  0  0  0
  2 17  1  0  0  0  0
  2 24  1  0  0  0  0
  3  9  1  0  0  0  0
  3  7  1  0  0  0  0
  4 37  1  6  0  0  0
  4 12  1  0  0  0  0
  6  9  2  0  0  0  0
  6 22  1  0  0  0  0
  7 21  2  0  0  0  0
  8 26  2  0  0  0  0
  8 12  1  0  0  0  0
  9 13  1  0  0  0  0
 10  7  1  0  0  0  0
 10  5  1  0  0  0  0
 11  6  1  0  0  0  0
 13 21  1  0  0  0  0
 13 17  1  0  0  0  0
 15 28  1  0  0  0  0
 15 20  1  0  0  0  0
 16 20  1  0  0  0  0
 16 11  2  0  0  0  0
 18  8  1  0  0  0  0
 19  5  1  6  0  0  0
 19 25  1  0  0  0  0
 19 18  1  0  0  0  0
 20  3  2  0  0  0  0
 21 27  1  0  0  0  0
 22  2  1  0  0  0  0
 23 30  1  1  0  0  0
 23 10  1  0  0  0  0
 25 27  1  0  0  0  0
 25 18  1  1  0  0  0
 27  1  1  1  0  0  0
 28 23  1  0  0  0  0
 29 30  1  0  0  0  0
 30 31  2  0  0  0  0
 33 34  2  0  0  0  0
 34 31  1  0  0  0  0
 34 32  1  0  0  0  0
 35 29  2  0  0  0  0
 35 33  1  0  0  0  0
 37 36  1  0  0  0  0
M  END
>  <MODEL>
2

>  <REMARK>
 VINA RESULT:      -4.7      2.587      5.938
  Name = 
  2 active torsions:
  status: ('A' for Active; 'I' for Inactive)
    1  A    between atoms: C_4  and  C_37
    2  A    between atoms: C_23  and  C_30
                            x       y       z     vdW  Elec       q    Type
                         _______ _______ _______ _____ _____    ______ ____

>  <TORSDO>
F 2

$$$$
=
 OpenBabel11122413483D

 37 44  0  0  1  0  0  0  0  0999 V2000
  160.7710  204.7930  147.7780 C   0  0  0  0  0  2  0  0  0  0  0  0
  160.8310  203.8300  152.3470 C   0  0  0  0  0  0  0  0  0  0  0  0
  161.5190  207.7970  151.2470 C   0  0  0  0  0  0  0  0  0  0  0  0
  161.0490  203.6940  146.7200 C   0  0  1  0  0  3  0  0  0  0  0  0
  162.2730  208.6300  147.5110 C   0  0  0  0  0  2  0  0  0  0  0  0
  161.2240  206.2330  153.0710 C   0  0  0  0  0  0  0  0  0  0  0  0
  161.7400  207.6850  149.8720 C   0  0  0  0  0  0  0  0  0  0  0  0
  161.7460  205.4830  145.0090 C   0  0  0  0  0  0  0  0  0  0  0  0
  161.4300  206.5230  151.7350 C   0  0  0  0  0  0  0  0  0  0  0  0
  161.9090  208.8110  148.9370 N   0  0  0  0  0  0  0  0  0  0  0  0
  161.1210  207.3090  153.9670 C   0  0  0  0  0  3  0  0  0  0  0  0
  161.8480  204.0550  145.4410 C   0  0  0  0  0  2  0  0  0  0  0  0
  161.5510  205.6040  150.7770 N   0  0  0  0  0  0  0  0  0  0  0  0
  159.3330  203.8870  152.0980 C   0  0  0  0  0  1  0  0  0  0  0  0
  161.4370  210.3100  151.6270 C   0  0  0  0  0  2  0  0  0  0  0  0
  161.2060  208.6360  153.4860 C   0  0  0  0  0  3  0  0  0  0  0  0
  161.5810  204.1650  151.0380 C   0  0  0  0  0  2  0  0  0  0  0  0
  162.0880  206.4670  145.9610 N   0  0  0  0  0  0  0  0  0  0  0  0
  161.5630  207.4140  147.0130 C   0  0  1  0  0  3  0  0  0  0  0  0
  161.4180  208.8960  152.1150 C   0  0  0  0  0  0  0  0  0  0  0  0
  161.7580  206.2690  149.6170 C   0  0  0  0  0  0  0  0  0  0  0  0
  161.2010  204.7920  153.5040 C   0  0  0  0  0  2  0  0  0  0  0  0
  161.5890  210.1650  149.4240 C   0  0  1  0  0  3  0  0  0  0  0  0
  161.1890  202.4190  152.7610 C   0  0  0  0  0  1  0  0  0  0  0  0
  162.5860  206.5570  147.3380 C   0  0  1  0  0  3  0  0  0  0  0  0
  161.3610  205.7990  143.8540 O   0  0  0  0  0  0  0  0  0  0  0  0
  162.0170  205.5440  148.3060 C   0  0  2  0  0  3  0  0  0  0  0  0
  162.3390  210.4570  150.5690 O   0  0  0  0  0  0  0  0  0  0  0  0
  162.9850  211.9270  148.3160 C   0  0  0  0  0  3  0  0  0  0  0  0
  161.7630  211.2500  148.3970 C   0  0  0  0  0  0  0  0  0  0  0  0
  160.7100  211.6130  147.5430 C   0  0  0  0  0  3  0  0  0  0  0  0
  159.8670  212.9870  145.7870 F   0  0  0  0  0  0  0  0  0  0  0  0
  162.1090  213.3100  146.5310 C   0  0  0  0  0  3  0  0  0  0  0  0
  160.8850  212.6390  146.6110 C   0  0  0  0  0  0  0  0  0  0  0  0
  163.1590  212.9540  147.3830 C   0  0  0  0  0  3  0  0  0  0  0  0
  160.8080  201.9680  148.3570 O   0  0  0  0  0  1  0  0  0  0  0  0
  161.6580  202.4600  147.3660 C   0  0  0  0  0  2  0  0  0  0  0  0
  2 24  1  0  0  0  0
  2 22  1  0  0  0  0
  3  9  2  0  0  0  0
  3 20  1  0  0  0  0
  4 37  1  1  0  0  0
  4  1  1  0  0  0  0
  5 10  1  0  0  0  0
  6 22  1  0  0  0  0
  6 11  2  0  0  0  0
  7  3  1  0  0  0  0
  8 12  1  0  0  0  0
  8 18  1  0  0  0  0
  9  6  1  0  0  0  0
 10 23  1  0  0  0  0
 10  7  1  0  0  0  0
 12  4  1  0  0  0  0
 13 17  1  0  0  0  0
 13  9  1  0  0  0  0
 14  2  1  0  0  0  0
 15 20  1  0  0  0  0
 16 11  1  0  0  0  0
 17  2  1  0  0  0  0
 18 19  1  0  0  0  0
 19 25  1  0  0  0  0
 19  5  1  6  0  0  0
 20 16  2  0  0  0  0
 21  7  2  0  0  0  0
 21 13  1  0  0  0  0
 23 30  1  6  0  0  0
 23 28  1  0  0  0  0
 25 18  1  6  0  0  0
 25 27  1  0  0  0  0
 26  8  2  0  0  0  0
 27  1  1  6  0  0  0
 27 21  1  0  0  0  0
 28 15  1  0  0  0  0
 29 30  1  0  0  0  0
 31 30  2  0  0  0  0
 32 34  1  0  0  0  0
 33 34  2  0  0  0  0
 33 35  1  0  0  0  0
 34 31  1  0  0  0  0
 35 29  2  0  0  0  0
 37 36  1  0  0  0  0
M  END
>  <MODEL>
3

>  <REMARK>
 VINA RESULT:      -4.4      2.965      5.190
  Name = 
  2 active torsions:
  status: ('A' for Active; 'I' for Inactive)
    1  A    between atoms: C_4  and  C_37
    2  A    between atoms: C_23  and  C_30
                            x       y       z     vdW  Elec       q    Type
                         _______ _______ _______ _____ _____    ______ ____

>  <TORSDO>
F 2

$$$$
=
 OpenBabel11122413483D

 37 44  0  0  1  0  0  0  0  0999 V2000
  160.7920  207.1240  151.3080 C   0  0  0  0  0  2  0  0  0  0  0  0
  160.0930  208.1260  155.8150 C   0  0  0  0  0  0  0  0  0  0  0  0
  160.2000  211.3460  153.1630 C   0  0  0  0  0  0  0  0  0  0  0  0
  161.4940  205.8110  150.8740 C   0  0  1  0  0  3  0  0  0  0  0  0
  161.5320  210.7820  149.5400 C   0  0  0  0  0  2  0  0  0  0  0  0
  159.8470  210.6270  155.4480 C   0  0  0  0  0  0  0  0  0  0  0  0
  160.7180  210.7560  152.0070 C   0  0  0  0  0  0  0  0  0  0  0  0
  162.1650  206.8810  148.6340 C   0  0  0  0  0  0  0  0  0  0  0  0
  160.2640  210.4010  154.1480 C   0  0  0  0  0  0  0  0  0  0  0  0
  160.8520  211.4150  150.6960 N   0  0  0  0  0  0  0  0  0  0  0  0
  159.3500  211.9010  155.7650 C   0  0  0  0  0  3  0  0  0  0  0  0
  162.4540  205.8290  149.6570 C   0  0  0  0  0  2  0  0  0  0  0  0
  160.7600  209.2440  153.7090 N   0  0  0  0  0  0  0  0  0  0  0  0
  158.6980  207.6760  155.4140 C   0  0  0  0  0  1  0  0  0  0  0  0
  159.5480  213.6800  152.3910 C   0  0  0  0  0  2  0  0  0  0  0  0
  159.2710  212.8940  154.7610 C   0  0  0  0  0  3  0  0  0  0  0  0
  161.0180  208.0950  154.5770 C   0  0  0  0  0  2  0  0  0  0  0  0
  162.1010  208.2160  149.0870 N   0  0  0  0  0  0  0  0  0  0  0  0
  161.1940  209.3280  149.5560 C   0  0  1  0  0  3  0  0  0  0  0  0
  159.7070  212.6300  153.4450 C   0  0  0  0  0  0  0  0  0  0  0  0
  161.0670  209.4180  152.4030 C   0  0  0  0  0  0  0  0  0  0  0  0
  160.0190  209.5300  156.4640 C   0  0  0  0  0  2  0  0  0  0  0  0
  160.1780  212.7110  150.5030 C   0  0  1  0  0  3  0  0  0  0  0  0
  160.6290  207.1490  156.8400 C   0  0  0  0  0  1  0  0  0  0  0  0
  162.2750  208.9790  150.3270 C   0  0  1  0  0  3  0  0  0  0  0  0
  161.9730  206.5930  147.4240 O   0  0  0  0  0  0  0  0  0  0  0  0
  161.7300  208.3260  151.5770 C   0  0  2  0  0  3  0  0  0  0  0  0
  160.6020  213.6260  151.4750 O   0  0  0  0  0  0  0  0  0  0  0  0
  161.5650  213.8830  148.7760 C   0  0  0  0  0  3  0  0  0  0  0  0
  160.3440  213.2980  149.1280 C   0  0  0  0  0  0  0  0  0  0  0  0
  159.2840  213.2950  148.2090 C   0  0  0  0  0  3  0  0  0  0  0  0
  158.4280  213.8600  146.0580 F   0  0  0  0  0  0  0  0  0  0  0  0
  160.6750  214.4450  146.5950 C   0  0  0  0  0  3  0  0  0  0  0  0
  159.4520  213.8660  146.9440 C   0  0  0  0  0  0  0  0  0  0  0  0
  161.7320  214.4530  147.5110 C   0  0  0  0  0  3  0  0  0  0  0  0
  161.2810  204.9650  153.1000 O   0  0  0  0  0  1  0  0  0  0  0  0
  162.1870  205.1500  152.0550 C   0  0  0  0  0  2  0  0  0  0  0  0
  2 22  1  0  0  0  0
  2 24  1  0  0  0  0
  3 20  2  0  0  0  0
  3  9  1  0  0  0  0
  4  1  1  0  0  0  0
  4 37  1  1  0  0  0
  5 10  1  0  0  0  0
  6 11  1  0  0  0  0
  6 22  1  0  0  0  0
  7 21  2  0  0  0  0
  7  3  1  0  0  0  0
  8 18  1  0  0  0  0
  8 12  1  0  0  0  0
  9  6  2  0  0  0  0
 10  7  1  0  0  0  0
 12  4  1  0  0  0  0
 13  9  1  0  0  0  0
 13 17  1  0  0  0  0
 14  2  1  0  0  0  0
 15 20  1  0  0  0  0
 16 11  2  0  0  0  0
 17  2  1  0  0  0  0
 18 19  1  0  0  0  0
 19  5  1  6  0  0  0
 19 25  1  0  0  0  0
 20 16  1  0  0  0  0
 21 13  1  0  0  0  0
 23 30  1  6  0  0  0
 23 10  1  0  0  0  0
 23 28  1  0  0  0  0
 25 18  1  6  0  0  0
 25 27  1  0  0  0  0
 26  8  2  0  0  0  0
 27  1  1  6  0  0  0
 27 21  1  0  0  0  0
 28 15  1  0  0  0  0
 29 30  1  0  0  0  0
 31 30  2  0  0  0  0
 32 34  1  0  0  0  0
 33 34  2  0  0  0  0
 33 35  1  0  0  0  0
 34 31  1  0  0  0  0
 35 29  2  0  0  0  0
 37 36  1  0  0  0  0
M  END
>  <MODEL>
4

>  <REMARK>
 VINA RESULT:      -4.4      1.269      1.637
  Name = 
  2 active torsions:
  status: ('A' for Active; 'I' for Inactive)
    1  A    between atoms: C_4  and  C_37
    2  A    between atoms: C_23  and  C_30
                            x       y       z     vdW  Elec       q    Type
                         _______ _______ _______ _____ _____    ______ ____

>  <TORSDO>
F 2

$$$$
=
 OpenBabel11122413483D

 37 44  0  0  1  0  0  0  0  0999 V2000
  160.8280  210.4760  148.5770 C   0  0  0  0  0  2  0  0  0  0  0  0
  161.6240  206.2410  146.7750 C   0  0  0  0  0  0  0  0  0  0  0  0
  161.4070  206.5100  150.9340 C   0  0  0  0  0  0  0  0  0  0  0  0
  161.1790  211.7640  147.7900 C   0  0  1  0  0  3  0  0  0  0  0  0
  161.5300  210.0260  152.6210 C   0  0  0  0  0  2  0  0  0  0  0  0
  161.6380  205.0490  149.0180 C   0  0  0  0  0  0  0  0  0  0  0  0
  161.4760  207.8910  151.1420 C   0  0  0  0  0  0  0  0  0  0  0  0
  161.3110  213.0990  149.9840 C   0  0  0  0  0  0  0  0  0  0  0  0
  161.6210  206.3040  149.6010 C   0  0  0  0  0  0  0  0  0  0  0  0
  161.3130  208.5700  152.4390 N   0  0  0  0  0  0  0  0  0  0  0  0
  161.4410  203.9370  149.8520 C   0  0  0  0  0  3  0  0  0  0  0  0
  161.7340  212.9940  148.5540 C   0  0  0  0  0  2  0  0  0  0  0  0
  161.7980  207.4440  148.9330 N   0  0  0  0  0  0  0  0  0  0  0  0
  160.1240  206.3530  146.5620 C   0  0  0  0  0  1  0  0  0  0  0  0
  160.8950  205.5920  153.2500 C   0  0  0  0  0  2  0  0  0  0  0  0
  161.2140  204.1260  151.2350 C   0  0  0  0  0  3  0  0  0  0  0  0
  162.1320  207.5020  147.5100 C   0  0  0  0  0  2  0  0  0  0  0  0
  161.5720  211.9870  150.8130 N   0  0  0  0  0  0  0  0  0  0  0  0
  161.0080  210.7170  151.4040 C   0  0  1  0  0  3  0  0  0  0  0  0
  161.2040  205.4200  151.7960 C   0  0  0  0  0  0  0  0  0  0  0  0
  161.7320  208.4460  149.8400 C   0  0  0  0  0  0  0  0  0  0  0  0
  161.9410  204.9370  147.5490 C   0  0  0  0  0  2  0  0  0  0  0  0
  160.8030  207.7790  153.5730 C   0  0  1  0  0  3  0  0  0  0  0  0
  162.2910  206.1720  145.4190 C   0  0  0  0  0  1  0  0  0  0  0  0
  162.2070  210.6660  150.7360 C   0  0  1  0  0  3  0  0  0  0  0  0
  160.7360  214.1240  150.4310 O   0  0  0  0  0  0  0  0  0  0  0  0
  161.9630  209.8990  149.4560 C   0  0  2  0  0  3  0  0  0  0  0  0
  161.6170  206.6610  153.7880 O   0  0  0  0  0  0  0  0  0  0  0  0
  161.5490  208.3560  155.8960 C   0  0  0  0  0  3  0  0  0  0  0  0
  160.6410  208.5580  154.8500 C   0  0  0  0  0  0  0  0  0  0  0  0
  159.5780  209.4580  155.0180 C   0  0  0  0  0  3  0  0  0  0  0  0
  158.4060  211.0250  156.3790 F   0  0  0  0  0  0  0  0  0  0  0  0
  160.3450  209.9530  157.2600 C   0  0  0  0  0  3  0  0  0  0  0  0
  159.4330  210.1550  156.2200 C   0  0  0  0  0  0  0  0  0  0  0  0
  161.4030  209.0540  157.0980 C   0  0  0  0  0  3  0  0  0  0  0  0
  162.7880  212.5940  146.2280 O   0  0  0  0  0  1  0  0  0  0  0  0
  162.0860  211.4510  146.6100 C   0  0  0  0  0  2  0  0  0  0  0  0
  2 17  1  0  0  0  0
  2 22  1  0  0  0  0
  3  7  1  0  0  0  0
  3 20  1  0  0  0  0
  4 37  1  6  0  0  0
  4 12  1  0  0  0  0
  4  1  1  0  0  0  0
  6  9  1  0  0  0  0
  6 11  2  0  0  0  0
  7 10  1  0  0  0  0
  8 26  2  0  0  0  0
  8 18  1  0  0  0  0
  9  3  2  0  0  0  0
 10  5  1  0  0  0  0
 10 23  1  0  0  0  0
 11 16  1  0  0  0  0
 12  8  1  0  0  0  0
 13  9  1  0  0  0  0
 13 21  1  0  0  0  0
 14  2  1  0  0  0  0
 15 28  1  0  0  0  0
 16 20  2  0  0  0  0
 17 13  1  0  0  0  0
 18 19  1  0  0  0  0
 19  5  1  1  0  0  0
 20 15  1  0  0  0  0
 21  7  2  0  0  0  0
 22  6  1  0  0  0  0
 23 28  1  0  0  0  0
 23 30  1  1  0  0  0
 24  2  1  0  0  0  0
 25 18  1  6  0  0  0
 25 19  1  0  0  0  0
 27  1  1  1  0  0  0
 27 21  1  0  0  0  0
 27 25  1  0  0  0  0
 29 35  1  0  0  0  0
 30 31  1  0  0  0  0
 30 29  2  0  0  0  0
 31 34  2  0  0  0  0
 34 32  1  0  0  0  0
 34 33  1  0  0  0  0
 35 33  2  0  0  0  0
 36 37  1  0  0  0  0
M  END
>  <MODEL>
5

>  <REMARK>
 VINA RESULT:      -3.1      2.789      8.323
  Name = 
  2 active torsions:
  status: ('A' for Active; 'I' for Inactive)
    1  A    between atoms: C_4  and  C_37
    2  A    between atoms: C_23  and  C_30
                            x       y       z     vdW  Elec       q    Type
                         _______ _______ _______ _____ _____    ______ ____

>  <TORSDO>
F 2

$$$$
