=
 OpenBabel11122413533D

 37 43  0  0  1  0  0  0  0  0999 V2000
  160.8290  211.6760  150.5110 O   0  0  0  0  0  0  0  0  0  0  0  0
  161.7060  207.0640  151.3230 C   0  0  0  0  0  0  0  0  0  0  0  0
  160.3860  209.5580  154.4690 N   0  0  0  0  0  0  0  0  0  0  0  0
  161.2320  213.0060  150.3210 C   0  0  2  0  0  3  0  0  0  0  0  0
  158.0430  211.6770  153.4640 O   0  0  0  0  0  0  0  0  0  0  0  0
  161.2990  207.4530  153.7520 C   0  0  0  0  0  0  0  0  0  0  0  0
  160.3260  210.8660  153.8250 C   0  0  2  0  0  3  0  0  0  0  0  0
  158.8040  213.6970  150.6010 C   0  0  0  0  0  0  0  0  0  0  0  0
  160.6220  208.5740  153.4820 C   0  0  0  0  0  0  0  0  0  0  0  0
  159.1470  211.7360  154.3300 C   0  0  2  0  0  3  0  0  0  0  0  0
  161.5700  207.0770  155.1800 C   0  0  0  0  0  2  0  0  0  0  0  0
  160.2390  213.9950  150.9400 C   0  0  0  0  0  2  0  0  0  0  0  0
  160.4190  209.0770  152.1090 C   0  0  2  0  0  3  0  0  0  0  0  0
  160.5180  206.3540  150.6970 C   0  0  0  0  0  1  0  0  0  0  0  0
  161.0380  210.6310  156.5920 C   0  0  0  0  0  2  0  0  0  0  0  0
  161.8390  208.3270  156.0280 C   0  0  0  0  0  2  0  0  0  0  0  0
  161.5410  208.5880  151.1830 C   0  0  0  0  0  2  0  0  0  0  0  0
  158.0860  212.5940  151.3140 C   0  0  1  0  0  3  0  0  0  0  0  0
  158.0980  212.8850  152.7640 C   0  0  1  0  0  3  0  0  0  0  0  0
  160.6840  209.3230  155.8890 C   0  0  2  0  0  3  0  0  0  0  0  0
  160.3110  210.6030  152.3020 C   0  0  2  0  0  3  0  0  0  0  0  0
  161.8200  206.6820  152.7020 O   0  0  0  0  0  0  0  0  0  0  0  0
  158.7060  211.4240  155.7760 C   0  0  1  0  0  3  0  0  0  0  0  0
  162.9600  206.6400  150.5890 C   0  0  0  0  0  1  0  0  0  0  0  0
  156.9410  213.0660  151.9850 O   0  0  0  0  0  0  0  0  0  0  0  0
  158.2460  214.3170  149.7110 O   0  0  0  0  0  0  0  0  0  0  0  0
  161.3450  211.3080  151.6700 O   0  0  0  0  0  0  0  0  0  0  0  0
  159.8270  211.5390  156.8220 C   0  0  0  0  0  2  0  0  0  0  0  0
  157.6960  213.6510  156.2960 C   0  0  0  0  0  3  0  0  0  0  0  0
  157.5370  212.2650  156.1920 C   0  0  0  0  0  0  0  0  0  0  0  0
  156.2950  211.6840  156.4900 C   0  0  0  0  0  3  0  0  0  0  0  0
  153.6770  211.7560  157.2610 Cl  0  0  0  0  0  0  0  0  0  0  0  0
  155.3860  213.8710  156.9880 C   0  0  0  0  0  3  0  0  0  0  0  0
  155.2230  212.4860  156.8870 C   0  0  0  0  0  0  0  0  0  0  0  0
  156.6220  214.4530  156.6920 C   0  0  0  0  0  3  0  0  0  0  0  0
  161.6030  212.0930  148.1480 O   0  0  0  0  0  1  0  0  0  0  0  0
  161.4000  213.2890  148.8380 C   0  0  0  0  0  2  0  0  0  0  0  0
  1 27  1  0  0  0  0
  2 22  1  0  0  0  0
  3 20  1  0  0  0  0
  4 37  1  6  0  0  0
  4  1  1  0  0  0  0
  4 12  1  0  0  0  0
  6 11  1  0  0  0  0
  7 10  1  0  0  0  0
  7  3  1  1  0  0  0
  8 12  1  0  0  0  0
  9  6  2  0  0  0  0
  9  3  1  0  0  0  0
 10  5  1  6  0  0  0
 10 23  1  0  0  0  0
 11 16  1  0  0  0  0
 13 17  1  6  0  0  0
 13 21  1  0  0  0  0
 13  9  1  0  0  0  0
 14  2  1  0  0  0  0
 15 28  1  0  0  0  0
 17  2  1  0  0  0  0
 18  8  1  6  0  0  0
 18 25  1  0  0  0  0
 18 19  1  0  0  0  0
 19 25  1  6  0  0  0
 19  5  1  0  0  0  0
 20 16  1  6  0  0  0
 20 15  1  0  0  0  0
 21 27  1  6  0  0  0
 21  7  1  0  0  0  0
 22  6  1  0  0  0  0
 23 30  1  1  0  0  0
 23 28  1  0  0  0  0
 24  2  1  0  0  0  0
 26  8  2  0  0  0  0
 29 35  1  0  0  0  0
 30 29  2  0  0  0  0
 30 31  1  0  0  0  0
 31 34  2  0  0  0  0
 34 33  1  0  0  0  0
 34 32  1  0  0  0  0
 35 33  2  0  0  0  0
 36 37  1  0  0  0  0
M  END
>  <MODEL>
1

>  <REMARK>
 VINA RESULT:      -3.8      0.000      0.000
  Name = 
  2 active torsions:
  status: ('A' for Active; 'I' for Inactive)
    1  A    between atoms: C_4  and  C_37
    2  A    between atoms: C_23  and  C_30
                            x       y       z     vdW  Elec       q    Type
                         _______ _______ _______ _____ _____    ______ ____

>  <TORSDO>
F 2

$$$$
=
 OpenBabel11122413533D

 37 43  0  0  1  0  0  0  0  0999 V2000
  161.9170  211.1860  148.7470 O   0  0  0  0  0  0  0  0  0  0  0  0
  161.5330  206.4770  149.3590 C   0  0  0  0  0  0  0  0  0  0  0  0
  160.8980  209.0970  152.6130 N   0  0  0  0  0  0  0  0  0  0  0  0
  162.6600  212.3680  148.6120 C   0  0  2  0  0  3  0  0  0  0  0  0
  159.2090  211.8030  151.7080 O   0  0  0  0  0  0  0  0  0  0  0  0
  161.2260  206.8580  151.8030 C   0  0  0  0  0  0  0  0  0  0  0  0
  161.1920  210.4000  152.0250 C   0  0  2  0  0  3  0  0  0  0  0  0
  160.5000  213.6660  148.9300 C   0  0  0  0  0  0  0  0  0  0  0  0
  160.8720  208.1280  151.5840 C   0  0  0  0  0  0  0  0  0  0  0  0
  160.2830  211.5300  152.5720 C   0  0  2  0  0  3  0  0  0  0  0  0
  161.3760  206.3640  153.2130 C   0  0  0  0  0  2  0  0  0  0  0  0
  161.9600  213.5590  149.2760 C   0  0  0  0  0  2  0  0  0  0  0  0
  160.8200  208.7240  150.2340 C   0  0  2  0  0  3  0  0  0  0  0  0
  160.2040  206.1340  148.7080 C   0  0  0  0  0  1  0  0  0  0  0  0
  161.7960  209.8690  154.7770 C   0  0  0  0  0  2  0  0  0  0  0  0
  161.9610  207.4610  154.1120 C   0  0  0  0  0  2  0  0  0  0  0  0
  161.7790  207.9950  149.2840 C   0  0  0  0  0  2  0  0  0  0  0  0
  159.5100  212.7650  149.5980 C   0  0  1  0  0  3  0  0  0  0  0  0
  159.5880  212.9810  151.0600 C   0  0  1  0  0  3  0  0  0  0  0  0
  161.1130  208.7330  154.0210 C   0  0  2  0  0  3  0  0  0  0  0  0
  161.1200  210.2150  150.4920 C   0  0  2  0  0  3  0  0  0  0  0  0
  161.5310  206.0210  150.7200 O   0  0  0  0  0  0  0  0  0  0  0  0
  159.7640  211.2860  154.0050 C   0  0  1  0  0  3  0  0  0  0  0  0
  162.6350  205.7670  148.6030 C   0  0  0  0  0  1  0  0  0  0  0  0
  158.5260  213.4950  150.2940 O   0  0  0  0  0  0  0  0  0  0  0  0
  160.1330  214.4490  148.0700 O   0  0  0  0  0  0  0  0  0  0  0  0
  162.3070  210.6460  149.8860 O   0  0  0  0  0  0  0  0  0  0  0  0
  160.8670  211.0560  155.0500 C   0  0  0  0  0  2  0  0  0  0  0  0
  159.3580  213.3740  155.3180 C   0  0  0  0  0  3  0  0  0  0  0  0
  158.8570  212.3880  154.4600 C   0  0  0  0  0  0  0  0  0  0  0  0
  157.5160  212.4400  154.0520 C   0  0  0  0  0  3  0  0  0  0  0  0
  155.0120  213.5290  153.9880 Cl  0  0  0  0  0  0  0  0  0  0  0  0
  157.1900  214.4530  155.3550 C   0  0  0  0  0  3  0  0  0  0  0  0
  156.6860  213.4700  154.4990 C   0  0  0  0  0  0  0  0  0  0  0  0
  158.5260  214.4050  155.7640 C   0  0  0  0  0  3  0  0  0  0  0  0
  163.0880  214.0290  146.9530 O   0  0  0  0  0  1  0  0  0  0  0  0
  162.9070  212.6580  147.1410 C   0  0  0  0  0  2  0  0  0  0  0  0
  1 27  1  0  0  0  0
  2 22  1  0  0  0  0
  3 20  1  0  0  0  0
  4 37  1  6  0  0  0
  4  1  1  0  0  0  0
  4 12  1  0  0  0  0
  6 11  1  0  0  0  0
  7 10  1  0  0  0  0
  7  3  1  1  0  0  0
  8 12  1  0  0  0  0
  9  6  2  0  0  0  0
  9  3  1  0  0  0  0
 10  5  1  6  0  0  0
 10 23  1  0  0  0  0
 11 16  1  0  0  0  0
 13 17  1  6  0  0  0
 13 21  1  0  0  0  0
 13  9  1  0  0  0  0
 14  2  1  0  0  0  0
 15 28  1  0  0  0  0
 17  2  1  0  0  0  0
 18  8  1  6  0  0  0
 18 25  1  0  0  0  0
 18 19  1  0  0  0  0
 19 25  1  1  0  0  0
 19  5  1  0  0  0  0
 20 16  1  6  0  0  0
 20 15  1  0  0  0  0
 21 27  1  6  0  0  0
 21  7  1  0  0  0  0
 22  6  1  0  0  0  0
 23 30  1  1  0  0  0
 23 28  1  0  0  0  0
 24  2  1  0  0  0  0
 26  8  2  0  0  0  0
 29 35  1  0  0  0  0
 30 29  2  0  0  0  0
 31 30  1  0  0  0  0
 31 34  2  0  0  0  0
 32 34  1  0  0  0  0
 33 35  2  0  0  0  0
 34 33  1  0  0  0  0
 36 37  1  0  0  0  0
M  END
>  <MODEL>
2

>  <REMARK>
 VINA RESULT:      -3.3      1.758      2.286
  Name = 
  2 active torsions:
  status: ('A' for Active; 'I' for Inactive)
    1  A    between atoms: C_4  and  C_37
    2  A    between atoms: C_23  and  C_30
                            x       y       z     vdW  Elec       q    Type
                         _______ _______ _______ _____ _____    ______ ____

>  <TORSDO>
F 2

$$$$
