=
 OpenBabel11122413533D

 37 44  0  0  1  0  0  0  0  0999 V2000
  161.2010  207.9270  152.2660 C   0  0  0  0  0  2  0  0  0  0  0  0
  161.8850  210.4100  156.0850 C   0  0  0  0  0  0  0  0  0  0  0  0
  160.3490  211.7850  152.4400 C   0  0  0  0  0  0  0  0  0  0  0  0
  161.6320  206.5450  152.4770 N   0  0  0  0  0  0  0  0  0  0  0  0
  161.7670  210.3060  149.1370 C   0  0  0  0  0  2  0  0  0  0  0  0
  160.2910  211.8700  154.8480 C   0  0  0  0  0  0  0  0  0  0  0  0
  161.1600  211.1010  151.4380 C   0  0  0  0  0  0  0  0  0  0  0  0
  161.8040  206.4450  149.9360 C   0  0  2  0  0  3  0  0  0  0  0  0
  160.8220  211.4180  153.6630 C   0  0  0  0  0  0  0  0  0  0  0  0
  161.0690  211.2620  150.0910 C   0  0  0  0  0  0  0  0  0  0  0  0
  159.1630  212.7010  154.7950 C   0  0  0  0  0  3  0  0  0  0  0  0
  162.3110  205.9610  151.3070 C   0  0  0  0  0  2  0  0  0  0  0  0
  161.8840  210.5050  153.6170 N   0  0  0  0  0  0  0  0  0  0  0  0
  161.1700  209.0850  156.2870 C   0  0  0  0  0  1  0  0  0  0  0  0
  158.4780  212.7720  151.0740 C   0  0  0  0  0  3  0  0  0  0  0  0
  158.5970  213.0180  153.5380 C   0  0  0  0  0  3  0  0  0  0  0  0
  162.7360  210.3270  154.7900 C   0  0  0  0  0  2  0  0  0  0  0  0
  162.4070  207.7640  149.4060 C   0  0  1  0  0  3  0  0  0  0  0  0
  161.5850  208.9260  149.7060 C   0  0  1  0  0  3  0  0  0  0  0  0
  159.1840  212.5500  152.3390 C   0  0  0  0  0  0  0  0  0  0  0  0
  162.2330  210.3050  152.2130 C   0  0  1  0  0  3  0  0  0  0  0  0
  160.9060  211.4710  156.0430 O   0  0  0  0  0  0  0  0  0  0  0  0
  160.3550  212.3790  149.5150 N   0  0  0  0  0  0  0  0  0  0  0  0
  162.8090  210.6380  157.2610 C   0  0  0  0  0  1  0  0  0  0  0  0
  162.8360  208.7190  150.4610 N   0  0  1  0  0  0  0  0  0  0  0  0
  160.4110  206.3880  149.8190 O   0  0  0  0  0  1  0  0  0  0  0  0
  162.3900  208.8100  151.8600 C   0  0  2  0  0  3  0  0  0  0  0  0
  158.9870  212.6840  149.8440 C   0  0  0  0  0  3  0  0  0  0  0  0
  162.1660  213.7790  148.5620 C   0  0  0  0  0  3  0  0  0  0  0  0
  160.9460  213.1010  148.4110 C   0  0  0  0  0  0  0  0  0  0  0  0
  160.3250  213.1090  147.1520 C   0  0  0  0  0  3  0  0  0  0  0  0
  160.2580  213.8070  144.7570 C   0  0  0  0  0  1  0  0  0  0  0  0
  162.0940  214.4480  146.2710 N   0  0  0  0  0  0  0  0  0  0  0  0
  160.9160  213.7950  146.0890 C   0  0  0  0  0  0  0  0  0  0  0  0
  162.7250  214.4530  147.4740 C   0  0  0  0  0  3  0  0  0  0  0  0
  160.7820  204.2710  152.6360 C   0  0  0  0  0  1  0  0  0  0  0  0
  160.4490  205.7450  152.7590 C   0  0  0  0  0  2  0  0  0  0  0  0
  1  4  1  0  0  0  0
  2 14  1  0  0  0  0
  2 24  1  0  0  0  0
  3  9  1  0  0  0  0
  4 37  1  0  0  0  0
  5 19  1  0  0  0  0
  5 10  1  0  0  0  0
  6 22  1  0  0  0  0
  7 21  1  0  0  0  0
  7  3  1  0  0  0  0
  8 26  1  1  0  0  0
  8 12  1  0  0  0  0
  9  6  2  0  0  0  0
 10  7  2  0  0  0  0
 11  6  1  0  0  0  0
 12  4  1  0  0  0  0
 13  9  1  0  0  0  0
 13 17  1  0  0  0  0
 15 20  1  0  0  0  0
 16 11  2  0  0  0  0
 17  2  1  0  0  0  0
 18 19  1  0  0  0  0
 18  8  1  0  0  0  0
 18 25  1  0  0  0  0
 19 25  1  0  0  0  0
 20  3  2  0  0  0  0
 20 16  1  0  0  0  0
 21 13  1  0  0  0  0
 22  2  1  0  0  0  0
 23 28  1  0  0  0  0
 23 10  1  0  0  0  0
 25 27  1  0  0  0  0
 27 21  1  0  0  0  0
 27  1  1  0  0  0  0
 28 15  2  0  0  0  0
 30 29  1  0  0  0  0
 30 23  1  0  0  0  0
 31 30  2  0  0  0  0
 32 34  1  0  0  0  0
 33 35  1  0  0  0  0
 34 33  2  0  0  0  0
 34 31  1  0  0  0  0
 35 29  2  0  0  0  0
 36 37  1  0  0  0  0
M  END
>  <MODEL>
1

>  <REMARK>
 VINA RESULT:      -3.8      0.000      0.000
  Name = 
  2 active torsions:
  status: ('A' for Active; 'I' for Inactive)
    1  A    between atoms: N_4  and  C_37
    2  A    between atoms: N_23  and  C_30
                            x       y       z     vdW  Elec       q    Type
                         _______ _______ _______ _____ _____    ______ ____

>  <TORSDO>
F 2

$$$$
=
 OpenBabel11122413533D

 37 44  0  0  1  0  0  0  0  0999 V2000
  159.8700  210.0400  153.4260 C   0  0  0  0  0  2  0  0  0  0  0  0
  158.1950  213.5990  155.8230 C   0  0  0  0  0  0  0  0  0  0  0  0
  158.4190  213.2660  151.6550 C   0  0  0  0  0  0  0  0  0  0  0  0
  160.3650  209.0060  154.3350 N   0  0  0  0  0  0  0  0  0  0  0  0
  161.4840  211.4620  150.0870 C   0  0  0  0  0  2  0  0  0  0  0  0
  157.1860  214.0170  153.5860 C   0  0  0  0  0  0  0  0  0  0  0  0
  159.7150  212.6350  151.4240 C   0  0  0  0  0  0  0  0  0  0  0  0
  161.7640  208.2410  152.3450 C   0  0  2  0  0  3  0  0  0  0  0  0
  158.2920  213.4480  152.9990 C   0  0  0  0  0  0  0  0  0  0  0  0
  160.2640  212.3600  150.2110 C   0  0  0  0  0  0  0  0  0  0  0  0
  156.1070  214.3700  152.7630 C   0  0  0  0  0  3  0  0  0  0  0  0
  161.6130  208.3730  153.8720 C   0  0  0  0  0  2  0  0  0  0  0  0
  159.3770  212.9710  153.7480 N   0  0  0  0  0  0  0  0  0  0  0  0
  157.7020  212.2300  156.2570 C   0  0  0  0  0  1  0  0  0  0  0  0
  157.3130  213.1300  149.3970 C   0  0  0  0  0  3  0  0  0  0  0  0
  156.1800  214.1010  151.3760 C   0  0  0  0  0  3  0  0  0  0  0  0
  159.5680  213.4360  155.1190 C   0  0  0  0  0  2  0  0  0  0  0  0
  162.3210  209.4730  151.6010 C   0  0  1  0  0  3  0  0  0  0  0  0
  161.2790  210.3270  151.0520 C   0  0  1  0  0  3  0  0  0  0  0  0
  157.3420  213.5320  150.8070 C   0  0  0  0  0  0  0  0  0  0  0  0
  160.3910  212.5050  152.8060 C   0  0  1  0  0  3  0  0  0  0  0  0
  157.2000  214.2110  154.9740 O   0  0  0  0  0  0  0  0  0  0  0  0
  159.7460  212.9570  149.0000 N   0  0  0  0  0  0  0  0  0  0  0  0
  158.3800  214.4530  157.0590 C   0  0  0  0  0  1  0  0  0  0  0  0
  162.0210  210.7780  152.2460 N   0  0  1  0  0  0  0  0  0  0  0  0
  160.6340  207.6900  151.7320 O   0  0  0  0  0  1  0  0  0  0  0  0
  160.9430  211.1140  153.1900 C   0  0  2  0  0  3  0  0  0  0  0  0
  158.3620  212.8670  148.6160 C   0  0  0  0  0  3  0  0  0  0  0  0
  161.9320  213.9660  148.4070 C   0  0  0  0  0  3  0  0  0  0  0  0
  160.6710  213.4830  148.0220 C   0  0  0  0  0  0  0  0  0  0  0  0
  160.3380  213.4900  146.6580 C   0  0  0  0  0  3  0  0  0  0  0  0
  160.8940  213.9970  144.2790 C   0  0  0  0  0  1  0  0  0  0  0  0
  162.4580  214.4530  146.1290 N   0  0  0  0  0  0  0  0  0  0  0  0
  161.2480  213.9850  145.7220 C   0  0  0  0  0  0  0  0  0  0  0  0
  162.8150  214.4530  147.4410 C   0  0  0  0  0  3  0  0  0  0  0  0
  159.5040  207.2180  155.7420 C   0  0  0  0  0  1  0  0  0  0  0  0
  159.3450  207.9750  154.4370 C   0  0  0  0  0  2  0  0  0  0  0  0
  1  4  1  0  0  0  0
  2 14  1  0  0  0  0
  2 24  1  0  0  0  0
  3  9  1  0  0  0  0
  4 37  1  0  0  0  0
  5 10  1  0  0  0  0
  5 19  1  0  0  0  0
  6 22  1  0  0  0  0
  7  3  1  0  0  0  0
  7 21  1  0  0  0  0
  8 26  1  6  0  0  0
  8 12  1  0  0  0  0
  9  6  2  0  0  0  0
  9 13  1  0  0  0  0
 10  7  2  0  0  0  0
 11  6  1  0  0  0  0
 12  4  1  0  0  0  0
 13 17  1  0  0  0  0
 15 20  1  0  0  0  0
 16 11  2  0  0  0  0
 17  2  1  0  0  0  0
 18 25  1  0  0  0  0
 18  8  1  0  0  0  0
 19 18  1  0  0  0  0
 19 25  1  0  0  0  0
 20 16  1  0  0  0  0
 20  3  2  0  0  0  0
 21 27  1  0  0  0  0
 21 13  1  0  0  0  0
 22  2  1  0  0  0  0
 23 10  1  0  0  0  0
 25 27  1  0  0  0  0
 27  1  1  0  0  0  0
 28 23  1  0  0  0  0
 28 15  2  0  0  0  0
 30 29  1  0  0  0  0
 30 23  1  0  0  0  0
 31 30  2  0  0  0  0
 32 34  1  0  0  0  0
 33 35  1  0  0  0  0
 34 33  2  0  0  0  0
 34 31  1  0  0  0  0
 35 29  2  0  0  0  0
 37 36  1  0  0  0  0
M  END
>  <MODEL>
2

>  <REMARK>
 VINA RESULT:      -1.7      2.066      2.999
  Name = 
  2 active torsions:
  status: ('A' for Active; 'I' for Inactive)
    1  A    between atoms: N_4  and  C_37
    2  A    between atoms: N_23  and  C_30
                            x       y       z     vdW  Elec       q    Type
                         _______ _______ _______ _____ _____    ______ ____

>  <TORSDO>
F 2

$$$$
=
 OpenBabel11122413533D

 37 44  0  0  1  0  0  0  0  0999 V2000
  161.0370  207.1670  151.2930 C   0  0  0  0  0  2  0  0  0  0  0  0
  161.5090  208.9650  155.5070 C   0  0  0  0  0  0  0  0  0  0  0  0
  160.4200  211.0070  152.0170 C   0  0  0  0  0  0  0  0  0  0  0  0
  161.3570  205.7400  151.3130 N   0  0  0  0  0  0  0  0  0  0  0  0
  162.0510  209.9540  148.6500 C   0  0  0  0  0  2  0  0  0  0  0  0
  160.1370  210.7200  154.3940 C   0  0  0  0  0  0  0  0  0  0  0  0
  161.2780  210.4250  150.9900 C   0  0  0  0  0  0  0  0  0  0  0  0
  161.7650  206.0240  148.8120 C   0  0  2  0  0  3  0  0  0  0  0  0
  160.7500  210.4180  153.2000 C   0  0  0  0  0  0  0  0  0  0  0  0
  161.3270  210.8010  149.6830 C   0  0  0  0  0  0  0  0  0  0  0  0
  159.0750  211.6350  154.3810 C   0  0  0  0  0  3  0  0  0  0  0  0
  162.1070  205.2950  150.1250 C   0  0  0  0  0  2  0  0  0  0  0  0
  161.7510  209.4420  153.0960 N   0  0  0  0  0  0  0  0  0  0  0  0
  160.6960  207.6850  155.4310 C   0  0  0  0  0  1  0  0  0  0  0  0
  158.7550  212.3370  150.6760 C   0  0  0  0  0  3  0  0  0  0  0  0
  158.6530  212.1860  153.1480 C   0  0  0  0  0  3  0  0  0  0  0  0
  162.4730  209.0180  154.2920 C   0  0  0  0  0  2  0  0  0  0  0  0
  162.4990  207.3580  148.5560 C   0  0  1  0  0  3  0  0  0  0  0  0
  161.7280  208.5200  148.9700 C   0  0  1  0  0  3  0  0  0  0  0  0
  159.3210  211.8660  151.9440 C   0  0  0  0  0  0  0  0  0  0  0  0
  162.2190  209.4380  151.7130 C   0  0  1  0  0  3  0  0  0  0  0  0
  160.6090  210.0930  155.5560 O   0  0  0  0  0  0  0  0  0  0  0  0
  160.7430  212.0460  149.2380 N   0  0  0  0  0  0  0  0  0  0  0  0
  162.3290  208.9350  156.7780 C   0  0  0  0  0  1  0  0  0  0  0  0
  162.8850  208.1000  149.7840 N   0  0  1  0  0  0  0  0  0  0  0  0
  160.3890  206.0940  148.5710 O   0  0  0  0  0  1  0  0  0  0  0  0
  162.3130  208.0070  151.1370 C   0  0  2  0  0  3  0  0  0  0  0  0
  159.3720  212.4020  149.4960 C   0  0  0  0  0  3  0  0  0  0  0  0
  162.7550  213.3730  148.6530 C   0  0  0  0  0  3  0  0  0  0  0  0
  161.4820  212.8830  148.3190 C   0  0  0  0  0  0  0  0  0  0  0  0
  160.9530  213.1940  147.0570 C   0  0  0  0  0  3  0  0  0  0  0  0
  161.1230  214.3210  144.8380 C   0  0  0  0  0  1  0  0  0  0  0  0
  162.9110  214.4530  146.5290 N   0  0  0  0  0  0  0  0  0  0  0  0
  161.6850  213.9880  146.1720 C   0  0  0  0  0  0  0  0  0  0  0  0
  163.4560  214.1630  147.7400 C   0  0  0  0  0  3  0  0  0  0  0  0
  160.3690  203.5230  151.1480 C   0  0  0  0  0  1  0  0  0  0  0  0
  160.1050  205.0010  151.3610 C   0  0  0  0  0  2  0  0  0  0  0  0
  1  4  1  0  0  0  0
  2 22  1  0  0  0  0
  2 24  1  0  0  0  0
  3  9  1  0  0  0  0
  4 37  1  0  0  0  0
  5 19  1  0  0  0  0
  5 10  1  0  0  0  0
  6 22  1  0  0  0  0
  7 21  1  0  0  0  0
  7  3  1  0  0  0  0
  8 26  1  1  0  0  0
  8 12  1  0  0  0  0
  9  6  2  0  0  0  0
 10  7  2  0  0  0  0
 11  6  1  0  0  0  0
 12  4  1  0  0  0  0
 13  9  1  0  0  0  0
 13 17  1  0  0  0  0
 14  2  1  0  0  0  0
 15 20  1  0  0  0  0
 16 11  2  0  0  0  0
 17  2  1  0  0  0  0
 18  8  1  0  0  0  0
 18 19  1  0  0  0  0
 18 25  1  0  0  0  0
 19 25  1  0  0  0  0
 20  3  2  0  0  0  0
 20 16  1  0  0  0  0
 21 13  1  0  0  0  0
 23 28  1  0  0  0  0
 23 10  1  0  0  0  0
 25 27  1  0  0  0  0
 27  1  1  0  0  0  0
 27 21  1  0  0  0  0
 28 15  2  0  0  0  0
 30 29  1  0  0  0  0
 30 23  1  0  0  0  0
 31 30  2  0  0  0  0
 32 34  1  0  0  0  0
 33 35  1  0  0  0  0
 34 33  2  0  0  0  0
 34 31  1  0  0  0  0
 35 29  2  0  0  0  0
 36 37  1  0  0  0  0
M  END
>  <MODEL>
3

>  <REMARK>
 VINA RESULT:      -1.3      1.084      1.124
  Name = 
  2 active torsions:
  status: ('A' for Active; 'I' for Inactive)
    1  A    between atoms: N_4  and  C_37
    2  A    between atoms: N_23  and  C_30
                            x       y       z     vdW  Elec       q    Type
                         _______ _______ _______ _____ _____    ______ ____

>  <TORSDO>
F 2

$$$$
=
 OpenBabel11122413533D

 37 44  0  0  1  0  0  0  0  0999 V2000
  158.3050  212.8700  150.2750 C   0  0  0  0  0  2  0  0  0  0  0  0
  162.0130  213.3450  147.5850 C   0  0  0  0  0  0  0  0  0  0  0  0
  161.4120  210.4370  150.5380 C   0  0  0  0  0  0  0  0  0  0  0  0
  157.3300  213.9210  149.9830 N   0  0  0  0  0  0  0  0  0  0  0  0
  159.5050  211.4280  153.7750 C   0  0  0  0  0  2  0  0  0  0  0  0
  162.2890  210.9960  148.3620 C   0  0  0  0  0  0  0  0  0  0  0  0
  160.7660  211.1690  151.6220 C   0  0  0  0  0  0  0  0  0  0  0  0
  156.4360  213.4310  152.3200 C   0  0  2  0  0  3  0  0  0  0  0  0
  161.6810  211.3340  149.5490 C   0  0  0  0  0  0  0  0  0  0  0  0
  160.4120  210.6560  152.8310 C   0  0  0  0  0  0  0  0  0  0  0  0
  162.5900  209.6450  148.1340 C   0  0  0  0  0  3  0  0  0  0  0  0
  156.6660  214.4500  151.1880 C   0  0  0  0  0  2  0  0  0  0  0  0
  161.2510  212.6390  149.8250 N   0  0  0  0  0  0  0  0  0  0  0  0
  160.6760  213.3950  146.8680 C   0  0  0  0  0  1  0  0  0  0  0  0
  161.1340  208.0330  151.2320 C   0  0  0  0  0  3  0  0  0  0  0  0
  162.2320  208.6840  149.1080 C   0  0  0  0  0  3  0  0  0  0  0  0
  161.8030  213.7580  149.0660 C   0  0  0  0  0  2  0  0  0  0  0  0
  157.6160  213.2010  153.2880 C   0  0  1  0  0  3  0  0  0  0  0  0
  158.4350  212.0540  152.9240 C   0  0  1  0  0  3  0  0  0  0  0  0
  161.6260  209.0730  150.3240 C   0  0  0  0  0  0  0  0  0  0  0  0
  160.7230  212.6500  151.1870 C   0  0  1  0  0  3  0  0  0  0  0  0
  162.5710  212.0200  147.4480 O   0  0  0  0  0  0  0  0  0  0  0  0
  160.9300  209.3870  153.2890 N   0  0  0  0  0  0  0  0  0  0  0  0
  162.9450  214.3410  146.9290 C   0  0  0  0  0  1  0  0  0  0  0  0
  158.9610  213.4140  152.6910 N   0  0  1  0  0  0  0  0  0  0  0  0
  155.8480  212.2440  151.8720 O   0  0  0  0  0  1  0  0  0  0  0  0
  159.3590  213.3690  151.2740 C   0  0  2  0  0  3  0  0  0  0  0  0
  160.8180  208.1750  152.5200 C   0  0  0  0  0  3  0  0  0  0  0  0
  161.0320  208.1580  155.4400 C   0  0  0  0  0  3  0  0  0  0  0  0
  161.3910  209.2640  154.6540 C   0  0  0  0  0  0  0  0  0  0  0  0
  162.2370  210.2360  155.2110 C   0  0  0  0  0  3  0  0  0  0  0  0
  163.5810  211.1260  157.1150 C   0  0  0  0  0  1  0  0  0  0  0  0
  162.3150  209.0160  157.2610 N   0  0  0  0  0  0  0  0  0  0  0  0
  162.6890  210.0960  156.5240 C   0  0  0  0  0  0  0  0  0  0  0  0
  161.5040  208.0530  156.7500 C   0  0  0  0  0  3  0  0  0  0  0  0
  156.9270  212.9450  147.7920 C   0  0  0  0  0  1  0  0  0  0  0  0
  156.3090  213.3570  149.1140 C   0  0  0  0  0  2  0  0  0  0  0  0
  1 27  1  0  0  0  0
  2 17  1  0  0  0  0
  3  7  1  0  0  0  0
  4  1  1  0  0  0  0
  4 12  1  0  0  0  0
  6  9  1  0  0  0  0
  7 10  2  0  0  0  0
  8 26  1  6  0  0  0
  8 18  1  0  0  0  0
  9 13  1  0  0  0  0
  9  3  2  0  0  0  0
 10 23  1  0  0  0  0
 10  5  1  0  0  0  0
 11  6  2  0  0  0  0
 11 16  1  0  0  0  0
 12  8  1  0  0  0  0
 13 21  1  0  0  0  0
 14  2  1  0  0  0  0
 15 28  2  0  0  0  0
 16 20  2  0  0  0  0
 17 13  1  0  0  0  0
 19 18  1  0  0  0  0
 19  5  1  0  0  0  0
 20  3  1  0  0  0  0
 20 15  1  0  0  0  0
 21 27  1  0  0  0  0
 21  7  1  0  0  0  0
 22  2  1  0  0  0  0
 22  6  1  0  0  0  0
 23 30  1  0  0  0  0
 24  2  1  0  0  0  0
 25 19  1  0  0  0  0
 25 18  1  0  0  0  0
 27 25  1  0  0  0  0
 28 23  1  0  0  0  0
 29 35  1  0  0  0  0
 30 31  1  0  0  0  0
 30 29  2  0  0  0  0
 31 34  2  0  0  0  0
 34 32  1  0  0  0  0
 34 33  1  0  0  0  0
 35 33  2  0  0  0  0
 36 37  1  0  0  0  0
 37  4  1  0  0  0  0
M  END
>  <MODEL>
4

>  <REMARK>
 VINA RESULT:      -1.2      2.271      7.903
  Name = 
  2 active torsions:
  status: ('A' for Active; 'I' for Inactive)
    1  A    between atoms: N_4  and  C_37
    2  A    between atoms: N_23  and  C_30
                            x       y       z     vdW  Elec       q    Type
                         _______ _______ _______ _____ _____    ______ ____

>  <TORSDO>
F 2

$$$$
