=
 OpenBabel11122413093D

 31 35  0  0  1  0  0  0  0  0999 V2000
  160.9290  206.6260  146.8960 C   0  0  0  0  0  0  0  0  0  0  0  0
  160.7080  204.7010  150.1180 N   0  0  0  0  0  0  0  0  0  0  0  0
  160.8430  203.2850  149.8460 C   0  0  0  0  0  0  0  0  0  0  0  0
  161.1230  201.4240  148.3010 C   0  0  0  0  0  0  0  0  0  0  0  0
  161.0670  205.6870  149.1290 C   0  0  0  0  0  0  0  0  0  0  0  0
  161.8040  207.6510  147.2700 C   0  0  0  0  0  3  0  0  0  0  0  0
  160.9150  202.7870  148.5340 C   0  0  0  0  0  3  0  0  0  0  0  0
  162.1280  205.7730  151.7810 C   0  0  2  0  0  3  0  0  0  0  0  0
  160.4140  206.5790  145.5710 N   0  0  0  0  0  1  0  0  0  0  0  0
  160.9150  202.8610  152.2270 O   0  0  0  0  0  0  0  0  0  0  0  0
  161.2080  200.8230  146.6600 Cl  0  0  0  0  0  0  0  0  0  0  0  0
  162.4240  206.7910  150.8180 O   0  0  0  0  0  0  0  0  0  0  0  0
  160.7400  205.1890  151.5060 C   0  0  2  0  0  3  0  0  0  0  0  0
  160.5580  205.6480  147.8230 C   0  0  0  0  0  3  0  0  0  0  0  0
  161.2780  200.5480  149.3770 C   0  0  0  0  0  3  0  0  0  0  0  0
  161.9410  206.7270  149.5030 C   0  0  0  0  0  0  0  0  0  0  0  0
  162.3080  207.7030  148.5730 C   0  0  0  0  0  3  0  0  0  0  0  0
  160.3130  204.1160  152.5170 C   0  0  0  0  0  2  0  0  0  0  0  0
  160.9840  202.3890  150.9200 C   0  0  0  0  0  0  0  0  0  0  0  0
  161.2110  201.0290  150.6860 C   0  0  0  0  0  3  0  0  0  0  0  0
  162.2390  206.3440  153.1870 C   0  0  0  0  0  2  0  0  0  0  0  0
  160.4230  206.2960  154.7440 O   0  0  0  0  0  1  0  0  0  0  0  0
  160.9050  206.9480  153.6080 C   0  0  1  0  0  3  0  0  0  0  0  0
  160.3350  211.0160  154.6450 C   0  0  0  0  0  0  0  0  0  0  0  0
  161.3840  208.8170  155.2180 C   0  0  0  0  0  2  0  0  0  0  0  0
  160.6520  209.0960  151.6630 O   0  0  0  0  0  0  0  0  0  0  0  0
  160.0500  212.4040  155.0890 C   0  0  0  0  0  1  0  0  0  0  0  0
  160.4210  209.9150  155.6710 C   0  0  0  0  0  2  0  0  0  0  0  0
  160.7130  209.3820  152.8870 C   0  0  0  0  0  0  0  0  0  0  0  0
  161.0390  208.3800  153.8670 N   0  0  0  0  0  0  0  0  0  0  0  0
  160.4290  210.7500  153.3390 C   0  0  0  0  0  3  0  0  0  0  0  0
  1  6  2  0  0  0  0
  1 14  1  0  0  0  0
  2 13  1  0  0  0  0
  3  2  1  0  0  0  0
  3 19  1  0  0  0  0
  4  7  1  0  0  0  0
  4 15  2  0  0  0  0
  5 16  1  0  0  0  0
  5  2  1  0  0  0  0
  6 17  1  0  0  0  0
  7  3  2  0  0  0  0
  8 21  1  1  0  0  0
  9  1  1  0  0  0  0
 10 18  1  0  0  0  0
 11  4  1  0  0  0  0
 12  8  1  0  0  0  0
 13  8  1  0  0  0  0
 13 18  1  1  0  0  0
 14  5  2  0  0  0  0
 15 20  1  0  0  0  0
 16 12  1  0  0  0  0
 17 16  2  0  0  0  0
 19 10  1  0  0  0  0
 20 19  2  0  0  0  0
 21 23  1  0  0  0  0
 23 30  1  0  0  0  0
 23 22  1  1  0  0  0
 24 27  1  0  0  0  0
 24 28  1  0  0  0  0
 25 28  1  0  0  0  0
 26 29  2  0  0  0  0
 29 31  1  0  0  0  0
 29 30  1  0  0  0  0
 30 25  1  0  0  0  0
 31 24  2  0  0  0  0
M  END
>  <MODEL>
1

>  <REMARK>
 VINA RESULT:      -8.2      0.000      0.000
  Name = 
  3 active torsions:
  status: ('A' for Active; 'I' for Inactive)
    1  A    between atoms: C_5  and  C_16
    2  A    between atoms: C_5  and  N_30
    3  A    between atoms: C_10  and  C_16
                            x       y       z     vdW  Elec       q    Type
                         _______ _______ _______ _____ _____    ______ ____

>  <TORSDO>
F 3

$$$$
=
 OpenBabel11122413093D

 31 35  0  0  1  0  0  0  0  0999 V2000
  162.2140  209.9430  149.3150 C   0  0  0  0  0  0  0  0  0  0  0  0
  161.5470  207.8070  152.3360 N   0  0  0  0  0  0  0  0  0  0  0  0
  160.9340  208.6120  153.3720 C   0  0  0  0  0  0  0  0  0  0  0  0
  160.1040  210.7400  154.2120 C   0  0  0  0  0  0  0  0  0  0  0  0
  161.6200  208.2760  150.9740 C   0  0  0  0  0  0  0  0  0  0  0  0
  161.7400  209.1060  148.3000 C   0  0  0  0  0  3  0  0  0  0  0  0
  160.7670  210.0000  153.2300 C   0  0  0  0  0  3  0  0  0  0  0  0
  160.5050  205.7240  151.6210 C   0  0  2  0  0  3  0  0  0  0  0  0
  162.7550  211.2180  148.9900 N   0  0  0  0  0  1  0  0  0  0  0  0
  160.5780  206.6070  154.6810 O   0  0  0  0  0  0  0  0  0  0  0  0
  159.9070  212.4680  154.0180 Cl  0  0  0  0  0  0  0  0  0  0  0  0
  160.6470  206.1630  150.2640 O   0  0  0  0  0  0  0  0  0  0  0  0
  161.6100  206.3430  152.4820 C   0  0  2  0  0  3  0  0  0  0  0  0
  162.1580  209.5290  150.6490 C   0  0  0  0  0  3  0  0  0  0  0  0
  159.5840  210.0990  155.3390 C   0  0  0  0  0  3  0  0  0  0  0  0
  161.1520  207.4320  149.9470 C   0  0  0  0  0  0  0  0  0  0  0  0
  161.2110  207.8510  148.6150 C   0  0  0  0  0  3  0  0  0  0  0  0
  161.5680  205.8960  153.9490 C   0  0  0  0  0  2  0  0  0  0  0  0
  160.4220  207.9810  154.5200 C   0  0  0  0  0  0  0  0  0  0  0  0
  159.7410  208.7200  155.4920 C   0  0  0  0  0  3  0  0  0  0  0  0
  160.5230  204.2040  151.6760 C   0  0  0  0  0  2  0  0  0  0  0  0
  162.5080  202.8720  151.6080 O   0  0  0  0  0  1  0  0  0  0  0  0
  161.6690  203.6680  150.8280 C   0  0  1  0  0  3  0  0  0  0  0  0
  161.1190  201.0470  147.5450 C   0  0  0  0  0  0  0  0  0  0  0  0
  160.6020  201.5740  149.9360 C   0  0  0  0  0  2  0  0  0  0  0  0
  161.5500  204.5440  148.0560 O   0  0  0  0  0  0  0  0  0  0  0  0
  161.0110  200.0540  146.4450 C   0  0  0  0  0  1  0  0  0  0  0  0
  161.2200  200.5630  148.9680 C   0  0  0  0  0  2  0  0  0  0  0  0
  161.3130  203.3380  148.3280 C   0  0  0  0  0  0  0  0  0  0  0  0
  161.1620  202.9020  149.6910 N   0  0  0  0  0  0  0  0  0  0  0  0
  161.2090  202.3470  147.2490 C   0  0  0  0  0  3  0  0  0  0  0  0
  1 14  1  0  0  0  0
  2 13  1  0  0  0  0
  2  3  1  0  0  0  0
  3 19  1  0  0  0  0
  4 15  2  0  0  0  0
  5  2  1  0  0  0  0
  6 17  1  0  0  0  0
  6  1  2  0  0  0  0
  7  3  2  0  0  0  0
  7  4  1  0  0  0  0
  8 21  1  6  0  0  0
  8 13  1  0  0  0  0
  9  1  1  0  0  0  0
 11  4  1  0  0  0  0
 12  8  1  0  0  0  0
 13 18  1  1  0  0  0
 14  5  2  0  0  0  0
 15 20  1  0  0  0  0
 16 12  1  0  0  0  0
 16  5  1  0  0  0  0
 17 16  2  0  0  0  0
 18 10  1  0  0  0  0
 19 10  1  0  0  0  0
 19 20  2  0  0  0  0
 23 22  1  1  0  0  0
 23 21  1  0  0  0  0
 24 28  1  0  0  0  0
 26 29  2  0  0  0  0
 27 24  1  0  0  0  0
 28 25  1  0  0  0  0
 29 30  1  0  0  0  0
 30 25  1  0  0  0  0
 30 23  1  0  0  0  0
 31 24  2  0  0  0  0
 31 29  1  0  0  0  0
M  END
>  <MODEL>
2

>  <REMARK>
 VINA RESULT:      -8.1      3.095      7.478
  Name = 
  3 active torsions:
  status: ('A' for Active; 'I' for Inactive)
    1  A    between atoms: C_5  and  C_16
    2  A    between atoms: C_5  and  N_30
    3  A    between atoms: C_10  and  C_16
                            x       y       z     vdW  Elec       q    Type
                         _______ _______ _______ _____ _____    ______ ____

>  <TORSDO>
F 3

$$$$
=
 OpenBabel11122413093D

 31 35  0  0  1  0  0  0  0  0999 V2000
  161.9640  211.9370  148.9840 C   0  0  0  0  0  0  0  0  0  0  0  0
  161.0340  210.5620  152.3570 N   0  0  0  0  0  0  0  0  0  0  0  0
  159.9000  211.2940  152.8830 C   0  0  0  0  0  0  0  0  0  0  0  0
  158.2300  213.0570  152.7090 C   0  0  0  0  0  0  0  0  0  0  0  0
  161.4010  210.6560  150.9660 C   0  0  0  0  0  0  0  0  0  0  0  0
  162.1290  210.7520  148.2610 C   0  0  0  0  0  3  0  0  0  0  0  0
  159.3720  212.4150  152.2210 C   0  0  0  0  0  3  0  0  0  0  0  0
  160.9750  208.1300  152.2330 C   0  0  2  0  0  3  0  0  0  0  0  0
  162.1640  213.1920  148.3460 N   0  0  0  0  0  1  0  0  0  0  0  0
  159.7660  209.7190  154.7160 O   0  0  0  0  0  0  0  0  0  0  0  0
  157.5890  214.4530  151.8720 Cl  0  0  0  0  0  0  0  0  0  0  0  0
  161.4110  208.2260  150.8730 O   0  0  0  0  0  0  0  0  0  0  0  0
  161.4900  209.3330  153.0280 C   0  0  2  0  0  3  0  0  0  0  0  0
  161.6050  211.8910  150.3340 C   0  0  0  0  0  3  0  0  0  0  0  0
  157.5930  212.5730  153.8540 C   0  0  0  0  0  3  0  0  0  0  0  0
  161.5770  209.4640  150.2350 C   0  0  0  0  0  0  0  0  0  0  0  0
  161.9380  209.5170  148.8860 C   0  0  0  0  0  3  0  0  0  0  0  0
  161.1090  209.2970  154.5140 C   0  0  0  0  0  2  0  0  0  0  0  0
  159.2600  210.8280  154.0450 C   0  0  0  0  0  0  0  0  0  0  0  0
  158.1060  211.4590  154.5200 C   0  0  0  0  0  3  0  0  0  0  0  0
  161.4380  206.8100  152.8320 C   0  0  0  0  0  2  0  0  0  0  0  0
  163.3700  205.4670  152.3990 O   0  0  0  0  0  1  0  0  0  0  0  0
  162.2410  206.0260  151.8010 C   0  0  1  0  0  3  0  0  0  0  0  0
  160.7460  202.5010  149.9880 C   0  0  0  0  0  0  0  0  0  0  0  0
  160.8880  203.9230  152.0430 C   0  0  0  0  0  2  0  0  0  0  0  0
  161.4480  205.8510  149.0070 O   0  0  0  0  0  0  0  0  0  0  0  0
  160.3130  201.2040  149.4080 C   0  0  0  0  0  1  0  0  0  0  0  0
  161.1890  202.5550  151.4280 C   0  0  0  0  0  2  0  0  0  0  0  0
  161.2370  204.8700  149.7670 C   0  0  0  0  0  0  0  0  0  0  0  0
  161.4230  204.9800  151.1890 N   0  0  0  0  0  0  0  0  0  0  0  0
  160.8130  203.5810  149.2040 C   0  0  0  0  0  3  0  0  0  0  0  0
  1 14  1  0  0  0  0
  2  3  1  0  0  0  0
  2 13  1  0  0  0  0
  3 19  1  0  0  0  0
  4 15  2  0  0  0  0
  5  2  1  0  0  0  0
  6 17  1  0  0  0  0
  6  1  2  0  0  0  0
  7  4  1  0  0  0  0
  7  3  2  0  0  0  0
  8 21  1  1  0  0  0
  8 13  1  0  0  0  0
  9  1  1  0  0  0  0
 11  4  1  0  0  0  0
 12  8  1  0  0  0  0
 13 18  1  1  0  0  0
 14  5  2  0  0  0  0
 15 20  1  0  0  0  0
 16 12  1  0  0  0  0
 16  5  1  0  0  0  0
 17 16  2  0  0  0  0
 18 10  1  0  0  0  0
 19 20  2  0  0  0  0
 19 10  1  0  0  0  0
 23 22  1  1  0  0  0
 23 21  1  0  0  0  0
 24 28  1  0  0  0  0
 26 29  2  0  0  0  0
 27 24  1  0  0  0  0
 28 25  1  0  0  0  0
 29 30  1  0  0  0  0
 30 23  1  0  0  0  0
 30 25  1  0  0  0  0
 31 29  1  0  0  0  0
 31 24  2  0  0  0  0
M  END
>  <MODEL>
3

>  <REMARK>
 VINA RESULT:      -8.1      3.617      7.673
  Name = 
  3 active torsions:
  status: ('A' for Active; 'I' for Inactive)
    1  A    between atoms: C_5  and  C_16
    2  A    between atoms: C_5  and  N_30
    3  A    between atoms: C_10  and  C_16
                            x       y       z     vdW  Elec       q    Type
                         _______ _______ _______ _____ _____    ______ ____

>  <TORSDO>
F 3

$$$$
=
 OpenBabel11122413093D

 31 35  0  0  1  0  0  0  0  0999 V2000
  161.1120  202.0120  150.6070 C   0  0  0  0  0  0  0  0  0  0  0  0
  161.7810  205.0720  148.5290 N   0  0  0  0  0  0  0  0  0  0  0  0
  161.4320  204.8060  147.1480 C   0  0  0  0  0  0  0  0  0  0  0  0
  160.6260  203.3190  145.3990 C   0  0  0  0  0  0  0  0  0  0  0  0
  161.3380  204.2030  149.5910 C   0  0  0  0  0  0  0  0  0  0  0  0
  160.4570  202.5840  151.7020 C   0  0  0  0  0  3  0  0  0  0  0  0
  161.0310  203.5300  146.7190 C   0  0  0  0  0  3  0  0  0  0  0  0
  160.8720  207.0220  149.6720 C   0  0  2  0  0  3  0  0  0  0  0  0
  161.3290  200.6070  150.5640 N   0  0  0  0  0  1  0  0  0  0  0  0
  161.8130  207.1400  146.6300 O   0  0  0  0  0  0  0  0  0  0  0  0
  160.1320  201.7220  144.8830 Cl  0  0  0  0  0  0  0  0  0  0  0  0
  160.4990  206.1650  150.7570 O   0  0  0  0  0  0  0  0  0  0  0  0
  162.0970  206.4460  148.9550 C   0  0  2  0  0  3  0  0  0  0  0  0
  161.5550  202.8180  149.5550 C   0  0  0  0  0  3  0  0  0  0  0  0
  160.6010  204.3850  144.4970 C   0  0  0  0  0  3  0  0  0  0  0  0
  160.6850  204.7760  150.7000 C   0  0  0  0  0  0  0  0  0  0  0  0
  160.2460  203.9650  151.7490 C   0  0  0  0  0  3  0  0  0  0  0  0
  162.6010  207.3200  147.8000 C   0  0  0  0  0  2  0  0  0  0  0  0
  161.4190  205.8680  146.2260 C   0  0  0  0  0  0  0  0  0  0  0  0
  160.9940  205.6590  144.9110 C   0  0  0  0  0  3  0  0  0  0  0  0
  161.1240  208.4300  150.1890 C   0  0  0  0  0  2  0  0  0  0  0  0
  162.9460  209.3160  151.4610 O   0  0  0  0  0  1  0  0  0  0  0  0
  161.9200  208.3710  151.4870 C   0  0  1  0  0  3  0  0  0  0  0  0
  160.1830  209.5820  155.1570 C   0  0  0  0  0  0  0  0  0  0  0  0
  160.2210  209.8010  152.6640 C   0  0  0  0  0  2  0  0  0  0  0  0
  161.5710  206.6090  153.7760 O   0  0  0  0  0  0  0  0  0  0  0  0
  159.6440  210.1080  156.4370 C   0  0  0  0  0  1  0  0  0  0  0  0
  160.3910  210.5260  154.0000 C   0  0  0  0  0  2  0  0  0  0  0  0
  161.0830  207.7680  153.8150 C   0  0  0  0  0  0  0  0  0  0  0  0
  161.0530  208.6000  152.6410 N   0  0  0  0  0  0  0  0  0  0  0  0
  160.5510  208.3000  155.0760 C   0  0  0  0  0  3  0  0  0  0  0  0
  1  6  1  0  0  0  0
  2 13  1  0  0  0  0
  2  5  1  0  0  0  0
  3  2  1  0  0  0  0
  4  7  2  0  0  0  0
  5 16  2  0  0  0  0
  6 17  2  0  0  0  0
  7  3  1  0  0  0  0
  8 21  1  1  0  0  0
  8 12  1  0  0  0  0
  9  1  1  0  0  0  0
 10 18  1  0  0  0  0
 11  4  1  0  0  0  0
 13 18  1  6  0  0  0
 13  8  1  0  0  0  0
 14  5  1  0  0  0  0
 14  1  2  0  0  0  0
 15 20  2  0  0  0  0
 15  4  1  0  0  0  0
 16 12  1  0  0  0  0
 16 17  1  0  0  0  0
 19 10  1  0  0  0  0
 19  3  2  0  0  0  0
 20 19  1  0  0  0  0
 21 23  1  0  0  0  0
 23 22  1  6  0  0  0
 23 30  1  0  0  0  0
 24 27  1  0  0  0  0
 25 28  1  0  0  0  0
 26 29  2  0  0  0  0
 28 24  1  0  0  0  0
 29 31  1  0  0  0  0
 30 25  1  0  0  0  0
 30 29  1  0  0  0  0
 31 24  2  0  0  0  0
M  END
>  <MODEL>
4

>  <REMARK>
 VINA RESULT:      -7.7      1.889      4.257
  Name = 
  3 active torsions:
  status: ('A' for Active; 'I' for Inactive)
    1  A    between atoms: C_5  and  C_16
    2  A    between atoms: C_5  and  N_30
    3  A    between atoms: C_10  and  C_16
                            x       y       z     vdW  Elec       q    Type
                         _______ _______ _______ _____ _____    ______ ____

>  <TORSDO>
F 3

$$$$
=
 OpenBabel11122413093D

 31 35  0  0  1  0  0  0  0  0999 V2000
  162.2170  210.1490  149.2580 C   0  0  0  0  0  0  0  0  0  0  0  0
  161.9390  207.0120  151.3110 N   0  0  0  0  0  0  0  0  0  0  0  0
  161.4180  207.3370  152.6230 C   0  0  0  0  0  0  0  0  0  0  0  0
  160.6210  208.9470  154.2660 C   0  0  0  0  0  0  0  0  0  0  0  0
  161.8530  207.9530  150.2210 C   0  0  0  0  0  0  0  0  0  0  0  0
  161.6610  209.7150  148.0500 C   0  0  0  0  0  3  0  0  0  0  0  0
  161.1970  208.6650  153.0240 C   0  0  0  0  0  3  0  0  0  0  0  0
  160.8880  205.2740  149.9670 C   0  0  2  0  0  3  0  0  0  0  0  0
  162.6830  211.4870  149.3850 N   0  0  0  0  0  1  0  0  0  0  0  0
  161.2620  204.9730  153.1170 O   0  0  0  0  0  0  0  0  0  0  0  0
  160.3550  210.6080  154.7470 Cl  0  0  0  0  0  0  0  0  0  0  0  0
  160.8710  206.1890  148.8650 O   0  0  0  0  0  0  0  0  0  0  0  0
  162.0600  205.6050  150.8960 C   0  0  2  0  0  3  0  0  0  0  0  0
  162.3160  209.2710  150.3400 C   0  0  0  0  0  3  0  0  0  0  0  0
  160.2440  207.9030  155.1130 C   0  0  0  0  0  3  0  0  0  0  0  0
  161.3020  207.5170  149.0000 C   0  0  0  0  0  0  0  0  0  0  0  0
  161.2060  208.3990  147.9210 C   0  0  0  0  0  3  0  0  0  0  0  0
  162.1880  204.6480  152.0880 C   0  0  0  0  0  2  0  0  0  0  0  0
  161.0500  206.2950  153.4930 C   0  0  0  0  0  0  0  0  0  0  0  0
  160.4560  206.5780  154.7270 C   0  0  0  0  0  3  0  0  0  0  0  0
  160.9550  203.8450  149.4500 C   0  0  0  0  0  2  0  0  0  0  0  0
  162.5410  204.1510  147.6860 O   0  0  0  0  0  1  0  0  0  0  0  0
  161.2040  203.8490  147.9470 C   0  0  1  0  0  3  0  0  0  0  0  0
  161.1900  199.9900  146.1990 C   0  0  0  0  0  0  0  0  0  0  0  0
  160.7740  201.3890  148.2320 C   0  0  0  0  0  2  0  0  0  0  0  0
  160.5350  203.3330  145.1630 O   0  0  0  0  0  0  0  0  0  0  0  0
  161.2930  198.6170  145.6420 C   0  0  0  0  0  1  0  0  0  0  0  0
  161.5810  200.2350  147.6330 C   0  0  0  0  0  2  0  0  0  0  0  0
  160.7230  202.3600  145.9390 C   0  0  0  0  0  0  0  0  0  0  0  0
  160.8550  202.5570  147.3580 N   0  0  0  0  0  0  0  0  0  0  0  0
  160.8310  200.9980  145.3990 C   0  0  0  0  0  3  0  0  0  0  0  0
  1  9  1  0  0  0  0
  1 14  1  0  0  0  0
  2  3  1  0  0  0  0
  3  7  2  0  0  0  0
  3 19  1  0  0  0  0
  4 11  1  0  0  0  0
  4 15  2  0  0  0  0
  5 14  2  0  0  0  0
  5  2  1  0  0  0  0
  6  1  2  0  0  0  0
  7  4  1  0  0  0  0
  8 21  1  6  0  0  0
  8 13  1  0  0  0  0
 10 19  1  0  0  0  0
 12 16  1  0  0  0  0
 12  8  1  0  0  0  0
 13  2  1  0  0  0  0
 13 18  1  1  0  0  0
 16  5  1  0  0  0  0
 17  6  1  0  0  0  0
 17 16  2  0  0  0  0
 18 10  1  0  0  0  0
 19 20  2  0  0  0  0
 20 15  1  0  0  0  0
 23 22  1  1  0  0  0
 23 21  1  0  0  0  0
 24 28  1  0  0  0  0
 26 29  2  0  0  0  0
 27 24  1  0  0  0  0
 28 25  1  0  0  0  0
 29 30  1  0  0  0  0
 30 23  1  0  0  0  0
 30 25  1  0  0  0  0
 31 29  1  0  0  0  0
 31 24  2  0  0  0  0
M  END
>  <MODEL>
5

>  <REMARK>
 VINA RESULT:      -7.6      3.427      7.814
  Name = 
  3 active torsions:
  status: ('A' for Active; 'I' for Inactive)
    1  A    between atoms: C_5  and  C_16
    2  A    between atoms: C_5  and  N_30
    3  A    between atoms: C_10  and  C_16
                            x       y       z     vdW  Elec       q    Type
                         _______ _______ _______ _____ _____    ______ ____

>  <TORSDO>
F 3

$$$$
=
 OpenBabel11122413093D

 31 35  0  0  1  0  0  0  0  0999 V2000
  160.5870  207.9460  156.2880 C   0  0  0  0  0  0  0  0  0  0  0  0
  161.4800  208.8480  152.7490 N   0  0  0  0  0  0  0  0  0  0  0  0
  161.4230  207.6620  151.9180 C   0  0  0  0  0  0  0  0  0  0  0  0
  161.0580  205.2730  151.6290 C   0  0  0  0  0  0  0  0  0  0  0  0
  160.8860  208.8660  154.0630 C   0  0  0  0  0  0  0  0  0  0  0  0
  159.7000  208.9810  156.6000 C   0  0  0  0  0  3  0  0  0  0  0  0
  161.1850  206.3890  152.4610 C   0  0  0  0  0  3  0  0  0  0  0  0
  160.2590  210.8560  152.1090 C   0  0  2  0  0  3  0  0  0  0  0  0
  160.8860  206.9500  157.2580 N   0  0  0  0  0  1  0  0  0  0  0  0
  161.7680  209.0480  149.9640 O   0  0  0  0  0  0  0  0  0  0  0  0
  160.7630  203.6950  152.3240 Cl  0  0  0  0  0  0  0  0  0  0  0  0
  159.7290  210.9110  153.4390 O   0  0  0  0  0  0  0  0  0  0  0  0
  161.6300  210.1740  152.1280 C   0  0  2  0  0  3  0  0  0  0  0  0
  161.1820  207.8890  155.0240 C   0  0  0  0  0  3  0  0  0  0  0  0
  161.1510  205.4220  150.2430 C   0  0  0  0  0  3  0  0  0  0  0  0
  159.9990  209.9120  154.3850 C   0  0  0  0  0  0  0  0  0  0  0  0
  159.4080  209.9640  155.6500 C   0  0  0  0  0  3  0  0  0  0  0  0
  162.3010  210.1070  150.7500 C   0  0  0  0  0  2  0  0  0  0  0  0
  161.5320  207.7960  150.5220 C   0  0  0  0  0  0  0  0  0  0  0  0
  161.3850  206.6820  149.6900 C   0  0  0  0  0  3  0  0  0  0  0  0
  160.3260  212.2570  151.5220 C   0  0  0  0  0  2  0  0  0  0  0  0
  159.0320  213.9130  152.6650 O   0  0  0  0  0  1  0  0  0  0  0  0
  158.9730  212.9440  151.6640 C   0  0  1  0  0  3  0  0  0  0  0  0
  157.9310  213.7760  147.6420 C   0  0  0  0  0  0  0  0  0  0  0  0
  157.1590  213.4560  150.0020 C   0  0  0  0  0  2  0  0  0  0  0  0
  160.6560  214.4530  149.8320 O   0  0  0  0  0  0  0  0  0  0  0  0
  157.5310  213.9500  146.2220 C   0  0  0  0  0  1  0  0  0  0  0  0
  157.0600  212.9560  148.5590 C   0  0  0  0  0  2  0  0  0  0  0  0
  159.5000  214.1170  149.4660 C   0  0  0  0  0  0  0  0  0  0  0  0
  158.5620  213.5510  150.3990 N   0  0  0  0  0  0  0  0  0  0  0  0
  159.0950  214.2800  148.0630 C   0  0  0  0  0  3  0  0  0  0  0  0
  1  6  1  0  0  0  0
  1  9  1  0  0  0  0
  2  5  1  0  0  0  0
  3  7  1  0  0  0  0
  3  2  1  0  0  0  0
  4 11  1  0  0  0  0
  4  7  2  0  0  0  0
  5 16  2  0  0  0  0
  5 14  1  0  0  0  0
  8 21  1  1  0  0  0
  8 13  1  0  0  0  0
  8 12  1  0  0  0  0
 10 19  1  0  0  0  0
 10 18  1  0  0  0  0
 12 16  1  0  0  0  0
 13 18  1  6  0  0  0
 13  2  1  0  0  0  0
 14  1  2  0  0  0  0
 15  4  1  0  0  0  0
 16 17  1  0  0  0  0
 17  6  2  0  0  0  0
 19  3  2  0  0  0  0
 20 15  2  0  0  0  0
 20 19  1  0  0  0  0
 21 23  1  0  0  0  0
 23 22  1  1  0  0  0
 24 31  2  0  0  0  0
 24 28  1  0  0  0  0
 25 30  1  0  0  0  0
 27 24  1  0  0  0  0
 28 25  1  0  0  0  0
 29 26  2  0  0  0  0
 29 30  1  0  0  0  0
 30 23  1  0  0  0  0
 31 29  1  0  0  0  0
M  END
>  <MODEL>
6

>  <REMARK>
 VINA RESULT:      -7.6      3.856      6.977
  Name = 
  3 active torsions:
  status: ('A' for Active; 'I' for Inactive)
    1  A    between atoms: C_5  and  C_16
    2  A    between atoms: C_5  and  N_30
    3  A    between atoms: C_10  and  C_16
                            x       y       z     vdW  Elec       q    Type
                         _______ _______ _______ _____ _____    ______ ____

>  <TORSDO>
F 3

$$$$
=
 OpenBabel11122413093D

 31 35  0  0  1  0  0  0  0  0999 V2000
  160.7580  208.5600  154.7920 C   0  0  0  0  0  0  0  0  0  0  0  0
  161.7300  209.3240  151.2420 N   0  0  0  0  0  0  0  0  0  0  0  0
  161.5180  208.1510  150.4190 C   0  0  0  0  0  0  0  0  0  0  0  0
  160.8540  205.8260  150.1460 C   0  0  0  0  0  0  0  0  0  0  0  0
  161.1530  209.4240  152.5600 C   0  0  0  0  0  0  0  0  0  0  0  0
  160.0110  209.7000  155.1040 C   0  0  0  0  0  3  0  0  0  0  0  0
  161.1260  206.9210  150.9710 C   0  0  0  0  0  3  0  0  0  0  0  0
  160.7650  211.4670  150.5990 C   0  0  2  0  0  3  0  0  0  0  0  0
  160.9370  207.5390  155.7660 N   0  0  0  0  0  1  0  0  0  0  0  0
  162.0190  209.4720  148.4540 O   0  0  0  0  0  0  0  0  0  0  0  0
  160.3690  204.3000  150.8530 Cl  0  0  0  0  0  0  0  0  0  0  0  0
  160.2570  211.5950  151.9320 O   0  0  0  0  0  0  0  0  0  0  0  0
  162.0400  210.6180  150.6110 C   0  0  2  0  0  3  0  0  0  0  0  0
  161.3310  208.4220  153.5250 C   0  0  0  0  0  3  0  0  0  0  0  0
  160.9540  205.9540  148.7590 C   0  0  0  0  0  3  0  0  0  0  0  0
  160.4060  210.5740  152.8810 C   0  0  0  0  0  0  0  0  0  0  0  0
  159.8370  210.7070  154.1500 C   0  0  0  0  0  3  0  0  0  0  0  0
  162.6870  210.4600  149.2290 C   0  0  0  0  0  2  0  0  0  0  0  0
  161.6320  208.2630  149.0210 C   0  0  0  0  0  0  0  0  0  0  0  0
  161.3400  207.1720  148.1970 C   0  0  0  0  0  3  0  0  0  0  0  0
  161.0030  212.8460  150.0020 C   0  0  0  0  0  2  0  0  0  0  0  0
  159.5600  214.3530  148.8320 O   0  0  0  0  0  1  0  0  0  0  0  0
  160.0820  213.0590  148.8070 C   0  0  1  0  0  3  0  0  0  0  0  0
  162.0490  213.3820  145.0690 C   0  0  0  0  0  0  0  0  0  0  0  0
  162.2460  212.9860  147.5330 C   0  0  0  0  0  2  0  0  0  0  0  0
  158.9190  212.1960  146.2840 O   0  0  0  0  0  0  0  0  0  0  0  0
  162.7700  213.6100  143.7910 C   0  0  0  0  0  1  0  0  0  0  0  0
  162.6560  213.8750  146.3570 C   0  0  0  0  0  2  0  0  0  0  0  0
  160.1160  212.5840  146.3060 C   0  0  0  0  0  0  0  0  0  0  0  0
  160.7940  212.8280  147.5520 N   0  0  0  0  0  0  0  0  0  0  0  0
  160.8380  212.8170  145.0480 C   0  0  0  0  0  3  0  0  0  0  0  0
  1  6  1  0  0  0  0
  1  9  1  0  0  0  0
  2  5  1  0  0  0  0
  3  7  1  0  0  0  0
  3  2  1  0  0  0  0
  4 11  1  0  0  0  0
  4  7  2  0  0  0  0
  5 16  2  0  0  0  0
  5 14  1  0  0  0  0
  8 21  1  1  0  0  0
  8 13  1  0  0  0  0
  8 12  1  0  0  0  0
 10 19  1  0  0  0  0
 10 18  1  0  0  0  0
 12 16  1  0  0  0  0
 13 18  1  6  0  0  0
 13  2  1  0  0  0  0
 14  1  2  0  0  0  0
 15  4  1  0  0  0  0
 16 17  1  0  0  0  0
 17  6  2  0  0  0  0
 19  3  2  0  0  0  0
 20 15  2  0  0  0  0
 20 19  1  0  0  0  0
 23 22  1  6  0  0  0
 23 21  1  0  0  0  0
 24 28  1  0  0  0  0
 25 30  1  0  0  0  0
 26 29  2  0  0  0  0
 27 24  1  0  0  0  0
 28 25  1  0  0  0  0
 29 30  1  0  0  0  0
 30 23  1  0  0  0  0
 31 24  2  0  0  0  0
 31 29  1  0  0  0  0
M  END
>  <MODEL>
7

>  <REMARK>
 VINA RESULT:      -6.9      3.932      7.396
  Name = 
  3 active torsions:
  status: ('A' for Active; 'I' for Inactive)
    1  A    between atoms: C_5  and  C_16
    2  A    between atoms: C_5  and  N_30
    3  A    between atoms: C_10  and  C_16
                            x       y       z     vdW  Elec       q    Type
                         _______ _______ _______ _____ _____    ______ ____

>  <TORSDO>
F 3

$$$$
=
 OpenBabel11122413093D

 31 35  0  0  1  0  0  0  0  0999 V2000
  161.2500  213.4230  147.2400 C   0  0  0  0  0  0  0  0  0  0  0  0
  159.3140  213.7040  150.4500 N   0  0  0  0  0  0  0  0  0  0  0  0
  157.9120  213.9140  150.1530 C   0  0  0  0  0  0  0  0  0  0  0  0
  156.0870  214.2220  148.5720 C   0  0  0  0  0  0  0  0  0  0  0  0
  160.2310  213.2490  149.4340 C   0  0  0  0  0  0  0  0  0  0  0  0
  162.0480  212.3090  147.5190 C   0  0  0  0  0  3  0  0  0  0  0  0
  157.4540  214.0990  148.8380 C   0  0  0  0  0  3  0  0  0  0  0  0
  159.9960  211.9090  151.9480 C   0  0  2  0  0  3  0  0  0  0  0  0
  161.3600  214.0780  145.9830 N   0  0  0  0  0  1  0  0  0  0  0  0
  157.4040  213.6750  152.5070 O   0  0  0  0  0  0  0  0  0  0  0  0
  155.5360  214.4530  146.9270 Cl  0  0  0  0  0  0  0  0  0  0  0  0
  160.9570  211.5050  150.9660 O   0  0  0  0  0  0  0  0  0  0  0  0
  159.7370  213.4130  151.8300 C   0  0  2  0  0  3  0  0  0  0  0  0
  160.3460  213.8950  148.1960 C   0  0  0  0  0  3  0  0  0  0  0  0
  155.1620  214.1450  149.6160 C   0  0  0  0  0  3  0  0  0  0  0  0
  161.0420  212.1320  149.7140 C   0  0  0  0  0  0  0  0  0  0  0  0
  161.9460  211.6650  148.7560 C   0  0  0  0  0  3  0  0  0  0  0  0
  158.7500  213.9510  152.8740 C   0  0  0  0  0  2  0  0  0  0  0  0
  156.9720  213.8560  151.1970 C   0  0  0  0  0  0  0  0  0  0  0  0
  155.6040  213.9600  150.9270 C   0  0  0  0  0  3  0  0  0  0  0  0
  160.4830  211.5210  153.3360 C   0  0  0  0  0  2  0  0  0  0  0  0
  162.4590  210.6730  154.3850 O   0  0  0  0  0  1  0  0  0  0  0  0
  161.6920  210.6000  153.2230 C   0  0  1  0  0  3  0  0  0  0  0  0
  161.2670  206.3860  153.1110 C   0  0  0  0  0  0  0  0  0  0  0  0
  160.3950  208.5750  153.9540 C   0  0  0  0  0  2  0  0  0  0  0  0
  162.3490  208.9650  150.9070 O   0  0  0  0  0  0  0  0  0  0  0  0
  161.1720  204.9060  153.1820 C   0  0  0  0  0  1  0  0  0  0  0  0
  160.9590  207.2060  154.3370 C   0  0  0  0  0  2  0  0  0  0  0  0
  161.7990  208.4250  151.9020 C   0  0  0  0  0  0  0  0  0  0  0  0
  161.2740  209.2200  152.9810 N   0  0  0  0  0  0  0  0  0  0  0  0
  161.7030  206.9620  151.9870 C   0  0  0  0  0  3  0  0  0  0  0  0
  1  6  2  0  0  0  0
  1 14  1  0  0  0  0
  2 13  1  0  0  0  0
  3  2  1  0  0  0  0
  3 19  1  0  0  0  0
  4  7  1  0  0  0  0
  4 15  2  0  0  0  0
  5 16  1  0  0  0  0
  5  2  1  0  0  0  0
  6 17  1  0  0  0  0
  7  3  2  0  0  0  0
  8 21  1  1  0  0  0
  9  1  1  0  0  0  0
 10 18  1  0  0  0  0
 11  4  1  0  0  0  0
 12  8  1  0  0  0  0
 13  8  1  0  0  0  0
 13 18  1  1  0  0  0
 14  5  2  0  0  0  0
 15 20  1  0  0  0  0
 16 12  1  0  0  0  0
 17 16  2  0  0  0  0
 19 10  1  0  0  0  0
 20 19  2  0  0  0  0
 23 21  1  0  0  0  0
 23 22  1  1  0  0  0
 24 27  1  0  0  0  0
 24 28  1  0  0  0  0
 25 28  1  0  0  0  0
 26 29  2  0  0  0  0
 29 31  1  0  0  0  0
 29 30  1  0  0  0  0
 30 23  1  0  0  0  0
 30 25  1  0  0  0  0
 31 24  2  0  0  0  0
M  END
>  <MODEL>
8

>  <REMARK>
 VINA RESULT:      -6.6      5.058      8.373
  Name = 
  3 active torsions:
  status: ('A' for Active; 'I' for Inactive)
    1  A    between atoms: C_5  and  C_16
    2  A    between atoms: C_5  and  N_30
    3  A    between atoms: C_10  and  C_16
                            x       y       z     vdW  Elec       q    Type
                         _______ _______ _______ _____ _____    ______ ____

>  <TORSDO>
F 3

$$$$
=
 OpenBabel11122413093D

 31 35  0  0  1  0  0  0  0  0999 V2000
  160.6220  208.8910  154.5370 C   0  0  0  0  0  0  0  0  0  0  0  0
  161.7160  209.6920  151.0310 N   0  0  0  0  0  0  0  0  0  0  0  0
  161.5900  208.5100  150.2020 C   0  0  0  0  0  0  0  0  0  0  0  0
  161.0360  206.1580  149.9070 C   0  0  0  0  0  0  0  0  0  0  0  0
  161.0780  209.7680  152.3220 C   0  0  0  0  0  0  0  0  0  0  0  0
  159.8140  209.9990  154.8120 C   0  0  0  0  0  3  0  0  0  0  0  0
  161.2260  207.2640  150.7400 C   0  0  0  0  0  3  0  0  0  0  0  0
  160.6920  211.7910  150.3400 C   0  0  2  0  0  3  0  0  0  0  0  0
  160.8000  207.8790  155.5200 N   0  0  0  0  0  1  0  0  0  0  0  0
  162.1210  209.8490  148.2570 O   0  0  0  0  0  0  0  0  0  0  0  0
  160.5850  204.6140  150.5960 Cl  0  0  0  0  0  0  0  0  0  0  0  0
  160.1200  211.8990  151.6490 O   0  0  0  0  0  0  0  0  0  0  0  0
  161.9990  210.9970  150.4110 C   0  0  2  0  0  3  0  0  0  0  0  0
  161.2550  208.7760  153.2960 C   0  0  0  0  0  3  0  0  0  0  0  0
  161.1910  206.2890  148.5260 C   0  0  0  0  0  3  0  0  0  0  0  0
  160.2710  210.8860  152.6070 C   0  0  0  0  0  0  0  0  0  0  0  0
  159.6400  210.9960  153.8490 C   0  0  0  0  0  3  0  0  0  0  0  0
  162.7120  210.8650  149.0590 C   0  0  0  0  0  2  0  0  0  0  0  0
  161.7600  208.6250  148.8110 C   0  0  0  0  0  0  0  0  0  0  0  0
  161.5500  207.5220  147.9770 C   0  0  0  0  0  3  0  0  0  0  0  0
  160.8980  213.1780  149.7500 C   0  0  0  0  0  2  0  0  0  0  0  0
  159.8430  212.0970  147.8950 O   0  0  0  0  0  1  0  0  0  0  0  0
  160.0490  213.3390  148.4950 C   0  0  1  0  0  3  0  0  0  0  0  0
  156.0910  214.2310  149.7140 C   0  0  0  0  0  0  0  0  0  0  0  0
  158.5420  214.4530  150.1690 C   0  0  0  0  0  2  0  0  0  0  0  0
  157.8570  213.8350  146.6470 O   0  0  0  0  0  0  0  0  0  0  0  0
  154.7130  214.4510  150.2220 C   0  0  0  0  0  1  0  0  0  0  0  0
  157.2000  213.9370  150.6910 C   0  0  0  0  0  2  0  0  0  0  0  0
  157.6690  214.0020  147.8810 C   0  0  0  0  0  0  0  0  0  0  0  0
  158.7670  213.9660  148.8100 N   0  0  0  0  0  0  0  0  0  0  0  0
  156.3100  214.2160  148.3950 C   0  0  0  0  0  3  0  0  0  0  0  0
  1  6  1  0  0  0  0
  1  9  1  0  0  0  0
  2  5  1  0  0  0  0
  3  7  1  0  0  0  0
  3  2  1  0  0  0  0
  4 11  1  0  0  0  0
  4  7  2  0  0  0  0
  5 16  2  0  0  0  0
  5 14  1  0  0  0  0
  8 21  1  1  0  0  0
  8 13  1  0  0  0  0
  8 12  1  0  0  0  0
 10 19  1  0  0  0  0
 10 18  1  0  0  0  0
 12 16  1  0  0  0  0
 13 18  1  6  0  0  0
 13  2  1  0  0  0  0
 14  1  2  0  0  0  0
 15  4  1  0  0  0  0
 16 17  1  0  0  0  0
 17  6  2  0  0  0  0
 19  3  2  0  0  0  0
 20 15  2  0  0  0  0
 20 19  1  0  0  0  0
 23 22  1  1  0  0  0
 23 30  1  0  0  0  0
 23 21  1  0  0  0  0
 24 27  1  0  0  0  0
 24 28  1  0  0  0  0
 25 28  1  0  0  0  0
 26 29  2  0  0  0  0
 29 31  1  0  0  0  0
 29 30  1  0  0  0  0
 30 25  1  0  0  0  0
 31 24  2  0  0  0  0
M  END
>  <MODEL>
9

>  <REMARK>
 VINA RESULT:      -6.4      4.245      7.037
  Name = 
  3 active torsions:
  status: ('A' for Active; 'I' for Inactive)
    1  A    between atoms: C_5  and  C_16
    2  A    between atoms: C_5  and  N_30
    3  A    between atoms: C_10  and  C_16
                            x       y       z     vdW  Elec       q    Type
                         _______ _______ _______ _____ _____    ______ ____

>  <TORSDO>
F 3

$$$$
