=
 OpenBabel11122413113D

 31 35  0  0  1  0  0  0  0  0999 V2000
  162.3000  209.8380  148.8470 C   0  0  0  0  0  0  0  0  0  0  0  0
  162.0110  207.8340  152.0630 C   0  0  2  0  0  3  0  0  0  0  0  0
  161.0760  208.5920  153.0030 C   0  0  2  0  0  3  0  0  0  0  0  0
  159.7540  210.6840  153.5340 C   0  0  2  0  0  3  0  0  0  0  0  0
  161.8650  208.2650  150.6240 C   0  0  0  0  0  0  0  0  0  0  0  0
  161.5650  209.0740  147.9950 N   0  0  0  0  0  0  0  0  0  0  0  0
  160.9610  210.0910  152.8190 C   0  0  0  0  0  2  0  0  0  0  0  0
  160.6080  205.8190  151.4770 C   0  0  2  0  0  3  0  0  0  0  0  0
  163.0360  211.3200  148.2780 Cl  0  0  0  0  0  0  0  0  0  0  0  0
  160.7340  206.5300  154.3970 C   0  0  0  0  0  2  0  0  0  0  0  0
  159.8150  212.1940  153.4560 C   0  0  0  0  0  1  0  0  0  0  0  0
  160.5700  206.2630  150.1210 O   0  0  0  0  0  0  0  0  0  0  0  0
  161.8860  206.3030  152.1840 C   0  0  2  0  0  3  0  0  0  0  0  0
  162.4640  209.4460  150.1770 C   0  0  0  0  0  3  0  0  0  0  0  0
  159.7870  210.2470  154.9860 C   0  0  0  0  0  2  0  0  0  0  0  0
  161.1230  207.4840  149.7220 C   0  0  0  0  0  0  0  0  0  0  0  0
  160.9830  207.9130  148.4010 C   0  0  0  0  0  3  0  0  0  0  0  0
  161.9150  205.9120  153.6580 C   0  0  0  0  0  2  0  0  0  0  0  0
  160.5840  208.0050  154.1330 C   0  0  2  0  0  3  0  0  0  0  0  0
  159.6330  208.7330  155.0520 C   0  0  0  0  0  2  0  0  0  0  0  0
  160.4770  204.3040  151.5210 C   0  0  0  0  0  2  0  0  0  0  0  0
  162.2990  202.6120  151.7920 C   0  0  0  0  0  1  0  0  0  0  0  0
  161.6930  203.6560  150.8710 C   0  0  1  0  0  3  0  0  0  0  0  0
  160.5590  202.1720  146.8980 C   0  0  2  0  0  3  0  0  0  0  0  0
  161.2620  204.0050  148.4420 C   0  0  0  0  0  2  0  0  0  0  0  0
  160.1880  201.2120  150.3890 O   0  0  0  0  0  0  0  0  0  0  0  0
  160.5960  201.7360  145.4480 C   0  0  0  0  0  1  0  0  0  0  0  0
  161.5170  203.3340  147.0970 C   0  0  0  0  0  2  0  0  0  0  0  0
  160.8390  201.7370  149.4470 C   0  0  0  0  0  0  0  0  0  0  0  0
  161.3610  203.0740  149.5690 N   0  0  0  0  0  0  0  0  0  0  0  0
  161.1090  200.7990  147.9460 S   0  0  0  0  0  0  0  0  0  0  0  0
  1 14  1  0  0  0  0
  2  5  1  6  0  0  0
  2 13  1  0  0  0  0
  2  3  1  0  0  0  0
  3  7  1  1  0  0  0
  3 19  1  0  0  0  0
  4 11  1  1  0  0  0
  4 15  1  0  0  0  0
  6 17  1  0  0  0  0
  6  1  2  0  0  0  0
  7  4  1  0  0  0  0
  8 21  1  6  0  0  0
  8 13  1  0  0  0  0
  9  1  1  0  0  0  0
 12  8  1  0  0  0  0
 13 18  1  1  0  0  0
 14  5  2  0  0  0  0
 15 20  1  0  0  0  0
 16 12  1  0  0  0  0
 16  5  1  0  0  0  0
 17 16  2  0  0  0  0
 18 10  1  0  0  0  0
 19 10  1  6  0  0  0
 19 20  1  0  0  0  0
 23 21  1  0  0  0  0
 23 22  1  1  0  0  0
 24 27  1  6  0  0  0
 24 28  1  0  0  0  0
 24 31  1  0  0  0  0
 25 30  1  0  0  0  0
 28 25  1  0  0  0  0
 29 30  1  0  0  0  0
 29 26  2  0  0  0  0
 30 23  1  0  0  0  0
 31 29  1  0  0  0  0
M  END
>  <MODEL>
1

>  <REMARK>
 VINA RESULT:      -7.0      0.000      0.000
  Name = 
  3 active torsions:
  status: ('A' for Active; 'I' for Inactive)
    1  A    between atoms: C_5  and  C_16
    2  A    between atoms: C_5  and  N_30
    3  A    between atoms: C_10  and  C_16
                            x       y       z     vdW  Elec       q    Type
                         _______ _______ _______ _____ _____    ______ ____

>  <TORSDO>
F 3

$$$$
=
 OpenBabel11122413113D

 31 35  0  0  1  0  0  0  0  0999 V2000
  160.9670  206.5540  146.7370 C   0  0  0  0  0  0  0  0  0  0  0  0
  160.3440  205.0910  150.1890 C   0  0  2  0  0  3  0  0  0  0  0  0
  160.8040  203.6340  150.1680 C   0  0  2  0  0  3  0  0  0  0  0  0
  161.6170  201.6300  148.8550 C   0  0  2  0  0  3  0  0  0  0  0  0
  160.9320  205.9030  149.0600 C   0  0  0  0  0  0  0  0  0  0  0  0
  162.0330  207.3630  146.9840 N   0  0  0  0  0  0  0  0  0  0  0  0
  160.8080  202.9190  148.8330 C   0  0  0  0  0  2  0  0  0  0  0  0
  162.0790  206.1440  151.6900 C   0  0  2  0  0  3  0  0  0  0  0  0
  160.3140  206.4390  145.1180 Cl  0  0  0  0  0  0  0  0  0  0  0  0
  160.8690  203.5740  152.6780 C   0  0  0  0  0  2  0  0  0  0  0  0
  161.4190  200.8880  147.5500 C   0  0  0  0  0  1  0  0  0  0  0  0
  162.5350  206.9230  150.5840 O   0  0  0  0  0  0  0  0  0  0  0  0
  160.5890  205.7880  151.5400 C   0  0  2  0  0  3  0  0  0  0  0  0
  160.3970  205.8110  147.7720 C   0  0  0  0  0  3  0  0  0  0  0  0
  161.1320  200.7710  150.0070 C   0  0  0  0  0  2  0  0  0  0  0  0
  162.0220  206.7570  149.2940 C   0  0  0  0  0  0  0  0  0  0  0  0
  162.5640  207.4820  148.2310 C   0  0  0  0  0  3  0  0  0  0  0  0
  160.0940  204.8870  152.6670 C   0  0  0  0  0  2  0  0  0  0  0  0
  160.9360  202.9200  151.3240 C   0  0  2  0  0  3  0  0  0  0  0  0
  161.4210  201.4910  151.3180 C   0  0  0  0  0  2  0  0  0  0  0  0
  162.3540  206.8890  152.9870 C   0  0  0  0  0  2  0  0  0  0  0  0
  161.0220  206.7450  155.0980 C   0  0  0  0  0  1  0  0  0  0  0  0
  161.0420  207.2540  153.6680 C   0  0  1  0  0  3  0  0  0  0  0  0
  160.4330  211.5830  153.2610 C   0  0  2  0  0  3  0  0  0  0  0  0
  160.5530  209.2800  152.3030 C   0  0  0  0  0  2  0  0  0  0  0  0
  162.0020  209.2420  155.5650 O   0  0  0  0  0  0  0  0  0  0  0  0
  159.8080  212.9460  153.0510 C   0  0  0  0  0  1  0  0  0  0  0  0
  159.7420  210.5700  152.3660 C   0  0  0  0  0  2  0  0  0  0  0  0
  161.0980  209.5530  154.7440 C   0  0  0  0  0  0  0  0  0  0  0  0
  160.7970  208.6980  153.6250 N   0  0  0  0  0  0  0  0  0  0  0  0
  160.1890  211.0750  154.9840 S   0  0  0  0  0  0  0  0  0  0  0  0
  1  6  2  0  0  0  0
  1 14  1  0  0  0  0
  2  5  1  6  0  0  0
  2 13  1  0  0  0  0
  3  7  1  6  0  0  0
  3  2  1  0  0  0  0
  3 19  1  0  0  0  0
  4 11  1  6  0  0  0
  4 15  1  0  0  0  0
  5 16  1  0  0  0  0
  6 17  1  0  0  0  0
  7  4  1  0  0  0  0
  8 21  1  1  0  0  0
  9  1  1  0  0  0  0
 12  8  1  0  0  0  0
 13  8  1  0  0  0  0
 13 18  1  1  0  0  0
 14  5  2  0  0  0  0
 15 20  1  0  0  0  0
 16 12  1  0  0  0  0
 17 16  2  0  0  0  0
 18 10  1  0  0  0  0
 19 20  1  6  0  0  0
 19 10  1  0  0  0  0
 21 23  1  0  0  0  0
 23 22  1  1  0  0  0
 24 27  1  1  0  0  0
 24 31  1  0  0  0  0
 25 28  1  0  0  0  0
 25 30  1  0  0  0  0
 28 24  1  0  0  0  0
 29 31  1  0  0  0  0
 29 26  2  0  0  0  0
 30 23  1  0  0  0  0
 30 29  1  0  0  0  0
M  END
>  <MODEL>
2

>  <REMARK>
 VINA RESULT:      -6.9      3.246      7.234
  Name = 
  3 active torsions:
  status: ('A' for Active; 'I' for Inactive)
    1  A    between atoms: C_5  and  C_16
    2  A    between atoms: C_5  and  N_30
    3  A    between atoms: C_10  and  C_16
                            x       y       z     vdW  Elec       q    Type
                         _______ _______ _______ _____ _____    ______ ____

>  <TORSDO>
F 3

$$$$
=
 OpenBabel11122413113D

 31 35  0  0  1  0  0  0  0  0999 V2000
  161.6780  207.6390  151.7800 C   0  0  0  0  0  0  0  0  0  0  0  0
  159.5920  210.4870  153.1860 C   0  0  2  0  0  3  0  0  0  0  0  0
  160.2100  210.9050  154.5190 C   0  0  2  0  0  3  0  0  0  0  0  0
  161.8760  210.4710  156.3740 C   0  0  2  0  0  3  0  0  0  0  0  0
  160.5470  209.7010  152.3220 C   0  0  0  0  0  0  0  0  0  0  0  0
  162.3270  208.2670  150.7620 N   0  0  0  0  0  0  0  0  0  0  0  0
  161.0110  209.8670  155.2770 C   0  0  0  0  0  2  0  0  0  0  0  0
  160.1210  212.4880  151.7390 C   0  0  2  0  0  3  0  0  0  0  0  0
  161.9810  205.9450  152.0960 Cl  0  0  0  0  0  0  0  0  0  0  0  0
  158.9790  213.0930  154.4550 C   0  0  0  0  0  2  0  0  0  0  0  0
  162.4950  209.3610  157.1960 C   0  0  0  0  0  1  0  0  0  0  0  0
  160.9580  211.6590  150.9330 O   0  0  0  0  0  0  0  0  0  0  0  0
  158.9960  211.6670  152.3950 C   0  0  2  0  0  3  0  0  0  0  0  0
  160.7750  208.3450  152.5770 C   0  0  0  0  0  3  0  0  0  0  0  0
  161.0020  211.3360  157.2610 C   0  0  0  0  0  2  0  0  0  0  0  0
  161.2170  210.3240  151.2560 C   0  0  0  0  0  0  0  0  0  0  0  0
  162.1130  209.5810  150.4840 C   0  0  0  0  0  3  0  0  0  0  0  0
  158.1330  212.5120  153.3270 C   0  0  0  0  0  2  0  0  0  0  0  0
  159.8330  212.0600  155.1400 C   0  0  2  0  0  3  0  0  0  0  0  0
  160.4600  212.5000  156.4410 C   0  0  0  0  0  2  0  0  0  0  0  0
  159.5700  213.6290  150.8970 C   0  0  0  0  0  2  0  0  0  0  0  0
  157.3740  213.6230  149.7020 C   0  0  0  0  0  1  0  0  0  0  0  0
  158.7900  213.0740  149.7130 C   0  0  1  0  0  3  0  0  0  0  0  0
  160.8370  214.2040  145.9960 C   0  0  2  0  0  3  0  0  0  0  0  0
  160.4350  214.4530  148.4490 C   0  0  0  0  0  2  0  0  0  0  0  0
  157.7710  212.5410  147.0390 O   0  0  0  0  0  0  0  0  0  0  0  0
  161.8830  214.4000  144.9190 C   0  0  0  0  0  1  0  0  0  0  0  0
  161.4940  214.3120  147.3610 C   0  0  0  0  0  2  0  0  0  0  0  0
  158.9890  212.8190  147.1950 C   0  0  0  0  0  0  0  0  0  0  0  0
  159.4670  213.3540  148.4440 N   0  0  0  0  0  0  0  0  0  0  0  0
  160.1270  212.5430  145.8410 S   0  0  0  0  0  0  0  0  0  0  0  0
  1  9  1  0  0  0  0
  1 14  1  0  0  0  0
  2  5  1  6  0  0  0
  2  3  1  0  0  0  0
  3 19  1  0  0  0  0
  3  7  1  1  0  0  0
  4 11  1  1  0  0  0
  4 15  1  0  0  0  0
  5 14  2  0  0  0  0
  6  1  2  0  0  0  0
  7  4  1  0  0  0  0
  8 21  1  6  0  0  0
  8 13  1  0  0  0  0
 12 16  1  0  0  0  0
 12  8  1  0  0  0  0
 13  2  1  0  0  0  0
 13 18  1  1  0  0  0
 16  5  1  0  0  0  0
 17  6  1  0  0  0  0
 17 16  2  0  0  0  0
 18 10  1  0  0  0  0
 19 10  1  6  0  0  0
 19 20  1  0  0  0  0
 20 15  1  0  0  0  0
 23 22  1  6  0  0  0
 23 21  1  0  0  0  0
 24 27  1  6  0  0  0
 24 28  1  0  0  0  0
 26 29  2  0  0  0  0
 28 25  1  0  0  0  0
 29 30  1  0  0  0  0
 30 25  1  0  0  0  0
 30 23  1  0  0  0  0
 31 24  1  0  0  0  0
 31 29  1  0  0  0  0
M  END
>  <MODEL>
3

>  <REMARK>
 VINA RESULT:      -6.9      4.771      7.698
  Name = 
  3 active torsions:
  status: ('A' for Active; 'I' for Inactive)
    1  A    between atoms: C_5  and  C_16
    2  A    between atoms: C_5  and  N_30
    3  A    between atoms: C_10  and  C_16
                            x       y       z     vdW  Elec       q    Type
                         _______ _______ _______ _____ _____    ______ ____

>  <TORSDO>
F 3

$$$$
=
 OpenBabel11122413113D

 31 35  0  0  1  0  0  0  0  0999 V2000
  160.4480  207.9250  156.0520 C   0  0  0  0  0  0  0  0  0  0  0  0
  161.8300  209.0800  152.7060 C   0  0  2  0  0  3  0  0  0  0  0  0
  161.4570  208.0310  151.6600 C   0  0  2  0  0  3  0  0  0  0  0  0
  160.5090  205.7500  151.1100 C   0  0  2  0  0  3  0  0  0  0  0  0
  160.9840  208.9850  153.9530 C   0  0  0  0  0  0  0  0  0  0  0  0
  159.4100  208.7880  156.2200 N   0  0  0  0  0  0  0  0  0  0  0  0
  161.2250  206.6140  152.1400 C   0  0  0  0  0  2  0  0  0  0  0  0
  160.3750  211.0230  152.0110 C   0  0  2  0  0  3  0  0  0  0  0  0
  160.7690  206.7000  157.2600 Cl  0  0  0  0  0  0  0  0  0  0  0  0
  161.8990  209.6630  149.8030 C   0  0  0  0  0  2  0  0  0  0  0  0
  160.4830  204.3140  151.5880 C   0  0  0  0  0  1  0  0  0  0  0  0
  159.6650  210.9070  153.2440 O   0  0  0  0  0  0  0  0  0  0  0  0
  161.8230  210.5190  152.1570 C   0  0  2  0  0  3  0  0  0  0  0  0
  161.2540  208.0090  154.9160 C   0  0  0  0  0  3  0  0  0  0  0  0
  161.2620  205.8360  149.7970 C   0  0  0  0  0  2  0  0  0  0  0  0
  159.9170  209.8770  154.1550 C   0  0  0  0  0  0  0  0  0  0  0  0
  159.1340  209.7560  155.3040 C   0  0  0  0  0  3  0  0  0  0  0  0
  162.5820  210.5550  150.8340 C   0  0  0  0  0  2  0  0  0  0  0  0
  161.5990  208.2840  150.3260 C   0  0  2  0  0  3  0  0  0  0  0  0
  161.2020  207.2690  149.2830 C   0  0  0  0  0  2  0  0  0  0  0  0
  160.3250  212.4640  151.5270 C   0  0  0  0  0  2  0  0  0  0  0  0
  158.4210  213.9670  152.1360 C   0  0  0  0  0  1  0  0  0  0  0  0
  158.8880  212.8580  151.2100 C   0  0  1  0  0  3  0  0  0  0  0  0
  158.6090  214.2780  147.0650 C   0  0  2  0  0  3  0  0  0  0  0  0
  159.8580  213.9770  149.2070 C   0  0  0  0  0  2  0  0  0  0  0  0
  156.3910  213.3730  149.8060 O   0  0  0  0  0  0  0  0  0  0  0  0
  158.7980  214.4370  145.5710 C   0  0  0  0  0  1  0  0  0  0  0  0
  159.9170  213.8250  147.6900 C   0  0  0  0  0  2  0  0  0  0  0  0
  157.4560  213.2300  149.1470 C   0  0  0  0  0  0  0  0  0  0  0  0
  158.7360  213.2510  149.8070 N   0  0  0  0  0  0  0  0  0  0  0  0
  157.3610  213.0010  147.3750 S   0  0  0  0  0  0  0  0  0  0  0  0
  1  6  1  0  0  0  0
  1  9  1  0  0  0  0
  2  5  1  1  0  0  0
  3  7  1  1  0  0  0
  3  2  1  0  0  0  0
  4 11  1  1  0  0  0
  4  7  1  0  0  0  0
  5 16  2  0  0  0  0
  5 14  1  0  0  0  0
  8 21  1  1  0  0  0
  8 13  1  0  0  0  0
  8 12  1  0  0  0  0
 10 19  1  0  0  0  0
 10 18  1  0  0  0  0
 12 16  1  0  0  0  0
 13 18  1  6  0  0  0
 13  2  1  0  0  0  0
 14  1  2  0  0  0  0
 15  4  1  0  0  0  0
 16 17  1  0  0  0  0
 17  6  2  0  0  0  0
 19 20  1  6  0  0  0
 19  3  1  0  0  0  0
 20 15  1  0  0  0  0
 23 21  1  0  0  0  0
 23 22  1  1  0  0  0
 24 27  1  6  0  0  0
 24 31  1  0  0  0  0
 24 28  1  0  0  0  0
 25 30  1  0  0  0  0
 28 25  1  0  0  0  0
 29 26  2  0  0  0  0
 29 30  1  0  0  0  0
 30 23  1  0  0  0  0
 31 29  1  0  0  0  0
M  END
>  <MODEL>
4

>  <REMARK>
 VINA RESULT:      -6.6      4.599      8.283
  Name = 
  3 active torsions:
  status: ('A' for Active; 'I' for Inactive)
    1  A    between atoms: C_5  and  C_16
    2  A    between atoms: C_5  and  N_30
    3  A    between atoms: C_10  and  C_16
                            x       y       z     vdW  Elec       q    Type
                         _______ _______ _______ _____ _____    ______ ____

>  <TORSDO>
F 3

$$$$
=
 OpenBabel11122413113D

 31 35  0  0  1  0  0  0  0  0999 V2000
  161.0520  206.5750  146.6790 C   0  0  0  0  0  0  0  0  0  0  0  0
  160.3600  204.8830  150.0110 C   0  0  2  0  0  3  0  0  0  0  0  0
  160.8060  203.4270  149.8960 C   0  0  2  0  0  3  0  0  0  0  0  0
  161.6210  201.5090  148.4610 C   0  0  2  0  0  3  0  0  0  0  0  0
  160.9740  205.7650  148.9500 C   0  0  0  0  0  0  0  0  0  0  0  0
  162.1220  207.3530  146.9970 N   0  0  0  0  0  0  0  0  0  0  0  0
  160.8250  202.8050  148.5160 C   0  0  0  0  0  2  0  0  0  0  0  0
  162.0820  205.8120  151.6070 C   0  0  2  0  0  3  0  0  0  0  0  0
  160.4230  206.5780  145.0460 Cl  0  0  0  0  0  0  0  0  0  0  0  0
  160.8320  203.1920  152.3970 C   0  0  0  0  0  2  0  0  0  0  0  0
  161.4360  200.8610  147.1050 C   0  0  0  0  0  1  0  0  0  0  0  0
  162.5630  206.6600  150.5650 O   0  0  0  0  0  0  0  0  0  0  0  0
  160.5910  205.4830  151.4110 C   0  0  2  0  0  3  0  0  0  0  0  0
  160.4580  205.7680  147.6510 C   0  0  0  0  0  3  0  0  0  0  0  0
  161.1090  200.5780  149.5430 C   0  0  0  0  0  2  0  0  0  0  0  0
  162.0680  206.5890  149.2590 C   0  0  0  0  0  0  0  0  0  0  0  0
  162.6340  207.3790  148.2570 C   0  0  0  0  0  3  0  0  0  0  0  0
  160.0700  204.5120  152.4650 C   0  0  0  0  0  2  0  0  0  0  0  0
  160.9130  202.6330  151.0020 C   0  0  2  0  0  3  0  0  0  0  0  0
  161.3850  201.2030  150.9050 C   0  0  0  0  0  2  0  0  0  0  0  0
  162.3440  206.4630  152.9570 C   0  0  0  0  0  2  0  0  0  0  0  0
  160.9560  205.8670  154.9500 C   0  0  0  0  0  1  0  0  0  0  0  0
  161.0270  206.7040  153.6840 C   0  0  1  0  0  3  0  0  0  0  0  0
  160.2140  210.8780  154.7740 C   0  0  2  0  0  3  0  0  0  0  0  0
  160.3290  208.4440  155.3240 C   0  0  0  0  0  2  0  0  0  0  0  0
  160.4560  208.8270  151.7770 O   0  0  0  0  0  0  0  0  0  0  0  0
  160.2990  212.2590  155.3900 C   0  0  0  0  0  1  0  0  0  0  0  0
  160.7100  209.8500  155.7760 C   0  0  0  0  0  2  0  0  0  0  0  0
  160.8100  209.1240  152.9490 C   0  0  0  0  0  0  0  0  0  0  0  0
  160.8310  208.1240  153.9850 N   0  0  0  0  0  0  0  0  0  0  0  0
  161.2870  210.8090  153.3150 S   0  0  0  0  0  0  0  0  0  0  0  0
  1  6  2  0  0  0  0
  1 14  1  0  0  0  0
  2  5  1  6  0  0  0
  2 13  1  0  0  0  0
  3  7  1  6  0  0  0
  3  2  1  0  0  0  0
  3 19  1  0  0  0  0
  4 11  1  6  0  0  0
  4  7  1  0  0  0  0
  4 15  1  0  0  0  0
  5 16  1  0  0  0  0
  6 17  1  0  0  0  0
  8 21  1  1  0  0  0
  9  1  1  0  0  0  0
 10 18  1  0  0  0  0
 12  8  1  0  0  0  0
 13  8  1  0  0  0  0
 13 18  1  1  0  0  0
 14  5  2  0  0  0  0
 15 20  1  0  0  0  0
 16 12  1  0  0  0  0
 17 16  2  0  0  0  0
 19 20  1  1  0  0  0
 19 10  1  0  0  0  0
 21 23  1  0  0  0  0
 23 30  1  0  0  0  0
 23 22  1  1  0  0  0
 24 27  1  1  0  0  0
 24 28  1  0  0  0  0
 25 28  1  0  0  0  0
 26 29  2  0  0  0  0
 29 31  1  0  0  0  0
 29 30  1  0  0  0  0
 30 25  1  0  0  0  0
 31 24  1  0  0  0  0
M  END
>  <MODEL>
5

>  <REMARK>
 VINA RESULT:      -6.4      3.085      7.330
  Name = 
  3 active torsions:
  status: ('A' for Active; 'I' for Inactive)
    1  A    between atoms: C_5  and  C_16
    2  A    between atoms: C_5  and  N_30
    3  A    between atoms: C_10  and  C_16
                            x       y       z     vdW  Elec       q    Type
                         _______ _______ _______ _____ _____    ______ ____

>  <TORSDO>
F 3

$$$$
=
 OpenBabel11122413113D

 31 35  0  0  1  0  0  0  0  0999 V2000
  162.5080  211.5350  148.6750 C   0  0  0  0  0  0  0  0  0  0  0  0
  161.5970  210.3490  152.1690 C   0  0  2  0  0  3  0  0  0  0  0  0
  160.2950  211.0400  152.5720 C   0  0  2  0  0  3  0  0  0  0  0  0
  158.5210  212.7810  152.0990 C   0  0  2  0  0  3  0  0  0  0  0  0
  161.8310  210.3720  150.6780 C   0  0  0  0  0  0  0  0  0  0  0  0
  162.2230  210.4260  147.9390 N   0  0  0  0  0  0  0  0  0  0  0  0
  159.9760  212.3690  151.9200 C   0  0  0  0  0  2  0  0  0  0  0  0
  160.8310  207.9590  151.8900 C   0  0  2  0  0  3  0  0  0  0  0  0
  163.1050  212.9780  147.8860 Cl  0  0  0  0  0  0  0  0  0  0  0  0
  159.9120  209.3520  154.3930 C   0  0  0  0  0  2  0  0  0  0  0  0
  158.3310  214.1920  151.5850 C   0  0  0  0  0  1  0  0  0  0  0  0
  161.1380  208.0430  150.4990 O   0  0  0  0  0  0  0  0  0  0  0  0
  161.7180  208.9120  152.7120 C   0  0  2  0  0  3  0  0  0  0  0  0
  162.3170  211.5260  150.0580 C   0  0  0  0  0  3  0  0  0  0  0  0
  158.1780  212.7260  153.5740 C   0  0  0  0  0  2  0  0  0  0  0  0
  161.5600  209.2340  149.9000 C   0  0  0  0  0  0  0  0  0  0  0  0
  161.7620  209.2850  148.5200 C   0  0  0  0  0  3  0  0  0  0  0  0
  161.3560  208.9040  154.1940 C   0  0  0  0  0  2  0  0  0  0  0  0
  159.5900  210.6310  153.6670 C   0  0  2  0  0  3  0  0  0  0  0  0
  158.2860  211.2840  154.0550 C   0  0  0  0  0  2  0  0  0  0  0  0
  160.9680  206.5170  152.3570 C   0  0  0  0  0  2  0  0  0  0  0  0
  163.2210  205.4390  152.4700 C   0  0  0  0  0  1  0  0  0  0  0  0
  162.0620  205.8140  151.5640 C   0  0  1  0  0  3  0  0  0  0  0  0
  160.3410  202.4710  149.2980 C   0  0  2  0  0  3  0  0  0  0  0  0
  161.1480  204.8280  149.4670 C   0  0  0  0  0  2  0  0  0  0  0  0
  160.7290  203.5200  152.7620 O   0  0  0  0  0  0  0  0  0  0  0  0
  160.1440  201.3300  148.3210 C   0  0  0  0  0  1  0  0  0  0  0  0
  161.2060  203.5400  148.6530 C   0  0  0  0  0  2  0  0  0  0  0  0
  161.1380  203.4500  151.5720 C   0  0  0  0  0  0  0  0  0  0  0  0
  161.5450  204.6360  150.8640 N   0  0  0  0  0  0  0  0  0  0  0  0
  161.2060  201.8530  150.7660 S   0  0  0  0  0  0  0  0  0  0  0  0
  1 14  1  0  0  0  0
  2  5  1  6  0  0  0
  2  3  1  0  0  0  0
  2 13  1  0  0  0  0
  3  7  1  1  0  0  0
  3 19  1  0  0  0  0
  4 11  1  1  0  0  0
  4 15  1  0  0  0  0
  6 17  1  0  0  0  0
  6  1  2  0  0  0  0
  7  4  1  0  0  0  0
  8 21  1  1  0  0  0
  8 13  1  0  0  0  0
  9  1  1  0  0  0  0
 12  8  1  0  0  0  0
 13 18  1  1  0  0  0
 14  5  2  0  0  0  0
 15 20  1  0  0  0  0
 16 12  1  0  0  0  0
 16  5  1  0  0  0  0
 17 16  2  0  0  0  0
 18 10  1  0  0  0  0
 19 20  1  6  0  0  0
 19 10  1  0  0  0  0
 23 21  1  0  0  0  0
 23 22  1  1  0  0  0
 24 27  1  6  0  0  0
 24 31  1  0  0  0  0
 25 30  1  0  0  0  0
 28 24  1  0  0  0  0
 28 25  1  0  0  0  0
 29 26  2  0  0  0  0
 30 23  1  0  0  0  0
 30 29  1  0  0  0  0
 31 29  1  0  0  0  0
M  END
>  <MODEL>
6

>  <REMARK>
 VINA RESULT:      -6.4      1.625      2.500
  Name = 
  3 active torsions:
  status: ('A' for Active; 'I' for Inactive)
    1  A    between atoms: C_5  and  C_16
    2  A    between atoms: C_5  and  N_30
    3  A    between atoms: C_10  and  C_16
                            x       y       z     vdW  Elec       q    Type
                         _______ _______ _______ _____ _____    ______ ____

>  <TORSDO>
F 3

$$$$
=
 OpenBabel11122413113D

 31 35  0  0  1  0  0  0  0  0999 V2000
  162.2330  211.7650  148.6830 C   0  0  0  0  0  0  0  0  0  0  0  0
  162.3890  208.8070  151.0640 C   0  0  2  0  0  3  0  0  0  0  0  0
  161.4380  209.0920  152.2260 C   0  0  2  0  0  3  0  0  0  0  0  0
  159.9260  210.7090  153.4510 C   0  0  2  0  0  3  0  0  0  0  0  0
  162.0980  209.6580  149.8520 C   0  0  0  0  0  0  0  0  0  0  0  0
  161.5330  211.2300  147.6460 N   0  0  0  0  0  0  0  0  0  0  0  0
  161.1420  210.5410  152.5490 C   0  0  0  0  0  2  0  0  0  0  0  0
  161.1870  206.9270  149.8820 C   0  0  2  0  0  3  0  0  0  0  0  0
  162.7560  213.4340  148.6160 Cl  0  0  0  0  0  0  0  0  0  0  0  0
  161.4260  206.6640  152.8690 C   0  0  0  0  0  2  0  0  0  0  0  0
  159.8090  212.1580  153.8740 C   0  0  0  0  0  1  0  0  0  0  0  0
  161.0090  207.7790  148.7500 O   0  0  0  0  0  0  0  0  0  0  0  0
  162.4470  207.3180  150.6760 C   0  0  2  0  0  3  0  0  0  0  0  0
  162.5290  210.9880  149.8040 C   0  0  0  0  0  3  0  0  0  0  0  0
  160.1050  209.8340  154.6750 C   0  0  0  0  0  2  0  0  0  0  0  0
  161.3920  209.1230  148.7620 C   0  0  0  0  0  0  0  0  0  0  0  0
  161.1160  209.9360  147.6610 C   0  0  0  0  0  3  0  0  0  0  0  0
  162.6190  206.4770  151.9370 C   0  0  0  0  0  2  0  0  0  0  0  0
  161.0920  208.1120  153.1100 C   0  0  2  0  0  3  0  0  0  0  0  0
  160.1290  208.3730  154.2420 C   0  0  0  0  0  2  0  0  0  0  0  0
  161.2330  205.4760  149.4270 C   0  0  0  0  0  2  0  0  0  0  0  0
  162.5920  206.1050  147.4230 C   0  0  0  0  0  1  0  0  0  0  0  0
  161.3320  205.4090  147.9080 C   0  0  1  0  0  3  0  0  0  0  0  0
  161.3860  201.1950  146.6780 C   0  0  2  0  0  3  0  0  0  0  0  0
  161.5370  202.9800  148.4190 C   0  0  0  0  0  2  0  0  0  0  0  0
  161.8640  204.4860  145.2000 O   0  0  0  0  0  0  0  0  0  0  0  0
  161.0200  199.7400  146.4710 C   0  0  0  0  0  1  0  0  0  0  0  0
  160.9020  201.6440  148.0460 C   0  0  0  0  0  2  0  0  0  0  0  0
  161.3090  203.7110  146.0220 C   0  0  0  0  0  0  0  0  0  0  0  0
  161.2810  204.0270  147.4270 N   0  0  0  0  0  0  0  0  0  0  0  0
  160.5520  202.2030  145.4240 S   0  0  0  0  0  0  0  0  0  0  0  0
  1 14  1  0  0  0  0
  2  5  1  6  0  0  0
  2  3  1  0  0  0  0
  3  7  1  1  0  0  0
  3 19  1  0  0  0  0
  4 11  1  1  0  0  0
  4 15  1  0  0  0  0
  6 17  1  0  0  0  0
  6  1  2  0  0  0  0
  7  4  1  0  0  0  0
  8 21  1  6  0  0  0
  8 13  1  0  0  0  0
  9  1  1  0  0  0  0
 12 16  1  0  0  0  0
 12  8  1  0  0  0  0
 13  2  1  0  0  0  0
 13 18  1  1  0  0  0
 14  5  2  0  0  0  0
 16  5  1  0  0  0  0
 17 16  2  0  0  0  0
 18 10  1  0  0  0  0
 19 10  1  6  0  0  0
 19 20  1  0  0  0  0
 20 15  1  0  0  0  0
 23 22  1  1  0  0  0
 23 21  1  0  0  0  0
 24 27  1  6  0  0  0
 24 28  1  0  0  0  0
 26 29  2  0  0  0  0
 28 25  1  0  0  0  0
 29 30  1  0  0  0  0
 30 23  1  0  0  0  0
 30 25  1  0  0  0  0
 31 29  1  0  0  0  0
 31 24  1  0  0  0  0
M  END
>  <MODEL>
7

>  <REMARK>
 VINA RESULT:      -5.7      1.950      2.436
  Name = 
  3 active torsions:
  status: ('A' for Active; 'I' for Inactive)
    1  A    between atoms: C_5  and  C_16
    2  A    between atoms: C_5  and  N_30
    3  A    between atoms: C_10  and  C_16
                            x       y       z     vdW  Elec       q    Type
                         _______ _______ _______ _____ _____    ______ ____

>  <TORSDO>
F 3

$$$$
=
 OpenBabel11122413113D

 31 35  0  0  1  0  0  0  0  0999 V2000
  160.9610  205.1000  145.6990 C   0  0  0  0  0  0  0  0  0  0  0  0
  160.4880  206.0570  149.3460 C   0  0  2  0  0  3  0  0  0  0  0  0
  160.8480  204.8410  150.1980 C   0  0  2  0  0  3  0  0  0  0  0  0
  161.4310  202.3830  150.3420 C   0  0  2  0  0  3  0  0  0  0  0  0
  161.0470  205.9730  147.9460 C   0  0  0  0  0  0  0  0  0  0  0  0
  162.0940  205.7880  145.3910 N   0  0  0  0  0  0  0  0  0  0  0  0
  160.7090  203.4740  149.5620 C   0  0  0  0  0  2  0  0  0  0  0  0
  162.3920  207.6260  149.8820 C   0  0  2  0  0  3  0  0  0  0  0  0
  160.1890  204.1030  144.4860 Cl  0  0  0  0  0  0  0  0  0  0  0  0
  161.0870  206.2870  152.2380 C   0  0  0  0  0  2  0  0  0  0  0  0
  161.0920  201.0320  149.7500 C   0  0  0  0  0  1  0  0  0  0  0  0
  162.8190  207.5420  148.5230 O   0  0  0  0  0  0  0  0  0  0  0  0
  160.8750  207.3960  150.0010 C   0  0  2  0  0  3  0  0  0  0  0  0
  160.4170  205.1810  146.9820 C   0  0  0  0  0  3  0  0  0  0  0  0
  160.9720  202.4350  151.7860 C   0  0  0  0  0  2  0  0  0  0  0  0
  162.2060  206.6880  147.6010 C   0  0  0  0  0  0  0  0  0  0  0  0
  162.7180  206.5770  146.3070 C   0  0  0  0  0  3  0  0  0  0  0  0
  160.4020  207.4000  151.4520 C   0  0  0  0  0  2  0  0  0  0  0  0
  161.0140  204.9510  151.5480 C   0  0  2  0  0  3  0  0  0  0  0  0
  161.4010  203.7640  152.3960 C   0  0  0  0  0  2  0  0  0  0  0  0
  162.8070  208.9690  150.4650 C   0  0  0  0  0  2  0  0  0  0  0  0
  161.4150  210.2000  152.1380 C   0  0  0  0  0  1  0  0  0  0  0  0
  161.5820  209.8500  150.6700 C   0  0  1  0  0  3  0  0  0  0  0  0
  162.0840  213.4590  148.2200 C   0  0  2  0  0  3  0  0  0  0  0  0
  162.7990  211.1800  148.9500 C   0  0  0  0  0  2  0  0  0  0  0  0
  160.4330  212.4490  151.3030 O   0  0  0  0  0  0  0  0  0  0  0  0
  162.1370  214.4250  147.0550 C   0  0  0  0  0  1  0  0  0  0  0  0
  162.5220  212.0820  147.7520 C   0  0  0  0  0  2  0  0  0  0  0  0
  160.8330  212.2150  150.1320 C   0  0  0  0  0  0  0  0  0  0  0  0
  161.6480  211.0620  149.8500 N   0  0  0  0  0  0  0  0  0  0  0  0
  160.3750  213.3370  148.8150 S   0  0  0  0  0  0  0  0  0  0  0  0
  1 14  1  0  0  0  0
  2  5  1  6  0  0  0
  2 13  1  0  0  0  0
  2  3  1  0  0  0  0
  3  7  1  1  0  0  0
  3 19  1  0  0  0  0
  4 11  1  6  0  0  0
  4 15  1  0  0  0  0
  6  1  2  0  0  0  0
  6 17  1  0  0  0  0
  7  4  1  0  0  0  0
  8 13  1  0  0  0  0
  8 21  1  6  0  0  0
  9  1  1  0  0  0  0
 12  8  1  0  0  0  0
 13 18  1  1  0  0  0
 14  5  2  0  0  0  0
 15 20  1  0  0  0  0
 16  5  1  0  0  0  0
 16 12  1  0  0  0  0
 17 16  2  0  0  0  0
 18 10  1  0  0  0  0
 19 10  1  6  0  0  0
 19 20  1  0  0  0  0
 21 23  1  0  0  0  0
 23 22  1  1  0  0  0
 24 27  1  6  0  0  0
 24 31  1  0  0  0  0
 25 30  1  0  0  0  0
 28 24  1  0  0  0  0
 28 25  1  0  0  0  0
 29 26  2  0  0  0  0
 30 29  1  0  0  0  0
 30 23  1  0  0  0  0
 31 29  1  0  0  0  0
M  END
>  <MODEL>
8

>  <REMARK>
 VINA RESULT:      -5.6      3.704      7.354
  Name = 
  3 active torsions:
  status: ('A' for Active; 'I' for Inactive)
    1  A    between atoms: C_5  and  C_16
    2  A    between atoms: C_5  and  N_30
    3  A    between atoms: C_10  and  C_16
                            x       y       z     vdW  Elec       q    Type
                         _______ _______ _______ _____ _____    ______ ____

>  <TORSDO>
F 3

$$$$
=
 OpenBabel11122413113D

 31 35  0  0  1  0  0  0  0  0999 V2000
  160.2310  209.9100  155.1600 C   0  0  0  0  0  0  0  0  0  0  0  0
  161.7310  210.4550  151.7110 C   0  0  2  0  0  3  0  0  0  0  0  0
  161.5490  209.1650  150.9140 C   0  0  2  0  0  3  0  0  0  0  0  0
  160.8910  206.7230  150.8510 C   0  0  2  0  0  3  0  0  0  0  0  0
  160.8080  210.5380  152.9030 C   0  0  0  0  0  0  0  0  0  0  0  0
  159.0980  210.6580  155.0750 N   0  0  0  0  0  0  0  0  0  0  0  0
  161.4320  207.8710  151.6910 C   0  0  0  0  0  2  0  0  0  0  0  0
  160.1350  212.0090  150.5220 C   0  0  2  0  0  3  0  0  0  0  0  0
  160.5880  209.0280  156.6290 Cl  0  0  0  0  0  0  0  0  0  0  0  0
  161.9540  210.3890  148.7570 C   0  0  0  0  0  2  0  0  0  0  0  0
  160.9800  205.4350  151.6410 C   0  0  0  0  0  1  0  0  0  0  0  0
  159.3510  212.0840  151.7120 O   0  0  0  0  0  0  0  0  0  0  0  0
  161.6120  211.7260  150.8490 C   0  0  2  0  0  3  0  0  0  0  0  0
  161.1070  209.8370  154.0750 C   0  0  0  0  0  3  0  0  0  0  0  0
  161.7260  206.6060  149.5910 C   0  0  0  0  0  2  0  0  0  0  0  0
  159.6410  211.3170  152.8440 C   0  0  0  0  0  0  0  0  0  0  0  0
  158.7920  211.3610  153.9510 C   0  0  0  0  0  3  0  0  0  0  0  0
  162.4610  211.5600  149.5920 C   0  0  0  0  0  2  0  0  0  0  0  0
  161.7630  209.1330  149.5660 C   0  0  2  0  0  3  0  0  0  0  0  0
  161.5540  207.8720  148.7620 C   0  0  0  0  0  2  0  0  0  0  0  0
  159.9690  213.2920  149.7200 C   0  0  0  0  0  2  0  0  0  0  0  0
  157.9380  214.0270  148.4600 C   0  0  0  0  0  1  0  0  0  0  0  0
  159.0890  213.0370  148.5040 C   0  0  1  0  0  3  0  0  0  0  0  0
  161.5420  213.4240  144.8830 C   0  0  2  0  0  3  0  0  0  0  0  0
  161.1980  213.6790  147.3440 C   0  0  0  0  0  2  0  0  0  0  0  0
  158.0310  213.1260  145.7940 O   0  0  0  0  0  0  0  0  0  0  0  0
  162.6120  213.2300  143.8290 C   0  0  0  0  0  1  0  0  0  0  0  0
  162.1400  213.1730  146.2570 C   0  0  0  0  0  2  0  0  0  0  0  0
  159.2490  212.8640  145.9760 C   0  0  0  0  0  0  0  0  0  0  0  0
  159.8630  213.0820  147.2610 N   0  0  0  0  0  0  0  0  0  0  0  0
  160.2160  212.2180  144.6160 S   0  0  0  0  0  0  0  0  0  0  0  0
  1  9  1  0  0  0  0
  2  5  1  1  0  0  0
  3  7  1  1  0  0  0
  3  2  1  0  0  0  0
  4 11  1  1  0  0  0
  4  7  1  0  0  0  0
  5 14  1  0  0  0  0
  6  1  1  0  0  0  0
  8 21  1  1  0  0  0
  8 13  1  0  0  0  0
  8 12  1  0  0  0  0
 10 18  1  0  0  0  0
 12 16  1  0  0  0  0
 13 18  1  6  0  0  0
 13  2  1  0  0  0  0
 14  1  2  0  0  0  0
 15  4  1  0  0  0  0
 16  5  2  0  0  0  0
 16 17  1  0  0  0  0
 17  6  2  0  0  0  0
 19 10  1  6  0  0  0
 19  3  1  0  0  0  0
 20 19  1  0  0  0  0
 20 15  1  0  0  0  0
 23 22  1  6  0  0  0
 23 21  1  0  0  0  0
 24 27  1  6  0  0  0
 24 28  1  0  0  0  0
 26 29  2  0  0  0  0
 28 25  1  0  0  0  0
 29 30  1  0  0  0  0
 30 25  1  0  0  0  0
 30 23  1  0  0  0  0
 31 24  1  0  0  0  0
 31 29  1  0  0  0  0
M  END
>  <MODEL>
9

>  <REMARK>
 VINA RESULT:      -5.2      4.597      8.158
  Name = 
  3 active torsions:
  status: ('A' for Active; 'I' for Inactive)
    1  A    between atoms: C_5  and  C_16
    2  A    between atoms: C_5  and  N_30
    3  A    between atoms: C_10  and  C_16
                            x       y       z     vdW  Elec       q    Type
                         _______ _______ _______ _____ _____    ______ ____

>  <TORSDO>
F 3

$$$$
