=
 OpenBabel11122412403D

 30 35  0  0  1  0  0  0  0  0999 V2000
  161.2910  204.3340  148.5890 C   0  0  0  0  0  0  0  0  0  0  0  0
  160.9510  201.9600  149.3300 C   0  0  0  0  0  0  0  0  0  0  0  0
  161.0590  205.7040  152.4630 N   0  0  0  0  0  2  0  0  0  0  0  0
  161.3920  205.7120  148.9210 C   0  0  0  0  0  0  0  0  0  0  0  0
  161.4040  203.9660  147.2410 O   0  0  0  0  0  0  0  0  0  0  0  0
  159.8780  206.3580  146.2060 C   0  0  0  0  0  1  0  0  0  0  0  0
  161.3740  208.8750  148.8370 C   0  0  1  0  0  3  0  0  0  0  0  0
  161.3760  206.2730  146.4800 C   0  0  2  0  0  3  0  0  0  0  0  0
  161.2450  208.6750  150.3200 C   0  0  2  0  0  3  0  0  0  0  0  0
  161.1690  207.0200  152.1800 C   0  0  0  0  0  0  0  0  0  0  0  0
  161.9170  204.8600  146.2530 C   0  0  2  0  0  3  0  0  0  0  0  0
  161.6410  206.6550  147.8640 N   0  0  0  0  0  0  0  0  0  0  0  0
  160.7650  201.0570  150.3800 C   0  0  0  0  0  3  0  0  0  0  0  0
  162.3080  209.5850  150.8860 C   0  0  0  0  0  2  0  0  0  0  0  0
  161.9180  210.2850  148.7590 C   0  0  0  0  0  2  0  0  0  0  0  0
  160.9950  201.2560  147.7180 Cl  0  0  0  0  0  0  0  0  0  0  0  0
  161.1360  205.1330  151.2480 C   0  0  0  0  0  0  0  0  0  0  0  0
  160.7070  201.4930  151.7020 C   0  0  0  0  0  3  0  0  0  0  0  0
  161.0830  203.3500  149.6040 C   0  0  0  0  0  0  0  0  0  0  0  0
  161.2970  206.0820  150.2730 C   0  0  0  0  0  0  0  0  0  0  0  0
  161.0990  207.9050  153.0750 O   0  0  0  0  0  0  0  0  0  0  0  0
  161.3270  207.3050  150.8610 N   0  0  0  0  0  0  0  0  0  0  0  0
  162.5340  210.6360  149.9780 O   0  0  0  0  0  0  0  0  0  0  0  0
  163.6880  207.7320  148.7210 C   0  0  0  0  0  1  0  0  0  0  0  0
  160.8330  202.8470  151.9920 C   0  0  0  0  0  3  0  0  0  0  0  0
  161.0190  203.7740  150.9620 C   0  0  0  0  0  0  0  0  0  0  0  0
  162.3070  207.9230  148.0950 C   0  0  2  0  0  3  0  0  0  0  0  0
  161.6310  204.3440  144.8500 C   0  0  0  0  0  2  0  0  0  0  0  0
  159.4720  203.2860  144.2690 C   0  0  0  0  0  1  0  0  0  0  0  0
  160.8210  203.0640  144.9200 C   0  0  0  0  0  2  0  0  0  0  0  0
  1  4  2  0  0  0  0
  1 19  1  0  0  0  0
  2 19  2  0  0  0  0
  2 13  1  0  0  0  0
  4 20  1  0  0  0  0
  5  1  1  0  0  0  0
  7 15  1  1  0  0  0
  7  9  1  0  0  0  0
  8  6  1  1  0  0  0
  8 12  1  0  0  0  0
  9 22  1  0  0  0  0
  9 14  1  1  0  0  0
 10  3  1  0  0  0  0
 10 21  2  0  0  0  0
 11 28  1  6  0  0  0
 11  8  1  0  0  0  0
 11  5  1  0  0  0  0
 12 27  1  0  0  0  0
 12  4  1  0  0  0  0
 13 18  2  0  0  0  0
 15 23  1  0  0  0  0
 16  2  1  0  0  0  0
 17  3  1  0  0  0  0
 18 25  1  0  0  0  0
 19 26  1  0  0  0  0
 20 22  1  0  0  0  0
 20 17  2  0  0  0  0
 22 10  1  0  0  0  0
 23 14  1  0  0  0  0
 26 17  1  0  0  0  0
 26 25  2  0  0  0  0
 27 24  1  1  0  0  0
 27  7  1  0  0  0  0
 28 30  1  0  0  0  0
 29 30  1  0  0  0  0
M  END
>  <MODEL>
1

>  <REMARK>
 VINA RESULT:      -6.2      0.000      0.000
  Name = 
  2 active torsions:
  status: ('A' for Active; 'I' for Inactive)
    1  A    between atoms: C_11  and  C_28
    2  A    between atoms: C_28  and  C_30
                            x       y       z     vdW  Elec       q    Type
                         _______ _______ _______ _____ _____    ______ ____

>  <TORSDO>
F 2

$$$$
=
 OpenBabel11122412403D

 30 35  0  0  1  0  0  0  0  0999 V2000
  161.2650  208.7100  151.0700 C   0  0  0  0  0  0  0  0  0  0  0  0
  161.3620  206.8160  149.4260 C   0  0  0  0  0  0  0  0  0  0  0  0
  160.6930  206.1150  154.2120 N   0  0  0  0  0  2  0  0  0  0  0  0
  161.0980  209.1540  152.4090 C   0  0  0  0  0  0  0  0  0  0  0  0
  161.4760  209.6730  150.0730 O   0  0  0  0  0  0  0  0  0  0  0  0
  159.5510  211.6760  151.2560 C   0  0  0  0  0  1  0  0  0  0  0  0
  160.4870  210.8730  154.9950 C   0  0  1  0  0  3  0  0  0  0  0  0
  161.0310  211.5200  151.5870 C   0  0  2  0  0  3  0  0  0  0  0  0
  160.3650  209.4990  155.5870 C   0  0  2  0  0  3  0  0  0  0  0  0
  160.5600  207.0500  155.1770 C   0  0  0  0  0  0  0  0  0  0  0  0
  161.8340  211.0190  150.3840 C   0  0  2  0  0  3  0  0  0  0  0  0
  161.1880  210.5640  152.6800 N   0  0  0  0  0  0  0  0  0  0  0  0
  161.3270  205.4370  149.1960 C   0  0  0  0  0  3  0  0  0  0  0  0
  161.2240  209.5780  156.8250 C   0  0  0  0  0  2  0  0  0  0  0  0
  160.7570  211.7190  156.2200 C   0  0  0  0  0  2  0  0  0  0  0  0
  161.5740  207.8220  147.9980 Cl  0  0  0  0  0  0  0  0  0  0  0  0
  160.9040  206.8550  153.1100 C   0  0  0  0  0  0  0  0  0  0  0  0
  161.1570  204.5370  150.2460 C   0  0  0  0  0  3  0  0  0  0  0  0
  161.2240  207.3180  150.7510 C   0  0  0  0  0  0  0  0  0  0  0  0
  160.9040  208.1910  153.4130 C   0  0  0  0  0  0  0  0  0  0  0  0
  160.3040  206.7460  156.3740 O   0  0  0  0  0  0  0  0  0  0  0  0
  160.6910  208.3310  154.7460 N   0  0  0  0  0  0  0  0  0  0  0  0
  161.2680  210.9160  157.2610 O   0  0  0  0  0  0  0  0  0  0  0  0
  162.9760  210.5630  154.3790 C   0  0  0  0  0  1  0  0  0  0  0  0
  161.0190  205.0070  151.5480 C   0  0  0  0  0  3  0  0  0  0  0  0
  161.0510  206.3810  151.8080 C   0  0  0  0  0  0  0  0  0  0  0  0
  161.5980  211.0830  153.9710 C   0  0  2  0  0  3  0  0  0  0  0  0
  161.6810  211.9190  149.1660 C   0  0  0  0  0  2  0  0  0  0  0  0
  162.8460  212.8690  147.2020 C   0  0  0  0  0  1  0  0  0  0  0  0
  162.9000  211.8000  148.2740 C   0  0  0  0  0  2  0  0  0  0  0  0
  1  4  1  0  0  0  0
  2 19  1  0  0  0  0
  3 10  1  0  0  0  0
  4 12  1  0  0  0  0
  4 20  2  0  0  0  0
  5 11  1  0  0  0  0
  5  1  1  0  0  0  0
  7  9  1  0  0  0  0
  7 15  1  1  0  0  0
  8  6  1  6  0  0  0
  8 12  1  0  0  0  0
  9 14  1  1  0  0  0
 10 21  2  0  0  0  0
 11 28  1  6  0  0  0
 11  8  1  0  0  0  0
 12 27  1  0  0  0  0
 13  2  2  0  0  0  0
 13 18  1  0  0  0  0
 14 23  1  0  0  0  0
 15 23  1  0  0  0  0
 16  2  1  0  0  0  0
 17 20  1  0  0  0  0
 17  3  1  0  0  0  0
 18 25  2  0  0  0  0
 19  1  2  0  0  0  0
 19 26  1  0  0  0  0
 20 22  1  0  0  0  0
 22 10  1  0  0  0  0
 22  9  1  0  0  0  0
 25 26  1  0  0  0  0
 26 17  2  0  0  0  0
 27 24  1  1  0  0  0
 27  7  1  0  0  0  0
 29 30  1  0  0  0  0
 30 28  1  0  0  0  0
M  END
>  <MODEL>
2

>  <REMARK>
 VINA RESULT:      -6.0      3.281      5.975
  Name = 
  2 active torsions:
  status: ('A' for Active; 'I' for Inactive)
    1  A    between atoms: C_11  and  C_28
    2  A    between atoms: C_28  and  C_30
                            x       y       z     vdW  Elec       q    Type
                         _______ _______ _______ _____ _____    ______ ____

>  <TORSDO>
F 2

$$$$
=
 OpenBabel11122412403D

 30 35  0  0  1  0  0  0  0  0999 V2000
  161.3580  205.9860  149.9660 C   0  0  0  0  0  0  0  0  0  0  0  0
  161.1230  205.2790  152.3630 C   0  0  0  0  0  0  0  0  0  0  0  0
  160.9070  202.1120  148.6520 N   0  0  0  0  0  2  0  0  0  0  0  0
  161.4090  205.6330  148.5910 C   0  0  0  0  0  0  0  0  0  0  0  0
  161.5010  207.3370  150.3100 O   0  0  0  0  0  0  0  0  0  0  0  0
  163.5960  207.9030  148.2100 C   0  0  0  0  0  1  0  0  0  0  0  0
  161.9640  205.5890  145.4750 C   0  0  1  0  0  3  0  0  0  0  0  0
  162.0830  207.9830  148.0420 C   0  0  2  0  0  3  0  0  0  0  0  0
  161.7110  204.1250  145.6940 C   0  0  2  0  0  3  0  0  0  0  0  0
  161.0820  202.3620  147.3370 C   0  0  0  0  0  0  0  0  0  0  0  0
  161.3850  208.3820  149.3440 C   0  0  2  0  0  3  0  0  0  0  0  0
  161.5700  206.6820  147.6190 N   0  0  0  0  0  0  0  0  0  0  0  0
  160.9090  204.2490  153.2840 C   0  0  0  0  0  3  0  0  0  0  0  0
  160.7100  203.7830  144.6180 C   0  0  0  0  0  2  0  0  0  0  0  0
  161.6920  205.7360  143.9940 C   0  0  0  0  0  2  0  0  0  0  0  0
  161.3390  206.8840  153.0500 Cl  0  0  0  0  0  0  0  0  0  0  0  0
  161.0200  203.3330  149.2030 C   0  0  0  0  0  0  0  0  0  0  0  0
  160.7310  202.9330  152.8630 C   0  0  0  0  0  3  0  0  0  0  0  0
  161.1600  204.9890  150.9700 C   0  0  0  0  0  0  0  0  0  0  0  0
  161.2480  204.2830  148.2410 C   0  0  0  0  0  0  0  0  0  0  0  0
  161.0880  201.4410  146.4750 O   0  0  0  0  0  0  0  0  0  0  0  0
  161.2830  203.6700  147.0300 N   0  0  0  0  0  0  0  0  0  0  0  0
  160.8770  204.6770  143.5440 O   0  0  0  0  0  0  0  0  0  0  0  0
  159.5860  206.2750  146.2130 C   0  0  0  0  0  1  0  0  0  0  0  0
  160.7650  202.6280  151.5060 C   0  0  0  0  0  3  0  0  0  0  0  0
  160.9760  203.6370  150.5620 C   0  0  0  0  0  0  0  0  0  0  0  0
  161.0860  206.5610  146.2580 C   0  0  2  0  0  3  0  0  0  0  0  0
  161.9000  209.7000  149.9010 C   0  0  0  0  0  2  0  0  0  0  0  0
  161.2310  210.4060  152.1750 C   0  0  0  0  0  1  0  0  0  0  0  0
  162.2020  209.5590  151.3800 C   0  0  0  0  0  2  0  0  0  0  0  0
  1  5  1  0  0  0  0
  1 19  1  0  0  0  0
  2 16  1  0  0  0  0
  2 13  1  0  0  0  0
  3 17  1  0  0  0  0
  4  1  2  0  0  0  0
  7 15  1  6  0  0  0
  7  9  1  0  0  0  0
  7 27  1  0  0  0  0
  8  6  1  1  0  0  0
  8 11  1  0  0  0  0
  9 14  1  6  0  0  0
  9 22  1  0  0  0  0
 10  3  1  0  0  0  0
 11 28  1  1  0  0  0
 11  5  1  0  0  0  0
 12  8  1  0  0  0  0
 12  4  1  0  0  0  0
 17 26  1  0  0  0  0
 18 13  2  0  0  0  0
 19  2  2  0  0  0  0
 20  4  1  0  0  0  0
 20 17  2  0  0  0  0
 21 10  2  0  0  0  0
 22 10  1  0  0  0  0
 22 20  1  0  0  0  0
 23 15  1  0  0  0  0
 23 14  1  0  0  0  0
 25 18  1  0  0  0  0
 26 19  1  0  0  0  0
 26 25  2  0  0  0  0
 27 24  1  1  0  0  0
 27 12  1  0  0  0  0
 28 30  1  0  0  0  0
 30 29  1  0  0  0  0
M  END
>  <MODEL>
3

>  <REMARK>
 VINA RESULT:      -5.7      2.188      5.579
  Name = 
  2 active torsions:
  status: ('A' for Active; 'I' for Inactive)
    1  A    between atoms: C_11  and  C_28
    2  A    between atoms: C_28  and  C_30
                            x       y       z     vdW  Elec       q    Type
                         _______ _______ _______ _____ _____    ______ ____

>  <TORSDO>
F 2

$$$$
=
 OpenBabel11122412403D

 30 35  0  0  1  0  0  0  0  0999 V2000
  161.5140  207.7810  150.7930 C   0  0  0  0  0  0  0  0  0  0  0  0
  161.2470  208.6480  153.1330 C   0  0  0  0  0  0  0  0  0  0  0  0
  160.8660  203.9080  152.0260 N   0  0  0  0  0  2  0  0  0  0  0  0
  161.5460  206.6770  149.8990 C   0  0  0  0  0  0  0  0  0  0  0  0
  161.7260  209.0640  150.2710 O   0  0  0  0  0  0  0  0  0  0  0  0
  163.8440  208.1820  148.3070 C   0  0  0  0  0  1  0  0  0  0  0  0
  162.0930  204.7660  147.4360 C   0  0  1  0  0  3  0  0  0  0  0  0
  162.3370  208.2090  148.0810 C   0  0  2  0  0  3  0  0  0  0  0  0
  161.7670  203.7310  148.4750 C   0  0  2  0  0  3  0  0  0  0  0  0
  161.0520  203.3190  150.8250 C   0  0  0  0  0  0  0  0  0  0  0  0
  161.6610  209.3320  148.8700 C   0  0  2  0  0  3  0  0  0  0  0  0
  161.7580  206.9350  148.4990 N   0  0  0  0  0  0  0  0  0  0  0  0
  160.9830  208.3790  154.4790 C   0  0  0  0  0  3  0  0  0  0  0  0
  160.7480  202.8570  147.7840 C   0  0  0  0  0  2  0  0  0  0  0  0
  161.8270  204.0140  146.1510 C   0  0  0  0  0  2  0  0  0  0  0  0
  161.5450  210.3370  152.7380 Cl  0  0  0  0  0  0  0  0  0  0  0  0
  161.0420  205.2110  151.7460 C   0  0  0  0  0  0  0  0  0  0  0  0
  160.7380  207.0790  154.9180 C   0  0  0  0  0  3  0  0  0  0  0  0
  161.2680  207.5860  152.1870 C   0  0  0  0  0  0  0  0  0  0  0  0
  161.3160  205.3920  150.4160 C   0  0  0  0  0  0  0  0  0  0  0  0
  161.0090  202.0670  150.6790 O   0  0  0  0  0  0  0  0  0  0  0  0
  161.3180  204.1780  149.8070 N   0  0  0  0  0  0  0  0  0  0  0  0
  160.9580  202.9300  146.3940 O   0  0  0  0  0  0  0  0  0  0  0  0
  159.7540  205.8540  147.5530 C   0  0  0  0  0  1  0  0  0  0  0  0
  160.7540  206.0260  154.0100 C   0  0  0  0  0  3  0  0  0  0  0  0
  161.0150  206.2650  152.6570 C   0  0  0  0  0  0  0  0  0  0  0  0
  161.2670  206.0480  147.4630 C   0  0  2  0  0  3  0  0  0  0  0  0
  162.2440  210.7010  148.5500 C   0  0  0  0  0  2  0  0  0  0  0  0
  161.4310  213.0370  148.5990 C   0  0  0  0  0  1  0  0  0  0  0  0
  161.5810  211.7630  149.4050 C   0  0  0  0  0  2  0  0  0  0  0  0
  1 19  1  0  0  0  0
  2 13  1  0  0  0  0
  4 20  1  0  0  0  0
  4  1  2  0  0  0  0
  5  1  1  0  0  0  0
  7 15  1  6  0  0  0
  7 27  1  0  0  0  0
  7  9  1  0  0  0  0
  8  6  1  1  0  0  0
  8 12  1  0  0  0  0
  8 11  1  0  0  0  0
  9 14  1  6  0  0  0
  9 22  1  0  0  0  0
 10  3  1  0  0  0  0
 11 28  1  1  0  0  0
 11  5  1  0  0  0  0
 12  4  1  0  0  0  0
 13 18  2  0  0  0  0
 15 23  1  0  0  0  0
 16  2  1  0  0  0  0
 17  3  1  0  0  0  0
 17 26  1  0  0  0  0
 19 26  1  0  0  0  0
 19  2  2  0  0  0  0
 20 17  2  0  0  0  0
 21 10  2  0  0  0  0
 22 20  1  0  0  0  0
 22 10  1  0  0  0  0
 23 14  1  0  0  0  0
 25 18  1  0  0  0  0
 26 25  2  0  0  0  0
 27 24  1  1  0  0  0
 27 12  1  0  0  0  0
 28 30  1  0  0  0  0
 29 30  1  0  0  0  0
M  END
>  <MODEL>
4

>  <REMARK>
 VINA RESULT:      -5.5      2.514      5.857
  Name = 
  2 active torsions:
  status: ('A' for Active; 'I' for Inactive)
    1  A    between atoms: C_11  and  C_28
    2  A    between atoms: C_28  and  C_30
                            x       y       z     vdW  Elec       q    Type
                         _______ _______ _______ _____ _____    ______ ____

>  <TORSDO>
F 2

$$$$
=
 OpenBabel11122412403D

 30 35  0  0  1  0  0  0  0  0999 V2000
  161.5070  207.2600  150.4440 C   0  0  0  0  0  0  0  0  0  0  0  0
  161.2230  207.4630  152.9290 C   0  0  0  0  0  0  0  0  0  0  0  0
  161.0080  203.1780  150.5970 N   0  0  0  0  0  2  0  0  0  0  0  0
  161.5730  206.4370  149.2870 C   0  0  0  0  0  0  0  0  0  0  0  0
  161.6690  208.6440  150.2830 O   0  0  0  0  0  0  0  0  0  0  0  0
  163.8060  208.3950  148.1630 C   0  0  0  0  0  1  0  0  0  0  0  0
  162.1750  205.2720  146.4070 C   0  0  1  0  0  3  0  0  0  0  0  0
  162.2970  208.4260  147.9470 C   0  0  2  0  0  3  0  0  0  0  0  0
  161.8930  203.9870  147.1310 C   0  0  2  0  0  3  0  0  0  0  0  0
  161.2080  202.9380  149.2830 C   0  0  0  0  0  0  0  0  0  0  0  0
  161.5860  209.2730  149.0040 C   0  0  2  0  0  3  0  0  0  0  0  0
  161.7680  207.0660  148.0080 N   0  0  0  0  0  0  0  0  0  0  0  0
  160.9770  206.8350  154.1530 C   0  0  0  0  0  3  0  0  0  0  0  0
  160.9030  203.2920  146.2280 C   0  0  0  0  0  2  0  0  0  0  0  0
  161.9290  204.8800  144.9660 C   0  0  0  0  0  2  0  0  0  0  0  0
  161.4570  209.2060  152.9990 Cl  0  0  0  0  0  0  0  0  0  0  0  0
  161.1350  204.5140  150.6750 C   0  0  0  0  0  0  0  0  0  0  0  0
  160.7820  205.4580  154.2290 C   0  0  0  0  0  3  0  0  0  0  0  0
  161.2770  206.6920  151.7340 C   0  0  0  0  0  0  0  0  0  0  0  0
  161.3940  205.0530  149.4420 C   0  0  0  0  0  0  0  0  0  0  0  0
  161.2100  201.7690  148.8090 O   0  0  0  0  0  0  0  0  0  0  0  0
  161.4360  204.0460  148.5320 N   0  0  0  0  0  0  0  0  0  0  0  0
  161.1020  203.7400  144.9090 O   0  0  0  0  0  0  0  0  0  0  0  0
  159.7990  206.2030  146.8000 C   0  0  0  0  0  1  0  0  0  0  0  0
  160.8310  204.6850  153.0730 C   0  0  0  0  0  3  0  0  0  0  0  0
  161.0750  205.2860  151.8340 C   0  0  0  0  0  0  0  0  0  0  0  0
  161.3030  206.4690  146.7710 C   0  0  2  0  0  3  0  0  0  0  0  0
  162.1160  210.6980  149.0620 C   0  0  0  0  0  2  0  0  0  0  0  0
  162.5730  212.5810  147.5250 C   0  0  0  0  0  1  0  0  0  0  0  0
  161.5760  211.5030  147.8970 C   0  0  0  0  0  2  0  0  0  0  0  0
  1 19  1  0  0  0  0
  2 16  1  0  0  0  0
  2 13  1  0  0  0  0
  3 17  1  0  0  0  0
  4 20  1  0  0  0  0
  4  1  2  0  0  0  0
  5  1  1  0  0  0  0
  7 15  1  6  0  0  0
  7 27  1  0  0  0  0
  7  9  1  0  0  0  0
  8 12  1  0  0  0  0
  8  6  1  1  0  0  0
  8 11  1  0  0  0  0
  9 14  1  6  0  0  0
  9 22  1  0  0  0  0
 10  3  1  0  0  0  0
 11 28  1  1  0  0  0
 11  5  1  0  0  0  0
 12  4  1  0  0  0  0
 13 18  2  0  0  0  0
 17 26  1  0  0  0  0
 19 26  1  0  0  0  0
 19  2  2  0  0  0  0
 20 17  2  0  0  0  0
 21 10  2  0  0  0  0
 22 10  1  0  0  0  0
 22 20  1  0  0  0  0
 23 15  1  0  0  0  0
 23 14  1  0  0  0  0
 25 18  1  0  0  0  0
 26 25  2  0  0  0  0
 27 24  1  1  0  0  0
 27 12  1  0  0  0  0
 29 30  1  0  0  0  0
 30 28  1  0  0  0  0
M  END
>  <MODEL>
5

>  <REMARK>
 VINA RESULT:      -5.3      2.373      5.613
  Name = 
  2 active torsions:
  status: ('A' for Active; 'I' for Inactive)
    1  A    between atoms: C_11  and  C_28
    2  A    between atoms: C_28  and  C_30
                            x       y       z     vdW  Elec       q    Type
                         _______ _______ _______ _____ _____    ______ ____

>  <TORSDO>
F 2

$$$$
=
 OpenBabel11122412403D

 30 35  0  0  1  0  0  0  0  0999 V2000
  161.1970  210.1970  150.8950 C   0  0  0  0  0  0  0  0  0  0  0  0
  161.9520  209.6130  148.5740 C   0  0  0  0  0  0  0  0  0  0  0  0
  161.7680  206.3310  152.1850 N   0  0  0  0  0  2  0  0  0  0  0  0
  160.9200  209.7860  152.2260 C   0  0  0  0  0  0  0  0  0  0  0  0
  160.9900  211.5430  150.5600 O   0  0  0  0  0  0  0  0  0  0  0  0
  158.4880  211.8280  152.2280 C   0  0  0  0  0  1  0  0  0  0  0  0
  159.7890  209.5640  155.1740 C   0  0  1  0  0  3  0  0  0  0  0  0
  159.9260  212.0390  152.6870 C   0  0  2  0  0  3  0  0  0  0  0  0
  160.2220  208.1400  154.9760 C   0  0  2  0  0  3  0  0  0  0  0  0
  161.3220  206.5100  153.4470 C   0  0  0  0  0  0  0  0  0  0  0  0
  160.8170  212.5530  151.5540 C   0  0  2  0  0  3  0  0  0  0  0  0
  160.4750  210.7750  153.1710 N   0  0  0  0  0  0  0  0  0  0  0  0
  162.4360  208.6460  147.6880 C   0  0  0  0  0  3  0  0  0  0  0  0
  161.0290  207.8470  156.2170 C   0  0  0  0  0  2  0  0  0  0  0  0
  159.7590  209.6750  156.6830 C   0  0  0  0  0  2  0  0  0  0  0  0
  161.7140  211.2180  147.8930 Cl  0  0  0  0  0  0  0  0  0  0  0  0
  161.6420  207.5580  151.6500 C   0  0  0  0  0  0  0  0  0  0  0  0
  162.6600  207.3360  148.1060 C   0  0  0  0  0  3  0  0  0  0  0  0
  161.6780  209.2640  149.9260 C   0  0  0  0  0  0  0  0  0  0  0  0
  161.1430  208.4420  152.5700 C   0  0  0  0  0  0  0  0  0  0  0  0
  161.2430  205.5590  154.2710 O   0  0  0  0  0  0  0  0  0  0  0  0
  160.9390  207.7810  153.7380 N   0  0  0  0  0  0  0  0  0  0  0  0
  160.5740  208.6780  157.2580 O   0  0  0  0  0  0  0  0  0  0  0  0
  162.1860  210.4950  154.9250 C   0  0  0  0  0  1  0  0  0  0  0  0
  162.3990  206.9730  149.4240 C   0  0  0  0  0  3  0  0  0  0  0  0
  161.9140  207.9200  150.3320 C   0  0  0  0  0  0  0  0  0  0  0  0
  160.7000  210.6430  154.5980 C   0  0  2  0  0  3  0  0  0  0  0  0
  160.2900  213.8400  150.9370 C   0  0  0  0  0  2  0  0  0  0  0  0
  158.7600  213.7330  148.9960 C   0  0  0  0  0  1  0  0  0  0  0  0
  160.2110  213.7020  149.4290 C   0  0  0  0  0  2  0  0  0  0  0  0
  1  4  1  0  0  0  0
  2 19  1  0  0  0  0
  3 10  1  0  0  0  0
  4 20  2  0  0  0  0
  4 12  1  0  0  0  0
  5  1  1  0  0  0  0
  5 11  1  0  0  0  0
  7 15  1  1  0  0  0
  8  6  1  6  0  0  0
  8 12  1  0  0  0  0
  9  7  1  0  0  0  0
  9 14  1  1  0  0  0
 10 22  1  0  0  0  0
 10 21  2  0  0  0  0
 11 28  1  6  0  0  0
 11  8  1  0  0  0  0
 12 27  1  0  0  0  0
 13 18  1  0  0  0  0
 13  2  2  0  0  0  0
 14 23  1  0  0  0  0
 15 23  1  0  0  0  0
 16  2  1  0  0  0  0
 17  3  1  0  0  0  0
 17 20  1  0  0  0  0
 18 25  2  0  0  0  0
 19 26  1  0  0  0  0
 19  1  2  0  0  0  0
 20 22  1  0  0  0  0
 22  9  1  0  0  0  0
 25 26  1  0  0  0  0
 26 17  2  0  0  0  0
 27 24  1  6  0  0  0
 27  7  1  0  0  0  0
 29 30  1  0  0  0  0
 30 28  1  0  0  0  0
M  END
>  <MODEL>
6

>  <REMARK>
 VINA RESULT:      -4.3      3.969      7.142
  Name = 
  2 active torsions:
  status: ('A' for Active; 'I' for Inactive)
    1  A    between atoms: C_11  and  C_28
    2  A    between atoms: C_28  and  C_30
                            x       y       z     vdW  Elec       q    Type
                         _______ _______ _______ _____ _____    ______ ____

>  <TORSDO>
F 2

$$$$
=
 OpenBabel11122412403D

 30 35  0  0  1  0  0  0  0  0999 V2000
  160.3050  209.2690  153.7760 C   0  0  0  0  0  0  0  0  0  0  0  0
  160.7890  206.8690  154.3270 C   0  0  0  0  0  0  0  0  0  0  0  0
  161.9900  208.8790  150.0420 N   0  0  0  0  0  2  0  0  0  0  0  0
  160.3900  210.3500  152.8580 C   0  0  0  0  0  0  0  0  0  0  0  0
  159.6920  209.4990  155.0160 O   0  0  0  0  0  0  0  0  0  0  0  0
  160.8380  212.2740  155.3440 C   0  0  0  0  0  1  0  0  0  0  0  0
  160.5120  213.2240  151.5380 C   0  0  1  0  0  3  0  0  0  0  0  0
  159.5410  211.8940  154.6390 C   0  0  2  0  0  3  0  0  0  0  0  0
  161.1630  212.4300  150.4430 C   0  0  2  0  0  3  0  0  0  0  0  0
  161.8410  210.1650  149.6580 C   0  0  0  0  0  0  0  0  0  0  0  0
  158.8940  210.6560  155.2640 C   0  0  2  0  0  3  0  0  0  0  0  0
  159.8140  211.6150  153.2320 N   0  0  0  0  0  0  0  0  0  0  0  0
  161.3060  205.6360  153.9190 C   0  0  0  0  0  3  0  0  0  0  0  0
  160.4200  212.8720  149.2060 C   0  0  0  0  0  2  0  0  0  0  0  0
  160.0380  214.4530  150.7940 C   0  0  0  0  0  2  0  0  0  0  0  0
  160.1310  206.9180  155.9580 Cl  0  0  0  0  0  0  0  0  0  0  0  0
  161.4510  208.8740  151.2740 C   0  0  0  0  0  0  0  0  0  0  0  0
  161.8600  205.4720  152.6520 C   0  0  0  0  0  3  0  0  0  0  0  0
  160.8250  207.9820  153.4410 C   0  0  0  0  0  0  0  0  0  0  0  0
  160.9870  210.1190  151.6080 C   0  0  0  0  0  0  0  0  0  0  0  0
  162.2700  210.5870  148.5500 O   0  0  0  0  0  0  0  0  0  0  0  0
  161.2250  210.9610  150.5700 N   0  0  0  0  0  0  0  0  0  0  0  0
  159.9240  214.1720  149.4160 O   0  0  0  0  0  0  0  0  0  0  0  0
  158.2690  211.9590  151.3420 C   0  0  0  0  0  1  0  0  0  0  0  0
  161.9070  206.5470  151.7700 C   0  0  0  0  0  3  0  0  0  0  0  0
  161.3970  207.7920  152.1500 C   0  0  0  0  0  0  0  0  0  0  0  0
  159.3340  212.5690  152.2520 C   0  0  2  0  0  3  0  0  0  0  0  0
  158.6270  210.8260  156.7520 C   0  0  0  0  0  2  0  0  0  0  0  0
  156.3220  211.4440  156.1030 C   0  0  0  0  0  1  0  0  0  0  0  0
  157.5050  211.8210  156.9710 C   0  0  0  0  0  2  0  0  0  0  0  0
  1  5  1  0  0  0  0
  2 16  1  0  0  0  0
  3 17  1  0  0  0  0
  4 12  1  0  0  0  0
  4  1  2  0  0  0  0
  5 11  1  0  0  0  0
  7 15  1  6  0  0  0
  7 27  1  0  0  0  0
  8 11  1  0  0  0  0
  8  6  1  1  0  0  0
  9 14  1  6  0  0  0
  9 22  1  0  0  0  0
  9  7  1  0  0  0  0
 10  3  1  0  0  0  0
 10 22  1  0  0  0  0
 11 28  1  1  0  0  0
 12  8  1  0  0  0  0
 13  2  1  0  0  0  0
 14 23  1  0  0  0  0
 17 20  2  0  0  0  0
 17 26  1  0  0  0  0
 18 13  2  0  0  0  0
 19  1  1  0  0  0  0
 19  2  2  0  0  0  0
 20  4  1  0  0  0  0
 21 10  2  0  0  0  0
 22 20  1  0  0  0  0
 23 15  1  0  0  0  0
 25 26  2  0  0  0  0
 25 18  1  0  0  0  0
 26 19  1  0  0  0  0
 27 24  1  6  0  0  0
 27 12  1  0  0  0  0
 28 30  1  0  0  0  0
 29 30  1  0  0  0  0
M  END
>  <MODEL>
7

>  <REMARK>
 VINA RESULT:      -3.7      4.524      7.771
  Name = 
  2 active torsions:
  status: ('A' for Active; 'I' for Inactive)
    1  A    between atoms: C_11  and  C_28
    2  A    between atoms: C_28  and  C_30
                            x       y       z     vdW  Elec       q    Type
                         _______ _______ _______ _____ _____    ______ ____

>  <TORSDO>
F 2

$$$$
=
 OpenBabel11122412403D

 30 35  0  0  1  0  0  0  0  0999 V2000
  157.5050  211.4930  139.2460 C   0  0  0  0  0  0  0  0  0  0  0  0
  155.3470  210.3490  138.6690 C   0  0  0  0  0  0  0  0  0  0  0  0
  159.6830  208.7260  137.1170 N   0  0  0  0  0  2  0  0  0  0  0  0
  158.9220  211.5370  139.1600 C   0  0  0  0  0  0  0  0  0  0  0  0
  156.8540  212.4960  139.9790 O   0  0  0  0  0  0  0  0  0  0  0  0
  158.9540  212.6190  142.1450 C   0  0  0  0  0  1  0  0  0  0  0  0
  161.9920  212.0890  139.6980 C   0  0  1  0  0  3  0  0  0  0  0  0
  158.9390  213.3990  140.8360 C   0  0  2  0  0  3  0  0  0  0  0  0
  162.1180  210.8870  138.8060 C   0  0  2  0  0  3  0  0  0  0  0  0
  160.9060  209.2150  137.4140 C   0  0  0  0  0  0  0  0  0  0  0  0
  157.5140  213.7000  140.3680 C   0  0  2  0  0  3  0  0  0  0  0  0
  159.6150  212.6240  139.7990 N   0  0  0  0  0  0  0  0  0  0  0  0
  154.6920  209.3150  137.9940 C   0  0  0  0  0  3  0  0  0  0  0  0
  163.1350  211.3240  137.7800 C   0  0  0  0  0  2  0  0  0  0  0  0
  163.3540  212.7310  139.5520 C   0  0  0  0  0  2  0  0  0  0  0  0
  154.3100  211.4450  139.5740 Cl  0  0  0  0  0  0  0  0  0  0  0  0
  158.8620  209.5740  137.7600 C   0  0  0  0  0  0  0  0  0  0  0  0
  155.4050  208.3790  137.2470 C   0  0  0  0  0  3  0  0  0  0  0  0
  156.7640  210.4580  138.5990 C   0  0  0  0  0  0  0  0  0  0  0  0
  159.5770  210.5440  138.4130 C   0  0  0  0  0  0  0  0  0  0  0  0
  161.9650  208.6540  137.0190 O   0  0  0  0  0  0  0  0  0  0  0  0
  160.8990  210.3290  138.1910 N   0  0  0  0  0  0  0  0  0  0  0  0
  163.9650  212.3040  138.3550 O   0  0  0  0  0  0  0  0  0  0  0  0
  160.8640  213.5280  137.8740 C   0  0  0  0  0  1  0  0  0  0  0  0
  156.7910  208.4660  137.1660 C   0  0  0  0  0  3  0  0  0  0  0  0
  157.4730  209.4900  137.8310 C   0  0  0  0  0  0  0  0  0  0  0  0
  160.9070  213.0990  139.3400 C   0  0  2  0  0  3  0  0  0  0  0  0
  156.7040  214.4530  141.4130 C   0  0  0  0  0  2  0  0  0  0  0  0
  154.3980  214.2350  142.2810 C   0  0  0  0  0  1  0  0  0  0  0  0
  155.2360  214.4490  141.0370 C   0  0  0  0  0  2  0  0  0  0  0  0
  1  5  1  0  0  0  0
  2 16  1  0  0  0  0
  3 10  1  0  0  0  0
  3 17  1  0  0  0  0
  4  1  1  0  0  0  0
  4 12  1  0  0  0  0
  5 11  1  0  0  0  0
  7 15  1  6  0  0  0
  8  6  1  1  0  0  0
  9 14  1  6  0  0  0
  9  7  1  0  0  0  0
 10 22  1  0  0  0  0
 11  8  1  0  0  0  0
 11 28  1  1  0  0  0
 12  8  1  0  0  0  0
 13  2  2  0  0  0  0
 14 23  1  0  0  0  0
 17 26  2  0  0  0  0
 17 20  1  0  0  0  0
 18 13  1  0  0  0  0
 19  2  1  0  0  0  0
 19  1  2  0  0  0  0
 20  4  2  0  0  0  0
 21 10  2  0  0  0  0
 22 20  1  0  0  0  0
 22  9  1  0  0  0  0
 23 15  1  0  0  0  0
 25 18  2  0  0  0  0
 25 26  1  0  0  0  0
 26 19  1  0  0  0  0
 27 24  1  6  0  0  0
 27  7  1  0  0  0  0
 27 12  1  0  0  0  0
 30 28  1  0  0  0  0
 30 29  1  0  0  0  0
M  END
>  <MODEL>
8

>  <REMARK>
 VINA RESULT:      -3.6     11.239     13.043
  Name = 
  2 active torsions:
  status: ('A' for Active; 'I' for Inactive)
    1  A    between atoms: C_11  and  C_28
    2  A    between atoms: C_28  and  C_30
                            x       y       z     vdW  Elec       q    Type
                         _______ _______ _______ _____ _____    ______ ____

>  <TORSDO>
F 2

$$$$
=
 OpenBabel11122412403D

 30 35  0  0  1  0  0  0  0  0999 V2000
  161.3680  205.6380  149.7170 C   0  0  0  0  0  0  0  0  0  0  0  0
  161.2300  204.4910  147.4890 C   0  0  0  0  0  0  0  0  0  0  0  0
  161.9110  209.3060  147.9330 N   0  0  0  0  0  2  0  0  0  0  0  0
  161.5490  206.8330  150.4640 C   0  0  0  0  0  0  0  0  0  0  0  0
  161.1690  204.4410  150.4200 O   0  0  0  0  0  0  0  0  0  0  0  0
  163.1350  205.1130  152.6120 C   0  0  0  0  0  1  0  0  0  0  0  0
  162.2040  208.9360  152.7370 C   0  0  1  0  0  3  0  0  0  0  0  0
  161.6540  205.4720  152.5650 C   0  0  2  0  0  3  0  0  0  0  0  0
  162.3050  209.8370  151.5410 C   0  0  2  0  0  3  0  0  0  0  0  0
  162.0650  210.0210  149.0690 C   0  0  0  0  0  0  0  0  0  0  0  0
  160.8360  204.4230  151.8080 C   0  0  2  0  0  3  0  0  0  0  0  0
  161.4850  206.7610  151.9000 N   0  0  0  0  0  0  0  0  0  0  0  0
  161.2410  204.5950  146.0950 C   0  0  0  0  0  3  0  0  0  0  0  0
  161.4530  211.0220  151.9270 C   0  0  0  0  0  2  0  0  0  0  0  0
  161.9550  209.9250  153.8550 C   0  0  0  0  0  2  0  0  0  0  0  0
  161.0280  202.8650  148.1310 Cl  0  0  0  0  0  0  0  0  0  0  0  0
  161.7080  208.0600  148.3940 C   0  0  0  0  0  0  0  0  0  0  0  0
  161.4000  205.8280  145.4670 C   0  0  0  0  0  3  0  0  0  0  0  0
  161.3840  205.6580  148.2900 C   0  0  0  0  0  0  0  0  0  0  0  0
  161.7320  208.0370  149.7640 C   0  0  0  0  0  0  0  0  0  0  0  0
  162.3220  211.2560  149.0530 O   0  0  0  0  0  0  0  0  0  0  0  0
  161.9540  209.2980  150.2130 N   0  0  0  0  0  0  0  0  0  0  0  0
  161.4350  211.1270  153.3310 O   0  0  0  0  0  0  0  0  0  0  0  0
  159.7060  208.4130  152.3340 C   0  0  0  0  0  1  0  0  0  0  0  0
  161.5520  206.9810  146.2300 C   0  0  0  0  0  3  0  0  0  0  0  0
  161.5450  206.9080  147.6270 C   0  0  0  0  0  0  0  0  0  0  0  0
  161.0910  207.8920  152.7170 C   0  0  2  0  0  3  0  0  0  0  0  0
  160.9990  203.0260  152.3900 C   0  0  0  0  0  2  0  0  0  0  0  0
  160.8280  201.1770  150.7560 C   0  0  0  0  0  1  0  0  0  0  0  0
  161.7760  202.1480  151.4290 C   0  0  0  0  0  2  0  0  0  0  0  0
  1  5  1  0  0  0  0
  1  4  1  0  0  0  0
  2 16  1  0  0  0  0
  2 19  1  0  0  0  0
  3 17  1  0  0  0  0
  3 10  1  0  0  0  0
  4 12  1  0  0  0  0
  5 11  1  0  0  0  0
  7 15  1  1  0  0  0
  8  6  1  6  0  0  0
  9 14  1  1  0  0  0
  9  7  1  0  0  0  0
 10 22  1  0  0  0  0
 11 28  1  1  0  0  0
 11  8  1  0  0  0  0
 12  8  1  0  0  0  0
 12 27  1  0  0  0  0
 13  2  2  0  0  0  0
 14 23  1  0  0  0  0
 17 20  1  0  0  0  0
 18 13  1  0  0  0  0
 18 25  2  0  0  0  0
 19  1  2  0  0  0  0
 20 22  1  0  0  0  0
 20  4  2  0  0  0  0
 21 10  2  0  0  0  0
 22  9  1  0  0  0  0
 23 15  1  0  0  0  0
 25 26  1  0  0  0  0
 26 19  1  0  0  0  0
 26 17  2  0  0  0  0
 27 24  1  6  0  0  0
 27  7  1  0  0  0  0
 29 30  1  0  0  0  0
 30 28  1  0  0  0  0
M  END
>  <MODEL>
9

>  <REMARK>
 VINA RESULT:      -3.3      1.635      4.873
  Name = 
  2 active torsions:
  status: ('A' for Active; 'I' for Inactive)
    1  A    between atoms: C_11  and  C_28
    2  A    between atoms: C_28  and  C_30
                            x       y       z     vdW  Elec       q    Type
                         _______ _______ _______ _____ _____    ______ ____

>  <TORSDO>
F 2

$$$$
