=
 OpenBabel11122414363D

 34 40  0  0  1  0  0  0  0  0999 V2000
  161.0210  207.5180  154.2850 C   0  0  1  0  0  3  0  0  0  0  0  0
  161.3720  205.2060  153.2180 C   0  0  0  0  0  2  0  0  0  0  0  0
  158.3760  213.3840  153.5220 C   0  0  0  0  0  0  0  0  0  0  0  0
  160.5680  209.8260  155.1130 C   0  0  2  0  0  3  0  0  0  0  0  0
  160.1840  211.6710  153.2950 C   0  0  0  0  0  0  0  0  0  0  0  0
  159.6170  213.2500  151.3420 C   0  0  0  0  0  1  0  0  0  0  0  0
  157.2920  213.3860  152.8780 O   0  0  0  0  0  0  0  0  0  0  0  0
  159.5460  213.5220  155.6610 C   0  0  0  0  0  2  0  0  0  0  0  0
  161.7540  207.1740  151.9790 C   0  0  2  0  0  3  0  0  0  0  0  0
  161.2310  207.2120  148.8080 C   0  0  0  0  0  3  0  0  0  0  0  0
  160.6750  210.8320  152.3650 C   0  0  0  0  0  3  0  0  0  0  0  0
  159.9260  212.0790  155.7710 C   0  0  0  0  0  3  0  0  0  0  0  0
  161.2320  208.5350  151.5060 C   0  0  1  0  0  3  0  0  0  0  0  0
  161.7130  204.7780  151.7930 C   0  0  0  0  0  2  0  0  0  0  0  0
  160.1860  211.2480  154.7470 C   0  0  0  0  0  0  0  0  0  0  0  0
  158.3630  213.6570  154.8870 O   0  0  0  0  0  0  0  0  0  0  0  0
  160.8500  206.1830  149.8460 C   0  0  2  0  0  3  0  0  0  0  0  0
  160.5040  208.9070  153.8930 C   0  0  1  0  0  3  0  0  0  0  0  0
  159.6750  213.0340  152.8550 C   0  0  1  0  0  3  0  0  0  0  0  0
  161.2740  209.5000  152.7070 C   0  0  2  0  0  3  0  0  0  0  0  0
  160.2830  208.1070  156.5790 C   0  0  0  0  0  2  0  0  0  0  0  0
  161.7320  208.4410  149.0350 C   0  0  0  0  0  3  0  0  0  0  0  0
  159.7120  209.3110  156.1110 O   0  0  0  0  0  0  0  0  0  0  0  0
  162.1160  209.0270  150.3700 C   0  0  0  0  0  2  0  0  0  0  0  0
  161.9020  206.0540  150.9590 C   0  0  1  0  0  3  0  0  0  0  0  0
  160.2290  207.0250  155.4910 C   0  0  0  0  0  2  0  0  0  0  0  0
  160.8720  206.6200  153.0660 C   0  0  2  0  0  3  0  0  0  0  0  0
  160.6280  204.9040  149.1830 N   0  0  0  0  0  2  0  0  0  0  0  0
  161.0160  205.0710  147.7920 C   0  0  0  0  0  2  0  0  0  0  0  0
  160.4180  201.9850  147.5090 N   0  0  0  0  0  2  0  0  0  0  0  0
  161.4950  203.5240  145.6100 S   0  0  0  0  0  0  0  0  0  0  0  0
  161.8720  203.8990  147.3430 C   0  0  2  0  0  3  0  0  0  0  0  0
  160.7440  201.9420  146.0940 C   0  0  0  0  0  2  0  0  0  0  0  0
  161.5330  202.6620  148.1490 C   0  0  0  0  0  2  0  0  0  0  0  0
  1 26  1  1  0  0  0
  3 16  1  0  0  0  0
  4 15  1  6  0  0  0
  4 23  1  0  0  0  0
  5 15  1  0  0  0  0
  6 19  1  0  0  0  0
  7  3  2  0  0  0  0
  8 12  1  0  0  0  0
  9 27  1  0  0  0  0
 10 22  2  0  0  0  0
 10 17  1  0  0  0  0
 11 20  1  0  0  0  0
 11  5  2  0  0  0  0
 13  9  1  0  0  0  0
 13 20  1  0  0  0  0
 14  2  1  0  0  0  0
 15 12  2  0  0  0  0
 16  8  1  0  0  0  0
 17 25  1  0  0  0  0
 18  1  1  0  0  0  0
 18  4  1  0  0  0  0
 19  5  1  0  0  0  0
 19  3  1  0  0  0  0
 20 18  1  0  0  0  0
 22 24  1  0  0  0  0
 23 21  1  0  0  0  0
 24 13  1  0  0  0  0
 25 14  1  0  0  0  0
 25  9  1  0  0  0  0
 26 21  1  0  0  0  0
 27  2  1  0  0  0  0
 27  1  1  0  0  0  0
 28 17  1  0  0  0  0
 29 28  1  0  0  0  0
 30 34  1  0  0  0  0
 31 33  1  0  0  0  0
 31 32  1  0  0  0  0
 32 29  1  0  0  0  0
 32 34  1  0  0  0  0
 33 30  1  0  0  0  0
M  END
>  <MODEL>
1

>  <REMARK>
 VINA RESULT:     -10.7      0.000      0.000
  Name = 
  3 active torsions:
  status: ('A' for Active; 'I' for Inactive)
    1  A    between atoms: C_17  and  N_28
    2  A    between atoms: N_28  and  C_29
    3  A    between atoms: C_29  and  C_32
                            x       y       z     vdW  Elec       q    Type
                         _______ _______ _______ _____ _____    ______ ____

>  <TORSDO>
F 3

$$$$
=
 OpenBabel11122414363D

 34 40  0  0  1  0  0  0  0  0999 V2000
  161.0020  207.7440  154.3410 C   0  0  1  0  0  3  0  0  0  0  0  0
  161.5920  205.6160  153.0250 C   0  0  0  0  0  2  0  0  0  0  0  0
  157.9250  213.4420  154.1390 C   0  0  0  0  0  0  0  0  0  0  0  0
  160.3220  209.8900  155.4130 C   0  0  2  0  0  3  0  0  0  0  0  0
  159.8760  211.9120  153.8120 C   0  0  0  0  0  0  0  0  0  0  0  0
  159.2760  213.6760  152.0340 C   0  0  0  0  0  1  0  0  0  0  0  0
  156.8760  213.4430  153.4380 O   0  0  0  0  0  0  0  0  0  0  0  0
  158.9760  213.4010  156.3430 C   0  0  0  0  0  2  0  0  0  0  0  0
  161.8700  207.7460  152.0560 C   0  0  2  0  0  3  0  0  0  0  0  0
  161.4990  208.1400  148.8880 C   0  0  0  0  0  3  0  0  0  0  0  0
  160.4770  211.2360  152.8180 C   0  0  0  0  0  3  0  0  0  0  0  0
  159.4670  211.9880  156.3000 C   0  0  0  0  0  3  0  0  0  0  0  0
  161.2620  209.1120  151.7210 C   0  0  1  0  0  3  0  0  0  0  0  0
  162.0340  205.3960  151.5800 C   0  0  0  0  0  2  0  0  0  0  0  0
  159.8430  211.3130  155.2000 C   0  0  0  0  0  0  0  0  0  0  0  0
  157.8240  213.5420  155.5240 O   0  0  0  0  0  0  0  0  0  0  0  0
  161.1530  206.9630  149.7700 C   0  0  2  0  0  3  0  0  0  0  0  0
  160.3920  209.1270  154.0900 C   0  0  1  0  0  3  0  0  0  0  0  0
  159.2790  213.2780  153.5110 C   0  0  1  0  0  3  0  0  0  0  0  0
  161.1660  209.9200  153.0310 C   0  0  2  0  0  3  0  0  0  0  0  0
  160.1090  207.9850  156.6420 C   0  0  0  0  0  2  0  0  0  0  0  0
  161.8860  209.3650  149.2900 C   0  0  0  0  0  3  0  0  0  0  0  0
  159.4640  209.1910  156.2910 O   0  0  0  0  0  0  0  0  0  0  0  0
  162.1560  209.8070  150.7050 C   0  0  0  0  0  2  0  0  0  0  0  0
  162.1580  206.7760  150.9180 C   0  0  1  0  0  3  0  0  0  0  0  0
  160.1950  207.0460  155.4310 C   0  0  0  0  0  2  0  0  0  0  0  0
  160.9850  206.9960  153.0150 C   0  0  2  0  0  3  0  0  0  0  0  0
  161.0690  205.7640  148.9470 N   0  0  0  0  0  2  0  0  0  0  0  0
  160.4730  206.1580  147.6800 C   0  0  0  0  0  2  0  0  0  0  0  0
  162.6410  205.8130  145.4120 N   0  0  0  0  0  2  0  0  0  0  0  0
  161.9980  203.9570  147.2220 S   0  0  0  0  0  0  0  0  0  0  0  0
  160.7010  205.0780  146.6360 C   0  0  2  0  0  3  0  0  0  0  0  0
  163.1180  204.5370  145.9140 C   0  0  0  0  0  2  0  0  0  0  0  0
  161.1950  205.6930  145.3420 C   0  0  0  0  0  2  0  0  0  0  0  0
  1 26  1  1  0  0  0
  3 16  1  0  0  0  0
  4 15  1  6  0  0  0
  4 23  1  0  0  0  0
  5 15  1  0  0  0  0
  6 19  1  0  0  0  0
  7  3  2  0  0  0  0
  9 27  1  0  0  0  0
 10 22  2  0  0  0  0
 10 17  1  0  0  0  0
 11 20  1  0  0  0  0
 11  5  2  0  0  0  0
 12  8  1  0  0  0  0
 13  9  1  0  0  0  0
 13 20  1  0  0  0  0
 14  2  1  0  0  0  0
 15 12  2  0  0  0  0
 16  8  1  0  0  0  0
 17 25  1  0  0  0  0
 18  1  1  0  0  0  0
 18  4  1  0  0  0  0
 19  5  1  0  0  0  0
 19  3  1  0  0  0  0
 20 18  1  0  0  0  0
 22 24  1  0  0  0  0
 23 21  1  0  0  0  0
 24 13  1  0  0  0  0
 25 14  1  0  0  0  0
 25  9  1  0  0  0  0
 26 21  1  0  0  0  0
 27  2  1  0  0  0  0
 27  1  1  0  0  0  0
 28 17  1  0  0  0  0
 29 28  1  0  0  0  0
 30 33  1  0  0  0  0
 32 31  1  0  0  0  0
 32 29  1  0  0  0  0
 33 31  1  0  0  0  0
 34 30  1  0  0  0  0
 34 32  1  0  0  0  0
M  END
>  <MODEL>
2

>  <REMARK>
 VINA RESULT:      -9.6      1.280      1.479
  Name = 
  3 active torsions:
  status: ('A' for Active; 'I' for Inactive)
    1  A    between atoms: C_17  and  N_28
    2  A    between atoms: N_28  and  C_29
    3  A    between atoms: C_29  and  C_32
                            x       y       z     vdW  Elec       q    Type
                         _______ _______ _______ _____ _____    ______ ____

>  <TORSDO>
F 3

$$$$
=
 OpenBabel11122414363D

 34 40  0  0  1  0  0  0  0  0999 V2000
  161.9430  207.3130  148.9160 C   0  0  1  0  0  3  0  0  0  0  0  0
  161.9020  209.6400  150.0070 C   0  0  0  0  0  2  0  0  0  0  0  0
  159.4630  201.3280  149.0540 C   0  0  0  0  0  0  0  0  0  0  0  0
  161.8230  204.9850  148.0300 C   0  0  2  0  0  3  0  0  0  0  0  0
  161.0720  203.1260  149.7130 C   0  0  0  0  0  0  0  0  0  0  0  0
  160.0990  201.5230  151.4770 C   0  0  0  0  0  1  0  0  0  0  0  0
  158.2520  201.2750  149.4010 O   0  0  0  0  0  0  0  0  0  0  0  0
  161.1470  201.2450  147.2870 C   0  0  0  0  0  2  0  0  0  0  0  0
  162.0450  207.6940  151.3280 C   0  0  2  0  0  3  0  0  0  0  0  0
  160.7320  207.6330  154.2610 C   0  0  0  0  0  3  0  0  0  0  0  0
  161.2700  203.9880  150.7260 C   0  0  0  0  0  3  0  0  0  0  0  0
  161.4750  202.7040  147.2590 C   0  0  0  0  0  3  0  0  0  0  0  0
  161.4830  206.3100  151.6700 C   0  0  1  0  0  3  0  0  0  0  0  0
  161.8470  210.0850  151.4670 C   0  0  0  0  0  2  0  0  0  0  0  0
  161.4260  203.5480  148.3050 C   0  0  0  0  0  0  0  0  0  0  0  0
  159.8120  201.0540  147.7350 O   0  0  0  0  0  0  0  0  0  0  0  0
  160.5810  208.6420  153.1470 C   0  0  2  0  0  3  0  0  0  0  0  0
  161.4070  205.9020  149.1810 C   0  0  1  0  0  3  0  0  0  0  0  0
  160.5310  201.7400  150.0270 C   0  0  1  0  0  3  0  0  0  0  0  0
  161.8740  205.3470  150.5310 C   0  0  2  0  0  3  0  0  0  0  0  0
  161.8430  206.6880  146.5180 C   0  0  0  0  0  2  0  0  0  0  0  0
  161.3300  206.4290  154.1850 C   0  0  0  0  0  3  0  0  0  0  0  0
  161.2280  205.4580  146.8400 O   0  0  0  0  0  0  0  0  0  0  0  0
  162.0680  205.8620  153.0000 C   0  0  0  0  0  2  0  0  0  0  0  0
  161.8750  208.8210  152.3380 C   0  0  1  0  0  3  0  0  0  0  0  0
  161.4630  207.7670  147.5410 C   0  0  0  0  0  2  0  0  0  0  0  0
  161.4450  208.2040  150.0450 C   0  0  2  0  0  3  0  0  0  0  0  0
  160.1380  209.9090  153.7140 N   0  0  0  0  0  2  0  0  0  0  0  0
  160.1040  209.7410  155.1580 C   0  0  0  0  0  2  0  0  0  0  0  0
  160.0810  212.7950  155.9600 N   0  0  0  0  0  2  0  0  0  0  0  0
  158.2440  211.5880  154.4410 S   0  0  0  0  0  0  0  0  0  0  0  0
  159.0340  210.6340  155.7640 C   0  0  2  0  0  3  0  0  0  0  0  0
  158.9640  213.1240  155.0920 C   0  0  0  0  0  2  0  0  0  0  0  0
  159.6590  211.6300  156.7190 C   0  0  0  0  0  2  0  0  0  0  0  0
  1 26  1  6  0  0  0
  1 18  1  0  0  0  0
  1 27  1  0  0  0  0
  2 27  1  0  0  0  0
  2 14  1  0  0  0  0
  3  7  2  0  0  0  0
  3 19  1  0  0  0  0
  4 23  1  6  0  0  0
  4 15  1  0  0  0  0
  4 18  1  0  0  0  0
  5 19  1  0  0  0  0
  5 11  2  0  0  0  0
  8 16  1  0  0  0  0
  9 13  1  0  0  0  0
  9 25  1  0  0  0  0
 12  8  1  0  0  0  0
 12 15  2  0  0  0  0
 13 24  1  0  0  0  0
 14 25  1  0  0  0  0
 15  5  1  0  0  0  0
 16  3  1  0  0  0  0
 17 28  1  0  0  0  0
 17 10  1  0  0  0  0
 18 20  1  0  0  0  0
 19  6  1  0  0  0  0
 20 11  1  0  0  0  0
 20 13  1  0  0  0  0
 21 23  1  0  0  0  0
 21 26  1  0  0  0  0
 22 10  2  0  0  0  0
 24 22  1  0  0  0  0
 25 17  1  0  0  0  0
 27  9  1  0  0  0  0
 28 29  1  0  0  0  0
 29 32  1  0  0  0  0
 30 34  1  0  0  0  0
 31 33  1  0  0  0  0
 31 32  1  0  0  0  0
 32 34  1  0  0  0  0
 33 30  1  0  0  0  0
M  END
>  <MODEL>
3

>  <REMARK>
 VINA RESULT:      -7.9      4.600      9.404
  Name = 
  3 active torsions:
  status: ('A' for Active; 'I' for Inactive)
    1  A    between atoms: C_17  and  N_28
    2  A    between atoms: N_28  and  C_29
    3  A    between atoms: C_29  and  C_32
                            x       y       z     vdW  Elec       q    Type
                         _______ _______ _______ _____ _____    ______ ____

>  <TORSDO>
F 3

$$$$
