=
 OpenBabel11122413373D

 37 43  0  0  1  0  0  0  0  0999 V2000
  160.7500  211.8680  149.5250 C   0  0  0  0  0  2  0  0  0  0  0  0
  158.9820  213.5320  153.0070 C   0  0  0  0  0  0  0  0  0  0  0  0
  158.2190  214.0110  148.9530 C   0  0  0  0  0  0  0  0  0  0  0  0
  161.6520  210.6730  149.8420 C   0  0  2  0  0  3  0  0  0  0  0  0
  161.1950  214.4530  146.7380 C   0  0  0  0  0  2  0  0  0  0  0  0
  157.2640  213.6990  151.1470 C   0  0  0  0  0  0  0  0  0  0  0  0
  159.5380  214.4530  148.3630 C   0  0  2  0  0  3  0  0  0  0  0  0
  162.7290  211.2180  147.5430 C   0  0  2  0  0  3  0  0  0  0  0  0
  158.3000  214.0750  150.3090 C   0  0  0  0  0  0  0  0  0  0  0  0
  160.0280  213.6910  147.1910 N   0  0  1  0  0  0  0  0  0  0  0  0
  156.0430  213.3260  150.5640 C   0  0  0  0  0  3  0  0  0  0  0  0
  162.8700  210.5330  148.9080 C   0  0  0  0  0  2  0  0  0  0  0  0
  159.5840  214.4030  150.7630 N   0  0  0  0  0  0  0  0  0  0  0  0
  159.3750  212.0790  152.7970 C   0  0  0  0  0  1  0  0  0  0  0  0
  156.9220  213.5750  146.8630 C   0  0  0  0  0  2  0  0  0  0  0  0
  155.9190  213.3040  149.1580 C   0  0  0  0  0  3  0  0  0  0  0  0
  159.9200  214.4460  152.1860 C   0  0  0  0  0  2  0  0  0  0  0  0
  162.8890  212.7480  147.6170 C   0  0  1  0  0  3  0  0  0  0  0  0
  162.3620  213.5300  146.4110 C   0  0  0  0  0  2  0  0  0  0  0  0
  157.0150  213.6480  148.3420 C   0  0  0  0  0  0  0  0  0  0  0  0
  160.4950  214.4300  149.6210 C   0  0  1  0  0  3  0  0  0  0  0  0
  157.4930  213.7320  152.6320 C   0  0  0  0  0  2  0  0  0  0  0  0
  159.0120  213.7070  146.1070 C   0  0  2  0  0  3  0  0  0  0  0  0
  159.1560  213.8620  154.4740 C   0  0  0  0  0  1  0  0  0  0  0  0
  162.7760  213.4260  148.9930 C   0  0  0  0  0  2  0  0  0  0  0  0
  161.5370  210.8420  146.9150 O   0  0  0  0  0  1  0  0  0  0  0  0
  161.4420  213.2210  149.7240 C   0  0  2  0  0  3  0  0  0  0  0  0
  157.9830  212.8000  146.3910 O   0  0  0  0  0  0  0  0  0  0  0  0
  159.9390  214.3720  143.8450 C   0  0  0  0  0  3  0  0  0  0  0  0
  159.5690  213.3650  144.7490 C   0  0  0  0  0  0  0  0  0  0  0  0
  159.7140  212.0220  144.3850 C   0  0  0  0  0  3  0  0  0  0  0  0
  160.3580  210.3830  142.7790 F   0  0  0  0  0  0  0  0  0  0  0  0
  160.5850  212.6900  142.2280 C   0  0  0  0  0  3  0  0  0  0  0  0
  160.2200  211.6840  143.1270 C   0  0  0  0  0  0  0  0  0  0  0  0
  160.4440  214.0350  142.5870 C   0  0  0  0  0  3  0  0  0  0  0  0
  161.7260  208.5170  150.3320 C   0  0  0  0  0  1  0  0  0  0  0  0
  160.8950  209.5020  149.7930 O   0  0  0  0  0  0  0  0  0  0  0  0
  1 27  1  0  0  0  0
  1  4  1  0  0  0  0
  2 24  1  0  0  0  0
  3  9  1  0  0  0  0
  4 37  1  6  0  0  0
  6 22  1  0  0  0  0
  7  3  1  1  0  0  0
  7 21  1  0  0  0  0
  8 26  1  1  0  0  0
  8 18  1  0  0  0  0
  8 12  1  0  0  0  0
  9 13  1  0  0  0  0
  9  6  2  0  0  0  0
 10  5  1  6  0  0  0
 10  7  1  0  0  0  0
 11  6  1  0  0  0  0
 12  4  1  0  0  0  0
 13 17  1  0  0  0  0
 14  2  1  0  0  0  0
 15 20  1  0  0  0  0
 16 11  2  0  0  0  0
 17  2  1  0  0  0  0
 18 19  1  6  0  0  0
 18 25  1  0  0  0  0
 19  5  1  0  0  0  0
 20  3  2  0  0  0  0
 20 16  1  0  0  0  0
 21 27  1  0  0  0  0
 21 13  1  1  0  0  0
 22  2  1  0  0  0  0
 23 30  1  6  0  0  0
 23 28  1  0  0  0  0
 23 10  1  0  0  0  0
 27 25  1  6  0  0  0
 28 15  1  0  0  0  0
 29 30  1  0  0  0  0
 31 30  2  0  0  0  0
 32 34  1  0  0  0  0
 33 35  1  0  0  0  0
 33 34  2  0  0  0  0
 34 31  1  0  0  0  0
 35 29  2  0  0  0  0
 37 36  1  0  0  0  0
M  END
>  <MODEL>
1

>  <REMARK>
 VINA RESULT:       3.1      0.000      0.000
  Name = 
  2 active torsions:
  status: ('A' for Active; 'I' for Inactive)
    1  A    between atoms: C_4  and  O_37
    2  A    between atoms: C_23  and  C_30
                            x       y       z     vdW  Elec       q    Type
                         _______ _______ _______ _____ _____    ______ ____

>  <TORSDO>
F 2

$$$$
=
 OpenBabel11122413373D

 37 43  0  0  1  0  0  0  0  0999 V2000
  160.8670  209.3060  151.6360 C   0  0  0  0  0  2  0  0  0  0  0  0
  160.7260  209.2830  155.8780 C   0  0  0  0  0  0  0  0  0  0  0  0
  159.2780  211.9280  153.0230 C   0  0  0  0  0  0  0  0  0  0  0  0
  161.2970  207.9560  151.0580 C   0  0  2  0  0  3  0  0  0  0  0  0
  161.5940  212.7870  150.2210 C   0  0  0  0  0  2  0  0  0  0  0  0
  158.8170  210.7500  155.0780 C   0  0  0  0  0  0  0  0  0  0  0  0
  160.4890  212.3120  152.2050 C   0  0  2  0  0  3  0  0  0  0  0  0
  161.9310  209.3560  148.9640 C   0  0  2  0  0  3  0  0  0  0  0  0
  159.6910  211.2670  154.1380 C   0  0  0  0  0  0  0  0  0  0  0  0
  160.3670  212.1750  150.7360 N   0  0  1  0  0  0  0  0  0  0  0  0
  157.4460  211.0050  154.9180 C   0  0  0  0  0  3  0  0  0  0  0  0
  162.1160  208.0550  149.7570 C   0  0  0  0  0  2  0  0  0  0  0  0
  161.0720  211.0280  154.1490 N   0  0  0  0  0  0  0  0  0  0  0  0
  160.4790  208.0990  154.9570 C   0  0  0  0  0  1  0  0  0  0  0  0
  157.4640  212.9220  151.6230 C   0  0  0  0  0  2  0  0  0  0  0  0
  156.9990  211.7350  153.7960 C   0  0  0  0  0  3  0  0  0  0  0  0
  161.7210  210.2590  155.2100 C   0  0  0  0  0  2  0  0  0  0  0  0
  162.6710  210.5530  149.5900 C   0  0  1  0  0  3  0  0  0  0  0  0
  162.2140  211.9350  149.1190 C   0  0  0  0  0  2  0  0  0  0  0  0
  157.9200  212.2020  152.8370 C   0  0  0  0  0  0  0  0  0  0  0  0
  161.6310  211.4390  152.8630 C   0  0  1  0  0  3  0  0  0  0  0  0
  159.3810  209.9640  156.2290 C   0  0  0  0  0  2  0  0  0  0  0  0
  159.2090  212.9660  150.2420 C   0  0  2  0  0  3  0  0  0  0  0  0
  161.3500  208.7650  157.1560 C   0  0  0  0  0  1  0  0  0  0  0  0
  163.1470  210.4330  151.0480 C   0  0  0  0  0  2  0  0  0  0  0  0
  160.5750  209.6250  148.7550 O   0  0  0  0  0  1  0  0  0  0  0  0
  162.0460  210.1770  152.0850 C   0  0  2  0  0  3  0  0  0  0  0  0
  158.0100  212.2900  150.5040 O   0  0  0  0  0  0  0  0  0  0  0  0
  160.1740  214.1890  148.2430 C   0  0  0  0  0  3  0  0  0  0  0  0
  159.2620  213.2590  148.7640 C   0  0  0  0  0  0  0  0  0  0  0  0
  158.3820  212.5960  147.9010 C   0  0  0  0  0  3  0  0  0  0  0  0
  157.5560  212.2160  145.6980 F   0  0  0  0  0  0  0  0  0  0  0  0
  159.3180  213.7890  146.0140 C   0  0  0  0  0  3  0  0  0  0  0  0
  158.4090  212.8600  146.5290 C   0  0  0  0  0  0  0  0  0  0  0  0
  160.2010  214.4530  146.8720 C   0  0  0  0  0  3  0  0  0  0  0  0
  160.6210  206.0900  150.0780 C   0  0  0  0  0  1  0  0  0  0  0  0
  160.1640  207.1730  150.8320 O   0  0  0  0  0  0  0  0  0  0  0  0
  1 27  1  0  0  0  0
  2 22  1  0  0  0  0
  2 24  1  0  0  0  0
  3  9  1  0  0  0  0
  4 37  1  6  0  0  0
  4  1  1  0  0  0  0
  6 22  1  0  0  0  0
  7 21  1  0  0  0  0
  7  3  1  1  0  0  0
  8 26  1  1  0  0  0
  8 18  1  0  0  0  0
  8 12  1  0  0  0  0
  9 13  1  0  0  0  0
  9  6  2  0  0  0  0
 10  5  1  6  0  0  0
 10  7  1  0  0  0  0
 11  6  1  0  0  0  0
 12  4  1  0  0  0  0
 13 17  1  0  0  0  0
 14  2  1  0  0  0  0
 15 20  1  0  0  0  0
 16 11  2  0  0  0  0
 17  2  1  0  0  0  0
 18 19  1  1  0  0  0
 18 25  1  0  0  0  0
 19  5  1  0  0  0  0
 20  3  2  0  0  0  0
 20 16  1  0  0  0  0
 21 13  1  1  0  0  0
 23 30  1  6  0  0  0
 23 28  1  0  0  0  0
 23 10  1  0  0  0  0
 27 25  1  6  0  0  0
 27 21  1  0  0  0  0
 28 15  1  0  0  0  0
 29 30  1  0  0  0  0
 31 30  2  0  0  0  0
 32 34  1  0  0  0  0
 33 34  2  0  0  0  0
 33 35  1  0  0  0  0
 34 31  1  0  0  0  0
 35 29  2  0  0  0  0
 36 37  1  0  0  0  0
M  END
>  <MODEL>
2

>  <REMARK>
 VINA RESULT:       3.3      2.611      4.269
  Name = 
  2 active torsions:
  status: ('A' for Active; 'I' for Inactive)
    1  A    between atoms: C_4  and  O_37
    2  A    between atoms: C_23  and  C_30
                            x       y       z     vdW  Elec       q    Type
                         _______ _______ _______ _____ _____    ______ ____

>  <TORSDO>
F 2

$$$$
=
 OpenBabel11122413373D

 37 43  0  0  1  0  0  0  0  0999 V2000
  158.8290  212.7050  150.4600 C   0  0  0  0  0  2  0  0  0  0  0  0
  161.3070  213.4650  147.0990 C   0  0  0  0  0  0  0  0  0  0  0  0
  161.6210  210.8340  150.2960 C   0  0  0  0  0  0  0  0  0  0  0  0
  157.4400  213.3300  150.3160 C   0  0  2  0  0  3  0  0  0  0  0  0
  160.8460  212.2200  153.6770 C   0  0  0  0  0  2  0  0  0  0  0  0
  161.8530  211.1240  147.9110 C   0  0  0  0  0  0  0  0  0  0  0  0
  161.5460  211.7110  151.5240 C   0  0  2  0  0  3  0  0  0  0  0  0
  157.3780  213.1390  152.9040 C   0  0  2  0  0  3  0  0  0  0  0  0
  161.7840  211.6240  149.2010 C   0  0  0  0  0  0  0  0  0  0  0  0
  160.5570  211.3220  152.5560 N   0  0  1  0  0  0  0  0  0  0  0  0
  161.8490  209.7310  147.7400 C   0  0  0  0  0  3  0  0  0  0  0  0
  156.8180  213.8070  151.6420 C   0  0  0  0  0  2  0  0  0  0  0  0
  161.7130  212.9910  149.4990 N   0  0  0  0  0  0  0  0  0  0  0  0
  159.7920  213.3370  147.0970 C   0  0  0  0  0  1  0  0  0  0  0  0
  161.4400  208.5760  151.3500 C   0  0  0  0  0  2  0  0  0  0  0  0
  161.7350  208.8900  148.8680 C   0  0  0  0  0  3  0  0  0  0  0  0
  161.7770  214.0200  148.4620 C   0  0  0  0  0  2  0  0  0  0  0  0
  158.7690  213.6680  153.3000 C   0  0  1  0  0  3  0  0  0  0  0  0
  159.5620  212.7890  154.2700 C   0  0  0  0  0  2  0  0  0  0  0  0
  161.6190  209.4430  150.1590 C   0  0  0  0  0  0  0  0  0  0  0  0
  161.3290  213.1470  150.9010 C   0  0  1  0  0  3  0  0  0  0  0  0
  161.9490  212.0960  146.7680 C   0  0  0  0  0  2  0  0  0  0  0  0
  160.8040  209.9260  153.0020 C   0  0  2  0  0  3  0  0  0  0  0  0
  161.6980  214.4520  146.0200 C   0  0  0  0  0  1  0  0  0  0  0  0
  159.5740  214.4530  152.2500 C   0  0  0  0  0  2  0  0  0  0  0  0
  157.3580  211.7460  152.7840 O   0  0  0  0  0  1  0  0  0  0  0  0
  159.8900  213.6930  150.9550 C   0  0  2  0  0  3  0  0  0  0  0  0
  160.3180  209.0180  152.0530 O   0  0  0  0  0  0  0  0  0  0  0  0
  159.1630  210.4050  154.8720 C   0  0  0  0  0  3  0  0  0  0  0  0
  160.1700  209.5930  154.3290 C   0  0  0  0  0  0  0  0  0  0  0  0
  160.5980  208.4600  155.0290 C   0  0  0  0  0  3  0  0  0  0  0  0
  160.4460  207.0420  156.9390 F   0  0  0  0  0  0  0  0  0  0  0  0
  159.0260  208.9520  156.8040 C   0  0  0  0  0  3  0  0  0  0  0  0
  160.0280  208.1400  156.2650 C   0  0  0  0  0  0  0  0  0  0  0  0
  158.5930  210.0850  156.1070 C   0  0  0  0  0  3  0  0  0  0  0  0
  156.6890  212.6700  148.3410 C   0  0  0  0  0  1  0  0  0  0  0  0
  156.5840  212.4090  149.7090 O   0  0  0  0  0  0  0  0  0  0  0  0
  2 17  1  0  0  0  0
  4 37  1  1  0  0  0
  4  1  1  0  0  0  0
  4 12  1  0  0  0  0
  5 19  1  0  0  0  0
  6  9  1  0  0  0  0
  7  3  1  6  0  0  0
  7 10  1  0  0  0  0
  8 26  1  6  0  0  0
  8 18  1  0  0  0  0
  9 13  1  0  0  0  0
  9  3  2  0  0  0  0
 10 23  1  0  0  0  0
 10  5  1  1  0  0  0
 11  6  2  0  0  0  0
 11 16  1  0  0  0  0
 12  8  1  0  0  0  0
 14  2  1  0  0  0  0
 15 28  1  0  0  0  0
 16 20  2  0  0  0  0
 17 13  1  0  0  0  0
 18 25  1  6  0  0  0
 18 19  1  0  0  0  0
 20  3  1  0  0  0  0
 20 15  1  0  0  0  0
 21 13  1  6  0  0  0
 21 27  1  0  0  0  0
 21  7  1  0  0  0  0
 22  2  1  0  0  0  0
 22  6  1  0  0  0  0
 23 30  1  1  0  0  0
 24  2  1  0  0  0  0
 27  1  1  1  0  0  0
 27 25  1  0  0  0  0
 28 23  1  0  0  0  0
 29 35  1  0  0  0  0
 30 29  2  0  0  0  0
 30 31  1  0  0  0  0
 31 34  2  0  0  0  0
 34 33  1  0  0  0  0
 34 32  1  0  0  0  0
 35 33  2  0  0  0  0
 36 37  1  0  0  0  0
M  END
>  <MODEL>
3

>  <REMARK>
 VINA RESULT:       5.8      3.388      8.020
  Name = 
  2 active torsions:
  status: ('A' for Active; 'I' for Inactive)
    1  A    between atoms: C_4  and  O_37
    2  A    between atoms: C_23  and  C_30
                            x       y       z     vdW  Elec       q    Type
                         _______ _______ _______ _____ _____    ______ ____

>  <TORSDO>
F 2

$$$$
