=
 OpenBabel11122412573D

 32 37  0  0  1  0  0  0  0  0999 V2000
  161.3100  201.2770  149.9940 C   0  0  0  0  0  2  0  0  0  0  0  0
  160.9610  206.5570  151.9550 C   0  0  1  0  0  3  0  0  0  0  0  0
  161.8800  210.1640  148.6380 C   0  0  0  0  0  2  0  0  0  0  0  0
  162.2580  211.0680  149.7770 C   0  0  0  0  0  3  0  0  0  0  0  0
  160.6120  207.3600  154.3780 C   0  0  0  0  0  0  0  0  0  0  0  0
  160.7330  208.3870  155.3090 C   0  0  0  0  0  0  0  0  0  0  0  0
  161.5940  204.1350  151.3180 C   0  0  2  0  0  3  0  0  0  0  0  0
  161.3150  205.9380  149.5360 C   0  0  0  0  0  2  0  0  0  0  0  0
  161.1890  210.4120  156.0150 N   0  0  0  0  0  0  0  0  0  0  0  0
  161.1180  203.5500  148.8840 C   0  0  0  0  0  2  0  0  0  0  0  0
  161.8750  208.7130  149.0300 C   0  0  0  0  0  3  0  0  0  0  0  0
  161.7510  206.8750  150.6780 C   0  0  1  0  0  3  0  0  0  0  0  0
  161.7180  208.3290  150.3050 C   0  0  0  0  0  0  0  0  0  0  0  0
  161.4770  208.9500  152.7130 C   0  0  0  0  0  0  0  0  0  0  0  0
  160.6890  209.6550  157.0210 C   0  0  0  0  0  3  0  0  0  0  0  0
  161.9870  201.9530  151.1880 C   0  0  0  0  0  2  0  0  0  0  0  0
  160.8760  204.5470  150.0140 C   0  0  1  0  0  3  0  0  0  0  0  0
  160.3920  208.3890  156.6150 N   0  0  0  0  0  0  0  0  0  0  0  0
  161.1340  202.8930  151.7740 O   0  0  0  0  0  0  0  0  0  0  0  0
  160.4250  202.2200  149.1740 C   0  0  1  0  0  3  0  0  0  0  0  0
  162.1490  210.6640  151.0420 C   0  0  0  0  0  3  0  0  0  0  0  0
  161.7530  209.3160  151.3510 N   0  0  0  0  0  0  0  0  0  0  0  0
  161.5560  209.9100  153.6880 N   0  0  0  0  0  0  0  0  0  0  0  0
  161.4190  205.1720  152.4400 C   0  0  0  0  0  2  0  0  0  0  0  0
  159.9730  206.0750  154.7980 C   0  0  0  0  0  1  0  0  0  0  0  0
  161.5820  211.8080  156.0800 C   0  0  0  0  0  1  0  0  0  0  0  0
  161.0560  207.6190  153.0450 C   0  0  0  0  0  0  0  0  0  0  0  0
  161.2080  209.6000  154.9560 C   0  0  0  0  0  0  0  0  0  0  0  0
  160.0600  201.5670  147.9250 N   0  0  0  0  0  2  0  0  0  0  0  0
  160.6240  201.9420  146.6660 C   0  0  0  0  0  0  0  0  0  0  0  0
  161.4540  202.8870  146.5890 O   0  0  0  0  0  0  0  0  0  0  0  0
  160.2210  201.2140  145.4360 C   0  0  0  0  0  1  0  0  0  0  0  0
  1 16  1  0  0  0  0
  2 24  1  1  0  0  0
  2 27  1  0  0  0  0
  3 11  1  0  0  0  0
  3  4  1  0  0  0  0
  4 21  2  0  0  0  0
  5 25  1  0  0  0  0
  5  6  1  0  0  0  0
  6 18  1  0  0  0  0
  7 19  1  0  0  0  0
  7 24  1  1  0  0  0
  8 17  1  0  0  0  0
  9 26  1  0  0  0  0
  9 15  1  0  0  0  0
 10 20  1  0  0  0  0
 11 13  2  0  0  0  0
 12  8  1  6  0  0  0
 12  2  1  0  0  0  0
 13 12  1  0  0  0  0
 13 22  1  0  0  0  0
 14 27  1  0  0  0  0
 14 23  2  0  0  0  0
 16 19  1  0  0  0  0
 17 10  1  6  0  0  0
 17  7  1  0  0  0  0
 18 15  2  0  0  0  0
 20 29  1  6  0  0  0
 20  1  1  0  0  0  0
 21 22  1  0  0  0  0
 22 14  1  0  0  0  0
 23 28  1  0  0  0  0
 27  5  2  0  0  0  0
 28  6  2  0  0  0  0
 28  9  1  0  0  0  0
 30 29  1  0  0  0  0
 31 30  2  0  0  0  0
 32 30  1  0  0  0  0
M  END
>  <MODEL>
1

>  <REMARK>
 VINA RESULT:      -9.6      0.000      0.000
  Name = 
  1 active torsions:
  status: ('A' for Active; 'I' for Inactive)
    1  A    between atoms: C_20  and  N_29
                            x       y       z     vdW  Elec       q    Type
                         _______ _______ _______ _____ _____    ______ ____

>  <TORSDO>
F 1

$$$$
=
 OpenBabel11122412573D

 32 37  0  0  1  0  0  0  0  0999 V2000
  160.4600  208.0860  156.9830 C   0  0  0  0  0  2  0  0  0  0  0  0
  161.3860  205.8980  151.8630 C   0  0  1  0  0  3  0  0  0  0  0  0
  162.3310  209.1890  148.2400 C   0  0  0  0  0  2  0  0  0  0  0  0
  161.8450  208.1780  147.2410 C   0  0  0  0  0  3  0  0  0  0  0  0
  161.1690  203.4490  151.0910 C   0  0  0  0  0  0  0  0  0  0  0  0
  161.0100  202.5550  150.0360 C   0  0  0  0  0  0  0  0  0  0  0  0
  160.4440  206.7910  154.0970 C   0  0  2  0  0  3  0  0  0  0  0  0
  161.6390  208.3360  152.4560 C   0  0  0  0  0  2  0  0  0  0  0  0
  160.8310  201.9340  147.9410 N   0  0  0  0  0  0  0  0  0  0  0  0
  161.4790  208.9960  154.8450 C   0  0  0  0  0  2  0  0  0  0  0  0
  161.8930  208.8720  149.6430 C   0  0  0  0  0  3  0  0  0  0  0  0
  161.1040  207.3380  151.4120 C   0  0  1  0  0  3  0  0  0  0  0  0
  161.5730  207.6240  150.0150 C   0  0  0  0  0  0  0  0  0  0  0  0
  161.2190  205.2300  149.3950 C   0  0  0  0  0  0  0  0  0  0  0  0
  160.8250  200.8570  148.7630 C   0  0  0  0  0  3  0  0  0  0  0  0
  159.6280  207.1200  156.1370 C   0  0  0  0  0  2  0  0  0  0  0  0
  161.5910  207.8060  153.8960 C   0  0  1  0  0  3  0  0  0  0  0  0
  160.9370  201.2080  150.0740 N   0  0  0  0  0  0  0  0  0  0  0  0
  160.4560  206.2700  155.3970 O   0  0  0  0  0  0  0  0  0  0  0  0
  161.7370  208.5680  156.2880 C   0  0  1  0  0  3  0  0  0  0  0  0
  161.4780  206.9540  147.6230 C   0  0  0  0  0  3  0  0  0  0  0  0
  161.4500  206.5970  149.0160 N   0  0  0  0  0  0  0  0  0  0  0  0
  161.0710  204.2850  148.4140 N   0  0  0  0  0  0  0  0  0  0  0  0
  160.5050  205.6260  153.0940 C   0  0  0  0  0  2  0  0  0  0  0  0
  161.3470  202.9120  152.4740 C   0  0  0  0  0  1  0  0  0  0  0  0
  160.7610  201.9320  146.4910 C   0  0  0  0  0  1  0  0  0  0  0  0
  161.2110  204.8420  150.7760 C   0  0  0  0  0  0  0  0  0  0  0  0
  160.9460  202.9830  148.7580 C   0  0  0  0  0  0  0  0  0  0  0  0
  162.3000  209.6770  157.0430 N   0  0  0  0  0  2  0  0  0  0  0  0
  163.0720  210.7130  156.4300 C   0  0  0  0  0  0  0  0  0  0  0  0
  163.3160  210.6880  155.1940 O   0  0  0  0  0  0  0  0  0  0  0  0
  163.5960  211.8270  157.2600 C   0  0  0  0  0  1  0  0  0  0  0  0
  2 24  1  1  0  0  0
  3 11  1  0  0  0  0
  4 21  2  0  0  0  0
  4  3  1  0  0  0  0
  5 25  1  0  0  0  0
  6 18  1  0  0  0  0
  6  5  2  0  0  0  0
  7 24  1  6  0  0  0
  7 19  1  0  0  0  0
  9 28  1  0  0  0  0
  9 15  1  0  0  0  0
 10 20  1  0  0  0  0
 11 13  2  0  0  0  0
 12  2  1  0  0  0  0
 12  8  1  1  0  0  0
 13 12  1  0  0  0  0
 14 27  2  0  0  0  0
 15 18  2  0  0  0  0
 16  1  1  0  0  0  0
 17  8  1  6  0  0  0
 17  7  1  0  0  0  0
 17 10  1  0  0  0  0
 19 16  1  0  0  0  0
 20  1  1  0  0  0  0
 20 29  1  1  0  0  0
 21 22  1  0  0  0  0
 22 14  1  0  0  0  0
 22 13  1  0  0  0  0
 23 28  2  0  0  0  0
 23 14  1  0  0  0  0
 26  9  1  0  0  0  0
 27  5  1  0  0  0  0
 27  2  1  0  0  0  0
 28  6  1  0  0  0  0
 30 29  1  0  0  0  0
 30 32  1  0  0  0  0
 31 30  2  0  0  0  0
M  END
>  <MODEL>
2

>  <REMARK>
 VINA RESULT:      -8.1      2.401      7.982
  Name = 
  1 active torsions:
  status: ('A' for Active; 'I' for Inactive)
    1  A    between atoms: C_20  and  N_29
                            x       y       z     vdW  Elec       q    Type
                         _______ _______ _______ _____ _____    ______ ____

>  <TORSDO>
F 1

$$$$
=
 OpenBabel11122412573D

 32 37  0  0  1  0  0  0  0  0999 V2000
  162.0870  212.6130  149.0140 C   0  0  0  0  0  2  0  0  0  0  0  0
  161.0820  207.0600  148.9950 C   0  0  1  0  0  3  0  0  0  0  0  0
  160.9150  204.8740  153.4740 C   0  0  0  0  0  2  0  0  0  0  0  0
  161.2750  203.5730  152.8140 C   0  0  0  0  0  3  0  0  0  0  0  0
  160.9200  205.4550  146.9860 C   0  0  0  0  0  0  0  0  0  0  0  0
  160.9810  204.1480  146.5130 C   0  0  0  0  0  0  0  0  0  0  0  0
  162.0400  209.4550  148.8500 C   0  0  2  0  0  3  0  0  0  0  0  0
  161.2190  208.4930  151.0660 C   0  0  0  0  0  2  0  0  0  0  0  0
  161.1650  201.9680  146.6570 N   0  0  0  0  0  0  0  0  0  0  0  0
  161.3580  210.9570  150.7930 C   0  0  0  0  0  2  0  0  0  0  0  0
  161.2150  206.0640  152.6050 C   0  0  0  0  0  3  0  0  0  0  0  0
  161.6310  207.1540  150.4260 C   0  0  1  0  0  3  0  0  0  0  0  0
  161.2960  205.9580  151.2710 C   0  0  0  0  0  0  0  0  0  0  0  0
  161.2680  204.5150  149.2320 C   0  0  0  0  0  0  0  0  0  0  0  0
  160.9410  202.3460  145.3760 C   0  0  0  0  0  3  0  0  0  0  0  0
  162.7870  211.4670  148.2800 C   0  0  0  0  0  2  0  0  0  0  0  0
  161.0960  209.6450  150.0590 C   0  0  1  0  0  3  0  0  0  0  0  0
  160.8200  203.6970  145.2510 N   0  0  0  0  0  0  0  0  0  0  0  0
  161.8670  210.4800  147.9120 O   0  0  0  0  0  0  0  0  0  0  0  0
  160.9510  212.1520  149.9330 C   0  0  1  0  0  3  0  0  0  0  0  0
  161.4060  203.4850  151.4900 C   0  0  0  0  0  3  0  0  0  0  0  0
  161.2950  204.6550  150.6620 N   0  0  0  0  0  0  0  0  0  0  0  0
  161.3060  203.2580  148.6870 N   0  0  0  0  0  0  0  0  0  0  0  0
  161.8350  208.1010  148.1500 C   0  0  0  0  0  2  0  0  0  0  0  0
  160.5760  206.5540  146.0330 C   0  0  0  0  0  1  0  0  0  0  0  0
  161.3130  200.6130  147.1590 C   0  0  0  0  0  1  0  0  0  0  0  0
  161.1330  205.6640  148.3830 C   0  0  0  0  0  0  0  0  0  0  0  0
  161.1870  203.1090  147.3490 C   0  0  0  0  0  0  0  0  0  0  0  0
  160.5460  213.2620  150.7830 N   0  0  0  0  0  2  0  0  0  0  0  0
  159.2830  213.2980  151.4520 C   0  0  0  0  0  0  0  0  0  0  0  0
  158.4510  212.3630  151.3070 O   0  0  0  0  0  0  0  0  0  0  0  0
  158.9470  214.4530  152.3220 C   0  0  0  0  0  1  0  0  0  0  0  0
  1 20  1  0  0  0  0
  2 24  1  6  0  0  0
  2 12  1  0  0  0  0
  4  3  1  0  0  0  0
  5 27  1  0  0  0  0
  6  5  2  0  0  0  0
  6 28  1  0  0  0  0
  7 24  1  6  0  0  0
  7 17  1  0  0  0  0
  9 26  1  0  0  0  0
  9 28  1  0  0  0  0
 11  3  1  0  0  0  0
 12  8  1  1  0  0  0
 12 13  1  0  0  0  0
 13 11  2  0  0  0  0
 14 22  1  0  0  0  0
 15  9  1  0  0  0  0
 16  1  1  0  0  0  0
 17 10  1  1  0  0  0
 17  8  1  0  0  0  0
 18 15  2  0  0  0  0
 18  6  1  0  0  0  0
 19 16  1  0  0  0  0
 19  7  1  0  0  0  0
 20 29  1  1  0  0  0
 20 10  1  0  0  0  0
 21  4  2  0  0  0  0
 22 13  1  0  0  0  0
 22 21  1  0  0  0  0
 23 14  1  0  0  0  0
 25  5  1  0  0  0  0
 27  2  1  0  0  0  0
 27 14  2  0  0  0  0
 28 23  2  0  0  0  0
 29 30  1  0  0  0  0
 30 32  1  0  0  0  0
 31 30  2  0  0  0  0
M  END
>  <MODEL>
3

>  <REMARK>
 VINA RESULT:      -7.6      3.505      9.002
  Name = 
  1 active torsions:
  status: ('A' for Active; 'I' for Inactive)
    1  A    between atoms: C_20  and  N_29
                            x       y       z     vdW  Elec       q    Type
                         _______ _______ _______ _____ _____    ______ ____

>  <TORSDO>
F 1

$$$$
=
 OpenBabel11122412573D

 32 37  0  0  1  0  0  0  0  0999 V2000
  161.9550  210.7760  154.0490 C   0  0  0  0  0  2  0  0  0  0  0  0
  161.0070  206.5940  150.3790 C   0  0  1  0  0  3  0  0  0  0  0  0
  160.3790  202.0660  152.3710 C   0  0  0  0  0  2  0  0  0  0  0  0
  160.8190  201.4680  151.0650 C   0  0  0  0  0  3  0  0  0  0  0  0
  161.0760  206.6580  147.8040 C   0  0  0  0  0  0  0  0  0  0  0  0
  161.1990  205.9550  146.6100 C   0  0  0  0  0  0  0  0  0  0  0  0
  161.9540  208.4620  151.8910 C   0  0  2  0  0  3  0  0  0  0  0  0
  160.9080  206.3600  152.8880 C   0  0  0  0  0  2  0  0  0  0  0  0
  161.3860  204.1810  145.3360 N   0  0  0  0  0  0  0  0  0  0  0  0
  161.0530  208.4150  154.2750 C   0  0  0  0  0  2  0  0  0  0  0  0
  160.7600  203.5150  152.5000 C   0  0  0  0  0  3  0  0  0  0  0  0
  161.3980  205.7170  151.5780 C   0  0  1  0  0  3  0  0  0  0  0  0
  160.9850  204.2820  151.4230 C   0  0  0  0  0  0  0  0  0  0  0  0
  161.1890  204.4800  148.9410 C   0  0  0  0  0  0  0  0  0  0  0  0
  161.2980  205.3040  144.5840 C   0  0  0  0  0  3  0  0  0  0  0  0
  162.7400  210.3230  152.8150 C   0  0  0  0  0  2  0  0  0  0  0  0
  160.8840  207.8940  152.8500 C   0  0  1  0  0  3  0  0  0  0  0  0
  161.1780  206.4260  145.3460 N   0  0  0  0  0  0  0  0  0  0  0  0
  161.8740  209.8590  151.8200 O   0  0  0  0  0  0  0  0  0  0  0  0
  160.7310  209.9060  154.3520 C   0  0  1  0  0  3  0  0  0  0  0  0
  161.0920  202.2390  150.0120 C   0  0  0  0  0  3  0  0  0  0  0  0
  161.0610  203.6720  150.1230 N   0  0  0  0  0  0  0  0  0  0  0  0
  161.2960  203.8630  147.7230 N   0  0  0  0  0  0  0  0  0  0  0  0
  161.8370  207.8850  150.4710 C   0  0  0  0  0  2  0  0  0  0  0  0
  160.8270  208.1310  147.7540 C   0  0  0  0  0  1  0  0  0  0  0  0
  161.4910  202.8120  144.8610 C   0  0  0  0  0  1  0  0  0  0  0  0
  161.1360  205.9120  149.0210 C   0  0  0  0  0  0  0  0  0  0  0  0
  161.3230  204.6110  146.5980 C   0  0  0  0  0  0  0  0  0  0  0  0
  160.2270  210.2390  155.6760 N   0  0  0  0  0  2  0  0  0  0  0  0
  159.1120  211.1090  155.8790 C   0  0  0  0  0  0  0  0  0  0  0  0
  158.5310  211.6490  154.9000 O   0  0  0  0  0  0  0  0  0  0  0  0
  158.6380  211.3850  157.2590 C   0  0  0  0  0  1  0  0  0  0  0  0
  1 20  1  0  0  0  0
  2 24  1  6  0  0  0
  2 12  1  0  0  0  0
  3 11  1  0  0  0  0
  4  3  1  0  0  0  0
  5 27  1  0  0  0  0
  6  5  2  0  0  0  0
  7 24  1  6  0  0  0
  7 17  1  0  0  0  0
  9 28  1  0  0  0  0
 10 20  1  0  0  0  0
 12  8  1  1  0  0  0
 13 12  1  0  0  0  0
 13 11  2  0  0  0  0
 14 27  2  0  0  0  0
 14 22  1  0  0  0  0
 15  9  1  0  0  0  0
 15 18  2  0  0  0  0
 16  1  1  0  0  0  0
 17  8  1  1  0  0  0
 17 10  1  0  0  0  0
 18  6  1  0  0  0  0
 19  7  1  0  0  0  0
 19 16  1  0  0  0  0
 20 29  1  1  0  0  0
 21 22  1  0  0  0  0
 21  4  2  0  0  0  0
 22 13  1  0  0  0  0
 23 14  1  0  0  0  0
 25  5  1  0  0  0  0
 26  9  1  0  0  0  0
 27  2  1  0  0  0  0
 28  6  1  0  0  0  0
 28 23  2  0  0  0  0
 29 30  1  0  0  0  0
 30 32  1  0  0  0  0
 31 30  2  0  0  0  0
M  END
>  <MODEL>
4

>  <REMARK>
 VINA RESULT:      -7.0      2.986      8.927
  Name = 
  1 active torsions:
  status: ('A' for Active; 'I' for Inactive)
    1  A    between atoms: C_20  and  N_29
                            x       y       z     vdW  Elec       q    Type
                         _______ _______ _______ _____ _____    ______ ____

>  <TORSDO>
F 1

$$$$
