=
 OpenBabel11122413113D

 31 35  0  0  1  0  0  0  0  0999 V2000
  161.7280  209.2940  156.4320 C   0  0  0  0  0  0  0  0  0  0  0  0
  161.5920  210.2980  152.7540 C   0  0  2  0  0  3  0  0  0  0  0  0
  161.7370  209.0830  151.8080 C   0  0  1  0  0  3  0  0  0  0  0  0
  161.2130  206.7580  151.1620 C   0  0  0  0  0  0  0  0  0  0  0  0
  161.1800  209.9630  154.1580 C   0  0  0  0  0  0  0  0  0  0  0  0
  160.3290  209.4500  156.8500 C   0  0  0  0  0  3  0  0  0  0  0  0
  160.9280  207.8370  152.1700 C   0  0  0  0  0  2  0  0  0  0  0  0
  159.2680  211.2900  152.4250 C   0  0  2  0  0  3  0  0  0  0  0  0
  162.5980  208.9190  157.2600 O   0  0  0  0  0  0  0  0  0  0  0  0
  161.9670  210.7420  150.1070 O   0  0  0  0  0  0  0  0  0  0  0  0
  161.3550  205.6040  151.5300 O   0  0  0  0  0  0  0  0  0  0  0  0
  159.0020  211.1540  153.9260 C   0  0  0  0  0  2  0  0  0  0  0  0
  160.7740  211.4740  152.1630 C   0  0  2  0  0  3  0  0  0  0  0  0
  162.1110  209.6230  155.0540 C   0  0  0  0  0  3  0  0  0  0  0  0
  161.2310  207.0870  149.6920 C   0  0  0  0  0  2  0  0  0  0  0  0
  159.7000  209.9210  154.4850 C   0  0  2  0  0  3  0  0  0  0  0  0
  159.3930  209.7710  155.9540 C   0  0  0  0  0  3  0  0  0  0  0  0
  161.0550  211.6730  150.6490 C   0  0  0  0  0  2  0  0  0  0  0  0
  161.4180  209.4820  150.3690 C   0  0  1  0  0  3  0  0  0  0  0  0
  161.9540  208.4130  149.4260 C   0  0  0  0  0  2  0  0  0  0  0  0
  158.4610  212.4580  151.8690 C   0  0  0  0  0  2  0  0  0  0  0  0
  159.7030  214.2590  152.7800 O   0  0  0  0  0  0  0  0  0  0  0  0
  158.5980  213.6560  152.7530 C   0  0  0  0  0  0  0  0  0  0  0  0
  156.0290  213.0440  155.7730 N   0  0  0  0  0  0  0  0  0  0  0  0
  157.8880  214.4530  154.9920 C   0  0  0  0  0  2  0  0  0  0  0  0
  155.8340  213.3930  152.1150 O   0  0  0  0  0  1  0  0  0  0  0  0
  155.7270  211.9130  156.6290 C   0  0  0  0  0  1  0  0  0  0  0  0
  157.4620  213.3160  155.9250 C   0  0  0  0  0  2  0  0  0  0  0  0
  156.1210  213.7440  153.4350 C   0  0  2  0  0  3  0  0  0  0  0  0
  157.5350  214.0810  153.6290 N   0  0  0  0  0  0  0  0  0  0  0  0
  155.7500  212.6210  154.3980 C   0  0  0  0  0  2  0  0  0  0  0  0
  1  6  1  0  0  0  0
  1  9  2  0  0  0  0
  2  5  1  1  0  0  0
  3  7  1  1  0  0  0
  3  2  1  0  0  0  0
  4 11  2  0  0  0  0
  4  7  1  0  0  0  0
  5 16  1  0  0  0  0
  5 14  2  0  0  0  0
  8 21  1  1  0  0  0
  8 12  1  0  0  0  0
 10 19  1  0  0  0  0
 10 18  1  0  0  0  0
 13 18  1  6  0  0  0
 13  8  1  0  0  0  0
 13  2  1  0  0  0  0
 14  1  1  0  0  0  0
 15  4  1  0  0  0  0
 16 12  1  1  0  0  0
 16 17  1  0  0  0  0
 17  6  2  0  0  0  0
 19 20  1  6  0  0  0
 19  3  1  0  0  0  0
 20 15  1  0  0  0  0
 21 23  1  0  0  0  0
 23 22  2  0  0  0  0
 23 30  1  0  0  0  0
 24 28  1  0  0  0  0
 24 27  1  0  0  0  0
 25 28  1  0  0  0  0
 29 26  1  6  0  0  0
 29 30  1  0  0  0  0
 29 31  1  0  0  0  0
 30 25  1  0  0  0  0
 31 24  1  0  0  0  0
M  END
>  <MODEL>
1

>  <REMARK>
 VINA RESULT:      -5.0      0.000      0.000
  Name = 
  2 active torsions:
  status: ('A' for Active; 'I' for Inactive)
    1  A    between atoms: C_5  and  C_16
    2  A    between atoms: C_10  and  C_16
                            x       y       z     vdW  Elec       q    Type
                         _______ _______ _______ _____ _____    ______ ____

>  <TORSDO>
F 2

$$$$
=
 OpenBabel11122413113D

 31 35  0  0  1  0  0  0  0  0999 V2000
  162.3000  205.8530  146.8560 C   0  0  0  0  0  0  0  0  0  0  0  0
  162.6300  208.7830  149.2770 C   0  0  2  0  0  3  0  0  0  0  0  0
  162.1790  210.1210  148.6450 C   0  0  1  0  0  3  0  0  0  0  0  0
  160.6160  211.4620  147.2830 C   0  0  0  0  0  0  0  0  0  0  0  0
  162.1180  207.5520  148.5890 C   0  0  0  0  0  0  0  0  0  0  0  0
  161.1430  205.1300  147.3980 C   0  0  0  0  0  3  0  0  0  0  0  0
  160.8800  210.0900  147.8400 C   0  0  0  0  0  2  0  0  0  0  0  0
  161.0470  208.2360  151.1970 C   0  0  2  0  0  3  0  0  0  0  0  0
  162.8950  205.4220  145.8360 O   0  0  0  0  0  0  0  0  0  0  0  0
  163.1540  211.0930  150.5960 O   0  0  0  0  0  0  0  0  0  0  0  0
  160.1990  211.5860  146.1430 O   0  0  0  0  0  0  0  0  0  0  0  0
  160.7590  206.8730  150.5650 C   0  0  0  0  0  2  0  0  0  0  0  0
  162.4600  208.7140  150.8160 C   0  0  2  0  0  3  0  0  0  0  0  0
  162.7830  207.0580  147.5410 C   0  0  0  0  0  3  0  0  0  0  0  0
  160.7780  212.6750  148.1620 C   0  0  0  0  0  2  0  0  0  0  0  0
  160.7960  206.9680  149.0450 C   0  0  2  0  0  3  0  0  0  0  0  0
  160.4630  205.6310  148.4320 C   0  0  0  0  0  3  0  0  0  0  0  0
  162.7930  210.0690  151.4980 C   0  0  0  0  0  2  0  0  0  0  0  0
  162.0770  211.2110  149.7100 C   0  0  1  0  0  3  0  0  0  0  0  0
  162.0390  212.5720  149.0280 C   0  0  0  0  0  2  0  0  0  0  0  0
  160.8840  208.1400  152.7110 C   0  0  0  0  0  2  0  0  0  0  0  0
  159.6930  210.1680  152.4130 O   0  0  0  0  0  0  0  0  0  0  0  0
  160.1750  209.3480  153.2380 C   0  0  0  0  0  0  0  0  0  0  0  0
  161.8760  210.1090  156.7900 N   0  0  0  0  0  0  0  0  0  0  0  0
  160.3590  211.0050  155.0730 C   0  0  0  0  0  2  0  0  0  0  0  0
  160.0160  207.3340  155.2460 O   0  0  0  0  0  1  0  0  0  0  0  0
  163.2460  210.1780  157.2610 C   0  0  0  0  0  1  0  0  0  0  0  0
  161.7610  211.0670  155.6860 C   0  0  0  0  0  2  0  0  0  0  0  0
  160.2640  208.6290  155.7040 C   0  0  2  0  0  3  0  0  0  0  0  0
  160.1070  209.6350  154.6480 N   0  0  0  0  0  0  0  0  0  0  0  0
  161.6690  208.7480  156.2870 C   0  0  0  0  0  2  0  0  0  0  0  0
  1  6  1  0  0  0  0
  1 14  1  0  0  0  0
  2  5  1  6  0  0  0
  2 13  1  0  0  0  0
  3  7  1  1  0  0  0
  3  2  1  0  0  0  0
  3 19  1  0  0  0  0
  4  7  1  0  0  0  0
  4 15  1  0  0  0  0
  5 16  1  0  0  0  0
  6 17  2  0  0  0  0
  8 21  1  1  0  0  0
  9  1  2  0  0  0  0
 10 18  1  0  0  0  0
 11  4  2  0  0  0  0
 12  8  1  0  0  0  0
 13  8  1  0  0  0  0
 13 18  1  1  0  0  0
 14  5  2  0  0  0  0
 15 20  1  0  0  0  0
 16 17  1  6  0  0  0
 16 12  1  0  0  0  0
 19 20  1  6  0  0  0
 19 10  1  0  0  0  0
 21 23  1  0  0  0  0
 22 23  2  0  0  0  0
 23 30  1  0  0  0  0
 24 27  1  0  0  0  0
 25 28  1  0  0  0  0
 28 24  1  0  0  0  0
 29 26  1  6  0  0  0
 29 31  1  0  0  0  0
 30 25  1  0  0  0  0
 30 29  1  0  0  0  0
 31 24  1  0  0  0  0
M  END
>  <MODEL>
2

>  <REMARK>
 VINA RESULT:      -3.3      3.156      6.349
  Name = 
  2 active torsions:
  status: ('A' for Active; 'I' for Inactive)
    1  A    between atoms: C_5  and  C_16
    2  A    between atoms: C_10  and  C_16
                            x       y       z     vdW  Elec       q    Type
                         _______ _______ _______ _____ _____    ______ ____

>  <TORSDO>
F 2

$$$$
=
 OpenBabel11122413113D

 31 35  0  0  1  0  0  0  0  0999 V2000
  162.2530  207.7940  151.0850 C   0  0  0  0  0  0  0  0  0  0  0  0
  160.2100  209.5800  153.7670 C   0  0  2  0  0  3  0  0  0  0  0  0
  161.0720  209.9980  154.9810 C   0  0  1  0  0  3  0  0  0  0  0  0
  163.1310  210.9470  155.9590 C   0  0  0  0  0  0  0  0  0  0  0  0
  160.9790  209.3000  152.5080 C   0  0  0  0  0  0  0  0  0  0  0  0
  162.3360  208.8090  150.0280 C   0  0  0  0  0  3  0  0  0  0  0  0
  162.4270  210.6340  154.6680 C   0  0  0  0  0  2  0  0  0  0  0  0
  159.3450  211.6950  152.6400 C   0  0  2  0  0  3  0  0  0  0  0  0
  162.7910  206.6680  150.9250 O   0  0  0  0  0  0  0  0  0  0  0  0
  158.9690  210.4720  156.0050 O   0  0  0  0  0  0  0  0  0  0  0  0
  164.3280  210.7390  156.0660 O   0  0  0  0  0  0  0  0  0  0  0  0
  159.9420  211.2260  151.3110 C   0  0  0  0  0  2  0  0  0  0  0  0
  158.9770  210.4850  153.5180 C   0  0  2  0  0  3  0  0  0  0  0  0
  161.5000  208.0870  152.3100 C   0  0  0  0  0  3  0  0  0  0  0  0
  162.3780  211.6030  157.0870 C   0  0  0  0  0  2  0  0  0  0  0  0
  161.2290  210.4460  151.5470 C   0  0  2  0  0  3  0  0  0  0  0  0
  161.8350  210.0300  150.2300 C   0  0  0  0  0  3  0  0  0  0  0  0
  158.3140  210.9410  154.8450 C   0  0  0  0  0  2  0  0  0  0  0  0
  160.2870  210.9290  155.9020 C   0  0  1  0  0  3  0  0  0  0  0  0
  160.9820  210.9910  157.2560 C   0  0  0  0  0  2  0  0  0  0  0  0
  158.1280  212.5740  152.3690 C   0  0  0  0  0  2  0  0  0  0  0  0
  159.1760  214.4530  153.3640 O   0  0  0  0  0  0  0  0  0  0  0  0
  158.1270  213.7600  153.2790 C   0  0  0  0  0  0  0  0  0  0  0  0
  155.4970  212.8730  156.1750 N   0  0  0  0  0  0  0  0  0  0  0  0
  157.2610  214.4480  155.4990 C   0  0  0  0  0  2  0  0  0  0  0  0
  155.4240  213.2800  152.5180 O   0  0  0  0  0  1  0  0  0  0  0  0
  155.2560  211.7030  156.9970 C   0  0  0  0  0  1  0  0  0  0  0  0
  156.8940  213.2600  156.3930 C   0  0  0  0  0  2  0  0  0  0  0  0
  155.6250  213.6270  153.8550 C   0  0  2  0  0  3  0  0  0  0  0  0
  156.9970  214.0760  154.1160 N   0  0  0  0  0  0  0  0  0  0  0  0
  155.3110  212.4560  154.7820 C   0  0  0  0  0  2  0  0  0  0  0  0
  1 14  1  0  0  0  0
  2  5  1  6  0  0  0
  2  3  1  0  0  0  0
  3  7  1  6  0  0  0
  3 19  1  0  0  0  0
  4 11  2  0  0  0  0
  4 15  1  0  0  0  0
  6 17  2  0  0  0  0
  6  1  1  0  0  0  0
  7  4  1  0  0  0  0
  8 21  1  6  0  0  0
  8 13  1  0  0  0  0
  9  1  2  0  0  0  0
 12 16  1  0  0  0  0
 12  8  1  0  0  0  0
 13  2  1  0  0  0  0
 13 18  1  1  0  0  0
 14  5  2  0  0  0  0
 15 20  1  0  0  0  0
 16 17  1  6  0  0  0
 16  5  1  0  0  0  0
 18 10  1  0  0  0  0
 19 10  1  0  0  0  0
 19 20  1  1  0  0  0
 21 23  1  0  0  0  0
 23 22  2  0  0  0  0
 23 30  1  0  0  0  0
 24 28  1  0  0  0  0
 24 27  1  0  0  0  0
 25 28  1  0  0  0  0
 29 26  1  6  0  0  0
 29 30  1  0  0  0  0
 29 31  1  0  0  0  0
 30 25  1  0  0  0  0
 31 24  1  0  0  0  0
M  END
>  <MODEL>
3

>  <REMARK>
 VINA RESULT:      -2.6      1.410      4.363
  Name = 
  2 active torsions:
  status: ('A' for Active; 'I' for Inactive)
    1  A    between atoms: C_5  and  C_16
    2  A    between atoms: C_10  and  C_16
                            x       y       z     vdW  Elec       q    Type
                         _______ _______ _______ _____ _____    ______ ____

>  <TORSDO>
F 2

$$$$
