=
 OpenBabel11122414193D

 34 40  0  0  1  0  0  0  0  0999 V2000
  160.6550  208.1440  154.0800 C   0  0  0  0  0  0  0  0  0  0  0  0
  161.4770  205.8210  153.3340 C   0  0  0  0  0  2  0  0  0  0  0  0
  158.1940  214.0260  152.9520 C   0  0  1  0  0  3  0  0  0  0  0  0
  160.2280  210.4640  154.7720 C   0  0  0  0  0  0  0  0  0  0  0  0
  159.9580  212.1060  152.9420 C   0  0  0  0  0  0  0  0  0  0  0  0
  160.1650  214.0760  151.5190 C   0  0  0  0  0  2  0  0  0  0  0  0
  157.0780  213.6710  151.9860 C   0  0  0  0  0  1  0  0  0  0  0  0
  158.8980  213.9630  155.1960 C   0  0  0  0  0  2  0  0  0  0  0  0
  161.7700  207.7120  151.9480 C   0  0  2  0  0  3  0  0  0  0  0  0
  162.2840  207.4760  148.7990 C   0  0  0  0  0  2  0  0  0  0  0  0
  160.3240  211.2070  152.0150 C   0  0  0  0  0  3  0  0  0  0  0  0
  159.8200  212.7830  155.4920 C   0  0  0  0  0  2  0  0  0  0  0  0
  161.0670  208.9070  151.3070 C   0  0  1  0  0  3  0  0  0  0  0  0
  161.9630  205.3000  151.9860 C   0  0  0  0  0  2  0  0  0  0  0  0
  159.9670  211.7370  154.4010 C   0  0  0  0  0  0  0  0  0  0  0  0
  157.8290  213.5720  154.2900 N   0  0  0  0  0  2  0  0  0  0  0  0
  161.5920  206.4660  149.7080 C   0  0  2  0  0  3  0  0  0  0  0  0
  160.5420  209.4490  153.7410 C   0  0  2  0  0  3  0  0  0  0  0  0
  159.4990  213.4360  152.4760 C   0  0  0  0  0  0  0  0  0  0  0  0
  160.7190  209.8750  152.3670 N   0  0  0  0  0  0  0  0  0  0  0  0
  160.1930  208.5870  156.4460 C   0  0  0  0  0  3  0  0  0  0  0  0
  161.6670  208.8670  148.8950 C   0  0  0  0  0  2  0  0  0  0  0  0
  160.3170  210.0710  156.2290 C   0  0  0  0  0  3  0  0  0  0  0  0
  161.9530  209.5280  150.2350 C   0  0  0  0  0  2  0  0  0  0  0  0
  162.2380  206.5280  151.1050 C   0  0  1  0  0  3  0  0  0  0  0  0
  160.3780  207.7060  155.4610 C   0  0  0  0  0  3  0  0  0  0  0  0
  160.8430  207.1400  152.9790 C   0  0  2  0  0  3  0  0  0  0  0  0
  161.7500  205.0950  149.0650 C   0  0  0  0  0  2  0  0  0  0  0  0
  161.0210  205.0510  147.8080 N   0  0  0  0  0  2  0  0  0  0  0  0
  160.7890  203.9480  144.8440 O   0  0  0  0  0  0  0  0  0  0  0  0
  162.0870  205.7050  145.7450 C   0  0  0  0  0  2  0  0  0  0  0  0
  161.9610  204.6280  146.7830 C   0  0  2  0  0  3  0  0  0  0  0  0
  161.5610  205.0620  144.4830 C   0  0  0  0  0  2  0  0  0  0  0  0
  161.3770  203.4620  146.0200 C   0  0  0  0  0  2  0  0  0  0  0  0
  1 26  2  0  0  0  0
  3  7  1  6  0  0  0
  3 16  1  0  0  0  0
  4 23  1  0  0  0  0
  5 15  1  0  0  0  0
  6 19  2  0  0  0  0
  8 12  1  0  0  0  0
  9 27  1  0  0  0  0
 10 22  1  0  0  0  0
 10 17  1  0  0  0  0
 11 20  1  0  0  0  0
 11  5  2  0  0  0  0
 13  9  1  0  0  0  0
 13 20  1  0  0  0  0
 14  2  1  0  0  0  0
 15  4  2  0  0  0  0
 15 12  1  0  0  0  0
 16  8  1  0  0  0  0
 17 25  1  0  0  0  0
 18  1  1  0  0  0  0
 18  4  1  0  0  0  0
 19  5  1  0  0  0  0
 19  3  1  0  0  0  0
 20 18  1  0  0  0  0
 22 24  1  0  0  0  0
 23 21  2  0  0  0  0
 24 13  1  0  0  0  0
 25  9  1  0  0  0  0
 25 14  1  0  0  0  0
 26 21  1  0  0  0  0
 27  2  1  0  0  0  0
 27  1  1  0  0  0  0
 28 17  1  0  0  0  0
 29 28  1  0  0  0  0
 30 34  1  0  0  0  0
 31 32  1  0  0  0  0
 32 29  1  0  0  0  0
 33 30  1  0  0  0  0
 33 31  1  0  0  0  0
 34 32  1  0  0  0  0
M  END
>  <MODEL>
1

>  <REMARK>
 VINA RESULT:      -9.5      0.000      0.000
  Name = 
  3 active torsions:
  status: ('A' for Active; 'I' for Inactive)
    1  A    between atoms: C_17  and  C_28
    2  A    between atoms: C_28  and  N_29
    3  A    between atoms: N_29  and  C_32
                            x       y       z     vdW  Elec       q    Type
                         _______ _______ _______ _____ _____    ______ ____

>  <TORSDO>
F 3

$$$$
=
 OpenBabel11122414193D

 34 40  0  0  1  0  0  0  0  0999 V2000
  160.7160  208.2510  153.9900 C   0  0  0  0  0  0  0  0  0  0  0  0
  161.6510  206.0150  153.1220 C   0  0  0  0  0  2  0  0  0  0  0  0
  157.9650  214.0560  153.1770 C   0  0  1  0  0  3  0  0  0  0  0  0
  160.1750  210.5070  154.8050 C   0  0  0  0  0  0  0  0  0  0  0  0
  159.8220  212.2290  153.0660 C   0  0  0  0  0  0  0  0  0  0  0  0
  159.9300  214.2800  151.7520 C   0  0  0  0  0  2  0  0  0  0  0  0
  156.8670  213.6990  152.1910 C   0  0  0  0  0  1  0  0  0  0  0  0
  158.6730  213.9070  155.4150 C   0  0  0  0  0  2  0  0  0  0  0  0
  161.8490  207.9900  151.8400 C   0  0  2  0  0  3  0  0  0  0  0  0
  162.3710  207.9500  148.6830 C   0  0  0  0  0  2  0  0  0  0  0  0
  160.2310  211.4010  152.0930 C   0  0  0  0  0  3  0  0  0  0  0  0
  159.6530  212.7600  155.6490 C   0  0  0  0  0  2  0  0  0  0  0  0
  161.0870  209.1820  151.2630 C   0  0  1  0  0  3  0  0  0  0  0  0
  162.1610  205.5920  151.7490 C   0  0  0  0  0  2  0  0  0  0  0  0
  159.8510  211.7830  154.5030 C   0  0  0  0  0  0  0  0  0  0  0  0
  157.6250  213.5130  154.4880 N   0  0  0  0  0  2  0  0  0  0  0  0
  161.7300  206.8590  149.5360 C   0  0  2  0  0  3  0  0  0  0  0  0
  160.5380  209.5650  153.7220 C   0  0  2  0  0  3  0  0  0  0  0  0
  159.2970  213.5570  152.6720 C   0  0  0  0  0  0  0  0  0  0  0  0
  160.6920  210.0720  152.3730 N   0  0  0  0  0  0  0  0  0  0  0  0
  160.2350  208.5420  156.3760 C   0  0  0  0  0  3  0  0  0  0  0  0
  161.6860  209.3010  148.8540 C   0  0  0  0  0  2  0  0  0  0  0  0
  160.2850  210.0400  156.2400 C   0  0  0  0  0  3  0  0  0  0  0  0
  161.9390  209.9030  150.2280 C   0  0  0  0  0  2  0  0  0  0  0  0
  162.3740  206.8780  150.9350 C   0  0  1  0  0  3  0  0  0  0  0  0
  160.4620  207.7250  155.3460 C   0  0  0  0  0  3  0  0  0  0  0  0
  160.9520  207.3180  152.8370 C   0  0  2  0  0  3  0  0  0  0  0  0
  161.9560  205.5350  148.8200 C   0  0  0  0  0  2  0  0  0  0  0  0
  160.8320  204.6440  149.0620 N   0  0  0  0  0  2  0  0  0  0  0  0
  159.5940  201.7310  149.2520 O   0  0  0  0  0  0  0  0  0  0  0  0
  161.2510  202.6200  147.8200 C   0  0  0  0  0  2  0  0  0  0  0  0
  161.3660  203.2970  149.1550 C   0  0  2  0  0  3  0  0  0  0  0  0
  160.3050  201.4690  148.0710 C   0  0  0  0  0  2  0  0  0  0  0  0
  160.4780  202.4680  150.0540 C   0  0  0  0  0  2  0  0  0  0  0  0
  1 26  2  0  0  0  0
  3  7  1  6  0  0  0
  3 16  1  0  0  0  0
  4 23  1  0  0  0  0
  5 15  1  0  0  0  0
  6 19  2  0  0  0  0
  8 12  1  0  0  0  0
  9 27  1  0  0  0  0
 10 22  1  0  0  0  0
 10 17  1  0  0  0  0
 11 20  1  0  0  0  0
 11  5  2  0  0  0  0
 13  9  1  0  0  0  0
 13 20  1  0  0  0  0
 14  2  1  0  0  0  0
 15  4  2  0  0  0  0
 15 12  1  0  0  0  0
 16  8  1  0  0  0  0
 17 25  1  0  0  0  0
 18  1  1  0  0  0  0
 18  4  1  0  0  0  0
 19  5  1  0  0  0  0
 19  3  1  0  0  0  0
 20 18  1  0  0  0  0
 22 24  1  0  0  0  0
 23 21  2  0  0  0  0
 24 13  1  0  0  0  0
 25 14  1  0  0  0  0
 25  9  1  0  0  0  0
 26 21  1  0  0  0  0
 27  2  1  0  0  0  0
 27  1  1  0  0  0  0
 28 29  1  0  0  0  0
 28 17  1  0  0  0  0
 29 32  1  0  0  0  0
 30 34  1  0  0  0  0
 31 33  1  0  0  0  0
 31 32  1  0  0  0  0
 32 34  1  0  0  0  0
 33 30  1  0  0  0  0
M  END
>  <MODEL>
2

>  <REMARK>
 VINA RESULT:      -8.7      1.392      1.697
  Name = 
  3 active torsions:
  status: ('A' for Active; 'I' for Inactive)
    1  A    between atoms: C_17  and  C_28
    2  A    between atoms: C_28  and  N_29
    3  A    between atoms: N_29  and  C_32
                            x       y       z     vdW  Elec       q    Type
                         _______ _______ _______ _____ _____    ______ ____

>  <TORSDO>
F 3

$$$$
=
 OpenBabel11122414193D

 34 40  0  0  1  0  0  0  0  0999 V2000
  160.5910  208.0100  154.2850 C   0  0  0  0  0  0  0  0  0  0  0  0
  161.8110  206.2780  152.8230 C   0  0  0  0  0  2  0  0  0  0  0  0
  157.1020  213.3970  155.1420 C   0  0  1  0  0  3  0  0  0  0  0  0
  159.7590  209.8270  155.7170 C   0  0  0  0  0  0  0  0  0  0  0  0
  159.1820  211.9360  154.5620 C   0  0  0  0  0  0  0  0  0  0  0  0
  159.0200  214.2860  153.9290 C   0  0  0  0  0  2  0  0  0  0  0  0
  156.0600  213.2210  154.0520 C   0  0  0  0  0  1  0  0  0  0  0  0
  157.8240  212.6670  157.2590 C   0  0  0  0  0  2  0  0  0  0  0  0
  161.7480  208.5560  152.2020 C   0  0  2  0  0  3  0  0  0  0  0  0
  162.2700  209.5390  149.2020 C   0  0  0  0  0  2  0  0  0  0  0  0
  159.6970  211.5000  153.4020 C   0  0  0  0  0  3  0  0  0  0  0  0
  158.9460  211.6350  157.1760 C   0  0  0  0  0  2  0  0  0  0  0  0
  160.8360  209.7610  151.9800 C   0  0  1  0  0  3  0  0  0  0  0  0
  162.3720  206.3570  151.4070 C   0  0  0  0  0  2  0  0  0  0  0  0
  159.2700  211.0840  155.7990 C   0  0  0  0  0  0  0  0  0  0  0  0
  156.8360  212.4450  156.2160 N   0  0  0  0  0  2  0  0  0  0  0  0
  161.7780  208.1710  149.6610 C   0  0  2  0  0  3  0  0  0  0  0  0
  160.2420  209.3100  154.4160 C   0  0  2  0  0  3  0  0  0  0  0  0
  158.4880  213.2450  154.5650 C   0  0  0  0  0  0  0  0  0  0  0  0
  160.3280  210.2170  153.2890 N   0  0  0  0  0  0  0  0  0  0  0  0
  160.0760  207.5030  156.6260 C   0  0  0  0  0  3  0  0  0  0  0  0
  161.4130  210.6780  149.7420 C   0  0  0  0  0  2  0  0  0  0  0  0
  159.9290  208.9650  156.9480 C   0  0  0  0  0  3  0  0  0  0  0  0
  161.5860  210.8630  151.2430 C   0  0  0  0  0  2  0  0  0  0  0  0
  162.4150  207.8450  151.0260 C   0  0  1  0  0  3  0  0  0  0  0  0
  160.4090  207.0710  155.4090 C   0  0  0  0  0  3  0  0  0  0  0  0
  160.9480  207.5070  152.9150 C   0  0  2  0  0  3  0  0  0  0  0  0
  162.1760  207.1630  148.5910 C   0  0  0  0  0  2  0  0  0  0  0  0
  161.3560  207.3530  147.4050 N   0  0  0  0  0  2  0  0  0  0  0  0
  162.2080  204.7610  145.7900 O   0  0  0  0  0  0  0  0  0  0  0  0
  161.3400  205.0090  147.9740 C   0  0  0  0  0  2  0  0  0  0  0  0
  160.7400  206.0730  147.1020 C   0  0  2  0  0  3  0  0  0  0  0  0
  162.0220  204.0770  147.0000 C   0  0  0  0  0  2  0  0  0  0  0  0
  161.1280  205.6500  145.7030 C   0  0  0  0  0  2  0  0  0  0  0  0
  1 18  1  0  0  0  0
  1 26  2  0  0  0  0
  2 27  1  0  0  0  0
  3  7  1  6  0  0  0
  3 16  1  0  0  0  0
  4 15  2  0  0  0  0
  4 23  1  0  0  0  0
  5 19  1  0  0  0  0
  5 15  1  0  0  0  0
  6 19  2  0  0  0  0
  9 27  1  0  0  0  0
 10 17  1  0  0  0  0
 10 22  1  0  0  0  0
 11  5  2  0  0  0  0
 12  8  1  0  0  0  0
 13  9  1  0  0  0  0
 13 20  1  0  0  0  0
 14  2  1  0  0  0  0
 15 12  1  0  0  0  0
 16  8  1  0  0  0  0
 17 25  1  0  0  0  0
 18  4  1  0  0  0  0
 19  3  1  0  0  0  0
 20 11  1  0  0  0  0
 20 18  1  0  0  0  0
 21 23  2  0  0  0  0
 22 24  1  0  0  0  0
 24 13  1  0  0  0  0
 25 14  1  0  0  0  0
 25  9  1  0  0  0  0
 26 21  1  0  0  0  0
 27  1  1  0  0  0  0
 28 17  1  0  0  0  0
 29 28  1  0  0  0  0
 30 33  1  0  0  0  0
 32 29  1  0  0  0  0
 32 31  1  0  0  0  0
 33 31  1  0  0  0  0
 34 30  1  0  0  0  0
 34 32  1  0  0  0  0
M  END
>  <MODEL>
3

>  <REMARK>
 VINA RESULT:      -8.4      1.371      1.833
  Name = 
  3 active torsions:
  status: ('A' for Active; 'I' for Inactive)
    1  A    between atoms: C_17  and  C_28
    2  A    between atoms: C_28  and  N_29
    3  A    between atoms: N_29  and  C_32
                            x       y       z     vdW  Elec       q    Type
                         _______ _______ _______ _____ _____    ______ ____

>  <TORSDO>
F 3

$$$$
=
 OpenBabel11122414193D

 34 40  0  0  1  0  0  0  0  0999 V2000
  161.2260  204.6450  151.7470 C   0  0  0  0  0  0  0  0  0  0  0  0
  161.2830  205.9050  153.9920 C   0  0  0  0  0  2  0  0  0  0  0  0
  162.3320  204.1450  145.3870 C   0  0  1  0  0  3  0  0  0  0  0  0
  160.8220  203.5710  149.5730 C   0  0  0  0  0  0  0  0  0  0  0  0
  161.2010  204.9850  147.5810 C   0  0  0  0  0  0  0  0  0  0  0  0
  160.9350  206.1420  145.4500 C   0  0  0  0  0  2  0  0  0  0  0  0
  163.7380  204.7140  145.3120 C   0  0  0  0  0  1  0  0  0  0  0  0
  161.0300  202.2960  146.0340 C   0  0  0  0  0  2  0  0  0  0  0  0
  160.9480  207.0640  151.9620 C   0  0  2  0  0  3  0  0  0  0  0  0
  161.4770  210.2060  151.6650 C   0  0  0  0  0  2  0  0  0  0  0  0
  161.3690  206.0850  148.3320 C   0  0  0  0  0  3  0  0  0  0  0  0
  160.3930  202.4760  147.4100 C   0  0  0  0  0  2  0  0  0  0  0  0
  161.4820  207.2790  150.5470 C   0  0  1  0  0  3  0  0  0  0  0  0
  161.3720  207.3900  154.3220 C   0  0  0  0  0  2  0  0  0  0  0  0
  160.8500  203.6720  148.2260 C   0  0  0  0  0  0  0  0  0  0  0  0
  162.3830  202.8290  146.0150 N   0  0  0  0  0  2  0  0  0  0  0  0
  162.0980  209.2480  152.6760 C   0  0  2  0  0  3  0  0  0  0  0  0
  161.1000  204.7640  150.4060 C   0  0  0  0  0  0  0  0  0  0  0  0
  161.4240  205.1020  146.1200 C   0  0  0  0  0  0  0  0  0  0  0  0
  161.2400  206.0530  149.7590 N   0  0  0  0  0  0  0  0  0  0  0  0
  160.8310  202.2270  151.7000 C   0  0  0  0  0  3  0  0  0  0  0  0
  161.6620  209.7370  150.2260 C   0  0  0  0  0  2  0  0  0  0  0  0
  160.4040  202.2890  150.2580 C   0  0  0  0  0  2  0  0  0  0  0  0
  160.8300  208.5010  149.9150 C   0  0  0  0  0  2  0  0  0  0  0  0
  161.0700  208.1550  153.0240 C   0  0  1  0  0  3  0  0  0  0  0  0
  161.1790  203.3160  152.3870 C   0  0  0  0  0  3  0  0  0  0  0  0
  161.6370  205.8600  152.5290 C   0  0  2  0  0  3  0  0  0  0  0  0
  162.4930  210.0700  153.8950 C   0  0  0  0  0  2  0  0  0  0  0  0
  161.3660  210.8770  154.3340 N   0  0  0  0  0  2  0  0  0  0  0  0
  160.7210  209.2980  157.0060 O   0  0  0  0  0  0  0  0  0  0  0  0
  162.7120  210.3280  156.2590 C   0  0  0  0  0  2  0  0  0  0  0  0
  161.5460  211.1270  155.7530 C   0  0  2  0  0  3  0  0  0  0  0  0
  162.0990  209.3750  157.2580 C   0  0  0  0  0  2  0  0  0  0  0  0
  160.3680  210.5630  156.5140 C   0  0  0  0  0  2  0  0  0  0  0  0
  1 26  1  0  0  0  0
  1 27  1  0  0  0  0
  2 14  1  0  0  0  0
  3  7  1  1  0  0  0
  3 16  1  0  0  0  0
  3 19  1  0  0  0  0
  4 23  1  0  0  0  0
  4 18  1  0  0  0  0
  5 15  1  0  0  0  0
  5 11  2  0  0  0  0
  6 19  2  0  0  0  0
  8 12  1  0  0  0  0
  9 27  1  0  0  0  0
  9 25  1  0  0  0  0
 10 17  1  0  0  0  0
 11 20  1  0  0  0  0
 12 15  1  0  0  0  0
 13  9  1  0  0  0  0
 15  4  2  0  0  0  0
 16  8  1  0  0  0  0
 17 25  1  0  0  0  0
 17 28  1  0  0  0  0
 18  1  2  0  0  0  0
 19  5  1  0  0  0  0
 20 18  1  0  0  0  0
 20 13  1  0  0  0  0
 21 26  2  0  0  0  0
 22 10  1  0  0  0  0
 23 21  1  0  0  0  0
 24 22  1  0  0  0  0
 24 13  1  0  0  0  0
 25 14  1  0  0  0  0
 27  2  1  0  0  0  0
 28 29  1  0  0  0  0
 29 32  1  0  0  0  0
 30 33  1  0  0  0  0
 31 33  1  0  0  0  0
 32 31  1  0  0  0  0
 32 34  1  0  0  0  0
 34 30  1  0  0  0  0
M  END
>  <MODEL>
4

>  <REMARK>
 VINA RESULT:      -7.9      3.282      8.883
  Name = 
  3 active torsions:
  status: ('A' for Active; 'I' for Inactive)
    1  A    between atoms: C_17  and  C_28
    2  A    between atoms: C_28  and  N_29
    3  A    between atoms: N_29  and  C_32
                            x       y       z     vdW  Elec       q    Type
                         _______ _______ _______ _____ _____    ______ ____

>  <TORSDO>
F 3

$$$$
=
 OpenBabel11122414193D

 34 40  0  0  1  0  0  0  0  0999 V2000
  161.4760  207.6190  149.5350 C   0  0  0  0  0  0  0  0  0  0  0  0
  161.6250  209.8640  150.7860 C   0  0  0  0  0  2  0  0  0  0  0  0
  159.7470  201.3990  149.0360 C   0  0  1  0  0  3  0  0  0  0  0  0
  161.6760  205.4110  148.4730 C   0  0  0  0  0  0  0  0  0  0  0  0
  161.0790  203.4720  149.8870 C   0  0  0  0  0  0  0  0  0  0  0  0
  161.1130  201.3310  151.0530 C   0  0  0  0  0  2  0  0  0  0  0  0
  158.3330  201.4670  149.5840 C   0  0  0  0  0  1  0  0  0  0  0  0
  161.1340  201.9050  147.2050 C   0  0  0  0  0  2  0  0  0  0  0  0
  161.7390  207.8150  151.9570 C   0  0  2  0  0  3  0  0  0  0  0  0
  161.1360  207.5870  155.0910 C   0  0  0  0  0  2  0  0  0  0  0  0
  160.9710  204.2410  150.9810 C   0  0  0  0  0  3  0  0  0  0  0  0
  161.9030  203.2110  147.3910 C   0  0  0  0  0  2  0  0  0  0  0  0
  161.0620  206.4620  152.1670 C   0  0  1  0  0  3  0  0  0  0  0  0
  161.5480  210.2070  152.2700 C   0  0  0  0  0  2  0  0  0  0  0  0
  161.5120  204.0740  148.5780 C   0  0  0  0  0  0  0  0  0  0  0  0
  159.7790  202.0230  147.7180 N   0  0  0  0  0  2  0  0  0  0  0  0
  160.6330  208.6500  154.1210 C   0  0  2  0  0  3  0  0  0  0  0  0
  161.4660  206.2720  149.6590 C   0  0  0  0  0  0  0  0  0  0  0  0
  160.7100  202.0420  150.0040 C   0  0  0  0  0  0  0  0  0  0  0  0
  161.2430  205.6490  150.9480 N   0  0  0  0  0  0  0  0  0  0  0  0
  161.9000  207.5220  147.1230 C   0  0  0  0  0  3  0  0  0  0  0  0
  160.8150  206.1720  154.6240 C   0  0  0  0  0  2  0  0  0  0  0  0
  162.1790  206.0450  147.1950 C   0  0  0  0  0  2  0  0  0  0  0  0
  161.6300  205.7740  153.4010 C   0  0  0  0  0  2  0  0  0  0  0  0
  161.7070  208.8890  153.0420 C   0  0  1  0  0  3  0  0  0  0  0  0
  161.6060  208.2450  148.2050 C   0  0  0  0  0  3  0  0  0  0  0  0
  161.1270  208.4440  150.7400 C   0  0  2  0  0  3  0  0  0  0  0  0
  160.3500  209.9060  154.9330 C   0  0  0  0  0  2  0  0  0  0  0  0
  159.0590  209.7890  155.5920 N   0  0  0  0  0  2  0  0  0  0  0  0
  157.9440  212.0790  153.7020 O   0  0  0  0  0  0  0  0  0  0  0  0
  157.0570  211.1320  155.6770 C   0  0  0  0  0  2  0  0  0  0  0  0
  158.5540  211.1380  155.7850 C   0  0  2  0  0  3  0  0  0  0  0  0
  156.7730  211.9930  154.4690 C   0  0  0  0  0  2  0  0  0  0  0  0
  158.9930  212.0070  154.6300 C   0  0  0  0  0  2  0  0  0  0  0  0
  1 18  2  0  0  0  0
  1 27  1  0  0  0  0
  2 14  1  0  0  0  0
  3  7  1  1  0  0  0
  3 19  1  0  0  0  0
  4 15  2  0  0  0  0
  4 18  1  0  0  0  0
  5 19  1  0  0  0  0
  5 11  2  0  0  0  0
  8 12  1  0  0  0  0
  8 16  1  0  0  0  0
  9 13  1  0  0  0  0
  9 25  1  0  0  0  0
 12 15  1  0  0  0  0
 13 24  1  0  0  0  0
 14 25  1  0  0  0  0
 15  5  1  0  0  0  0
 16  3  1  0  0  0  0
 17 28  1  0  0  0  0
 17 10  1  0  0  0  0
 18 20  1  0  0  0  0
 19  6  2  0  0  0  0
 20 11  1  0  0  0  0
 20 13  1  0  0  0  0
 21 23  1  0  0  0  0
 21 26  2  0  0  0  0
 22 10  1  0  0  0  0
 23  4  1  0  0  0  0
 24 22  1  0  0  0  0
 25 17  1  0  0  0  0
 26  1  1  0  0  0  0
 27  2  1  0  0  0  0
 27  9  1  0  0  0  0
 28 29  1  0  0  0  0
 29 32  1  0  0  0  0
 30 33  1  0  0  0  0
 30 34  1  0  0  0  0
 31 32  1  0  0  0  0
 33 31  1  0  0  0  0
 34 32  1  0  0  0  0
M  END
>  <MODEL>
5

>  <REMARK>
 VINA RESULT:      -7.9      3.036      9.262
  Name = 
  3 active torsions:
  status: ('A' for Active; 'I' for Inactive)
    1  A    between atoms: C_17  and  C_28
    2  A    between atoms: C_28  and  N_29
    3  A    between atoms: N_29  and  C_32
                            x       y       z     vdW  Elec       q    Type
                         _______ _______ _______ _____ _____    ______ ____

>  <TORSDO>
F 3

$$$$
=
 OpenBabel11122414193D

 34 40  0  0  1  0  0  0  0  0999 V2000
  161.6550  207.0470  148.7070 C   0  0  0  0  0  0  0  0  0  0  0  0
  161.9570  209.3980  149.7130 C   0  0  0  0  0  2  0  0  0  0  0  0
  159.4710  200.9530  148.8480 C   0  0  1  0  0  3  0  0  0  0  0  0
  161.7010  204.7280  147.8930 C   0  0  0  0  0  0  0  0  0  0  0  0
  160.9450  203.0040  149.4960 C   0  0  0  0  0  0  0  0  0  0  0  0
  160.8060  201.0050  150.8870 C   0  0  0  0  0  2  0  0  0  0  0  0
  158.0600  201.1830  149.3580 C   0  0  0  0  0  1  0  0  0  0  0  0
  160.9130  201.1540  147.0000 C   0  0  0  0  0  2  0  0  0  0  0  0
  161.9040  207.4860  151.0990 C   0  0  2  0  0  3  0  0  0  0  0  0
  161.2510  207.6440  154.2280 C   0  0  0  0  0  2  0  0  0  0  0  0
  160.8820  203.8930  150.4990 C   0  0  0  0  0  3  0  0  0  0  0  0
  161.7760  202.4130  147.0590 C   0  0  0  0  0  2  0  0  0  0  0  0
  161.1260  206.2160  151.4410 C   0  0  1  0  0  3  0  0  0  0  0  0
  161.8890  209.9050  151.1490 C   0  0  0  0  0  2  0  0  0  0  0  0
  161.4370  203.4250  148.1380 C   0  0  0  0  0  0  0  0  0  0  0  0
  159.5640  201.4260  147.4710 N   0  0  0  0  0  2  0  0  0  0  0  0
  160.8400  208.6300  153.1390 C   0  0  2  0  0  3  0  0  0  0  0  0
  161.5430  205.7260  148.9750 C   0  0  0  0  0  0  0  0  0  0  0  0
  160.4680  201.6250  149.7600 C   0  0  0  0  0  0  0  0  0  0  0  0
  161.2590  205.2640  150.3190 N   0  0  0  0  0  0  0  0  0  0  0  0
  162.0980  206.6580  146.3290 C   0  0  0  0  0  3  0  0  0  0  0  0
  160.8300  206.2140  153.9090 C   0  0  0  0  0  2  0  0  0  0  0  0
  162.2650  205.1810  146.5650 C   0  0  0  0  0  2  0  0  0  0  0  0
  161.6260  205.6270  152.7520 C   0  0  0  0  0  2  0  0  0  0  0  0
  161.9400  208.6710  152.0620 C   0  0  1  0  0  3  0  0  0  0  0  0
  161.8460  207.5140  147.3200 C   0  0  0  0  0  3  0  0  0  0  0  0
  161.3550  208.0210  149.8100 C   0  0  2  0  0  3  0  0  0  0  0  0
  160.6420  209.9840  153.8060 C   0  0  0  0  0  2  0  0  0  0  0  0
  159.8600  209.8280  155.0210 N   0  0  0  0  0  2  0  0  0  0  0  0
  162.1080  209.3750  157.2100 O   0  0  0  0  0  0  0  0  0  0  0  0
  161.8540  211.0650  155.5790 C   0  0  0  0  0  2  0  0  0  0  0  0
  160.4900  210.6460  156.0430 C   0  0  2  0  0  3  0  0  0  0  0  0
  162.7940  210.4150  156.5660 C   0  0  0  0  0  2  0  0  0  0  0  0
  160.7720  209.7960  157.2610 C   0  0  0  0  0  2  0  0  0  0  0  0
  1 18  2  0  0  0  0
  1 27  1  0  0  0  0
  2 27  1  0  0  0  0
  2 14  1  0  0  0  0
  3  7  1  1  0  0  0
  3 19  1  0  0  0  0
  4 15  2  0  0  0  0
  4 18  1  0  0  0  0
  5 19  1  0  0  0  0
  5 11  2  0  0  0  0
  8 12  1  0  0  0  0
  8 16  1  0  0  0  0
  9 13  1  0  0  0  0
  9 25  1  0  0  0  0
 12 15  1  0  0  0  0
 13 24  1  0  0  0  0
 14 25  1  0  0  0  0
 15  5  1  0  0  0  0
 16  3  1  0  0  0  0
 17 28  1  0  0  0  0
 17 10  1  0  0  0  0
 18 20  1  0  0  0  0
 19  6  2  0  0  0  0
 20 11  1  0  0  0  0
 20 13  1  0  0  0  0
 21 23  1  0  0  0  0
 21 26  2  0  0  0  0
 22 10  1  0  0  0  0
 23  4  1  0  0  0  0
 24 22  1  0  0  0  0
 25 17  1  0  0  0  0
 26  1  1  0  0  0  0
 27  9  1  0  0  0  0
 28 29  1  0  0  0  0
 29 32  1  0  0  0  0
 30 34  1  0  0  0  0
 31 32  1  0  0  0  0
 31 33  1  0  0  0  0
 32 34  1  0  0  0  0
 33 30  1  0  0  0  0
M  END
>  <MODEL>
6

>  <REMARK>
 VINA RESULT:      -7.9      3.275      9.551
  Name = 
  3 active torsions:
  status: ('A' for Active; 'I' for Inactive)
    1  A    between atoms: C_17  and  C_28
    2  A    between atoms: C_28  and  N_29
    3  A    between atoms: N_29  and  C_32
                            x       y       z     vdW  Elec       q    Type
                         _______ _______ _______ _____ _____    ______ ____

>  <TORSDO>
F 3

$$$$
=
 OpenBabel11122414193D

 34 40  0  0  1  0  0  0  0  0999 V2000
  161.6920  208.5100  149.9780 C   0  0  0  0  0  0  0  0  0  0  0  0
  161.9610  207.1330  147.8200 C   0  0  0  0  0  2  0  0  0  0  0  0
  161.3930  209.1390  156.4160 C   0  0  1  0  0  3  0  0  0  0  0  0
  161.0670  209.7830  151.9870 C   0  0  0  0  0  0  0  0  0  0  0  0
  160.6290  208.4470  154.0210 C   0  0  0  0  0  0  0  0  0  0  0  0
  159.6120  207.5190  156.0340 C   0  0  0  0  0  2  0  0  0  0  0  0
  162.5650  208.2670  156.8270 C   0  0  0  0  0  1  0  0  0  0  0  0
  160.7540  211.1940  155.4660 C   0  0  0  0  0  2  0  0  0  0  0  0
  160.9010  206.2120  149.7180 C   0  0  2  0  0  3  0  0  0  0  0  0
  160.5820  203.0570  150.1520 C   0  0  0  0  0  2  0  0  0  0  0  0
  160.6980  207.2930  153.3380 C   0  0  0  0  0  3  0  0  0  0  0  0
  160.4260  211.0800  153.9780 C   0  0  0  0  0  2  0  0  0  0  0  0
  161.0290  205.9690  151.2210 C   0  0  1  0  0  3  0  0  0  0  0  0
  161.7660  205.6490  147.5300 C   0  0  0  0  0  2  0  0  0  0  0  0
  160.7600  209.7620  153.3020 C   0  0  0  0  0  0  0  0  0  0  0  0
  161.8990  210.3660  155.8100 N   0  0  0  0  0  2  0  0  0  0  0  0
  161.6290  203.7810  149.3130 C   0  0  2  0  0  3  0  0  0  0  0  0
  161.2360  208.5080  151.2520 C   0  0  0  0  0  0  0  0  0  0  0  0
  160.4760  208.3740  155.4930 C   0  0  0  0  0  0  0  0  0  0  0  0
  160.9120  207.2650  151.9210 N   0  0  0  0  0  0  0  0  0  0  0  0
  161.8850  210.9520  149.9150 C   0  0  0  0  0  3  0  0  0  0  0  0
  160.5380  203.5600  151.5900 C   0  0  0  0  0  2  0  0  0  0  0  0
  161.1370  211.0810  151.2140 C   0  0  0  0  0  2  0  0  0  0  0  0
  159.9770  204.9720  151.6870 C   0  0  0  0  0  2  0  0  0  0  0  0
  161.0000  205.0580  148.7230 C   0  0  1  0  0  3  0  0  0  0  0  0
  162.1120  209.7710  149.3380 C   0  0  0  0  0  3  0  0  0  0  0  0
  161.9700  207.1870  149.3240 C   0  0  2  0  0  3  0  0  0  0  0  0
  162.0860  202.8160  148.2280 C   0  0  0  0  0  2  0  0  0  0  0  0
  160.9300  202.2150  147.5810 N   0  0  0  0  0  2  0  0  0  0  0  0
  159.3680  201.2770  144.9870 O   0  0  0  0  0  0  0  0  0  0  0  0
  160.6630  203.2090  145.4000 C   0  0  0  0  0  2  0  0  0  0  0  0
  161.2560  202.0670  146.1730 C   0  0  2  0  0  3  0  0  0  0  0  0
  159.6640  202.5500  144.4790 C   0  0  0  0  0  2  0  0  0  0  0  0
  160.5450  200.8540  145.6200 C   0  0  0  0  0  2  0  0  0  0  0  0
  1 18  2  0  0  0  0
  2 27  1  0  0  0  0
  3  7  1  6  0  0  0
  4 15  2  0  0  0  0
  5 19  1  0  0  0  0
  8 16  1  0  0  0  0
  9 13  1  0  0  0  0
 10 22  1  0  0  0  0
 11  5  2  0  0  0  0
 12  8  1  0  0  0  0
 13 24  1  0  0  0  0
 13 20  1  0  0  0  0
 14  2  1  0  0  0  0
 14 25  1  0  0  0  0
 15 12  1  0  0  0  0
 15  5  1  0  0  0  0
 16  3  1  0  0  0  0
 17 10  1  0  0  0  0
 18 20  1  0  0  0  0
 18  4  1  0  0  0  0
 19  6  2  0  0  0  0
 19  3  1  0  0  0  0
 20 11  1  0  0  0  0
 21 23  1  0  0  0  0
 22 24  1  0  0  0  0
 23  4  1  0  0  0  0
 25 17  1  0  0  0  0
 25  9  1  0  0  0  0
 26 21  2  0  0  0  0
 26  1  1  0  0  0  0
 27  9  1  0  0  0  0
 27  1  1  0  0  0  0
 28 17  1  0  0  0  0
 29 28  1  0  0  0  0
 30 34  1  0  0  0  0
 31 32  1  0  0  0  0
 32 29  1  0  0  0  0
 33 30  1  0  0  0  0
 33 31  1  0  0  0  0
 34 32  1  0  0  0  0
M  END
>  <MODEL>
7

>  <REMARK>
 VINA RESULT:      -7.8      2.141      4.605
  Name = 
  3 active torsions:
  status: ('A' for Active; 'I' for Inactive)
    1  A    between atoms: C_17  and  C_28
    2  A    between atoms: C_28  and  N_29
    3  A    between atoms: N_29  and  C_32
                            x       y       z     vdW  Elec       q    Type
                         _______ _______ _______ _____ _____    ______ ____

>  <TORSDO>
F 3

$$$$
