=
 OpenBabel11122414213D

 34 41  0  0  1  0  0  0  0  0999 V2000
  160.8340  207.7750  154.2120 C   0  0  0  0  0  0  0  0  0  0  0  0
  162.1220  206.0520  152.8710 C   0  0  0  0  0  2  0  0  0  0  0  0
  159.2970  213.5470  155.7380 C   0  0  2  0  0  3  0  0  0  0  0  0
  159.2600  209.3300  155.1700 C   0  0  0  0  0  0  0  0  0  0  0  0
  158.8300  211.5880  154.0990 C   0  0  1  0  0  3  0  0  0  0  0  0
  160.8450  212.1460  155.3720 O   0  0  0  0  0  0  0  0  0  0  0  0
  160.4680  212.9290  156.4810 C   0  0  0  0  0  2  0  0  0  0  0  0
  157.9460  212.0530  156.9770 C   0  0  0  0  0  2  0  0  0  0  0  0
  162.2040  208.3750  152.1800 C   0  0  2  0  0  3  0  0  0  0  0  0
  161.7080  208.9000  149.0920 C   0  0  0  0  0  2  0  0  0  0  0  0
  159.3430  210.9360  152.8120 C   0  0  0  0  0  2  0  0  0  0  0  0
  157.5220  210.8700  156.1240 C   0  0  0  0  0  2  0  0  0  0  0  0
  161.0700  209.3600  151.8280 C   0  0  1  0  0  3  0  0  0  0  0  0
  162.9100  206.1120  151.5710 C   0  0  0  0  0  2  0  0  0  0  0  0
  158.5470  210.5800  155.1300 N   0  0  0  0  0  0  0  0  0  0  0  0
  157.9820  213.2210  156.1900 O   0  0  0  0  0  0  0  0  0  0  0  0
  161.8460  207.5120  149.7450 C   0  0  1  0  0  3  0  0  0  0  0  0
  160.1960  209.0230  154.1700 C   0  0  0  0  0  0  0  0  0  0  0  0
  159.7990  212.6810  154.5970 C   0  0  2  0  0  3  0  0  0  0  0  0
  160.5480  210.0370  153.1050 C   0  0  2  0  0  3  0  0  0  0  0  0
  159.6200  207.2080  156.1610 C   0  0  0  0  0  3  0  0  0  0  0  0
  162.3950  209.8890  149.8180 O   0  0  0  0  0  0  0  0  0  0  0  0
  158.9930  208.4130  156.1400 N   0  0  0  0  0  0  0  0  0  0  0  0
  161.5040  210.4050  150.7800 C   0  0  0  0  0  2  0  0  0  0  0  0
  162.7320  207.5210  151.0130 C   0  0  1  0  0  3  0  0  0  0  0  0
  160.5270  206.8920  155.2010 N   0  0  0  0  0  0  0  0  0  0  0  0
  161.7610  207.4210  153.1800 N   0  0  0  0  0  0  0  0  0  0  0  0
  160.5730  207.0000  150.0240 O   0  0  0  0  0  0  0  0  0  0  0  0
  160.1180  206.4700  148.8150 C   0  0  0  0  0  2  0  0  0  0  0  0
  161.6680  203.2850  147.8390 C   0  0  0  0  0  2  0  0  0  0  0  0
  161.1480  205.5640  146.7520 C   0  0  0  0  0  2  0  0  0  0  0  0
  161.1470  205.5030  148.2600 C   0  0  2  0  0  3  0  0  0  0  0  0
  161.7760  203.9730  146.1600 S   0  0  0  0  0  0  0  0  0  0  0  0
  160.8260  204.1430  148.6560 N   0  0  0  0  0  2  0  0  0  0  0  0
  1 26  1  0  0  0  0
  2 27  1  0  0  0  0
  3 16  1  0  0  0  0
  3  7  1  1  0  0  0
  4 23  2  0  0  0  0
  5 11  1  6  0  0  0
  5 19  1  0  0  0  0
  5 15  1  0  0  0  0
  6  7  1  0  0  0  0
  9 27  1  1  0  0  0
 10 17  1  0  0  0  0
 10 22  1  0  0  0  0
 12  8  1  0  0  0  0
 13 24  1  6  0  0  0
 13  9  1  0  0  0  0
 13 20  1  0  0  0  0
 14  2  1  0  0  0  0
 15  4  1  0  0  0  0
 15 12  1  0  0  0  0
 16  8  1  0  0  0  0
 17 28  1  1  0  0  0
 17 25  1  0  0  0  0
 18  1  2  0  0  0  0
 18  4  1  0  0  0  0
 19  6  1  1  0  0  0
 19  3  1  0  0  0  0
 20 11  1  6  0  0  0
 20 18  1  0  0  0  0
 22 24  1  0  0  0  0
 23 21  1  0  0  0  0
 25 14  1  1  0  0  0
 25  9  1  0  0  0  0
 26 21  2  0  0  0  0
 27  1  1  0  0  0  0
 29 28  1  0  0  0  0
 30 34  1  0  0  0  0
 31 32  1  0  0  0  0
 32 34  1  0  0  0  0
 32 29  1  1  0  0  0
 33 31  1  0  0  0  0
 33 30  1  0  0  0  0
M  END
>  <MODEL>
1

>  <REMARK>
 VINA RESULT:      -6.2      0.000      0.000
  Name = 
  3 active torsions:
  status: ('A' for Active; 'I' for Inactive)
    1  A    between atoms: C_17  and  O_28
    2  A    between atoms: O_28  and  C_29
    3  A    between atoms: C_29  and  C_32
                            x       y       z     vdW  Elec       q    Type
                         _______ _______ _______ _____ _____    ______ ____

>  <TORSDO>
F 3

$$$$
