=
 OpenBabel11122414043D

 28 32  0  0  1  0  0  0  0  0999 V2000
  161.8900  209.6550  150.3620 C   0  0  0  0  0  0  0  0  0  0  0  0
  158.1620  212.6020  151.8170 O   0  0  0  0  0  0  0  0  0  0  0  0
  161.2920  207.6270  156.4000 O   0  0  0  0  0  0  0  0  0  0  0  0
  161.4520  212.2110  149.2980 C   0  0  0  0  0  3  0  0  0  0  0  0
  161.8850  209.8450  155.8980 N   0  0  0  0  0  0  0  0  0  0  0  0
  162.2330  208.2900  150.8510 C   0  0  0  0  0  2  0  0  0  0  0  0
  157.6500  210.7770  153.3980 O   0  0  0  0  0  0  0  0  0  0  0  0
  158.4890  212.0000  153.1530 S   0  0  0  0  0  0  0  0  0  0  0  0
  159.2880  213.4350  155.3660 C   0  0  0  0  0  0  0  0  0  0  0  0
  160.2110  211.6160  153.2560 C   0  0  1  0  0  3  0  0  0  0  0  0
  160.1630  205.8990  152.7960 O   0  0  0  0  0  1  0  0  0  0  0  0
  161.7180  209.7390  153.5230 C   0  0  1  0  0  3  0  0  0  0  0  0
  160.4560  212.6530  155.4020 O   0  0  0  0  0  0  0  0  0  0  0  0
  158.2420  213.1630  154.4170 N   0  0  0  0  0  2  0  0  0  0  0  0
  161.3270  206.5380  152.3660 C   0  0  2  0  0  3  0  0  0  0  0  0
  161.2440  210.6380  151.1630 C   0  0  0  0  0  0  0  0  0  0  0  0
  161.4740  208.5410  155.5500 C   0  0  0  0  0  0  0  0  0  0  0  0
  159.1640  214.3980  156.1660 O   0  0  0  0  0  0  0  0  0  0  0  0
  162.0210  207.2190  153.5500 C   0  0  0  0  0  2  0  0  0  0  0  0
  161.0270  211.9090  150.5910 C   0  0  0  0  0  3  0  0  0  0  0  0
  162.3160  209.9740  149.0670 C   0  0  0  0  0  3  0  0  0  0  0  0
  162.0970  211.2430  148.5340 C   0  0  0  0  0  3  0  0  0  0  0  0
  160.9910  207.5110  151.2430 C   0  0  0  0  0  2  0  0  0  0  0  0
  161.8300  210.7010  154.7310 C   0  0  1  0  0  3  0  0  0  0  0  0
  161.2190  208.3920  154.1010 C   0  0  2  0  0  3  0  0  0  0  0  0
  160.5020  211.4150  154.7030 C   0  0  2  0  0  3  0  0  0  0  0  0
  162.0510  210.3260  157.2610 C   0  0  0  0  0  1  0  0  0  0  0  0
  160.6750  210.3410  152.5550 C   0  0  2  0  0  3  0  0  0  0  0  0
  1  6  1  0  0  0  0
  1 16  1  0  0  0  0
  2  8  2  0  0  0  0
  4 20  1  0  0  0  0
  5 27  1  0  0  0  0
  6 23  1  0  0  0  0
  8  7  2  0  0  0  0
  8 14  1  0  0  0  0
  9 13  1  0  0  0  0
  9 18  2  0  0  0  0
 10  8  1  1  0  0  0
 10 26  1  0  0  0  0
 12 25  1  0  0  0  0
 12 24  1  0  0  0  0
 14  9  1  0  0  0  0
 15 11  1  0  0  0  0
 15 19  1  0  0  0  0
 16 28  1  0  0  0  0
 17  5  1  0  0  0  0
 17  3  2  0  0  0  0
 19 25  1  0  0  0  0
 20 16  2  0  0  0  0
 21  1  2  0  0  0  0
 22 21  1  0  0  0  0
 22  4  2  0  0  0  0
 23 15  1  0  0  0  0
 24  5  1  0  0  0  0
 25 17  1  0  0  0  0
 26 24  1  0  0  0  0
 26 13  1  0  0  0  0
 28 10  1  0  0  0  0
 28 12  1  0  0  0  0
M  END
>  <MODEL>
1

>  <REMARK>
 VINA RESULT:      -4.6      0.000      0.000
  Name = 
  0 active torsions:
  status: ('A' for Active; 'I' for Inactive)
                            x       y       z     vdW  Elec       q    Type
                         _______ _______ _______ _____ _____    ______ ____

>  <TORSDO>
F 0

$$$$
=
 OpenBabel11122414043D

 28 32  0  0  1  0  0  0  0  0999 V2000
  161.3840  207.6070  151.0690 C   0  0  0  0  0  0  0  0  0  0  0  0
  162.0890  208.8540  155.8280 O   0  0  0  0  0  0  0  0  0  0  0  0
  160.1070  213.8630  150.6780 O   0  0  0  0  0  0  0  0  0  0  0  0
  160.9460  205.8370  153.1980 C   0  0  0  0  0  3  0  0  0  0  0  0
  158.8090  212.4210  152.0030 N   0  0  0  0  0  0  0  0  0  0  0  0
  161.5730  208.4510  149.8550 C   0  0  0  0  0  2  0  0  0  0  0  0
  162.6500  211.0780  154.9170 O   0  0  0  0  0  0  0  0  0  0  0  0
  161.5370  210.1650  155.3460 S   0  0  0  0  0  0  0  0  0  0  0  0
  159.2450  211.3510  156.3140 C   0  0  0  0  0  0  0  0  0  0  0  0
  160.3870  209.9070  154.0280 C   0  0  1  0  0  3  0  0  0  0  0  0
  163.4130  211.6530  149.4800 O   0  0  0  0  0  1  0  0  0  0  0  0
  160.0530  210.4130  151.6840 C   0  0  1  0  0  3  0  0  0  0  0  0
  158.7360  211.3410  155.0030 O   0  0  0  0  0  0  0  0  0  0  0  0
  160.5870  210.9150  156.5900 N   0  0  0  0  0  2  0  0  0  0  0  0
  162.4240  210.7020  149.2290 C   0  0  2  0  0  3  0  0  0  0  0  0
  161.0300  208.1310  152.3440 C   0  0  0  0  0  0  0  0  0  0  0  0
  159.9080  212.7200  151.1700 C   0  0  0  0  0  0  0  0  0  0  0  0
  158.5100  211.7320  157.2600 O   0  0  0  0  0  0  0  0  0  0  0  0
  161.0400  211.2940  149.5180 C   0  0  0  0  0  2  0  0  0  0  0  0
  160.8310  207.2120  153.3960 C   0  0  0  0  0  3  0  0  0  0  0  0
  161.4920  206.2230  150.8840 C   0  0  0  0  0  3  0  0  0  0  0  0
  161.2780  205.3410  151.9410 C   0  0  0  0  0  3  0  0  0  0  0  0
  162.7060  209.4440  150.0380 C   0  0  0  0  0  2  0  0  0  0  0  0
  158.9580  211.0870  152.5470 C   0  0  1  0  0  3  0  0  0  0  0  0
  160.8230  211.5700  151.0010 C   0  0  2  0  0  3  0  0  0  0  0  0
  159.6170  211.1760  153.9000 C   0  0  2  0  0  3  0  0  0  0  0  0
  157.8390  213.3960  152.4760 C   0  0  0  0  0  1  0  0  0  0  0  0
  160.9760  209.6330  152.6460 C   0  0  2  0  0  3  0  0  0  0  0  0
  1 16  1  0  0  0  0
  3 17  2  0  0  0  0
  4 20  1  0  0  0  0
  5 27  1  0  0  0  0
  5 24  1  0  0  0  0
  6 23  1  0  0  0  0
  6  1  1  0  0  0  0
  7  8  2  0  0  0  0
  8  2  2  0  0  0  0
  8 14  1  0  0  0  0
  9 14  1  0  0  0  0
  9 18  2  0  0  0  0
 10  8  1  1  0  0  0
 12 24  1  0  0  0  0
 12 28  1  0  0  0  0
 13  9  1  0  0  0  0
 15 11  1  0  0  0  0
 15 19  1  0  0  0  0
 15 23  1  0  0  0  0
 16 28  1  0  0  0  0
 16 20  2  0  0  0  0
 17  5  1  0  0  0  0
 19 25  1  0  0  0  0
 21  1  2  0  0  0  0
 21 22  1  0  0  0  0
 22  4  2  0  0  0  0
 24 26  1  0  0  0  0
 25 17  1  0  0  0  0
 25 12  1  0  0  0  0
 26 10  1  0  0  0  0
 26 13  1  0  0  0  0
 28 10  1  0  0  0  0
M  END
>  <MODEL>
2

>  <REMARK>
 VINA RESULT:      -2.8      2.118      4.832
  Name = 
  0 active torsions:
  status: ('A' for Active; 'I' for Inactive)
                            x       y       z     vdW  Elec       q    Type
                         _______ _______ _______ _____ _____    ______ ____

>  <TORSDO>
F 0

$$$$
=
 OpenBabel11122414043D

 28 32  0  0  1  0  0  0  0  0999 V2000
  160.6310  211.7040  156.0370 C   0  0  0  0  0  0  0  0  0  0  0  0
  162.1890  208.2630  152.8070 O   0  0  0  0  0  0  0  0  0  0  0  0
  156.8710  213.1910  151.0790 O   0  0  0  0  0  0  0  0  0  0  0  0
  163.2350  210.6670  156.0400 C   0  0  0  0  0  3  0  0  0  0  0  0
  159.2130  213.3390  150.9370 N   0  0  0  0  0  0  0  0  0  0  0  0
  159.2850  212.3370  156.1340 C   0  0  0  0  0  2  0  0  0  0  0  0
  159.9210  208.4700  151.8550 O   0  0  0  0  0  0  0  0  0  0  0  0
  161.3090  209.0440  151.8740 S   0  0  0  0  0  0  0  0  0  0  0  0
  162.1800  210.2950  149.5780 C   0  0  0  0  0  0  0  0  0  0  0  0
  161.2790  210.7520  152.3340 C   0  0  1  0  0  3  0  0  0  0  0  0
  156.0590  211.2460  154.6570 O   0  0  0  0  0  1  0  0  0  0  0  0
  159.7620  212.4800  153.0920 C   0  0  1  0  0  3  0  0  0  0  0  0
  161.6820  211.5040  150.0950 O   0  0  0  0  0  0  0  0  0  0  0  0
  161.9810  209.0530  150.2750 N   0  0  0  0  0  2  0  0  0  0  0  0
  157.0230  212.1420  155.1200 C   0  0  2  0  0  3  0  0  0  0  0  0
  161.1840  211.2160  154.8190 C   0  0  0  0  0  0  0  0  0  0  0  0
  158.0080  213.0000  151.5900 C   0  0  0  0  0  0  0  0  0  0  0  0
  162.8230  210.3030  148.4970 O   0  0  0  0  0  0  0  0  0  0  0  0
  157.4620  213.0740  153.9860 C   0  0  0  0  0  2  0  0  0  0  0  0
  162.4910  210.6890  154.8600 C   0  0  0  0  0  3  0  0  0  0  0  0
  161.3910  211.6810  157.2130 C   0  0  0  0  0  3  0  0  0  0  0  0
  162.6840  211.1630  157.2170 C   0  0  0  0  0  3  0  0  0  0  0  0
  158.1850  211.3720  155.7320 C   0  0  0  0  0  2  0  0  0  0  0  0
  160.3370  212.8350  151.6980 C   0  0  1  0  0  3  0  0  0  0  0  0
  158.2330  212.3410  152.8950 C   0  0  2  0  0  3  0  0  0  0  0  0
  160.7350  211.4850  151.1570 C   0  0  2  0  0  3  0  0  0  0  0  0
  159.3040  213.8470  149.5780 C   0  0  0  0  0  1  0  0  0  0  0  0
  160.3860  211.1310  153.5130 C   0  0  2  0  0  3  0  0  0  0  0  0
  1  6  1  0  0  0  0
  1 21  1  0  0  0  0
  3 17  2  0  0  0  0
  4 22  1  0  0  0  0
  5 17  1  0  0  0  0
  5 24  1  0  0  0  0
  7  8  2  0  0  0  0
  8  2  2  0  0  0  0
  9 13  1  0  0  0  0
  9 14  1  0  0  0  0
 10  8  1  6  0  0  0
 10 28  1  0  0  0  0
 11 15  1  0  0  0  0
 12 28  1  0  0  0  0
 13 26  1  0  0  0  0
 14  8  1  0  0  0  0
 15 23  1  0  0  0  0
 16 20  1  0  0  0  0
 16  1  2  0  0  0  0
 17 25  1  0  0  0  0
 18  9  2  0  0  0  0
 19 15  1  0  0  0  0
 20  4  2  0  0  0  0
 21 22  2  0  0  0  0
 23  6  1  0  0  0  0
 24 12  1  0  0  0  0
 25 12  1  0  0  0  0
 25 19  1  0  0  0  0
 26 24  1  0  0  0  0
 26 10  1  0  0  0  0
 27  5  1  0  0  0  0
 28 16  1  0  0  0  0
M  END
>  <MODEL>
3

>  <REMARK>
 VINA RESULT:      -2.8      2.774      6.366
  Name = 
  0 active torsions:
  status: ('A' for Active; 'I' for Inactive)
                            x       y       z     vdW  Elec       q    Type
                         _______ _______ _______ _____ _____    ______ ____

>  <TORSDO>
F 0

$$$$
