=
 OpenBabel11122414083D

 28 32  0  0  1  0  0  0  0  0999 V2000
  159.4610  210.8650  139.4630 C   0  0  0  0  0  0  0  0  0  0  0  0
  159.7620  214.0340  143.4170 F   0  0  0  0  0  0  0  0  0  0  0  0
  163.1860  213.5930  137.9570 O   0  0  0  0  0  0  0  0  0  0  0  0
  161.5250  209.0030  139.8480 C   0  0  0  0  0  3  0  0  0  0  0  0
  163.2670  214.0060  140.3140 C   0  0  0  0  0  0  0  0  0  0  0  0
  158.3840  211.8700  139.1910 C   0  0  0  0  0  2  0  0  0  0  0  0
  159.3160  211.9090  144.3440 C   0  0  0  0  0  1  0  0  0  0  0  0
  160.3770  212.8560  143.8150 C   0  0  1  0  0  0  0  0  0  0  0  0
  162.5210  213.9460  144.3610 C   0  0  1  0  0  3  0  0  0  0  0  0
  161.1200  212.1810  142.6400 C   0  0  2  0  0  3  0  0  0  0  0  0
  160.7170  212.0630  137.0110 O   0  0  0  0  0  1  0  0  0  0  0  0
  160.9310  213.6620  140.6940 C   0  0  1  0  0  3  0  0  0  0  0  0
  163.2640  213.0930  143.5150 O   0  0  0  0  0  0  0  0  0  0  0  0
  161.3410  213.1850  144.9500 C   0  0  0  0  0  2  0  0  0  0  0  0
  159.7520  213.0290  137.3190 C   0  0  2  0  0  3  0  0  0  0  0  0
  160.4570  211.1220  140.4270 C   0  0  0  0  0  0  0  0  0  0  0  0
  162.6170  213.6960  139.0720 C   0  0  0  0  0  0  0  0  0  0  0  0
  163.3490  214.4370  145.3660 O   0  0  0  0  0  1  0  0  0  0  0  0
  160.2810  214.0920  138.2750 C   0  0  0  0  0  2  0  0  0  0  0  0
  161.5030  210.1910  140.5850 C   0  0  0  0  0  3  0  0  0  0  0  0
  159.4830  209.6620  138.7400 C   0  0  0  0  0  3  0  0  0  0  0  0
  160.5080  208.7400  138.9310 C   0  0  0  0  0  3  0  0  0  0  0  0
  158.4230  212.3870  137.7510 C   0  0  0  0  0  2  0  0  0  0  0  0
  162.2690  213.9780  141.4160 C   0  0  1  0  0  3  0  0  0  0  0  0
  161.2180  213.5460  139.2570 N   0  0  0  0  0  0  0  0  0  0  0  0
  162.4940  212.8070  142.3580 C   0  0  2  0  0  3  0  0  0  0  0  0
  164.4390  214.4530  140.4170 O   0  0  0  0  0  0  0  0  0  0  0  0
  160.3730  212.3570  141.3180 C   0  0  1  0  0  3  0  0  0  0  0  0
  1 16  1  0  0  0  0
  2  8  1  0  0  0  0
  3 17  2  0  0  0  0
  4 20  1  0  0  0  0
  5 27  2  0  0  0  0
  5 24  1  0  0  0  0
  6  1  1  0  0  0  0
  8  7  1  1  0  0  0
  8 14  1  0  0  0  0
  9 14  1  0  0  0  0
  9 18  1  1  0  0  0
 10  8  1  0  0  0  0
 11 15  1  0  0  0  0
 12 28  1  0  0  0  0
 12 24  1  0  0  0  0
 13  9  1  0  0  0  0
 15 23  1  0  0  0  0
 15 19  1  0  0  0  0
 16 20  2  0  0  0  0
 16 28  1  0  0  0  0
 17 25  1  0  0  0  0
 17  5  1  0  0  0  0
 19 25  1  0  0  0  0
 21 22  1  0  0  0  0
 21  1  2  0  0  0  0
 22  4  2  0  0  0  0
 23  6  1  0  0  0  0
 24 26  1  0  0  0  0
 25 12  1  0  0  0  0
 26 10  1  0  0  0  0
 26 13  1  0  0  0  0
 28 10  1  0  0  0  0
M  END
>  <MODEL>
1

>  <REMARK>
 VINA RESULT:      -5.0      0.000      0.000
  Name = 
  0 active torsions:
  status: ('A' for Active; 'I' for Inactive)
                            x       y       z     vdW  Elec       q    Type
                         _______ _______ _______ _____ _____    ______ ____

>  <TORSDO>
F 0

$$$$
=
 OpenBabel11122414083D

 28 32  0  0  1  0  0  0  0  0999 V2000
  160.8430  208.9600  156.1820 C   0  0  0  0  0  0  0  0  0  0  0  0
  157.2450  211.3700  153.5340 F   0  0  0  0  0  0  0  0  0  0  0  0
  162.7240  208.4610  151.7330 O   0  0  0  0  0  0  0  0  0  0  0  0
  162.9510  210.7990  156.4110 C   0  0  0  0  0  3  0  0  0  0  0  0
  161.2730  210.3330  151.3860 C   0  0  0  0  0  0  0  0  0  0  0  0
  159.7640  207.9310  156.0350 C   0  0  0  0  0  2  0  0  0  0  0  0
  157.5340  212.6380  155.5040 C   0  0  0  0  0  1  0  0  0  0  0  0
  158.0370  212.3570  154.1010 C   0  0  1  0  0  0  0  0  0  0  0  0
  158.5930  213.4070  151.9390 C   0  0  1  0  0  3  0  0  0  0  0  0
  159.5190  211.9220  154.1700 C   0  0  2  0  0  3  0  0  0  0  0  0
  162.4000  207.0760  154.4370 O   0  0  0  0  0  1  0  0  0  0  0  0
  159.7000  209.7300  153.0850 C   0  0  1  0  0  3  0  0  0  0  0  0
  159.9850  213.3050  152.1530 O   0  0  0  0  0  0  0  0  0  0  0  0
  157.8820  213.6250  153.2680 C   0  0  0  0  0  2  0  0  0  0  0  0
  161.0970  206.5930  154.2600 C   0  0  2  0  0  3  0  0  0  0  0  0
  160.8390  210.1230  155.3860 C   0  0  0  0  0  0  0  0  0  0  0  0
  161.6840  209.1080  152.0120 C   0  0  0  0  0  0  0  0  0  0  0  0
  158.3360  214.4530  151.0590 O   0  0  0  0  0  1  0  0  0  0  0  0
  160.3760  207.2810  153.1070 C   0  0  0  0  0  2  0  0  0  0  0  0
  161.9210  211.0190  155.4900 C   0  0  0  0  0  3  0  0  0  0  0  0
  161.8710  208.7560  157.1150 C   0  0  0  0  0  3  0  0  0  0  0  0
  162.9180  209.6680  157.2270 C   0  0  0  0  0  3  0  0  0  0  0  0
  160.3140  206.5750  155.5840 C   0  0  0  0  0  2  0  0  0  0  0  0
  160.0250  210.8220  152.0290 C   0  0  1  0  0  3  0  0  0  0  0  0
  160.7360  208.6930  152.9830 N   0  0  0  0  0  0  0  0  0  0  0  0
  160.2590  212.0900  152.8340 C   0  0  2  0  0  3  0  0  0  0  0  0
  161.7590  210.7920  150.3200 O   0  0  0  0  0  0  0  0  0  0  0  0
  159.6610  210.4300  154.4670 C   0  0  1  0  0  3  0  0  0  0  0  0
  1 21  1  0  0  0  0
  2  8  1  0  0  0  0
  3 17  2  0  0  0  0
  4 22  1  0  0  0  0
  5 17  1  0  0  0  0
  5 24  1  0  0  0  0
  6  1  1  0  0  0  0
  8 10  1  0  0  0  0
  8  7  1  1  0  0  0
  9 18  1  6  0  0  0
  9 13  1  0  0  0  0
  9 14  1  0  0  0  0
 10 28  1  0  0  0  0
 12 28  1  0  0  0  0
 13 26  1  0  0  0  0
 14  8  1  0  0  0  0
 15 11  1  0  0  0  0
 15 23  1  0  0  0  0
 16 20  1  0  0  0  0
 16  1  2  0  0  0  0
 17 25  1  0  0  0  0
 19 15  1  0  0  0  0
 20  4  2  0  0  0  0
 21 22  2  0  0  0  0
 23  6  1  0  0  0  0
 24 26  1  0  0  0  0
 24 12  1  0  0  0  0
 25 12  1  0  0  0  0
 25 19  1  0  0  0  0
 26 10  1  0  0  0  0
 27  5  2  0  0  0  0
 28 16  1  0  0  0  0
M  END
>  <MODEL>
2

>  <REMARK>
 VINA RESULT:      -2.3     11.227     14.064
  Name = 
  0 active torsions:
  status: ('A' for Active; 'I' for Inactive)
                            x       y       z     vdW  Elec       q    Type
                         _______ _______ _______ _____ _____    ______ ____

>  <TORSDO>
F 0

$$$$
