=
 OpenBabel11122413363D

 37 43  0  0  1  0  0  0  0  0999 V2000
  160.8550  207.9670  150.8170 C   0  0  0  0  0  2  0  0  0  0  0  0
  160.8410  209.9310  155.5280 C   0  0  0  0  0  0  0  0  0  0  0  0
  160.2830  211.5720  151.6490 N   0  0  1  0  0  0  0  0  0  0  0  0
  160.8550  206.4410  150.6780 C   0  0  2  0  0  3  0  0  0  0  0  0
  162.2730  210.3430  148.7540 O   0  0  0  0  0  0  0  0  0  0  0  0
  159.7020  211.7270  154.0910 C   0  0  1  0  0  3  0  0  0  0  0  0
  161.4710  211.1210  150.9050 C   0  0  2  0  0  3  0  0  0  0  0  0
  162.5010  206.5760  148.6740 C   0  0  2  0  0  3  0  0  0  0  0  0
  160.7340  211.3850  153.0100 C   0  0  1  0  0  3  0  0  0  0  0  0
  161.1190  210.7200  149.4520 C   0  0  1  0  0  3  0  0  0  0  0  0
  158.4090  212.2510  153.4620 C   0  0  0  0  0  2  0  0  0  0  0  0
  162.0850  205.8560  149.9670 C   0  0  0  0  0  2  0  0  0  0  0  0
  161.2430  209.9960  153.0400 C   0  0  2  0  0  3  0  0  0  0  0  0
  160.5460  208.5770  156.1380 C   0  0  0  0  0  1  0  0  0  0  0  0
  159.7440  213.4400  150.0990 C   0  0  0  0  0  2  0  0  0  0  0  0
  158.7110  213.3180  152.3840 C   0  0  0  0  0  2  0  0  0  0  0  0
  161.8820  209.7400  154.3930 C   0  0  0  0  0  2  0  0  0  0  0  0
  162.9680  208.0410  148.8460 C   0  0  1  0  0  3  0  0  0  0  0  0
  161.9950  209.0670  148.2580 C   0  0  0  0  0  2  0  0  0  0  0  0
  159.9660  212.9970  151.5370 C   0  0  1  0  0  3  0  0  0  0  0  0
  162.1150  209.9930  151.8010 C   0  0  1  0  0  3  0  0  0  0  0  0
  159.4960  210.5600  155.0680 C   0  0  0  0  0  2  0  0  0  0  0  0
  160.3620  211.7970  148.6400 C   0  0  1  0  0  3  0  0  0  0  0  0
  161.4570  210.8090  156.6000 C   0  0  0  0  0  1  0  0  0  0  0  0
  163.3810  208.3760  150.2910 C   0  0  0  0  0  2  0  0  0  0  0  0
  161.5290  206.4280  147.6790 O   0  0  0  0  0  1  0  0  0  0  0  0
  162.2060  208.5510  151.2690 C   0  0  2  0  0  3  0  0  0  0  0  0
  159.2630  212.3890  149.3030 O   0  0  0  0  0  0  0  0  0  0  0  0
  162.1030  213.5920  148.3960 C   0  0  0  0  0  3  0  0  0  0  0  0
  161.1870  212.7300  147.7830 C   0  0  0  0  0  0  0  0  0  0  0  0
  161.0670  212.7280  146.3840 C   0  0  0  0  0  3  0  0  0  0  0  0
  161.6920  213.5840  143.8680 Cl  0  0  0  0  0  0  0  0  0  0  0  0
  162.7590  214.4520  146.2290 C   0  0  0  0  0  3  0  0  0  0  0  0
  161.8500  213.5890  145.6110 C   0  0  0  0  0  0  0  0  0  0  0  0
  162.8860  214.4530  147.6220 C   0  0  0  0  0  3  0  0  0  0  0  0
  159.7700  204.6370  149.9970 C   0  0  0  0  0  1  0  0  0  0  0  0
  159.6880  206.0300  150.0340 O   0  0  0  0  0  0  0  0  0  0  0  0
  1 27  1  0  0  0  0
  2 14  1  0  0  0  0
  2 24  1  0  0  0  0
  3  9  1  0  0  0  0
  4  1  1  0  0  0  0
  5 10  1  0  0  0  0
  6 22  1  0  0  0  0
  7  3  1  0  0  0  0
  7 21  1  0  0  0  0
  8 18  1  0  0  0  0
  8 12  1  0  0  0  0
  9 13  1  0  0  0  0
  9  6  1  0  0  0  0
 10  7  1  0  0  0  0
 11  6  1  0  0  0  0
 12  4  1  0  0  0  0
 13 17  1  0  0  0  0
 15 20  1  0  0  0  0
 16 11  1  0  0  0  0
 17  2  1  0  0  0  0
 18 25  1  0  0  0  0
 19  5  1  0  0  0  0
 19 18  1  0  0  0  0
 20  3  1  0  0  0  0
 20 16  1  0  0  0  0
 21 13  1  0  0  0  0
 22  2  1  0  0  0  0
 23 28  1  0  0  0  0
 23 10  1  0  0  0  0
 25 27  1  0  0  0  0
 26  8  1  0  0  0  0
 27 21  1  0  0  0  0
 28 15  1  0  0  0  0
 30 29  1  0  0  0  0
 30 23  1  0  0  0  0
 31 30  2  0  0  0  0
 32 34  1  0  0  0  0
 33 35  1  0  0  0  0
 34 33  2  0  0  0  0
 34 31  1  0  0  0  0
 35 29  2  0  0  0  0
 36 37  1  0  0  0  0
 37  4  1  0  0  0  0
M  END
>  <MODEL>
1

>  <REMARK>
 VINA RESULT:       1.0      0.000      0.000
  Name = 
  2 active torsions:
  status: ('A' for Active; 'I' for Inactive)
    1  A    between atoms: C_4  and  O_37
    2  A    between atoms: C_23  and  C_30
                            x       y       z     vdW  Elec       q    Type
                         _______ _______ _______ _____ _____    ______ ____

>  <TORSDO>
F 2

$$$$
=
 OpenBabel11122413363D

 37 43  0  0  1  0  0  0  0  0999 V2000
  160.7740  210.4990  147.8840 C   0  0  0  0  0  2  0  0  0  0  0  0
  162.3770  205.8190  146.6240 C   0  0  0  0  0  0  0  0  0  0  0  0
  161.2580  207.6660  150.2830 N   0  0  1  0  0  0  0  0  0  0  0  0
  160.3940  211.4540  146.7480 C   0  0  2  0  0  3  0  0  0  0  0  0
  162.1340  211.2160  150.9740 O   0  0  0  0  0  0  0  0  0  0  0  0
  161.3530  205.5300  148.9600 C   0  0  1  0  0  3  0  0  0  0  0  0
  162.0900  208.8800  150.3300 C   0  0  2  0  0  3  0  0  0  0  0  0
  161.4760  213.4530  148.0040 C   0  0  2  0  0  3  0  0  0  0  0  0
  161.9790  206.8870  149.3010 C   0  0  1  0  0  3  0  0  0  0  0  0
  161.3060  210.0900  150.8940 C   0  0  1  0  0  3  0  0  0  0  0  0
  160.0970  205.2820  149.7990 C   0  0  0  0  0  2  0  0  0  0  0  0
  161.2420  212.7330  146.6670 C   0  0  0  0  0  2  0  0  0  0  0  0
  162.1510  207.8080  148.1570 C   0  0  2  0  0  3  0  0  0  0  0  0
  161.9440  206.0120  145.1860 C   0  0  0  0  0  1  0  0  0  0  0  0
  160.7880  207.6220  152.7240 C   0  0  0  0  0  2  0  0  0  0  0  0
  160.3550  205.6080  151.2900 C   0  0  0  0  0  2  0  0  0  0  0  0
  163.0310  207.1370  147.1180 C   0  0  0  0  0  2  0  0  0  0  0  0
  162.2900  212.6620  149.0560 C   0  0  1  0  0  3  0  0  0  0  0  0
  161.4600  212.2110  150.2620 C   0  0  0  0  0  2  0  0  0  0  0  0
  161.2540  206.8500  151.5000 C   0  0  1  0  0  3  0  0  0  0  0  0
  162.6640  209.0440  148.8690 C   0  0  1  0  0  3  0  0  0  0  0  0
  161.1380  205.3680  147.4470 C   0  0  0  0  0  2  0  0  0  0  0  0
  160.6350  209.8530  152.2670 C   0  0  1  0  0  3  0  0  0  0  0  0
  163.4220  204.7210  146.6600 C   0  0  0  0  0  1  0  0  0  0  0  0
  163.1140  211.5150  148.4420 C   0  0  0  0  0  2  0  0  0  0  0  0
  160.2800  213.9660  148.5160 O   0  0  0  0  0  1  0  0  0  0  0  0
  162.2910  210.2810  148.0340 C   0  0  2  0  0  3  0  0  0  0  0  0
  159.8990  208.6520  152.3790 O   0  0  0  0  0  0  0  0  0  0  0  0
  162.8090  210.2680  153.4570 C   0  0  0  0  0  3  0  0  0  0  0  0
  161.4100  210.2610  153.5000 C   0  0  0  0  0  0  0  0  0  0  0  0
  160.7520  210.6550  154.6750 C   0  0  0  0  0  3  0  0  0  0  0  0
  160.6600  211.5270  157.2610 Cl  0  0  0  0  0  0  0  0  0  0  0  0
  162.8860  211.0410  155.7510 C   0  0  0  0  0  3  0  0  0  0  0  0
  161.4880  211.0410  155.7970 C   0  0  0  0  0  0  0  0  0  0  0  0
  163.5450  210.6550  154.5800 C   0  0  0  0  0  3  0  0  0  0  0  0
  158.7680  212.5210  145.6930 C   0  0  0  0  0  1  0  0  0  0  0  0
  159.0410  211.7830  146.8460 O   0  0  0  0  0  0  0  0  0  0  0  0
  1 27  1  0  0  0  0
  2 24  1  0  0  0  0
  2 17  1  0  0  0  0
  2 22  1  0  0  0  0
  3  7  1  0  0  0  0
  3 20  1  0  0  0  0
  4 37  1  0  0  0  0
  4  1  1  0  0  0  0
  6  9  1  0  0  0  0
  6 11  1  0  0  0  0
  7 10  1  0  0  0  0
  8 26  1  0  0  0  0
  8 18  1  0  0  0  0
  9  3  1  0  0  0  0
 10  5  1  0  0  0  0
 10 23  1  0  0  0  0
 11 16  1  0  0  0  0
 12  4  1  0  0  0  0
 12  8  1  0  0  0  0
 13 21  1  0  0  0  0
 13  9  1  0  0  0  0
 14  2  1  0  0  0  0
 16 20  1  0  0  0  0
 17 13  1  0  0  0  0
 18 19  1  0  0  0  0
 19  5  1  0  0  0  0
 20 15  1  0  0  0  0
 21  7  1  0  0  0  0
 22  6  1  0  0  0  0
 23 28  1  0  0  0  0
 23 30  1  0  0  0  0
 25 18  1  0  0  0  0
 27 25  1  0  0  0  0
 27 21  1  0  0  0  0
 28 15  1  0  0  0  0
 29 30  2  0  0  0  0
 29 35  1  0  0  0  0
 30 31  1  0  0  0  0
 31 34  2  0  0  0  0
 33 34  1  0  0  0  0
 34 32  1  0  0  0  0
 35 33  2  0  0  0  0
 36 37  1  0  0  0  0
M  END
>  <MODEL>
2

>  <REMARK>
 VINA RESULT:       1.1      3.000      7.279
  Name = 
  2 active torsions:
  status: ('A' for Active; 'I' for Inactive)
    1  A    between atoms: C_4  and  O_37
    2  A    between atoms: C_23  and  C_30
                            x       y       z     vdW  Elec       q    Type
                         _______ _______ _______ _____ _____    ______ ____

>  <TORSDO>
F 2

$$$$
=
 OpenBabel11122413363D

 37 43  0  0  1  0  0  0  0  0999 V2000
  160.5880  209.0160  151.6630 C   0  0  0  0  0  2  0  0  0  0  0  0
  159.3300  211.9980  155.6100 C   0  0  0  0  0  0  0  0  0  0  0  0
  159.3600  212.5420  151.3960 N   0  0  1  0  0  0  0  0  0  0  0  0
  160.8290  207.5280  151.9390 C   0  0  2  0  0  3  0  0  0  0  0  0
  162.0550  211.0610  149.3010 O   0  0  0  0  0  0  0  0  0  0  0  0
  158.2720  213.1570  153.5790 C   0  0  1  0  0  3  0  0  0  0  0  0
  160.7270  212.1600  151.0050 C   0  0  2  0  0  3  0  0  0  0  0  0
  162.8170  207.4920  150.2690 C   0  0  2  0  0  3  0  0  0  0  0  0
  159.5420  212.7700  152.8120 C   0  0  1  0  0  3  0  0  0  0  0  0
  160.7410  211.3680  149.6750 C   0  0  1  0  0  3  0  0  0  0  0  0
  157.0760  213.2660  152.6300 C   0  0  0  0  0  2  0  0  0  0  0  0
  162.2480  207.0330  151.6200 C   0  0  0  0  0  2  0  0  0  0  0  0
  160.2220  211.5480  153.2950 C   0  0  2  0  0  3  0  0  0  0  0  0
  159.1060  210.7950  156.5020 C   0  0  0  0  0  1  0  0  0  0  0  0
  158.8970  213.8570  149.3380 C   0  0  0  0  0  2  0  0  0  0  0  0
  157.4420  214.0860  151.3700 C   0  0  0  0  0  2  0  0  0  0  0  0
  160.5980  211.7420  154.7530 C   0  0  0  0  0  2  0  0  0  0  0  0
  163.0300  209.0170  150.1180 C   0  0  1  0  0  3  0  0  0  0  0  0
  162.0660  209.6750  149.1260 C   0  0  0  0  0  2  0  0  0  0  0  0
  158.8770  213.8160  150.8570 C   0  0  1  0  0  3  0  0  0  0  0  0
  161.3230  211.4160  152.2630 C   0  0  1  0  0  3  0  0  0  0  0  0
  158.0330  212.2370  154.7850 C   0  0  0  0  0  2  0  0  0  0  0  0
  160.0250  212.0620  148.4920 C   0  0  1  0  0  3  0  0  0  0  0  0
  159.5820  213.2030  156.4950 C   0  0  0  0  0  1  0  0  0  0  0  0
  163.0850  209.7550  151.4680 C   0  0  0  0  0  2  0  0  0  0  0  0
  162.1020  206.9340  149.2050 O   0  0  0  0  0  1  0  0  0  0  0  0
  161.7220  209.9330  152.1570 C   0  0  2  0  0  3  0  0  0  0  0  0
  158.7410  212.5770  148.7830 O   0  0  0  0  0  0  0  0  0  0  0  0
  161.9090  213.6760  148.0960 C   0  0  0  0  0  3  0  0  0  0  0  0
  160.8720  212.9040  147.5630 C   0  0  0  0  0  0  0  0  0  0  0  0
  160.6490  212.9040  146.1780 C   0  0  0  0  0  3  0  0  0  0  0  0
  161.1650  213.6780  143.6110 Cl  0  0  0  0  0  0  0  0  0  0  0  0
  162.4840  214.4530  145.8760 C   0  0  0  0  0  3  0  0  0  0  0  0
  161.4520  213.6790  145.3380 C   0  0  0  0  0  0  0  0  0  0  0  0
  162.7130  214.4510  147.2550 C   0  0  0  0  0  3  0  0  0  0  0  0
  160.3740  205.4580  151.3040 C   0  0  0  0  0  1  0  0  0  0  0  0
  159.8890  206.7650  151.2460 O   0  0  0  0  0  0  0  0  0  0  0  0
  1  4  1  0  0  0  0
  1 27  1  0  0  0  0
  2 24  1  0  0  0  0
  2 14  1  0  0  0  0
  3  9  1  0  0  0  0
  5 10  1  0  0  0  0
  6 22  1  0  0  0  0
  7  3  1  0  0  0  0
  7 21  1  0  0  0  0
  8 12  1  0  0  0  0
  9 13  1  0  0  0  0
  9  6  1  0  0  0  0
 10  7  1  0  0  0  0
 11  6  1  0  0  0  0
 12  4  1  0  0  0  0
 13 17  1  0  0  0  0
 15 20  1  0  0  0  0
 16 11  1  0  0  0  0
 17  2  1  0  0  0  0
 18  8  1  0  0  0  0
 18 25  1  0  0  0  0
 19  5  1  0  0  0  0
 19 18  1  0  0  0  0
 20 16  1  0  0  0  0
 20  3  1  0  0  0  0
 21 13  1  0  0  0  0
 22  2  1  0  0  0  0
 23 28  1  0  0  0  0
 23 10  1  0  0  0  0
 25 27  1  0  0  0  0
 26  8  1  0  0  0  0
 27 21  1  0  0  0  0
 28 15  1  0  0  0  0
 30 29  1  0  0  0  0
 30 23  1  0  0  0  0
 31 30  2  0  0  0  0
 32 34  1  0  0  0  0
 33 35  1  0  0  0  0
 34 33  2  0  0  0  0
 34 31  1  0  0  0  0
 35 29  2  0  0  0  0
 37 36  1  0  0  0  0
 37  4  1  0  0  0  0
M  END
>  <MODEL>
3

>  <REMARK>
 VINA RESULT:       1.5      1.296      1.608
  Name = 
  2 active torsions:
  status: ('A' for Active; 'I' for Inactive)
    1  A    between atoms: C_4  and  O_37
    2  A    between atoms: C_23  and  C_30
                            x       y       z     vdW  Elec       q    Type
                         _______ _______ _______ _____ _____    ______ ____

>  <TORSDO>
F 2

$$$$
=
 OpenBabel11122413363D

 37 43  0  0  1  0  0  0  0  0999 V2000
  161.8180  210.2610  154.6510 C   0  0  0  0  0  2  0  0  0  0  0  0
  162.2820  205.9080  152.0260 C   0  0  0  0  0  0  0  0  0  0  0  0
  161.1260  209.8640  150.9930 N   0  0  1  0  0  0  0  0  0  0  0  0
  162.3790  210.3010  156.0750 C   0  0  2  0  0  3  0  0  0  0  0  0
  159.1000  211.9310  153.3320 O   0  0  0  0  0  0  0  0  0  0  0  0
  162.2110  207.7310  150.2210 C   0  0  1  0  0  3  0  0  0  0  0  0
  160.0610  210.1800  151.9590 C   0  0  2  0  0  3  0  0  0  0  0  0
  160.3550  211.7100  156.8860 C   0  0  2  0  0  3  0  0  0  0  0  0
  161.1540  208.4220  151.0900 C   0  0  1  0  0  3  0  0  0  0  0  0
  160.1520  211.6440  152.4540 C   0  0  1  0  0  3  0  0  0  0  0  0
  162.9840  208.7560  149.3870 C   0  0  0  0  0  2  0  0  0  0  0  0
  161.3390  210.5660  157.1740 C   0  0  0  0  0  2  0  0  0  0  0  0
  161.2570  208.1540  152.5410 C   0  0  2  0  0  3  0  0  0  0  0  0
  163.2310  205.3380  153.0590 C   0  0  0  0  0  1  0  0  0  0  0  0
  160.4670  211.6140  149.3550 C   0  0  0  0  0  2  0  0  0  0  0  0
  162.0200  209.7530  148.7020 C   0  0  0  0  0  2  0  0  0  0  0  0
  161.1440  206.6570  152.7700 C   0  0  0  0  0  2  0  0  0  0  0  0
  159.4130  211.4920  155.6780 C   0  0  1  0  0  3  0  0  0  0  0  0
  159.7170  212.4110  154.4900 C   0  0  0  0  0  2  0  0  0  0  0  0
  160.8180  210.1540  149.5910 C   0  0  1  0  0  3  0  0  0  0  0  0
  160.1670  209.0630  153.0700 C   0  0  1  0  0  3  0  0  0  0  0  0
  163.1040  206.7950  151.0490 C   0  0  0  0  0  2  0  0  0  0  0  0
  160.1880  212.7120  151.3360 C   0  0  1  0  0  3  0  0  0  0  0  0
  161.6720  204.7540  151.2550 C   0  0  0  0  0  1  0  0  0  0  0  0
  159.2920  210.0130  155.2670 C   0  0  0  0  0  2  0  0  0  0  0  0
  161.0120  212.9430  156.8470 O   0  0  0  0  0  1  0  0  0  0  0  0
  160.5130  209.4540  154.5180 C   0  0  2  0  0  3  0  0  0  0  0  0
  161.0980  212.4550  150.2850 O   0  0  0  0  0  0  0  0  0  0  0  0
  158.6830  213.7070  149.5880 C   0  0  0  0  0  3  0  0  0  0  0  0
  158.8710  213.3310  150.9220 C   0  0  0  0  0  0  0  0  0  0  0  0
  157.8310  213.5110  151.8470 C   0  0  0  0  0  3  0  0  0  0  0  0
  155.3280  214.2990  152.5990 Cl  0  0  0  0  0  0  0  0  0  0  0  0
  156.4370  214.4530  150.1070 C   0  0  0  0  0  3  0  0  0  0  0  0
  156.6190  214.0730  151.4400 C   0  0  0  0  0  0  0  0  0  0  0  0
  157.4690  214.2690  149.1810 C   0  0  0  0  0  3  0  0  0  0  0  0
  164.1670  210.8630  157.2530 C   0  0  0  0  0  1  0  0  0  0  0  0
  163.4040  211.2460  156.1480 O   0  0  0  0  0  0  0  0  0  0  0  0
  1  4  1  0  0  0  0
  2 17  1  0  0  0  0
  2 14  1  0  0  0  0
  3  9  1  0  0  0  0
  3  7  1  0  0  0  0
  4 37  1  0  0  0  0
  4 12  1  0  0  0  0
  5 19  1  0  0  0  0
  6 22  1  0  0  0  0
  6  9  1  0  0  0  0
  7 10  1  0  0  0  0
  7 21  1  0  0  0  0
  8 12  1  0  0  0  0
  9 13  1  0  0  0  0
 10  5  1  0  0  0  0
 11  6  1  0  0  0  0
 13 17  1  0  0  0  0
 13 21  1  0  0  0  0
 15 20  1  0  0  0  0
 15 28  1  0  0  0  0
 16 11  1  0  0  0  0
 16 20  1  0  0  0  0
 18  8  1  0  0  0  0
 19 18  1  0  0  0  0
 20  3  1  0  0  0  0
 21 27  1  0  0  0  0
 22  2  1  0  0  0  0
 23 10  1  0  0  0  0
 24  2  1  0  0  0  0
 25 18  1  0  0  0  0
 26  8  1  0  0  0  0
 27  1  1  0  0  0  0
 27 25  1  0  0  0  0
 28 23  1  0  0  0  0
 29 30  1  0  0  0  0
 30 23  1  0  0  0  0
 30 31  2  0  0  0  0
 33 34  2  0  0  0  0
 34 31  1  0  0  0  0
 34 32  1  0  0  0  0
 35 29  2  0  0  0  0
 35 33  1  0  0  0  0
 37 36  1  0  0  0  0
M  END
>  <MODEL>
4

>  <REMARK>
 VINA RESULT:       1.7      3.054      6.333
  Name = 
  2 active torsions:
  status: ('A' for Active; 'I' for Inactive)
    1  A    between atoms: C_4  and  O_37
    2  A    between atoms: C_23  and  C_30
                            x       y       z     vdW  Elec       q    Type
                         _______ _______ _______ _____ _____    ______ ____

>  <TORSDO>
F 2

$$$$
