=
 OpenBabel11122414163D

 34 41  0  0  1  0  0  0  0  0999 V2000
  162.0600  207.7990  149.8310 C   0  0  0  0  0  0  0  0  0  0  0  0
  162.3120  210.1580  150.7580 C   0  0  0  0  0  2  0  0  0  0  0  0
  160.6570  201.3010  150.6700 C   0  0  2  0  0  3  0  0  0  0  0  0
  161.5270  205.5900  149.0320 C   0  0  0  0  0  0  0  0  0  0  0  0
  160.3730  203.8790  150.5700 C   0  0  1  0  0  3  0  0  0  0  0  0
  162.2560  202.3270  151.3160 C   0  0  0  0  0  2  0  0  0  0  0  0
  162.0500  201.1180  150.6220 O   0  0  0  0  0  0  0  0  0  0  0  0
  160.8520  201.9340  148.1800 C   0  0  0  0  0  2  0  0  0  0  0  0
  162.1650  208.2960  152.2930 C   0  0  2  0  0  3  0  0  0  0  0  0
  159.8660  208.7420  154.3700 O   0  0  0  0  0  0  0  0  0  0  0  0
  160.1760  205.0850  151.4970 C   0  0  0  0  0  2  0  0  0  0  0  0
  160.6070  203.4330  148.1080 C   0  0  0  0  0  2  0  0  0  0  0  0
  161.1200  207.1850  152.4770 C   0  0  1  0  0  3  0  0  0  0  0  0
  162.3550  210.7170  152.1760 C   0  0  0  0  0  2  0  0  0  0  0  0
  161.2310  204.1340  149.3040 C   0  0  1  0  0  3  0  0  0  0  0  0
  160.0080  201.2840  149.2730 C   0  0  0  0  0  2  0  0  0  0  0  0
  160.4610  209.7920  153.6120 C   0  0  1  0  0  3  0  0  0  0  0  0
  161.6550  206.4840  150.1040 C   0  0  0  0  0  0  0  0  0  0  0  0
  160.7770  202.6350  151.3830 C   0  0  2  0  0  3  0  0  0  0  0  0
  161.3890  206.0140  151.5170 C   0  0  2  0  0  3  0  0  0  0  0  0
  162.1500  207.3060  147.5210 C   0  0  0  0  0  3  0  0  0  0  0  0
  160.8340  207.8700  154.9000 C   0  0  0  0  0  2  0  0  0  0  0  0
  161.7910  206.0190  147.7670 N   0  0  0  0  0  0  0  0  0  0  0  0
  161.0740  206.7070  153.9340 C   0  0  0  0  0  2  0  0  0  0  0  0
  161.9220  209.5780  153.1000 C   0  0  1  0  0  3  0  0  0  0  0  0
  162.2830  208.1860  148.5470 N   0  0  0  0  0  0  0  0  0  0  0  0
  162.2240  208.7210  150.9110 N   0  0  0  0  0  0  0  0  0  0  0  0
  159.6110  210.1180  152.5510 O   0  0  0  0  0  0  0  0  0  0  0  0
  158.7150  211.0490  153.0800 C   0  0  0  0  0  2  0  0  0  0  0  0
  158.3320  213.8510  151.3460 N   0  0  0  0  0  2  0  0  0  0  0  0
  158.3640  213.4430  153.6050 C   0  0  0  0  0  2  0  0  0  0  0  0
  159.3080  212.4430  152.9930 C   0  0  0  0  0  3  0  0  0  0  0  0
  158.0930  214.4530  152.5940 N   0  0  0  0  0  2  0  0  0  0  0  0
  159.3840  212.8680  151.5530 C   0  0  0  0  0  2  0  0  0  0  0  0
  1 18  1  0  0  0  0
  1 27  1  0  0  0  0
  2 27  1  0  0  0  0
  2 14  1  0  0  0  0
  3 16  1  6  0  0  0
  3 19  1  0  0  0  0
  4 15  1  0  0  0  0
  4 18  2  0  0  0  0
  5 19  1  0  0  0  0
  5 11  1  1  0  0  0
  7  3  1  0  0  0  0
  7  6  1  0  0  0  0
  8 16  1  0  0  0  0
  9 27  1  6  0  0  0
  9 13  1  0  0  0  0
  9 25  1  0  0  0  0
 10 22  1  0  0  0  0
 12  8  1  0  0  0  0
 13 24  1  1  0  0  0
 15 12  1  6  0  0  0
 15  5  1  0  0  0  0
 17 28  1  6  0  0  0
 17 10  1  0  0  0  0
 18 20  1  0  0  0  0
 19  6  1  6  0  0  0
 20 11  1  6  0  0  0
 20 13  1  0  0  0  0
 21 23  2  0  0  0  0
 21 26  1  0  0  0  0
 23  4  1  0  0  0  0
 24 22  1  0  0  0  0
 25 14  1  6  0  0  0
 25 17  1  0  0  0  0
 26  1  2  0  0  0  0
 28 29  1  0  0  0  0
 30 34  1  0  0  0  0
 30 33  1  0  0  0  0
 32 29  1  0  0  0  0
 32 31  1  0  0  0  0
 33 31  1  0  0  0  0
 34 32  1  0  0  0  0
M  END
>  <MODEL>
1

>  <REMARK>
 VINA RESULT:      -7.3      0.000      0.000
  Name = 
  3 active torsions:
  status: ('A' for Active; 'I' for Inactive)
    1  A    between atoms: C_17  and  O_28
    2  A    between atoms: O_28  and  C_29
    3  A    between atoms: C_29  and  C_32
                            x       y       z     vdW  Elec       q    Type
                         _______ _______ _______ _____ _____    ______ ____

>  <TORSDO>
F 3

$$$$
=
 OpenBabel11122414163D

 34 41  0  0  1  0  0  0  0  0999 V2000
  161.8810  208.4000  151.4220 C   0  0  0  0  0  0  0  0  0  0  0  0
  161.9460  210.5040  152.8570 C   0  0  0  0  0  2  0  0  0  0  0  0
  160.8190  201.8200  150.7310 C   0  0  2  0  0  3  0  0  0  0  0  0
  161.5210  206.4010  150.1280 C   0  0  0  0  0  0  0  0  0  0  0  0
  160.3910  204.3410  151.1780 C   0  0  1  0  0  3  0  0  0  0  0  0
  162.3200  202.7500  151.6850 C   0  0  0  0  0  2  0  0  0  0  0  0
  162.2210  201.7170  150.7320 O   0  0  0  0  0  0  0  0  0  0  0  0
  161.1070  202.9980  148.4560 C   0  0  0  0  0  2  0  0  0  0  0  0
  161.8290  208.3430  153.9350 C   0  0  2  0  0  3  0  0  0  0  0  0
  159.4020  208.2130  155.9090 O   0  0  0  0  0  0  0  0  0  0  0  0
  160.0750  205.3020  152.3320 C   0  0  0  0  0  2  0  0  0  0  0  0
  160.7780  204.4630  148.6980 C   0  0  0  0  0  2  0  0  0  0  0  0
  160.8420  207.1730  153.8050 C   0  0  1  0  0  3  0  0  0  0  0  0
  161.8830  210.7360  154.3630 C   0  0  0  0  0  2  0  0  0  0  0  0
  161.2970  204.9090  150.0560 C   0  0  1  0  0  3  0  0  0  0  0  0
  160.2460  202.0840  149.3250 C   0  0  0  0  0  2  0  0  0  0  0  0
  159.9740  209.4310  155.4380 C   0  0  1  0  0  3  0  0  0  0  0  0
  161.5400  207.0400  151.3750 C   0  0  0  0  0  0  0  0  0  0  0  0
  160.8240  202.9670  151.7230 C   0  0  2  0  0  3  0  0  0  0  0  0
  161.2290  206.2570  152.6320 C   0  0  2  0  0  3  0  0  0  0  0  0
  162.1210  208.4360  149.0720 C   0  0  0  0  0  3  0  0  0  0  0  0
  160.3900  207.2900  156.2960 C   0  0  0  0  0  2  0  0  0  0  0  0
  161.8250  207.1110  149.0070 N   0  0  0  0  0  0  0  0  0  0  0  0
  160.7490  206.3820  155.1160 C   0  0  0  0  0  2  0  0  0  0  0  0
  161.4700  209.4020  154.9860 C   0  0  1  0  0  3  0  0  0  0  0  0
  162.1480  209.0720  150.2710 N   0  0  0  0  0  0  0  0  0  0  0  0
  161.9350  209.0660  152.6870 N   0  0  0  0  0  0  0  0  0  0  0  0
  159.1630  209.9450  154.4220 O   0  0  0  0  0  0  0  0  0  0  0  0
  158.2970  210.8320  155.0660 C   0  0  0  0  0  2  0  0  0  0  0  0
  158.8680  213.8450  153.8000 N   0  0  0  0  0  2  0  0  0  0  0  0
  158.5320  211.8050  152.8010 C   0  0  0  0  0  2  0  0  0  0  0  0
  157.6980  211.7920  154.0540 C   0  0  0  0  0  3  0  0  0  0  0  0
  158.9230  213.1860  152.5600 N   0  0  0  0  0  2  0  0  0  0  0  0
  157.8150  213.2000  154.5680 C   0  0  0  0  0  2  0  0  0  0  0  0
  1 27  1  0  0  0  0
  2 14  1  0  0  0  0
  3 16  1  6  0  0  0
  3  7  1  0  0  0  0
  3 19  1  0  0  0  0
  4 18  2  0  0  0  0
  5 19  1  0  0  0  0
  5 11  1  1  0  0  0
  7  6  1  0  0  0  0
  8 12  1  0  0  0  0
  8 16  1  0  0  0  0
  9 27  1  6  0  0  0
  9 25  1  0  0  0  0
 10 22  1  0  0  0  0
 13  9  1  0  0  0  0
 13 24  1  1  0  0  0
 15 12  1  6  0  0  0
 15  4  1  0  0  0  0
 15  5  1  0  0  0  0
 17 28  1  6  0  0  0
 17 10  1  0  0  0  0
 18  1  1  0  0  0  0
 18 20  1  0  0  0  0
 19  6  1  6  0  0  0
 20 11  1  6  0  0  0
 20 13  1  0  0  0  0
 21 26  1  0  0  0  0
 23 21  2  0  0  0  0
 23  4  1  0  0  0  0
 24 22  1  0  0  0  0
 25 14  1  6  0  0  0
 25 17  1  0  0  0  0
 26  1  2  0  0  0  0
 27  2  1  0  0  0  0
 28 29  1  0  0  0  0
 30 34  1  0  0  0  0
 31 32  1  0  0  0  0
 32 34  1  0  0  0  0
 32 29  1  0  0  0  0
 33 31  1  0  0  0  0
 33 30  1  0  0  0  0
M  END
>  <MODEL>
2

>  <REMARK>
 VINA RESULT:      -7.1      1.207      1.656
  Name = 
  3 active torsions:
  status: ('A' for Active; 'I' for Inactive)
    1  A    between atoms: C_17  and  O_28
    2  A    between atoms: O_28  and  C_29
    3  A    between atoms: C_29  and  C_32
                            x       y       z     vdW  Elec       q    Type
                         _______ _______ _______ _____ _____    ______ ____

>  <TORSDO>
F 3

$$$$
=
 OpenBabel11122414163D

 34 41  0  0  1  0  0  0  0  0999 V2000
  160.7870  207.7930  154.2390 C   0  0  0  0  0  0  0  0  0  0  0  0
  162.1030  206.0340  152.9480 C   0  0  0  0  0  2  0  0  0  0  0  0
  158.1020  213.9150  154.7070 C   0  0  2  0  0  3  0  0  0  0  0  0
  159.3370  209.4380  155.2340 C   0  0  0  0  0  0  0  0  0  0  0  0
  158.5640  211.4940  153.8920 C   0  0  1  0  0  3  0  0  0  0  0  0
  160.0400  213.3950  154.7390 C   0  0  0  0  0  2  0  0  0  0  0  0
  159.2020  214.2020  155.5340 O   0  0  0  0  0  0  0  0  0  0  0  0
  157.3230  212.3680  156.6160 C   0  0  0  0  0  2  0  0  0  0  0  0
  162.1340  208.3280  152.1840 C   0  0  2  0  0  3  0  0  0  0  0  0
  161.2640  208.5140  149.1830 O   0  0  0  0  0  0  0  0  0  0  0  0
  159.1660  210.7410  152.6990 C   0  0  0  0  0  2  0  0  0  0  0  0
  157.5180  210.9470  156.1110 C   0  0  0  0  0  2  0  0  0  0  0  0
  161.0140  209.3100  151.8070 C   0  0  1  0  0  3  0  0  0  0  0  0
  162.9430  206.0910  151.6780 C   0  0  0  0  0  2  0  0  0  0  0  0
  158.7890  210.8450  155.2820 C   0  0  1  0  0  3  0  0  0  0  0  0
  156.9180  213.3100  155.4860 C   0  0  0  0  0  2  0  0  0  0  0  0
  161.7270  207.3150  149.7990 C   0  0  1  0  0  3  0  0  0  0  0  0
  160.1880  209.0610  154.1870 C   0  0  0  0  0  0  0  0  0  0  0  0
  158.9120  212.9920  153.8160 C   0  0  2  0  0  3  0  0  0  0  0  0
  160.4670  210.0240  153.0540 C   0  0  2  0  0  3  0  0  0  0  0  0
  159.6760  207.3360  156.2730 C   0  0  0  0  0  3  0  0  0  0  0  0
  162.0670  209.6170  149.5230 C   0  0  0  0  0  2  0  0  0  0  0  0
  159.1120  208.5720  156.2600 N   0  0  0  0  0  0  0  0  0  0  0  0
  161.4960  210.3190  150.7580 C   0  0  0  0  0  2  0  0  0  0  0  0
  162.6660  207.4540  151.0400 C   0  0  1  0  0  3  0  0  0  0  0  0
  160.5060  206.9530  155.2700 N   0  0  0  0  0  0  0  0  0  0  0  0
  161.6820  207.3980  153.1960 N   0  0  0  0  0  0  0  0  0  0  0  0
  160.6240  206.5110  150.1030 O   0  0  0  0  0  0  0  0  0  0  0  0
  160.4470  205.7010  148.9790 C   0  0  0  0  0  2  0  0  0  0  0  0
  160.3670  202.3860  149.0490 N   0  0  0  0  0  2  0  0  0  0  0  0
  161.4830  203.8600  147.6880 C   0  0  0  0  0  2  0  0  0  0  0  0
  161.4040  204.5240  149.0360 C   0  0  0  0  0  3  0  0  0  0  0  0
  161.1430  202.4580  147.8790 N   0  0  0  0  0  2  0  0  0  0  0  0
  160.8300  203.4530  149.9220 C   0  0  0  0  0  2  0  0  0  0  0  0
  1 26  1  0  0  0  0
  2 27  1  0  0  0  0
  3 16  1  1  0  0  0
  3  7  1  0  0  0  0
  4 15  1  0  0  0  0
  4 23  2  0  0  0  0
  5 11  1  6  0  0  0
  5 15  1  0  0  0  0
  6  7  1  0  0  0  0
  9 27  1  1  0  0  0
 10 22  1  0  0  0  0
 10 17  1  0  0  0  0
 12  8  1  0  0  0  0
 13 24  1  6  0  0  0
 13  9  1  0  0  0  0
 13 20  1  0  0  0  0
 14  2  1  0  0  0  0
 15 12  1  6  0  0  0
 16  8  1  0  0  0  0
 17 28  1  1  0  0  0
 17 25  1  0  0  0  0
 18  1  2  0  0  0  0
 18  4  1  0  0  0  0
 19  5  1  0  0  0  0
 19  3  1  0  0  0  0
 19  6  1  1  0  0  0
 20 11  1  6  0  0  0
 20 18  1  0  0  0  0
 22 24  1  0  0  0  0
 23 21  1  0  0  0  0
 25 14  1  1  0  0  0
 25  9  1  0  0  0  0
 26 21  2  0  0  0  0
 27  1  1  0  0  0  0
 29 32  1  0  0  0  0
 29 28  1  0  0  0  0
 30 34  1  0  0  0  0
 31 33  1  0  0  0  0
 31 32  1  0  0  0  0
 32 34  1  0  0  0  0
 33 30  1  0  0  0  0
M  END
>  <MODEL>
3

>  <REMARK>
 VINA RESULT:      -6.5      2.848      8.683
  Name = 
  3 active torsions:
  status: ('A' for Active; 'I' for Inactive)
    1  A    between atoms: C_17  and  O_28
    2  A    between atoms: O_28  and  C_29
    3  A    between atoms: C_29  and  C_32
                            x       y       z     vdW  Elec       q    Type
                         _______ _______ _______ _____ _____    ______ ____

>  <TORSDO>
F 3

$$$$
=
 OpenBabel11122414163D

 34 41  0  0  1  0  0  0  0  0999 V2000
  161.8890  210.1500  149.9540 C   0  0  0  0  0  0  0  0  0  0  0  0
  161.8440  211.7610  147.9810 C   0  0  0  0  0  2  0  0  0  0  0  0
  160.3170  208.6030  156.2810 C   0  0  2  0  0  3  0  0  0  0  0  0
  161.6270  208.6200  151.7950 C   0  0  0  0  0  0  0  0  0  0  0  0
  160.0690  209.1870  153.7650 C   0  0  1  0  0  3  0  0  0  0  0  0
  161.6460  209.9530  155.6190 C   0  0  0  0  0  2  0  0  0  0  0  0
  161.6610  208.9060  156.5610 O   0  0  0  0  0  0  0  0  0  0  0  0
  161.2490  206.5750  154.9930 C   0  0  0  0  0  2  0  0  0  0  0  0
  161.2490  212.5710  150.1800 C   0  0  2  0  0  3  0  0  0  0  0  0
  158.4310  213.9330  150.1400 O   0  0  0  0  0  0  0  0  0  0  0  0
  159.6000  210.3300  152.8550 C   0  0  0  0  0  2  0  0  0  0  0  0
  161.0330  206.8790  153.5190 C   0  0  0  0  0  2  0  0  0  0  0  0
  160.2000  212.1120  151.2040 C   0  0  1  0  0  3  0  0  0  0  0  0
  161.4590  213.2300  147.8490 C   0  0  0  0  0  2  0  0  0  0  0  0
  161.2670  208.3550  153.2380 C   0  0  1  0  0  3  0  0  0  0  0  0
  160.1180  207.1380  155.8490 C   0  0  0  0  0  2  0  0  0  0  0  0
  159.2240  213.7220  148.9750 C   0  0  1  0  0  3  0  0  0  0  0  0
  161.4240  209.8960  151.2530 C   0  0  0  0  0  0  0  0  0  0  0  0
  160.2150  209.6790  155.2170 C   0  0  2  0  0  3  0  0  0  0  0  0
  160.7480  210.9700  152.0770 C   0  0  2  0  0  3  0  0  0  0  0  0
  162.6700  207.9260  149.7840 C   0  0  0  0  0  3  0  0  0  0  0  0
  159.1980  214.4390  151.2060 C   0  0  0  0  0  2  0  0  0  0  0  0
  162.2570  207.6690  151.0530 N   0  0  0  0  0  0  0  0  0  0  0  0
  159.7210  213.2860  152.0670 C   0  0  0  0  0  2  0  0  0  0  0  0
  160.7720  213.6130  149.1610 C   0  0  1  0  0  3  0  0  0  0  0  0
  162.4860  209.1570  149.2420 N   0  0  0  0  0  0  0  0  0  0  0  0
  161.7190  211.4530  149.3910 N   0  0  0  0  0  0  0  0  0  0  0  0
  158.7300  212.6060  148.2920 O   0  0  0  0  0  0  0  0  0  0  0  0
  157.4570  212.9830  147.8580 C   0  0  0  0  0  2  0  0  0  0  0  0
  157.9140  214.3380  144.8650 N   0  0  0  0  0  2  0  0  0  0  0  0
  158.6300  212.3530  145.7700 C   0  0  0  0  0  2  0  0  0  0  0  0
  157.2870  212.6290  146.3920 C   0  0  0  0  0  3  0  0  0  0  0  0
  158.7650  213.2450  144.6280 N   0  0  0  0  0  2  0  0  0  0  0  0
  156.7920  213.8320  145.6390 C   0  0  0  0  0  2  0  0  0  0  0  0
  1 18  1  0  0  0  0
  2 27  1  0  0  0  0
  3 16  1  6  0  0  0
  3  7  1  0  0  0  0
  4 15  1  0  0  0  0
  5 11  1  6  0  0  0
  5 19  1  0  0  0  0
  6  7  1  0  0  0  0
  8 16  1  0  0  0  0
  9 27  1  6  0  0  0
  9 13  1  0  0  0  0
 10 22  1  0  0  0  0
 12  8  1  0  0  0  0
 13 24  1  1  0  0  0
 13 20  1  0  0  0  0
 14  2  1  0  0  0  0
 15 12  1  6  0  0  0
 15  5  1  0  0  0  0
 17 28  1  1  0  0  0
 17 25  1  0  0  0  0
 17 10  1  0  0  0  0
 18  4  2  0  0  0  0
 18 20  1  0  0  0  0
 19  6  1  6  0  0  0
 19  3  1  0  0  0  0
 20 11  1  6  0  0  0
 21 23  2  0  0  0  0
 22 24  1  0  0  0  0
 23  4  1  0  0  0  0
 25 14  1  6  0  0  0
 25  9  1  0  0  0  0
 26 21  1  0  0  0  0
 26  1  2  0  0  0  0
 27  1  1  0  0  0  0
 29 28  1  0  0  0  0
 30 34  1  0  0  0  0
 31 32  1  0  0  0  0
 32 29  1  0  0  0  0
 33 30  1  0  0  0  0
 33 31  1  0  0  0  0
 34 32  1  0  0  0  0
M  END
>  <MODEL>
4

>  <REMARK>
 VINA RESULT:      -5.9      3.776      6.265
  Name = 
  3 active torsions:
  status: ('A' for Active; 'I' for Inactive)
    1  A    between atoms: C_17  and  O_28
    2  A    between atoms: O_28  and  C_29
    3  A    between atoms: C_29  and  C_32
                            x       y       z     vdW  Elec       q    Type
                         _______ _______ _______ _____ _____    ______ ____

>  <TORSDO>
F 3

$$$$
