=
 OpenBabel11122412403D

 30 35  0  0  1  0  0  0  0  0999 V2000
  161.2240  208.6210  151.8770 C   0  0  0  0  0  0  0  0  0  0  0  0
  160.8800  209.5960  154.2250 C   0  0  0  0  0  0  0  0  0  0  0  0
  160.9970  204.7680  153.2910 N   0  0  0  0  0  2  0  0  0  0  0  0
  161.3370  207.4930  151.0170 C   0  0  0  0  0  0  0  0  0  0  0  0
  161.2540  209.9930  151.2570 C   0  0  0  0  0  2  0  0  0  0  0  0
  162.3070  209.1070  147.9070 O   0  0  0  0  0  0  0  0  0  0  0  0
  162.0840  205.5350  148.6420 C   0  0  1  0  0  3  0  0  0  0  0  0
  162.0060  208.9620  149.1240 C   0  0  0  0  0  0  0  0  0  0  0  0
  161.8580  204.5040  149.7370 C   0  0  2  0  0  3  0  0  0  0  0  0
  161.2310  204.1420  152.1180 C   0  0  0  0  0  0  0  0  0  0  0  0
  162.2510  210.0760  150.1040 C   0  0  1  0  0  3  0  0  0  0  0  0
  161.4980  207.7030  149.6000 N   0  0  0  0  0  0  0  0  0  0  0  0
  160.8250  209.3390  155.6670 C   0  0  0  0  0  3  0  0  0  0  0  0
  160.9430  203.4600  149.1330 C   0  0  0  0  0  2  0  0  0  0  0  0
  161.9700  204.7590  147.3400 C   0  0  0  0  0  2  0  0  0  0  0  0
  160.8610  210.7900  153.8270 O   0  0  0  0  0  0  0  0  0  0  0  0
  161.0280  206.0650  152.9450 C   0  0  0  0  0  0  0  0  0  0  0  0
  160.7180  208.1020  156.1470 C   0  0  0  0  0  3  0  0  0  0  0  0
  160.9910  208.4520  153.2750 C   0  0  0  0  0  0  0  0  0  0  0  0
  161.2620  206.2110  151.6010 C   0  0  0  0  0  0  0  0  0  0  0  0
  161.3250  202.8880  152.0350 O   0  0  0  0  0  0  0  0  0  0  0  0
  161.3910  204.9730  151.0540 N   0  0  0  0  0  0  0  0  0  0  0  0
  161.3020  203.4290  147.6610 C   0  0  0  0  0  2  0  0  0  0  0  0
  159.6300  206.3310  148.7420 C   0  0  0  0  0  1  0  0  0  0  0  0
  160.5760  206.8940  155.2640 C   0  0  0  0  0  2  0  0  0  0  0  0
  160.8910  207.1460  153.8100 C   0  0  0  0  0  0  0  0  0  0  0  0
  161.1060  206.7010  148.6230 C   0  0  2  0  0  3  0  0  0  0  0  0
  162.2260  211.4650  149.4600 C   0  0  0  0  0  2  0  0  0  0  0  0
  160.8170  213.4290  148.9110 C   0  0  0  0  0  1  0  0  0  0  0  0
  161.0110  212.2810  149.8790 C   0  0  0  0  0  2  0  0  0  0  0  0
  1 19  1  0  0  0  0
  2 13  1  0  0  0  0
  4 20  1  0  0  0  0
  4  1  2  0  0  0  0
  5  1  1  0  0  0  0
  6  8  2  0  0  0  0
  7 15  1  6  0  0  0
  7  9  1  0  0  0  0
  8 12  1  0  0  0  0
  8 11  1  0  0  0  0
  9 14  1  6  0  0  0
  9 22  1  0  0  0  0
 10  3  1  0  0  0  0
 11 28  1  6  0  0  0
 11  5  1  0  0  0  0
 12  4  1  0  0  0  0
 13 18  2  0  0  0  0
 15 23  1  0  0  0  0
 16  2  2  0  0  0  0
 17  3  1  0  0  0  0
 17 26  1  0  0  0  0
 19 26  2  0  0  0  0
 19  2  1  0  0  0  0
 20 17  2  0  0  0  0
 21 10  2  0  0  0  0
 22 20  1  0  0  0  0
 22 10  1  0  0  0  0
 23 14  1  0  0  0  0
 25 18  1  0  0  0  0
 26 25  1  0  0  0  0
 27  7  1  0  0  0  0
 27 24  1  1  0  0  0
 27 12  1  0  0  0  0
 28 30  1  0  0  0  0
 29 30  1  0  0  0  0
M  END
>  <MODEL>
1

>  <REMARK>
 VINA RESULT:      -7.5      0.000      0.000
  Name = 
  2 active torsions:
  status: ('A' for Active; 'I' for Inactive)
    1  A    between atoms: C_11  and  C_28
    2  A    between atoms: C_28  and  C_30
                            x       y       z     vdW  Elec       q    Type
                         _______ _______ _______ _____ _____    ______ ____

>  <TORSDO>
F 2

$$$$
=
 OpenBabel11122412403D

 30 35  0  0  1  0  0  0  0  0999 V2000
  161.1720  204.6840  148.7710 C   0  0  0  0  0  0  0  0  0  0  0  0
  161.0610  202.1530  148.3650 C   0  0  0  0  0  0  0  0  0  0  0  0
  160.9770  204.1780  152.8460 N   0  0  0  0  0  2  0  0  0  0  0  0
  161.2000  205.7860  149.6720 C   0  0  0  0  0  0  0  0  0  0  0  0
  161.3160  204.9660  147.2990 C   0  0  0  0  0  2  0  0  0  0  0  0
  160.9410  208.5670  147.3450 O   0  0  0  0  0  0  0  0  0  0  0  0
  160.8900  208.6450  150.9970 C   0  0  1  0  0  3  0  0  0  0  0  0
  160.9820  207.3820  147.7760 C   0  0  0  0  0  0  0  0  0  0  0  0
  160.8520  207.7950  152.2570 C   0  0  2  0  0  3  0  0  0  0  0  0
  160.9660  205.4870  153.1800 C   0  0  0  0  0  0  0  0  0  0  0  0
  160.5790  206.2370  146.8880 C   0  0  1  0  0  3  0  0  0  0  0  0
  161.3400  207.1200  149.1440 N   0  0  0  0  0  0  0  0  0  0  0  0
  160.8110  200.8260  148.9330 C   0  0  0  0  0  3  0  0  0  0  0  0
  161.8370  208.4350  153.2130 C   0  0  0  0  0  2  0  0  0  0  0  0
  161.2420  210.0450  151.4760 C   0  0  0  0  0  2  0  0  0  0  0  0
  161.2010  202.2540  147.1170 O   0  0  0  0  0  0  0  0  0  0  0  0
  161.0600  204.2160  151.5060 C   0  0  0  0  0  0  0  0  0  0  0  0
  160.7760  200.6320  150.2500 C   0  0  0  0  0  3  0  0  0  0  0  0
  161.1080  203.3440  149.2600 C   0  0  0  0  0  0  0  0  0  0  0  0
  161.1110  205.5090  151.0520 C   0  0  0  0  0  0  0  0  0  0  0  0
  160.8500  205.8720  154.3740 O   0  0  0  0  0  0  0  0  0  0  0  0
  161.0560  206.3410  152.1260 N   0  0  0  0  0  0  0  0  0  0  0  0
  161.7850  209.9160  152.8930 C   0  0  0  0  0  2  0  0  0  0  0  0
  163.2970  207.8960  150.4380 C   0  0  0  0  0  1  0  0  0  0  0  0
  161.0560  201.7250  151.2430 C   0  0  0  0  0  2  0  0  0  0  0  0
  161.0530  203.1150  150.6550 C   0  0  0  0  0  0  0  0  0  0  0  0
  161.8890  208.2080  149.9360 C   0  0  2  0  0  3  0  0  0  0  0  0
  160.7810  206.5270  145.3970 C   0  0  0  0  0  2  0  0  0  0  0  0
  160.3260  204.3100  144.3860 C   0  0  0  0  0  1  0  0  0  0  0  0
  161.3940  205.3500  144.6520 C   0  0  0  0  0  2  0  0  0  0  0  0
  1 19  2  0  0  0  0
  1  4  1  0  0  0  0
  2 13  1  0  0  0  0
  2 19  1  0  0  0  0
  3 10  1  0  0  0  0
  4 20  2  0  0  0  0
  5  1  1  0  0  0  0
  6  8  2  0  0  0  0
  7 15  1  1  0  0  0
  7  9  1  0  0  0  0
  8 12  1  0  0  0  0
  9 14  1  1  0  0  0
 10 21  2  0  0  0  0
 11 28  1  6  0  0  0
 11  5  1  0  0  0  0
 11  8  1  0  0  0  0
 12  4  1  0  0  0  0
 12 27  1  0  0  0  0
 13 18  2  0  0  0  0
 15 23  1  0  0  0  0
 16  2  2  0  0  0  0
 17  3  1  0  0  0  0
 18 25  1  0  0  0  0
 19 26  1  0  0  0  0
 20 17  1  0  0  0  0
 20 22  1  0  0  0  0
 22  9  1  0  0  0  0
 22 10  1  0  0  0  0
 23 14  1  0  0  0  0
 26 25  1  0  0  0  0
 26 17  2  0  0  0  0
 27 24  1  1  0  0  0
 27  7  1  0  0  0  0
 29 30  1  0  0  0  0
 30 28  1  0  0  0  0
M  END
>  <MODEL>
2

>  <REMARK>
 VINA RESULT:      -6.6      2.066      6.057
  Name = 
  2 active torsions:
  status: ('A' for Active; 'I' for Inactive)
    1  A    between atoms: C_11  and  C_28
    2  A    between atoms: C_28  and  C_30
                            x       y       z     vdW  Elec       q    Type
                         _______ _______ _______ _____ _____    ______ ____

>  <TORSDO>
F 2

$$$$
=
 OpenBabel11122412403D

 30 35  0  0  1  0  0  0  0  0999 V2000
  161.6510  208.2480  149.9860 C   0  0  0  0  0  0  0  0  0  0  0  0
  161.8250  206.2300  148.4120 C   0  0  0  0  0  0  0  0  0  0  0  0
  160.7390  205.8450  153.1950 N   0  0  0  0  0  2  0  0  0  0  0  0
  161.4190  208.7790  151.2860 C   0  0  0  0  0  0  0  0  0  0  0  0
  162.0440  209.2020  148.8890 C   0  0  0  0  0  2  0  0  0  0  0  0
  161.3740  212.3420  150.5640 O   0  0  0  0  0  0  0  0  0  0  0  0
  160.6340  210.6510  153.7170 C   0  0  1  0  0  3  0  0  0  0  0  0
  161.4300  211.0950  150.3780 C   0  0  0  0  0  0  0  0  0  0  0  0
  160.4320  209.3000  154.3840 C   0  0  2  0  0  3  0  0  0  0  0  0
  160.5590  206.8310  154.1000 C   0  0  0  0  0  0  0  0  0  0  0  0
  161.2950  210.5280  148.9910 C   0  0  1  0  0  3  0  0  0  0  0  0
  161.5460  210.1990  151.4980 N   0  0  0  0  0  0  0  0  0  0  0  0
  161.5820  204.7970  148.2180 C   0  0  0  0  0  3  0  0  0  0  0  0
  161.1640  209.3810  155.7060 C   0  0  0  0  0  2  0  0  0  0  0  0
  160.7750  211.6390  154.8640 C   0  0  0  0  0  2  0  0  0  0  0  0
  162.1870  206.9160  147.4210 O   0  0  0  0  0  0  0  0  0  0  0  0
  161.0680  206.5220  152.0820 C   0  0  0  0  0  0  0  0  0  0  0  0
  161.3180  203.9930  149.2460 C   0  0  0  0  0  3  0  0  0  0  0  0
  161.6060  206.8400  149.7540 C   0  0  0  0  0  0  0  0  0  0  0  0
  161.0970  207.8730  152.3190 C   0  0  0  0  0  0  0  0  0  0  0  0
  160.1910  206.5950  155.2810 O   0  0  0  0  0  0  0  0  0  0  0  0
  160.7740  208.0850  153.6220 N   0  0  0  0  0  0  0  0  0  0  0  0
  161.0530  210.8340  156.1250 C   0  0  0  0  0  2  0  0  0  0  0  0
  163.1570  210.2180  153.3710 C   0  0  0  0  0  1  0  0  0  0  0  0
  161.3160  204.4670  150.6720 C   0  0  0  0  0  2  0  0  0  0  0  0
  161.3100  205.9680  150.8290 C   0  0  0  0  0  0  0  0  0  0  0  0
  161.8470  210.7600  152.8040 C   0  0  2  0  0  3  0  0  0  0  0  0
  161.7480  211.4960  147.8940 C   0  0  0  0  0  2  0  0  0  0  0  0
  160.7110  213.6640  147.2890 C   0  0  0  0  0  1  0  0  0  0  0  0
  160.5780  212.1600  147.1830 C   0  0  0  0  0  2  0  0  0  0  0  0
  1  4  1  0  0  0  0
  2 19  1  0  0  0  0
  3 10  1  0  0  0  0
  4 12  1  0  0  0  0
  4 20  2  0  0  0  0
  5 11  1  0  0  0  0
  5  1  1  0  0  0  0
  7  9  1  0  0  0  0
  7 15  1  1  0  0  0
  8  6  2  0  0  0  0
  8 12  1  0  0  0  0
  9 14  1  1  0  0  0
 10 21  2  0  0  0  0
 11 28  1  6  0  0  0
 11  8  1  0  0  0  0
 12 27  1  0  0  0  0
 13  2  1  0  0  0  0
 13 18  2  0  0  0  0
 14 23  1  0  0  0  0
 15 23  1  0  0  0  0
 16  2  2  0  0  0  0
 17 20  1  0  0  0  0
 17  3  1  0  0  0  0
 18 25  1  0  0  0  0
 19  1  2  0  0  0  0
 19 26  1  0  0  0  0
 20 22  1  0  0  0  0
 22 10  1  0  0  0  0
 22  9  1  0  0  0  0
 25 26  1  0  0  0  0
 26 17  2  0  0  0  0
 27 24  1  1  0  0  0
 27  7  1  0  0  0  0
 30 29  1  0  0  0  0
 30 28  1  0  0  0  0
M  END
>  <MODEL>
3

>  <REMARK>
 VINA RESULT:      -5.8      1.841      5.522
  Name = 
  2 active torsions:
  status: ('A' for Active; 'I' for Inactive)
    1  A    between atoms: C_11  and  C_28
    2  A    between atoms: C_28  and  C_30
                            x       y       z     vdW  Elec       q    Type
                         _______ _______ _______ _____ _____    ______ ____

>  <TORSDO>
F 2

$$$$
=
 OpenBabel11122412403D

 30 35  0  0  1  0  0  0  0  0999 V2000
  161.4140  208.8460  150.9860 C   0  0  0  0  0  0  0  0  0  0  0  0
  161.8180  206.9660  149.2870 C   0  0  0  0  0  0  0  0  0  0  0  0
  160.6450  206.1510  153.9940 N   0  0  0  0  0  2  0  0  0  0  0  0
  161.0990  209.2610  152.3100 C   0  0  0  0  0  0  0  0  0  0  0  0
  161.7450  209.9060  149.9680 C   0  0  0  0  0  2  0  0  0  0  0  0
  160.7390  212.8460  151.8260 O   0  0  0  0  0  0  0  0  0  0  0  0
  160.0770  210.8790  154.8330 C   0  0  1  0  0  3  0  0  0  0  0  0
  160.9170  211.6260  151.5600 C   0  0  0  0  0  0  0  0  0  0  0  0
  159.9830  209.4720  155.4010 C   0  0  2  0  0  3  0  0  0  0  0  0
  160.3490  207.0510  154.9560 C   0  0  0  0  0  0  0  0  0  0  0  0
  160.8730  211.1470  150.1340 C   0  0  1  0  0  3  0  0  0  0  0  0
  161.0860  210.6690  152.6200 N   0  0  0  0  0  0  0  0  0  0  0  0
  161.7160  205.5350  148.9890 C   0  0  0  0  0  3  0  0  0  0  0  0
  160.6690  209.5280  156.7490 C   0  0  0  0  0  2  0  0  0  0  0  0
  160.0930  211.7940  156.0480 C   0  0  0  0  0  2  0  0  0  0  0  0
  162.1410  207.7500  148.3560 O   0  0  0  0  0  0  0  0  0  0  0  0
  160.9390  206.9320  152.9400 C   0  0  0  0  0  0  0  0  0  0  0  0
  161.5010  204.6410  149.9510 C   0  0  0  0  0  3  0  0  0  0  0  0
  161.5080  207.4590  150.6580 C   0  0  0  0  0  0  0  0  0  0  0  0
  160.8350  208.2600  153.2680 C   0  0  0  0  0  0  0  0  0  0  0  0
  159.9730  206.7010  156.1060 O   0  0  0  0  0  0  0  0  0  0  0  0
  160.4590  208.3500  154.5710 N   0  0  0  0  0  0  0  0  0  0  0  0
  160.4110  210.9310  157.2610 C   0  0  0  0  0  2  0  0  0  0  0  0
  162.6370  210.7040  154.5430 C   0  0  0  0  0  1  0  0  0  0  0  0
  161.4160  205.0110  151.4060 C   0  0  0  0  0  2  0  0  0  0  0  0
  161.2650  206.4910  151.6620 C   0  0  0  0  0  0  0  0  0  0  0  0
  161.2980  211.1620  153.9700 C   0  0  2  0  0  3  0  0  0  0  0  0
  161.2630  212.2270  149.1200 C   0  0  0  0  0  2  0  0  0  0  0  0
  162.7690  212.9280  147.2810 C   0  0  0  0  0  1  0  0  0  0  0  0
  162.4350  211.8090  148.2450 C   0  0  0  0  0  2  0  0  0  0  0  0
  1  4  1  0  0  0  0
  2 19  1  0  0  0  0
  3 10  1  0  0  0  0
  4 12  1  0  0  0  0
  4 20  2  0  0  0  0
  5 11  1  0  0  0  0
  5  1  1  0  0  0  0
  7  9  1  0  0  0  0
  7 15  1  1  0  0  0
  8  6  2  0  0  0  0
  8 12  1  0  0  0  0
  9 14  1  1  0  0  0
 10 21  2  0  0  0  0
 11 28  1  6  0  0  0
 11  8  1  0  0  0  0
 12 27  1  0  0  0  0
 13  2  1  0  0  0  0
 13 18  2  0  0  0  0
 14 23  1  0  0  0  0
 15 23  1  0  0  0  0
 16  2  2  0  0  0  0
 17 20  1  0  0  0  0
 17  3  1  0  0  0  0
 18 25  1  0  0  0  0
 19  1  2  0  0  0  0
 19 26  1  0  0  0  0
 20 22  1  0  0  0  0
 22 10  1  0  0  0  0
 22  9  1  0  0  0  0
 25 26  1  0  0  0  0
 26 17  2  0  0  0  0
 27 24  1  1  0  0  0
 27  7  1  0  0  0  0
 29 30  1  0  0  0  0
 30 28  1  0  0  0  0
M  END
>  <MODEL>
4

>  <REMARK>
 VINA RESULT:      -5.7      1.925      5.786
  Name = 
  2 active torsions:
  status: ('A' for Active; 'I' for Inactive)
    1  A    between atoms: C_11  and  C_28
    2  A    between atoms: C_28  and  C_30
                            x       y       z     vdW  Elec       q    Type
                         _______ _______ _______ _____ _____    ______ ____

>  <TORSDO>
F 2

$$$$
=
 OpenBabel11122412403D

 30 35  0  0  1  0  0  0  0  0999 V2000
  161.4280  208.7010  151.5960 C   0  0  0  0  0  0  0  0  0  0  0  0
  161.7860  211.0580  150.6490 C   0  0  0  0  0  0  0  0  0  0  0  0
  161.4400  207.0360  147.8380 N   0  0  0  0  0  2  0  0  0  0  0  0
  161.2710  207.3020  151.3890 C   0  0  0  0  0  0  0  0  0  0  0  0
  161.4760  209.2080  153.0140 C   0  0  0  0  0  2  0  0  0  0  0  0
  160.4290  206.2100  154.7530 O   0  0  0  0  0  0  0  0  0  0  0  0
  160.4610  204.2530  151.6680 C   0  0  1  0  0  3  0  0  0  0  0  0
  160.7050  206.9770  153.7890 C   0  0  0  0  0  0  0  0  0  0  0  0
  160.6190  204.3180  150.1570 C   0  0  2  0  0  3  0  0  0  0  0  0
  161.1920  205.7640  148.2140 C   0  0  0  0  0  0  0  0  0  0  0  0
  160.5020  208.4620  153.9200 C   0  0  1  0  0  3  0  0  0  0  0  0
  161.1420  206.4320  152.5320 N   0  0  0  0  0  0  0  0  0  0  0  0
  161.8060  211.9160  149.4610 C   0  0  0  0  0  3  0  0  0  0  0  0
  161.4900  203.1370  149.7840 C   0  0  0  0  0  2  0  0  0  0  0  0
  160.5550  202.7740  152.0100 C   0  0  0  0  0  2  0  0  0  0  0  0
  161.8710  211.6010  151.7810 O   0  0  0  0  0  0  0  0  0  0  0  0
  161.4800  207.6890  149.0110 C   0  0  0  0  0  0  0  0  0  0  0  0
  161.8440  211.3990  148.2340 C   0  0  0  0  0  3  0  0  0  0  0  0
  161.6310  209.5840  150.4930 C   0  0  0  0  0  0  0  0  0  0  0  0
  161.2730  206.8300  150.0600 C   0  0  0  0  0  0  0  0  0  0  0  0
  161.0370  204.8360  147.3760 O   0  0  0  0  0  0  0  0  0  0  0  0
  161.0900  205.5800  149.5570 N   0  0  0  0  0  0  0  0  0  0  0  0
  161.1510  202.0660  150.8010 C   0  0  0  0  0  2  0  0  0  0  0  0
  162.9510  204.8180  152.0560 C   0  0  0  0  0  1  0  0  0  0  0  0
  161.9380  209.9220  147.9730 C   0  0  0  0  0  2  0  0  0  0  0  0
  161.6570  209.0590  149.1790 C   0  0  0  0  0  0  0  0  0  0  0  0
  161.4970  205.0250  152.4730 C   0  0  2  0  0  3  0  0  0  0  0  0
  160.6050  208.9630  155.3630 C   0  0  0  0  0  2  0  0  0  0  0  0
  162.4520  209.9250  156.7070 C   0  0  0  0  0  1  0  0  0  0  0  0
  161.5580  210.1410  155.5040 C   0  0  0  0  0  2  0  0  0  0  0  0
  1  5  1  0  0  0  0
  2 16  2  0  0  0  0
  3 10  1  0  0  0  0
  3 17  1  0  0  0  0
  4  1  1  0  0  0  0
  4 12  1  0  0  0  0
  5 11  1  0  0  0  0
  7 15  1  1  0  0  0
  7 27  1  0  0  0  0
  8 11  1  0  0  0  0
  8  6  2  0  0  0  0
  9 14  1  1  0  0  0
  9  7  1  0  0  0  0
 10 22  1  0  0  0  0
 11 28  1  1  0  0  0
 12  8  1  0  0  0  0
 13  2  1  0  0  0  0
 14 23  1  0  0  0  0
 17 26  2  0  0  0  0
 17 20  1  0  0  0  0
 18 13  2  0  0  0  0
 19  2  1  0  0  0  0
 19  1  2  0  0  0  0
 20  4  2  0  0  0  0
 21 10  2  0  0  0  0
 22 20  1  0  0  0  0
 22  9  1  0  0  0  0
 23 15  1  0  0  0  0
 25 18  1  0  0  0  0
 25 26  1  0  0  0  0
 26 19  1  0  0  0  0
 27 24  1  6  0  0  0
 27 12  1  0  0  0  0
 28 30  1  0  0  0  0
 30 29  1  0  0  0  0
M  END
>  <MODEL>
5

>  <REMARK>
 VINA RESULT:      -5.4      1.708      4.894
  Name = 
  2 active torsions:
  status: ('A' for Active; 'I' for Inactive)
    1  A    between atoms: C_11  and  C_28
    2  A    between atoms: C_28  and  C_30
                            x       y       z     vdW  Elec       q    Type
                         _______ _______ _______ _____ _____    ______ ____

>  <TORSDO>
F 2

$$$$
=
 OpenBabel11122412403D

 30 35  0  0  1  0  0  0  0  0999 V2000
  161.5170  207.8390  151.5790 C   0  0  0  0  0  0  0  0  0  0  0  0
  161.9210  210.3280  151.1070 C   0  0  0  0  0  0  0  0  0  0  0  0
  161.4820  206.9420  147.5670 N   0  0  0  0  0  2  0  0  0  0  0  0
  161.3290  206.5110  151.1030 C   0  0  0  0  0  0  0  0  0  0  0  0
  161.5800  208.0590  153.0680 C   0  0  0  0  0  2  0  0  0  0  0  0
  160.4760  204.8000  154.1950 O   0  0  0  0  0  0  0  0  0  0  0  0
  160.4570  203.4830  150.7870 C   0  0  1  0  0  3  0  0  0  0  0  0
  160.7640  205.7340  153.3980 C   0  0  0  0  0  0  0  0  0  0  0  0
  160.6110  203.8400  149.3170 C   0  0  2  0  0  3  0  0  0  0  0  0
  161.2080  205.6250  147.6900 C   0  0  0  0  0  0  0  0  0  0  0  0
  160.5930  207.1690  153.8170 C   0  0  1  0  0  3  0  0  0  0  0  0
  161.1860  205.4380  152.0550 N   0  0  0  0  0  0  0  0  0  0  0  0
  161.9560  211.4010  150.1100 C   0  0  0  0  0  3  0  0  0  0  0  0
  161.4550  202.7370  148.7150 C   0  0  0  0  0  2  0  0  0  0  0  0
  160.5210  201.9640  150.8330 C   0  0  0  0  0  2  0  0  0  0  0  0
  162.0210  210.6380  152.3240 O   0  0  0  0  0  0  0  0  0  0  0  0
  161.5390  207.3520  148.8450 C   0  0  0  0  0  0  0  0  0  0  0  0
  161.9790  211.1340  148.8060 C   0  0  0  0  0  3  0  0  0  0  0  0
  161.7350  208.9170  150.6680 C   0  0  0  0  0  0  0  0  0  0  0  0
  161.3170  206.3080  149.7080 C   0  0  0  0  0  0  0  0  0  0  0  0
  161.0300  204.8830  146.6880 O   0  0  0  0  0  0  0  0  0  0  0  0
  161.1060  205.1850  148.9720 N   0  0  0  0  0  0  0  0  0  0  0  0
  161.0970  201.4950  149.5050 C   0  0  0  0  0  2  0  0  0  0  0  0
  162.9590  203.9120  151.2600 C   0  0  0  0  0  1  0  0  0  0  0  0
  162.0410  209.7350  148.2610 C   0  0  0  0  0  2  0  0  0  0  0  0
  161.7460  208.6590  149.2770 C   0  0  0  0  0  0  0  0  0  0  0  0
  161.5110  204.0620  151.7200 C   0  0  2  0  0  3  0  0  0  0  0  0
  160.7120  207.3760  155.3300 C   0  0  0  0  0  2  0  0  0  0  0  0
  161.9580  208.8420  156.8930 C   0  0  0  0  0  1  0  0  0  0  0  0
  161.0280  208.8190  155.6980 C   0  0  0  0  0  2  0  0  0  0  0  0
  1  5  1  0  0  0  0
  2 16  2  0  0  0  0
  3 10  1  0  0  0  0
  3 17  1  0  0  0  0
  4  1  1  0  0  0  0
  4 12  1  0  0  0  0
  5 11  1  0  0  0  0
  7 15  1  6  0  0  0
  7 27  1  0  0  0  0
  8 11  1  0  0  0  0
  8  6  2  0  0  0  0
  9 14  1  1  0  0  0
  9  7  1  0  0  0  0
 10 22  1  0  0  0  0
 11 28  1  1  0  0  0
 12  8  1  0  0  0  0
 13  2  1  0  0  0  0
 14 23  1  0  0  0  0
 17 26  2  0  0  0  0
 17 20  1  0  0  0  0
 18 13  2  0  0  0  0
 19  2  1  0  0  0  0
 19  1  2  0  0  0  0
 20  4  2  0  0  0  0
 21 10  2  0  0  0  0
 22  9  1  0  0  0  0
 22 20  1  0  0  0  0
 23 15  1  0  0  0  0
 25 18  1  0  0  0  0
 25 26  1  0  0  0  0
 26 19  1  0  0  0  0
 27 24  1  6  0  0  0
 27 12  1  0  0  0  0
 28 30  1  0  0  0  0
 30 29  1  0  0  0  0
M  END
>  <MODEL>
6

>  <REMARK>
 VINA RESULT:      -5.4      1.581      4.938
  Name = 
  2 active torsions:
  status: ('A' for Active; 'I' for Inactive)
    1  A    between atoms: C_11  and  C_28
    2  A    between atoms: C_28  and  C_30
                            x       y       z     vdW  Elec       q    Type
                         _______ _______ _______ _____ _____    ______ ____

>  <TORSDO>
F 2

$$$$
=
 OpenBabel11122412403D

 30 35  0  0  1  0  0  0  0  0999 V2000
  161.2770  208.7090  151.7380 C   0  0  0  0  0  0  0  0  0  0  0  0
  161.0190  207.7530  154.1050 C   0  0  0  0  0  0  0  0  0  0  0  0
  160.0440  212.4360  152.9570 N   0  0  0  0  0  2  0  0  0  0  0  0
  161.1920  209.8090  150.8380 C   0  0  0  0  0  0  0  0  0  0  0  0
  161.8020  207.3990  151.2120 C   0  0  0  0  0  2  0  0  0  0  0  0
  161.7840  208.1350  147.6660 O   0  0  0  0  0  0  0  0  0  0  0  0
  160.8510  211.6170  148.2610 C   0  0  1  0  0  3  0  0  0  0  0  0
  161.6020  208.3000  148.9030 C   0  0  0  0  0  0  0  0  0  0  0  0
  160.4240  212.6250  149.3150 C   0  0  2  0  0  3  0  0  0  0  0  0
  160.0810  213.0320  151.7460 C   0  0  0  0  0  0  0  0  0  0  0  0
  161.3170  207.1200  149.7920 C   0  0  1  0  0  3  0  0  0  0  0  0
  161.5870  209.6240  149.4640 N   0  0  0  0  0  0  0  0  0  0  0  0
  160.5080  207.9550  155.4630 C   0  0  0  0  0  3  0  0  0  0  0  0
  161.2040  213.8880  149.0150 C   0  0  0  0  0  2  0  0  0  0  0  0
  161.2120  212.4510  147.0410 C   0  0  0  0  0  2  0  0  0  0  0  0
  161.4680  206.6190  153.7960 O   0  0  0  0  0  0  0  0  0  0  0  0
  160.4550  211.1870  152.6840 C   0  0  0  0  0  0  0  0  0  0  0  0
  160.1340  209.1590  155.8910 C   0  0  0  0  0  3  0  0  0  0  0  0
  160.9630  208.8720  153.1210 C   0  0  0  0  0  0  0  0  0  0  0  0
  160.7420  211.0440  151.3500 C   0  0  0  0  0  0  0  0  0  0  0  0
  159.7160  214.2260  151.5770 O   0  0  0  0  0  0  0  0  0  0  0  0
  160.5090  212.2320  150.7340 N   0  0  0  0  0  0  0  0  0  0  0  0
  161.3780  213.8900  147.5090 C   0  0  0  0  0  2  0  0  0  0  0  0
  163.2360  211.4500  149.2370 C   0  0  0  0  0  1  0  0  0  0  0  0
  160.2690  210.4010  155.0550 C   0  0  0  0  0  2  0  0  0  0  0  0
  160.5470  210.1380  153.5950 C   0  0  0  0  0  0  0  0  0  0  0  0
  162.0310  210.7310  148.6350 C   0  0  2  0  0  3  0  0  0  0  0  0
  161.9040  205.8080  149.2630 C   0  0  0  0  0  2  0  0  0  0  0  0
  160.8320  203.9290  150.4740 C   0  0  0  0  0  1  0  0  0  0  0  0
  160.8650  204.6990  149.1700 C   0  0  0  0  0  2  0  0  0  0  0  0
  1 19  1  0  0  0  0
  2 13  1  0  0  0  0
  4 20  1  0  0  0  0
  4  1  2  0  0  0  0
  5  1  1  0  0  0  0
  6  8  2  0  0  0  0
  7 15  1  6  0  0  0
  7 27  1  0  0  0  0
  7  9  1  0  0  0  0
  8 12  1  0  0  0  0
  8 11  1  0  0  0  0
  9 14  1  1  0  0  0
  9 22  1  0  0  0  0
 10  3  1  0  0  0  0
 11 28  1  6  0  0  0
 11  5  1  0  0  0  0
 12  4  1  0  0  0  0
 13 18  2  0  0  0  0
 15 23  1  0  0  0  0
 16  2  2  0  0  0  0
 17  3  1  0  0  0  0
 17 26  1  0  0  0  0
 19 26  2  0  0  0  0
 19  2  1  0  0  0  0
 20 17  2  0  0  0  0
 21 10  2  0  0  0  0
 22 20  1  0  0  0  0
 22 10  1  0  0  0  0
 23 14  1  0  0  0  0
 25 18  1  0  0  0  0
 26 25  1  0  0  0  0
 27 24  1  1  0  0  0
 27 12  1  0  0  0  0
 30 28  1  0  0  0  0
 30 29  1  0  0  0  0
M  END
>  <MODEL>
7

>  <REMARK>
 VINA RESULT:      -5.0      2.148      5.984
  Name = 
  2 active torsions:
  status: ('A' for Active; 'I' for Inactive)
    1  A    between atoms: C_11  and  C_28
    2  A    between atoms: C_28  and  C_30
                            x       y       z     vdW  Elec       q    Type
                         _______ _______ _______ _____ _____    ______ ____

>  <TORSDO>
F 2

$$$$
=
 OpenBabel11122412403D

 30 35  0  0  1  0  0  0  0  0999 V2000
  161.8240  206.4150  148.3230 C   0  0  0  0  0  0  0  0  0  0  0  0
  161.9130  205.2450  146.0410 C   0  0  0  0  0  0  0  0  0  0  0  0
  160.6010  202.9690  150.2000 N   0  0  0  0  0  2  0  0  0  0  0  0
  161.5790  206.3650  149.7230 C   0  0  0  0  0  0  0  0  0  0  0  0
  162.3330  207.7060  147.7360 C   0  0  0  0  0  2  0  0  0  0  0  0
  161.8300  209.8880  150.5830 O   0  0  0  0  0  0  0  0  0  0  0  0
  160.8340  207.0930  152.7140 C   0  0  1  0  0  3  0  0  0  0  0  0
  161.8000  208.8370  149.8850 C   0  0  0  0  0  0  0  0  0  0  0  0
  160.5030  205.6090  152.7420 C   0  0  2  0  0  3  0  0  0  0  0  0
  160.4580  203.4910  151.4370 C   0  0  0  0  0  0  0  0  0  0  0  0
  161.6820  208.9230  148.3880 C   0  0  1  0  0  3  0  0  0  0  0  0
  161.8020  207.5460  150.5190 N   0  0  0  0  0  0  0  0  0  0  0  0
  161.5720  204.0560  145.2550 C   0  0  0  0  0  3  0  0  0  0  0  0
  161.1830  205.0610  153.9790 C   0  0  0  0  0  2  0  0  0  0  0  0
  161.0000  207.4880  154.1730 C   0  0  0  0  0  2  0  0  0  0  0  0
  162.3670  206.2520  145.4380 O   0  0  0  0  0  0  0  0  0  0  0  0
  161.0270  204.0220  149.4830 C   0  0  0  0  0  0  0  0  0  0  0  0
  161.2060  202.9190  145.8420 C   0  0  0  0  0  3  0  0  0  0  0  0
  161.6850  205.2470  147.5140 C   0  0  0  0  0  0  0  0  0  0  0  0
  161.1470  205.1380  150.2710 C   0  0  0  0  0  0  0  0  0  0  0  0
  160.0230  202.8100  152.4040 O   0  0  0  0  0  0  0  0  0  0  0  0
  160.7860  204.8060  151.5380 N   0  0  0  0  0  0  0  0  0  0  0  0
  161.1630  206.2040  154.9740 C   0  0  0  0  0  2  0  0  0  0  0  0
  163.3290  206.6330  152.2340 C   0  0  0  0  0  1  0  0  0  0  0  0
  161.1800  202.7430  147.3350 C   0  0  0  0  0  2  0  0  0  0  0  0
  161.2790  204.0320  148.1140 C   0  0  0  0  0  0  0  0  0  0  0  0
  162.0880  207.4740  151.9410 C   0  0  2  0  0  3  0  0  0  0  0  0
  162.2520  210.2220  147.8090 C   0  0  0  0  0  2  0  0  0  0  0  0
  161.9850  212.6400  148.2800 C   0  0  0  0  0  1  0  0  0  0  0  0
  161.2600  211.3740  147.8760 C   0  0  0  0  0  2  0  0  0  0  0  0
  1  4  1  0  0  0  0
  2 19  1  0  0  0  0
  3 10  1  0  0  0  0
  4 20  2  0  0  0  0
  4 12  1  0  0  0  0
  5  1  1  0  0  0  0
  5 11  1  0  0  0  0
  7  9  1  0  0  0  0
  7 15  1  1  0  0  0
  8 12  1  0  0  0  0
  8  6  2  0  0  0  0
  9 14  1  1  0  0  0
 10 22  1  0  0  0  0
 10 21  2  0  0  0  0
 11 28  1  6  0  0  0
 11  8  1  0  0  0  0
 12 27  1  0  0  0  0
 13 18  2  0  0  0  0
 13  2  1  0  0  0  0
 14 23  1  0  0  0  0
 15 23  1  0  0  0  0
 16  2  2  0  0  0  0
 17  3  1  0  0  0  0
 17 20  1  0  0  0  0
 18 25  1  0  0  0  0
 19 26  1  0  0  0  0
 19  1  2  0  0  0  0
 20 22  1  0  0  0  0
 22  9  1  0  0  0  0
 25 26  1  0  0  0  0
 26 17  2  0  0  0  0
 27 24  1  6  0  0  0
 27  7  1  0  0  0  0
 28 30  1  0  0  0  0
 30 29  1  0  0  0  0
M  END
>  <MODEL>
8

>  <REMARK>
 VINA RESULT:      -5.0      1.586      5.574
  Name = 
  2 active torsions:
  status: ('A' for Active; 'I' for Inactive)
    1  A    between atoms: C_11  and  C_28
    2  A    between atoms: C_28  and  C_30
                            x       y       z     vdW  Elec       q    Type
                         _______ _______ _______ _____ _____    ______ ____

>  <TORSDO>
F 2

$$$$
=
 OpenBabel11122412403D

 30 35  0  0  1  0  0  0  0  0999 V2000
  161.4440  209.6840  150.6850 C   0  0  0  0  0  0  0  0  0  0  0  0
  162.1500  208.4290  148.5620 C   0  0  0  0  0  0  0  0  0  0  0  0
  161.2100  206.1920  152.8410 N   0  0  0  0  0  2  0  0  0  0  0  0
  161.0790  209.6680  152.0610 C   0  0  0  0  0  0  0  0  0  0  0  0
  161.5660  211.0190  149.9980 C   0  0  0  0  0  2  0  0  0  0  0  0
  160.0810  213.1320  152.5360 O   0  0  0  0  0  0  0  0  0  0  0  0
  159.8230  210.3470  154.8870 C   0  0  1  0  0  3  0  0  0  0  0  0
  160.4690  212.0780  151.9610 C   0  0  0  0  0  0  0  0  0  0  0  0
  159.9900  208.8450  155.0570 C   0  0  2  0  0  3  0  0  0  0  0  0
  160.7730  206.7340  153.9970 C   0  0  0  0  0  0  0  0  0  0  0  0
  160.4900  211.9980  150.4580 C   0  0  1  0  0  3  0  0  0  0  0  0
  160.8210  210.9170  152.7330 N   0  0  0  0  0  0  0  0  0  0  0  0
  162.3000  207.1350  147.8910 C   0  0  0  0  0  3  0  0  0  0  0  0
  160.6740  208.6580  156.3940 C   0  0  0  0  0  2  0  0  0  0  0  0
  159.6940  210.8910  156.3020 C   0  0  0  0  0  2  0  0  0  0  0  0
  162.3150  209.4780  147.8850 O   0  0  0  0  0  0  0  0  0  0  0  0
  161.3450  207.2640  152.0430 C   0  0  0  0  0  0  0  0  0  0  0  0
  162.2610  205.9920  148.5730 C   0  0  0  0  0  3  0  0  0  0  0  0
  161.7780  208.4740  150.0040 C   0  0  0  0  0  0  0  0  0  0  0  0
  161.0120  208.4170  152.7090 C   0  0  0  0  0  0  0  0  0  0  0  0
  160.4820  206.0290  155.0000 O   0  0  0  0  0  0  0  0  0  0  0  0
  160.6440  208.0880  153.9750 N   0  0  0  0  0  0  0  0  0  0  0  0
  160.1780  209.8050  157.2510 C   0  0  0  0  0  2  0  0  0  0  0  0
  162.3680  210.7070  154.6480 C   0  0  0  0  0  1  0  0  0  0  0  0
  162.1340  205.9390  150.0700 C   0  0  0  0  0  2  0  0  0  0  0  0
  161.7260  207.2460  150.7050 C   0  0  0  0  0  0  0  0  0  0  0  0
  160.9610  211.0600  154.1720 C   0  0  2  0  0  3  0  0  0  0  0  0
  160.6670  213.3600  149.7820 C   0  0  0  0  0  2  0  0  0  0  0  0
  160.3550  213.2340  147.3260 C   0  0  0  0  0  1  0  0  0  0  0  0
  161.3790  213.2580  148.4410 C   0  0  0  0  0  2  0  0  0  0  0  0
  1  4  1  0  0  0  0
  2 19  1  0  0  0  0
  3 10  1  0  0  0  0
  4 20  2  0  0  0  0
  4 12  1  0  0  0  0
  5 11  1  0  0  0  0
  5  1  1  0  0  0  0
  7  9  1  0  0  0  0
  7 15  1  1  0  0  0
  8  6  2  0  0  0  0
  8 12  1  0  0  0  0
  9 14  1  1  0  0  0
 10 21  2  0  0  0  0
 11 28  1  6  0  0  0
 11  8  1  0  0  0  0
 12 27  1  0  0  0  0
 13  2  1  0  0  0  0
 13 18  2  0  0  0  0
 14 23  1  0  0  0  0
 15 23  1  0  0  0  0
 16  2  2  0  0  0  0
 17 20  1  0  0  0  0
 17  3  1  0  0  0  0
 18 25  1  0  0  0  0
 19  1  2  0  0  0  0
 19 26  1  0  0  0  0
 20 22  1  0  0  0  0
 22 10  1  0  0  0  0
 22  9  1  0  0  0  0
 25 26  1  0  0  0  0
 26 17  2  0  0  0  0
 27 24  1  1  0  0  0
 27  7  1  0  0  0  0
 29 30  1  0  0  0  0
 30 28  1  0  0  0  0
M  END
>  <MODEL>
9

>  <REMARK>
 VINA RESULT:      -4.6      1.832      5.764
  Name = 
  2 active torsions:
  status: ('A' for Active; 'I' for Inactive)
    1  A    between atoms: C_11  and  C_28
    2  A    between atoms: C_28  and  C_30
                            x       y       z     vdW  Elec       q    Type
                         _______ _______ _______ _____ _____    ______ ____

>  <TORSDO>
F 2

$$$$
