=
 OpenBabel11122414103D

 28 32  0  0  1  0  0  0  0  0999 V2000
  161.2880  211.2820  137.7440 C   0  0  0  0  0  0  0  0  0  0  0  0
  157.1080  214.4510  137.6420 C   0  0  0  0  0  1  0  0  0  0  0  0
  162.5020  212.9450  141.7260 O   0  0  0  0  0  0  0  0  0  0  0  0
  160.4370  209.1080  139.2900 C   0  0  0  0  0  3  0  0  0  0  0  0
  160.0980  213.1750  141.7780 C   0  0  1  0  0  3  0  0  0  0  0  0
  161.7370  212.3820  137.0110 O   0  0  0  0  0  0  0  0  0  0  0  0
  156.6770  212.1050  137.0110 C   0  0  0  0  0  1  0  0  0  0  0  0
  156.8200  213.0550  138.1840 C   0  0  0  0  0  0  0  0  0  0  0  0
  155.5690  213.5640  140.2060 C   0  0  0  0  0  0  0  0  0  0  0  0
  157.9560  212.5540  139.1160 C   0  0  2  0  0  3  0  0  0  0  0  0
  164.4180  212.9770  139.0060 O   0  0  0  0  0  0  0  0  0  0  0  0
  159.9870  213.8140  139.3940 C   0  0  1  0  0  3  0  0  0  0  0  0
  156.8520  214.0180  140.8160 C   0  0  0  0  0  2  0  0  0  0  0  0
  155.5930  213.0750  138.9050 O   0  0  0  0  0  0  0  0  0  0  0  0
  163.4010  213.3350  138.4360 C   0  0  0  0  0  0  0  0  0  0  0  0
  160.1150  211.3920  138.5100 C   0  0  0  0  0  0  0  0  0  0  0  0
  161.4250  213.1980  141.1250 C   0  0  0  0  0  0  0  0  0  0  0  0
  154.4870  213.6450  140.8420 O   0  0  0  0  0  0  0  0  0  0  0  0
  162.4660  214.2900  139.1110 C   0  0  0  0  0  2  0  0  0  0  0  0
  159.7040  210.2950  139.2880 C   0  0  0  0  0  3  0  0  0  0  0  0
  162.0270  210.0900  137.7570 C   0  0  0  0  0  3  0  0  0  0  0  0
  161.6000  209.0050  138.5240 C   0  0  0  0  0  3  0  0  0  0  0  0
  163.0920  212.8090  137.0660 C   0  0  0  0  0  2  0  0  0  0  0  0
  159.1940  213.8100  140.7010 C   0  0  1  0  0  3  0  0  0  0  0  0
  161.3750  213.5690  139.7590 N   0  0  0  0  0  0  0  0  0  0  0  0
  157.9410  213.0790  140.5060 N   0  0  2  0  0  0  0  0  0  0  0  0
  159.7360  211.8510  142.0400 O   0  0  0  0  0  1  0  0  0  0  0  0
  159.3590  212.7100  138.5380 C   0  0  1  0  0  3  0  0  0  0  0  0
  1 21  2  0  0  0  0
  1 16  1  0  0  0  0
  2  8  1  0  0  0  0
  5 27  1  6  0  0  0
  6 23  1  0  0  0  0
  6  1  1  0  0  0  0
  7  8  1  0  0  0  0
  8 14  1  0  0  0  0
  9 13  1  0  0  0  0
  9 18  2  0  0  0  0
 10  8  1  6  0  0  0
 10 26  1  0  0  0  0
 12 25  1  1  0  0  0
 12 24  1  0  0  0  0
 14  9  1  0  0  0  0
 15 11  2  0  0  0  0
 15 19  1  0  0  0  0
 16 28  1  0  0  0  0
 16 20  2  0  0  0  0
 17  3  2  0  0  0  0
 17  5  1  0  0  0  0
 19 25  1  0  0  0  0
 20  4  1  0  0  0  0
 21 22  1  0  0  0  0
 22  4  2  0  0  0  0
 23 15  1  0  0  0  0
 24  5  1  0  0  0  0
 25 17  1  0  0  0  0
 26 24  1  0  0  0  0
 26 13  1  0  0  0  0
 28 10  1  0  0  0  0
 28 12  1  0  0  0  0
M  END
>  <MODEL>
1

>  <REMARK>
 VINA RESULT:      -3.6      0.000      0.000
  Name = 
  0 active torsions:
  status: ('A' for Active; 'I' for Inactive)
                            x       y       z     vdW  Elec       q    Type
                         _______ _______ _______ _____ _____    ______ ____

>  <TORSDO>
F 0

$$$$
=
 OpenBabel11122414103D

 28 32  0  0  1  0  0  0  0  0999 V2000
  160.4810  210.7060  140.2810 C   0  0  0  0  0  0  0  0  0  0  0  0
  156.4140  209.2150  137.3220 C   0  0  0  0  0  1  0  0  0  0  0  0
  161.0740  214.3300  137.7090 O   0  0  0  0  0  0  0  0  0  0  0  0
  159.3670  212.5640  142.0560 C   0  0  0  0  0  3  0  0  0  0  0  0
  158.6960  213.9500  137.5300 C   0  0  1  0  0  3  0  0  0  0  0  0
  161.0550  209.8160  139.3710 O   0  0  0  0  0  0  0  0  0  0  0  0
  156.0560  209.0890  139.7590 C   0  0  0  0  0  1  0  0  0  0  0  0
  156.0250  210.0150  138.5600 C   0  0  0  0  0  0  0  0  0  0  0  0
  154.4780  211.6410  137.6230 C   0  0  0  0  0  0  0  0  0  0  0  0
  156.9920  211.2040  138.8030 C   0  0  2  0  0  3  0  0  0  0  0  0
  163.3960  212.0120  138.2660 O   0  0  0  0  0  0  0  0  0  0  0  0
  158.9710  211.4960  137.4660 C   0  0  1  0  0  3  0  0  0  0  0  0
  155.6550  212.3210  137.0110 C   0  0  0  0  0  2  0  0  0  0  0  0
  154.7000  210.5100  138.4020 O   0  0  0  0  0  0  0  0  0  0  0  0
  162.4870  211.2220  138.0740 C   0  0  0  0  0  0  0  0  0  0  0  0
  159.2030  211.2320  140.0230 C   0  0  0  0  0  0  0  0  0  0  0  0
  160.1090  213.5250  137.6290 C   0  0  0  0  0  0  0  0  0  0  0  0
  153.3100  212.0630  137.4220 O   0  0  0  0  0  0  0  0  0  0  0  0
  161.4700  211.5010  137.0110 C   0  0  0  0  0  2  0  0  0  0  0  0
  158.6600  212.1700  140.9190 C   0  0  0  0  0  3  0  0  0  0  0  0
  161.1920  211.1130  141.4200 C   0  0  0  0  0  3  0  0  0  0  0  0
  160.6350  212.0350  142.3060 C   0  0  0  0  0  3  0  0  0  0  0  0
  162.3910  209.9820  138.9120 C   0  0  0  0  0  2  0  0  0  0  0  0
  157.9820  212.6260  137.1840 C   0  0  1  0  0  3  0  0  0  0  0  0
  160.2810  212.1190  137.5870 N   0  0  0  0  0  0  0  0  0  0  0  0
  156.7660  212.4130  137.9700 N   0  0  2  0  0  0  0  0  0  0  0  0
  158.2790  214.4530  138.7650 O   0  0  0  0  0  1  0  0  0  0  0  0
  158.4710  210.8330  138.7530 C   0  0  1  0  0  3  0  0  0  0  0  0
  1 21  1  0  0  0  0
  2  8  1  0  0  0  0
  4 22  1  0  0  0  0
  5 17  1  0  0  0  0
  5 27  1  1  0  0  0
  6  1  1  0  0  0  0
  8  7  1  0  0  0  0
  9 14  1  0  0  0  0
 10  8  1  6  0  0  0
 12 25  1  1  0  0  0
 12 28  1  0  0  0  0
 13  9  1  0  0  0  0
 13 26  1  0  0  0  0
 14  8  1  0  0  0  0
 15 11  2  0  0  0  0
 15 23  1  0  0  0  0
 16  1  2  0  0  0  0
 16 20  1  0  0  0  0
 17  3  2  0  0  0  0
 18  9  2  0  0  0  0
 19 25  1  0  0  0  0
 19 15  1  0  0  0  0
 20  4  2  0  0  0  0
 21 22  2  0  0  0  0
 23  6  1  0  0  0  0
 24 12  1  0  0  0  0
 24  5  1  0  0  0  0
 24 26  1  0  0  0  0
 25 17  1  0  0  0  0
 26 10  1  0  0  0  0
 28 10  1  0  0  0  0
 28 16  1  0  0  0  0
M  END
>  <MODEL>
2

>  <REMARK>
 VINA RESULT:      -3.3      2.239      3.564
  Name = 
  0 active torsions:
  status: ('A' for Active; 'I' for Inactive)
                            x       y       z     vdW  Elec       q    Type
                         _______ _______ _______ _____ _____    ______ ____

>  <TORSDO>
F 0

$$$$
=
 OpenBabel11122414103D

 28 32  0  0  1  0  0  0  0  0999 V2000
  160.6370  209.3830  155.7630 C   0  0  0  0  0  0  0  0  0  0  0  0
  155.5250  210.3340  155.0630 C   0  0  0  0  0  1  0  0  0  0  0  0
  161.5460  211.0720  151.7110 O   0  0  0  0  0  0  0  0  0  0  0  0
  161.6560  211.8380  156.6430 C   0  0  0  0  0  3  0  0  0  0  0  0
  159.5810  212.3160  152.3630 C   0  0  1  0  0  3  0  0  0  0  0  0
  160.1470  208.1670  155.2810 O   0  0  0  0  0  0  0  0  0  0  0  0
  156.4370  210.9980  157.2570 C   0  0  0  0  0  1  0  0  0  0  0  0
  156.2670  211.4330  155.8150 C   0  0  0  0  0  0  0  0  0  0  0  0
  155.4980  213.4250  154.6510 C   0  0  0  0  0  0  0  0  0  0  0  0
  157.6620  211.7130  155.1950 C   0  0  2  0  0  3  0  0  0  0  0  0
  162.3310  207.9900  152.6890 O   0  0  0  0  0  0  0  0  0  0  0  0
  158.5350  210.3430  153.4200 C   0  0  1  0  0  3  0  0  0  0  0  0
  156.3600  213.0160  153.5040 C   0  0  0  0  0  2  0  0  0  0  0  0
  155.4910  212.6270  155.7890 O   0  0  0  0  0  0  0  0  0  0  0  0
  161.2010  207.9710  153.1460 C   0  0  0  0  0  0  0  0  0  0  0  0
  159.8590  210.5460  155.6270 C   0  0  0  0  0  0  0  0  0  0  0  0
  160.4240  211.1030  152.2830 C   0  0  0  0  0  0  0  0  0  0  0  0
  154.7760  214.4530  154.5830 O   0  0  0  0  0  0  0  0  0  0  0  0
  160.0810  208.6130  152.3860 C   0  0  0  0  0  2  0  0  0  0  0  0
  160.3870  211.7730  156.0660 C   0  0  0  0  0  3  0  0  0  0  0  0
  161.9150  209.4550  156.3350 C   0  0  0  0  0  3  0  0  0  0  0  0
  162.4210  210.6780  156.7780 C   0  0  0  0  0  3  0  0  0  0  0  0
  160.9440  207.3150  154.4690 C   0  0  0  0  0  2  0  0  0  0  0  0
  158.2480  211.7500  152.8970 C   0  0  1  0  0  3  0  0  0  0  0  0
  159.8320  209.9630  152.8800 N   0  0  0  0  0  0  0  0  0  0  0  0
  157.6770  212.5600  153.9730 N   0  0  2  0  0  0  0  0  0  0  0  0
  160.1550  213.2180  153.2630 O   0  0  0  0  0  1  0  0  0  0  0  0
  158.5030  210.4650  154.9460 C   0  0  1  0  0  3  0  0  0  0  0  0
  1 21  1  0  0  0  0
  2  8  1  0  0  0  0
  3 17  2  0  0  0  0
  4 22  1  0  0  0  0
  5 24  1  0  0  0  0
  5 27  1  1  0  0  0
  6  1  1  0  0  0  0
  8  7  1  0  0  0  0
  9 14  1  0  0  0  0
 10  8  1  6  0  0  0
 11 15  2  0  0  0  0
 12 25  1  1  0  0  0
 12 28  1  0  0  0  0
 13 26  1  0  0  0  0
 13  9  1  0  0  0  0
 14  8  1  0  0  0  0
 15 23  1  0  0  0  0
 16  1  2  0  0  0  0
 16 20  1  0  0  0  0
 17  5  1  0  0  0  0
 17 25  1  0  0  0  0
 18  9  2  0  0  0  0
 19 25  1  0  0  0  0
 19 15  1  0  0  0  0
 20  4  2  0  0  0  0
 21 22  2  0  0  0  0
 23  6  1  0  0  0  0
 24 12  1  0  0  0  0
 24 26  1  0  0  0  0
 26 10  1  0  0  0  0
 28 10  1  0  0  0  0
 28 16  1  0  0  0  0
M  END
>  <MODEL>
3

>  <REMARK>
 VINA RESULT:      -1.8     13.395     15.708
  Name = 
  0 active torsions:
  status: ('A' for Active; 'I' for Inactive)
                            x       y       z     vdW  Elec       q    Type
                         _______ _______ _______ _____ _____    ______ ____

>  <TORSDO>
F 0

$$$$
=
 OpenBabel11122414103D

 28 32  0  0  1  0  0  0  0  0999 V2000
  160.9110  209.4210  156.3400 C   0  0  0  0  0  0  0  0  0  0  0  0
  157.6380  212.0850  153.2240 C   0  0  0  0  0  1  0  0  0  0  0  0
  162.5810  207.2470  152.7940 O   0  0  0  0  0  0  0  0  0  0  0  0
  163.3100  210.8550  156.1660 C   0  0  0  0  0  3  0  0  0  0  0  0
  161.9230  209.3660  151.8410 C   0  0  1  0  0  3  0  0  0  0  0  0
  159.7330  208.6740  156.3980 O   0  0  0  0  0  0  0  0  0  0  0  0
  158.8270  213.4330  154.9140 C   0  0  0  0  0  1  0  0  0  0  0  0
  158.9390  212.8170  153.5330 C   0  0  0  0  0  0  0  0  0  0  0  0
  159.6210  213.5570  151.3190 C   0  0  0  0  0  0  0  0  0  0  0  0
  160.1600  211.8600  153.4950 C   0  0  2  0  0  3  0  0  0  0  0  0
  161.1960  205.7670  155.4320 O   0  0  0  0  0  0  0  0  0  0  0  0
  159.8760  209.4870  153.2180 C   0  0  1  0  0  3  0  0  0  0  0  0
  159.9730  212.1390  151.0180 C   0  0  0  0  0  2  0  0  0  0  0  0
  159.1290  213.8610  152.5830 O   0  0  0  0  0  0  0  0  0  0  0  0
  160.3410  206.6290  155.3210 C   0  0  0  0  0  0  0  0  0  0  0  0
  161.0760  210.3760  155.3220 C   0  0  0  0  0  0  0  0  0  0  0  0
  161.7690  208.2080  152.7470 C   0  0  0  0  0  0  0  0  0  0  0  0
  159.7420  214.4530  150.4450 O   0  0  0  0  0  0  0  0  0  0  0  0
  159.8880  207.0570  153.9600 C   0  0  0  0  0  2  0  0  0  0  0  0
  162.2890  211.0830  155.2430 C   0  0  0  0  0  3  0  0  0  0  0  0
  161.9430  209.1890  157.2600 C   0  0  0  0  0  3  0  0  0  0  0  0
  163.1370  209.9070  157.1760 C   0  0  0  0  0  3  0  0  0  0  0  0
  159.7570  207.2600  156.5500 C   0  0  0  0  0  2  0  0  0  0  0  0
  160.5610  210.0760  151.9850 C   0  0  1  0  0  3  0  0  0  0  0  0
  160.5950  208.2620  153.5380 N   0  0  0  0  0  0  0  0  0  0  0  0
  160.6880  211.5250  152.1470 N   0  0  2  0  0  0  0  0  0  0  0  0
  162.9730  210.1690  152.2930 O   0  0  0  0  0  1  0  0  0  0  0  0
  159.9750  210.5720  154.2930 C   0  0  1  0  0  3  0  0  0  0  0  0
  1  6  1  0  0  0  0
  1 21  1  0  0  0  0
  2  8  1  0  0  0  0
  4 22  1  0  0  0  0
  5 24  1  0  0  0  0
  5 27  1  1  0  0  0
  5 17  1  0  0  0  0
  6 23  1  0  0  0  0
  8  7  1  0  0  0  0
  9 14  1  0  0  0  0
 10  8  1  6  0  0  0
 10 28  1  0  0  0  0
 12 25  1  1  0  0  0
 12 28  1  0  0  0  0
 13  9  1  0  0  0  0
 13 26  1  0  0  0  0
 14  8  1  0  0  0  0
 15 11  2  0  0  0  0
 15 23  1  0  0  0  0
 16  1  2  0  0  0  0
 17  3  2  0  0  0  0
 17 25  1  0  0  0  0
 18  9  2  0  0  0  0
 19 15  1  0  0  0  0
 20 16  1  0  0  0  0
 20  4  2  0  0  0  0
 22 21  2  0  0  0  0
 24 26  1  0  0  0  0
 24 12  1  0  0  0  0
 25 19  1  0  0  0  0
 26 10  1  0  0  0  0
 28 16  1  0  0  0  0
M  END
>  <MODEL>
4

>  <REMARK>
 VINA RESULT:      -0.8     12.967     15.606
  Name = 
  0 active torsions:
  status: ('A' for Active; 'I' for Inactive)
                            x       y       z     vdW  Elec       q    Type
                         _______ _______ _______ _____ _____    ______ ____

>  <TORSDO>
F 0

$$$$
=
 OpenBabel11122414103D

 28 32  0  0  1  0  0  0  0  0999 V2000
  160.4070  210.0240  155.5460 C   0  0  0  0  0  0  0  0  0  0  0  0
  155.2130  210.3590  154.8870 C   0  0  0  0  0  1  0  0  0  0  0  0
  161.0680  212.6930  152.0050 O   0  0  0  0  0  0  0  0  0  0  0  0
  161.0460  212.3390  156.9850 C   0  0  0  0  0  3  0  0  0  0  0  0
  158.9380  213.4610  152.8450 C   0  0  1  0  0  3  0  0  0  0  0  0
  160.1060  208.8900  154.7880 O   0  0  0  0  0  0  0  0  0  0  0  0
  156.0090  210.6370  157.2060 C   0  0  0  0  0  1  0  0  0  0  0  0
  155.7810  211.3560  155.8910 C   0  0  0  0  0  0  0  0  0  0  0  0
  154.7280  213.4260  155.1700 C   0  0  0  0  0  0  0  0  0  0  0  0
  157.1200  211.9670  155.3990 C   0  0  2  0  0  3  0  0  0  0  0  0
  162.3010  209.6170  152.3040 O   0  0  0  0  0  0  0  0  0  0  0  0
  158.1940  211.1720  153.3990 C   0  0  1  0  0  3  0  0  0  0  0  0
  155.6440  213.4150  153.9930 C   0  0  0  0  0  2  0  0  0  0  0  0
  154.8360  212.4000  156.1020 O   0  0  0  0  0  0  0  0  0  0  0  0
  161.1840  209.3330  152.7040 C   0  0  0  0  0  0  0  0  0  0  0  0
  159.4650  211.0620  155.6420 C   0  0  0  0  0  0  0  0  0  0  0  0
  159.9530  212.4330  152.5280 C   0  0  0  0  0  0  0  0  0  0  0  0
  153.8610  214.3280  155.3050 O   0  0  0  0  0  0  0  0  0  0  0  0
  159.9840  209.9600  152.0640 C   0  0  0  0  0  2  0  0  0  0  0  0
  159.8030  212.2230  156.3620 C   0  0  0  0  0  3  0  0  0  0  0  0
  161.6580  210.1490  156.1660 C   0  0  0  0  0  3  0  0  0  0  0  0
  161.9750  211.3010  156.8870 C   0  0  0  0  0  3  0  0  0  0  0  0
  161.0240  208.3660  153.8380 C   0  0  0  0  0  2  0  0  0  0  0  0
  157.7020  212.6040  153.1900 C   0  0  1  0  0  3  0  0  0  0  0  0
  159.5350  211.1140  152.8360 N   0  0  0  0  0  0  0  0  0  0  0  0
  157.0130  213.0600  154.3980 N   0  0  2  0  0  0  0  0  0  0  0  0
  159.3680  214.2110  153.9420 O   0  0  0  0  0  1  0  0  0  0  0  0
  158.1390  210.9410  154.9120 C   0  0  1  0  0  3  0  0  0  0  0  0
  1 16  2  0  0  0  0
  1 21  1  0  0  0  0
  2  8  1  0  0  0  0
  3 17  2  0  0  0  0
  5 24  1  0  0  0  0
  5 27  1  1  0  0  0
  6  1  1  0  0  0  0
  8 14  1  0  0  0  0
  8  7  1  0  0  0  0
  9 18  2  0  0  0  0
  9 14  1  0  0  0  0
 10  8  1  6  0  0  0
 11 15  2  0  0  0  0
 12 25  1  1  0  0  0
 12 28  1  0  0  0  0
 13 26  1  0  0  0  0
 13  9  1  0  0  0  0
 15 23  1  0  0  0  0
 16 20  1  0  0  0  0
 17 25  1  0  0  0  0
 17  5  1  0  0  0  0
 19 15  1  0  0  0  0
 19 25  1  0  0  0  0
 20  4  2  0  0  0  0
 21 22  2  0  0  0  0
 22  4  1  0  0  0  0
 23  6  1  0  0  0  0
 24 12  1  0  0  0  0
 24 26  1  0  0  0  0
 26 10  1  0  0  0  0
 28 10  1  0  0  0  0
 28 16  1  0  0  0  0
M  END
>  <MODEL>
5

>  <REMARK>
 VINA RESULT:      -0.7     13.399     15.702
  Name = 
  0 active torsions:
  status: ('A' for Active; 'I' for Inactive)
                            x       y       z     vdW  Elec       q    Type
                         _______ _______ _______ _____ _____    ______ ____

>  <TORSDO>
F 0

$$$$
