=
 OpenBabel11122413553D

 37 43  0  0  1  0  0  0  0  0999 V2000
  161.5490  207.6410  152.3200 O   0  0  0  0  0  0  0  0  0  0  0  0
  161.3460  210.6790  156.3040 C   0  0  0  0  0  0  0  0  0  0  0  0
  159.8980  210.7030  152.2970 C   0  0  1  0  0  3  0  0  0  0  0  0
  162.0830  206.3450  152.1750 C   0  0  2  0  0  3  0  0  0  0  0  0
  160.8970  210.0030  149.3540 C   0  0  0  0  0  2  0  0  0  0  0  0
  159.3650  210.5370  154.7140 C   0  0  0  0  0  0  0  0  0  0  0  0
  161.3010  210.9340  151.7730 C   0  0  2  0  0  3  0  0  0  0  0  0
  160.6470  206.2550  150.0200 C   0  0  1  0  0  3  0  0  0  0  0  0
  160.1700  210.2380  153.6870 C   0  0  0  0  0  0  0  0  0  0  0  0
  161.4570  211.1320  150.2370 C   0  0  2  0  0  3  0  0  0  0  0  0
  158.1710  211.3000  154.4840 N   0  0  0  0  0  2  0  0  0  0  0  0
  161.9060  205.7710  150.7500 C   0  0  0  0  0  2  0  0  0  0  0  0
  161.5780  209.8110  153.9190 C   0  0  2  0  0  3  0  0  0  0  0  0
  161.9730  209.6860  157.2610 C   0  0  0  0  0  1  0  0  0  0  0  0
  158.8330  212.5490  150.9600 C   0  0  0  0  0  2  0  0  0  0  0  0
  157.8190  211.7650  153.1390 C   0  0  0  0  0  2  0  0  0  0  0  0
  162.1810  210.7060  155.0020 C   0  0  0  0  0  2  0  0  0  0  0  0
  160.9500  207.4240  149.0740 C   0  0  0  0  0  2  0  0  0  0  0  0
  161.3170  208.6520  149.8840 C   0  0  1  0  0  3  0  0  0  0  0  0
  159.1040  212.0080  152.3480 C   0  0  1  0  0  3  0  0  0  0  0  0
  162.2610  209.9890  152.5600 C   0  0  1  0  0  3  0  0  0  0  0  0
  159.8570  210.2940  156.1130 C   0  0  0  0  0  2  0  0  0  0  0  0
  160.9910  212.4390  149.7380 N   0  0  0  0  0  0  0  0  0  0  0  0
  161.4120  212.0540  156.9360 C   0  0  0  0  0  1  0  0  0  0  0  0
  162.7230  208.6180  150.4510 C   0  0  0  0  0  2  0  0  0  0  0  0
  160.1140  205.2000  149.2820 O   0  0  0  0  0  1  0  0  0  0  0  0
  162.5530  208.5770  151.9650 C   0  0  2  0  0  3  0  0  0  0  0  0
  160.0770  213.2970  150.5030 C   0  0  0  0  0  2  0  0  0  0  0  0
  162.5700  213.9400  148.5570 C   0  0  0  0  0  3  0  0  0  0  0  0
  161.5560  212.9660  148.5180 C   0  0  0  0  0  0  0  0  0  0  0  0
  161.1050  212.5160  147.2640 C   0  0  0  0  0  3  0  0  0  0  0  0
  161.2050  212.5810  144.8840 F   0  0  0  0  0  0  0  0  0  0  0  0
  162.6560  213.9930  146.1400 C   0  0  0  0  0  3  0  0  0  0  0  0
  161.6510  213.0260  146.0830 C   0  0  0  0  0  0  0  0  0  0  0  0
  163.1160  214.4510  147.3770 C   0  0  0  0  0  3  0  0  0  0  0  0
  161.4710  205.4140  153.2120 C   0  0  0  0  0  2  0  0  0  0  0  0
  161.2130  204.1580  152.6570 O   0  0  0  0  0  1  0  0  0  0  0  0
  2 24  1  0  0  0  0
  2 14  1  0  0  0  0
  3 20  1  0  0  0  0
  3  9  1  1  0  0  0
  4  1  1  0  0  0  0
  4 36  1  1  0  0  0
  5 19  1  0  0  0  0
  5 10  1  0  0  0  0
  6 22  1  0  0  0  0
  7  3  1  0  0  0  0
  7 21  1  0  0  0  0
  8 12  1  0  0  0  0
  9 13  1  0  0  0  0
  9  6  2  0  0  0  0
 10  7  1  0  0  0  0
 11  6  1  0  0  0  0
 12  4  1  0  0  0  0
 13 17  1  0  0  0  0
 15 20  1  0  0  0  0
 16 11  1  0  0  0  0
 17  2  1  0  0  0  0
 18 19  1  0  0  0  0
 18  8  1  0  0  0  0
 19 25  1  0  0  0  0
 20 16  1  0  0  0  0
 21 13  1  0  0  0  0
 22  2  1  0  0  0  0
 23 10  1  0  0  0  0
 23 28  1  0  0  0  0
 25 27  1  0  0  0  0
 26  8  1  0  0  0  0
 27  1  1  0  0  0  0
 27 21  1  0  0  0  0
 28 15  1  0  0  0  0
 30 29  1  0  0  0  0
 30 23  1  0  0  0  0
 31 30  2  0  0  0  0
 32 34  1  0  0  0  0
 33 35  1  0  0  0  0
 34 33  2  0  0  0  0
 34 31  1  0  0  0  0
 35 29  2  0  0  0  0
 37 36  1  0  0  0  0
M  END
>  <MODEL>
1

>  <REMARK>
 VINA RESULT:      -3.3      0.000      0.000
  Name = 
  2 active torsions:
  status: ('A' for Active; 'I' for Inactive)
    1  A    between atoms: C_4  and  C_36
    2  A    between atoms: N_23  and  C_30
                            x       y       z     vdW  Elec       q    Type
                         _______ _______ _______ _____ _____    ______ ____

>  <TORSDO>
F 2

$$$$
