=
 OpenBabel11122412373D

 30 35  0  0  1  0  0  0  0  0999 V2000
  161.1850  207.5310  151.2100 C   0  0  0  0  0  0  0  0  0  0  0  0
  161.2330  205.2330  150.2340 C   0  0  0  0  0  0  0  0  0  0  0  0
  160.6880  206.0090  155.0880 N   0  0  0  0  0  0  0  0  0  0  0  0
  161.0900  208.3600  152.3530 C   0  0  0  0  0  0  0  0  0  0  0  0
  161.2520  208.2120  149.8690 C   0  0  0  0  0  2  0  0  0  0  0  0
  163.4060  210.3740  151.7190 O   0  0  0  0  0  1  0  0  0  0  0  0
  159.6010  210.5250  154.1190 C   0  0  1  0  0  3  0  0  0  0  0  0
  162.1470  210.3100  151.1190 C   0  0  1  0  0  3  0  0  0  0  0  0
  159.5470  209.2700  155.0080 C   0  0  2  0  0  3  0  0  0  0  0  0
  160.6250  207.1040  155.7770 C   0  0  0  0  0  0  0  0  0  0  0  0
  162.2380  209.3900  149.8850 C   0  0  2  0  0  3  0  0  0  0  0  0
  161.0810  209.8570  152.1340 C   0  0  2  0  0  3  0  0  0  0  0  0
  161.1700  203.8500  150.4240 C   0  0  0  0  0  3  0  0  0  0  0  0
  159.3330  209.8380  156.3760 C   0  0  0  0  0  2  0  0  0  0  0  0
  159.2620  211.6600  154.8800 O   0  0  0  0  0  0  0  0  0  0  0  0
  161.3960  205.6910  148.9680 F   0  0  0  0  0  0  0  0  0  0  0  0
  160.8750  206.3940  153.7380 C   0  0  0  0  0  0  0  0  0  0  0  0
  161.0110  203.3120  151.7000 C   0  0  0  0  0  3  0  0  0  0  0  0
  161.1350  206.1110  151.3420 C   0  0  0  0  0  0  0  0  0  0  0  0
  160.9360  207.7550  153.6060 C   0  0  0  0  0  0  0  0  0  0  0  0
  160.5080  207.0810  157.2610 C   0  0  0  0  0  1  0  0  0  0  0  0
  160.7900  208.3660  154.9570 C   0  0  1  0  0  3  0  0  0  0  0  0
  158.7290  211.1850  156.0870 C   0  0  0  0  0  2  0  0  0  0  0  0
  162.1320  210.9200  154.2410 C   0  0  0  0  0  1  0  0  0  0  0  0
  160.9140  204.1560  152.8050 C   0  0  0  0  0  3  0  0  0  0  0  0
  160.9750  205.5430  152.6390 C   0  0  0  0  0  0  0  0  0  0  0  0
  160.9030  210.7880  153.3460 C   0  0  2  0  0  3  0  0  0  0  0  0
  162.1820  210.1850  148.5850 C   0  0  0  0  0  2  0  0  0  0  0  0
  162.6390  212.5020  147.8350 C   0  0  0  0  0  1  0  0  0  0  0  0
  161.8750  211.6550  148.8300 C   0  0  0  0  0  2  0  0  0  0  0  0
  1 19  2  0  0  0  0
  1  4  1  0  0  0  0
  2 13  2  0  0  0  0
  2 19  1  0  0  0  0
  3 10  2  0  0  0  0
  4 20  2  0  0  0  0
  5 11  1  0  0  0  0
  5  1  1  0  0  0  0
  7 15  1  1  0  0  0
  7  9  1  0  0  0  0
  8  6  1  1  0  0  0
  8 12  1  0  0  0  0
  9 14  1  1  0  0  0
 10 21  1  0  0  0  0
 11 28  1  6  0  0  0
 11  8  1  0  0  0  0
 12  4  1  1  0  0  0
 12 27  1  0  0  0  0
 13 18  1  0  0  0  0
 15 23  1  0  0  0  0
 16  2  1  0  0  0  0
 17  3  1  0  0  0  0
 18 25  2  0  0  0  0
 19 26  1  0  0  0  0
 20 17  1  0  0  0  0
 22 20  1  6  0  0  0
 22  9  1  0  0  0  0
 22 10  1  0  0  0  0
 23 14  1  0  0  0  0
 26 25  1  0  0  0  0
 26 17  2  0  0  0  0
 27  7  1  0  0  0  0
 27 24  1  1  0  0  0
 28 30  1  0  0  0  0
 29 30  1  0  0  0  0
M  END
>  <MODEL>
1

>  <REMARK>
 VINA RESULT:      -7.9      0.000      0.000
  Name = 
  2 active torsions:
  status: ('A' for Active; 'I' for Inactive)
    1  A    between atoms: C_11  and  C_28
    2  A    between atoms: C_28  and  C_30
                            x       y       z     vdW  Elec       q    Type
                         _______ _______ _______ _____ _____    ______ ____

>  <TORSDO>
F 2

$$$$
=
 OpenBabel11122412373D

 30 35  0  0  1  0  0  0  0  0999 V2000
  161.1280  208.2370  151.4740 C   0  0  0  0  0  0  0  0  0  0  0  0
  161.2680  210.6650  150.9110 C   0  0  0  0  0  0  0  0  0  0  0  0
  162.4920  207.1450  147.6600 N   0  0  0  0  0  0  0  0  0  0  0  0
  161.3120  206.8900  151.0820 C   0  0  0  0  0  0  0  0  0  0  0  0
  160.5290  208.4830  152.8340 C   0  0  0  0  0  2  0  0  0  0  0  0
  162.7340  205.7990  153.6540 O   0  0  0  0  0  1  0  0  0  0  0  0
  160.2080  204.0050  150.3880 C   0  0  1  0  0  3  0  0  0  0  0  0
  161.3830  206.1180  153.4990 C   0  0  1  0  0  3  0  0  0  0  0  0
  160.7620  204.4880  149.0360 C   0  0  2  0  0  3  0  0  0  0  0  0
  162.4760  205.8530  147.7530 C   0  0  0  0  0  0  0  0  0  0  0  0
  161.1780  207.5920  153.9040 C   0  0  2  0  0  3  0  0  0  0  0  0
  160.9100  205.8130  152.0660 C   0  0  2  0  0  3  0  0  0  0  0  0
  161.5710  211.6630  149.9800 C   0  0  0  0  0  3  0  0  0  0  0  0
  160.9800  203.2110  148.2880 C   0  0  0  0  0  2  0  0  0  0  0  0
  159.9630  202.6200  150.3320 O   0  0  0  0  0  0  0  0  0  0  0  0
  160.8310  211.0540  152.1350 F   0  0  0  0  0  0  0  0  0  0  0  0
  162.0590  207.6430  148.9140 C   0  0  0  0  0  0  0  0  0  0  0  0
  162.0310  211.3340  148.7060 C   0  0  0  0  0  3  0  0  0  0  0  0
  161.4270  209.3000  150.5700 C   0  0  0  0  0  0  0  0  0  0  0  0
  161.7820  206.6290  149.7900 C   0  0  0  0  0  0  0  0  0  0  0  0
  162.9480  204.9900  146.6350 C   0  0  0  0  0  1  0  0  0  0  0  0
  162.0460  205.3300  149.1070 C   0  0  1  0  0  3  0  0  0  0  0  0
  160.0480  202.2550  148.9800 C   0  0  0  0  0  2  0  0  0  0  0  0
  162.4490  203.7870  151.6150 C   0  0  0  0  0  1  0  0  0  0  0  0
  162.1970  209.9970  148.3490 C   0  0  0  0  0  3  0  0  0  0  0  0
  161.9010  208.9830  149.2640 C   0  0  0  0  0  0  0  0  0  0  0  0
  161.0260  204.3370  151.6460 C   0  0  2  0  0  3  0  0  0  0  0  0
  160.4620  207.7130  155.2440 C   0  0  0  0  0  2  0  0  0  0  0  0
  161.9240  209.4670  156.2060 C   0  0  0  0  0  1  0  0  0  0  0  0
  161.4230  208.0490  156.3750 C   0  0  0  0  0  2  0  0  0  0  0  0
  1  5  1  0  0  0  0
  2 16  1  0  0  0  0
  3 10  2  0  0  0  0
  3 17  1  0  0  0  0
  4  1  1  0  0  0  0
  5 11  1  0  0  0  0
  7 15  1  6  0  0  0
  7 27  1  0  0  0  0
  8  6  1  6  0  0  0
  8 11  1  0  0  0  0
  9 14  1  6  0  0  0
  9 22  1  0  0  0  0
  9  7  1  0  0  0  0
 11 28  1  1  0  0  0
 12  4  1  6  0  0  0
 12  8  1  0  0  0  0
 13  2  2  0  0  0  0
 14 23  1  0  0  0  0
 17 26  2  0  0  0  0
 17 20  1  0  0  0  0
 18 13  1  0  0  0  0
 19  2  1  0  0  0  0
 19  1  2  0  0  0  0
 20  4  2  0  0  0  0
 21 10  1  0  0  0  0
 22 10  1  6  0  0  0
 22 20  1  0  0  0  0
 23 15  1  0  0  0  0
 25 18  2  0  0  0  0
 25 26  1  0  0  0  0
 26 19  1  0  0  0  0
 27 24  1  6  0  0  0
 27 12  1  0  0  0  0
 28 30  1  0  0  0  0
 29 30  1  0  0  0  0
M  END
>  <MODEL>
2

>  <REMARK>
 VINA RESULT:      -7.2      2.939      7.082
  Name = 
  2 active torsions:
  status: ('A' for Active; 'I' for Inactive)
    1  A    between atoms: C_11  and  C_28
    2  A    between atoms: C_28  and  C_30
                            x       y       z     vdW  Elec       q    Type
                         _______ _______ _______ _____ _____    ______ ____

>  <TORSDO>
F 2

$$$$
=
 OpenBabel11122412373D

 30 35  0  0  1  0  0  0  0  0999 V2000
  161.0390  205.5170  149.7410 C   0  0  0  0  0  0  0  0  0  0  0  0
  160.7530  203.0390  149.6260 C   0  0  0  0  0  0  0  0  0  0  0  0
  161.3140  205.4170  153.9260 N   0  0  0  0  0  0  0  0  0  0  0  0
  161.2370  206.6780  150.5250 C   0  0  0  0  0  0  0  0  0  0  0  0
  160.8490  205.7090  148.2600 C   0  0  0  0  0  2  0  0  0  0  0  0
  163.4630  208.0740  148.8160 O   0  0  0  0  0  1  0  0  0  0  0  0
  160.2800  209.4670  151.6790 C   0  0  1  0  0  3  0  0  0  0  0  0
  162.1020  207.9730  148.5210 C   0  0  1  0  0  3  0  0  0  0  0  0
  160.3550  208.5880  152.9400 C   0  0  2  0  0  3  0  0  0  0  0  0
  161.4600  206.6760  154.1940 C   0  0  0  0  0  0  0  0  0  0  0  0
  161.8750  206.6980  147.6850 C   0  0  2  0  0  3  0  0  0  0  0  0
  161.2580  208.0110  149.8090 C   0  0  2  0  0  3  0  0  0  0  0  0
  160.6610  201.8120  150.2890 C   0  0  0  0  0  3  0  0  0  0  0  0
  160.4720  209.5920  154.0430 C   0  0  0  0  0  2  0  0  0  0  0  0
  160.1740  210.8210  152.0510 O   0  0  0  0  0  0  0  0  0  0  0  0
  160.6620  203.0340  148.2730 F   0  0  0  0  0  0  0  0  0  0  0  0
  161.2240  205.3150  152.5160 C   0  0  0  0  0  0  0  0  0  0  0  0
  160.7540  201.7440  151.6780 C   0  0  0  0  0  3  0  0  0  0  0  0
  160.9440  204.2350  150.3610 C   0  0  0  0  0  0  0  0  0  0  0  0
  161.3260  206.5390  151.9140 C   0  0  0  0  0  0  0  0  0  0  0  0
  161.6650  207.1520  155.5890 C   0  0  0  0  0  1  0  0  0  0  0  0
  161.5080  207.5710  152.9740 C   0  0  1  0  0  3  0  0  0  0  0  0
  159.8920  210.8350  153.4250 C   0  0  0  0  0  2  0  0  0  0  0  0
  162.7950  209.5660  151.1850 C   0  0  0  0  0  1  0  0  0  0  0  0
  160.9430  202.9070  152.4230 C   0  0  0  0  0  3  0  0  0  0  0  0
  161.0390  204.1450  151.7800 C   0  0  0  0  0  0  0  0  0  0  0  0
  161.3960  209.3010  150.6360 C   0  0  2  0  0  3  0  0  0  0  0  0
  161.5800  207.0260  146.2250 C   0  0  0  0  0  2  0  0  0  0  0  0
  161.0610  205.2530  144.5740 C   0  0  0  0  0  1  0  0  0  0  0  0
  160.4820  206.1410  145.6540 C   0  0  0  0  0  2  0  0  0  0  0  0
  1 19  2  0  0  0  0
  1  4  1  0  0  0  0
  2 13  2  0  0  0  0
  2 19  1  0  0  0  0
  3 10  2  0  0  0  0
  4 20  2  0  0  0  0
  5  1  1  0  0  0  0
  7 15  1  1  0  0  0
  7  9  1  0  0  0  0
  8  6  1  1  0  0  0
  8 12  1  0  0  0  0
  9 22  1  0  0  0  0
  9 14  1  1  0  0  0
 10 21  1  0  0  0  0
 11 28  1  6  0  0  0
 11  5  1  0  0  0  0
 11  8  1  0  0  0  0
 12  4  1  1  0  0  0
 12 27  1  0  0  0  0
 13 18  1  0  0  0  0
 15 23  1  0  0  0  0
 16  2  1  0  0  0  0
 17  3  1  0  0  0  0
 18 25  2  0  0  0  0
 19 26  1  0  0  0  0
 20 17  1  0  0  0  0
 22 20  1  6  0  0  0
 22 10  1  0  0  0  0
 23 14  1  0  0  0  0
 26 25  1  0  0  0  0
 26 17  2  0  0  0  0
 27 24  1  1  0  0  0
 27  7  1  0  0  0  0
 29 30  1  0  0  0  0
 30 28  1  0  0  0  0
M  END
>  <MODEL>
3

>  <REMARK>
 VINA RESULT:      -6.9      2.145      3.178
  Name = 
  2 active torsions:
  status: ('A' for Active; 'I' for Inactive)
    1  A    between atoms: C_11  and  C_28
    2  A    between atoms: C_28  and  C_30
                            x       y       z     vdW  Elec       q    Type
                         _______ _______ _______ _____ _____    ______ ____

>  <TORSDO>
F 2

$$$$
=
 OpenBabel11122412373D

 30 35  0  0  1  0  0  0  0  0999 V2000
  161.2840  210.9470  150.7200 C   0  0  0  0  0  0  0  0  0  0  0  0
  160.8880  212.4790  148.7890 C   0  0  0  0  0  0  0  0  0  0  0  0
  158.9550  213.3430  153.2580 N   0  0  0  0  0  0  0  0  0  0  0  0
  161.0540  210.6280  152.0800 C   0  0  0  0  0  0  0  0  0  0  0  0
  162.2270  210.0590  149.9540 C   0  0  0  0  0  2  0  0  0  0  0  0
  160.4560  207.5650  151.7910 O   0  0  0  0  0  1  0  0  0  0  0  0
  162.0430  210.2230  155.0600 C   0  0  1  0  0  3  0  0  0  0  0  0
  161.6950  208.2020  151.6950 C   0  0  1  0  0  3  0  0  0  0  0  0
  161.1130  211.4430  155.1760 C   0  0  2  0  0  3  0  0  0  0  0  0
  159.0520  212.6890  154.3720 C   0  0  0  0  0  0  0  0  0  0  0  0
  161.9410  208.5730  150.2190 C   0  0  2  0  0  3  0  0  0  0  0  0
  161.7610  209.4150  152.6430 C   0  0  2  0  0  3  0  0  0  0  0  0
  160.2950  213.6390  148.2820 C   0  0  0  0  0  3  0  0  0  0  0  0
  160.7490  211.4500  156.6280 C   0  0  0  0  0  2  0  0  0  0  0  0
  162.3220  209.7150  156.3430 O   0  0  0  0  0  0  0  0  0  0  0  0
  161.6330  211.7270  147.9400 F   0  0  0  0  0  0  0  0  0  0  0  0
  159.7000  212.6140  152.2990 C   0  0  0  0  0  0  0  0  0  0  0  0
  159.5110  214.4530  149.0970 C   0  0  0  0  0  3  0  0  0  0  0  0
  160.6990  212.1150  150.1440 C   0  0  0  0  0  0  0  0  0  0  0  0
  160.2540  211.4870  152.8410 C   0  0  0  0  0  0  0  0  0  0  0  0
  158.3240  213.1280  155.5940 C   0  0  0  0  0  1  0  0  0  0  0  0
  159.8650  211.4150  154.2790 C   0  0  1  0  0  3  0  0  0  0  0  0
  161.8780  210.6810  157.2590 C   0  0  0  0  0  2  0  0  0  0  0  0
  160.2460  208.4770  154.5130 C   0  0  0  0  0  1  0  0  0  0  0  0
  159.3090  214.1140  150.4340 C   0  0  0  0  0  3  0  0  0  0  0  0
  159.8920  212.9580  150.9620 C   0  0  0  0  0  0  0  0  0  0  0  0
  161.5960  209.0790  154.1350 C   0  0  2  0  0  3  0  0  0  0  0  0
  162.9980  207.6770  149.5820 C   0  0  0  0  0  2  0  0  0  0  0  0
  161.1280  206.5990  148.3670 C   0  0  0  0  0  1  0  0  0  0  0  0
  162.5420  207.1240  148.2400 C   0  0  0  0  0  2  0  0  0  0  0  0
  1  4  1  0  0  0  0
  2 19  1  0  0  0  0
  3 10  2  0  0  0  0
  4 20  2  0  0  0  0
  5 11  1  0  0  0  0
  5  1  1  0  0  0  0
  7  9  1  0  0  0  0
  7 15  1  1  0  0  0
  8  6  1  6  0  0  0
  8 12  1  0  0  0  0
  9 14  1  1  0  0  0
 10 21  1  0  0  0  0
 11 28  1  1  0  0  0
 11  8  1  0  0  0  0
 12  4  1  6  0  0  0
 12 27  1  0  0  0  0
 13  2  2  0  0  0  0
 13 18  1  0  0  0  0
 14 23  1  0  0  0  0
 15 23  1  0  0  0  0
 16  2  1  0  0  0  0
 17 20  1  0  0  0  0
 17  3  1  0  0  0  0
 18 25  2  0  0  0  0
 19  1  2  0  0  0  0
 19 26  1  0  0  0  0
 22 20  1  6  0  0  0
 22 10  1  0  0  0  0
 22  9  1  0  0  0  0
 25 26  1  0  0  0  0
 26 17  2  0  0  0  0
 27 24  1  6  0  0  0
 27  7  1  0  0  0  0
 30 29  1  0  0  0  0
 30 28  1  0  0  0  0
M  END
>  <MODEL>
4

>  <REMARK>
 VINA RESULT:      -5.2      2.868      5.505
  Name = 
  2 active torsions:
  status: ('A' for Active; 'I' for Inactive)
    1  A    between atoms: C_11  and  C_28
    2  A    between atoms: C_28  and  C_30
                            x       y       z     vdW  Elec       q    Type
                         _______ _______ _______ _____ _____    ______ ____

>  <TORSDO>
F 2

$$$$
