=
 OpenBabel11122413233D

 31 35  0  0  1  0  0  0  0  0999 V2000
  161.1000  204.3160  145.5150 C   0  0  0  0  0  0  0  0  0  0  0  0
  160.5350  205.9050  148.9290 C   0  0  2  0  0  3  0  0  0  0  0  0
  160.8900  204.8770  149.9870 C   0  0  0  0  0  0  0  0  0  0  0  0
  161.1180  202.5540  150.6730 C   0  0  0  0  0  0  0  0  0  0  0  0
  161.1280  205.6050  147.5710 C   0  0  0  0  0  0  0  0  0  0  0  0
  162.2040  205.0310  145.0460 C   0  0  0  0  0  3  0  0  0  0  0  0
  160.8700  203.5080  149.6820 C   0  0  0  0  0  3  0  0  0  0  0  0
  162.3410  207.6850  149.2180 C   0  0  2  0  0  3  0  0  0  0  0  0
  160.5500  203.3420  144.7500 F   0  0  0  0  0  0  0  0  0  0  0  0
  161.1550  206.7290  151.6980 C   0  0  0  0  0  2  0  0  0  0  0  0
  161.1110  201.2040  150.3540 O   0  0  0  0  0  1  0  0  0  0  0  0
  162.7830  207.4070  147.8560 N   0  0  0  0  0  2  0  0  0  0  0  0
  160.8500  207.3450  149.3830 C   0  0  2  0  0  3  0  0  0  0  0  0
  160.5610  204.6050  146.7710 C   0  0  0  0  0  3  0  0  0  0  0  0
  161.3700  202.9600  151.9840 C   0  0  0  0  0  3  0  0  0  0  0  0
  162.2390  206.3280  147.0920 C   0  0  0  0  0  0  0  0  0  0  0  0
  162.7690  206.0410  145.8310 C   0  0  0  0  0  3  0  0  0  0  0  0
  160.3900  207.5580  150.7610 N   0  0  0  0  0  2  0  0  0  0  0  0
  161.1070  205.2770  151.3230 C   0  0  0  0  0  0  0  0  0  0  0  0
  161.3660  204.3190  152.3080 C   0  0  0  0  0  3  0  0  0  0  0  0
  161.2880  209.8920  147.7540 O   0  0  0  0  0  0  0  0  0  0  0  0
  162.0070  210.1480  148.7590 C   0  0  0  0  0  0  0  0  0  0  0  0
  162.5730  209.0880  149.5300 N   0  0  0  0  0  2  0  0  0  0  0  0
  160.9410  213.4830  147.4560 C   0  0  1  0  0  3  0  0  0  0  0  0
  160.9990  212.3150  149.5300 C   0  0  0  0  0  2  0  0  0  0  0  0
  164.1730  211.6370  147.6410 O   0  0  0  0  0  1  0  0  0  0  0  0
  160.0630  213.8940  146.2940 C   0  0  0  0  0  1  0  0  0  0  0  0
  160.1910  212.5930  148.3410 N   0  0  0  0  0  2  0  0  0  0  0  0
  163.0700  212.3610  148.0970 C   0  0  2  0  0  3  0  0  0  0  0  0
  162.2850  211.5680  149.1560 C   0  0  2  0  0  3  0  0  0  0  0  0
  162.1810  212.7690  146.9260 C   0  0  0  0  0  2  0  0  0  0  0  0
  1 14  1  0  0  0  0
  2  5  1  6  0  0  0
  2 13  1  0  0  0  0
  2  3  1  0  0  0  0
  3 19  1  0  0  0  0
  4 15  2  0  0  0  0
  6  1  2  0  0  0  0
  6 17  1  0  0  0  0
  7  3  2  0  0  0  0
  7  4  1  0  0  0  0
  8 13  1  0  0  0  0
  8 23  1  6  0  0  0
  9  1  1  0  0  0  0
 11  4  1  0  0  0  0
 12  8  1  0  0  0  0
 13 18  1  1  0  0  0
 14  5  2  0  0  0  0
 15 20  1  0  0  0  0
 16  5  1  0  0  0  0
 16 12  1  0  0  0  0
 17 16  2  0  0  0  0
 18 10  1  0  0  0  0
 19 10  1  0  0  0  0
 19 20  2  0  0  0  0
 21 22  2  0  0  0  0
 22 23  1  0  0  0  0
 24 27  1  6  0  0  0
 24 28  1  0  0  0  0
 28 25  1  0  0  0  0
 29 26  1  6  0  0  0
 29 30  1  0  0  0  0
 30 22  1  6  0  0  0
 30 25  1  0  0  0  0
 31 24  1  0  0  0  0
 31 29  1  0  0  0  0
M  END
>  <MODEL>
1

>  <REMARK>
 VINA RESULT:      -7.9      0.000      0.000
  Name = 
  2 active torsions:
  status: ('A' for Active; 'I' for Inactive)
    1  A    between atoms: C_5  and  C_30
    2  A    between atoms: C_10  and  N_16
                            x       y       z     vdW  Elec       q    Type
                         _______ _______ _______ _____ _____    ______ ____

>  <TORSDO>
F 2

$$$$
=
 OpenBabel11122413233D

 31 35  0  0  1  0  0  0  0  0999 V2000
  160.9450  206.8060  146.8280 C   0  0  0  0  0  0  0  0  0  0  0  0
  160.3340  205.1010  150.1780 C   0  0  2  0  0  3  0  0  0  0  0  0
  160.7620  203.6520  150.0480 C   0  0  0  0  0  0  0  0  0  0  0  0
  161.1300  201.6800  148.6710 C   0  0  0  0  0  0  0  0  0  0  0  0
  160.9260  206.0030  149.1180 C   0  0  0  0  0  0  0  0  0  0  0  0
  162.0010  207.6690  147.1340 C   0  0  0  0  0  3  0  0  0  0  0  0
  160.8160  203.0370  148.7880 C   0  0  0  0  0  3  0  0  0  0  0  0
  162.0400  206.0660  151.8140 C   0  0  2  0  0  3  0  0  0  0  0  0
  160.4420  206.7730  145.5710 F   0  0  0  0  0  0  0  0  0  0  0  0
  160.9420  203.4780  152.5710 C   0  0  0  0  0  2  0  0  0  0  0  0
  161.1970  201.0890  147.4180 O   0  0  0  0  0  1  0  0  0  0  0  0
  162.4790  206.9770  150.7630 N   0  0  0  0  0  2  0  0  0  0  0  0
  160.5730  205.6570  151.5970 C   0  0  2  0  0  3  0  0  0  0  0  0
  160.4070  205.9800  147.8180 C   0  0  0  0  0  3  0  0  0  0  0  0
  161.3760  200.9190  149.8150 C   0  0  0  0  0  3  0  0  0  0  0  0
  161.9880  206.8780  149.4250 C   0  0  0  0  0  0  0  0  0  0  0  0
  162.5170  207.7090  148.4330 C   0  0  0  0  0  3  0  0  0  0  0  0
  160.1190  204.6920  152.6060 N   0  0  0  0  0  2  0  0  0  0  0  0
  160.9720  202.8660  151.2020 C   0  0  0  0  0  0  0  0  0  0  0  0
  161.2980  201.5120  151.0770 C   0  0  0  0  0  3  0  0  0  0  0  0
  160.5520  208.3190  152.7260 O   0  0  0  0  0  0  0  0  0  0  0  0
  161.4100  207.8290  153.5110 C   0  0  0  0  0  0  0  0  0  0  0  0
  162.1950  206.7050  153.1130 N   0  0  0  0  0  2  0  0  0  0  0  0
  159.4020  210.0580  155.7370 C   0  0  1  0  0  3  0  0  0  0  0  0
  160.5430  207.9730  155.8640 C   0  0  0  0  0  2  0  0  0  0  0  0
  162.6120  210.3940  153.8750 O   0  0  0  0  0  1  0  0  0  0  0  0
  158.0500  210.7190  155.5720 C   0  0  0  0  0  1  0  0  0  0  0  0
  159.2610  208.6130  155.5650 N   0  0  0  0  0  2  0  0  0  0  0  0
  161.7330  209.9560  154.8670 C   0  0  2  0  0  3  0  0  0  0  0  0
  161.6240  208.4220  154.8740 C   0  0  2  0  0  3  0  0  0  0  0  0
  160.3680  210.6160  154.6960 C   0  0  0  0  0  2  0  0  0  0  0  0
  1  6  2  0  0  0  0
  1 14  1  0  0  0  0
  2  5  1  6  0  0  0
  2 13  1  0  0  0  0
  3  2  1  0  0  0  0
  3 19  1  0  0  0  0
  4  7  1  0  0  0  0
  4 15  2  0  0  0  0
  5 16  1  0  0  0  0
  6 17  1  0  0  0  0
  7  3  2  0  0  0  0
  8 23  1  1  0  0  0
  9  1  1  0  0  0  0
 10 18  1  0  0  0  0
 11  4  1  0  0  0  0
 12  8  1  0  0  0  0
 13  8  1  0  0  0  0
 13 18  1  1  0  0  0
 14  5  2  0  0  0  0
 15 20  1  0  0  0  0
 16 12  1  0  0  0  0
 17 16  2  0  0  0  0
 19 10  1  0  0  0  0
 20 19  2  0  0  0  0
 21 22  2  0  0  0  0
 23 22  1  0  0  0  0
 24 27  1  6  0  0  0
 28 24  1  0  0  0  0
 28 25  1  0  0  0  0
 29 26  1  6  0  0  0
 29 30  1  0  0  0  0
 30 22  1  6  0  0  0
 30 25  1  0  0  0  0
 31 29  1  0  0  0  0
 31 24  1  0  0  0  0
M  END
>  <MODEL>
2

>  <REMARK>
 VINA RESULT:      -7.4      3.407      4.877
  Name = 
  2 active torsions:
  status: ('A' for Active; 'I' for Inactive)
    1  A    between atoms: C_5  and  C_30
    2  A    between atoms: C_10  and  N_16
                            x       y       z     vdW  Elec       q    Type
                         _______ _______ _______ _____ _____    ______ ____

>  <TORSDO>
F 2

$$$$
=
 OpenBabel11122413233D

 31 35  0  0  1  0  0  0  0  0999 V2000
  160.8030  207.1350  156.3250 C   0  0  0  0  0  0  0  0  0  0  0  0
  161.9050  208.1080  152.8120 C   0  0  2  0  0  3  0  0  0  0  0  0
  161.4630  207.0100  151.8640 C   0  0  0  0  0  0  0  0  0  0  0  0
  160.8930  204.6800  151.4600 C   0  0  0  0  0  0  0  0  0  0  0  0
  161.1620  208.1050  154.1290 C   0  0  0  0  0  0  0  0  0  0  0  0
  159.8040  208.0780  156.5830 C   0  0  0  0  0  3  0  0  0  0  0  0
  161.2220  205.7130  152.3410 C   0  0  0  0  0  3  0  0  0  0  0  0
  160.4630  210.0950  152.1150 C   0  0  2  0  0  3  0  0  0  0  0  0
  161.1130  206.2050  157.2600 F   0  0  0  0  0  0  0  0  0  0  0  0
  161.6600  208.6160  149.9120 C   0  0  0  0  0  2  0  0  0  0  0  0
  160.6410  203.4060  151.9480 O   0  0  0  0  0  1  0  0  0  0  0  0
  159.8720  210.0880  153.4480 N   0  0  0  0  0  2  0  0  0  0  0  0
  161.8810  209.5000  152.1480 C   0  0  2  0  0  3  0  0  0  0  0  0
  161.4820  207.1510  155.1040 C   0  0  0  0  0  3  0  0  0  0  0  0
  160.8200  204.9290  150.0880 C   0  0  0  0  0  3  0  0  0  0  0  0
  160.1580  209.0570  154.3950 C   0  0  0  0  0  0  0  0  0  0  0  0
  159.4880  209.0420  155.6210 C   0  0  0  0  0  3  0  0  0  0  0  0
  162.4800  209.4370  150.8090 N   0  0  0  0  0  2  0  0  0  0  0  0
  161.4260  207.2440  150.4730 C   0  0  0  0  0  0  0  0  0  0  0  0
  161.0860  206.2080  149.5970 C   0  0  0  0  0  3  0  0  0  0  0  0
  158.2450  211.8820  152.0220 O   0  0  0  0  0  0  0  0  0  0  0  0
  159.3540  212.3050  151.5930 C   0  0  0  0  0  0  0  0  0  0  0  0
  160.5030  211.4580  151.6030 N   0  0  0  0  0  2  0  0  0  0  0  0
  157.7820  214.1810  148.7710 C   0  0  1  0  0  3  0  0  0  0  0  0
  158.1470  214.4530  151.1070 C   0  0  0  0  0  2  0  0  0  0  0  0
  161.2230  212.9760  149.5400 O   0  0  0  0  0  1  0  0  0  0  0  0
  156.7710  213.7850  147.7160 C   0  0  0  0  0  1  0  0  0  0  0  0
  157.2200  213.9380  150.0980 N   0  0  0  0  0  2  0  0  0  0  0  0
  160.0780  213.7670  149.6420 C   0  0  2  0  0  3  0  0  0  0  0  0
  159.4830  213.7020  151.0590 C   0  0  2  0  0  3  0  0  0  0  0  0
  159.0560  213.3620  148.5840 C   0  0  0  0  0  2  0  0  0  0  0  0
  1  6  1  0  0  0  0
  1  9  1  0  0  0  0
  2  3  1  6  0  0  0
  2  5  1  0  0  0  0
  3  7  1  0  0  0  0
  4 11  1  0  0  0  0
  4  7  2  0  0  0  0
  5 16  2  0  0  0  0
  5 14  1  0  0  0  0
  8 23  1  1  0  0  0
  8 13  1  0  0  0  0
  8 12  1  0  0  0  0
 10 19  1  0  0  0  0
 10 18  1  0  0  0  0
 12 16  1  0  0  0  0
 13 18  1  6  0  0  0
 13  2  1  0  0  0  0
 14  1  2  0  0  0  0
 15  4  1  0  0  0  0
 16 17  1  0  0  0  0
 17  6  2  0  0  0  0
 19  3  2  0  0  0  0
 20 15  2  0  0  0  0
 20 19  1  0  0  0  0
 22 23  1  0  0  0  0
 22 21  2  0  0  0  0
 24 27  1  6  0  0  0
 24 28  1  0  0  0  0
 28 25  1  0  0  0  0
 29 26  1  1  0  0  0
 29 30  1  0  0  0  0
 30 25  1  0  0  0  0
 30 22  1  6  0  0  0
 31 24  1  0  0  0  0
 31 29  1  0  0  0  0
M  END
>  <MODEL>
3

>  <REMARK>
 VINA RESULT:      -6.8      3.832      5.935
  Name = 
  2 active torsions:
  status: ('A' for Active; 'I' for Inactive)
    1  A    between atoms: C_5  and  C_30
    2  A    between atoms: C_10  and  N_16
                            x       y       z     vdW  Elec       q    Type
                         _______ _______ _______ _____ _____    ______ ____

>  <TORSDO>
F 2

$$$$
=
 OpenBabel11122413233D

 31 35  0  0  1  0  0  0  0  0999 V2000
  160.9850  204.7050  145.1570 C   0  0  0  0  0  0  0  0  0  0  0  0
  160.5240  205.1180  148.9140 C   0  0  2  0  0  3  0  0  0  0  0  0
  160.8720  203.7980  149.5750 C   0  0  0  0  0  0  0  0  0  0  0  0
  161.0510  201.3740  149.4700 C   0  0  0  0  0  0  0  0  0  0  0  0
  161.0850  205.2620  147.5170 C   0  0  0  0  0  0  0  0  0  0  0  0
  162.1000  205.5130  144.9150 C   0  0  0  0  0  3  0  0  0  0  0  0
  160.8100  202.6010  148.8460 C   0  0  0  0  0  3  0  0  0  0  0  0
  162.3820  206.6760  149.7150 C   0  0  2  0  0  3  0  0  0  0  0  0
  160.3970  204.0410  144.1340 F   0  0  0  0  0  0  0  0  0  0  0  0
  161.2160  204.9930  151.7840 C   0  0  0  0  0  2  0  0  0  0  0  0
  161.0030  200.1990  148.7340 O   0  0  0  0  0  1  0  0  0  0  0  0
  162.7910  206.8430  148.3240 N   0  0  0  0  0  2  0  0  0  0  0  0
  160.8860  206.3290  149.8000 C   0  0  2  0  0  3  0  0  0  0  0  0
  160.4770  204.5830  146.4530 C   0  0  0  0  0  3  0  0  0  0  0  0
  161.3380  201.3300  150.8360 C   0  0  0  0  0  3  0  0  0  0  0  0
  162.2060  206.0790  147.2680 C   0  0  0  0  0  0  0  0  0  0  0  0
  162.7040  206.2040  145.9690 C   0  0  0  0  0  3  0  0  0  0  0  0
  160.4560  206.0940  151.1840 N   0  0  0  0  0  2  0  0  0  0  0  0
  161.1230  203.7410  150.9620 C   0  0  0  0  0  0  0  0  0  0  0  0
  161.3750  202.5110  151.5790 C   0  0  0  0  0  3  0  0  0  0  0  0
  161.5810  209.2940  148.9240 O   0  0  0  0  0  0  0  0  0  0  0  0
  162.2180  209.1800  150.0070 C   0  0  0  0  0  0  0  0  0  0  0  0
  162.6560  207.8980  150.4560 N   0  0  0  0  0  2  0  0  0  0  0  0
  160.2630  211.2960  152.3850 C   0  0  1  0  0  3  0  0  0  0  0  0
  162.3310  210.1190  152.3330 C   0  0  0  0  0  2  0  0  0  0  0  0
  161.8020  211.8340  149.0350 O   0  0  0  0  0  1  0  0  0  0  0  0
  158.8240  211.2460  152.8540 C   0  0  0  0  0  1  0  0  0  0  0  0
  160.9080  210.0140  152.6610 N   0  0  0  0  0  2  0  0  0  0  0  0
  161.7480  211.6450  150.4170 C   0  0  2  0  0  3  0  0  0  0  0  0
  162.5310  210.3910  150.8380 C   0  0  2  0  0  3  0  0  0  0  0  0
  160.2980  211.5880  150.8880 C   0  0  0  0  0  2  0  0  0  0  0  0
  1 14  1  0  0  0  0
  2  5  1  6  0  0  0
  2  3  1  0  0  0  0
  2 13  1  0  0  0  0
  3 19  1  0  0  0  0
  4 15  2  0  0  0  0
  6  1  2  0  0  0  0
  6 17  1  0  0  0  0
  7  4  1  0  0  0  0
  7  3  2  0  0  0  0
  8 13  1  0  0  0  0
  8 23  1  1  0  0  0
  9  1  1  0  0  0  0
 11  4  1  0  0  0  0
 12  8  1  0  0  0  0
 13 18  1  1  0  0  0
 14  5  2  0  0  0  0
 15 20  1  0  0  0  0
 16  5  1  0  0  0  0
 16 12  1  0  0  0  0
 17 16  2  0  0  0  0
 18 10  1  0  0  0  0
 19 20  2  0  0  0  0
 19 10  1  0  0  0  0
 21 22  2  0  0  0  0
 22 23  1  0  0  0  0
 24 28  1  0  0  0  0
 24 27  1  6  0  0  0
 25 28  1  0  0  0  0
 29 26  1  6  0  0  0
 29 30  1  0  0  0  0
 29 31  1  0  0  0  0
 30 22  1  6  0  0  0
 30 25  1  0  0  0  0
 31 24  1  0  0  0  0
M  END
>  <MODEL>
4

>  <REMARK>
 VINA RESULT:      -6.6      1.975      2.531
  Name = 
  2 active torsions:
  status: ('A' for Active; 'I' for Inactive)
    1  A    between atoms: C_5  and  C_30
    2  A    between atoms: C_10  and  N_16
                            x       y       z     vdW  Elec       q    Type
                         _______ _______ _______ _____ _____    ______ ____

>  <TORSDO>
F 2

$$$$
=
 OpenBabel11122413233D

 31 35  0  0  1  0  0  0  0  0999 V2000
  160.7790  209.3520  154.8320 C   0  0  0  0  0  0  0  0  0  0  0  0
  162.0780  209.5860  151.2600 C   0  0  2  0  0  3  0  0  0  0  0  0
  161.5790  208.3710  150.5010 C   0  0  0  0  0  0  0  0  0  0  0  0
  160.8300  206.0560  150.4920 C   0  0  0  0  0  0  0  0  0  0  0  0
  161.2930  209.8780  152.5190 C   0  0  0  0  0  0  0  0  0  0  0  0
  159.8550  210.3990  154.8690 C   0  0  0  0  0  3  0  0  0  0  0  0
  161.2140  207.2040  151.1890 C   0  0  0  0  0  3  0  0  0  0  0  0
  160.8300  211.5170  150.1500 C   0  0  2  0  0  3  0  0  0  0  0  0
  160.9790  208.5860  155.9310 F   0  0  0  0  0  0  0  0  0  0  0  0
  161.9750  209.5770  148.3070 C   0  0  0  0  0  2  0  0  0  0  0  0
  160.4560  204.9140  151.1850 O   0  0  0  0  0  1  0  0  0  0  0  0
  160.1960  211.7970  151.4340 N   0  0  0  0  0  2  0  0  0  0  0  0
  162.1920  210.8320  150.3580 C   0  0  2  0  0  3  0  0  0  0  0  0
  161.4990  209.0950  153.6620 C   0  0  0  0  0  3  0  0  0  0  0  0
  160.8250  206.0570  149.0950 C   0  0  0  0  0  3  0  0  0  0  0  0
  160.3630  210.9360  152.5620 C   0  0  0  0  0  0  0  0  0  0  0  0
  159.6520  211.1940  153.7370 C   0  0  0  0  0  3  0  0  0  0  0  0
  162.8290  210.4830  149.0820 N   0  0  0  0  0  2  0  0  0  0  0  0
  161.6090  208.3510  149.0910 C   0  0  0  0  0  0  0  0  0  0  0  0
  161.2130  207.2030  148.3970 C   0  0  0  0  0  3  0  0  0  0  0  0
  160.0440  211.9330  147.4430 O   0  0  0  0  0  0  0  0  0  0  0  0
  160.5770  212.9020  148.0520 C   0  0  0  0  0  0  0  0  0  0  0  0
  161.0010  212.7570  149.4070 N   0  0  0  0  0  2  0  0  0  0  0  0
  161.4630  213.9180  144.5680 C   0  0  1  0  0  3  0  0  0  0  0  0
  159.7980  214.4050  146.1970 C   0  0  0  0  0  2  0  0  0  0  0  0
  163.1410  214.1490  147.8870 O   0  0  0  0  0  1  0  0  0  0  0  0
  161.7730  213.1220  143.3180 C   0  0  0  0  0  1  0  0  0  0  0  0
  160.1470  213.5340  145.0740 N   0  0  0  0  0  2  0  0  0  0  0  0
  162.2210  214.4470  146.8800 C   0  0  2  0  0  3  0  0  0  0  0  0
  160.7790  214.2190  147.3610 C   0  0  2  0  0  3  0  0  0  0  0  0
  162.5300  213.6390  145.6230 C   0  0  0  0  0  2  0  0  0  0  0  0
  1  6  1  0  0  0  0
  1  9  1  0  0  0  0
  2  3  1  6  0  0  0
  2  5  1  0  0  0  0
  3  7  1  0  0  0  0
  4 11  1  0  0  0  0
  4  7  2  0  0  0  0
  5 16  2  0  0  0  0
  5 14  1  0  0  0  0
  8 23  1  1  0  0  0
  8 13  1  0  0  0  0
  8 12  1  0  0  0  0
 10 18  1  0  0  0  0
 10 19  1  0  0  0  0
 12 16  1  0  0  0  0
 13 18  1  6  0  0  0
 13  2  1  0  0  0  0
 14  1  2  0  0  0  0
 15  4  1  0  0  0  0
 16 17  1  0  0  0  0
 17  6  2  0  0  0  0
 19  3  2  0  0  0  0
 20 19  1  0  0  0  0
 20 15  2  0  0  0  0
 21 22  2  0  0  0  0
 22 23  1  0  0  0  0
 24 27  1  6  0  0  0
 24 28  1  0  0  0  0
 24 31  1  0  0  0  0
 25 30  1  0  0  0  0
 28 25  1  0  0  0  0
 29 30  1  0  0  0  0
 29 26  1  1  0  0  0
 30 22  1  6  0  0  0
 31 29  1  0  0  0  0
M  END
>  <MODEL>
5

>  <REMARK>
 VINA RESULT:      -6.0      3.324      5.720
  Name = 
  2 active torsions:
  status: ('A' for Active; 'I' for Inactive)
    1  A    between atoms: C_5  and  C_30
    2  A    between atoms: C_10  and  N_16
                            x       y       z     vdW  Elec       q    Type
                         _______ _______ _______ _____ _____    ______ ____

>  <TORSDO>
F 2

$$$$
=
 OpenBabel11122413233D

 31 35  0  0  1  0  0  0  0  0999 V2000
  161.9110  212.8020  148.0740 C   0  0  0  0  0  0  0  0  0  0  0  0
  159.6340  213.9420  150.9050 C   0  0  2  0  0  3  0  0  0  0  0  0
  158.2100  213.9520  150.3830 C   0  0  0  0  0  0  0  0  0  0  0  0
  156.6490  214.1470  148.5280 C   0  0  0  0  0  0  0  0  0  0  0  0
  160.5750  213.0950  150.0790 C   0  0  0  0  0  0  0  0  0  0  0  0
  162.3250  211.5470  148.5270 C   0  0  0  0  0  3  0  0  0  0  0  0
  157.9580  214.0560  149.0070 C   0  0  0  0  0  3  0  0  0  0  0  0
  159.6090  212.0600  152.6290 C   0  0  2  0  0  3  0  0  0  0  0  0
  162.3530  213.2710  146.8820 F   0  0  0  0  0  0  0  0  0  0  0  0
  157.3370  213.8750  152.7620 C   0  0  0  0  0  2  0  0  0  0  0  0
  156.4130  214.2320  147.1630 O   0  0  0  0  0  1  0  0  0  0  0  0
  160.6000  211.3560  151.8220 N   0  0  0  0  0  2  0  0  0  0  0  0
  159.7060  213.5780  152.4020 C   0  0  2  0  0  3  0  0  0  0  0  0
  161.0420  213.5750  148.8490 C   0  0  0  0  0  3  0  0  0  0  0  0
  155.5770  214.1530  149.4220 C   0  0  0  0  0  3  0  0  0  0  0  0
  160.9990  211.8310  150.5350 C   0  0  0  0  0  0  0  0  0  0  0  0
  161.8740  211.0660  149.7600 C   0  0  0  0  0  3  0  0  0  0  0  0
  158.6810  214.3110  153.1560 N   0  0  0  0  0  2  0  0  0  0  0  0
  157.1230  213.9990  151.2820 C   0  0  0  0  0  0  0  0  0  0  0  0
  155.8140  214.0790  150.7960 C   0  0  0  0  0  3  0  0  0  0  0  0
  157.6780  210.8550  154.3440 O   0  0  0  0  0  0  0  0  0  0  0  0
  158.8040  211.1360  154.8390 C   0  0  0  0  0  0  0  0  0  0  0  0
  159.8130  211.7500  154.0370 N   0  0  0  0  0  2  0  0  0  0  0  0
  161.9280  210.9130  156.8750 C   0  0  1  0  0  3  0  0  0  0  0  0
  159.8170  212.0070  156.9660 C   0  0  0  0  0  2  0  0  0  0  0  0
  159.3310  208.4850  155.7600 O   0  0  0  0  0  1  0  0  0  0  0  0
  163.3920  211.0780  156.5250 C   0  0  0  0  0  1  0  0  0  0  0  0
  161.1990  212.1220  156.4970 N   0  0  0  0  0  2  0  0  0  0  0  0
  159.8900  209.5360  156.4900 C   0  0  2  0  0  3  0  0  0  0  0  0
  159.1000  210.8380  156.2810 C   0  0  2  0  0  3  0  0  0  0  0  0
  161.3630  209.7070  156.1310 C   0  0  0  0  0  2  0  0  0  0  0  0
  1  6  2  0  0  0  0
  1 14  1  0  0  0  0
  2  5  1  6  0  0  0
  2 13  1  0  0  0  0
  3  2  1  0  0  0  0
  3 19  1  0  0  0  0
  4  7  1  0  0  0  0
  4 15  2  0  0  0  0
  5 16  1  0  0  0  0
  6 17  1  0  0  0  0
  7  3  2  0  0  0  0
  8 23  1  1  0  0  0
  9  1  1  0  0  0  0
 10 18  1  0  0  0  0
 11  4  1  0  0  0  0
 12  8  1  0  0  0  0
 13  8  1  0  0  0  0
 13 18  1  1  0  0  0
 14  5  2  0  0  0  0
 15 20  1  0  0  0  0
 16 12  1  0  0  0  0
 17 16  2  0  0  0  0
 19 10  1  0  0  0  0
 20 19  2  0  0  0  0
 21 22  2  0  0  0  0
 23 22  1  0  0  0  0
 24 27  1  6  0  0  0
 28 24  1  0  0  0  0
 28 25  1  0  0  0  0
 29 26  1  6  0  0  0
 30 22  1  6  0  0  0
 30 29  1  0  0  0  0
 30 25  1  0  0  0  0
 31 29  1  0  0  0  0
 31 24  1  0  0  0  0
M  END
>  <MODEL>
6

>  <REMARK>
 VINA RESULT:      -5.1      5.855      9.110
  Name = 
  2 active torsions:
  status: ('A' for Active; 'I' for Inactive)
    1  A    between atoms: C_5  and  C_30
    2  A    between atoms: C_10  and  N_16
                            x       y       z     vdW  Elec       q    Type
                         _______ _______ _______ _____ _____    ______ ____

>  <TORSDO>
F 2

$$$$
=
 OpenBabel11122413233D

 31 35  0  0  1  0  0  0  0  0999 V2000
  162.0300  206.4920  147.5240 C   0  0  0  0  0  0  0  0  0  0  0  0
  162.3330  209.2810  150.0990 C   0  0  2  0  0  3  0  0  0  0  0  0
  161.7020  210.5290  149.5110 C   0  0  0  0  0  0  0  0  0  0  0  0
  161.0740  211.8580  147.5730 C   0  0  0  0  0  0  0  0  0  0  0  0
  161.8950  208.0040  149.4180 C   0  0  0  0  0  0  0  0  0  0  0  0
  161.1060  205.6400  148.1330 C   0  0  0  0  0  3  0  0  0  0  0  0
  161.5800  210.6770  148.1220 C   0  0  0  0  0  3  0  0  0  0  0  0
  160.7590  208.6830  152.0180 C   0  0  2  0  0  3  0  0  0  0  0  0
  162.5430  206.1780  146.3100 F   0  0  0  0  0  0  0  0  0  0  0  0
  161.4580  211.5030  151.8390 C   0  0  0  0  0  2  0  0  0  0  0  0
  160.9420  211.9840  146.1970 O   0  0  0  0  0  1  0  0  0  0  0  0
  160.4740  207.4220  151.3420 N   0  0  0  0  0  2  0  0  0  0  0  0
  162.1550  209.2010  151.6290 C   0  0  2  0  0  3  0  0  0  0  0  0
  162.4270  207.6680  148.1660 C   0  0  0  0  0  3  0  0  0  0  0  0
  160.7010  212.9120  148.4080 C   0  0  0  0  0  3  0  0  0  0  0  0
  160.9670  207.1400  150.0310 C   0  0  0  0  0  0  0  0  0  0  0  0
  160.5800  205.9600  149.3880 C   0  0  0  0  0  3  0  0  0  0  0  0
  162.4480  210.5000  152.2460 N   0  0  0  0  0  2  0  0  0  0  0  0
  161.3610  211.6150  150.3460 C   0  0  0  0  0  0  0  0  0  0  0  0
  160.8450  212.7900  149.7920 C   0  0  0  0  0  3  0  0  0  0  0  0
  159.2800  210.3330  153.8080 O   0  0  0  0  0  0  0  0  0  0  0  0
  159.9100  209.3570  154.3000 C   0  0  0  0  0  0  0  0  0  0  0  0
  160.6780  208.4960  153.4590 N   0  0  0  0  0  2  0  0  0  0  0  0
  162.1500  210.1850  157.1720 C   0  0  1  0  0  3  0  0  0  0  0  0
  159.8510  210.3880  156.5890 C   0  0  0  0  0  2  0  0  0  0  0  0
  161.1240  207.0430  155.4530 O   0  0  0  0  0  1  0  0  0  0  0  0
  163.4720  210.9180  157.2610 C   0  0  0  0  0  1  0  0  0  0  0  0
  161.1550  211.0520  156.5430 N   0  0  0  0  0  2  0  0  0  0  0  0
  161.0010  208.1710  156.2660 C   0  0  2  0  0  3  0  0  0  0  0  0
  159.8680  209.0880  155.7760 C   0  0  2  0  0  3  0  0  0  0  0  0
  162.3310  208.9130  156.3490 C   0  0  0  0  0  2  0  0  0  0  0  0
  1  6  2  0  0  0  0
  1 14  1  0  0  0  0
  2  5  1  6  0  0  0
  2 13  1  0  0  0  0
  3  2  1  0  0  0  0
  3 19  1  0  0  0  0
  4  7  1  0  0  0  0
  4 15  2  0  0  0  0
  5 16  1  0  0  0  0
  6 17  1  0  0  0  0
  7  3  2  0  0  0  0
  8 23  1  1  0  0  0
  9  1  1  0  0  0  0
 10 18  1  0  0  0  0
 11  4  1  0  0  0  0
 12  8  1  0  0  0  0
 13  8  1  0  0  0  0
 13 18  1  1  0  0  0
 14  5  2  0  0  0  0
 15 20  1  0  0  0  0
 16 12  1  0  0  0  0
 17 16  2  0  0  0  0
 19 10  1  0  0  0  0
 20 19  2  0  0  0  0
 21 22  2  0  0  0  0
 23 22  1  0  0  0  0
 24 27  1  6  0  0  0
 28 25  1  0  0  0  0
 28 24  1  0  0  0  0
 29 26  1  6  0  0  0
 29 31  1  0  0  0  0
 30 22  1  6  0  0  0
 30 29  1  0  0  0  0
 30 25  1  0  0  0  0
 31 24  1  0  0  0  0
M  END
>  <MODEL>
7

>  <REMARK>
 VINA RESULT:      -5.0      3.776      7.044
  Name = 
  2 active torsions:
  status: ('A' for Active; 'I' for Inactive)
    1  A    between atoms: C_5  and  C_30
    2  A    between atoms: C_10  and  N_16
                            x       y       z     vdW  Elec       q    Type
                         _______ _______ _______ _____ _____    ______ ____

>  <TORSDO>
F 2

$$$$
