=
 OpenBabel11122413243D

 31 35  0  0  1  0  0  0  0  0999 V2000
  160.9620  206.5730  146.6430 C   0  0  0  0  0  0  0  0  0  0  0  0
  160.4370  205.0630  150.0960 C   0  0  2  0  0  3  0  0  0  0  0  0
  161.1190  203.6710  150.0850 C   0  0  2  0  0  3  0  0  0  0  0  0
  161.5470  201.6030  148.7350 C   0  0  2  0  0  3  0  0  0  0  0  0
  160.9540  205.9640  148.9950 C   0  0  0  0  0  0  0  0  0  0  0  0
  161.9400  207.5380  146.8910 C   0  0  0  0  0  3  0  0  0  0  0  0
  160.8570  202.9600  148.7510 C   0  0  0  0  0  2  0  0  0  0  0  0
  162.0340  206.2220  151.6690 C   0  0  2  0  0  3  0  0  0  0  0  0
  160.4920  206.3930  145.3850 F   0  0  0  0  0  0  0  0  0  0  0  0
  160.9090  203.4730  152.4680 C   0  0  0  0  0  2  0  0  0  0  0  0
  161.2010  200.8720  147.4560 C   0  0  0  0  0  1  0  0  0  0  0  0
  162.3820  207.2920  150.6360 C   0  0  0  0  0  2  0  0  0  0  0  0
  160.5890  205.7410  151.4700 C   0  0  2  0  0  3  0  0  0  0  0  0
  160.4690  205.7930  147.6900 C   0  0  0  0  0  3  0  0  0  0  0  0
  161.0960  200.7790  149.9330 C   0  0  0  0  0  2  0  0  0  0  0  0
  161.9390  206.9460  149.2430 C   0  0  0  0  0  0  0  0  0  0  0  0
  162.4190  207.7290  148.1890 C   0  0  0  0  0  3  0  0  0  0  0  0
  160.1480  204.7880  152.5800 C   0  0  0  0  0  2  0  0  0  0  0  0
  160.6150  202.8300  151.1910 N   0  0  2  0  0  0  0  0  0  0  0  0
  161.3580  201.5700  151.2090 C   0  0  0  0  0  2  0  0  0  0  0  0
  160.6130  208.4550  152.7340 O   0  0  0  0  0  0  0  0  0  0  0  0
  161.4570  207.8890  153.4820 C   0  0  0  0  0  0  0  0  0  0  0  0
  162.2090  206.7720  153.0070 N   0  0  0  0  0  2  0  0  0  0  0  0
  159.4040  209.9220  155.9320 C   0  0  1  0  0  3  0  0  0  0  0  0
  160.7080  207.7770  155.8820 C   0  0  0  0  0  2  0  0  0  0  0  0
  162.5680  210.4770  154.0310 O   0  0  0  0  0  1  0  0  0  0  0  0
  158.1310  210.4760  155.8100 O   0  0  0  0  0  1  0  0  0  0  0  0
  159.3200  208.4090  155.7620 C   0  0  0  0  0  2  0  0  0  0  0  0
  161.7210  209.9200  154.9910 C   0  0  2  0  0  3  0  0  0  0  0  0
  161.6930  208.3870  154.8790 C   0  0  2  0  0  3  0  0  0  0  0  0
  160.3220  210.5220  154.8720 C   0  0  0  0  0  2  0  0  0  0  0  0
  1  6  2  0  0  0  0
  1 14  1  0  0  0  0
  2  5  1  6  0  0  0
  2 13  1  0  0  0  0
  3  7  1  6  0  0  0
  3  2  1  0  0  0  0
  3 19  1  0  0  0  0
  4 11  1  6  0  0  0
  4  7  1  0  0  0  0
  4 15  1  0  0  0  0
  5 16  1  0  0  0  0
  6 17  1  0  0  0  0
  8 23  1  1  0  0  0
  9  1  1  0  0  0  0
 10 18  1  0  0  0  0
 12  8  1  0  0  0  0
 13  8  1  0  0  0  0
 13 18  1  1  0  0  0
 14  5  2  0  0  0  0
 15 20  1  0  0  0  0
 16 12  1  0  0  0  0
 17 16  2  0  0  0  0
 19 20  1  1  0  0  0
 19 10  1  0  0  0  0
 21 22  2  0  0  0  0
 23 22  1  0  0  0  0
 24 27  1  6  0  0  0
 28 25  1  0  0  0  0
 28 24  1  0  0  0  0
 29 26  1  6  0  0  0
 30 22  1  6  0  0  0
 30 29  1  0  0  0  0
 30 25  1  0  0  0  0
 31 29  1  0  0  0  0
 31 24  1  0  0  0  0
M  END
>  <MODEL>
1

>  <REMARK>
 VINA RESULT:      -7.3      0.000      0.000
  Name = 
  2 active torsions:
  status: ('A' for Active; 'I' for Inactive)
    1  A    between atoms: C_5  and  C_30
    2  A    between atoms: C_10  and  N_16
                            x       y       z     vdW  Elec       q    Type
                         _______ _______ _______ _____ _____    ______ ____

>  <TORSDO>
F 2

$$$$
=
 OpenBabel11122413243D

 31 35  0  0  1  0  0  0  0  0999 V2000
  160.7870  207.3960  156.3920 C   0  0  0  0  0  0  0  0  0  0  0  0
  161.7500  208.5200  152.8860 C   0  0  2  0  0  3  0  0  0  0  0  0
  161.1350  207.4930  151.9010 C   0  0  2  0  0  3  0  0  0  0  0  0
  160.6590  205.0660  151.4940 C   0  0  2  0  0  3  0  0  0  0  0  0
  161.0770  208.4890  154.2420 C   0  0  0  0  0  0  0  0  0  0  0  0
  159.7980  208.3190  156.7340 C   0  0  0  0  0  3  0  0  0  0  0  0
  161.2850  206.0700  152.4540 C   0  0  0  0  0  2  0  0  0  0  0  0
  160.2800  210.4870  152.3030 C   0  0  2  0  0  3  0  0  0  0  0  0
  161.1270  206.4130  157.2610 F   0  0  0  0  0  0  0  0  0  0  0  0
  161.6100  208.9090  150.0220 C   0  0  0  0  0  2  0  0  0  0  0  0
  160.9000  203.6610  152.0030 C   0  0  0  0  0  1  0  0  0  0  0  0
  159.7740  210.6210  153.7380 C   0  0  0  0  0  2  0  0  0  0  0  0
  161.7160  209.9410  152.2940 C   0  0  2  0  0  3  0  0  0  0  0  0
  161.4250  207.4820  155.1530 C   0  0  0  0  0  3  0  0  0  0  0  0
  161.2740  205.2210  150.1110 C   0  0  0  0  0  2  0  0  0  0  0  0
  160.0800  209.4270  154.5950 C   0  0  0  0  0  0  0  0  0  0  0  0
  159.4540  209.3370  155.8420 C   0  0  0  0  0  3  0  0  0  0  0  0
  162.3170  209.9410  150.8890 C   0  0  0  0  0  2  0  0  0  0  0  0
  161.7940  207.5730  150.5810 N   0  0  2  0  0  0  0  0  0  0  0  0
  161.1160  206.6660  149.6540 C   0  0  0  0  0  2  0  0  0  0  0  0
  157.9420  212.0980  152.0300 O   0  0  0  0  0  0  0  0  0  0  0  0
  159.0210  212.5500  151.5560 C   0  0  0  0  0  0  0  0  0  0  0  0
  160.2260  211.7880  151.6500 N   0  0  0  0  0  2  0  0  0  0  0  0
  157.7610  213.8310  148.2210 C   0  0  1  0  0  3  0  0  0  0  0  0
  157.6480  214.4530  150.6510 C   0  0  0  0  0  2  0  0  0  0  0  0
  161.1230  213.3140  149.7580 O   0  0  0  0  0  1  0  0  0  0  0  0
  157.0940  213.1740  147.1890 O   0  0  0  0  0  1  0  0  0  0  0  0
  156.9310  213.7470  149.4990 C   0  0  0  0  0  2  0  0  0  0  0  0
  159.8670  213.8930  149.5680 C   0  0  2  0  0  3  0  0  0  0  0  0
  159.0540  213.8870  150.8730 C   0  0  2  0  0  3  0  0  0  0  0  0
  159.1270  213.1860  148.4350 C   0  0  0  0  0  2  0  0  0  0  0  0
  1  6  1  0  0  0  0
  1  9  1  0  0  0  0
  2  5  1  1  0  0  0
  3  7  1  1  0  0  0
  3  2  1  0  0  0  0
  4 11  1  1  0  0  0
  4  7  1  0  0  0  0
  5 16  2  0  0  0  0
  5 14  1  0  0  0  0
  8 23  1  1  0  0  0
  8 12  1  0  0  0  0
 10 19  1  0  0  0  0
 10 18  1  0  0  0  0
 12 16  1  0  0  0  0
 13 18  1  6  0  0  0
 13  8  1  0  0  0  0
 13  2  1  0  0  0  0
 14  1  2  0  0  0  0
 15  4  1  0  0  0  0
 16 17  1  0  0  0  0
 17  6  2  0  0  0  0
 19 20  1  6  0  0  0
 19  3  1  0  0  0  0
 20 15  1  0  0  0  0
 22 23  1  0  0  0  0
 22 21  2  0  0  0  0
 24 27  1  6  0  0  0
 24 31  1  0  0  0  0
 24 28  1  0  0  0  0
 25 30  1  0  0  0  0
 28 25  1  0  0  0  0
 29 26  1  1  0  0  0
 29 30  1  0  0  0  0
 30 22  1  6  0  0  0
 31 29  1  0  0  0  0
M  END
>  <MODEL>
2

>  <REMARK>
 VINA RESULT:      -7.3      4.408      6.821
  Name = 
  2 active torsions:
  status: ('A' for Active; 'I' for Inactive)
    1  A    between atoms: C_5  and  C_30
    2  A    between atoms: C_10  and  N_16
                            x       y       z     vdW  Elec       q    Type
                         _______ _______ _______ _____ _____    ______ ____

>  <TORSDO>
F 2

$$$$
=
 OpenBabel11122413243D

 31 35  0  0  1  0  0  0  0  0999 V2000
  161.1900  203.9340  145.7540 C   0  0  0  0  0  0  0  0  0  0  0  0
  160.6540  205.8290  149.0100 C   0  0  2  0  0  3  0  0  0  0  0  0
  161.2470  204.9520  150.1420 C   0  0  2  0  0  3  0  0  0  0  0  0
  161.5130  202.6150  151.0060 C   0  0  2  0  0  3  0  0  0  0  0  0
  161.1990  205.4550  147.6480 C   0  0  0  0  0  0  0  0  0  0  0  0
  162.2320  204.6520  145.1660 C   0  0  0  0  0  3  0  0  0  0  0  0
  160.9090  203.4750  149.9040 C   0  0  0  0  0  2  0  0  0  0  0  0
  162.3560  207.6900  149.0800 C   0  0  2  0  0  3  0  0  0  0  0  0
  160.6800  202.8450  145.1300 F   0  0  0  0  0  0  0  0  0  0  0  0
  161.0810  206.7550  151.7180 C   0  0  0  0  0  2  0  0  0  0  0  0
  161.0910  201.1740  150.8140 C   0  0  0  0  0  1  0  0  0  0  0  0
  162.7470  207.4810  147.6180 C   0  0  0  0  0  2  0  0  0  0  0  0
  160.8800  207.3260  149.2950 C   0  0  2  0  0  3  0  0  0  0  0  0
  160.6750  204.3350  146.9880 C   0  0  0  0  0  3  0  0  0  0  0  0
  161.0390  203.1090  152.3660 C   0  0  0  0  0  2  0  0  0  0  0  0
  162.2500  206.1840  147.0460 C   0  0  0  0  0  0  0  0  0  0  0  0
  162.7520  205.7790  145.8060 C   0  0  0  0  0  3  0  0  0  0  0  0
  160.4070  207.6710  150.7050 C   0  0  0  0  0  2  0  0  0  0  0  0
  160.7170  205.3660  151.4580 N   0  0  2  0  0  0  0  0  0  0  0  0
  161.3800  204.5880  152.5050 C   0  0  0  0  0  2  0  0  0  0  0  0
  161.2800  209.9620  147.7320 O   0  0  0  0  0  0  0  0  0  0  0  0
  162.0180  210.1730  148.7340 C   0  0  0  0  0  0  0  0  0  0  0  0
  162.5970  209.0800  149.4470 N   0  0  0  0  0  2  0  0  0  0  0  0
  160.9320  213.6000  147.5370 C   0  0  1  0  0  3  0  0  0  0  0  0
  161.0520  212.2950  149.6790 C   0  0  0  0  0  2  0  0  0  0  0  0
  164.1630  211.7310  147.6350 O   0  0  0  0  0  1  0  0  0  0  0  0
  160.1000  213.9720  146.4840 O   0  0  0  0  0  1  0  0  0  0  0  0
  160.1560  212.7260  148.5170 C   0  0  0  0  0  2  0  0  0  0  0  0
  163.0550  212.4180  148.1340 C   0  0  2  0  0  3  0  0  0  0  0  0
  162.3110  211.5750  149.1830 C   0  0  2  0  0  3  0  0  0  0  0  0
  162.1350  212.8370  146.9890 C   0  0  0  0  0  2  0  0  0  0  0  0
  1 14  1  0  0  0  0
  2  5  1  6  0  0  0
  2 13  1  0  0  0  0
  2  3  1  0  0  0  0
  3  7  1  6  0  0  0
  3 19  1  0  0  0  0
  4 11  1  6  0  0  0
  4 15  1  0  0  0  0
  6  1  2  0  0  0  0
  6 17  1  0  0  0  0
  7  4  1  0  0  0  0
  8 13  1  0  0  0  0
  8 23  1  6  0  0  0
  9  1  1  0  0  0  0
 12  8  1  0  0  0  0
 13 18  1  1  0  0  0
 14  5  2  0  0  0  0
 15 20  1  0  0  0  0
 16 12  1  0  0  0  0
 16  5  1  0  0  0  0
 17 16  2  0  0  0  0
 18 10  1  0  0  0  0
 19 10  1  1  0  0  0
 19 20  1  0  0  0  0
 21 22  2  0  0  0  0
 22 23  1  0  0  0  0
 24 27  1  6  0  0  0
 24 28  1  0  0  0  0
 28 25  1  0  0  0  0
 29 26  1  6  0  0  0
 29 30  1  0  0  0  0
 30 22  1  6  0  0  0
 30 25  1  0  0  0  0
 31 24  1  0  0  0  0
 31 29  1  0  0  0  0
M  END
>  <MODEL>
3

>  <REMARK>
 VINA RESULT:      -6.7      3.506      4.951
  Name = 
  2 active torsions:
  status: ('A' for Active; 'I' for Inactive)
    1  A    between atoms: C_5  and  C_30
    2  A    between atoms: C_10  and  N_16
                            x       y       z     vdW  Elec       q    Type
                         _______ _______ _______ _____ _____    ______ ____

>  <TORSDO>
F 2

$$$$
=
 OpenBabel11122413243D

 31 35  0  0  1  0  0  0  0  0999 V2000
  160.5960  209.4090  154.6990 C   0  0  0  0  0  0  0  0  0  0  0  0
  161.9920  209.8290  151.1850 C   0  0  2  0  0  3  0  0  0  0  0  0
  161.4090  208.6750  150.3290 C   0  0  2  0  0  3  0  0  0  0  0  0
  160.8040  206.2440  150.2980 C   0  0  2  0  0  3  0  0  0  0  0  0
  161.1840  210.0800  152.4390 C   0  0  0  0  0  0  0  0  0  0  0  0
  159.6470  210.4310  154.7610 C   0  0  0  0  0  3  0  0  0  0  0  0
  161.3980  207.3700  151.1340 C   0  0  0  0  0  2  0  0  0  0  0  0
  160.7370  211.7340  150.1050 C   0  0  2  0  0  3  0  0  0  0  0  0
  160.7730  208.5830  155.7580 F   0  0  0  0  0  0  0  0  0  0  0  0
  162.1760  209.7020  148.2990 C   0  0  0  0  0  2  0  0  0  0  0  0
  160.8880  204.9430  151.0670 C   0  0  0  0  0  1  0  0  0  0  0  0
  160.0970  212.1520  151.4270 C   0  0  0  0  0  2  0  0  0  0  0  0
  162.1230  211.1200  150.3540 C   0  0  2  0  0  3  0  0  0  0  0  0
  161.3630  209.2370  153.5450 C   0  0  0  0  0  3  0  0  0  0  0  0
  161.5670  206.1140  148.9880 C   0  0  0  0  0  2  0  0  0  0  0  0
  160.2260  211.1170  152.5080 C   0  0  0  0  0  0  0  0  0  0  0  0
  159.4710  211.2870  153.6720 C   0  0  0  0  0  3  0  0  0  0  0  0
  162.8630  210.8350  149.0490 C   0  0  0  0  0  2  0  0  0  0  0  0
  162.2050  208.4810  149.0990 N   0  0  2  0  0  0  0  0  0  0  0  0
  161.5610  207.4590  148.2720 C   0  0  0  0  0  2  0  0  0  0  0  0
  159.9950  211.8070  147.3510 O   0  0  0  0  0  0  0  0  0  0  0  0
  160.4450  212.8690  147.8630 C   0  0  0  0  0  0  0  0  0  0  0  0
  160.8440  212.8970  149.2340 N   0  0  0  0  0  2  0  0  0  0  0  0
  161.6720  213.5750  144.3490 C   0  0  1  0  0  3  0  0  0  0  0  0
  159.6840  214.0840  145.7960 C   0  0  0  0  0  2  0  0  0  0  0  0
  162.8620  214.4140  147.7870 O   0  0  0  0  0  1  0  0  0  0  0  0
  162.1700  212.7160  143.3720 O   0  0  0  0  0  1  0  0  0  0  0  0
  160.2500  213.1610  144.7150 C   0  0  0  0  0  2  0  0  0  0  0  0
  162.0350  214.4530  146.6630 C   0  0  2  0  0  3  0  0  0  0  0  0
  160.5820  214.1160  147.0380 C   0  0  2  0  0  3  0  0  0  0  0  0
  162.5710  213.5190  145.5800 C   0  0  0  0  0  2  0  0  0  0  0  0
  1  6  1  0  0  0  0
  1  9  1  0  0  0  0
  2  5  1  1  0  0  0
  3  7  1  1  0  0  0
  3  2  1  0  0  0  0
  4 11  1  1  0  0  0
  4  7  1  0  0  0  0
  5 16  2  0  0  0  0
  5 14  1  0  0  0  0
  8 23  1  6  0  0  0
  8 13  1  0  0  0  0
  8 12  1  0  0  0  0
 10 18  1  0  0  0  0
 10 19  1  0  0  0  0
 12 16  1  0  0  0  0
 13 18  1  6  0  0  0
 13  2  1  0  0  0  0
 14  1  2  0  0  0  0
 15  4  1  0  0  0  0
 16 17  1  0  0  0  0
 17  6  2  0  0  0  0
 19 20  1  6  0  0  0
 19  3  1  0  0  0  0
 20 15  1  0  0  0  0
 21 22  2  0  0  0  0
 22 23  1  0  0  0  0
 24 27  1  6  0  0  0
 24 28  1  0  0  0  0
 24 31  1  0  0  0  0
 25 30  1  0  0  0  0
 28 25  1  0  0  0  0
 29 30  1  0  0  0  0
 29 26  1  1  0  0  0
 30 22  1  6  0  0  0
 31 29  1  0  0  0  0
M  END
>  <MODEL>
4

>  <REMARK>
 VINA RESULT:      -6.2      5.015      7.995
  Name = 
  2 active torsions:
  status: ('A' for Active; 'I' for Inactive)
    1  A    between atoms: C_5  and  C_30
    2  A    between atoms: C_10  and  N_16
                            x       y       z     vdW  Elec       q    Type
                         _______ _______ _______ _____ _____    ______ ____

>  <TORSDO>
F 2

$$$$
=
 OpenBabel11122413243D

 31 35  0  0  1  0  0  0  0  0999 V2000
  160.9760  204.6260  145.0740 C   0  0  0  0  0  0  0  0  0  0  0  0
  160.5940  205.1520  148.8220 C   0  0  2  0  0  3  0  0  0  0  0  0
  161.2360  203.9230  149.5160 C   0  0  2  0  0  3  0  0  0  0  0  0
  161.5350  201.4370  149.4260 C   0  0  2  0  0  3  0  0  0  0  0  0
  161.0760  205.3240  147.3980 C   0  0  0  0  0  0  0  0  0  0  0  0
  161.9920  205.5270  144.7530 C   0  0  0  0  0  3  0  0  0  0  0  0
  160.8840  202.6390  148.7560 C   0  0  0  0  0  2  0  0  0  0  0  0
  162.3030  206.8760  149.5120 C   0  0  2  0  0  3  0  0  0  0  0  0
  160.4350  203.8430  144.1080 F   0  0  0  0  0  0  0  0  0  0  0  0
  161.1480  205.0010  151.6590 C   0  0  0  0  0  2  0  0  0  0  0  0
  161.1010  200.1680  148.7260 C   0  0  0  0  0  1  0  0  0  0  0  0
  162.6260  207.2360  148.0630 C   0  0  0  0  0  2  0  0  0  0  0  0
  160.8370  206.4360  149.6390 C   0  0  2  0  0  3  0  0  0  0  0  0
  160.5190  204.5270  146.3890 C   0  0  0  0  0  3  0  0  0  0  0  0
  161.1260  201.3780  150.8910 C   0  0  0  0  0  2  0  0  0  0  0  0
  162.1000  206.2420  147.0690 C   0  0  0  0  0  0  0  0  0  0  0  0
  162.5440  206.3390  145.7460 C   0  0  0  0  0  3  0  0  0  0  0  0
  160.4300  206.2200  151.0950 C   0  0  0  0  0  2  0  0  0  0  0  0
  160.7680  203.8050  150.9130 N   0  0  2  0  0  0  0  0  0  0  0  0
  161.4760  202.7010  151.5610 C   0  0  0  0  0  2  0  0  0  0  0  0
  161.4910  209.5530  148.9570 O   0  0  0  0  0  0  0  0  0  0  0  0
  162.1200  209.3450  150.0300 C   0  0  0  0  0  0  0  0  0  0  0  0
  162.5640  208.0300  150.3630 N   0  0  0  0  0  2  0  0  0  0  0  0
  160.1080  211.2080  152.6440 C   0  0  1  0  0  3  0  0  0  0  0  0
  162.3260  210.0500  152.4370 C   0  0  0  0  0  2  0  0  0  0  0  0
  161.6270  212.0890  149.3500 O   0  0  0  0  0  1  0  0  0  0  0  0
  158.7850  211.0530  153.0520 O   0  0  0  0  0  1  0  0  0  0  0  0
  160.8710  209.9090  152.8860 C   0  0  0  0  0  2  0  0  0  0  0  0
  161.5900  211.7410  150.7010 C   0  0  2  0  0  3  0  0  0  0  0  0
  162.4250  210.4780  150.9680 C   0  0  2  0  0  3  0  0  0  0  0  0
  160.1440  211.5730  151.1640 C   0  0  0  0  0  2  0  0  0  0  0  0
  1 14  1  0  0  0  0
  2  5  1  6  0  0  0
  2  3  1  0  0  0  0
  2 13  1  0  0  0  0
  3  7  1  6  0  0  0
  3 19  1  0  0  0  0
  4 11  1  6  0  0  0
  4 15  1  0  0  0  0
  6  1  2  0  0  0  0
  6 17  1  0  0  0  0
  7  4  1  0  0  0  0
  8 13  1  0  0  0  0
  8 23  1  1  0  0  0
  9  1  1  0  0  0  0
 12  8  1  0  0  0  0
 13 18  1  1  0  0  0
 14  5  2  0  0  0  0
 15 20  1  0  0  0  0
 16  5  1  0  0  0  0
 16 12  1  0  0  0  0
 17 16  2  0  0  0  0
 18 10  1  0  0  0  0
 19 20  1  1  0  0  0
 19 10  1  0  0  0  0
 21 22  2  0  0  0  0
 22 23  1  0  0  0  0
 24 28  1  0  0  0  0
 24 27  1  6  0  0  0
 25 28  1  0  0  0  0
 29 26  1  6  0  0  0
 29 30  1  0  0  0  0
 29 31  1  0  0  0  0
 30 22  1  6  0  0  0
 30 25  1  0  0  0  0
 31 24  1  0  0  0  0
M  END
>  <MODEL>
5

>  <REMARK>
 VINA RESULT:      -6.2      2.294      2.838
  Name = 
  2 active torsions:
  status: ('A' for Active; 'I' for Inactive)
    1  A    between atoms: C_5  and  C_30
    2  A    between atoms: C_10  and  N_16
                            x       y       z     vdW  Elec       q    Type
                         _______ _______ _______ _____ _____    ______ ____

>  <TORSDO>
F 2

$$$$
=
 OpenBabel11122413243D

 31 35  0  0  1  0  0  0  0  0999 V2000
  160.8340  201.4440  149.0430 C   0  0  0  0  0  0  0  0  0  0  0  0
  162.1660  204.8980  149.9210 C   0  0  2  0  0  3  0  0  0  0  0  0
  161.4020  205.9130  149.0330 C   0  0  2  0  0  3  0  0  0  0  0  0
  160.4610  206.3460  146.7510 C   0  0  2  0  0  3  0  0  0  0  0  0
  161.4390  203.5760  150.0380 C   0  0  0  0  0  0  0  0  0  0  0  0
  160.0390  201.1460  150.1510 C   0  0  0  0  0  3  0  0  0  0  0  0
  161.2330  205.3570  147.6140 C   0  0  0  0  0  2  0  0  0  0  0  0
  161.1570  205.5460  152.1410 C   0  0  2  0  0  3  0  0  0  0  0  0
  160.9250  200.5620  148.0190 F   0  0  0  0  0  0  0  0  0  0  0  0
  162.2410  207.7650  150.3080 C   0  0  0  0  0  2  0  0  0  0  0  0
  160.3870  205.8300  145.3300 C   0  0  0  0  0  1  0  0  0  0  0  0
  160.6230  204.1360  152.3870 C   0  0  0  0  0  2  0  0  0  0  0  0
  162.4510  205.4890  151.3150 C   0  0  2  0  0  3  0  0  0  0  0  0
  161.5330  202.6510  148.9890 C   0  0  0  0  0  3  0  0  0  0  0  0
  161.1590  207.6990  146.7670 C   0  0  0  0  0  2  0  0  0  0  0  0
  160.6390  203.2680  151.1620 C   0  0  0  0  0  0  0  0  0  0  0  0
  159.9510  202.0520  151.2110 C   0  0  0  0  0  3  0  0  0  0  0  0
  163.1030  206.8630  151.1820 C   0  0  0  0  0  2  0  0  0  0  0  0
  162.1240  207.2010  148.9670 N   0  0  2  0  0  0  0  0  0  0  0  0
  161.3190  208.1610  148.2110 C   0  0  0  0  0  2  0  0  0  0  0  0
  160.3770  208.2070  152.8110 O   0  0  0  0  0  0  0  0  0  0  0  0
  160.9730  207.5330  153.6960 C   0  0  0  0  0  0  0  0  0  0  0  0
  161.3990  206.1980  153.4220 N   0  0  0  0  0  2  0  0  0  0  0  0
  159.1610  210.0200  155.9060 C   0  0  1  0  0  3  0  0  0  0  0  0
  160.1930  207.7370  156.0790 C   0  0  0  0  0  2  0  0  0  0  0  0
  162.3880  210.0070  154.0290 O   0  0  0  0  0  1  0  0  0  0  0  0
  157.9670  210.7100  155.7080 O   0  0  0  0  0  1  0  0  0  0  0  0
  158.8940  208.5180  155.8730 C   0  0  0  0  0  2  0  0  0  0  0  0
  161.4700  209.6490  155.0180 C   0  0  2  0  0  3  0  0  0  0  0  0
  161.2550  208.1270  155.0460 C   0  0  2  0  0  3  0  0  0  0  0  0
  160.1570  210.4020  154.8160 C   0  0  0  0  0  2  0  0  0  0  0  0
  1  6  1  0  0  0  0
  2  5  1  1  0  0  0
  2 13  1  0  0  0  0
  3  7  1  6  0  0  0
  3  2  1  0  0  0  0
  4 11  1  6  0  0  0
  4 15  1  0  0  0  0
  4  7  1  0  0  0  0
  5 16  2  0  0  0  0
  6 17  2  0  0  0  0
  8 12  1  0  0  0  0
  8 23  1  1  0  0  0
  9  1  1  0  0  0  0
 10 18  1  0  0  0  0
 13 18  1  6  0  0  0
 13  8  1  0  0  0  0
 14  1  2  0  0  0  0
 14  5  1  0  0  0  0
 15 20  1  0  0  0  0
 16 17  1  0  0  0  0
 16 12  1  0  0  0  0
 19 20  1  6  0  0  0
 19  3  1  0  0  0  0
 19 10  1  0  0  0  0
 21 22  2  0  0  0  0
 23 22  1  0  0  0  0
 24 27  1  6  0  0  0
 28 24  1  0  0  0  0
 28 25  1  0  0  0  0
 29 26  1  6  0  0  0
 29 30  1  0  0  0  0
 30 22  1  6  0  0  0
 30 25  1  0  0  0  0
 31 29  1  0  0  0  0
 31 24  1  0  0  0  0
M  END
>  <MODEL>
6

>  <REMARK>
 VINA RESULT:      -5.8      1.604      3.971
  Name = 
  2 active torsions:
  status: ('A' for Active; 'I' for Inactive)
    1  A    between atoms: C_5  and  C_30
    2  A    between atoms: C_10  and  N_16
                            x       y       z     vdW  Elec       q    Type
                         _______ _______ _______ _____ _____    ______ ____

>  <TORSDO>
F 2

$$$$
=
 OpenBabel11122413243D

 31 35  0  0  1  0  0  0  0  0999 V2000
  161.6420  202.7280  151.7560 C   0  0  0  0  0  0  0  0  0  0  0  0
  162.2860  206.1550  150.2320 C   0  0  2  0  0  3  0  0  0  0  0  0
  161.5360  206.1900  148.8760 C   0  0  2  0  0  3  0  0  0  0  0  0
  160.9310  204.8790  146.8270 C   0  0  2  0  0  3  0  0  0  0  0  0
  161.7530  205.0790  151.1540 C   0  0  0  0  0  0  0  0  0  0  0  0
  160.7280  203.0250  152.7690 C   0  0  0  0  0  3  0  0  0  0  0  0
  161.6880  204.8480  148.1480 C   0  0  0  0  0  2  0  0  0  0  0  0
  160.8400  207.8080  151.4740 C   0  0  2  0  0  3  0  0  0  0  0  0
  162.0310  201.4470  151.5490 F   0  0  0  0  0  0  0  0  0  0  0  0
  161.8710  208.5590  148.6750 C   0  0  0  0  0  2  0  0  0  0  0  0
  161.1690  203.5870  146.0760 C   0  0  0  0  0  1  0  0  0  0  0  0
  160.4870  206.7900  152.5570 C   0  0  0  0  0  2  0  0  0  0  0  0
  162.2460  207.5320  150.9210 C   0  0  2  0  0  3  0  0  0  0  0  0
  162.1540  203.7510  150.9550 C   0  0  0  0  0  3  0  0  0  0  0  0
  161.4080  206.0540  145.9860 C   0  0  0  0  0  2  0  0  0  0  0  0
  160.8330  205.3770  152.1850 C   0  0  0  0  0  0  0  0  0  0  0  0
  160.3340  204.3470  152.9880 C   0  0  0  0  0  3  0  0  0  0  0  0
  162.7010  208.6200  149.9510 C   0  0  0  0  0  2  0  0  0  0  0  0
  162.0610  207.2710  148.0150 N   0  0  2  0  0  0  0  0  0  0  0  0
  161.2580  207.3390  146.7930 C   0  0  0  0  0  2  0  0  0  0  0  0
  161.4060  208.4950  154.1840 O   0  0  0  0  0  0  0  0  0  0  0  0
  161.0750  209.4290  153.4030 C   0  0  0  0  0  0  0  0  0  0  0  0
  160.7680  209.1510  152.0360 N   0  0  0  0  0  2  0  0  0  0  0  0
  158.2300  211.6010  154.6450 C   0  0  1  0  0  3  0  0  0  0  0  0
  160.5350  210.9110  155.3630 C   0  0  0  0  0  2  0  0  0  0  0  0
  160.4840  211.6380  151.6690 O   0  0  0  0  0  1  0  0  0  0  0  0
  156.8720  211.3260  154.7850 O   0  0  0  0  0  1  0  0  0  0  0  0
  159.0380  210.6350  155.5070 C   0  0  0  0  0  2  0  0  0  0  0  0
  160.1180  211.7530  153.0110 C   0  0  2  0  0  3  0  0  0  0  0  0
  160.9830  210.8430  153.8980 C   0  0  2  0  0  3  0  0  0  0  0  0
  158.6290  211.4590  153.1790 C   0  0  0  0  0  2  0  0  0  0  0  0
  1  6  1  0  0  0  0
  2 13  1  0  0  0  0
  2  5  1  1  0  0  0
  3  7  1  6  0  0  0
  3  2  1  0  0  0  0
  4 11  1  6  0  0  0
  4  7  1  0  0  0  0
  5 16  2  0  0  0  0
  6 17  2  0  0  0  0
  8 23  1  1  0  0  0
  8 12  1  0  0  0  0
  9  1  1  0  0  0  0
 10 18  1  0  0  0  0
 13 18  1  6  0  0  0
 13  8  1  0  0  0  0
 14  5  1  0  0  0  0
 14  1  2  0  0  0  0
 15 20  1  0  0  0  0
 15  4  1  0  0  0  0
 16 12  1  0  0  0  0
 16 17  1  0  0  0  0
 19 20  1  6  0  0  0
 19 10  1  0  0  0  0
 19  3  1  0  0  0  0
 22 21  2  0  0  0  0
 23 22  1  0  0  0  0
 24 27  1  6  0  0  0
 24 28  1  0  0  0  0
 25 28  1  0  0  0  0
 29 26  1  6  0  0  0
 29 31  1  0  0  0  0
 29 30  1  0  0  0  0
 30 22  1  6  0  0  0
 30 25  1  0  0  0  0
 31 24  1  0  0  0  0
M  END
>  <MODEL>
7

>  <REMARK>
 VINA RESULT:      -5.1      2.458      4.279
  Name = 
  2 active torsions:
  status: ('A' for Active; 'I' for Inactive)
    1  A    between atoms: C_5  and  C_30
    2  A    between atoms: C_10  and  N_16
                            x       y       z     vdW  Elec       q    Type
                         _______ _______ _______ _____ _____    ______ ____

>  <TORSDO>
F 2

$$$$
=
 OpenBabel11122413243D

 31 35  0  0  1  0  0  0  0  0999 V2000
  161.4590  202.4570  151.3640 C   0  0  0  0  0  0  0  0  0  0  0  0
  162.2380  206.1460  150.8530 C   0  0  2  0  0  3  0  0  0  0  0  0
  161.5060  206.5840  149.5580 C   0  0  2  0  0  3  0  0  0  0  0  0
  160.8820  205.9160  147.2250 C   0  0  2  0  0  3  0  0  0  0  0  0
  161.6580  204.8770  151.4390 C   0  0  0  0  0  0  0  0  0  0  0  0
  160.5440  202.4940  152.4170 C   0  0  0  0  0  3  0  0  0  0  0  0
  161.6210  205.4920  148.4870 C   0  0  0  0  0  2  0  0  0  0  0  0
  160.8340  207.4410  152.5020 C   0  0  2  0  0  3  0  0  0  0  0  0
  161.8070  201.2700  150.8090 F   0  0  0  0  0  0  0  0  0  0  0  0
  161.9240  208.9010  150.0240 C   0  0  0  0  0  2  0  0  0  0  0  0
  161.0850  204.8750  146.1450 C   0  0  0  0  0  1  0  0  0  0  0  0
  160.4330  206.1760  153.2590 C   0  0  0  0  0  2  0  0  0  0  0  0
  162.2360  207.2780  151.8970 C   0  0  2  0  0  3  0  0  0  0  0  0
  162.0160  203.6420  150.8800 C   0  0  0  0  0  3  0  0  0  0  0  0
  161.4090  207.2600  146.7440 C   0  0  0  0  0  2  0  0  0  0  0  0
  160.7360  204.9100  152.5100 C   0  0  0  0  0  0  0  0  0  0  0  0
  160.1920  203.7160  152.9930 C   0  0  0  0  0  3  0  0  0  0  0  0
  162.7400  208.5760  151.2680 C   0  0  0  0  0  2  0  0  0  0  0  0
  162.0780  207.8420  149.0320 N   0  0  2  0  0  0  0  0  0  0  0  0
  161.2930  208.2750  147.8760 C   0  0  0  0  0  2  0  0  0  0  0  0
  161.4020  207.3300  155.2960 O   0  0  0  0  0  0  0  0  0  0  0  0
  161.1060  208.4540  154.8040 C   0  0  0  0  0  0  0  0  0  0  0  0
  160.8010  208.5770  153.4150 N   0  0  0  0  0  2  0  0  0  0  0  0
  159.2490  211.7500  154.6010 C   0  0  1  0  0  3  0  0  0  0  0  0
  159.6590  209.9100  156.2600 C   0  0  0  0  0  2  0  0  0  0  0  0
  162.8290  210.7110  154.3930 O   0  0  0  0  0  1  0  0  0  0  0  0
  158.3590  212.2330  153.6450 O   0  0  0  0  0  1  0  0  0  0  0  0
  158.6940  210.4660  155.2120 C   0  0  0  0  0  2  0  0  0  0  0  0
  161.5860  210.9460  154.9840 C   0  0  2  0  0  3  0  0  0  0  0  0
  161.0560  209.6780  155.6730 C   0  0  2  0  0  3  0  0  0  0  0  0
  160.6010  211.4820  153.9480 C   0  0  0  0  0  2  0  0  0  0  0  0
  1  6  1  0  0  0  0
  2  5  1  1  0  0  0
  2 13  1  0  0  0  0
  3  7  1  6  0  0  0
  3  2  1  0  0  0  0
  4 11  1  6  0  0  0
  4  7  1  0  0  0  0
  5 16  2  0  0  0  0
  6 17  2  0  0  0  0
  8 12  1  0  0  0  0
  8 23  1  1  0  0  0
  9  1  1  0  0  0  0
 10 18  1  0  0  0  0
 13 18  1  6  0  0  0
 13  8  1  0  0  0  0
 14  1  2  0  0  0  0
 14  5  1  0  0  0  0
 15  4  1  0  0  0  0
 15 20  1  0  0  0  0
 16 17  1  0  0  0  0
 16 12  1  0  0  0  0
 19 20  1  6  0  0  0
 19  3  1  0  0  0  0
 19 10  1  0  0  0  0
 22 21  2  0  0  0  0
 23 22  1  0  0  0  0
 24 27  1  6  0  0  0
 24 28  1  0  0  0  0
 28 25  1  0  0  0  0
 29 26  1  6  0  0  0
 29 30  1  0  0  0  0
 30 22  1  6  0  0  0
 30 25  1  0  0  0  0
 31 24  1  0  0  0  0
 31 29  1  0  0  0  0
M  END
>  <MODEL>
8

>  <REMARK>
 VINA RESULT:      -4.8      2.358      4.273
  Name = 
  2 active torsions:
  status: ('A' for Active; 'I' for Inactive)
    1  A    between atoms: C_5  and  C_30
    2  A    between atoms: C_10  and  N_16
                            x       y       z     vdW  Elec       q    Type
                         _______ _______ _______ _____ _____    ______ ____

>  <TORSDO>
F 2

$$$$
=
 OpenBabel11122413243D

 31 35  0  0  1  0  0  0  0  0999 V2000
  162.1980  206.5570  147.5130 C   0  0  0  0  0  0  0  0  0  0  0  0
  162.3300  209.1980  150.2490 C   0  0  2  0  0  3  0  0  0  0  0  0
  161.4690  210.3920  149.7620 C   0  0  2  0  0  3  0  0  0  0  0  0
  160.8420  211.8030  147.7880 C   0  0  2  0  0  3  0  0  0  0  0  0
  161.9980  207.9150  149.5170 C   0  0  0  0  0  0  0  0  0  0  0  0
  161.3460  205.6020  148.0690 C   0  0  0  0  0  3  0  0  0  0  0  0
  161.7060  210.6440  148.2680 C   0  0  0  0  0  2  0  0  0  0  0  0
  160.8200  208.4170  152.1140 C   0  0  2  0  0  3  0  0  0  0  0  0
  162.7070  206.3710  146.2710 F   0  0  0  0  0  0  0  0  0  0  0  0
  161.5230  211.4060  151.9370 C   0  0  0  0  0  2  0  0  0  0  0  0
  161.1570  212.1030  146.3380 C   0  0  0  0  0  1  0  0  0  0  0  0
  160.6740  207.0240  151.5050 C   0  0  0  0  0  2  0  0  0  0  0  0
  162.1970  209.0060  151.7720 C   0  0  2  0  0  3  0  0  0  0  0  0
  162.5250  207.7060  148.2350 C   0  0  0  0  0  3  0  0  0  0  0  0
  161.1140  213.0360  148.6360 C   0  0  0  0  0  2  0  0  0  0  0  0
  161.1410  206.9420  150.0800 C   0  0  0  0  0  0  0  0  0  0  0  0
  160.8280  205.7900  149.3520 C   0  0  0  0  0  3  0  0  0  0  0  0
  162.4450  210.3290  152.4930 C   0  0  0  0  0  2  0  0  0  0  0  0
  161.7970  211.6180  150.5190 N   0  0  2  0  0  0  0  0  0  0  0  0
  160.8920  212.6910  150.1040 C   0  0  0  0  0  2  0  0  0  0  0  0
  159.2390  210.1860  153.6980 O   0  0  0  0  0  0  0  0  0  0  0  0
  159.8330  209.2440  154.2910 C   0  0  0  0  0  0  0  0  0  0  0  0
  160.6480  208.3290  153.5590 N   0  0  0  0  0  2  0  0  0  0  0  0
  162.1500  209.8810  157.2200 C   0  0  1  0  0  3  0  0  0  0  0  0
  159.8010  210.4170  156.5170 C   0  0  0  0  0  2  0  0  0  0  0  0
  160.6370  206.8500  155.6530 O   0  0  0  0  0  1  0  0  0  0  0  0
  163.4580  210.3610  157.2560 O   0  0  0  0  0  1  0  0  0  0  0  0
  161.2420  210.9250  156.5770 C   0  0  0  0  0  2  0  0  0  0  0  0
  160.6780  208.0460  156.3710 C   0  0  2  0  0  3  0  0  0  0  0  0
  159.7040  209.0780  155.7780 C   0  0  2  0  0  3  0  0  0  0  0  0
  162.1070  208.5810  156.4230 C   0  0  0  0  0  2  0  0  0  0  0  0
  1  6  2  0  0  0  0
  1 14  1  0  0  0  0
  2  5  1  6  0  0  0
  2 13  1  0  0  0  0
  3  7  1  6  0  0  0
  3  2  1  0  0  0  0
  3 19  1  0  0  0  0
  4 11  1  6  0  0  0
  4  7  1  0  0  0  0
  4 15  1  0  0  0  0
  5 16  1  0  0  0  0
  6 17  1  0  0  0  0
  8 23  1  1  0  0  0
  9  1  1  0  0  0  0
 10 18  1  0  0  0  0
 12  8  1  0  0  0  0
 13  8  1  0  0  0  0
 13 18  1  1  0  0  0
 14  5  2  0  0  0  0
 15 20  1  0  0  0  0
 16 12  1  0  0  0  0
 17 16  2  0  0  0  0
 19 20  1  6  0  0  0
 19 10  1  0  0  0  0
 21 22  2  0  0  0  0
 23 22  1  0  0  0  0
 24 27  1  6  0  0  0
 25 28  1  0  0  0  0
 28 24  1  0  0  0  0
 29 26  1  6  0  0  0
 29 31  1  0  0  0  0
 30 22  1  6  0  0  0
 30 29  1  0  0  0  0
 30 25  1  0  0  0  0
 31 24  1  0  0  0  0
M  END
>  <MODEL>
9

>  <REMARK>
 VINA RESULT:      -4.8      2.767      5.649
  Name = 
  2 active torsions:
  status: ('A' for Active; 'I' for Inactive)
    1  A    between atoms: C_5  and  C_30
    2  A    between atoms: C_10  and  N_16
                            x       y       z     vdW  Elec       q    Type
                         _______ _______ _______ _____ _____    ______ ____

>  <TORSDO>
F 2

$$$$
