=
 OpenBabel11122413043D

 32 36  0  0  1  0  0  0  0  0999 V2000
  160.8470  209.7610  152.4620 C   0  0  1  0  0  3  0  0  0  0  0  0
  160.4480  208.7610  157.2610 C   0  0  0  0  0  3  0  0  0  0  0  0
  160.4500  207.3960  156.9680 C   0  0  0  0  0  3  0  0  0  0  0  0
  161.5280  207.9230  150.8060 C   0  0  0  0  0  0  0  0  0  0  0  0
  162.1580  206.5780  150.5260 C   0  0  2  0  0  3  0  0  0  0  0  0
  160.2090  211.8040  151.7240 C   0  0  2  0  0  3  0  0  0  0  0  0
  160.7410  211.5910  154.1370 O   0  0  0  0  0  0  0  0  0  0  0  0
  161.1810  204.6230  151.2270 C   0  0  2  0  0  3  0  0  0  0  0  0
  160.6730  209.6940  156.2470 C   0  0  0  0  0  3  0  0  0  0  0  0
  161.2090  210.2750  153.8560 C   0  0  1  0  0  3  0  0  0  0  0  0
  160.8910  209.2690  154.9290 C   0  0  0  0  0  0  0  0  0  0  0  0
  161.0980  207.3920  153.2090 C   0  0  2  0  0  3  0  0  0  0  0  0
  160.9790  204.7930  149.8000 C   0  0  0  0  0  3  0  0  0  0  0  0
  159.7600  212.0330  153.2050 C   0  0  2  0  0  3  0  0  0  0  0  0
  161.5160  205.9000  149.4010 N   0  0  0  0  0  0  0  0  0  0  0  0
  160.6880  206.9610  155.6620 C   0  0  0  0  0  3  0  0  0  0  0  0
  160.9430  207.8850  154.6370 C   0  0  0  0  0  0  0  0  0  0  0  0
  161.9350  206.1130  153.0950 C   0  0  0  0  0  2  0  0  0  0  0  0
  161.1710  210.7760  151.5570 O   0  0  0  0  0  0  0  0  0  0  0  0
  161.0410  208.5790  149.8980 O   0  0  0  0  0  0  0  0  0  0  0  0
  160.5220  203.5850  152.0680 C   0  0  0  0  0  1  0  0  0  0  0  0
  161.6140  208.4650  152.2210 C   0  0  2  0  0  3  0  0  0  0  0  0
  161.8670  205.6600  151.6700 C   0  0  2  0  0  3  0  0  0  0  0  0
  158.1320  211.6490  154.8790 C   0  0  0  0  0  1  0  0  0  0  0  0
  158.4610  211.4030  153.4820 N   0  0  0  0  0  0  0  0  0  0  0  0
  157.4280  212.0800  152.7050 C   0  0  0  0  0  2  0  0  0  0  0  0
  157.2650  213.5150  153.1850 C   0  0  0  0  0  2  0  0  0  0  0  0
  155.8270  213.9110  153.1950 C   0  0  0  0  0  0  0  0  0  0  0  0
  155.1730  213.8870  154.2700 O   0  0  0  0  0  1  0  0  0  0  0  0
  155.2180  214.3390  152.0230 O   0  0  0  0  0  0  0  0  0  0  0  0
  159.7680  213.6790  150.1490 C   0  0  0  0  0  1  0  0  0  0  0  0
  160.7470  213.1050  151.1550 C   0  0  0  0  0  2  0  0  0  0  0  0
  1 19  1  6  0  0  0
  1 10  1  0  0  0  0
  3  2  1  0  0  0  0
  5 15  1  6  0  0  0
  5  4  1  0  0  0  0
  5 23  1  0  0  0  0
  6 32  1  1  0  0  0
  6 14  1  0  0  0  0
  8 23  1  0  0  0  0
  8 21  1  1  0  0  0
  9  2  2  0  0  0  0
 10  7  1  1  0  0  0
 10 11  1  0  0  0  0
 11  9  1  0  0  0  0
 12 18  1  1  0  0  0
 12 17  1  0  0  0  0
 13  8  1  0  0  0  0
 14 25  1  1  0  0  0
 14  7  1  0  0  0  0
 15 13  2  0  0  0  0
 16  3  2  0  0  0  0
 17 11  2  0  0  0  0
 17 16  1  0  0  0  0
 19  6  1  0  0  0  0
 20  4  2  0  0  0  0
 22  4  1  6  0  0  0
 22  1  1  0  0  0  0
 22 12  1  0  0  0  0
 23 18  1  1  0  0  0
 25 24  1  0  0  0  0
 26 27  1  0  0  0  0
 26 25  1  0  0  0  0
 27 28  1  0  0  0  0
 28 29  1  0  0  0  0
 30 28  2  0  0  0  0
 31 32  1  0  0  0  0
M  END
>  <MODEL>
1

>  <REMARK>
 VINA RESULT:      -6.6      0.000      0.000
  Name = 
  5 active torsions:
  status: ('A' for Active; 'I' for Inactive)
    1  A    between atoms: C_7  and  C_19
    2  A    between atoms: N_10  and  C_17
    3  A    between atoms: N_10  and  C_20
    4  A    between atoms: C_20  and  C_29
    5  A    between atoms: C_29  and  C_30
                            x       y       z     vdW  Elec       q    Type
                         _______ _______ _______ _____ _____    ______ ____

>  <TORSDO>
F 5

$$$$
=
 OpenBabel11122413043D

 32 36  0  0  1  0  0  0  0  0999 V2000
  160.8640  209.7700  152.0330 C   0  0  1  0  0  3  0  0  0  0  0  0
  162.4530  212.0660  147.9840 C   0  0  0  0  0  3  0  0  0  0  0  0
  161.4980  213.0640  148.1860 C   0  0  0  0  0  3  0  0  0  0  0  0
  159.3640  210.9960  153.7160 C   0  0  0  0  0  0  0  0  0  0  0  0
  158.8220  212.2820  154.2950 C   0  0  2  0  0  3  0  0  0  0  0  0
  161.2990  207.5600  152.2670 C   0  0  2  0  0  3  0  0  0  0  0  0
  162.7290  208.8310  150.6880 O   0  0  0  0  0  0  0  0  0  0  0  0
  157.4070  213.6370  153.0970 C   0  0  2  0  0  3  0  0  0  0  0  0
  162.6330  211.0670  148.9420 C   0  0  0  0  0  3  0  0  0  0  0  0
  162.1010  210.0170  151.1690 C   0  0  1  0  0  3  0  0  0  0  0  0
  161.8510  211.0510  150.1060 C   0  0  0  0  0  0  0  0  0  0  0  0
  159.9980  212.0610  151.5460 C   0  0  2  0  0  3  0  0  0  0  0  0
  156.6590  212.9040  154.1010 C   0  0  0  0  0  3  0  0  0  0  0  0
  161.9030  207.6800  150.8290 C   0  0  2  0  0  3  0  0  0  0  0  0
  157.4480  212.1280  154.7710 N   0  0  0  0  0  0  0  0  0  0  0  0
  160.7290  213.0710  149.3520 C   0  0  0  0  0  3  0  0  0  0  0  0
  160.9160  212.0900  150.3370 C   0  0  0  0  0  0  0  0  0  0  0  0
  159.7080  213.4500  152.1230 C   0  0  0  0  0  2  0  0  0  0  0  0
  161.2090  208.7890  152.9680 O   0  0  0  0  0  0  0  0  0  0  0  0
  158.9870  209.9160  154.1460 O   0  0  0  0  0  0  0  0  0  0  0  0
  156.8060  214.4530  152.0050 C   0  0  0  0  0  1  0  0  0  0  0  0
  160.4550  211.0960  152.6660 C   0  0  2  0  0  3  0  0  0  0  0  0
  158.6750  213.2840  153.1940 C   0  0  2  0  0  3  0  0  0  0  0  0
  161.4970  207.8640  148.5050 C   0  0  0  0  0  1  0  0  0  0  0  0
  160.8560  207.6650  149.7970 N   0  0  0  0  0  0  0  0  0  0  0  0
  160.2600  206.3340  149.7440 C   0  0  0  0  0  2  0  0  0  0  0  0
  160.8000  205.5630  148.5480 C   0  0  0  0  0  2  0  0  0  0  0  0
  161.1420  204.1620  148.9300 C   0  0  0  0  0  0  0  0  0  0  0  0
  161.0950  203.8060  150.1360 O   0  0  0  0  0  1  0  0  0  0  0  0
  161.4810  203.2400  147.9480 O   0  0  0  0  0  0  0  0  0  0  0  0
  161.3530  205.2700  153.2390 C   0  0  0  0  0  1  0  0  0  0  0  0
  162.1180  206.5700  153.0750 C   0  0  0  0  0  2  0  0  0  0  0  0
  1 22  1  0  0  0  0
  1 19  1  1  0  0  0
  2  3  2  0  0  0  0
  2  9  1  0  0  0  0
  3 16  1  0  0  0  0
  4 20  2  0  0  0  0
  5  4  1  6  0  0  0
  5 15  1  0  0  0  0
  6 19  1  0  0  0  0
  6 32  1  1  0  0  0
  7 14  1  0  0  0  0
  7 10  1  0  0  0  0
  8 21  1  6  0  0  0
  8 23  1  0  0  0  0
  8 13  1  0  0  0  0
  9 11  2  0  0  0  0
 10 11  1  6  0  0  0
 10  1  1  0  0  0  0
 11 17  1  0  0  0  0
 12 18  1  1  0  0  0
 12 22  1  0  0  0  0
 13 15  2  0  0  0  0
 14 25  1  6  0  0  0
 14  6  1  0  0  0  0
 16 17  2  0  0  0  0
 17 12  1  0  0  0  0
 22  4  1  1  0  0  0
 23 18  1  6  0  0  0
 23  5  1  0  0  0  0
 24 25  1  0  0  0  0
 26 25  1  0  0  0  0
 27 28  1  0  0  0  0
 27 26  1  0  0  0  0
 28 29  1  0  0  0  0
 30 28  2  0  0  0  0
 32 31  1  0  0  0  0
M  END
>  <MODEL>
2

>  <REMARK>
 VINA RESULT:      -6.2      2.443      7.978
  Name = 
  5 active torsions:
  status: ('A' for Active; 'I' for Inactive)
    1  A    between atoms: C_7  and  C_19
    2  A    between atoms: N_10  and  C_17
    3  A    between atoms: N_10  and  C_20
    4  A    between atoms: C_20  and  C_29
    5  A    between atoms: C_29  and  C_30
                            x       y       z     vdW  Elec       q    Type
                         _______ _______ _______ _____ _____    ______ ____

>  <TORSDO>
F 5

$$$$
=
 OpenBabel11122413043D

 32 36  0  0  1  0  0  0  0  0999 V2000
  161.1820  209.0560  152.0780 C   0  0  1  0  0  3  0  0  0  0  0  0
  161.9860  212.1630  148.3510 C   0  0  0  0  0  3  0  0  0  0  0  0
  161.0410  213.0380  148.8890 C   0  0  0  0  0  3  0  0  0  0  0  0
  159.9390  209.8450  154.1800 C   0  0  0  0  0  0  0  0  0  0  0  0
  159.4520  210.9610  155.0740 C   0  0  2  0  0  3  0  0  0  0  0  0
  161.7330  206.8760  151.8100 C   0  0  2  0  0  3  0  0  0  0  0  0
  162.8310  208.5110  150.3030 O   0  0  0  0  0  0  0  0  0  0  0  0
  157.8080  212.4130  154.3970 C   0  0  2  0  0  3  0  0  0  0  0  0
  162.3610  211.0190  149.0580 C   0  0  0  0  0  3  0  0  0  0  0  0
  162.2470  209.5420  151.0950 C   0  0  1  0  0  3  0  0  0  0  0  0
  161.7840  210.7350  150.3040 C   0  0  0  0  0  0  0  0  0  0  0  0
  160.1610  211.3320  152.1850 C   0  0  2  0  0  3  0  0  0  0  0  0
  157.2650  211.4580  155.3450 C   0  0  0  0  0  3  0  0  0  0  0  0
  162.0850  207.3000  150.3460 C   0  0  2  0  0  3  0  0  0  0  0  0
  158.1840  210.6280  155.7200 N   0  0  0  0  0  0  0  0  0  0  0  0
  160.4770  212.7770  150.1400 C   0  0  0  0  0  3  0  0  0  0  0  0
  160.8630  211.6460  150.8750 C   0  0  0  0  0  0  0  0  0  0  0  0
  159.9190  212.5680  153.0570 C   0  0  0  0  0  2  0  0  0  0  0  0
  161.7150  207.9460  152.7400 O   0  0  0  0  0  0  0  0  0  0  0  0
  159.6800  208.6810  154.4470 O   0  0  0  0  0  0  0  0  0  0  0  0
  157.0020  213.3730  153.5910 C   0  0  0  0  0  1  0  0  0  0  0  0
  160.8350  210.2110  153.0110 C   0  0  2  0  0  3  0  0  0  0  0  0
  159.0870  212.1370  154.2240 C   0  0  2  0  0  3  0  0  0  0  0  0
  161.2890  207.8880  148.1960 C   0  0  0  0  0  1  0  0  0  0  0  0
  160.8820  207.4040  149.5080 N   0  0  0  0  0  0  0  0  0  0  0  0
  160.3390  206.0670  149.2860 C   0  0  0  0  0  2  0  0  0  0  0  0
  161.2740  205.2610  148.3960 C   0  0  0  0  0  2  0  0  0  0  0  0
  161.0130  203.7990  148.5370 C   0  0  0  0  0  0  0  0  0  0  0  0
  160.4840  203.3500  149.5860 O   0  0  0  0  0  1  0  0  0  0  0  0
  161.3260  202.9360  147.4950 O   0  0  0  0  0  0  0  0  0  0  0  0
  162.1030  204.4330  152.1060 C   0  0  0  0  0  1  0  0  0  0  0  0
  162.7120  205.8120  152.2730 C   0  0  0  0  0  2  0  0  0  0  0  0
  1 19  1  1  0  0  0
  1 22  1  0  0  0  0
  2  3  2  0  0  0  0
  2  9  1  0  0  0  0
  3 16  1  0  0  0  0
  4 20  2  0  0  0  0
  5  4  1  6  0  0  0
  5 15  1  0  0  0  0
  6 32  1  1  0  0  0
  6 19  1  0  0  0  0
  7 14  1  0  0  0  0
  8 21  1  6  0  0  0
  8 13  1  0  0  0  0
  9 11  2  0  0  0  0
 10  7  1  6  0  0  0
 10  1  1  0  0  0  0
 11 17  1  0  0  0  0
 11 10  1  0  0  0  0
 12 22  1  0  0  0  0
 12 18  1  1  0  0  0
 13 15  2  0  0  0  0
 14 25  1  6  0  0  0
 14  6  1  0  0  0  0
 16 17  2  0  0  0  0
 17 12  1  0  0  0  0
 22  4  1  1  0  0  0
 23 18  1  6  0  0  0
 23  8  1  0  0  0  0
 23  5  1  0  0  0  0
 24 25  1  0  0  0  0
 26 25  1  0  0  0  0
 27 28  1  0  0  0  0
 27 26  1  0  0  0  0
 28 29  1  0  0  0  0
 30 28  2  0  0  0  0
 31 32  1  0  0  0  0
M  END
>  <MODEL>
3

>  <REMARK>
 VINA RESULT:      -6.0      2.548      7.834
  Name = 
  5 active torsions:
  status: ('A' for Active; 'I' for Inactive)
    1  A    between atoms: C_7  and  C_19
    2  A    between atoms: N_10  and  C_17
    3  A    between atoms: N_10  and  C_20
    4  A    between atoms: C_20  and  C_29
    5  A    between atoms: C_29  and  C_30
                            x       y       z     vdW  Elec       q    Type
                         _______ _______ _______ _____ _____    ______ ____

>  <TORSDO>
F 5

$$$$
=
 OpenBabel11122413043D

 32 36  0  0  1  0  0  0  0  0999 V2000
  161.0000  209.8730  151.7130 C   0  0  1  0  0  3  0  0  0  0  0  0
  160.2570  208.8160  156.4580 C   0  0  0  0  0  3  0  0  0  0  0  0
  160.1960  207.4590  156.1380 C   0  0  0  0  0  3  0  0  0  0  0  0
  161.6680  208.0260  150.0620 C   0  0  0  0  0  0  0  0  0  0  0  0
  162.2330  206.6510  149.7910 C   0  0  2  0  0  3  0  0  0  0  0  0
  160.5290  211.9630  150.9810 C   0  0  2  0  0  3  0  0  0  0  0  0
  160.9030  211.6770  153.4170 O   0  0  0  0  0  0  0  0  0  0  0  0
  161.1020  204.7460  150.3930 C   0  0  2  0  0  3  0  0  0  0  0  0
  160.5980  209.7510  155.4790 C   0  0  0  0  0  3  0  0  0  0  0  0
  161.3080  210.3400  153.1360 C   0  0  1  0  0  3  0  0  0  0  0  0
  160.8680  209.3370  154.1670 C   0  0  0  0  0  0  0  0  0  0  0  0
  161.0660  207.4800  152.4240 C   0  0  2  0  0  3  0  0  0  0  0  0
  160.9960  204.9530  148.9600 C   0  0  0  0  0  3  0  0  0  0  0  0
  160.0070  212.1940  152.4380 C   0  0  2  0  0  3  0  0  0  0  0  0
  161.6200  206.0320  148.6160 N   0  0  0  0  0  0  0  0  0  0  0  0
  160.4850  207.0330  154.8390 C   0  0  0  0  0  3  0  0  0  0  0  0
  160.8550  207.9570  153.8500 C   0  0  0  0  0  0  0  0  0  0  0  0
  161.8310  206.1560  152.3320 C   0  0  0  0  0  2  0  0  0  0  0  0
  161.4360  210.8820  150.8490 O   0  0  0  0  0  0  0  0  0  0  0  0
  161.2750  208.7260  149.1410 O   0  0  0  0  0  0  0  0  0  0  0  0
  160.3330  203.7350  151.1720 C   0  0  0  0  0  1  0  0  0  0  0  0
  161.7020  208.5370  151.4900 C   0  0  2  0  0  3  0  0  0  0  0  0
  161.8210  205.7320  150.8960 C   0  0  2  0  0  3  0  0  0  0  0  0
  158.0840  212.2470  153.8160 C   0  0  0  0  0  1  0  0  0  0  0  0
  158.6590  211.6380  152.6260 N   0  0  0  0  0  0  0  0  0  0  0  0
  157.8120  212.0600  151.5150 C   0  0  0  0  0  2  0  0  0  0  0  0
  157.2460  213.4470  151.7830 C   0  0  0  0  0  2  0  0  0  0  0  0
  156.6010  214.0030  150.5580 C   0  0  0  0  0  0  0  0  0  0  0  0
  155.3480  214.0930  150.4900 O   0  0  0  0  0  1  0  0  0  0  0  0
  157.3860  214.4530  149.5050 O   0  0  0  0  0  0  0  0  0  0  0  0
  160.3680  213.8120  149.3240 C   0  0  0  0  0  1  0  0  0  0  0  0
  161.1760  213.2390  150.4720 C   0  0  0  0  0  2  0  0  0  0  0  0
  1 19  1  6  0  0  0
  1 10  1  0  0  0  0
  3  2  1  0  0  0  0
  5 15  1  6  0  0  0
  5  4  1  0  0  0  0
  5 23  1  0  0  0  0
  6 32  1  1  0  0  0
  6 14  1  0  0  0  0
  8 23  1  0  0  0  0
  8 21  1  1  0  0  0
  9  2  2  0  0  0  0
 10  7  1  1  0  0  0
 10 11  1  0  0  0  0
 11  9  1  0  0  0  0
 12 18  1  1  0  0  0
 12 17  1  0  0  0  0
 13  8  1  0  0  0  0
 14 25  1  6  0  0  0
 14  7  1  0  0  0  0
 15 13  2  0  0  0  0
 16  3  2  0  0  0  0
 17 11  2  0  0  0  0
 17 16  1  0  0  0  0
 19  6  1  0  0  0  0
 20  4  2  0  0  0  0
 22  4  1  6  0  0  0
 22  1  1  0  0  0  0
 22 12  1  0  0  0  0
 23 18  1  1  0  0  0
 25 24  1  0  0  0  0
 26 27  1  0  0  0  0
 26 25  1  0  0  0  0
 28 27  1  0  0  0  0
 29 28  1  0  0  0  0
 30 28  2  0  0  0  0
 31 32  1  0  0  0  0
M  END
>  <MODEL>
4

>  <REMARK>
 VINA RESULT:      -5.6      1.158      1.314
  Name = 
  5 active torsions:
  status: ('A' for Active; 'I' for Inactive)
    1  A    between atoms: C_7  and  C_19
    2  A    between atoms: N_10  and  C_17
    3  A    between atoms: N_10  and  C_20
    4  A    between atoms: C_20  and  C_29
    5  A    between atoms: C_29  and  C_30
                            x       y       z     vdW  Elec       q    Type
                         _______ _______ _______ _____ _____    ______ ____

>  <TORSDO>
F 5

$$$$
=
 OpenBabel11122413043D

 32 36  0  0  1  0  0  0  0  0999 V2000
  161.4130  213.0000  140.7460 C   0  0  1  0  0  3  0  0  0  0  0  0
  157.0680  213.8280  138.5950 C   0  0  0  0  0  3  0  0  0  0  0  0
  156.4510  213.7890  139.8460 C   0  0  0  0  0  3  0  0  0  0  0  0
  161.6810  213.2920  143.2810 C   0  0  0  0  0  0  0  0  0  0  0  0
  161.1980  213.8630  144.5940 C   0  0  2  0  0  3  0  0  0  0  0  0
  163.0980  212.1520  139.4940 C   0  0  2  0  0  3  0  0  0  0  0  0
  161.2450  213.2710  138.2830 O   0  0  0  0  0  0  0  0  0  0  0  0
  159.2570  213.1370  145.5810 C   0  0  2  0  0  3  0  0  0  0  0  0
  158.4590  213.7730  138.5000 C   0  0  0  0  0  3  0  0  0  0  0  0
  160.7460  213.6850  139.5520 C   0  0  1  0  0  3  0  0  0  0  0  0
  159.2450  213.6670  139.6560 C   0  0  0  0  0  0  0  0  0  0  0  0
  159.4390  213.4840  142.1970 C   0  0  2  0  0  3  0  0  0  0  0  0
  160.4030  212.5830  146.2770 C   0  0  0  0  0  3  0  0  0  0  0  0
  162.0200  212.0790  138.3620 C   0  0  2  0  0  3  0  0  0  0  0  0
  161.5010  212.9780  145.7170 N   0  0  0  0  0  0  0  0  0  0  0  0
  157.2250  213.7060  141.0050 C   0  0  0  0  0  3  0  0  0  0  0  0
  158.6250  213.6770  140.9290 C   0  0  0  0  0  0  0  0  0  0  0  0
  158.9140  214.2960  143.3860 C   0  0  0  0  0  2  0  0  0  0  0  0
  162.7930  213.0650  140.5340 O   0  0  0  0  0  0  0  0  0  0  0  0
  162.6730  212.5790  143.2440 O   0  0  0  0  0  0  0  0  0  0  0  0
  157.8410  212.7310  145.8030 C   0  0  0  0  0  1  0  0  0  0  0  0
  160.9580  213.7130  142.0150 C   0  0  2  0  0  3  0  0  0  0  0  0
  159.7030  213.8870  144.5900 C   0  0  2  0  0  3  0  0  0  0  0  0
  160.3850  210.7470  137.2870 C   0  0  0  0  0  1  0  0  0  0  0  0
  161.1490  210.9050  138.5170 N   0  0  0  0  0  0  0  0  0  0  0  0
  161.9770  209.7090  138.6260 C   0  0  0  0  0  2  0  0  0  0  0  0
  161.4910  208.8340  139.7720 C   0  0  0  0  0  2  0  0  0  0  0  0
  161.8560  207.4060  139.5420 C   0  0  0  0  0  0  0  0  0  0  0  0
  161.9570  206.9600  138.3700 O   0  0  0  0  0  0  0  0  0  0  0  0
  162.1160  206.5750  140.6240 O   0  0  0  0  0  1  0  0  0  0  0  0
  164.7070  213.9880  139.0170 C   0  0  0  0  0  1  0  0  0  0  0  0
  164.4430  212.5010  138.8840 C   0  0  0  0  0  2  0  0  0  0  0  0
  1 19  1  6  0  0  0
  1 22  1  0  0  0  0
  2  3  1  0  0  0  0
  3 16  2  0  0  0  0
  5  4  1  6  0  0  0
  5 15  1  0  0  0  0
  6 32  1  6  0  0  0
  6 19  1  0  0  0  0
  7 14  1  0  0  0  0
  8 21  1  6  0  0  0
  8 13  1  0  0  0  0
  9  2  2  0  0  0  0
  9 11  1  0  0  0  0
 10  7  1  6  0  0  0
 10 11  1  0  0  0  0
 10  1  1  0  0  0  0
 11 17  2  0  0  0  0
 12 18  1  1  0  0  0
 14 25  1  1  0  0  0
 14  6  1  0  0  0  0
 15 13  2  0  0  0  0
 17 16  1  0  0  0  0
 17 12  1  0  0  0  0
 20  4  2  0  0  0  0
 22 12  1  0  0  0  0
 22  4  1  1  0  0  0
 23 18  1  6  0  0  0
 23  5  1  0  0  0  0
 23  8  1  0  0  0  0
 24 25  1  0  0  0  0
 25 26  1  0  0  0  0
 26 27  1  0  0  0  0
 28 27  1  0  0  0  0
 28 30  1  0  0  0  0
 29 28  2  0  0  0  0
 32 31  1  0  0  0  0
M  END
>  <MODEL>
5

>  <REMARK>
 VINA RESULT:      -5.4      9.895     14.044
  Name = 
  5 active torsions:
  status: ('A' for Active; 'I' for Inactive)
    1  A    between atoms: C_7  and  C_19
    2  A    between atoms: N_10  and  C_17
    3  A    between atoms: N_10  and  C_20
    4  A    between atoms: C_20  and  C_29
    5  A    between atoms: C_29  and  C_30
                            x       y       z     vdW  Elec       q    Type
                         _______ _______ _______ _____ _____    ______ ____

>  <TORSDO>
F 5

$$$$
=
 OpenBabel11122413043D

 32 36  0  0  1  0  0  0  0  0999 V2000
  161.6710  208.8530  150.6000 C   0  0  1  0  0  3  0  0  0  0  0  0
  161.1060  208.0990  155.4270 C   0  0  0  0  0  3  0  0  0  0  0  0
  160.7910  206.7630  155.1730 C   0  0  0  0  0  3  0  0  0  0  0  0
  161.8930  206.8640  148.9930 C   0  0  0  0  0  0  0  0  0  0  0  0
  162.1950  205.4040  148.7480 C   0  0  2  0  0  3  0  0  0  0  0  0
  161.5110  210.9680  149.8070 C   0  0  2  0  0  3  0  0  0  0  0  0
  162.0060  210.7030  152.2230 O   0  0  0  0  0  0  0  0  0  0  0  0
  160.8030  203.7450  149.5090 C   0  0  2  0  0  3  0  0  0  0  0  0
  161.5280  208.9280  154.3860 C   0  0  0  0  0  3  0  0  0  0  0  0
  162.1560  209.3070  151.9770 C   0  0  1  0  0  3  0  0  0  0  0  0
  161.6280  208.4300  153.0790 C   0  0  0  0  0  0  0  0  0  0  0  0
  161.3800  206.5100  151.4120 C   0  0  2  0  0  3  0  0  0  0  0  0
  160.6290  203.9190  148.0790 C   0  0  0  0  0  3  0  0  0  0  0  0
  161.1430  211.3340  151.2830 C   0  0  2  0  0  3  0  0  0  0  0  0
  161.4020  204.8620  147.6460 N   0  0  0  0  0  0  0  0  0  0  0  0
  160.9090  206.2510  153.8790 C   0  0  0  0  0  3  0  0  0  0  0  0
  161.3580  207.0630  152.8270 C   0  0  0  0  0  0  0  0  0  0  0  0
  161.8990  205.0710  151.3300 C   0  0  0  0  0  2  0  0  0  0  0  0
  162.2090  209.7420  149.6650 O   0  0  0  0  0  0  0  0  0  0  0  0
  161.5590  207.5910  148.0690 O   0  0  0  0  0  0  0  0  0  0  0  0
  159.9320  202.9090  150.3820 C   0  0  0  0  0  1  0  0  0  0  0  0
  162.1170  207.4090  150.3920 C   0  0  2  0  0  3  0  0  0  0  0  0
  161.7140  204.6080  149.9190 C   0  0  2  0  0  3  0  0  0  0  0  0
  159.5940  210.9530  153.0310 C   0  0  0  0  0  1  0  0  0  0  0  0
  159.7370  211.0260  151.5840 N   0  0  0  0  0  0  0  0  0  0  0  0
  158.9040  212.1450  151.1590 C   0  0  0  0  0  2  0  0  0  0  0  0
  159.1320  213.3460  152.0660 C   0  0  0  0  0  2  0  0  0  0  0  0
  157.8640  214.1030  152.2740 C   0  0  0  0  0  0  0  0  0  0  0  0
  157.1400  214.4050  151.2900 O   0  0  0  0  0  0  0  0  0  0  0  0
  157.4660  214.4480  153.5590 O   0  0  0  0  0  1  0  0  0  0  0  0
  161.9510  212.2850  147.7420 C   0  0  0  0  0  1  0  0  0  0  0  0
  162.3260  212.0950  149.2000 C   0  0  0  0  0  2  0  0  0  0  0  0
  1 19  1  6  0  0  0
  1 10  1  0  0  0  0
  3  2  1  0  0  0  0
  5 15  1  6  0  0  0
  5  4  1  0  0  0  0
  5 23  1  0  0  0  0
  6 32  1  1  0  0  0
  6 14  1  0  0  0  0
  8 23  1  0  0  0  0
  8 21  1  1  0  0  0
  9  2  2  0  0  0  0
 10  7  1  1  0  0  0
 10 11  1  0  0  0  0
 11  9  1  0  0  0  0
 12 18  1  1  0  0  0
 12 17  1  0  0  0  0
 13  8  1  0  0  0  0
 14 25  1  1  0  0  0
 14  7  1  0  0  0  0
 15 13  2  0  0  0  0
 16  3  2  0  0  0  0
 17 11  2  0  0  0  0
 17 16  1  0  0  0  0
 19  6  1  0  0  0  0
 20  4  2  0  0  0  0
 22  4  1  6  0  0  0
 22  1  1  0  0  0  0
 22 12  1  0  0  0  0
 23 18  1  1  0  0  0
 25 24  1  0  0  0  0
 26 25  1  0  0  0  0
 26 27  1  0  0  0  0
 27 28  1  0  0  0  0
 28 30  1  0  0  0  0
 29 28  2  0  0  0  0
 31 32  1  0  0  0  0
M  END
>  <MODEL>
6

>  <REMARK>
 VINA RESULT:      -3.8      1.652      2.319
  Name = 
  5 active torsions:
  status: ('A' for Active; 'I' for Inactive)
    1  A    between atoms: C_7  and  C_19
    2  A    between atoms: N_10  and  C_17
    3  A    between atoms: N_10  and  C_20
    4  A    between atoms: C_20  and  C_29
    5  A    between atoms: C_29  and  C_30
                            x       y       z     vdW  Elec       q    Type
                         _______ _______ _______ _____ _____    ______ ____

>  <TORSDO>
F 5

$$$$
