=
 OpenBabel11122413373D

 37 43  0  0  1  0  0  0  0  0999 V2000
  160.6490  207.2610  151.0340 C   0  0  0  0  0  2  0  0  0  0  0  0
  160.8010  208.7080  156.0270 C   0  0  0  0  0  0  0  0  0  0  0  0
  159.8430  210.9460  152.6230 C   0  0  0  0  0  0  0  0  0  0  0  0
  161.0600  206.1370  150.0820 C   0  0  2  0  0  3  0  0  0  0  0  0
  162.6400  211.0230  150.2570 C   0  0  0  0  0  2  0  0  0  0  0  0
  159.6560  210.6670  155.0130 C   0  0  0  0  0  0  0  0  0  0  0  0
  160.5220  210.2180  151.4990 C   0  0  1  0  0  3  0  0  0  0  0  0
  161.6960  208.1470  148.5340 C   0  0  2  0  0  3  0  0  0  0  0  0
  160.0920  210.2510  153.7720 C   0  0  0  0  0  0  0  0  0  0  0  0
  161.1190  211.0400  150.3390 C   0  0  1  0  0  3  0  0  0  0  0  0
  158.8610  211.8180  155.0910 C   0  0  0  0  0  3  0  0  0  0  0  0
  161.4800  206.6310  148.6870 C   0  0  0  0  0  2  0  0  0  0  0  0
  160.9930  209.1860  153.6090 N   0  0  0  0  0  0  0  0  0  0  0  0
  159.8130  207.5560  155.9480 C   0  0  0  0  0  1  0  0  0  0  0  0
  158.8330  212.9920  151.4640 C   0  0  0  0  0  2  0  0  0  0  0  0
  158.5590  212.5360  153.9120 C   0  0  0  0  0  3  0  0  0  0  0  0
  161.7150  208.6800  154.7760 C   0  0  0  0  0  2  0  0  0  0  0  0
  162.8170  208.6730  149.3330 N   0  0  1  0  0  0  0  0  0  0  0  0
  163.1070  210.1000  149.1270 C   0  0  0  0  0  2  0  0  0  0  0  0
  159.0450  212.1080  152.6590 C   0  0  0  0  0  0  0  0  0  0  0  0
  161.5390  209.3280  152.2650 C   0  0  1  0  0  3  0  0  0  0  0  0
  160.0760  209.9490  156.1410 O   0  0  0  0  0  0  0  0  0  0  0  0
  160.4820  212.4100  150.0860 C   0  0  2  0  0  3  0  0  0  0  0  0
  161.6560  208.5210  157.2610 C   0  0  0  0  0  1  0  0  0  0  0  0
  163.0880  208.1190  150.6720 C   0  0  0  0  0  2  0  0  0  0  0  0
  160.5220  208.8490  148.7330 F   0  0  0  0  0  0  0  0  0  0  0  0
  161.8670  207.9960  151.6030 C   0  0  2  0  0  3  0  0  0  0  0  0
  159.0940  212.3260  150.2610 O   0  0  0  0  0  0  0  0  0  0  0  0
  161.6510  213.9960  148.5070 C   0  0  0  0  0  3  0  0  0  0  0  0
  160.7910  212.9050  148.7060 C   0  0  0  0  0  0  0  0  0  0  0  0
  160.1980  212.2790  147.6040 C   0  0  0  0  0  3  0  0  0  0  0  0
  159.8890  212.1290  145.2460 F   0  0  0  0  0  0  0  0  0  0  0  0
  161.3220  213.8230  146.1150 C   0  0  0  0  0  3  0  0  0  0  0  0
  160.4640  212.7380  146.3110 C   0  0  0  0  0  0  0  0  0  0  0  0
  161.9150  214.4530  147.2140 C   0  0  0  0  0  3  0  0  0  0  0  0
  160.4510  203.7830  149.9660 N   0  0  0  0  0  1  0  0  0  0  0  0
  159.9280  205.1380  149.9320 C   0  0  0  0  0  2  0  0  0  0  0  0
  1 27  1  0  0  0  0
  2 22  1  0  0  0  0
  2 24  1  0  0  0  0
  3 20  2  0  0  0  0
  3  9  1  0  0  0  0
  4 37  1  6  0  0  0
  4  1  1  0  0  0  0
  6 11  1  0  0  0  0
  6 22  1  0  0  0  0
  7 21  1  0  0  0  0
  7  3  1  1  0  0  0
  8 12  1  0  0  0  0
  8 26  1  1  0  0  0
  8 18  1  0  0  0  0
  9  6  2  0  0  0  0
 10  5  1  1  0  0  0
 10  7  1  0  0  0  0
 12  4  1  0  0  0  0
 13  9  1  0  0  0  0
 13 17  1  0  0  0  0
 14  2  1  0  0  0  0
 15 20  1  0  0  0  0
 16 11  2  0  0  0  0
 17  2  1  0  0  0  0
 18 19  1  1  0  0  0
 18 25  1  0  0  0  0
 19  5  1  0  0  0  0
 20 16  1  0  0  0  0
 21 13  1  1  0  0  0
 23 30  1  6  0  0  0
 23 28  1  0  0  0  0
 23 10  1  0  0  0  0
 27 25  1  6  0  0  0
 27 21  1  0  0  0  0
 28 15  1  0  0  0  0
 29 30  1  0  0  0  0
 31 30  2  0  0  0  0
 32 34  1  0  0  0  0
 33 34  2  0  0  0  0
 33 35  1  0  0  0  0
 34 31  1  0  0  0  0
 35 29  2  0  0  0  0
 37 36  1  0  0  0  0
M  END
>  <MODEL>
1

>  <REMARK>
 VINA RESULT:      -0.1      0.000      0.000
  Name = 
  2 active torsions:
  status: ('A' for Active; 'I' for Inactive)
    1  A    between atoms: C_4  and  C_37
    2  A    between atoms: C_23  and  C_30
                            x       y       z     vdW  Elec       q    Type
                         _______ _______ _______ _____ _____    ______ ____

>  <TORSDO>
F 2

$$$$
=
 OpenBabel11122413373D

 37 43  0  0  1  0  0  0  0  0999 V2000
  161.3850  208.6880  151.2810 C   0  0  0  0  0  2  0  0  0  0  0  0
  161.4710  210.5430  156.1390 C   0  0  0  0  0  0  0  0  0  0  0  0
  159.3070  211.8660  152.8100 C   0  0  0  0  0  0  0  0  0  0  0  0
  162.1160  207.7410  150.3300 C   0  0  2  0  0  3  0  0  0  0  0  0
  161.5450  212.8410  150.0770 C   0  0  0  0  0  2  0  0  0  0  0  0
  159.5150  211.7650  155.2120 C   0  0  0  0  0  0  0  0  0  0  0  0
  160.0990  211.3700  151.6350 C   0  0  1  0  0  3  0  0  0  0  0  0
  161.6920  209.6770  148.6250 C   0  0  2  0  0  3  0  0  0  0  0  0
  159.9450  211.4450  153.9410 C   0  0  0  0  0  0  0  0  0  0  0  0
  160.1720  212.2490  150.3690 C   0  0  1  0  0  3  0  0  0  0  0  0
  158.3290  212.4990  155.3510 C   0  0  0  0  0  3  0  0  0  0  0  0
  162.1390  208.2260  148.8700 C   0  0  0  0  0  2  0  0  0  0  0  0
  161.1820  210.8240  153.7000 N   0  0  0  0  0  0  0  0  0  0  0  0
  161.0450  209.0890  156.2480 C   0  0  0  0  0  1  0  0  0  0  0  0
  157.4220  213.2080  151.7170 C   0  0  0  0  0  2  0  0  0  0  0  0
  157.6310  212.9160  154.1970 C   0  0  0  0  0  3  0  0  0  0  0  0
  162.1710  210.7680  154.7760 C   0  0  0  0  0  2  0  0  0  0  0  0
  162.5750  210.6850  149.2370 N   0  0  1  0  0  0  0  0  0  0  0  0
  162.2250  212.0810  148.9320 C   0  0  0  0  0  2  0  0  0  0  0  0
  158.1100  212.6030  152.9070 C   0  0  0  0  0  0  0  0  0  0  0  0
  161.4700  211.0460  152.2880 C   0  0  1  0  0  3  0  0  0  0  0  0
  160.3150  211.3910  156.3000 O   0  0  0  0  0  0  0  0  0  0  0  0
  159.0010  213.2130  150.1490 C   0  0  2  0  0  3  0  0  0  0  0  0
  162.4560  210.8380  157.2490 C   0  0  0  0  0  1  0  0  0  0  0  0
  163.1950  210.4190  150.5480 C   0  0  0  0  0  2  0  0  0  0  0  0
  160.3610  209.8600  148.9560 F   0  0  0  0  0  0  0  0  0  0  0  0
  162.2450  209.9030  151.6440 C   0  0  2  0  0  3  0  0  0  0  0  0
  157.8010  212.5920  150.5190 O   0  0  0  0  0  0  0  0  0  0  0  0
  157.6890  213.9250  148.1130 C   0  0  0  0  0  3  0  0  0  0  0  0
  158.9250  213.6560  148.7200 C   0  0  0  0  0  0  0  0  0  0  0  0
  160.1040  213.7860  147.9790 C   0  0  0  0  0  3  0  0  0  0  0  0
  161.1950  214.3100  145.9250 F   0  0  0  0  0  0  0  0  0  0  0  0
  158.8180  214.4530  146.0380 C   0  0  0  0  0  3  0  0  0  0  0  0
  160.0510  214.1850  146.6400 C   0  0  0  0  0  0  0  0  0  0  0  0
  157.6370  214.3230  146.7750 C   0  0  0  0  0  3  0  0  0  0  0  0
  161.6600  205.7830  151.7040 N   0  0  0  0  0  1  0  0  0  0  0  0
  161.4890  206.3590  150.3820 C   0  0  0  0  0  2  0  0  0  0  0  0
  1 27  1  0  0  0  0
  2 14  1  0  0  0  0
  2 22  1  0  0  0  0
  2 24  1  0  0  0  0
  3 20  2  0  0  0  0
  3  9  1  0  0  0  0
  4 37  1  6  0  0  0
  4  1  1  0  0  0  0
  6 11  1  0  0  0  0
  6 22  1  0  0  0  0
  7 21  1  0  0  0  0
  7  3  1  1  0  0  0
  8 12  1  0  0  0  0
  8 26  1  1  0  0  0
  8 18  1  0  0  0  0
  9  6  2  0  0  0  0
 10  5  1  1  0  0  0
 10  7  1  0  0  0  0
 12  4  1  0  0  0  0
 13  9  1  0  0  0  0
 13 17  1  0  0  0  0
 15 20  1  0  0  0  0
 16 11  2  0  0  0  0
 17  2  1  0  0  0  0
 18 19  1  1  0  0  0
 18 25  1  0  0  0  0
 19  5  1  0  0  0  0
 20 16  1  0  0  0  0
 21 13  1  1  0  0  0
 23 30  1  6  0  0  0
 23 10  1  0  0  0  0
 23 28  1  0  0  0  0
 27 25  1  6  0  0  0
 27 21  1  0  0  0  0
 28 15  1  0  0  0  0
 29 30  1  0  0  0  0
 31 30  2  0  0  0  0
 32 34  1  0  0  0  0
 33 34  2  0  0  0  0
 33 35  1  0  0  0  0
 34 31  1  0  0  0  0
 35 29  2  0  0  0  0
 37 36  1  0  0  0  0
M  END
>  <MODEL>
2

>  <REMARK>
 VINA RESULT:       1.4      1.638      2.004
  Name = 
  2 active torsions:
  status: ('A' for Active; 'I' for Inactive)
    1  A    between atoms: C_4  and  C_37
    2  A    between atoms: C_23  and  C_30
                            x       y       z     vdW  Elec       q    Type
                         _______ _______ _______ _____ _____    ______ ____

>  <TORSDO>
F 2

$$$$
=
 OpenBabel11122413373D

 37 43  0  0  1  0  0  0  0  0999 V2000
  162.0340  210.6110  154.7800 C   0  0  0  0  0  2  0  0  0  0  0  0
  162.3740  209.4550  149.7210 C   0  0  0  0  0  0  0  0  0  0  0  0
  160.0420  212.3450  151.6510 C   0  0  0  0  0  0  0  0  0  0  0  0
  162.4080  210.0980  156.1710 C   0  0  2  0  0  3  0  0  0  0  0  0
  157.7680  210.8060  154.0790 C   0  0  0  0  0  2  0  0  0  0  0  0
  161.1100  211.5920  149.6220 C   0  0  0  0  0  0  0  0  0  0  0  0
  159.9090  211.8320  153.0570 C   0  0  1  0  0  3  0  0  0  0  0  0
  160.0000  210.9360  156.7510 C   0  0  2  0  0  3  0  0  0  0  0  0
  160.8210  211.4580  150.9640 C   0  0  0  0  0  0  0  0  0  0  0  0
  158.5810  212.0660  153.8060 C   0  0  1  0  0  3  0  0  0  0  0  0
  160.6420  212.7290  148.9490 C   0  0  0  0  0  3  0  0  0  0  0  0
  161.3600  210.4180  157.2510 C   0  0  0  0  0  2  0  0  0  0  0  0
  161.1380  210.2970  151.6890 N   0  0  0  0  0  0  0  0  0  0  0  0
  163.7800  209.8180  150.1690 C   0  0  0  0  0  1  0  0  0  0  0  0
  158.5930  214.4530  151.6610 C   0  0  0  0  0  2  0  0  0  0  0  0
  159.8650  213.6800  149.6460 C   0  0  0  0  0  3  0  0  0  0  0  0
  161.5240  209.0880  150.9620 C   0  0  0  0  0  2  0  0  0  0  0  0
  159.2440  209.9550  155.9520 N   0  0  1  0  0  0  0  0  0  0  0  0
  157.8980  210.3910  155.5480 C   0  0  0  0  0  2  0  0  0  0  0  0
  159.5550  213.5010  151.0110 C   0  0  0  0  0  0  0  0  0  0  0  0
  160.3170  210.3430  152.8930 C   0  0  1  0  0  3  0  0  0  0  0  0
  161.8100  210.5590  148.9850 O   0  0  0  0  0  0  0  0  0  0  0  0
  157.7540  213.2730  153.3520 C   0  0  2  0  0  3  0  0  0  0  0  0
  162.4580  208.2480  148.8120 C   0  0  0  0  0  1  0  0  0  0  0  0
  159.9590  209.0470  155.0360 C   0  0  0  0  0  2  0  0  0  0  0  0
  160.1250  212.1590  156.1180 F   0  0  0  0  0  0  0  0  0  0  0  0
  160.9900  209.7140  154.1060 C   0  0  2  0  0  3  0  0  0  0  0  0
  158.6060  214.3460  153.0570 O   0  0  0  0  0  0  0  0  0  0  0  0
  157.1700  213.8740  155.7340 C   0  0  0  0  0  3  0  0  0  0  0  0
  156.7680  213.6810  154.4030 C   0  0  0  0  0  0  0  0  0  0  0  0
  155.4250  213.8540  154.0530 C   0  0  0  0  0  3  0  0  0  0  0  0
  153.1890  214.3890  154.6810 F   0  0  0  0  0  0  0  0  0  0  0  0
  154.8920  214.4140  156.3480 C   0  0  0  0  0  3  0  0  0  0  0  0
  154.4890  214.2210  155.0240 C   0  0  0  0  0  0  0  0  0  0  0  0
  156.2330  214.2400  156.7030 C   0  0  0  0  0  3  0  0  0  0  0  0
  163.5700  212.0120  157.1280 N   0  0  0  0  0  1  0  0  0  0  0  0
  163.7470  210.6710  156.5980 C   0  0  0  0  0  2  0  0  0  0  0  0
  1  4  1  0  0  0  0
  2 14  1  0  0  0  0
  2 17  1  0  0  0  0
  4 37  1  1  0  0  0
  4 12  1  0  0  0  0
  5 19  1  0  0  0  0
  6  9  1  0  0  0  0
  7  3  1  6  0  0  0
  7 10  1  0  0  0  0
  8 26  1  6  0  0  0
  8 12  1  0  0  0  0
  9  3  2  0  0  0  0
  9 13  1  0  0  0  0
 10  5  1  6  0  0  0
 11  6  2  0  0  0  0
 11 16  1  0  0  0  0
 15 28  1  0  0  0  0
 16 20  2  0  0  0  0
 17 13  1  0  0  0  0
 18 25  1  6  0  0  0
 18  8  1  0  0  0  0
 19 18  1  0  0  0  0
 20  3  1  0  0  0  0
 20 15  1  0  0  0  0
 21 13  1  6  0  0  0
 21  7  1  0  0  0  0
 21 27  1  0  0  0  0
 22  6  1  0  0  0  0
 22  2  1  0  0  0  0
 23 10  1  0  0  0  0
 23 30  1  1  0  0  0
 24  2  1  0  0  0  0
 27  1  1  1  0  0  0
 27 25  1  0  0  0  0
 28 23  1  0  0  0  0
 29 35  1  0  0  0  0
 30 29  2  0  0  0  0
 31 30  1  0  0  0  0
 31 34  2  0  0  0  0
 32 34  1  0  0  0  0
 33 35  2  0  0  0  0
 34 33  1  0  0  0  0
 37 36  1  0  0  0  0
M  END
>  <MODEL>
3

>  <REMARK>
 VINA RESULT:       1.7      3.227      7.097
  Name = 
  2 active torsions:
  status: ('A' for Active; 'I' for Inactive)
    1  A    between atoms: C_4  and  C_37
    2  A    between atoms: C_23  and  C_30
                            x       y       z     vdW  Elec       q    Type
                         _______ _______ _______ _____ _____    ______ ____

>  <TORSDO>
F 2

$$$$
