=
 OpenBabel11122413213D

 31 35  0  0  0  0  0  0  0  0999 V2000
  161.2030  205.4570  145.6660 C   0  0  0  0  0  0  0  0  0  0  0  0
  161.1180  204.4480  149.2930 C   0  0  0  0  0  0  0  0  0  0  0  0
  161.1180  203.0190  149.3330 C   0  0  0  0  0  0  0  0  0  0  0  0
  161.0690  209.4170  151.0350 O   0  0  0  0  0  0  0  0  0  0  0  0
  161.0470  208.6410  152.0280 C   0  0  0  0  0  0  0  0  0  0  0  0
  161.1470  200.8270  148.2510 C   0  0  0  0  0  0  0  0  0  0  0  0
  161.1460  205.2270  148.0970 C   0  0  0  0  0  0  0  0  0  0  0  0
  161.1980  206.8460  145.7840 C   0  0  0  0  0  3  0  0  0  0  0  0
  161.1470  202.2210  148.1740 C   0  0  0  0  0  3  0  0  0  0  0  0
  161.0840  206.5400  150.5700 C   0  0  0  0  0  0  0  0  0  0  0  0
  161.2410  204.7110  144.0830 Cl  0  0  0  0  0  0  0  0  0  0  0  0
  161.0610  203.0980  151.7590 C   0  0  0  0  0  3  0  0  0  0  0  0
  161.1840  199.8720  146.7850 Cl  0  0  0  0  0  0  0  0  0  0  0  0
  161.1110  207.2430  149.4110 N   0  0  0  0  0  0  0  0  0  0  0  0
  161.0870  205.1380  150.5380 C   0  0  0  0  0  0  0  0  0  0  0  0
  161.0530  207.2190  151.8340 N   0  0  0  0  0  2  0  0  0  0  0  0
  161.1770  204.6590  146.8110 C   0  0  0  0  0  3  0  0  0  0  0  0
  161.1190  200.1970  149.4940 C   0  0  0  0  0  3  0  0  0  0  0  0
  161.1400  206.6420  148.1980 C   0  0  0  0  0  0  0  0  0  0  0  0
  161.1670  207.4360  147.0470 C   0  0  0  0  0  3  0  0  0  0  0  0
  161.0600  204.4500  151.7100 N   0  0  0  0  0  0  0  0  0  0  0  0
  161.0900  202.3570  150.5860 C   0  0  0  0  0  0  0  0  0  0  0  0
  161.0900  200.9610  150.6600 C   0  0  0  0  0  3  0  0  0  0  0  0
  160.9760  210.3000  155.9860 C   0  0  0  0  0  0  0  0  0  0  0  0
  161.3770  210.5270  153.6120 C   0  0  0  0  0  3  0  0  0  0  0  0
  160.2680  207.1060  154.3700 F   0  0  0  0  0  0  0  0  0  0  0  0
  160.9570  210.8500  157.2610 O   0  0  0  0  0  1  0  0  0  0  0  0
  161.3580  211.0820  154.8950 C   0  0  0  0  0  3  0  0  0  0  0  0
  160.6280  208.4050  154.5140 C   0  0  0  0  0  0  0  0  0  0  0  0
  161.0130  209.1880  153.4040 C   0  0  0  0  0  0  0  0  0  0  0  0
  160.6120  208.9660  155.7950 C   0  0  0  0  0  3  0  0  0  0  0  0
  1  8  2  0  0  0  0
  1 17  1  0  0  0  0
  2  3  2  0  0  0  0
  2 15  1  0  0  0  0
  3 22  1  0  0  0  0
  4  5  2  0  0  0  0
  5 30  1  0  0  0  0
  6 18  1  0  0  0  0
  7 19  1  0  0  0  0
  7  2  1  0  0  0  0
  8 20  1  0  0  0  0
  9  6  2  0  0  0  0
  9  3  1  0  0  0  0
 10 16  1  0  0  0  0
 11  1  1  0  0  0  0
 13  6  1  0  0  0  0
 14 10  2  0  0  0  0
 15 10  1  0  0  0  0
 15 21  2  0  0  0  0
 16  5  1  0  0  0  0
 17  7  2  0  0  0  0
 18 23  2  0  0  0  0
 19 14  1  0  0  0  0
 20 19  2  0  0  0  0
 21 12  1  0  0  0  0
 22 23  1  0  0  0  0
 22 12  2  0  0  0  0
 24 27  1  0  0  0  0
 25 28  1  0  0  0  0
 26 29  1  0  0  0  0
 28 24  2  0  0  0  0
 29 31  2  0  0  0  0
 30 25  2  0  0  0  0
 30 29  1  0  0  0  0
 31 24  1  0  0  0  0
M  END
>  <MODEL>
1

>  <REMARK>
 VINA RESULT:      -9.5      0.000      0.000
  Name = 
  1 active torsions:
  status: ('A' for Active; 'I' for Inactive)
    1  A    between atoms: C_5  and  C_30
                            x       y       z     vdW  Elec       q    Type
                         _______ _______ _______ _____ _____    ______ ____

>  <TORSDO>
F 1

$$$$
=
 OpenBabel11122413213D

 31 35  0  0  0  0  0  0  0  0999 V2000
  161.0150  201.8070  150.4490 C   0  0  0  0  0  0  0  0  0  0  0  0
  161.2120  205.5070  149.7740 C   0  0  0  0  0  0  0  0  0  0  0  0
  161.3410  205.6710  148.3600 C   0  0  0  0  0  0  0  0  0  0  0  0
  160.8200  206.8080  154.8620 O   0  0  0  0  0  0  0  0  0  0  0  0
  160.9180  207.8650  154.1810 C   0  0  0  0  0  0  0  0  0  0  0  0
  161.5050  204.7840  146.0880 C   0  0  0  0  0  0  0  0  0  0  0  0
  161.1070  204.2480  150.4400 C   0  0  0  0  0  0  0  0  0  0  0  0
  160.8960  201.8030  151.8380 C   0  0  0  0  0  3  0  0  0  0  0  0
  161.3780  204.5860  147.4640 C   0  0  0  0  0  3  0  0  0  0  0  0
  161.0630  206.5960  151.9650 C   0  0  0  0  0  0  0  0  0  0  0  0
  161.0360  200.2960  149.5670 Cl  0  0  0  0  0  0  0  0  0  0  0  0
  161.4050  208.0800  148.6570 C   0  0  0  0  0  3  0  0  0  0  0  0
  161.5460  203.4080  145.0080 Cl  0  0  0  0  0  0  0  0  0  0  0  0
  160.9660  205.3800  152.5580 N   0  0  0  0  0  0  0  0  0  0  0  0
  161.1870  206.6860  150.5720 C   0  0  0  0  0  0  0  0  0  0  0  0
  161.0400  207.7950  152.7530 N   0  0  0  0  0  2  0  0  0  0  0  0
  161.1200  203.0170  149.7600 C   0  0  0  0  0  3  0  0  0  0  0  0
  161.5960  206.0770  145.5750 C   0  0  0  0  0  3  0  0  0  0  0  0
  160.9850  204.2250  151.8520 C   0  0  0  0  0  0  0  0  0  0  0  0
  160.8790  203.0100  152.5370 C   0  0  0  0  0  3  0  0  0  0  0  0
  161.2830  207.9130  149.9940 N   0  0  0  0  0  0  0  0  0  0  0  0
  161.4360  206.9760  147.8160 C   0  0  0  0  0  0  0  0  0  0  0  0
  161.5630  207.1720  146.4380 C   0  0  0  0  0  3  0  0  0  0  0  0
  160.8470  211.7270  156.0520 C   0  0  0  0  0  0  0  0  0  0  0  0
  160.2080  210.2460  154.2510 C   0  0  0  0  0  3  0  0  0  0  0  0
  162.2800  208.4310  156.6850 F   0  0  0  0  0  0  0  0  0  0  0  0
  160.8150  212.9810  156.6470 O   0  0  0  0  0  1  0  0  0  0  0  0
  160.1750  211.5080  154.8490 C   0  0  0  0  0  3  0  0  0  0  0  0
  161.5860  209.4170  156.0660 C   0  0  0  0  0  0  0  0  0  0  0  0
  160.9100  209.1870  154.8480 C   0  0  0  0  0  0  0  0  0  0  0  0
  161.5500  210.6840  156.6580 C   0  0  0  0  0  3  0  0  0  0  0  0
  1  8  1  0  0  0  0
  2  7  1  0  0  0  0
  2 15  1  0  0  0  0
  3  2  2  0  0  0  0
  5 30  1  0  0  0  0
  5  4  2  0  0  0  0
  6  9  2  0  0  0  0
  7 19  2  0  0  0  0
  8 20  2  0  0  0  0
  9  3  1  0  0  0  0
 10 14  2  0  0  0  0
 10 16  1  0  0  0  0
 11  1  1  0  0  0  0
 12 21  1  0  0  0  0
 13  6  1  0  0  0  0
 15 10  1  0  0  0  0
 16  5  1  0  0  0  0
 17  7  1  0  0  0  0
 17  1  2  0  0  0  0
 18  6  1  0  0  0  0
 18 23  2  0  0  0  0
 19 20  1  0  0  0  0
 19 14  1  0  0  0  0
 21 15  2  0  0  0  0
 22  3  1  0  0  0  0
 22 12  2  0  0  0  0
 23 22  1  0  0  0  0
 24 27  1  0  0  0  0
 24 31  1  0  0  0  0
 25 30  2  0  0  0  0
 25 28  1  0  0  0  0
 28 24  2  0  0  0  0
 29 31  2  0  0  0  0
 29 26  1  0  0  0  0
 30 29  1  0  0  0  0
M  END
>  <MODEL>
2

>  <REMARK>
 VINA RESULT:      -9.2      1.640      4.214
  Name = 
  1 active torsions:
  status: ('A' for Active; 'I' for Inactive)
    1  A    between atoms: C_5  and  C_30
                            x       y       z     vdW  Elec       q    Type
                         _______ _______ _______ _____ _____    ______ ____

>  <TORSDO>
F 1

$$$$
=
 OpenBabel11122413213D

 31 35  0  0  0  0  0  0  0  0999 V2000
  161.8250  210.6240  149.8610 C   0  0  0  0  0  0  0  0  0  0  0  0
  161.2990  207.1550  151.2310 C   0  0  0  0  0  0  0  0  0  0  0  0
  161.1510  207.2790  152.6470 C   0  0  0  0  0  0  0  0  0  0  0  0
  161.5950  204.8650  146.4970 O   0  0  0  0  0  0  0  0  0  0  0  0
  161.4000  203.9730  147.3670 C   0  0  0  0  0  0  0  0  0  0  0  0
  161.0570  208.5990  154.7020 C   0  0  0  0  0  0  0  0  0  0  0  0
  161.5170  208.2480  150.3380 C   0  0  0  0  0  0  0  0  0  0  0  0
  161.9520  210.3480  148.5010 C   0  0  0  0  0  3  0  0  0  0  0  0
  161.2060  208.5160  153.3170 C   0  0  0  0  0  3  0  0  0  0  0  0
  161.3600  205.6540  149.2940 C   0  0  0  0  0  0  0  0  0  0  0  0
  161.9360  212.2730  150.4360 Cl  0  0  0  0  0  0  0  0  0  0  0  0
  160.8750  204.8730  152.8170 C   0  0  0  0  0  3  0  0  0  0  0  0
  161.1320  210.1570  155.4960 Cl  0  0  0  0  0  0  0  0  0  0  0  0
  161.5660  206.7190  148.4800 N   0  0  0  0  0  0  0  0  0  0  0  0
  161.2230  205.8460  150.6750 C   0  0  0  0  0  0  0  0  0  0  0  0
  161.2810  204.3270  148.7520 N   0  0  0  0  0  2  0  0  0  0  0  0
  161.6100  209.5840  150.7670 C   0  0  0  0  0  3  0  0  0  0  0  0
  160.8470  207.4430  155.4520 C   0  0  0  0  0  3  0  0  0  0  0  0
  161.6490  207.9860  148.9500 C   0  0  0  0  0  0  0  0  0  0  0  0
  161.8630  209.0320  148.0470 C   0  0  0  0  0  3  0  0  0  0  0  0
  161.0170  204.7670  151.4760 N   0  0  0  0  0  0  0  0  0  0  0  0
  160.9370  206.1170  153.4290 C   0  0  0  0  0  0  0  0  0  0  0  0
  160.7880  206.2030  154.8170 C   0  0  0  0  0  3  0  0  0  0  0  0
  161.1220  199.8300  146.2820 C   0  0  0  0  0  0  0  0  0  0  0  0
  161.6670  201.5560  147.8840 C   0  0  0  0  0  3  0  0  0  0  0  0
  160.4590  203.0810  144.7650 F   0  0  0  0  0  0  0  0  0  0  0  0
  161.0360  198.4850  145.9440 O   0  0  0  0  0  1  0  0  0  0  0  0
  161.5810  200.2030  147.5450 C   0  0  0  0  0  3  0  0  0  0  0  0
  160.8310  202.1630  145.6900 C   0  0  0  0  0  0  0  0  0  0  0  0
  161.2940  202.5510  146.9670 C   0  0  0  0  0  0  0  0  0  0  0  0
  160.7480  200.8070  145.3580 C   0  0  0  0  0  3  0  0  0  0  0  0
  1 11  1  0  0  0  0
  1 17  1  0  0  0  0
  2  3  1  0  0  0  0
  3  9  2  0  0  0  0
  3 22  1  0  0  0  0
  4  5  2  0  0  0  0
  5 16  1  0  0  0  0
  6 18  2  0  0  0  0
  6 13  1  0  0  0  0
  7 17  2  0  0  0  0
  7  2  1  0  0  0  0
  8  1  2  0  0  0  0
  9  6  1  0  0  0  0
 10 15  1  0  0  0  0
 12 22  1  0  0  0  0
 14 19  1  0  0  0  0
 14 10  2  0  0  0  0
 15  2  2  0  0  0  0
 15 21  1  0  0  0  0
 16 10  1  0  0  0  0
 19  7  1  0  0  0  0
 20  8  1  0  0  0  0
 20 19  2  0  0  0  0
 21 12  2  0  0  0  0
 22 23  2  0  0  0  0
 23 18  1  0  0  0  0
 24 28  1  0  0  0  0
 26 29  1  0  0  0  0
 27 24  1  0  0  0  0
 28 25  2  0  0  0  0
 29 30  2  0  0  0  0
 30  5  1  0  0  0  0
 30 25  1  0  0  0  0
 31 29  1  0  0  0  0
 31 24  2  0  0  0  0
M  END
>  <MODEL>
3

>  <REMARK>
 VINA RESULT:      -8.1      4.588      8.305
  Name = 
  1 active torsions:
  status: ('A' for Active; 'I' for Inactive)
    1  A    between atoms: C_5  and  C_30
                            x       y       z     vdW  Elec       q    Type
                         _______ _______ _______ _____ _____    ______ ____

>  <TORSDO>
F 1

$$$$
