=
 OpenBabel11122414323D

 34 40  0  0  1  0  0  0  0  0999 V2000
  160.8360  209.4210  155.3980 C   0  0  0  0  0  0  0  0  0  0  0  0
  160.4970  211.3350  157.0460 C   0  0  0  0  0  3  0  0  0  0  0  0
  162.1750  206.6940  149.5440 C   0  0  2  0  0  3  0  0  0  0  0  0
  160.8960  207.6930  153.6690 C   0  0  0  0  0  0  0  0  0  0  0  0
  161.6800  208.2900  151.3350 C   0  0  1  0  0  3  0  0  0  0  0  0
  161.9010  208.6480  148.7470 C   0  0  0  0  0  2  0  0  0  0  0  0
  162.5310  207.3580  148.2330 C   0  0  0  0  0  2  0  0  0  0  0  0
  160.5610  205.3050  150.8680 C   0  0  0  0  0  2  0  0  0  0  0  0
  160.4910  211.7540  154.7750 C   0  0  0  0  0  0  0  0  0  0  0  0
  161.0450  209.6510  151.5830 C   0  0  0  0  0  2  0  0  0  0  0  0
  161.3670  205.8340  152.0700 C   0  0  0  0  0  2  0  0  0  0  0  0
  160.5030  211.4560  153.2930 C   0  0  1  0  0  3  0  0  0  0  0  0
  159.7470  212.4000  156.7980 C   0  0  0  0  0  3  0  0  0  0  0  0
  161.1740  207.2830  152.3080 N   0  0  0  0  0  0  0  0  0  0  0  0
  161.2970  205.4570  149.5200 C   0  0  0  0  0  2  0  0  0  0  0  0
  160.9590  209.0530  154.0390 C   0  0  0  0  0  0  0  0  0  0  0  0
  161.3240  207.8730  149.9160 C   0  0  1  0  0  3  0  0  0  0  0  0
  161.2680  210.1320  153.0140 C   0  0  1  0  0  3  0  0  0  0  0  0
  160.4440  207.1080  155.9920 C   0  0  0  0  0  3  0  0  0  0  0  0
  160.6090  206.7360  154.6570 C   0  0  0  0  0  3  0  0  0  0  0  0
  159.7300  212.6630  155.3640 C   0  0  0  0  0  3  0  0  0  0  0  0
  160.5800  208.4430  156.3670 C   0  0  0  0  0  3  0  0  0  0  0  0
  161.1190  210.8500  155.7760 C   0  0  2  0  0  3  0  0  0  0  0  0
  159.0640  211.3830  152.7600 C   0  0  0  0  0  2  0  0  0  0  0  0
  158.7220  212.6140  151.9370 C   0  0  0  0  0  2  0  0  0  0  0  0
  159.9790  213.2060  151.3300 C   0  0  0  0  0  2  0  0  0  0  0  0
  159.6000  214.3080  150.3650 C   0  0  0  0  0  2  0  0  0  0  0  0
  160.3860  214.1440  149.0780 C   0  0  0  0  0  2  0  0  0  0  0  0
  161.0590  212.7810  149.0330 C   0  0  0  0  0  2  0  0  0  0  0  0
  160.8260  212.9590  145.4270 C   0  0  0  0  0  2  0  0  0  0  0  0
  162.3720  213.4710  147.1410 O   0  0  0  0  0  0  0  0  0  0  0  0
  161.5400  212.4520  147.6280 C   0  0  2  0  0  3  0  0  0  0  0  0
  162.2280  213.4240  145.7480 C   0  0  0  0  0  2  0  0  0  0  0  0
  160.3550  212.3270  146.7020 C   0  0  0  0  0  2  0  0  0  0  0  0
  1 23  1  0  0  0  0
  1 22  1  0  0  0  0
  3  7  1  6  0  0  0
  3 17  1  0  0  0  0
  4 16  1  0  0  0  0
  4 20  2  0  0  0  0
  5 10  1  1  0  0  0
  5 14  1  0  0  0  0
  7  6  1  0  0  0  0
  8 11  1  0  0  0  0
  9 21  2  0  0  0  0
  9 23  1  0  0  0  0
 11 14  1  0  0  0  0
 12 24  1  1  0  0  0
 12  9  1  0  0  0  0
 13  2  2  0  0  0  0
 14  4  1  0  0  0  0
 15  3  1  0  0  0  0
 15  8  1  0  0  0  0
 16  1  2  0  0  0  0
 17  6  1  6  0  0  0
 17  5  1  0  0  0  0
 18 10  1  6  0  0  0
 18 12  1  0  0  0  0
 18 16  1  0  0  0  0
 19 22  2  0  0  0  0
 20 19  1  0  0  0  0
 21 13  1  0  0  0  0
 23  2  1  1  0  0  0
 25 24  1  0  0  0  0
 26 25  1  0  0  0  0
 27 26  1  0  0  0  0
 28 27  1  0  0  0  0
 29 28  1  0  0  0  0
 30 33  1  0  0  0  0
 30 34  1  0  0  0  0
 31 32  1  0  0  0  0
 32 29  1  1  0  0  0
 33 31  1  0  0  0  0
 34 32  1  0  0  0  0
M  END
>  <MODEL>
1

>  <REMARK>
 VINA RESULT:      -8.1      0.000      0.000
  Name = 
  7 active torsions:
  status: ('A' for Active; 'I' for Inactive)
    1  A    between atoms: C_10  and  C_17
    2  A    between atoms: C_10  and  C_22
    3  A    between atoms: C_13  and  C_24
    4  A    between atoms: C_17  and  C_28
    5  A    between atoms: C_22  and  C_24
    6  A    between atoms: C_28  and  C_29
    7  A    between atoms: C_29  and  C_32
                            x       y       z     vdW  Elec       q    Type
                         _______ _______ _______ _____ _____    ______ ____

>  <TORSDO>
F 7

$$$$
=
 OpenBabel11122414323D

 34 40  0  0  1  0  0  0  0  0999 V2000
  160.9740  204.8430  150.4010 C   0  0  0  0  0  0  0  0  0  0  0  0
  161.1510  203.7790  148.0920 C   0  0  0  0  0  3  0  0  0  0  0  0
  160.0500  209.7580  154.7000 C   0  0  2  0  0  3  0  0  0  0  0  0
  161.0710  206.0260  152.5390 C   0  0  0  0  0  0  0  0  0  0  0  0
  160.3890  208.4620  152.6490 C   0  0  1  0  0  3  0  0  0  0  0  0
  160.2900  211.0550  153.0290 C   0  0  0  0  0  2  0  0  0  0  0  0
  159.7380  211.2160  154.4420 C   0  0  0  0  0  2  0  0  0  0  0  0
  161.6450  208.0380  155.5850 C   0  0  0  0  0  2  0  0  0  0  0  0
  161.2610  206.0750  148.3160 C   0  0  0  0  0  0  0  0  0  0  0  0
  160.9570  208.5770  151.2410 C   0  0  0  0  0  2  0  0  0  0  0  0
  160.7560  207.0630  154.7880 C   0  0  0  0  0  2  0  0  0  0  0  0
  161.3390  207.4150  149.0100 C   0  0  1  0  0  3  0  0  0  0  0  0
  161.8730  204.2830  147.0990 C   0  0  0  0  0  3  0  0  0  0  0  0
  160.8810  207.2290  153.3220 N   0  0  0  0  0  0  0  0  0  0  0  0
  160.9750  209.4030  155.8490 C   0  0  0  0  0  2  0  0  0  0  0  0
  160.9360  206.0500  151.1350 C   0  0  0  0  0  0  0  0  0  0  0  0
  160.8350  209.6940  153.4220 C   0  0  1  0  0  3  0  0  0  0  0  0
  160.6410  207.3460  150.3970 C   0  0  1  0  0  3  0  0  0  0  0  0
  161.4230  203.6150  152.4380 C   0  0  0  0  0  3  0  0  0  0  0  0
  161.3430  204.8000  153.1710 C   0  0  0  0  0  3  0  0  0  0  0  0
  161.9550  205.7310  147.2410 C   0  0  0  0  0  3  0  0  0  0  0  0
  161.2150  203.6310  151.0590 C   0  0  0  0  0  3  0  0  0  0  0  0
  160.6160  204.8880  148.9390 C   0  0  2  0  0  3  0  0  0  0  0  0
  162.8050  207.8490  149.1530 C   0  0  0  0  0  2  0  0  0  0  0  0
  163.0850  209.1050  148.3450 C   0  0  0  0  0  2  0  0  0  0  0  0
  161.8870  210.0340  148.3850 C   0  0  0  0  0  2  0  0  0  0  0  0
  162.2650  211.3120  149.1000 C   0  0  0  0  0  2  0  0  0  0  0  0
  162.6730  212.3590  148.0810 C   0  0  0  0  0  2  0  0  0  0  0  0
  161.8630  213.6320  148.2700 C   0  0  0  0  0  2  0  0  0  0  0  0
  159.8420  212.3070  145.5770 C   0  0  0  0  0  2  0  0  0  0  0  0
  159.5600  213.1700  147.7610 O   0  0  0  0  0  0  0  0  0  0  0  0
  160.7410  213.7260  147.2480 C   0  0  2  0  0  3  0  0  0  0  0  0
  158.8490  212.7240  146.6370 C   0  0  0  0  0  2  0  0  0  0  0  0
  161.1210  212.9620  146.0030 C   0  0  0  0  0  2  0  0  0  0  0  0
  1 22  2  0  0  0  0
  1 16  1  0  0  0  0
  3  7  1  1  0  0  0
  3 15  1  0  0  0  0
  4 20  1  0  0  0  0
  4 14  1  0  0  0  0
  5 10  1  6  0  0  0
  5 14  1  0  0  0  0
  5 17  1  0  0  0  0
  6  7  1  0  0  0  0
  8 15  1  0  0  0  0
  9 23  1  0  0  0  0
  9 12  1  0  0  0  0
 11  8  1  0  0  0  0
 12 24  1  1  0  0  0
 12 18  1  0  0  0  0
 13 21  1  0  0  0  0
 13  2  2  0  0  0  0
 14 11  1  0  0  0  0
 16  4  2  0  0  0  0
 17  6  1  6  0  0  0
 17  3  1  0  0  0  0
 18 16  1  0  0  0  0
 18 10  1  1  0  0  0
 19 20  2  0  0  0  0
 21  9  2  0  0  0  0
 22 19  1  0  0  0  0
 23  2  1  6  0  0  0
 23  1  1  0  0  0  0
 25 26  1  0  0  0  0
 25 24  1  0  0  0  0
 26 27  1  0  0  0  0
 28 29  1  0  0  0  0
 28 27  1  0  0  0  0
 30 34  1  0  0  0  0
 30 33  1  0  0  0  0
 32 31  1  0  0  0  0
 32 29  1  1  0  0  0
 33 31  1  0  0  0  0
 34 32  1  0  0  0  0
M  END
>  <MODEL>
2

>  <REMARK>
 VINA RESULT:      -7.6      1.524      5.910
  Name = 
  7 active torsions:
  status: ('A' for Active; 'I' for Inactive)
    1  A    between atoms: C_10  and  C_17
    2  A    between atoms: C_10  and  C_22
    3  A    between atoms: C_13  and  C_24
    4  A    between atoms: C_17  and  C_28
    5  A    between atoms: C_22  and  C_24
    6  A    between atoms: C_28  and  C_29
    7  A    between atoms: C_29  and  C_32
                            x       y       z     vdW  Elec       q    Type
                         _______ _______ _______ _____ _____    ______ ____

>  <TORSDO>
F 7

$$$$
=
 OpenBabel11122414323D

 34 40  0  0  1  0  0  0  0  0999 V2000
  160.8950  209.2290  155.4490 C   0  0  0  0  0  0  0  0  0  0  0  0
  160.6740  211.0780  157.1880 C   0  0  0  0  0  3  0  0  0  0  0  0
  162.1290  206.7050  149.4820 C   0  0  2  0  0  3  0  0  0  0  0  0
  160.8540  207.5910  153.6340 C   0  0  0  0  0  0  0  0  0  0  0  0
  161.7250  208.2420  151.3460 C   0  0  1  0  0  3  0  0  0  0  0  0
  162.0230  208.7120  148.7840 C   0  0  0  0  0  2  0  0  0  0  0  0
  162.5610  207.4040  148.2120 C   0  0  0  0  0  2  0  0  0  0  0  0
  160.3880  205.3810  150.7080 C   0  0  0  0  0  2  0  0  0  0  0  0
  160.7430  211.6100  154.9420 C   0  0  0  0  0  0  0  0  0  0  0  0
  161.1930  209.6350  151.6550 C   0  0  0  0  0  2  0  0  0  0  0  0
  161.2100  205.7840  151.9480 C   0  0  0  0  0  2  0  0  0  0  0  0
  160.7600  211.3880  153.4470 C   0  0  1  0  0  3  0  0  0  0  0  0
  160.0130  212.2090  156.9850 C   0  0  0  0  0  3  0  0  0  0  0  0
  161.1250  207.2300  152.2570 N   0  0  0  0  0  0  0  0  0  0  0  0
  161.1590  205.5430  149.3810 C   0  0  0  0  0  2  0  0  0  0  0  0
  161.0150  208.9220  154.0750 C   0  0  0  0  0  0  0  0  0  0  0  0
  161.3650  207.9260  149.9020 C   0  0  1  0  0  3  0  0  0  0  0  0
  161.4250  210.0230  153.1120 C   0  0  1  0  0  3  0  0  0  0  0  0
  160.3140  206.9260  155.9170 C   0  0  0  0  0  3  0  0  0  0  0  0
  160.4750  206.6100  154.5670 C   0  0  0  0  0  3  0  0  0  0  0  0
  160.0440  212.5450  155.5670 C   0  0  0  0  0  3  0  0  0  0  0  0
  160.5460  208.2260  156.3620 C   0  0  0  0  0  3  0  0  0  0  0  0
  161.2810  210.6100  155.9050 C   0  0  2  0  0  3  0  0  0  0  0  0
  159.3300  211.4540  152.8900 C   0  0  0  0  0  2  0  0  0  0  0  0
  159.2010  212.5500  151.8460 C   0  0  0  0  0  2  0  0  0  0  0  0
  158.5430  213.7760  152.4490 C   0  0  0  0  0  2  0  0  0  0  0  0
  157.1120  213.8690  151.9660 C   0  0  0  0  0  2  0  0  0  0  0  0
  156.2460  214.4530  153.0640 C   0  0  0  0  0  2  0  0  0  0  0  0
  155.3000  213.3990  153.6160 C   0  0  0  0  0  2  0  0  0  0  0  0
  156.3360  211.8150  156.6990 C   0  0  0  0  0  2  0  0  0  0  0  0
  155.2230  211.2500  154.6910 O   0  0  0  0  0  0  0  0  0  0  0  0
  156.0560  212.3420  154.4070 C   0  0  2  0  0  3  0  0  0  0  0  0
  155.7350  210.7000  155.8750 C   0  0  0  0  0  2  0  0  0  0  0  0
  156.5290  212.9280  155.7150 C   0  0  0  0  0  2  0  0  0  0  0  0
  1 23  1  0  0  0  0
  1 22  1  0  0  0  0
  3  7  1  6  0  0  0
  3 17  1  0  0  0  0
  4 16  1  0  0  0  0
  4 20  2  0  0  0  0
  5 10  1  1  0  0  0
  5 14  1  0  0  0  0
  7  6  1  0  0  0  0
  8 11  1  0  0  0  0
  9 21  2  0  0  0  0
  9 23  1  0  0  0  0
 11 14  1  0  0  0  0
 12 24  1  1  0  0  0
 12  9  1  0  0  0  0
 13  2  2  0  0  0  0
 14  4  1  0  0  0  0
 15  3  1  0  0  0  0
 15  8  1  0  0  0  0
 16  1  2  0  0  0  0
 17  6  1  6  0  0  0
 17  5  1  0  0  0  0
 18 10  1  6  0  0  0
 18 12  1  0  0  0  0
 18 16  1  0  0  0  0
 19 22  2  0  0  0  0
 20 19  1  0  0  0  0
 21 13  1  0  0  0  0
 23  2  1  1  0  0  0
 25 26  1  0  0  0  0
 25 24  1  0  0  0  0
 27 26  1  0  0  0  0
 27 28  1  0  0  0  0
 28 29  1  0  0  0  0
 31 33  1  0  0  0  0
 32 29  1  1  0  0  0
 32 31  1  0  0  0  0
 32 34  1  0  0  0  0
 33 30  1  0  0  0  0
 34 30  1  0  0  0  0
M  END
>  <MODEL>
3

>  <REMARK>
 VINA RESULT:      -7.3      2.669      4.498
  Name = 
  7 active torsions:
  status: ('A' for Active; 'I' for Inactive)
    1  A    between atoms: C_10  and  C_17
    2  A    between atoms: C_10  and  C_22
    3  A    between atoms: C_13  and  C_24
    4  A    between atoms: C_17  and  C_28
    5  A    between atoms: C_22  and  C_24
    6  A    between atoms: C_28  and  C_29
    7  A    between atoms: C_29  and  C_32
                            x       y       z     vdW  Elec       q    Type
                         _______ _______ _______ _____ _____    ______ ____

>  <TORSDO>
F 7

$$$$
=
 OpenBabel11122414323D

 34 40  0  0  1  0  0  0  0  0999 V2000
  162.1510  208.5310  149.6830 C   0  0  0  0  0  0  0  0  0  0  0  0
  162.7040  207.3130  147.5150 C   0  0  0  0  0  3  0  0  0  0  0  0
  161.0870  209.0780  156.1690 C   0  0  2  0  0  3  0  0  0  0  0  0
  161.3480  209.5280  151.7680 C   0  0  0  0  0  0  0  0  0  0  0  0
  161.4780  208.1960  153.9180 C   0  0  1  0  0  3  0  0  0  0  0  0
  160.9600  206.9540  156.1690 C   0  0  0  0  0  2  0  0  0  0  0  0
  161.1440  208.0180  157.2460 C   0  0  0  0  0  2  0  0  0  0  0  0
  159.7240  210.7270  154.8630 C   0  0  0  0  0  2  0  0  0  0  0  0
  162.0810  206.1120  149.3870 C   0  0  0  0  0  0  0  0  0  0  0  0
  161.2200  206.9700  153.0520 C   0  0  0  0  0  2  0  0  0  0  0  0
  160.9450  210.7230  153.9230 C   0  0  0  0  0  2  0  0  0  0  0  0
  161.5820  205.8600  150.7910 C   0  0  1  0  0  3  0  0  0  0  0  0
  162.1300  206.1780  147.1380 C   0  0  0  0  0  3  0  0  0  0  0  0
  161.1130  209.4440  153.1940 N   0  0  0  0  0  0  0  0  0  0  0  0
  160.0260  210.1580  156.2660 C   0  0  0  0  0  2  0  0  0  0  0  0
  161.7790  208.3980  151.0410 C   0  0  0  0  0  0  0  0  0  0  0  0
  160.6320  208.0510  155.1740 C   0  0  1  0  0  3  0  0  0  0  0  0
  161.9580  207.0500  151.7190 C   0  0  1  0  0  3  0  0  0  0  0  0
  161.5270  210.8700  149.7400 C   0  0  0  0  0  3  0  0  0  0  0  0
  161.2010  210.7510  151.0910 C   0  0  0  0  0  3  0  0  0  0  0  0
  161.7250  205.4200  148.3150 C   0  0  0  0  0  3  0  0  0  0  0  0
  162.0240  209.7690  149.0420 C   0  0  0  0  0  3  0  0  0  0  0  0
  162.8030  207.3560  149.0060 C   0  0  2  0  0  3  0  0  0  0  0  0
  160.0620  205.6340  150.7760 C   0  0  0  0  0  2  0  0  0  0  0  0
  159.7250  204.1700  151.0010 C   0  0  0  0  0  2  0  0  0  0  0  0
  160.8680  203.4700  151.7110 C   0  0  0  0  0  2  0  0  0  0  0  0
  161.2060  202.1900  150.9800 C   0  0  0  0  0  2  0  0  0  0  0  0
  160.4850  202.1640  149.6470 C   0  0  0  0  0  2  0  0  0  0  0  0
  160.9110  200.9530  148.8320 C   0  0  0  0  0  2  0  0  0  0  0  0
  160.4560  201.3060  145.2600 C   0  0  0  0  0  2  0  0  0  0  0  0
  160.9390  202.6590  147.1380 O   0  0  0  0  0  0  0  0  0  0  0  0
  161.3760  201.3610  147.4420 C   0  0  2  0  0  3  0  0  0  0  0  0
  160.8310  202.6890  145.7410 C   0  0  0  0  0  2  0  0  0  0  0  0
  160.8000  200.4170  146.4160 C   0  0  0  0  0  2  0  0  0  0  0  0
  1 16  1  0  0  0  0
  3 15  1  1  0  0  0
  3  7  1  0  0  0  0
  4 14  1  0  0  0  0
  5 10  1  6  0  0  0
  5 17  1  0  0  0  0
  6  7  1  0  0  0  0
  8 15  1  0  0  0  0
  9 12  1  0  0  0  0
 11  8  1  0  0  0  0
 12 24  1  6  0  0  0
 12 18  1  0  0  0  0
 13  2  2  0  0  0  0
 13 21  1  0  0  0  0
 14  5  1  0  0  0  0
 14 11  1  0  0  0  0
 16 18  1  0  0  0  0
 16  4  2  0  0  0  0
 17  6  1  1  0  0  0
 17  3  1  0  0  0  0
 18 10  1  1  0  0  0
 19 20  2  0  0  0  0
 20  4  1  0  0  0  0
 21  9  2  0  0  0  0
 22  1  2  0  0  0  0
 22 19  1  0  0  0  0
 23  2  1  6  0  0  0
 23  9  1  0  0  0  0
 23  1  1  0  0  0  0
 24 25  1  0  0  0  0
 25 26  1  0  0  0  0
 27 26  1  0  0  0  0
 28 27  1  0  0  0  0
 29 28  1  0  0  0  0
 30 33  1  0  0  0  0
 30 34  1  0  0  0  0
 31 32  1  0  0  0  0
 32 29  1  1  0  0  0
 33 31  1  0  0  0  0
 34 32  1  0  0  0  0
M  END
>  <MODEL>
4

>  <REMARK>
 VINA RESULT:      -6.5      3.047      8.380
  Name = 
  7 active torsions:
  status: ('A' for Active; 'I' for Inactive)
    1  A    between atoms: C_10  and  C_17
    2  A    between atoms: C_10  and  C_22
    3  A    between atoms: C_13  and  C_24
    4  A    between atoms: C_17  and  C_28
    5  A    between atoms: C_22  and  C_24
    6  A    between atoms: C_28  and  C_29
    7  A    between atoms: C_29  and  C_32
                            x       y       z     vdW  Elec       q    Type
                         _______ _______ _______ _____ _____    ______ ____

>  <TORSDO>
F 7

$$$$
=
 OpenBabel11122414323D

 34 40  0  0  1  0  0  0  0  0999 V2000
  160.7650  206.5970  154.0290 C   0  0  0  0  0  0  0  0  0  0  0  0
  161.1840  204.3920  152.8250 C   0  0  0  0  0  3  0  0  0  0  0  0
  159.0690  212.9520  154.5180 C   0  0  2  0  0  3  0  0  0  0  0  0
  160.6140  208.8290  155.0200 C   0  0  0  0  0  0  0  0  0  0  0  0
  159.6600  210.7370  153.6550 C   0  0  1  0  0  3  0  0  0  0  0  0
  159.2530  213.0020  152.3980 C   0  0  0  0  0  2  0  0  0  0  0  0
  158.6110  213.9110  153.4410 C   0  0  0  0  0  2  0  0  0  0  0  0
  160.7950  212.3180  156.2220 C   0  0  0  0  0  2  0  0  0  0  0  0
  161.0260  206.3530  151.6170 C   0  0  0  0  0  0  0  0  0  0  0  0
  160.2870  210.0510  152.4490 C   0  0  0  0  0  2  0  0  0  0  0  0
  160.0650  210.9610  156.1960 C   0  0  0  0  0  2  0  0  0  0  0  0
  160.9160  207.8390  151.3600 C   0  0  1  0  0  3  0  0  0  0  0  0
  161.8970  204.2800  151.7120 C   0  0  0  0  0  3  0  0  0  0  0  0
  160.2500  210.2270  154.9230 N   0  0  0  0  0  0  0  0  0  0  0  0
  159.9640  213.4750  155.6260 C   0  0  0  0  0  2  0  0  0  0  0  0
  160.5540  207.9880  153.8880 C   0  0  0  0  0  0  0  0  0  0  0  0
  159.9240  212.2290  153.5180 C   0  0  1  0  0  3  0  0  0  0  0  0
  160.1560  208.5330  152.5260 C   0  0  1  0  0  3  0  0  0  0  0  0
  161.2370  206.9050  156.3830 C   0  0  0  0  0  3  0  0  0  0  0  0
  160.9860  208.2730  156.2560 C   0  0  0  0  0  3  0  0  0  0  0  0
  161.8100  205.5200  150.9510 C   0  0  0  0  0  3  0  0  0  0  0  0
  161.1040  206.0650  155.2790 C   0  0  0  0  0  3  0  0  0  0  0  0
  160.4840  205.7120  152.8450 C   0  0  2  0  0  3  0  0  0  0  0  0
  162.3150  208.4450  151.1780 C   0  0  0  0  0  2  0  0  0  0  0  0
  162.4470  209.1180  149.8210 C   0  0  0  0  0  2  0  0  0  0  0  0
  162.5080  208.0760  148.7220 C   0  0  0  0  0  2  0  0  0  0  0  0
  161.1030  207.7180  148.2890 C   0  0  0  0  0  2  0  0  0  0  0  0
  161.1590  206.6030  147.2640 C   0  0  0  0  0  2  0  0  0  0  0  0
  162.5620  206.0230  147.1800 C   0  0  0  0  0  2  0  0  0  0  0  0
  160.9400  202.7950  146.9990 C   0  0  0  0  0  2  0  0  0  0  0  0
  161.9640  204.3590  145.5520 O   0  0  0  0  0  0  0  0  0  0  0  0
  162.5260  204.5450  146.8230 C   0  0  2  0  0  3  0  0  0  0  0  0
  161.4000  203.0760  145.5870 C   0  0  0  0  0  2  0  0  0  0  0  0
  161.6800  203.8010  147.8270 C   0  0  0  0  0  2  0  0  0  0  0  0
  1 22  1  0  0  0  0
  3  7  1  6  0  0  0
  3 15  1  0  0  0  0
  4 20  2  0  0  0  0
  5 10  1  6  0  0  0
  5 14  1  0  0  0  0
  6  7  1  0  0  0  0
  9 23  1  0  0  0  0
 11  8  1  0  0  0  0
 12 24  1  1  0  0  0
 12  9  1  0  0  0  0
 12 18  1  0  0  0  0
 13  2  2  0  0  0  0
 14  4  1  0  0  0  0
 14 11  1  0  0  0  0
 15  8  1  0  0  0  0
 16  1  2  0  0  0  0
 16  4  1  0  0  0  0
 17  6  1  6  0  0  0
 17  5  1  0  0  0  0
 17  3  1  0  0  0  0
 18 10  1  1  0  0  0
 18 16  1  0  0  0  0
 20 19  1  0  0  0  0
 21  9  2  0  0  0  0
 21 13  1  0  0  0  0
 22 19  2  0  0  0  0
 23  2  1  1  0  0  0
 23  1  1  0  0  0  0
 25 24  1  0  0  0  0
 26 25  1  0  0  0  0
 27 26  1  0  0  0  0
 28 27  1  0  0  0  0
 29 28  1  0  0  0  0
 30 34  1  0  0  0  0
 31 33  1  0  0  0  0
 31 32  1  0  0  0  0
 32 29  1  1  0  0  0
 32 34  1  0  0  0  0
 33 30  1  0  0  0  0
M  END
>  <MODEL>
5

>  <REMARK>
 VINA RESULT:      -5.8      2.856      6.743
  Name = 
  7 active torsions:
  status: ('A' for Active; 'I' for Inactive)
    1  A    between atoms: C_10  and  C_17
    2  A    between atoms: C_10  and  C_22
    3  A    between atoms: C_13  and  C_24
    4  A    between atoms: C_17  and  C_28
    5  A    between atoms: C_22  and  C_24
    6  A    between atoms: C_28  and  C_29
    7  A    between atoms: C_29  and  C_32
                            x       y       z     vdW  Elec       q    Type
                         _______ _______ _______ _____ _____    ______ ____

>  <TORSDO>
F 7

$$$$
=
 OpenBabel11122414323D

 34 40  0  0  1  0  0  0  0  0999 V2000
  159.6480  212.9490  149.9020 C   0  0  0  0  0  0  0  0  0  0  0  0
  161.4260  212.2090  148.2340 C   0  0  0  0  0  3  0  0  0  0  0  0
  157.0700  213.9600  155.8880 C   0  0  2  0  0  3  0  0  0  0  0  0
  157.9140  213.3480  151.5800 C   0  0  0  0  0  0  0  0  0  0  0  0
  158.5120  213.2510  154.0390 C   0  0  1  0  0  3  0  0  0  0  0  0
  158.6350  212.7060  156.6020 C   0  0  0  0  0  2  0  0  0  0  0  0
  157.6690  213.6920  157.2510 C   0  0  0  0  0  2  0  0  0  0  0  0
  155.3000  213.4390  154.1910 C   0  0  0  0  0  2  0  0  0  0  0  0
  161.5440  211.5100  150.4320 C   0  0  0  0  0  0  0  0  0  0  0  0
  159.5100  212.1700  153.6470 C   0  0  0  0  0  2  0  0  0  0  0  0
  156.2460  214.1920  153.2350 C   0  0  0  0  0  2  0  0  0  0  0  0
  161.1130  211.3120  151.8670 C   0  0  1  0  0  3  0  0  0  0  0  0
  162.0520  211.0410  148.2900 C   0  0  0  0  0  3  0  0  0  0  0  0
  157.5040  213.4580  152.9650 N   0  0  0  0  0  0  0  0  0  0  0  0
  155.5870  213.7140  155.6830 C   0  0  0  0  0  2  0  0  0  0  0  0
  159.2120  212.9060  151.2460 C   0  0  0  0  0  0  0  0  0  0  0  0
  157.8280  212.7960  155.3200 C   0  0  1  0  0  3  0  0  0  0  0  0
  160.1980  212.4840  152.3220 C   0  0  1  0  0  3  0  0  0  0  0  0
  157.4620  213.7280  149.2140 C   0  0  0  0  0  3  0  0  0  0  0  0
  157.0420  213.7290  150.5460 C   0  0  0  0  0  3  0  0  0  0  0  0
  162.1200  210.5900  149.6740 C   0  0  0  0  0  3  0  0  0  0  0  0
  158.7680  213.3620  148.8950 C   0  0  0  0  0  3  0  0  0  0  0  0
  161.1000  212.6730  149.6170 C   0  0  2  0  0  3  0  0  0  0  0  0
  160.3940  209.9630  152.0170 C   0  0  0  0  0  2  0  0  0  0  0  0
  161.2850  208.9420  152.7050 C   0  0  0  0  0  2  0  0  0  0  0  0
  160.4660  207.7480  153.1550 C   0  0  0  0  0  2  0  0  0  0  0  0
  161.3500  206.5210  153.2020 C   0  0  0  0  0  2  0  0  0  0  0  0
  161.9770  206.2980  151.8400 C   0  0  0  0  0  2  0  0  0  0  0  0
  161.3120  205.1310  151.1290 C   0  0  0  0  0  2  0  0  0  0  0  0
  161.4880  207.0550  148.0700 C   0  0  0  0  0  2  0  0  0  0  0  0
  161.4230  204.7920  148.7520 O   0  0  0  0  0  0  0  0  0  0  0  0
  160.7980  205.5430  149.7580 C   0  0  2  0  0  3  0  0  0  0  0  0
  161.4050  205.6150  147.6170 C   0  0  0  0  0  2  0  0  0  0  0  0
  161.1040  207.0010  149.5180 C   0  0  0  0  0  2  0  0  0  0  0  0
  1 16  1  0  0  0  0
  2 13  2  0  0  0  0
  3 15  1  1  0  0  0
  3  7  1  0  0  0  0
  4 14  1  0  0  0  0
  5 10  1  6  0  0  0
  5 17  1  0  0  0  0
  6  7  1  0  0  0  0
  8 15  1  0  0  0  0
  9 12  1  0  0  0  0
 11  8  1  0  0  0  0
 12 24  1  6  0  0  0
 12 18  1  0  0  0  0
 13 21  1  0  0  0  0
 14 11  1  0  0  0  0
 14  5  1  0  0  0  0
 16  4  2  0  0  0  0
 16 18  1  0  0  0  0
 17  3  1  0  0  0  0
 17  6  1  1  0  0  0
 18 10  1  1  0  0  0
 19 20  2  0  0  0  0
 20  4  1  0  0  0  0
 21  9  2  0  0  0  0
 22 19  1  0  0  0  0
 22  1  2  0  0  0  0
 23  2  1  6  0  0  0
 23  1  1  0  0  0  0
 23  9  1  0  0  0  0
 24 25  1  0  0  0  0
 25 26  1  0  0  0  0
 26 27  1  0  0  0  0
 28 27  1  0  0  0  0
 29 28  1  0  0  0  0
 30 34  1  0  0  0  0
 31 32  1  0  0  0  0
 32 29  1  1  0  0  0
 33 30  1  0  0  0  0
 33 31  1  0  0  0  0
 34 32  1  0  0  0  0
M  END
>  <MODEL>
6

>  <REMARK>
 VINA RESULT:      -5.7      2.710      7.774
  Name = 
  7 active torsions:
  status: ('A' for Active; 'I' for Inactive)
    1  A    between atoms: C_10  and  C_17
    2  A    between atoms: C_10  and  C_22
    3  A    between atoms: C_13  and  C_24
    4  A    between atoms: C_17  and  C_28
    5  A    between atoms: C_22  and  C_24
    6  A    between atoms: C_28  and  C_29
    7  A    between atoms: C_29  and  C_32
                            x       y       z     vdW  Elec       q    Type
                         _______ _______ _______ _____ _____    ______ ____

>  <TORSDO>
F 7

$$$$
=
 OpenBabel11122414323D

 34 40  0  0  1  0  0  0  0  0999 V2000
  158.9270  213.7740  148.8040 C   0  0  0  0  0  0  0  0  0  0  0  0
  160.4440  213.5620  146.7690 C   0  0  0  0  0  3  0  0  0  0  0  0
  157.4920  213.9750  155.2390 C   0  0  2  0  0  3  0  0  0  0  0  0
  157.5410  213.6690  150.8170 C   0  0  0  0  0  0  0  0  0  0  0  0
  158.6470  213.7050  153.0960 C   0  0  1  0  0  3  0  0  0  0  0  0
  159.4440  213.1810  155.5380 C   0  0  0  0  0  2  0  0  0  0  0  0
  158.4130  213.8610  156.4330 C   0  0  0  0  0  2  0  0  0  0  0  0
  155.6030  213.0180  153.8960 C   0  0  0  0  0  2  0  0  0  0  0  0
  161.2000  212.8930  148.8460 C   0  0  0  0  0  0  0  0  0  0  0  0
  159.7870  212.9390  152.4390 C   0  0  0  0  0  2  0  0  0  0  0  0
  156.0970  214.0100  152.8250 C   0  0  0  0  0  2  0  0  0  0  0  0
  161.1470  212.5680  150.3210 C   0  0  1  0  0  3  0  0  0  0  0  0
  161.3510  212.6060  146.6190 C   0  0  0  0  0  3  0  0  0  0  0  0
  157.4170  213.6460  152.2600 N   0  0  0  0  0  0  0  0  0  0  0  0
  156.1160  213.3410  155.3160 C   0  0  0  0  0  2  0  0  0  0  0  0
  158.8090  213.5980  150.2020 C   0  0  0  0  0  0  0  0  0  0  0  0
  158.3910  213.0660  154.4520 C   0  0  1  0  0  3  0  0  0  0  0  0
  160.0750  213.4440  151.0280 C   0  0  1  0  0  3  0  0  0  0  0  0
  156.5190  213.9430  148.6210 C   0  0  0  0  0  3  0  0  0  0  0  0
  156.4030  213.8130  150.0060 C   0  0  0  0  0  3  0  0  0  0  0  0
  161.8240  212.1720  147.9270 C   0  0  0  0  0  3  0  0  0  0  0  0
  157.7780  213.9470  148.0230 C   0  0  0  0  0  3  0  0  0  0  0  0
  160.3060  213.9030  148.2170 C   0  0  2  0  0  3  0  0  0  0  0  0
  160.8540  211.0730  150.5180 C   0  0  0  0  0  2  0  0  0  0  0  0
  162.1110  210.3170  150.9150 C   0  0  0  0  0  2  0  0  0  0  0  0
  161.8020  208.8440  151.1000 C   0  0  0  0  0  2  0  0  0  0  0  0
  161.7420  208.1680  149.7480 C   0  0  0  0  0  2  0  0  0  0  0  0
  160.8640  206.9360  149.8380 C   0  0  0  0  0  2  0  0  0  0  0  0
  160.8930  206.1630  148.5290 C   0  0  0  0  0  2  0  0  0  0  0  0
  160.6020  202.6670  149.4130 C   0  0  0  0  0  2  0  0  0  0  0  0
  161.2760  203.9910  147.5730 O   0  0  0  0  0  0  0  0  0  0  0  0
  161.4600  204.7660  148.7280 C   0  0  2  0  0  3  0  0  0  0  0  0
  161.2110  202.6670  148.0300 C   0  0  0  0  0  2  0  0  0  0  0  0
  160.7480  204.0870  149.8710 C   0  0  0  0  0  2  0  0  0  0  0  0
  1 16  1  0  0  0  0
  3 15  1  1  0  0  0
  3  7  1  0  0  0  0
  4 14  1  0  0  0  0
  5 10  1  6  0  0  0
  5 17  1  0  0  0  0
  6  7  1  0  0  0  0
  8 15  1  0  0  0  0
  9 12  1  0  0  0  0
 11  8  1  0  0  0  0
 12 24  1  6  0  0  0
 12 18  1  0  0  0  0
 13  2  2  0  0  0  0
 13 21  1  0  0  0  0
 14 11  1  0  0  0  0
 14  5  1  0  0  0  0
 16  4  2  0  0  0  0
 16 18  1  0  0  0  0
 17  3  1  0  0  0  0
 17  6  1  1  0  0  0
 18 10  1  1  0  0  0
 19 20  2  0  0  0  0
 20  4  1  0  0  0  0
 21  9  2  0  0  0  0
 22 19  1  0  0  0  0
 22  1  2  0  0  0  0
 23  2  1  6  0  0  0
 23  1  1  0  0  0  0
 23  9  1  0  0  0  0
 24 25  1  0  0  0  0
 25 26  1  0  0  0  0
 27 28  1  0  0  0  0
 27 26  1  0  0  0  0
 29 28  1  0  0  0  0
 30 34  1  0  0  0  0
 31 33  1  0  0  0  0
 31 32  1  0  0  0  0
 32 29  1  6  0  0  0
 32 34  1  0  0  0  0
 33 30  1  0  0  0  0
M  END
>  <MODEL>
7

>  <REMARK>
 VINA RESULT:      -5.6      3.033      8.273
  Name = 
  7 active torsions:
  status: ('A' for Active; 'I' for Inactive)
    1  A    between atoms: C_10  and  C_17
    2  A    between atoms: C_10  and  C_22
    3  A    between atoms: C_13  and  C_24
    4  A    between atoms: C_17  and  C_28
    5  A    between atoms: C_22  and  C_24
    6  A    between atoms: C_28  and  C_29
    7  A    between atoms: C_29  and  C_32
                            x       y       z     vdW  Elec       q    Type
                         _______ _______ _______ _____ _____    ______ ____

>  <TORSDO>
F 7

$$$$
=
 OpenBabel11122414323D

 34 40  0  0  1  0  0  0  0  0999 V2000
  160.0950  213.3290  149.7250 C   0  0  0  0  0  0  0  0  0  0  0  0
  161.4030  213.5820  147.5530 C   0  0  0  0  0  3  0  0  0  0  0  0
  159.0460  211.2890  155.9090 C   0  0  2  0  0  3  0  0  0  0  0  0
  158.8220  212.7720  151.7380 C   0  0  0  0  0  0  0  0  0  0  0  0
  159.9860  211.6230  153.6720 C   0  0  1  0  0  3  0  0  0  0  0  0
  160.7000  209.9880  155.5930 C   0  0  0  0  0  2  0  0  0  0  0  0
  159.9440  210.4840  156.8220 C   0  0  0  0  0  2  0  0  0  0  0  0
  156.9080  211.4450  154.6070 C   0  0  0  0  0  2  0  0  0  0  0  0
  162.0220  211.9750  149.0920 C   0  0  0  0  0  0  0  0  0  0  0  0
  160.8310  210.9280  152.6130 C   0  0  0  0  0  2  0  0  0  0  0  0
  157.6200  212.6280  153.9220 C   0  0  0  0  0  2  0  0  0  0  0  0
  161.9400  211.1120  150.3300 C   0  0  1  0  0  3  0  0  0  0  0  0
  161.9920  212.5740  146.9230 C   0  0  0  0  0  3  0  0  0  0  0  0
  158.7570  212.2070  153.0700 N   0  0  0  0  0  0  0  0  0  0  0  0
  157.5500  211.0370  155.9510 C   0  0  0  0  0  2  0  0  0  0  0  0
  159.9900  212.6440  150.9570 C   0  0  0  0  0  0  0  0  0  0  0  0
  159.6140  210.5790  154.7140 C   0  0  1  0  0  3  0  0  0  0  0  0
  161.1930  211.8660  151.4660 C   0  0  1  0  0  3  0  0  0  0  0  0
  157.8300  214.1440  149.9830 C   0  0  0  0  0  3  0  0  0  0  0  0
  157.7400  213.5050  151.2200 C   0  0  0  0  0  3  0  0  0  0  0  0
  162.3750  211.5520  147.8880 C   0  0  0  0  0  3  0  0  0  0  0  0
  159.0120  214.0770  149.2470 C   0  0  0  0  0  3  0  0  0  0  0  0
  161.4280  213.3390  149.0280 C   0  0  2  0  0  3  0  0  0  0  0  0
  161.2400  209.7850  149.9990 C   0  0  0  0  0  2  0  0  0  0  0  0
  162.1820  208.6070  150.1910 C   0  0  0  0  0  2  0  0  0  0  0  0
  162.1440  207.7000  148.9770 C   0  0  0  0  0  2  0  0  0  0  0  0
  160.8310  206.9490  148.9500 C   0  0  0  0  0  2  0  0  0  0  0  0
  160.8530  205.9340  147.8250 C   0  0  0  0  0  2  0  0  0  0  0  0
  161.6100  204.6840  148.2470 C   0  0  0  0  0  2  0  0  0  0  0  0
  160.9030  201.6900  150.1490 C   0  0  0  0  0  2  0  0  0  0  0  0
  161.4730  203.9520  150.5320 O   0  0  0  0  0  0  0  0  0  0  0  0
  160.8300  203.8940  149.2870 C   0  0  2  0  0  3  0  0  0  0  0  0
  161.1040  202.7690  151.1880 C   0  0  0  0  0  2  0  0  0  0  0  0
  160.7440  202.4480  148.8670 C   0  0  0  0  0  2  0  0  0  0  0  0
  1 16  1  0  0  0  0
  3 15  1  1  0  0  0
  3  7  1  0  0  0  0
  4 14  1  0  0  0  0
  5 10  1  6  0  0  0
  5 17  1  0  0  0  0
  6  7  1  0  0  0  0
  8 15  1  0  0  0  0
  9 12  1  0  0  0  0
 11  8  1  0  0  0  0
 12 24  1  6  0  0  0
 12 18  1  0  0  0  0
 13  2  2  0  0  0  0
 13 21  1  0  0  0  0
 14  5  1  0  0  0  0
 14 11  1  0  0  0  0
 16 18  1  0  0  0  0
 16  4  2  0  0  0  0
 17  6  1  1  0  0  0
 17  3  1  0  0  0  0
 18 10  1  1  0  0  0
 19 20  2  0  0  0  0
 20  4  1  0  0  0  0
 21  9  2  0  0  0  0
 22  1  2  0  0  0  0
 22 19  1  0  0  0  0
 23  2  1  6  0  0  0
 23  9  1  0  0  0  0
 23  1  1  0  0  0  0
 24 25  1  0  0  0  0
 26 25  1  0  0  0  0
 27 26  1  0  0  0  0
 28 29  1  0  0  0  0
 28 27  1  0  0  0  0
 30 33  1  0  0  0  0
 31 33  1  0  0  0  0
 32 29  1  6  0  0  0
 32 31  1  0  0  0  0
 34 32  1  0  0  0  0
 34 30  1  0  0  0  0
M  END
>  <MODEL>
8

>  <REMARK>
 VINA RESULT:      -5.5      2.596      7.826
  Name = 
  7 active torsions:
  status: ('A' for Active; 'I' for Inactive)
    1  A    between atoms: C_10  and  C_17
    2  A    between atoms: C_10  and  C_22
    3  A    between atoms: C_13  and  C_24
    4  A    between atoms: C_17  and  C_28
    5  A    between atoms: C_22  and  C_24
    6  A    between atoms: C_28  and  C_29
    7  A    between atoms: C_29  and  C_32
                            x       y       z     vdW  Elec       q    Type
                         _______ _______ _______ _____ _____    ______ ____

>  <TORSDO>
F 7

$$$$
=
 OpenBabel11122414323D

 34 40  0  0  1  0  0  0  0  0999 V2000
  160.7390  203.5690  150.1320 C   0  0  0  0  0  0  0  0  0  0  0  0
  160.2860  201.3110  149.0440 C   0  0  0  0  0  3  0  0  0  0  0  0
  161.4910  210.1190  150.2980 C   0  0  2  0  0  3  0  0  0  0  0  0
  161.4440  205.7440  151.0020 C   0  0  0  0  0  0  0  0  0  0  0  0
  161.2060  207.8050  149.5490 C   0  0  1  0  0  3  0  0  0  0  0  0
  161.6110  210.0020  148.1760 C   0  0  0  0  0  2  0  0  0  0  0  0
  161.3780  211.1290  149.1770 C   0  0  0  0  0  2  0  0  0  0  0  0
  162.9220  208.9770  152.0100 C   0  0  0  0  0  2  0  0  0  0  0  0
  160.8140  203.1370  147.7330 C   0  0  0  0  0  0  0  0  0  0  0  0
  161.5000  206.8830  148.3730 C   0  0  0  0  0  2  0  0  0  0  0  0
  161.7470  207.9810  152.0680 C   0  0  0  0  0  2  0  0  0  0  0  0
  161.2440  204.5470  147.3980 C   0  0  1  0  0  3  0  0  0  0  0  0
  160.8730  200.8960  147.9290 C   0  0  0  0  0  3  0  0  0  0  0  0
  161.6100  207.1730  150.8340 N   0  0  0  0  0  0  0  0  0  0  0  0
  162.5500  210.3290  151.3640 C   0  0  0  0  0  2  0  0  0  0  0  0
  161.0440  204.9330  149.9180 C   0  0  0  0  0  0  0  0  0  0  0  0
  161.9900  209.0890  149.3270 C   0  0  1  0  0  3  0  0  0  0  0  0
  160.8280  205.5220  148.5340 C   0  0  1  0  0  3  0  0  0  0  0  0
  161.3670  203.7900  152.4590 C   0  0  0  0  0  3  0  0  0  0  0  0
  161.6270  205.1470  152.2610 C   0  0  0  0  0  3  0  0  0  0  0  0
  161.2190  202.0450  147.1020 C   0  0  0  0  0  3  0  0  0  0  0  0
  160.9010  203.0080  151.4040 C   0  0  0  0  0  3  0  0  0  0  0  0
  160.1160  202.7940  149.0020 C   0  0  2  0  0  3  0  0  0  0  0  0
  162.7620  204.5910  147.1630 C   0  0  0  0  0  2  0  0  0  0  0  0
  163.0820  204.8180  145.6950 C   0  0  0  0  0  2  0  0  0  0  0  0
  162.1260  205.8350  145.1000 C   0  0  0  0  0  2  0  0  0  0  0  0
  161.5970  205.3160  143.7810 C   0  0  0  0  0  2  0  0  0  0  0  0
  161.6480  206.4220  142.7460 C   0  0  0  0  0  2  0  0  0  0  0  0
  161.9550  205.8540  141.3700 C   0  0  0  0  0  2  0  0  0  0  0  0
  161.7440  207.5110  138.1620 C   0  0  0  0  0  2  0  0  0  0  0  0
  161.3910  208.0000  140.4480 O   0  0  0  0  0  0  0  0  0  0  0  0
  162.3250  206.9560  140.3900 C   0  0  2  0  0  3  0  0  0  0  0  0
  161.4190  208.5850  139.1740 C   0  0  0  0  0  2  0  0  0  0  0  0
  162.3320  206.4050  138.9850 C   0  0  0  0  0  2  0  0  0  0  0  0
  1 22  1  0  0  0  0
  3  7  1  6  0  0  0
  3 15  1  0  0  0  0
  4 20  2  0  0  0  0
  5 10  1  6  0  0  0
  5 14  1  0  0  0  0
  6  7  1  0  0  0  0
  8 11  1  0  0  0  0
  9 23  1  0  0  0  0
 12 24  1  1  0  0  0
 12  9  1  0  0  0  0
 12 18  1  0  0  0  0
 13  2  2  0  0  0  0
 14  4  1  0  0  0  0
 14 11  1  0  0  0  0
 15  8  1  0  0  0  0
 16  1  2  0  0  0  0
 16  4  1  0  0  0  0
 17  6  1  6  0  0  0
 17  5  1  0  0  0  0
 17  3  1  0  0  0  0
 18 10  1  1  0  0  0
 18 16  1  0  0  0  0
 20 19  1  0  0  0  0
 21  9  2  0  0  0  0
 21 13  1  0  0  0  0
 22 19  2  0  0  0  0
 23  2  1  1  0  0  0
 23  1  1  0  0  0  0
 25 24  1  0  0  0  0
 26 25  1  0  0  0  0
 27 26  1  0  0  0  0
 28 27  1  0  0  0  0
 29 28  1  0  0  0  0
 30 34  1  0  0  0  0
 30 33  1  0  0  0  0
 32 31  1  0  0  0  0
 32 29  1  1  0  0  0
 33 31  1  0  0  0  0
 34 32  1  0  0  0  0
M  END
>  <MODEL>
9

>  <REMARK>
 VINA RESULT:      -5.3      4.279      8.189
  Name = 
  7 active torsions:
  status: ('A' for Active; 'I' for Inactive)
    1  A    between atoms: C_10  and  C_17
    2  A    between atoms: C_10  and  C_22
    3  A    between atoms: C_13  and  C_24
    4  A    between atoms: C_17  and  C_28
    5  A    between atoms: C_22  and  C_24
    6  A    between atoms: C_28  and  C_29
    7  A    between atoms: C_29  and  C_32
                            x       y       z     vdW  Elec       q    Type
                         _______ _______ _______ _____ _____    ______ ____

>  <TORSDO>
F 7

$$$$
