=
 OpenBabel11122412593D

 32 38  0  0  1  0  0  0  0  0999 V2000
  160.3130  208.4300  156.7070 C   0  0  1  0  0  3  0  0  0  0  0  0
  161.1480  206.0150  152.1430 C   0  0  0  0  0  0  0  0  0  0  0  0
  162.2170  209.6260  149.0830 C   0  0  0  0  0  3  0  0  0  0  0  0
  161.9450  208.7420  147.9330 C   0  0  0  0  0  3  0  0  0  0  0  0
  160.8490  203.7460  151.2990 C   0  0  0  0  0  0  0  0  0  0  0  0
  160.8400  202.9180  150.1840 C   0  0  0  0  0  0  0  0  0  0  0  0
  161.1950  206.4670  154.6210 C   0  0  1  0  0  3  0  0  0  0  0  0
  161.6260  208.3180  153.0470 C   0  0  0  0  0  2  0  0  0  0  0  0
  160.9620  202.3460  148.0970 N   0  0  0  0  0  0  0  0  0  0  0  0
  160.9280  208.9150  155.3920 C   0  0  2  0  0  3  0  0  0  0  0  0
  161.8800  209.2620  150.3230 C   0  0  0  0  0  3  0  0  0  0  0  0
  161.3960  207.4190  151.9080 N   0  0  0  0  0  0  0  0  0  0  0  0
  161.1120  207.9860  150.5890 C   0  0  2  0  0  3  0  0  0  0  0  0
  161.1820  205.6460  149.7440 C   0  0  0  0  0  0  0  0  0  0  0  0
  160.7670  201.2610  148.8360 N   0  0  0  0  0  0  0  0  0  0  0  0
  159.6890  207.0170  156.6330 C   0  0  0  0  0  2  0  0  0  0  0  0
  160.7900  207.8950  154.2440 C   0  0  2  0  0  3  0  0  0  0  0  0
  160.6890  201.5800  150.1280 N   0  0  0  0  0  0  0  0  0  0  0  0
  160.4870  205.9460  155.8730 C   0  0  0  0  0  2  0  0  0  0  0  0
  161.8250  208.4560  156.5380 C   0  0  1  0  0  3  0  0  0  0  0  0
  161.5310  207.4870  148.1200 C   0  0  0  0  0  3  0  0  0  0  0  0
  161.3120  206.9680  149.4910 C   0  0  1  0  0  3  0  0  0  0  0  0
  161.1830  204.7380  148.6580 C   0  0  0  0  0  3  0  0  0  0  0  0
  160.9750  205.5700  153.4970 N   0  0  0  0  0  0  0  0  0  0  0  0
  160.6830  203.1770  152.5580 O   0  0  0  0  0  1  0  0  0  0  0  0
  161.0890  202.3530  146.6490 C   0  0  0  0  0  1  0  0  0  0  0  0
  161.0450  205.1520  151.0960 C   0  0  0  0  0  0  0  0  0  0  0  0
  161.0110  203.3920  148.9300 C   0  0  0  0  0  0  0  0  0  0  0  0
  162.3880  209.6730  157.2470 C   0  0  0  0  0  2  0  0  0  0  0  0
  162.3420  210.8250  156.3630 N   0  0  0  0  0  0  0  0  0  0  0  0
  161.7780  211.9250  157.1270 C   0  0  0  0  0  1  0  0  0  0  0  0
  163.7180  211.1850  156.0760 C   0  0  0  0  0  1  0  0  0  0  0  0
  1 16  1  6  0  0  0
  2 24  2  0  0  0  0
  3 11  2  0  0  0  0
  4 21  2  0  0  0  0
  4  3  1  0  0  0  0
  5 25  1  0  0  0  0
  6  5  2  0  0  0  0
  7 19  1  1  0  0  0
  8 17  1  0  0  0  0
  9 15  1  0  0  0  0
  9 28  1  0  0  0  0
 10 20  1  0  0  0  0
 10  1  1  0  0  0  0
 11 13  1  0  0  0  0
 12  2  1  0  0  0  0
 12  8  1  0  0  0  0
 13 12  1  0  0  0  0
 14 27  2  0  0  0  0
 15 18  2  0  0  0  0
 17  7  1  0  0  0  0
 17 10  1  0  0  0  0
 18  6  1  0  0  0  0
 19 16  1  0  0  0  0
 20  1  1  0  0  0  0
 20 29  1  0  0  0  0
 21 22  1  0  0  0  0
 22 14  1  0  0  0  0
 22 13  1  0  0  0  0
 23 28  2  0  0  0  0
 23 14  1  0  0  0  0
 24  7  1  0  0  0  0
 26  9  1  0  0  0  0
 27  5  1  0  0  0  0
 27  2  1  0  0  0  0
 28  6  1  0  0  0  0
 30 31  1  0  0  0  0
 30 29  1  0  0  0  0
 32 30  1  0  0  0  0
M  END
>  <MODEL>
1

>  <REMARK>
 VINA RESULT:      -8.3      0.000      0.000
  Name = 
  2 active torsions:
  status: ('A' for Active; 'I' for Inactive)
    1  A    between atoms: C_20  and  C_29
    2  A    between atoms: C_29  and  N_30
                            x       y       z     vdW  Elec       q    Type
                         _______ _______ _______ _____ _____    ______ ____

>  <TORSDO>
F 2

$$$$
=
 OpenBabel11122412593D

 32 38  0  0  1  0  0  0  0  0999 V2000
  161.4990  201.7890  149.4840 C   0  0  1  0  0  3  0  0  0  0  0  0
  161.0400  206.4020  151.9080 C   0  0  0  0  0  0  0  0  0  0  0  0
  161.8780  209.6560  148.4080 C   0  0  0  0  0  3  0  0  0  0  0  0
  162.1230  210.6970  149.4240 C   0  0  0  0  0  3  0  0  0  0  0  0
  160.8110  207.1300  154.2250 C   0  0  0  0  0  0  0  0  0  0  0  0
  160.8230  208.2020  155.1070 C   0  0  0  0  0  0  0  0  0  0  0  0
  160.5630  204.0140  151.2600 C   0  0  1  0  0  3  0  0  0  0  0  0
  161.1010  205.6590  149.5010 C   0  0  0  0  0  2  0  0  0  0  0  0
  161.0170  210.2510  155.7870 N   0  0  0  0  0  0  0  0  0  0  0  0
  161.3860  203.2190  148.9480 C   0  0  2  0  0  3  0  0  0  0  0  0
  161.7890  208.3690  148.7520 C   0  0  0  0  0  3  0  0  0  0  0  0
  161.2990  206.7000  150.5180 N   0  0  0  0  0  0  0  0  0  0  0  0
  162.0420  207.9120  150.1720 C   0  0  2  0  0  3  0  0  0  0  0  0
  161.4510  208.7330  152.4470 C   0  0  0  0  0  0  0  0  0  0  0  0
  160.6900  209.4790  156.8160 N   0  0  0  0  0  0  0  0  0  0  0  0
  161.6550  201.6980  151.0200 C   0  0  0  0  0  2  0  0  0  0  0  0
  161.4650  204.2900  150.0540 C   0  0  2  0  0  3  0  0  0  0  0  0
  160.5610  208.2100  156.4290 N   0  0  0  0  0  0  0  0  0  0  0  0
  160.7640  202.6230  151.8630 C   0  0  0  0  0  2  0  0  0  0  0  0
  160.1510  202.3250  149.0230 C   0  0  1  0  0  3  0  0  0  0  0  0
  162.0740  210.4060  150.7250 C   0  0  0  0  0  3  0  0  0  0  0  0
  161.7980  209.0190  151.1720 C   0  0  1  0  0  3  0  0  0  0  0  0
  161.4220  209.7790  153.4000 C   0  0  0  0  0  3  0  0  0  0  0  0
  160.7490  205.0440  152.2720 N   0  0  0  0  0  0  0  0  0  0  0  0
  160.4970  205.8650  154.7110 O   0  0  0  0  0  1  0  0  0  0  0  0
  161.2370  211.6860  155.8620 C   0  0  0  0  0  1  0  0  0  0  0  0
  161.1120  207.3850  152.8460 C   0  0  0  0  0  0  0  0  0  0  0  0
  161.1020  209.4640  154.7090 C   0  0  0  0  0  0  0  0  0  0  0  0
  159.8430  201.7850  147.6390 C   0  0  0  0  0  2  0  0  0  0  0  0
  161.0750  201.6230  146.8870 N   0  0  0  0  0  0  0  0  0  0  0  0
  161.1650  200.2220  146.5140 C   0  0  0  0  0  1  0  0  0  0  0  0
  160.9100  202.3680  145.6520 C   0  0  0  0  0  1  0  0  0  0  0  0
  1 16  1  1  0  0  0
  2 24  2  0  0  0  0
  2 27  1  0  0  0  0
  3 11  2  0  0  0  0
  3  4  1  0  0  0  0
  4 21  2  0  0  0  0
  5 25  1  0  0  0  0
  5  6  1  0  0  0  0
  6 18  1  0  0  0  0
  7 19  1  1  0  0  0
  7 24  1  0  0  0  0
  8 17  1  0  0  0  0
  8 12  1  0  0  0  0
  9 26  1  0  0  0  0
  9 15  1  0  0  0  0
 10 20  1  0  0  0  0
 10  1  1  0  0  0  0
 10 17  1  0  0  0  0
 11 13  1  0  0  0  0
 12  2  1  0  0  0  0
 13 12  1  0  0  0  0
 13 22  1  0  0  0  0
 14 27  1  0  0  0  0
 14 23  2  0  0  0  0
 16 19  1  0  0  0  0
 17  7  1  0  0  0  0
 18 15  2  0  0  0  0
 20  1  1  0  0  0  0
 21 22  1  0  0  0  0
 22 14  1  0  0  0  0
 23 28  1  0  0  0  0
 27  5  2  0  0  0  0
 28  6  2  0  0  0  0
 28  9  1  0  0  0  0
 29 20  1  0  0  0  0
 30 29  1  0  0  0  0
 31 30  1  0  0  0  0
 32 30  1  0  0  0  0
M  END
>  <MODEL>
2

>  <REMARK>
 VINA RESULT:      -8.3      1.597      7.873
  Name = 
  2 active torsions:
  status: ('A' for Active; 'I' for Inactive)
    1  A    between atoms: C_20  and  C_29
    2  A    between atoms: C_29  and  N_30
                            x       y       z     vdW  Elec       q    Type
                         _______ _______ _______ _____ _____    ______ ____

>  <TORSDO>
F 2

$$$$
=
 OpenBabel11122412593D

 32 38  0  0  1  0  0  0  0  0999 V2000
  161.9340  210.1040  154.2810 C   0  0  1  0  0  3  0  0  0  0  0  0
  161.1360  206.7270  150.3650 C   0  0  0  0  0  0  0  0  0  0  0  0
  160.6010  202.4500  152.5950 C   0  0  0  0  0  3  0  0  0  0  0  0
  160.8530  201.7470  151.3230 C   0  0  0  0  0  3  0  0  0  0  0  0
  161.2640  206.8290  147.9320 C   0  0  0  0  0  0  0  0  0  0  0  0
  161.2580  206.1130  146.7420 C   0  0  0  0  0  0  0  0  0  0  0  0
  160.9900  208.8380  151.7330 C   0  0  1  0  0  3  0  0  0  0  0  0
  160.8310  206.6510  152.8660 C   0  0  0  0  0  2  0  0  0  0  0  0
  161.2020  204.3930  145.4250 N   0  0  0  0  0  0  0  0  0  0  0  0
  161.4460  208.6520  154.2660 C   0  0  2  0  0  3  0  0  0  0  0  0
  160.8280  203.7610  152.7110 C   0  0  0  0  0  3  0  0  0  0  0  0
  161.0390  205.9600  151.5870 N   0  0  0  0  0  0  0  0  0  0  0  0
  161.4530  204.5560  151.5860 C   0  0  2  0  0  3  0  0  0  0  0  0
  161.2070  204.6500  149.1110 C   0  0  0  0  0  0  0  0  0  0  0  0
  161.2480  205.5000  144.6950 N   0  0  0  0  0  0  0  0  0  0  0  0
  162.4220  210.6230  152.9080 C   0  0  0  0  0  2  0  0  0  0  0  0
  161.5520  207.9900  152.8780 C   0  0  2  0  0  3  0  0  0  0  0  0
  161.2810  206.5780  145.4770 N   0  0  0  0  0  0  0  0  0  0  0  0
  161.5690  210.2520  151.6840 C   0  0  0  0  0  2  0  0  0  0  0  0
  160.4440  209.8010  154.3410 C   0  0  1  0  0  3  0  0  0  0  0  0
  161.1320  202.4280  150.2100 C   0  0  0  0  0  3  0  0  0  0  0  0
  161.2200  203.9090  150.2410 C   0  0  1  0  0  3  0  0  0  0  0  0
  161.1810  203.9900  147.8590 C   0  0  0  0  0  3  0  0  0  0  0  0
  161.1870  208.1580  150.4620 N   0  0  0  0  0  0  0  0  0  0  0  0
  161.3000  208.2190  147.8780 O   0  0  0  0  0  1  0  0  0  0  0  0
  161.1600  203.0440  144.8860 C   0  0  0  0  0  1  0  0  0  0  0  0
  161.2160  206.0950  149.1630 C   0  0  0  0  0  0  0  0  0  0  0  0
  161.2060  204.7630  146.7110 C   0  0  0  0  0  0  0  0  0  0  0  0
  159.9610  209.9460  155.7720 C   0  0  0  0  0  2  0  0  0  0  0  0
  158.6420  210.5550  155.7890 N   0  0  0  0  0  0  0  0  0  0  0  0
  158.6240  211.5020  156.8900 C   0  0  0  0  0  1  0  0  0  0  0  0
  158.5290  211.3360  154.5710 C   0  0  0  0  0  1  0  0  0  0  0  0
  1 16  1  6  0  0  0
  1 20  1  0  0  0  0
  2 24  2  0  0  0  0
  2 12  1  0  0  0  0
  3 11  2  0  0  0  0
  4  3  1  0  0  0  0
  5 27  1  0  0  0  0
  6  5  2  0  0  0  0
  7 19  1  6  0  0  0
  7 17  1  0  0  0  0
  8 17  1  0  0  0  0
  9 28  1  0  0  0  0
 10  1  1  0  0  0  0
 10 20  1  0  0  0  0
 12  8  1  0  0  0  0
 13 12  1  0  0  0  0
 13 11  1  0  0  0  0
 14 27  2  0  0  0  0
 14 22  1  0  0  0  0
 15  9  1  0  0  0  0
 15 18  2  0  0  0  0
 17 10  1  0  0  0  0
 18  6  1  0  0  0  0
 19 16  1  0  0  0  0
 20 29  1  0  0  0  0
 21 22  1  0  0  0  0
 21  4  2  0  0  0  0
 22 13  1  0  0  0  0
 23 14  1  0  0  0  0
 24  7  1  0  0  0  0
 25  5  1  0  0  0  0
 26  9  1  0  0  0  0
 27  2  1  0  0  0  0
 28  6  1  0  0  0  0
 28 23  2  0  0  0  0
 29 30  1  0  0  0  0
 30 31  1  0  0  0  0
 32 30  1  0  0  0  0
M  END
>  <MODEL>
3

>  <REMARK>
 VINA RESULT:      -7.4      2.547      4.391
  Name = 
  2 active torsions:
  status: ('A' for Active; 'I' for Inactive)
    1  A    between atoms: C_20  and  C_29
    2  A    between atoms: C_29  and  N_30
                            x       y       z     vdW  Elec       q    Type
                         _______ _______ _______ _____ _____    ______ ____

>  <TORSDO>
F 2

$$$$
=
 OpenBabel11122412593D

 32 38  0  0  1  0  0  0  0  0999 V2000
  162.4670  212.8030  149.0220 C   0  0  1  0  0  3  0  0  0  0  0  0
  161.3900  207.6930  149.3420 C   0  0  0  0  0  0  0  0  0  0  0  0
  160.8310  206.9070  154.0980 C   0  0  0  0  0  3  0  0  0  0  0  0
  161.0030  205.4580  153.8860 C   0  0  0  0  0  3  0  0  0  0  0  0
  161.4090  205.8140  147.7860 C   0  0  0  0  0  0  0  0  0  0  0  0
  161.3270  204.4360  147.6360 C   0  0  0  0  0  0  0  0  0  0  0  0
  161.3690  210.0650  148.4900 C   0  0  1  0  0  3  0  0  0  0  0  0
  161.1980  209.6510  150.9170 C   0  0  0  0  0  2  0  0  0  0  0  0
  161.1600  202.3530  148.2080 N   0  0  0  0  0  0  0  0  0  0  0  0
  161.9350  211.9400  150.1700 C   0  0  2  0  0  3  0  0  0  0  0  0
  161.1020  207.7800  153.1230 C   0  0  0  0  0  3  0  0  0  0  0  0
  161.3260  208.2050  150.6920 N   0  0  0  0  0  0  0  0  0  0  0  0
  161.6970  207.3330  151.8070 C   0  0  2  0  0  3  0  0  0  0  0  0
  161.3410  205.4370  150.2350 C   0  0  0  0  0  0  0  0  0  0  0  0
  161.2050  202.4390  146.8840 N   0  0  0  0  0  0  0  0  0  0  0  0
  162.9060  211.9990  147.7750 C   0  0  0  0  0  2  0  0  0  0  0  0
  161.9580  210.4300  149.8560 C   0  0  2  0  0  3  0  0  0  0  0  0
  161.3060  203.7120  146.5000 N   0  0  0  0  0  0  0  0  0  0  0  0
  161.9880  210.8490  147.3330 C   0  0  0  0  0  2  0  0  0  0  0  0
  160.9730  212.7490  149.3060 C   0  0  1  0  0  3  0  0  0  0  0  0
  161.2510  204.9700  152.6690 C   0  0  0  0  0  3  0  0  0  0  0  0
  161.3840  205.8850  151.5090 C   0  0  1  0  0  3  0  0  0  0  0  0
  161.2390  204.0440  150.0020 C   0  0  0  0  0  3  0  0  0  0  0  0
  161.4870  208.6330  148.2610 N   0  0  0  0  0  0  0  0  0  0  0  0
  161.4840  206.6100  146.6480 O   0  0  0  0  0  1  0  0  0  0  0  0
  161.0540  201.1110  148.9560 C   0  0  0  0  0  1  0  0  0  0  0  0
  161.3960  206.3520  149.1160 C   0  0  0  0  0  0  0  0  0  0  0  0
  161.2340  203.5970  148.6920 C   0  0  0  0  0  0  0  0  0  0  0  0
  160.5600  214.0000  150.0580 C   0  0  0  0  0  2  0  0  0  0  0  0
  159.1420  214.2480  149.8640 N   0  0  0  0  0  0  0  0  0  0  0  0
  158.7900  213.7090  148.5620 C   0  0  0  0  0  1  0  0  0  0  0  0
  158.4400  213.4440  150.8470 C   0  0  0  0  0  1  0  0  0  0  0  0
  1 16  1  6  0  0  0
  1 20  1  0  0  0  0
  1 10  1  0  0  0  0
  2 12  1  0  0  0  0
  4  3  1  0  0  0  0
  5 27  1  0  0  0  0
  6  5  2  0  0  0  0
  6 28  1  0  0  0  0
  7 19  1  6  0  0  0
  7 17  1  0  0  0  0
  9 28  1  0  0  0  0
  9 26  1  0  0  0  0
 11  3  2  0  0  0  0
 12  8  1  0  0  0  0
 12 13  1  0  0  0  0
 13 11  1  0  0  0  0
 14 22  1  0  0  0  0
 15  9  1  0  0  0  0
 17 10  1  0  0  0  0
 17  8  1  0  0  0  0
 18 15  2  0  0  0  0
 18  6  1  0  0  0  0
 19 16  1  0  0  0  0
 20 29  1  0  0  0  0
 20 10  1  0  0  0  0
 21  4  2  0  0  0  0
 22 13  1  0  0  0  0
 22 21  1  0  0  0  0
 23 14  1  0  0  0  0
 24  7  1  0  0  0  0
 24  2  2  0  0  0  0
 25  5  1  0  0  0  0
 27  2  1  0  0  0  0
 27 14  2  0  0  0  0
 28 23  2  0  0  0  0
 30 29  1  0  0  0  0
 30 32  1  0  0  0  0
 31 30  1  0  0  0  0
M  END
>  <MODEL>
4

>  <REMARK>
 VINA RESULT:      -6.6      2.900      5.758
  Name = 
  2 active torsions:
  status: ('A' for Active; 'I' for Inactive)
    1  A    between atoms: C_20  and  C_29
    2  A    between atoms: C_29  and  N_30
                            x       y       z     vdW  Elec       q    Type
                         _______ _______ _______ _____ _____    ______ ____

>  <TORSDO>
F 2

$$$$
=
 OpenBabel11122412593D

 32 38  0  0  1  0  0  0  0  0999 V2000
  161.2420  201.1690  148.3790 C   0  0  1  0  0  3  0  0  0  0  0  0
  161.0550  205.6370  151.0950 C   0  0  0  0  0  0  0  0  0  0  0  0
  161.5280  209.0860  147.7150 C   0  0  0  0  0  3  0  0  0  0  0  0
  161.8810  210.0690  148.7570 C   0  0  0  0  0  3  0  0  0  0  0  0
  161.0750  206.2320  153.4610 C   0  0  0  0  0  0  0  0  0  0  0  0
  161.1830  207.2530  154.3960 C   0  0  0  0  0  0  0  0  0  0  0  0
  160.5050  203.2870  150.3670 C   0  0  1  0  0  3  0  0  0  0  0  0
  160.8590  205.0310  148.6570 C   0  0  0  0  0  2  0  0  0  0  0  0
  161.4530  209.2610  155.1660 N   0  0  0  0  0  0  0  0  0  0  0  0
  161.0770  202.6270  147.9390 C   0  0  2  0  0  3  0  0  0  0  0  0
  161.4720  207.7810  147.9940 C   0  0  0  0  0  3  0  0  0  0  0  0
  161.1670  206.0130  149.7040 N   0  0  0  0  0  0  0  0  0  0  0  0
  161.8720  207.2460  149.3510 C   0  0  2  0  0  3  0  0  0  0  0  0
  161.5280  207.9350  151.7180 C   0  0  0  0  0  0  0  0  0  0  0  0
  161.2350  208.4310  156.1780 N   0  0  0  0  0  0  0  0  0  0  0  0
  161.5600  200.9920  149.8820 C   0  0  0  0  0  2  0  0  0  0  0  0
  161.2750  203.6340  149.0900 C   0  0  2  0  0  3  0  0  0  0  0  0
  161.0630  207.1850  155.7360 N   0  0  0  0  0  0  0  0  0  0  0  0
  160.7660  201.8660  150.8660 C   0  0  0  0  0  2  0  0  0  0  0  0
  159.8550  201.7270  148.0940 C   0  0  1  0  0  3  0  0  0  0  0  0
  161.9690  209.7040  150.0380 C   0  0  0  0  0  3  0  0  0  0  0  0
  161.7380  208.2930  150.4320 C   0  0  1  0  0  3  0  0  0  0  0  0
  161.6020  208.9250  152.7260 C   0  0  0  0  0  3  0  0  0  0  0  0
  160.8000  204.2590  151.4100 N   0  0  0  0  0  0  0  0  0  0  0  0
  160.8110  204.9400  153.9050 O   0  0  0  0  0  1  0  0  0  0  0  0
  161.6840  210.6890  155.2980 C   0  0  0  0  0  1  0  0  0  0  0  0
  161.2290  206.5650  152.0740 C   0  0  0  0  0  0  0  0  0  0  0  0
  161.4220  208.5360  154.0420 C   0  0  0  0  0  0  0  0  0  0  0  0
  159.4010  201.2640  146.7230 C   0  0  0  0  0  2  0  0  0  0  0  0
  160.5320  201.2350  145.8110 N   0  0  0  0  0  0  0  0  0  0  0  0
  160.8280  199.8390  145.5460 C   0  0  0  0  0  1  0  0  0  0  0  0
  160.0710  201.8050  144.5590 C   0  0  0  0  0  1  0  0  0  0  0  0
  1 16  1  1  0  0  0
  2 24  2  0  0  0  0
  2 27  1  0  0  0  0
  3 11  2  0  0  0  0
  3  4  1  0  0  0  0
  4 21  2  0  0  0  0
  5 25  1  0  0  0  0
  5  6  1  0  0  0  0
  6 18  1  0  0  0  0
  7 19  1  1  0  0  0
  7 24  1  0  0  0  0
  8 17  1  0  0  0  0
  8 12  1  0  0  0  0
  9 26  1  0  0  0  0
  9 15  1  0  0  0  0
 10 20  1  0  0  0  0
 10  1  1  0  0  0  0
 10 17  1  0  0  0  0
 11 13  1  0  0  0  0
 12  2  1  0  0  0  0
 13 12  1  0  0  0  0
 13 22  1  0  0  0  0
 14 27  1  0  0  0  0
 14 23  2  0  0  0  0
 16 19  1  0  0  0  0
 17  7  1  0  0  0  0
 18 15  2  0  0  0  0
 20  1  1  0  0  0  0
 21 22  1  0  0  0  0
 22 14  1  0  0  0  0
 23 28  1  0  0  0  0
 27  5  2  0  0  0  0
 28  6  2  0  0  0  0
 28  9  1  0  0  0  0
 29 20  1  0  0  0  0
 30 29  1  0  0  0  0
 31 30  1  0  0  0  0
 32 30  1  0  0  0  0
M  END
>  <MODEL>
5

>  <REMARK>
 VINA RESULT:      -6.5      1.766      8.074
  Name = 
  2 active torsions:
  status: ('A' for Active; 'I' for Inactive)
    1  A    between atoms: C_20  and  C_29
    2  A    between atoms: C_29  and  N_30
                            x       y       z     vdW  Elec       q    Type
                         _______ _______ _______ _____ _____    ______ ____

>  <TORSDO>
F 2

$$$$
=
 OpenBabel11122412593D

 32 38  0  0  1  0  0  0  0  0999 V2000
  162.3320  211.0840  150.9960 C   0  0  1  0  0  3  0  0  0  0  0  0
  161.1920  206.3520  149.0810 C   0  0  0  0  0  0  0  0  0  0  0  0
  160.8420  203.5430  153.0220 C   0  0  0  0  0  3  0  0  0  0  0  0
  160.9820  202.3370  152.1850 C   0  0  0  0  0  3  0  0  0  0  0  0
  161.1080  205.3530  146.8570 C   0  0  0  0  0  0  0  0  0  0  0  0
  160.9980  204.1830  146.1180 C   0  0  0  0  0  0  0  0  0  0  0  0
  161.1690  208.8560  149.3650 C   0  0  1  0  0  3  0  0  0  0  0  0
  161.1040  207.4120  151.3660 C   0  0  0  0  0  2  0  0  0  0  0  0
  160.8250  202.0590  145.7190 N   0  0  0  0  0  0  0  0  0  0  0  0
  161.8420  209.8000  151.6700 C   0  0  2  0  0  3  0  0  0  0  0  0
  161.0820  204.7580  152.5220 C   0  0  0  0  0  3  0  0  0  0  0  0
  161.1990  206.2150  150.5190 N   0  0  0  0  0  0  0  0  0  0  0  0
  161.6080  204.9420  151.1160 C   0  0  2  0  0  3  0  0  0  0  0  0
  161.1490  203.9330  148.8870 C   0  0  0  0  0  0  0  0  0  0  0  0
  160.8100  202.7220  144.5690 N   0  0  0  0  0  0  0  0  0  0  0  0
  162.7000  210.9170  149.5030 C   0  0  0  0  0  2  0  0  0  0  0  0
  161.8260  208.5850  150.7210 C   0  0  2  0  0  3  0  0  0  0  0  0
  160.9130  204.0340  144.7810 N   0  0  0  0  0  0  0  0  0  0  0  0
  161.7450  210.0740  148.6440 C   0  0  0  0  0  2  0  0  0  0  0  0
  160.8520  210.9010  151.3000 C   0  0  1  0  0  3  0  0  0  0  0  0
  161.1650  202.4390  150.8670 C   0  0  0  0  0  3  0  0  0  0  0  0
  161.2590  203.7730  150.2250 C   0  0  1  0  0  3  0  0  0  0  0  0
  161.0140  202.7850  148.0690 C   0  0  0  0  0  3  0  0  0  0  0  0
  161.2530  207.6730  148.5220 N   0  0  0  0  0  0  0  0  0  0  0  0
  161.1430  206.5700  146.1840 O   0  0  0  0  0  1  0  0  0  0  0  0
  160.7340  200.6140  145.8460 C   0  0  0  0  0  1  0  0  0  0  0  0
  161.1660  205.2480  148.2860 C   0  0  0  0  0  0  0  0  0  0  0  0
  160.9410  202.9630  146.6990 C   0  0  0  0  0  0  0  0  0  0  0  0
  160.4950  211.6880  152.5460 C   0  0  0  0  0  2  0  0  0  0  0  0
  159.0890  212.0520  152.5150 N   0  0  0  0  0  0  0  0  0  0  0  0
  158.7450  212.5370  153.8400 C   0  0  0  0  0  1  0  0  0  0  0  0
  158.9720  213.1860  151.6170 C   0  0  0  0  0  1  0  0  0  0  0  0
  1 16  1  6  0  0  0
  1 20  1  0  0  0  0
  1 10  1  0  0  0  0
  2 12  1  0  0  0  0
  4  3  1  0  0  0  0
  5 27  1  0  0  0  0
  6 28  1  0  0  0  0
  6  5  2  0  0  0  0
  7 19  1  6  0  0  0
  7 17  1  0  0  0  0
  9 26  1  0  0  0  0
  9 28  1  0  0  0  0
 11  3  2  0  0  0  0
 12 13  1  0  0  0  0
 12  8  1  0  0  0  0
 13 11  1  0  0  0  0
 14 22  1  0  0  0  0
 15 18  2  0  0  0  0
 15  9  1  0  0  0  0
 17  8  1  0  0  0  0
 17 10  1  0  0  0  0
 18  6  1  0  0  0  0
 19 16  1  0  0  0  0
 20 10  1  0  0  0  0
 20 29  1  0  0  0  0
 21  4  2  0  0  0  0
 22 21  1  0  0  0  0
 22 13  1  0  0  0  0
 23 14  1  0  0  0  0
 24  2  2  0  0  0  0
 24  7  1  0  0  0  0
 25  5  1  0  0  0  0
 27 14  2  0  0  0  0
 27  2  1  0  0  0  0
 28 23  2  0  0  0  0
 30 29  1  0  0  0  0
 30 31  1  0  0  0  0
 32 30  1  0  0  0  0
M  END
>  <MODEL>
6

>  <REMARK>
 VINA RESULT:      -6.0      3.259      5.089
  Name = 
  2 active torsions:
  status: ('A' for Active; 'I' for Inactive)
    1  A    between atoms: C_20  and  C_29
    2  A    between atoms: C_29  and  N_30
                            x       y       z     vdW  Elec       q    Type
                         _______ _______ _______ _____ _____    ______ ____

>  <TORSDO>
F 2

$$$$
=
 OpenBabel11122412593D

 32 38  0  0  1  0  0  0  0  0999 V2000
  162.1020  203.5640  146.2570 C   0  0  1  0  0  3  0  0  0  0  0  0
  161.2240  206.7760  150.2920 C   0  0  0  0  0  0  0  0  0  0  0  0
  161.8840  211.2080  148.4290 C   0  0  0  0  0  3  0  0  0  0  0  0
  162.0220  211.7670  149.7870 C   0  0  0  0  0  3  0  0  0  0  0  0
  160.8850  206.4970  152.6910 C   0  0  0  0  0  0  0  0  0  0  0  0
  160.7910  207.1230  153.9270 C   0  0  0  0  0  0  0  0  0  0  0  0
  160.9520  204.8250  148.7210 C   0  0  1  0  0  3  0  0  0  0  0  0
  161.3990  207.0680  147.7950 C   0  0  0  0  0  2  0  0  0  0  0  0
  160.8070  208.7350  155.3760 N   0  0  0  0  0  0  0  0  0  0  0  0
  161.8890  205.0790  146.3300 C   0  0  2  0  0  3  0  0  0  0  0  0
  161.8880  209.8880  148.2260 C   0  0  0  0  0  3  0  0  0  0  0  0
  161.4910  207.6230  149.1510 N   0  0  0  0  0  0  0  0  0  0  0  0
  162.1440  208.9170  149.3570 C   0  0  2  0  0  3  0  0  0  0  0  0
  161.4370  208.7160  151.7360 C   0  0  0  0  0  0  0  0  0  0  0  0
  160.5180  207.5950  155.9930 N   0  0  0  0  0  0  0  0  0  0  0  0
  162.2290  202.8740  147.6350 C   0  0  0  0  0  2  0  0  0  0  0  0
  161.8570  205.6180  147.7740 C   0  0  2  0  0  3  0  0  0  0  0  0
  160.4990  206.5830  155.1260 N   0  0  0  0  0  0  0  0  0  0  0  0
  161.2480  203.3250  148.7290 C   0  0  0  0  0  2  0  0  0  0  0  0
  160.7270  204.1540  145.9770 C   0  0  1  0  0  3  0  0  0  0  0  0
  161.9660  210.9750  150.8600 C   0  0  0  0  0  3  0  0  0  0  0  0
  161.7900  209.5110  150.7010 C   0  0  1  0  0  3  0  0  0  0  0  0
  161.3030  209.2870  153.0240 C   0  0  0  0  0  3  0  0  0  0  0  0
  161.0330  205.3710  150.0670 N   0  0  0  0  0  0  0  0  0  0  0  0
  160.6600  205.1260  152.6150 O   0  0  0  0  0  1  0  0  0  0  0  0
  160.9110  210.0290  156.0290 C   0  0  0  0  0  1  0  0  0  0  0  0
  161.1960  207.3020  151.5460 C   0  0  0  0  0  0  0  0  0  0  0  0
  160.9780  208.4530  154.0800 C   0  0  0  0  0  0  0  0  0  0  0  0
  160.4950  204.1970  144.4790 C   0  0  0  0  0  2  0  0  0  0  0  0
  159.5800  203.1370  144.0900 N   0  0  0  0  0  0  0  0  0  0  0  0
  159.8430  202.0060  144.9630 C   0  0  0  0  0  1  0  0  0  0  0  0
  158.2440  203.6030  144.4110 C   0  0  0  0  0  1  0  0  0  0  0  0
  1 10  1  0  0  0  0
  1 16  1  1  0  0  0
  2 27  1  0  0  0  0
  3  4  1  0  0  0  0
  4 21  2  0  0  0  0
  5  6  1  0  0  0  0
  6 28  2  0  0  0  0
  6 18  1  0  0  0  0
  7 19  1  1  0  0  0
  7 24  1  0  0  0  0
  8 12  1  0  0  0  0
  9 15  1  0  0  0  0
  9 26  1  0  0  0  0
 10 17  1  0  0  0  0
 11  3  2  0  0  0  0
 11 13  1  0  0  0  0
 12 13  1  0  0  0  0
 12  2  1  0  0  0  0
 13 22  1  0  0  0  0
 14 23  2  0  0  0  0
 16 19  1  0  0  0  0
 17  8  1  0  0  0  0
 17  7  1  0  0  0  0
 18 15  2  0  0  0  0
 20  1  1  0  0  0  0
 20 10  1  0  0  0  0
 22 21  1  0  0  0  0
 22 14  1  0  0  0  0
 23 28  1  0  0  0  0
 24  2  2  0  0  0  0
 25  5  1  0  0  0  0
 27 14  1  0  0  0  0
 27  5  2  0  0  0  0
 28  9  1  0  0  0  0
 29 20  1  0  0  0  0
 30 32  1  0  0  0  0
 30 29  1  0  0  0  0
 30 31  1  0  0  0  0
M  END
>  <MODEL>
7

>  <REMARK>
 VINA RESULT:      -6.0      2.052      8.184
  Name = 
  2 active torsions:
  status: ('A' for Active; 'I' for Inactive)
    1  A    between atoms: C_20  and  C_29
    2  A    between atoms: C_29  and  N_30
                            x       y       z     vdW  Elec       q    Type
                         _______ _______ _______ _____ _____    ______ ____

>  <TORSDO>
F 2

$$$$
