=
 OpenBabel11122412573D

 32 37  0  0  1  0  0  0  0  0999 V2000
  162.0100  208.4450  150.9240 C   0  0  1  0  0  3  0  0  0  0  0  0
  159.9280  207.2550  155.1710 C   0  0  0  0  0  3  0  0  0  0  0  0
  159.4340  208.5530  155.3070 C   0  0  0  0  0  3  0  0  0  0  0  0
  161.6940  210.7830  150.0660 C   0  0  0  0  0  0  0  0  0  0  0  0
  161.0960  212.1050  150.2450 C   0  0  0  0  0  0  0  0  0  0  0  0
  161.2390  206.3490  149.8680 N   0  0  0  0  0  0  0  0  0  0  0  0
  162.5870  206.2180  151.9450 C   0  0  0  0  0  2  0  0  0  0  0  0
  159.8360  213.6900  151.2260 C   0  0  0  0  0  0  0  0  0  0  0  0
  160.8570  206.9610  154.1710 C   0  0  0  0  0  3  0  0  0  0  0  0
  162.3310  207.6990  152.2280 C   0  0  2  0  0  3  0  0  0  0  0  0
  161.2850  207.9620  153.2840 C   0  0  0  0  0  0  0  0  0  0  0  0
  161.3290  210.3550  152.5240 C   0  0  2  0  0  3  0  0  0  0  0  0
  160.0570  214.1620  150.0050 C   0  0  0  0  0  3  0  0  0  0  0  0
  161.4600  205.5870  151.1180 C   0  0  2  0  0  3  0  0  0  0  0  0
  160.9010  213.1840  149.2320 C   0  0  0  0  0  3  0  0  0  0  0  0
  159.8690  209.5600  154.4410 C   0  0  0  0  0  3  0  0  0  0  0  0
  160.7860  209.2700  153.4200 C   0  0  0  0  0  0  0  0  0  0  0  0
  160.4320  211.5180  152.4750 N   0  0  0  0  0  2  0  0  0  0  0  0
  160.8790  207.7340  150.1820 C   0  0  0  0  0  2  0  0  0  0  0  0
  162.2130  210.4610  148.9620 O   0  0  0  0  0  0  0  0  0  0  0  0
  159.0320  214.3780  152.2710 C   0  0  0  0  0  1  0  0  0  0  0  0
  161.6370  209.8480  151.1630 N   0  0  0  0  0  0  0  0  0  0  0  0
  160.4950  212.4130  151.3660 C   0  0  1  0  0  3  0  0  0  0  0  0
  162.7360  203.6660  151.8290 O   0  0  0  0  0  1  0  0  0  0  0  0
  161.8280  204.1130  150.8680 C   0  0  1  0  0  3  0  0  0  0  0  0
  160.6030  203.1960  150.8200 C   0  0  2  0  0  3  0  0  0  0  0  0
  161.0390  201.7270  150.7970 C   0  0  0  0  0  2  0  0  0  0  0  0
  160.5350  202.3820  149.5390 C   0  0  1  0  0  0  0  0  0  0  0  0
  159.2780  201.9450  149.1260 O   0  0  0  0  0  1  0  0  0  0  0  0
  161.5490  202.5620  148.5120 N   0  0  0  0  0  1  0  0  0  0  0  0
  160.1750  206.1800  147.7560 O   0  0  0  0  0  1  0  0  0  0  0  0
  160.1240  205.7870  149.1000 C   0  0  0  0  0  2  0  0  0  0  0  0
  1 19  1  1  0  0  0
  1 22  1  0  0  0  0
  1 10  1  0  0  0  0
  2  3  1  0  0  0  0
  4  5  1  0  0  0  0
  4 22  1  0  0  0  0
  6 19  1  0  0  0  0
  6 14  1  0  0  0  0
  8 23  1  0  0  0  0
  8 21  1  0  0  0  0
  9  2  2  0  0  0  0
 10  7  1  6  0  0  0
 10 11  1  0  0  0  0
 11 17  2  0  0  0  0
 11  9  1  0  0  0  0
 12 18  1  6  0  0  0
 12 17  1  0  0  0  0
 13  8  2  0  0  0  0
 14 25  1  6  0  0  0
 14  7  1  0  0  0  0
 15 13  1  0  0  0  0
 15  5  2  0  0  0  0
 16  3  2  0  0  0  0
 17 16  1  0  0  0  0
 20  4  2  0  0  0  0
 22 12  1  0  0  0  0
 23  5  1  6  0  0  0
 23 18  1  0  0  0  0
 25 24  1  1  0  0  0
 26 25  1  6  0  0  0
 27 26  1  0  0  0  0
 28 30  1  6  0  0  0
 28 27  1  0  0  0  0
 28 26  1  0  0  0  0
 29 28  1  0  0  0  0
 31 32  1  0  0  0  0
 32  6  1  0  0  0  0
M  END
>  <MODEL>
1

>  <REMARK>
 VINA RESULT:      -6.1      0.000      0.000
  Name = 
  3 active torsions:
  status: ('A' for Active; 'I' for Inactive)
    1  A    between atoms: N_7  and  C_19
    2  A    between atoms: C_10  and  C_17
    3  A    between atoms: C_10  and  C_20
                            x       y       z     vdW  Elec       q    Type
                         _______ _______ _______ _____ _____    ______ ____

>  <TORSDO>
F 3

$$$$
=
 OpenBabel11122412573D

 32 37  0  0  1  0  0  0  0  0999 V2000
  159.7540  213.6140  151.1820 C   0  0  1  0  0  3  0  0  0  0  0  0
  154.9290  214.1830  151.6100 C   0  0  0  0  0  3  0  0  0  0  0  0
  154.7920  214.1750  150.2210 C   0  0  0  0  0  3  0  0  0  0  0  0
  160.7200  213.4050  148.8750 C   0  0  0  0  0  0  0  0  0  0  0  0
  160.4950  213.3450  147.4310 C   0  0  0  0  0  0  0  0  0  0  0  0
  159.7920  211.9160  152.9770 N   0  0  0  0  0  0  0  0  0  0  0  0
  158.8200  214.1460  153.4580 C   0  0  0  0  0  2  0  0  0  0  0  0
  159.3040  213.2960  145.5230 C   0  0  0  0  0  0  0  0  0  0  0  0
  156.1980  214.2600  152.1870 C   0  0  0  0  0  3  0  0  0  0  0  0
  158.7280  214.4510  151.9610 C   0  0  2  0  0  3  0  0  0  0  0  0
  157.3440  214.3080  151.3780 C   0  0  0  0  0  0  0  0  0  0  0  0
  158.4390  214.4500  149.1220 C   0  0  2  0  0  3  0  0  0  0  0  0
  160.5070  212.8670  145.1640 C   0  0  0  0  0  3  0  0  0  0  0  0
  158.7530  212.6410  153.7440 C   0  0  2  0  0  3  0  0  0  0  0  0
  161.4170  212.8520  146.3650 C   0  0  0  0  0  3  0  0  0  0  0  0
  155.9260  214.2430  149.4070 C   0  0  0  0  0  3  0  0  0  0  0  0
  157.2060  214.2980  149.9780 C   0  0  0  0  0  0  0  0  0  0  0  0
  158.2050  213.9880  147.7470 N   0  0  0  0  0  2  0  0  0  0  0  0
  159.6010  212.1360  151.5410 C   0  0  0  0  0  2  0  0  0  0  0  0
  161.8420  213.0940  149.3600 O   0  0  0  0  0  0  0  0  0  0  0  0
  158.1410  213.4330  144.6050 C   0  0  0  0  0  1  0  0  0  0  0  0
  159.6200  213.7830  149.7260 N   0  0  0  0  0  0  0  0  0  0  0  0
  159.3110  213.5990  146.9350 C   0  0  1  0  0  3  0  0  0  0  0  0
  160.1250  212.8910  155.7130 O   0  0  0  0  0  1  0  0  0  0  0  0
  158.8800  212.4440  155.2650 C   0  0  1  0  0  3  0  0  0  0  0  0
  157.7530  213.1230  156.0470 C   0  0  2  0  0  3  0  0  0  0  0  0
  157.3240  212.2480  157.2300 C   0  0  0  0  0  2  0  0  0  0  0  0
  156.4560  212.3340  156.0030 C   0  0  1  0  0  0  0  0  0  0  0  0
  155.2700  213.0430  156.1850 O   0  0  0  0  0  1  0  0  0  0  0  0
  156.3850  211.1010  155.2350 N   0  0  0  0  0  1  0  0  0  0  0  0
  160.4450  209.7550  152.2550 O   0  0  0  0  0  1  0  0  0  0  0  0
  159.6970  210.4700  153.1990 C   0  0  0  0  0  2  0  0  0  0  0  0
  1 19  1  6  0  0  0
  1 10  1  0  0  0  0
  2  9  1  0  0  0  0
  3  2  2  0  0  0  0
  4 20  2  0  0  0  0
  4 22  1  0  0  0  0
  5  4  1  0  0  0  0
  6 32  1  0  0  0  0
  6 14  1  0  0  0  0
  7 14  1  0  0  0  0
 10  7  1  1  0  0  0
 11 10  1  0  0  0  0
 11  9  2  0  0  0  0
 12 18  1  6  0  0  0
 12 22  1  0  0  0  0
 12 17  1  0  0  0  0
 13  8  2  0  0  0  0
 13 15  1  0  0  0  0
 14 25  1  1  0  0  0
 15  5  2  0  0  0  0
 16 17  2  0  0  0  0
 16  3  1  0  0  0  0
 17 11  1  0  0  0  0
 19  6  1  0  0  0  0
 21  8  1  0  0  0  0
 22  1  1  0  0  0  0
 23  8  1  1  0  0  0
 23  5  1  0  0  0  0
 23 18  1  0  0  0  0
 25 24  1  1  0  0  0
 26 25  1  6  0  0  0
 26 27  1  0  0  0  0
 28 30  1  6  0  0  0
 28 26  1  0  0  0  0
 28 29  1  0  0  0  0
 28 27  1  0  0  0  0
 31 32  1  0  0  0  0
M  END
>  <MODEL>
2

>  <REMARK>
 VINA RESULT:      -5.7      5.028      8.005
  Name = 
  3 active torsions:
  status: ('A' for Active; 'I' for Inactive)
    1  A    between atoms: N_7  and  C_19
    2  A    between atoms: C_10  and  C_17
    3  A    between atoms: C_10  and  C_20
                            x       y       z     vdW  Elec       q    Type
                         _______ _______ _______ _____ _____    ______ ____

>  <TORSDO>
F 3

$$$$
=
 OpenBabel11122412573D

 32 37  0  0  1  0  0  0  0  0999 V2000
  162.0690  206.8620  148.9680 C   0  0  1  0  0  3  0  0  0  0  0  0
  160.7920  202.8570  151.4430 C   0  0  0  0  0  3  0  0  0  0  0  0
  160.4790  203.6330  152.5600 C   0  0  0  0  0  3  0  0  0  0  0  0
  161.8350  209.0840  150.1120 C   0  0  0  0  0  0  0  0  0  0  0  0
  161.4310  209.8370  151.2990 C   0  0  0  0  0  0  0  0  0  0  0  0
  160.8760  206.0890  146.9470 N   0  0  0  0  0  0  0  0  0  0  0  0
  162.6010  204.6210  147.9540 C   0  0  0  0  0  2  0  0  0  0  0  0
  160.5780  210.1560  153.3560 C   0  0  0  0  0  0  0  0  0  0  0  0
  161.4570  203.4310  150.3580 C   0  0  0  0  0  3  0  0  0  0  0  0
  162.5700  205.4370  149.2480 C   0  0  2  0  0  3  0  0  0  0  0  0
  161.7980  204.7930  150.3740 C   0  0  0  0  0  0  0  0  0  0  0  0
  161.9410  207.0110  151.5440 C   0  0  2  0  0  3  0  0  0  0  0  0
  160.5920  211.3700  152.8200 C   0  0  0  0  0  3  0  0  0  0  0  0
  161.2680  204.6840  147.2010 C   0  0  2  0  0  3  0  0  0  0  0  0
  161.1490  211.2980  151.4220 C   0  0  0  0  0  3  0  0  0  0  0  0
  160.8310  204.9840  152.5930 C   0  0  0  0  0  3  0  0  0  0  0  0
  161.4810  205.5750  151.4990 C   0  0  0  0  0  0  0  0  0  0  0  0
  161.1830  207.7930  152.5300 N   0  0  0  0  0  2  0  0  0  0  0  0
  160.7390  206.8090  148.2160 C   0  0  0  0  0  2  0  0  0  0  0  0
  162.0770  209.6810  149.0280 O   0  0  0  0  0  0  0  0  0  0  0  0
  160.0850  209.8350  154.7220 C   0  0  0  0  0  1  0  0  0  0  0  0
  161.9050  207.6460  150.2020 N   0  0  0  0  0  0  0  0  0  0  0  0
  161.1120  209.2120  152.4020 C   0  0  1  0  0  3  0  0  0  0  0  0
  162.3360  204.4570  145.0490 O   0  0  0  0  0  1  0  0  0  0  0  0
  161.4160  203.8580  145.9100 C   0  0  1  0  0  3  0  0  0  0  0  0
  161.8030  202.4010  146.1790 C   0  0  2  0  0  3  0  0  0  0  0  0
  160.7260  201.4560  145.6360 C   0  0  0  0  0  2  0  0  0  0  0  0
  160.8310  201.7040  147.1160 C   0  0  1  0  0  0  0  0  0  0  0  0
  161.3150  200.6220  147.8490 O   0  0  0  0  0  1  0  0  0  0  0  0
  159.7110  202.4430  147.6780 N   0  0  0  0  0  1  0  0  0  0  0  0
  159.7110  206.2030  144.8860 O   0  0  0  0  0  1  0  0  0  0  0  0
  159.5720  206.1590  146.2790 C   0  0  0  0  0  2  0  0  0  0  0  0
  1 19  1  1  0  0  0
  1 10  1  0  0  0  0
  1 22  1  0  0  0  0
  2  3  1  0  0  0  0
  3 16  2  0  0  0  0
  4 22  1  0  0  0  0
  4  5  1  0  0  0  0
  5 15  2  0  0  0  0
  6 14  1  0  0  0  0
  6 19  1  0  0  0  0
  8 21  1  0  0  0  0
  9 11  1  0  0  0  0
  9  2  2  0  0  0  0
 10  7  1  6  0  0  0
 10 11  1  0  0  0  0
 11 17  2  0  0  0  0
 12 17  1  6  0  0  0
 12 18  1  0  0  0  0
 13  8  2  0  0  0  0
 14 25  1  6  0  0  0
 14  7  1  0  0  0  0
 15 13  1  0  0  0  0
 17 16  1  0  0  0  0
 20  4  2  0  0  0  0
 22 12  1  0  0  0  0
 23  5  1  6  0  0  0
 23 18  1  0  0  0  0
 23  8  1  0  0  0  0
 25 24  1  6  0  0  0
 26 25  1  6  0  0  0
 26 28  1  0  0  0  0
 27 26  1  0  0  0  0
 27 28  1  0  0  0  0
 28 30  1  1  0  0  0
 28 29  1  0  0  0  0
 31 32  1  0  0  0  0
 32  6  1  0  0  0  0
M  END
>  <MODEL>
3

>  <REMARK>
 VINA RESULT:      -4.8      2.207      3.975
  Name = 
  3 active torsions:
  status: ('A' for Active; 'I' for Inactive)
    1  A    between atoms: N_7  and  C_19
    2  A    between atoms: C_10  and  C_17
    3  A    between atoms: C_10  and  C_20
                            x       y       z     vdW  Elec       q    Type
                         _______ _______ _______ _____ _____    ______ ____

>  <TORSDO>
F 3

$$$$
=
 OpenBabel11122412573D

 32 37  0  0  1  0  0  0  0  0999 V2000
  159.7710  213.2720  151.3920 C   0  0  1  0  0  3  0  0  0  0  0  0
  155.3520  213.5770  153.4330 C   0  0  0  0  0  3  0  0  0  0  0  0
  154.7810  213.8390  152.1860 C   0  0  0  0  0  3  0  0  0  0  0  0
  159.9480  213.5570  148.9050 C   0  0  0  0  0  0  0  0  0  0  0  0
  159.2740  213.7760  147.6260 C   0  0  0  0  0  0  0  0  0  0  0  0
  160.3260  211.2560  152.7080 N   0  0  0  0  0  0  0  0  0  0  0  0
  159.6250  213.3110  153.9050 C   0  0  0  0  0  2  0  0  0  0  0  0
  157.5380  214.0640  146.2240 C   0  0  0  0  0  0  0  0  0  0  0  0
  156.7400  213.5820  153.5810 C   0  0  0  0  0  3  0  0  0  0  0  0
  159.0720  213.9030  152.6070 C   0  0  2  0  0  3  0  0  0  0  0  0
  157.5700  213.8300  152.4760 C   0  0  0  0  0  0  0  0  0  0  0  0
  157.8960  214.4530  150.0660 C   0  0  2  0  0  3  0  0  0  0  0  0
  158.5510  213.7560  145.4240 C   0  0  0  0  0  3  0  0  0  0  0  0
  159.6070  211.7780  153.8930 C   0  0  2  0  0  3  0  0  0  0  0  0
  159.7940  213.5360  146.2470 C   0  0  0  0  0  3  0  0  0  0  0  0
  155.5990  214.1060  151.0860 C   0  0  0  0  0  3  0  0  0  0  0  0
  156.9950  214.0920  151.2200 C   0  0  0  0  0  0  0  0  0  0  0  0
  157.2240  214.2640  148.7720 N   0  0  0  0  0  2  0  0  0  0  0  0
  159.6960  211.7480  151.4810 C   0  0  0  0  0  2  0  0  0  0  0  0
  161.1560  213.1960  148.9370 O   0  0  0  0  0  0  0  0  0  0  0  0
  156.1490  214.3390  145.7690 C   0  0  0  0  0  1  0  0  0  0  0  0
  159.1870  213.7210  150.1190 N   0  0  0  0  0  0  0  0  0  0  0  0
  158.0030  214.0820  147.5910 C   0  0  1  0  0  3  0  0  0  0  0  0
  160.3390  212.3520  156.1190 O   0  0  0  0  0  1  0  0  0  0  0  0
  160.2040  211.2890  155.2240 C   0  0  1  0  0  3  0  0  0  0  0  0
  159.3940  210.1550  155.8570 C   0  0  2  0  0  3  0  0  0  0  0  0
  159.9290  209.8360  157.2580 C   0  0  0  0  0  2  0  0  0  0  0  0
  160.2300  208.9120  156.1090 C   0  0  1  0  0  0  0  0  0  0  0  0
  159.5610  207.6910  156.1610 O   0  0  0  0  0  1  0  0  0  0  0  0
  161.6300  208.8880  155.7130 N   0  0  0  0  0  1  0  0  0  0  0  0
  161.3330  209.2560  151.9300 O   0  0  0  0  0  1  0  0  0  0  0  0
  160.2630  209.7920  152.6580 C   0  0  0  0  0  2  0  0  0  0  0  0
  1 19  1  1  0  0  0
  1 10  1  0  0  0  0
  2  9  1  0  0  0  0
  3  2  2  0  0  0  0
  4 20  2  0  0  0  0
  4 22  1  0  0  0  0
  5  4  1  0  0  0  0
  6 14  1  0  0  0  0
 10  7  1  1  0  0  0
 11 10  1  0  0  0  0
 11  9  2  0  0  0  0
 12 18  1  6  0  0  0
 12 22  1  0  0  0  0
 12 17  1  0  0  0  0
 13  8  2  0  0  0  0
 13 15  1  0  0  0  0
 14  7  1  0  0  0  0
 14 25  1  1  0  0  0
 15  5  2  0  0  0  0
 16 17  2  0  0  0  0
 16  3  1  0  0  0  0
 17 11  1  0  0  0  0
 19  6  1  0  0  0  0
 21  8  1  0  0  0  0
 22  1  1  0  0  0  0
 23  8  1  6  0  0  0
 23  5  1  0  0  0  0
 23 18  1  0  0  0  0
 25 24  1  1  0  0  0
 26 25  1  6  0  0  0
 26 28  1  0  0  0  0
 26 27  1  0  0  0  0
 28 30  1  6  0  0  0
 28 29  1  0  0  0  0
 28 27  1  0  0  0  0
 31 32  1  0  0  0  0
 32  6  1  0  0  0  0
M  END
>  <MODEL>
4

>  <REMARK>
 VINA RESULT:      -4.7      4.401      6.851
  Name = 
  3 active torsions:
  status: ('A' for Active; 'I' for Inactive)
    1  A    between atoms: N_7  and  C_19
    2  A    between atoms: C_10  and  C_17
    3  A    between atoms: C_10  and  C_20
                            x       y       z     vdW  Elec       q    Type
                         _______ _______ _______ _____ _____    ______ ____

>  <TORSDO>
F 3

$$$$
=
 OpenBabel11122412573D

 32 37  0  0  1  0  0  0  0  0999 V2000
  162.2820  208.4750  148.8600 C   0  0  1  0  0  3  0  0  0  0  0  0
  161.3100  205.4970  152.5990 C   0  0  0  0  0  3  0  0  0  0  0  0
  160.8300  206.5730  153.3470 C   0  0  0  0  0  3  0  0  0  0  0  0
  161.7100  210.9070  149.1050 C   0  0  0  0  0  0  0  0  0  0  0  0
  161.1380  211.9750  149.9240 C   0  0  0  0  0  0  0  0  0  0  0  0
  161.3330  206.8740  147.2360 N   0  0  0  0  0  0  0  0  0  0  0  0
  163.1430  206.1120  148.7490 C   0  0  0  0  0  2  0  0  0  0  0  0
  160.1110  212.8950  151.7020 C   0  0  0  0  0  0  0  0  0  0  0  0
  161.9790  205.7260  151.3950 C   0  0  0  0  0  3  0  0  0  0  0  0
  162.9250  207.3270  149.6540 C   0  0  2  0  0  3  0  0  0  0  0  0
  162.1560  207.0350  150.9200 C   0  0  0  0  0  0  0  0  0  0  0  0
  161.9560  209.5220  151.1990 C   0  0  2  0  0  3  0  0  0  0  0  0
  160.0210  213.8250  150.7590 C   0  0  0  0  0  3  0  0  0  0  0  0
  161.8670  205.7200  147.9950 C   0  0  2  0  0  3  0  0  0  0  0  0
  160.6800  213.3300  149.4980 C   0  0  0  0  0  3  0  0  0  0  0  0
  161.0200  207.8800  152.8920 C   0  0  0  0  0  3  0  0  0  0  0  0
  161.6720  208.1190  151.6720 C   0  0  0  0  0  0  0  0  0  0  0  0
  161.0440  210.4980  151.8130 N   0  0  0  0  0  2  0  0  0  0  0  0
  161.0240  207.9770  148.1490 C   0  0  0  0  0  2  0  0  0  0  0  0
  161.9570  211.1000  147.8840 O   0  0  0  0  0  0  0  0  0  0  0  0
  159.5640  213.0250  153.0790 C   0  0  0  0  0  1  0  0  0  0  0  0
  161.9410  209.6210  149.7170 N   0  0  0  0  0  0  0  0  0  0  0  0
  160.8170  211.7520  151.1730 C   0  0  1  0  0  3  0  0  0  0  0  0
  163.4280  204.7030  146.4610 O   0  0  0  0  0  1  0  0  0  0  0  0
  162.2010  204.5130  147.1000 C   0  0  1  0  0  3  0  0  0  0  0  0
  162.1960  203.1870  147.8660 C   0  0  2  0  0  3  0  0  0  0  0  0
  160.9210  202.3970  147.5510 C   0  0  0  0  0  2  0  0  0  0  0  0
  161.0620  203.1020  148.8740 C   0  0  1  0  0  0  0  0  0  0  0  0
  161.2380  202.2520  149.9640 O   0  0  0  0  0  1  0  0  0  0  0  0
  160.1610  204.2310  149.0470 N   0  0  0  0  0  1  0  0  0  0  0  0
  160.2970  206.2050  145.2110 O   0  0  0  0  0  1  0  0  0  0  0  0
  160.0810  206.5230  146.5590 C   0  0  0  0  0  2  0  0  0  0  0  0
  1 19  1  1  0  0  0
  1 10  1  0  0  0  0
  1 22  1  0  0  0  0
  2  3  1  0  0  0  0
  4 22  1  0  0  0  0
  4  5  1  0  0  0  0
  6 14  1  0  0  0  0
  6 19  1  0  0  0  0
  8 21  1  0  0  0  0
  9  2  2  0  0  0  0
 10  7  1  6  0  0  0
 10 11  1  0  0  0  0
 11  9  1  0  0  0  0
 11 17  2  0  0  0  0
 12 17  1  6  0  0  0
 12 18  1  0  0  0  0
 13  8  2  0  0  0  0
 14 25  1  6  0  0  0
 14  7  1  0  0  0  0
 15  5  2  0  0  0  0
 15 13  1  0  0  0  0
 16  3  2  0  0  0  0
 17 16  1  0  0  0  0
 20  4  2  0  0  0  0
 22 12  1  0  0  0  0
 23  5  1  6  0  0  0
 23  8  1  0  0  0  0
 23 18  1  0  0  0  0
 25 24  1  1  0  0  0
 26 25  1  6  0  0  0
 26 28  1  0  0  0  0
 27 26  1  0  0  0  0
 27 28  1  0  0  0  0
 28 30  1  1  0  0  0
 28 29  1  0  0  0  0
 31 32  1  0  0  0  0
 32  6  1  0  0  0  0
M  END
>  <MODEL>
5

>  <REMARK>
 VINA RESULT:      -4.7      1.849      2.502
  Name = 
  3 active torsions:
  status: ('A' for Active; 'I' for Inactive)
    1  A    between atoms: N_7  and  C_19
    2  A    between atoms: C_10  and  C_17
    3  A    between atoms: C_10  and  C_20
                            x       y       z     vdW  Elec       q    Type
                         _______ _______ _______ _____ _____    ______ ____

>  <TORSDO>
F 3

$$$$
=
 OpenBabel11122412573D

 32 37  0  0  1  0  0  0  0  0999 V2000
  161.4690  208.2800  153.6270 C   0  0  1  0  0  3  0  0  0  0  0  0
  161.6390  211.6110  150.0680 C   0  0  0  0  0  3  0  0  0  0  0  0
  161.6300  210.6010  149.1050 C   0  0  0  0  0  3  0  0  0  0  0  0
  161.3570  205.8580  152.9760 C   0  0  0  0  0  0  0  0  0  0  0  0
  161.2900  204.8570  151.9130 C   0  0  0  0  0  0  0  0  0  0  0  0
  159.7670  209.5740  154.8650 N   0  0  0  0  0  0  0  0  0  0  0  0
  161.9060  210.6760  154.2650 C   0  0  0  0  0  2  0  0  0  0  0  0
  161.1580  204.0830  149.8040 C   0  0  0  0  0  0  0  0  0  0  0  0
  161.8140  211.2910  151.4160 C   0  0  0  0  0  3  0  0  0  0  0  0
  162.2140  209.5710  153.2520 C   0  0  2  0  0  3  0  0  0  0  0  0
  161.9630  209.9530  151.8130 C   0  0  0  0  0  0  0  0  0  0  0  0
  162.2110  207.5130  151.2750 C   0  0  2  0  0  3  0  0  0  0  0  0
  160.8310  203.0370  150.5530 C   0  0  0  0  0  3  0  0  0  0  0  0
  160.3980  210.8570  154.4780 C   0  0  2  0  0  3  0  0  0  0  0  0
  160.8820  203.4240  152.0090 C   0  0  0  0  0  2  0  0  0  0  0  0
  161.7960  209.2680  149.4900 C   0  0  0  0  0  3  0  0  0  0  0  0
  161.9510  208.9350  150.8440 C   0  0  0  0  0  0  0  0  0  0  0  0
  161.7420  206.5470  150.2710 N   0  0  0  0  0  2  0  0  0  0  0  0
  159.9810  208.5730  153.8160 C   0  0  0  0  0  2  0  0  0  0  0  0
  161.1350  205.5340  154.1740 O   0  0  0  0  0  0  0  0  0  0  0  0
  161.2070  204.0820  148.3180 C   0  0  0  0  0  1  0  0  0  0  0  0
  161.6380  207.2260  152.6140 N   0  0  0  0  0  0  0  0  0  0  0  0
  161.4500  205.2070  150.6620 C   0  0  0  0  0  0  0  0  0  0  0  0
  161.3900  212.2000  156.2200 O   0  0  0  0  0  1  0  0  0  0  0  0
  160.2010  211.9660  155.5280 C   0  0  1  0  0  3  0  0  0  0  0  0
  159.6680  213.2670  154.9230 C   0  0  2  0  0  3  0  0  0  0  0  0
  159.5340  214.3420  156.0070 C   0  0  0  0  0  2  0  0  0  0  0  0
  158.3070  213.6510  155.4760 C   0  0  1  0  0  0  0  0  0  0  0  0
  157.4950  214.4530  154.6760 O   0  0  0  0  0  1  0  0  0  0  0  0
  157.6460  212.7850  156.4390 N   0  0  0  0  0  1  0  0  0  0  0  0
  157.7750  210.5110  153.9870 O   0  0  0  0  0  1  0  0  0  0  0  0
  158.3160  209.7270  155.0140 C   0  0  0  0  0  2  0  0  0  0  0  0
  1 19  1  6  0  0  0
  2  9  1  0  0  0  0
  3 16  1  0  0  0  0
  3  2  2  0  0  0  0
  4 20  2  0  0  0  0
  5 15  1  0  0  0  0
  5  4  1  0  0  0  0
  6 32  1  0  0  0  0
  7 14  1  0  0  0  0
  8 13  2  0  0  0  0
  8 23  1  0  0  0  0
  9 11  2  0  0  0  0
 10  1  1  0  0  0  0
 10  7  1  1  0  0  0
 11 10  1  0  0  0  0
 12 18  1  6  0  0  0
 12 22  1  0  0  0  0
 13 15  1  0  0  0  0
 14  6  1  0  0  0  0
 14 25  1  1  0  0  0
 16 17  2  0  0  0  0
 17 12  1  0  0  0  0
 17 11  1  0  0  0  0
 18 23  1  0  0  0  0
 19  6  1  0  0  0  0
 21  8  1  0  0  0  0
 22  4  1  0  0  0  0
 22  1  1  0  0  0  0
 23  5  2  0  0  0  0
 25 24  1  6  0  0  0
 26 28  1  0  0  0  0
 26 25  1  1  0  0  0
 26 27  1  0  0  0  0
 28 29  1  6  0  0  0
 28 27  1  0  0  0  0
 28 30  1  0  0  0  0
 31 32  1  0  0  0  0
M  END
>  <MODEL>
6

>  <REMARK>
 VINA RESULT:      -4.7      3.069      8.170
  Name = 
  3 active torsions:
  status: ('A' for Active; 'I' for Inactive)
    1  A    between atoms: N_7  and  C_19
    2  A    between atoms: C_10  and  C_17
    3  A    between atoms: C_10  and  C_20
                            x       y       z     vdW  Elec       q    Type
                         _______ _______ _______ _____ _____    ______ ____

>  <TORSDO>
F 3

$$$$
=
 OpenBabel11122412573D

 32 37  0  0  1  0  0  0  0  0999 V2000
  161.2140  213.2320  149.5380 C   0  0  1  0  0  3  0  0  0  0  0  0
  156.3500  213.5910  149.5490 C   0  0  0  0  0  3  0  0  0  0  0  0
  156.3430  213.7030  148.1570 C   0  0  0  0  0  3  0  0  0  0  0  0
  162.3980  213.2660  147.3250 C   0  0  0  0  0  0  0  0  0  0  0  0
  162.3100  213.3280  145.8660 C   0  0  0  0  0  0  0  0  0  0  0  0
  161.1600  211.3830  151.1750 N   0  0  0  0  0  0  0  0  0  0  0  0
  160.0510  213.5240  151.7510 C   0  0  0  0  0  2  0  0  0  0  0  0
  161.3040  213.4100  143.8560 C   0  0  0  0  0  0  0  0  0  0  0  0
  157.5560  213.6600  150.2490 C   0  0  0  0  0  3  0  0  0  0  0  0
  160.0860  213.9600  150.2850 C   0  0  2  0  0  3  0  0  0  0  0  0
  158.7680  213.8210  149.5610 C   0  0  0  0  0  0  0  0  0  0  0  0
  160.0600  214.2040  147.4420 C   0  0  2  0  0  3  0  0  0  0  0  0
  162.5530  213.0570  143.5780 C   0  0  0  0  0  3  0  0  0  0  0  0
  160.0240  211.9980  151.8980 C   0  0  2  0  0  3  0  0  0  0  0  0
  163.3470  212.9660  144.8550 C   0  0  0  0  0  3  0  0  0  0  0  0
  157.5430  213.8830  147.4650 C   0  0  0  0  0  3  0  0  0  0  0  0
  158.7620  213.9320  148.1590 C   0  0  0  0  0  0  0  0  0  0  0  0
  159.9750  213.8600  146.0150 N   0  0  0  0  0  2  0  0  0  0  0  0
  161.0930  211.7240  149.7520 C   0  0  0  0  0  2  0  0  0  0  0  0
  163.4830  212.9520  147.8870 O   0  0  0  0  0  0  0  0  0  0  0  0
  160.2260  213.5880  142.8460 C   0  0  0  0  0  1  0  0  0  0  0  0
  161.2080  213.5270  148.0970 N   0  0  0  0  0  0  0  0  0  0  0  0
  161.1680  213.5840  145.2830 C   0  0  1  0  0  3  0  0  0  0  0  0
  158.8150  211.0610  153.7650 O   0  0  0  0  0  1  0  0  0  0  0  0
  160.0180  211.6700  153.4020 C   0  0  1  0  0  3  0  0  0  0  0  0
  161.2070  210.8020  153.8240 C   0  0  2  0  0  3  0  0  0  0  0  0
  160.7690  209.7750  154.8740 C   0  0  0  0  0  2  0  0  0  0  0  0
  161.5680  210.9820  155.2890 C   0  0  1  0  0  0  0  0  0  0  0  0
  162.8810  210.7030  155.6620 O   0  0  0  0  0  1  0  0  0  0  0  0
  160.8300  211.9340  156.1040 N   0  0  0  0  0  1  0  0  0  0  0  0
  162.2750  209.3330  150.7560 O   0  0  0  0  0  1  0  0  0  0  0  0
  161.1080  209.9200  151.2620 C   0  0  0  0  0  2  0  0  0  0  0  0
  1 19  1  6  0  0  0
  1 10  1  0  0  0  0
  2  9  1  0  0  0  0
  3  2  2  0  0  0  0
  4 20  2  0  0  0  0
  4 22  1  0  0  0  0
  5  4  1  0  0  0  0
  6 32  1  0  0  0  0
  6 14  1  0  0  0  0
  7 14  1  0  0  0  0
 10  7  1  1  0  0  0
 11  9  2  0  0  0  0
 11 10  1  0  0  0  0
 12 18  1  6  0  0  0
 12 22  1  0  0  0  0
 12 17  1  0  0  0  0
 13  8  2  0  0  0  0
 13 15  1  0  0  0  0
 14 25  1  1  0  0  0
 15  5  2  0  0  0  0
 16  3  1  0  0  0  0
 16 17  2  0  0  0  0
 17 11  1  0  0  0  0
 19  6  1  0  0  0  0
 21  8  1  0  0  0  0
 22  1  1  0  0  0  0
 23  8  1  1  0  0  0
 23  5  1  0  0  0  0
 23 18  1  0  0  0  0
 25 24  1  6  0  0  0
 26 25  1  1  0  0  0
 26 27  1  0  0  0  0
 26 28  1  0  0  0  0
 27 28  1  0  0  0  0
 28 29  1  1  0  0  0
 28 30  1  0  0  0  0
 31 32  1  0  0  0  0
M  END
>  <MODEL>
7

>  <REMARK>
 VINA RESULT:      -4.2      4.190      7.467
  Name = 
  3 active torsions:
  status: ('A' for Active; 'I' for Inactive)
    1  A    between atoms: N_7  and  C_19
    2  A    between atoms: C_10  and  C_17
    3  A    between atoms: C_10  and  C_20
                            x       y       z     vdW  Elec       q    Type
                         _______ _______ _______ _____ _____    ______ ____

>  <TORSDO>
F 3

$$$$
=
 OpenBabel11122412573D

 32 37  0  0  1  0  0  0  0  0999 V2000
  162.1670  208.1680  151.7620 C   0  0  1  0  0  3  0  0  0  0  0  0
  161.2060  212.4250  149.5840 C   0  0  0  0  0  3  0  0  0  0  0  0
  161.0160  211.7720  148.3650 C   0  0  0  0  0  3  0  0  0  0  0  0
  162.0490  206.0770  150.3780 C   0  0  0  0  0  0  0  0  0  0  0  0
  161.7770  205.4550  149.0820 C   0  0  0  0  0  0  0  0  0  0  0  0
  160.7570  208.7540  153.7050 N   0  0  0  0  0  0  0  0  0  0  0  0
  162.5960  210.2850  153.0550 C   0  0  0  0  0  2  0  0  0  0  0  0
  161.1610  205.3620  146.9200 C   0  0  0  0  0  0  0  0  0  0  0  0
  161.7400  211.7320  150.6720 C   0  0  0  0  0  3  0  0  0  0  0  0
  162.7060  209.6050  151.6880 C   0  0  2  0  0  3  0  0  0  0  0  0
  162.0710  210.3730  150.5540 C   0  0  0  0  0  0  0  0  0  0  0  0
  162.3310  208.2830  149.1870 C   0  0  2  0  0  3  0  0  0  0  0  0
  161.1060  204.1000  147.3270 C   0  0  0  0  0  3  0  0  0  0  0  0
  161.1850  210.1700  153.6430 C   0  0  2  0  0  3  0  0  0  0  0  0
  161.5010  204.0200  148.7790 C   0  0  0  0  0  2  0  0  0  0  0  0
  161.3610  210.4250  148.2330 C   0  0  0  0  0  3  0  0  0  0  0  0
  161.8790  209.7150  149.3270 C   0  0  0  0  0  0  0  0  0  0  0  0
  161.6840  207.6180  148.0470 N   0  0  0  0  0  2  0  0  0  0  0  0
  160.7610  208.1690  152.3620 C   0  0  0  0  0  2  0  0  0  0  0  0
  162.1620  205.3700  151.4150 O   0  0  0  0  0  0  0  0  0  0  0  0
  160.8290  205.8290  145.5480 C   0  0  0  0  0  1  0  0  0  0  0  0
  162.1390  207.5150  150.4440 N   0  0  0  0  0  0  0  0  0  0  0  0
  161.5890  206.1950  148.0190 C   0  0  0  0  0  0  0  0  0  0  0  0
  162.4990  211.0190  155.4800 O   0  0  0  0  0  1  0  0  0  0  0  0
  161.1910  210.8590  155.0200 C   0  0  1  0  0  3  0  0  0  0  0  0
  160.4560  212.2020  155.0150 C   0  0  2  0  0  3  0  0  0  0  0  0
  160.4560  212.8130  156.4200 C   0  0  0  0  0  2  0  0  0  0  0  0
  159.2030  212.1830  155.8740 C   0  0  1  0  0  0  0  0  0  0  0  0
  158.1950  213.0890  155.5530 O   0  0  0  0  0  1  0  0  0  0  0  0
  158.8080  210.9570  156.5500 N   0  0  0  0  0  1  0  0  0  0  0  0
  159.3340  207.8770  155.3850 O   0  0  0  0  0  1  0  0  0  0  0  0
  159.3860  208.6400  154.2120 C   0  0  0  0  0  2  0  0  0  0  0  0
  1 19  1  6  0  0  0
  2  9  1  0  0  0  0
  3  2  2  0  0  0  0
  4 22  1  0  0  0  0
  4 20  2  0  0  0  0
  5  4  1  0  0  0  0
  6 32  1  0  0  0  0
  7 14  1  0  0  0  0
  8 13  2  0  0  0  0
  8 23  1  0  0  0  0
 10  1  1  0  0  0  0
 10  7  1  1  0  0  0
 11  9  2  0  0  0  0
 11 10  1  0  0  0  0
 12 18  1  6  0  0  0
 12 17  1  0  0  0  0
 12 22  1  0  0  0  0
 13 15  1  0  0  0  0
 14  6  1  0  0  0  0
 14 25  1  1  0  0  0
 15  5  1  0  0  0  0
 16  3  1  0  0  0  0
 16 17  2  0  0  0  0
 17 11  1  0  0  0  0
 19  6  1  0  0  0  0
 21  8  1  0  0  0  0
 22  1  1  0  0  0  0
 23 18  1  0  0  0  0
 23  5  2  0  0  0  0
 25 24  1  6  0  0  0
 26 25  1  1  0  0  0
 26 28  1  0  0  0  0
 26 27  1  0  0  0  0
 28 29  1  6  0  0  0
 28 27  1  0  0  0  0
 28 30  1  0  0  0  0
 32 31  1  0  0  0  0
M  END
>  <MODEL>
8

>  <REMARK>
 VINA RESULT:      -4.0      2.983      7.602
  Name = 
  3 active torsions:
  status: ('A' for Active; 'I' for Inactive)
    1  A    between atoms: N_7  and  C_19
    2  A    between atoms: C_10  and  C_17
    3  A    between atoms: C_10  and  C_20
                            x       y       z     vdW  Elec       q    Type
                         _______ _______ _______ _____ _____    ______ ____

>  <TORSDO>
F 3

$$$$
=
 OpenBabel11122412573D

 32 37  0  0  1  0  0  0  0  0999 V2000
  161.9980  208.7160  150.3770 C   0  0  1  0  0  3  0  0  0  0  0  0
  160.2140  207.1080  154.6220 C   0  0  0  0  0  3  0  0  0  0  0  0
  159.7080  208.3780  154.9040 C   0  0  0  0  0  3  0  0  0  0  0  0
  161.5890  211.1130  149.7530 C   0  0  0  0  0  0  0  0  0  0  0  0
  160.9810  212.4000  150.0870 C   0  0  0  0  0  0  0  0  0  0  0  0
  161.1950  206.7050  149.1870 N   0  0  0  0  0  0  0  0  0  0  0  0
  162.6760  206.4200  151.1550 C   0  0  0  0  0  2  0  0  0  0  0  0
  159.7610  213.8640  151.2840 C   0  0  0  0  0  0  0  0  0  0  0  0
  161.0810  206.9260  153.5430 C   0  0  0  0  0  3  0  0  0  0  0  0
  162.4150  207.8650  151.5860 C   0  0  2  0  0  3  0  0  0  0  0  0
  161.4340  208.0100  152.7250 C   0  0  0  0  0  0  0  0  0  0  0  0
  161.3900  210.4610  152.1810 C   0  0  2  0  0  3  0  0  0  0  0  0
  159.8940  214.4470  150.0990 C   0  0  0  0  0  3  0  0  0  0  0  0
  161.5100  205.8400  150.3470 C   0  0  2  0  0  3  0  0  0  0  0  0
  160.7040  213.5600  149.1890 C   0  0  0  0  0  3  0  0  0  0  0  0
  160.0700  209.4670  154.1070 C   0  0  0  0  0  3  0  0  0  0  0  0
  160.9240  209.2890  153.0080 C   0  0  0  0  0  0  0  0  0  0  0  0
  160.4720  211.6040  152.2930 N   0  0  0  0  0  2  0  0  0  0  0  0
  160.8340  208.0490  149.6460 C   0  0  0  0  0  2  0  0  0  0  0  0
  162.0400  210.9010  148.5950 O   0  0  0  0  0  0  0  0  0  0  0  0
  159.0140  214.4380  152.4350 C   0  0  0  0  0  1  0  0  0  0  0  0
  161.6180  210.0840  150.7630 N   0  0  0  0  0  0  0  0  0  0  0  0
  160.4490  212.5940  151.2670 C   0  0  1  0  0  3  0  0  0  0  0  0
  161.9580  203.5820  151.0700 O   0  0  0  0  0  1  0  0  0  0  0  0
  161.8850  204.4030  149.9430 C   0  0  1  0  0  3  0  0  0  0  0  0
  160.9260  203.8090  148.9080 C   0  0  2  0  0  3  0  0  0  0  0  0
  161.4230  202.4320  148.4520 C   0  0  0  0  0  2  0  0  0  0  0  0
  161.5780  203.6260  147.5480 C   0  0  1  0  0  0  0  0  0  0  0  0
  160.7410  203.6180  146.4340 O   0  0  0  0  0  1  0  0  0  0  0  0
  162.9560  204.0450  147.3440 N   0  0  0  0  0  1  0  0  0  0  0  0
  160.0870  206.5700  147.0960 O   0  0  0  0  0  1  0  0  0  0  0  0
  160.0420  206.1880  148.4430 C   0  0  0  0  0  2  0  0  0  0  0  0
  1 19  1  1  0  0  0
  1 22  1  0  0  0  0
  1 10  1  0  0  0  0
  2  3  1  0  0  0  0
  4  5  1  0  0  0  0
  4 22  1  0  0  0  0
  6 19  1  0  0  0  0
  6 14  1  0  0  0  0
  8 21  1  0  0  0  0
  9  2  2  0  0  0  0
 10  7  1  6  0  0  0
 10 11  1  0  0  0  0
 11 17  2  0  0  0  0
 11  9  1  0  0  0  0
 12 18  1  6  0  0  0
 12 17  1  0  0  0  0
 13  8  2  0  0  0  0
 14 25  1  6  0  0  0
 14  7  1  0  0  0  0
 15  5  2  0  0  0  0
 15 13  1  0  0  0  0
 16  3  2  0  0  0  0
 17 16  1  0  0  0  0
 20  4  2  0  0  0  0
 22 12  1  0  0  0  0
 23  5  1  6  0  0  0
 23  8  1  0  0  0  0
 23 18  1  0  0  0  0
 25 24  1  1  0  0  0
 26 25  1  1  0  0  0
 27 26  1  0  0  0  0
 28 29  1  6  0  0  0
 28 27  1  0  0  0  0
 28 26  1  0  0  0  0
 30 28  1  0  0  0  0
 31 32  1  0  0  0  0
 32  6  1  0  0  0  0
M  END
>  <MODEL>
9

>  <REMARK>
 VINA RESULT:      -4.0      1.111      1.178
  Name = 
  3 active torsions:
  status: ('A' for Active; 'I' for Inactive)
    1  A    between atoms: N_7  and  C_19
    2  A    between atoms: C_10  and  C_17
    3  A    between atoms: C_10  and  C_20
                            x       y       z     vdW  Elec       q    Type
                         _______ _______ _______ _____ _____    ______ ____

>  <TORSDO>
F 3

$$$$
