=
 OpenBabel11122412433D

 30 35  0  0  1  0  0  0  0  0999 V2000
  160.4560  212.3700  152.6310 C   0  0  2  0  0  3  0  0  0  0  0  0
  160.3860  212.9590  150.1390 C   0  0  0  0  0  0  0  0  0  0  0  0
  161.2110  208.7320  151.6200 N   0  0  0  0  0  2  0  0  0  0  0  0
  160.4760  211.1650  153.5860 C   0  0  2  0  0  3  0  0  0  0  0  0
  159.4000  213.3160  152.8540 O   0  0  0  0  0  0  0  0  0  0  0  0
  158.6510  212.7030  156.2540 O   0  0  0  0  0  0  0  0  0  0  0  0
  160.6450  209.6690  156.3920 C   0  0  1  0  0  3  0  0  0  0  0  0
  159.1360  212.4590  155.1180 C   0  0  0  0  0  0  0  0  0  0  0  0
  160.3720  208.7560  155.1960 C   0  0  2  0  0  3  0  0  0  0  0  0
  160.9660  208.0660  152.8420 C   0  0  0  0  0  0  0  0  0  0  0  0
  158.4670  212.9770  153.8780 C   0  0  2  0  0  3  0  0  0  0  0  0
  160.2950  211.6370  154.9520 N   0  0  0  0  0  0  0  0  0  0  0  0
  160.5780  212.5830  148.7040 C   0  0  0  0  0  2  0  0  0  0  0  0
  160.4560  207.3920  155.8370 C   0  0  0  0  0  2  0  0  0  0  0  0
  161.6010  208.9880  157.2520 N   0  0  0  0  0  2  0  0  0  0  0  0
  160.1510  214.1220  150.4310 O   0  0  0  0  0  0  0  0  0  0  0  0
  161.9780  209.9210  151.9420 C   0  0  2  0  0  3  0  0  0  0  0  0
  161.8810  211.8030  148.5510 C   0  0  0  0  0  2  0  0  0  0  0  0
  160.4730  211.8650  151.1840 C   0  0  1  0  0  3  0  0  0  0  0  0
  161.6960  210.2350  153.4260 C   0  0  2  0  0  3  0  0  0  0  0  0
  160.4560  206.9150  152.8860 O   0  0  0  0  0  0  0  0  0  0  0  0
  161.4100  208.8370  154.0410 C   0  0  1  0  0  3  0  0  0  0  0  0
  161.3760  207.5630  157.0360 C   0  0  0  0  0  2  0  0  0  0  0  0
  161.1860  211.9870  157.2610 C   0  0  0  0  0  1  0  0  0  0  0  0
  161.9080  210.6070  149.5000 C   0  0  0  0  0  2  0  0  0  0  0  0
  161.7740  211.0790  150.9520 C   0  0  2  0  0  3  0  0  0  0  0  0
  161.1090  211.0790  156.0410 C   0  0  1  0  0  3  0  0  0  0  0  0
  157.4240  211.9910  153.3690 C   0  0  0  0  0  2  0  0  0  0  0  0
  155.8720  210.8820  154.9440 C   0  0  0  0  0  1  0  0  0  0  0  0
  156.1320  212.1420  154.1470 C   0  0  0  0  0  2  0  0  0  0  0  0
  1  5  1  6  0  0  0
  1  4  1  0  0  0  0
  2 16  2  0  0  0  0
  3 10  1  0  0  0  0
  4 12  1  1  0  0  0
  5 11  1  0  0  0  0
  7 15  1  1  0  0  0
  8  6  2  0  0  0  0
  9 14  1  1  0  0  0
  9  7  1  0  0  0  0
 10 21  2  0  0  0  0
 10 22  1  0  0  0  0
 11 28  1  6  0  0  0
 11  8  1  0  0  0  0
 12  8  1  0  0  0  0
 12 27  1  0  0  0  0
 13  2  1  0  0  0  0
 14 23  1  0  0  0  0
 17  3  1  6  0  0  0
 17 20  1  0  0  0  0
 18 13  1  0  0  0  0
 18 25  1  0  0  0  0
 19  2  1  6  0  0  0
 19  1  1  0  0  0  0
 20  4  1  0  0  0  0
 20 22  1  0  0  0  0
 22  9  1  0  0  0  0
 23 15  1  0  0  0  0
 25 26  1  0  0  0  0
 26 19  1  0  0  0  0
 26 17  1  0  0  0  0
 27  7  1  0  0  0  0
 27 24  1  0  0  0  0
 28 30  1  0  0  0  0
 30 29  1  0  0  0  0
M  END
>  <MODEL>
1

>  <REMARK>
 VINA RESULT:      -4.5      0.000      0.000
  Name = 
  2 active torsions:
  status: ('A' for Active; 'I' for Inactive)
    1  A    between atoms: C_11  and  C_28
    2  A    between atoms: C_28  and  C_30
                            x       y       z     vdW  Elec       q    Type
                         _______ _______ _______ _____ _____    ______ ____

>  <TORSDO>
F 2

$$$$
=
 OpenBabel11122412433D

 30 35  0  0  1  0  0  0  0  0999 V2000
  160.8960  212.4400  151.6720 C   0  0  2  0  0  3  0  0  0  0  0  0
  160.9390  213.3170  149.2660 C   0  0  0  0  0  0  0  0  0  0  0  0
  161.4310  208.9000  150.2570 N   0  0  0  0  0  2  0  0  0  0  0  0
  160.8050  211.1340  152.4790 C   0  0  2  0  0  3  0  0  0  0  0  0
  159.9010  213.4270  151.9820 O   0  0  0  0  0  0  0  0  0  0  0  0
  159.0120  212.4790  155.2700 O   0  0  0  0  0  0  0  0  0  0  0  0
  160.7900  209.3150  155.0920 C   0  0  1  0  0  3  0  0  0  0  0  0
  159.5130  212.3340  154.1230 C   0  0  0  0  0  0  0  0  0  0  0  0
  160.4910  208.5690  153.7920 C   0  0  2  0  0  3  0  0  0  0  0  0
  161.1060  208.1160  151.3860 C   0  0  0  0  0  0  0  0  0  0  0  0
  158.9170  213.0380  152.9390 C   0  0  2  0  0  3  0  0  0  0  0  0
  160.6170  211.4560  153.8860 N   0  0  0  0  0  0  0  0  0  0  0  0
  161.1470  213.0970  147.8000 C   0  0  0  0  0  2  0  0  0  0  0  0
  160.4630  207.1380  154.2700 C   0  0  0  0  0  2  0  0  0  0  0  0
  161.6720  208.4730  155.8860 N   0  0  0  0  0  2  0  0  0  0  0  0
  160.7750  214.4530  149.6870 O   0  0  0  0  0  0  0  0  0  0  0  0
  162.2670  209.9860  150.7320 C   0  0  2  0  0  3  0  0  0  0  0  0
  162.3980  212.2500  147.5840 C   0  0  0  0  0  2  0  0  0  0  0  0
  160.9210  212.1070  150.1760 C   0  0  1  0  0  3  0  0  0  0  0  0
  161.9640  210.1450  152.2370 C   0  0  2  0  0  3  0  0  0  0  0  0
  160.5180  207.0060  151.2840 O   0  0  0  0  0  0  0  0  0  0  0  0
  161.5660  208.7090  152.6760 C   0  0  1  0  0  3  0  0  0  0  0  0
  161.3570  207.1020  155.5000 C   0  0  0  0  0  2  0  0  0  0  0  0
  161.4610  211.4730  156.2390 C   0  0  0  0  0  1  0  0  0  0  0  0
  162.3160  210.9530  148.3870 C   0  0  0  0  0  2  0  0  0  0  0  0
  162.1720  211.2620  149.8820 C   0  0  2  0  0  3  0  0  0  0  0  0
  161.3590  210.7200  154.9190 C   0  0  1  0  0  3  0  0  0  0  0  0
  157.8240  212.1940  152.2960 C   0  0  0  0  0  2  0  0  0  0  0  0
  156.4800  214.0860  151.4420 C   0  0  0  0  0  1  0  0  0  0  0  0
  157.2980  212.8750  151.0480 C   0  0  0  0  0  2  0  0  0  0  0  0
  1  5  1  6  0  0  0
  1  4  1  0  0  0  0
  2 16  2  0  0  0  0
  3 10  1  0  0  0  0
  4 12  1  1  0  0  0
  5 11  1  0  0  0  0
  7 15  1  1  0  0  0
  8  6  2  0  0  0  0
  9 14  1  1  0  0  0
  9  7  1  0  0  0  0
 10 22  1  0  0  0  0
 11 28  1  6  0  0  0
 11  8  1  0  0  0  0
 12  8  1  0  0  0  0
 12 27  1  0  0  0  0
 13  2  1  0  0  0  0
 14 23  1  0  0  0  0
 17  3  1  6  0  0  0
 17 20  1  0  0  0  0
 18 13  1  0  0  0  0
 18 25  1  0  0  0  0
 19  2  1  6  0  0  0
 19  1  1  0  0  0  0
 20  4  1  0  0  0  0
 20 22  1  0  0  0  0
 21 10  2  0  0  0  0
 22  9  1  0  0  0  0
 23 15  1  0  0  0  0
 25 26  1  0  0  0  0
 26 19  1  0  0  0  0
 26 17  1  0  0  0  0
 27  7  1  0  0  0  0
 27 24  1  0  0  0  0
 30 29  1  0  0  0  0
 30 28  1  0  0  0  0
M  END
>  <MODEL>
2

>  <REMARK>
 VINA RESULT:      -3.9      1.326      1.619
  Name = 
  2 active torsions:
  status: ('A' for Active; 'I' for Inactive)
    1  A    between atoms: C_11  and  C_28
    2  A    between atoms: C_28  and  C_30
                            x       y       z     vdW  Elec       q    Type
                         _______ _______ _______ _____ _____    ______ ____

>  <TORSDO>
F 2

$$$$
=
 OpenBabel11122412433D

 30 35  0  0  1  0  0  0  0  0999 V2000
  160.5400  213.0940  149.7140 C   0  0  2  0  0  3  0  0  0  0  0  0
  159.3220  212.7400  151.9380 C   0  0  0  0  0  0  0  0  0  0  0  0
  157.1070  213.0620  147.9720 N   0  0  0  0  0  2  0  0  0  0  0  0
  160.3120  213.0570  148.1930 C   0  0  2  0  0  3  0  0  0  0  0  0
  161.6030  212.2580  150.1970 O   0  0  0  0  0  0  0  0  0  0  0  0
  163.5950  211.9500  147.2930 O   0  0  0  0  0  0  0  0  0  0  0  0
  161.0710  213.4030  145.1200 C   0  0  1  0  0  3  0  0  0  0  0  0
  162.5560  212.2060  147.9570 C   0  0  0  0  0  0  0  0  0  0  0  0
  159.6890  212.8010  145.3740 C   0  0  2  0  0  3  0  0  0  0  0  0
  157.4990  212.9000  146.6250 C   0  0  0  0  0  0  0  0  0  0  0  0
  162.2540  211.4510  149.2180 C   0  0  2  0  0  3  0  0  0  0  0  0
  161.5960  213.1710  147.5160 N   0  0  0  0  0  0  0  0  0  0  0  0
  158.0570  212.6430  152.7320 C   0  0  0  0  0  2  0  0  0  0  0  0
  159.1240  212.7520  143.9750 C   0  0  0  0  0  2  0  0  0  0  0  0
  160.9390  214.3530  144.0260 N   0  0  0  0  0  2  0  0  0  0  0  0
  160.3970  212.7510  152.5190 O   0  0  0  0  0  0  0  0  0  0  0  0
  157.9920  214.0580  148.5460 C   0  0  2  0  0  3  0  0  0  0  0  0
  157.1030  213.7570  152.3100 C   0  0  0  0  0  2  0  0  0  0  0  0
  159.2160  212.8020  150.4280 C   0  0  1  0  0  3  0  0  0  0  0  0
  159.2660  214.0660  147.6750 C   0  0  2  0  0  3  0  0  0  0  0  0
  156.8250  212.2180  145.8090 O   0  0  0  0  0  0  0  0  0  0  0  0
  158.7430  213.6470  146.2720 C   0  0  1  0  0  3  0  0  0  0  0  0
  159.8330  213.8610  143.2120 C   0  0  0  0  0  2  0  0  0  0  0  0
  163.1760  214.4530  146.0640 C   0  0  0  0  0  1  0  0  0  0  0  0
  156.8750  213.7290  150.8000 C   0  0  0  0  0  2  0  0  0  0  0  0
  158.2060  213.9020  150.0590 C   0  0  2  0  0  3  0  0  0  0  0  0
  161.7370  214.0380  146.3380 C   0  0  1  0  0  3  0  0  0  0  0  0
  161.4510  210.1910  148.9200 C   0  0  0  0  0  2  0  0  0  0  0  0
  162.2560  207.8690  148.6450 C   0  0  0  0  0  1  0  0  0  0  0  0
  162.0580  208.9990  149.6330 C   0  0  0  0  0  2  0  0  0  0  0  0
  1  5  1  6  0  0  0
  1 19  1  0  0  0  0
  2 16  2  0  0  0  0
  2 13  1  0  0  0  0
  4 12  1  6  0  0  0
  4  1  1  0  0  0  0
  6  8  2  0  0  0  0
  7 15  1  6  0  0  0
  7  9  1  0  0  0  0
  7 27  1  0  0  0  0
  8 11  1  0  0  0  0
  9 14  1  6  0  0  0
  9 22  1  0  0  0  0
 10  3  1  0  0  0  0
 11 28  1  6  0  0  0
 11  5  1  0  0  0  0
 12  8  1  0  0  0  0
 17  3  1  6  0  0  0
 17 26  1  0  0  0  0
 18 13  1  0  0  0  0
 19  2  1  1  0  0  0
 20  4  1  0  0  0  0
 20 17  1  0  0  0  0
 21 10  2  0  0  0  0
 22 10  1  0  0  0  0
 22 20  1  0  0  0  0
 23 14  1  0  0  0  0
 23 15  1  0  0  0  0
 24 27  1  0  0  0  0
 25 18  1  0  0  0  0
 26 19  1  0  0  0  0
 26 25  1  0  0  0  0
 27 12  1  0  0  0  0
 28 30  1  0  0  0  0
 29 30  1  0  0  0  0
M  END
>  <MODEL>
3

>  <REMARK>
 VINA RESULT:      -3.7      4.365      8.476
  Name = 
  2 active torsions:
  status: ('A' for Active; 'I' for Inactive)
    1  A    between atoms: C_11  and  C_28
    2  A    between atoms: C_28  and  C_30
                            x       y       z     vdW  Elec       q    Type
                         _______ _______ _______ _____ _____    ______ ____

>  <TORSDO>
F 2

$$$$
=
 OpenBabel11122412433D

 30 35  0  0  1  0  0  0  0  0999 V2000
  161.3680  211.3890  151.7950 C   0  0  2  0  0  3  0  0  0  0  0  0
  160.7210  210.8850  154.2210 C   0  0  0  0  0  0  0  0  0  0  0  0
  157.9020  213.0040  151.3410 N   0  0  0  0  0  2  0  0  0  0  0  0
  160.7660  211.8470  150.4550 C   0  0  2  0  0  3  0  0  0  0  0  0
  162.0810  210.1440  151.7570 O   0  0  0  0  0  0  0  0  0  0  0  0
  162.9610  209.9740  148.3380 O   0  0  0  0  0  0  0  0  0  0  0  0
  160.7900  212.7310  147.3970 C   0  0  1  0  0  3  0  0  0  0  0  0
  162.3240  210.3790  149.3460 C   0  0  0  0  0  0  0  0  0  0  0  0
  159.3970  212.5910  148.0110 C   0  0  2  0  0  3  0  0  0  0  0  0
  157.8370  213.0900  149.9320 C   0  0  0  0  0  0  0  0  0  0  0  0
  162.0720  209.4600  150.5060 C   0  0  2  0  0  3  0  0  0  0  0  0
  161.7650  211.6940  149.4080 N   0  0  0  0  0  0  0  0  0  0  0  0
  159.7750  211.0140  155.3730 C   0  0  0  0  0  2  0  0  0  0  0  0
  158.5260  213.1190  146.8970 C   0  0  0  0  0  2  0  0  0  0  0  0
  160.7840  213.9270  146.5680 N   0  0  0  0  0  2  0  0  0  0  0  0
  161.8160  210.3710  154.3960 O   0  0  0  0  0  0  0  0  0  0  0  0
  159.2320  213.4440  151.7220 C   0  0  2  0  0  3  0  0  0  0  0  0
  159.2870  212.4560  155.4730 C   0  0  0  0  0  2  0  0  0  0  0  0
  160.2700  211.3860  152.8640 C   0  0  1  0  0  3  0  0  0  0  0  0
  160.1290  213.2510  150.4810 C   0  0  2  0  0  3  0  0  0  0  0  0
  156.7590  212.9260  149.3010 O   0  0  0  0  0  0  0  0  0  0  0  0
  159.1420  213.4330  149.2940 C   0  0  1  0  0  3  0  0  0  0  0  0
  159.4060  214.0820  146.1150 C   0  0  0  0  0  2  0  0  0  0  0  0
  163.3040  212.7020  147.7150 C   0  0  0  0  0  1  0  0  0  0  0  0
  158.6920  212.9180  154.1450 C   0  0  0  0  0  2  0  0  0  0  0  0
  159.7400  212.8200  153.0310 C   0  0  2  0  0  3  0  0  0  0  0  0
  161.9430  212.7450  148.3960 C   0  0  1  0  0  3  0  0  0  0  0  0
  160.7770  208.6810  150.3120 C   0  0  0  0  0  2  0  0  0  0  0  0
  160.6630  206.6390  148.9220 C   0  0  0  0  0  1  0  0  0  0  0  0
  161.0590  207.1920  150.2730 C   0  0  0  0  0  2  0  0  0  0  0  0
  1  5  1  6  0  0  0
  1 19  1  0  0  0  0
  2 16  2  0  0  0  0
  2 13  1  0  0  0  0
  4 12  1  6  0  0  0
  4 20  1  0  0  0  0
  4  1  1  0  0  0  0
  6  8  2  0  0  0  0
  7 15  1  1  0  0  0
  7  9  1  0  0  0  0
  7 27  1  0  0  0  0
  8 12  1  0  0  0  0
  8 11  1  0  0  0  0
  9 14  1  6  0  0  0
  9 22  1  0  0  0  0
 10  3  1  0  0  0  0
 11 28  1  6  0  0  0
 11  5  1  0  0  0  0
 13 18  1  0  0  0  0
 17  3  1  6  0  0  0
 17 26  1  0  0  0  0
 19 26  1  0  0  0  0
 19  2  1  1  0  0  0
 20 17  1  0  0  0  0
 21 10  2  0  0  0  0
 22 10  1  0  0  0  0
 22 20  1  0  0  0  0
 23 15  1  0  0  0  0
 23 14  1  0  0  0  0
 24 27  1  0  0  0  0
 25 18  1  0  0  0  0
 26 25  1  0  0  0  0
 27 12  1  0  0  0  0
 29 30  1  0  0  0  0
 30 28  1  0  0  0  0
M  END
>  <MODEL>
4

>  <REMARK>
 VINA RESULT:      -3.3      2.932      7.256
  Name = 
  2 active torsions:
  status: ('A' for Active; 'I' for Inactive)
    1  A    between atoms: C_11  and  C_28
    2  A    between atoms: C_28  and  C_30
                            x       y       z     vdW  Elec       q    Type
                         _______ _______ _______ _____ _____    ______ ____

>  <TORSDO>
F 2

$$$$
=
 OpenBabel11122412433D

 30 35  0  0  1  0  0  0  0  0999 V2000
  161.9650  212.8140  139.1900 C   0  0  2  0  0  3  0  0  0  0  0  0
  164.2860  212.8190  138.1080 C   0  0  0  0  0  0  0  0  0  0  0  0
  163.6540  213.7450  142.5220 N   0  0  0  0  0  2  0  0  0  0  0  0
  161.2730  212.8420  140.5640 C   0  0  2  0  0  3  0  0  0  0  0  0
  161.6040  211.7150  138.3400 O   0  0  0  0  0  0  0  0  0  0  0  0
  158.4370  210.8570  139.6540 O   0  0  0  0  0  0  0  0  0  0  0  0
  158.8230  212.9570  142.5940 C   0  0  1  0  0  3  0  0  0  0  0  0
  159.5750  211.3950  139.6480 C   0  0  0  0  0  0  0  0  0  0  0  0
  160.1900  212.7660  143.2510 C   0  0  2  0  0  3  0  0  0  0  0  0
  162.6050  213.4780  143.4300 C   0  0  0  0  0  0  0  0  0  0  0  0
  160.7140  210.7560  138.9080 C   0  0  2  0  0  3  0  0  0  0  0  0
  159.8500  212.5900  140.3850 N   0  0  0  0  0  0  0  0  0  0  0  0
  165.7580  213.0820  138.1790 C   0  0  0  0  0  2  0  0  0  0  0  0
  159.8350  212.8760  144.7140 C   0  0  0  0  0  2  0  0  0  0  0  0
  158.0760  213.9040  143.4080 N   0  0  0  0  0  2  0  0  0  0  0  0
  163.7770  212.5290  137.0360 O   0  0  0  0  0  0  0  0  0  0  0  0
  163.0640  214.4530  141.4020 C   0  0  2  0  0  3  0  0  0  0  0  0
  166.0050  214.4180  138.8730 C   0  0  0  0  0  2  0  0  0  0  0  0
  163.4820  212.9070  139.3890 C   0  0  1  0  0  3  0  0  0  0  0  0
  161.5610  214.1020  141.4050 C   0  0  2  0  0  3  0  0  0  0  0  0
  162.8180  213.0100  144.5800 O   0  0  0  0  0  0  0  0  0  0  0  0
  161.2560  213.8450  142.9070 C   0  0  1  0  0  3  0  0  0  0  0  0
  158.5850  213.7410  144.7650 C   0  0  0  0  0  2  0  0  0  0  0  0
  157.4800  213.3750  140.4870 C   0  0  0  0  0  1  0  0  0  0  0  0
  165.3170  214.4530  140.2360 C   0  0  0  0  0  2  0  0  0  0  0  0
  163.8070  214.2450  140.0740 C   0  0  2  0  0  3  0  0  0  0  0  0
  158.8600  213.3810  141.1290 C   0  0  1  0  0  3  0  0  0  0  0  0
  161.4590  209.7720  139.8000 C   0  0  0  0  0  2  0  0  0  0  0  0
  162.1920  207.4270  140.0830 C   0  0  0  0  0  1  0  0  0  0  0  0
  161.4580  208.3900  139.1760 C   0  0  0  0  0  2  0  0  0  0  0  0
  1  5  1  1  0  0  0
  1 19  1  0  0  0  0
  1  4  1  0  0  0  0
  2 13  1  0  0  0  0
  3 10  1  0  0  0  0
  4 12  1  6  0  0  0
  4 20  1  0  0  0  0
  5 11  1  0  0  0  0
  7  9  1  0  0  0  0
  7 15  1  1  0  0  0
  8  6  2  0  0  0  0
  8 12  1  0  0  0  0
  9 14  1  1  0  0  0
 10 21  2  0  0  0  0
 11  8  1  0  0  0  0
 11 28  1  1  0  0  0
 12 27  1  0  0  0  0
 13 18  1  0  0  0  0
 14 23  1  0  0  0  0
 15 23  1  0  0  0  0
 16  2  2  0  0  0  0
 17 20  1  0  0  0  0
 17  3  1  1  0  0  0
 18 25  1  0  0  0  0
 19  2  1  6  0  0  0
 19 26  1  0  0  0  0
 20 22  1  0  0  0  0
 22  9  1  0  0  0  0
 22 10  1  0  0  0  0
 24 27  1  0  0  0  0
 26 25  1  0  0  0  0
 26 17  1  0  0  0  0
 27  7  1  0  0  0  0
 30 28  1  0  0  0  0
 30 29  1  0  0  0  0
M  END
>  <MODEL>
5

>  <REMARK>
 VINA RESULT:      -3.1      9.893     13.601
  Name = 
  2 active torsions:
  status: ('A' for Active; 'I' for Inactive)
    1  A    between atoms: C_11  and  C_28
    2  A    between atoms: C_28  and  C_30
                            x       y       z     vdW  Elec       q    Type
                         _______ _______ _______ _____ _____    ______ ____

>  <TORSDO>
F 2

$$$$
=
 OpenBabel11122412433D

 30 35  0  0  1  0  0  0  0  0999 V2000
  157.5640  213.3850  152.9810 C   0  0  2  0  0  3  0  0  0  0  0  0
  156.5180  213.7210  150.6680 C   0  0  0  0  0  0  0  0  0  0  0  0
  160.1870  211.1050  151.3250 N   0  0  0  0  0  2  0  0  0  0  0  0
  158.5860  212.5120  153.7290 C   0  0  2  0  0  3  0  0  0  0  0  0
  156.2460  213.4150  153.5490 O   0  0  0  0  0  0  0  0  0  0  0  0
  156.9370  212.5490  156.9060 O   0  0  0  0  0  0  0  0  0  0  0  0
  160.3610  211.5640  156.1960 C   0  0  1  0  0  3  0  0  0  0  0  0
  157.1640  212.6520  155.6720 C   0  0  0  0  0  0  0  0  0  0  0  0
  160.4490  210.6660  154.9620 C   0  0  2  0  0  3  0  0  0  0  0  0
  160.7380  210.4720  152.4620 C   0  0  0  0  0  0  0  0  0  0  0  0
  156.0380  212.5740  154.6820 C   0  0  2  0  0  3  0  0  0  0  0  0
  158.4920  212.7850  155.1560 N   0  0  0  0  0  0  0  0  0  0  0  0
  156.5420  213.5250  149.1840 C   0  0  0  0  0  2  0  0  0  0  0  0
  161.5400  209.7060  155.3700 C   0  0  0  0  0  2  0  0  0  0  0  0
  161.7060  211.6970  156.7360 N   0  0  0  0  0  2  0  0  0  0  0  0
  155.6760  214.4530  151.1650 O   0  0  0  0  0  0  0  0  0  0  0  0
  160.0660  212.5130  151.6520 C   0  0  2  0  0  3  0  0  0  0  0  0
  157.9500  213.7850  148.6580 C   0  0  0  0  0  2  0  0  0  0  0  0
  157.5390  212.9780  151.5040 C   0  0  1  0  0  3  0  0  0  0  0  0
  160.0280  212.6040  153.1920 C   0  0  2  0  0  3  0  0  0  0  0  0
  161.1130  209.2700  152.4440 O   0  0  0  0  0  0  0  0  0  0  0  0
  160.8660  211.3760  153.6440 C   0  0  1  0  0  3  0  0  0  0  0  0
  162.3990  210.4680  156.3680 C   0  0  0  0  0  2  0  0  0  0  0  0
  159.4900  213.6920  157.2610 C   0  0  0  0  0  1  0  0  0  0  0  0
  158.9700  212.9230  149.4000 C   0  0  0  0  0  2  0  0  0  0  0  0
  158.9320  213.2290  150.9010 C   0  0  2  0  0  3  0  0  0  0  0  0
  159.7110  212.9250  155.9650 C   0  0  1  0  0  3  0  0  0  0  0  0
  155.7820  211.1330  154.2600 C   0  0  0  0  0  2  0  0  0  0  0  0
  154.4030  210.1700  156.0730 C   0  0  0  0  0  1  0  0  0  0  0  0
  155.7900  210.2210  155.4710 C   0  0  0  0  0  2  0  0  0  0  0  0
  1  5  1  1  0  0  0
  1  4  1  0  0  0  0
  2 16  2  0  0  0  0
  3 10  1  0  0  0  0
  4 12  1  1  0  0  0
  5 11  1  0  0  0  0
  7 15  1  6  0  0  0
  8  6  2  0  0  0  0
  9 14  1  1  0  0  0
  9  7  1  0  0  0  0
 10 22  1  0  0  0  0
 11 28  1  6  0  0  0
 11  8  1  0  0  0  0
 12  8  1  0  0  0  0
 12 27  1  0  0  0  0
 13  2  1  0  0  0  0
 14 23  1  0  0  0  0
 17  3  1  1  0  0  0
 17 20  1  0  0  0  0
 18 13  1  0  0  0  0
 18 25  1  0  0  0  0
 19  2  1  6  0  0  0
 19  1  1  0  0  0  0
 20 22  1  0  0  0  0
 20  4  1  0  0  0  0
 21 10  2  0  0  0  0
 22  9  1  0  0  0  0
 23 15  1  0  0  0  0
 25 26  1  0  0  0  0
 26 19  1  0  0  0  0
 26 17  1  0  0  0  0
 27  7  1  0  0  0  0
 27 24  1  0  0  0  0
 28 30  1  0  0  0  0
 30 29  1  0  0  0  0
M  END
>  <MODEL>
6

>  <REMARK>
 VINA RESULT:      -2.9      2.075      2.919
  Name = 
  2 active torsions:
  status: ('A' for Active; 'I' for Inactive)
    1  A    between atoms: C_11  and  C_28
    2  A    between atoms: C_28  and  C_30
                            x       y       z     vdW  Elec       q    Type
                         _______ _______ _______ _____ _____    ______ ____

>  <TORSDO>
F 2

$$$$
=
 OpenBabel11122412433D

 30 35  0  0  1  0  0  0  0  0999 V2000
  159.4550  209.9730  155.1900 C   0  0  2  0  0  3  0  0  0  0  0  0
  160.6910  207.8360  155.8720 C   0  0  0  0  0  0  0  0  0  0  0  0
  161.3460  209.8470  151.8390 N   0  0  0  0  0  2  0  0  0  0  0  0
  159.4630  211.0860  154.1290 C   0  0  2  0  0  3  0  0  0  0  0  0
  159.5370  210.4200  156.5520 O   0  0  0  0  0  0  0  0  0  0  0  0
  158.2970  213.7170  156.2570 O   0  0  0  0  0  0  0  0  0  0  0  0
  158.4200  213.6920  152.6260 C   0  0  1  0  0  3  0  0  0  0  0  0
  158.7800  212.6260  155.8530 C   0  0  0  0  0  0  0  0  0  0  0  0
  159.7490  213.1430  152.1070 C   0  0  2  0  0  3  0  0  0  0  0  0
  161.1030  211.1510  151.3530 C   0  0  0  0  0  0  0  0  0  0  0  0
  159.6920  211.8250  156.7370 C   0  0  2  0  0  3  0  0  0  0  0  0
  158.5380  212.1350  154.5320 N   0  0  0  0  0  0  0  0  0  0  0  0
  161.6030  206.6960  155.5450 C   0  0  0  0  0  2  0  0  0  0  0  0
  159.9810  214.0180  150.8990 C   0  0  0  0  0  2  0  0  0  0  0  0
  157.6300  214.0870  151.4700 N   0  0  0  0  0  2  0  0  0  0  0  0
  160.1010  207.8470  156.9420 O   0  0  0  0  0  0  0  0  0  0  0  0
  160.0840  209.3560  152.3600 C   0  0  2  0  0  3  0  0  0  0  0  0
  161.2410  206.1280  154.1760 C   0  0  0  0  0  2  0  0  0  0  0  0
  160.5490  208.9530  154.8580 C   0  0  1  0  0  3  0  0  0  0  0  0
  159.2300  210.6000  152.6830 C   0  0  2  0  0  3  0  0  0  0  0  0
  161.9650  211.7910  150.6940 O   0  0  0  0  0  0  0  0  0  0  0  0
  159.7310  211.6550  151.6580 C   0  0  1  0  0  3  0  0  0  0  0  0
  158.5970  214.4530  150.4410 C   0  0  0  0  0  2  0  0  0  0  0  0
  156.4270  213.4230  154.1680 C   0  0  0  0  0  1  0  0  0  0  0  0
  161.2440  207.2300  153.1180 C   0  0  0  0  0  2  0  0  0  0  0  0
  160.2370  208.3250  153.4890 C   0  0  2  0  0  3  0  0  0  0  0  0
  157.6430  212.7520  153.5430 C   0  0  1  0  0  3  0  0  0  0  0  0
  161.1430  212.2490  156.5510 C   0  0  0  0  0  2  0  0  0  0  0  0
  163.1070  210.7710  156.2850 C   0  0  0  0  0  1  0  0  0  0  0  0
  162.0700  211.2830  157.2610 C   0  0  0  0  0  2  0  0  0  0  0  0
  1  5  1  1  0  0  0
  2 16  2  0  0  0  0
  4 12  1  1  0  0  0
  4  1  1  0  0  0  0
  5 11  1  0  0  0  0
  7 15  1  6  0  0  0
  7 27  1  0  0  0  0
  8  6  2  0  0  0  0
  8 11  1  0  0  0  0
  9 14  1  6  0  0  0
  9  7  1  0  0  0  0
 10 22  1  0  0  0  0
 10  3  1  0  0  0  0
 11 28  1  6  0  0  0
 12  8  1  0  0  0  0
 13  2  1  0  0  0  0
 17  3  1  1  0  0  0
 17 20  1  0  0  0  0
 17 26  1  0  0  0  0
 18 13  1  0  0  0  0
 19  1  1  0  0  0  0
 19  2  1  1  0  0  0
 20  4  1  0  0  0  0
 21 10  2  0  0  0  0
 22  9  1  0  0  0  0
 22 20  1  0  0  0  0
 23 14  1  0  0  0  0
 23 15  1  0  0  0  0
 25 26  1  0  0  0  0
 25 18  1  0  0  0  0
 26 19  1  0  0  0  0
 27 24  1  0  0  0  0
 27 12  1  0  0  0  0
 28 30  1  0  0  0  0
 29 30  1  0  0  0  0
M  END
>  <MODEL>
7

>  <REMARK>
 VINA RESULT:      -2.8      2.053      5.661
  Name = 
  2 active torsions:
  status: ('A' for Active; 'I' for Inactive)
    1  A    between atoms: C_11  and  C_28
    2  A    between atoms: C_28  and  C_30
                            x       y       z     vdW  Elec       q    Type
                         _______ _______ _______ _____ _____    ______ ____

>  <TORSDO>
F 2

$$$$
=
 OpenBabel11122412433D

 30 35  0  0  1  0  0  0  0  0999 V2000
  160.4780  212.9720  151.1250 C   0  0  2  0  0  3  0  0  0  0  0  0
  161.0230  213.2460  148.6370 C   0  0  0  0  0  0  0  0  0  0  0  0
  161.4470  209.2600  150.7970 N   0  0  0  0  0  2  0  0  0  0  0  0
  160.2590  211.8950  152.2010 C   0  0  2  0  0  3  0  0  0  0  0  0
  159.4020  213.9080  150.9620 O   0  0  0  0  0  0  0  0  0  0  0  0
  157.8410  213.6990  154.1270 O   0  0  0  0  0  0  0  0  0  0  0  0
  159.7310  210.7620  155.1290 C   0  0  1  0  0  3  0  0  0  0  0  0
  158.5890  213.3300  153.1830 C   0  0  0  0  0  0  0  0  0  0  0  0
  159.7570  209.7020  154.0280 C   0  0  2  0  0  3  0  0  0  0  0  0
  160.9080  208.7430  151.9970 C   0  0  0  0  0  0  0  0  0  0  0  0
  158.2460  213.6720  151.7620 C   0  0  2  0  0  3  0  0  0  0  0  0
  159.7510  212.5270  153.4100 N   0  0  0  0  0  0  0  0  0  0  0  0
  161.5600  212.7010  147.3510 C   0  0  0  0  0  2  0  0  0  0  0  0
  159.6770  208.4300  154.8380 C   0  0  0  0  0  2  0  0  0  0  0  0
  160.4450  210.2200  156.2750 N   0  0  0  0  0  2  0  0  0  0  0  0
  160.7270  214.4290  148.7120 O   0  0  0  0  0  0  0  0  0  0  0  0
  162.1150  210.5000  151.1430 C   0  0  2  0  0  3  0  0  0  0  0  0
  162.8580  211.9450  147.6200 C   0  0  0  0  0  2  0  0  0  0  0  0
  160.8480  212.2930  149.8010 C   0  0  1  0  0  3  0  0  0  0  0  0
  161.4790  210.9880  152.4620 C   0  0  2  0  0  3  0  0  0  0  0  0
  160.3990  207.5920  152.0610 O   0  0  0  0  0  0  0  0  0  0  0  0
  161.0470  209.6680  153.1600 C   0  0  1  0  0  3  0  0  0  0  0  0
  160.2750  208.7740  156.1940 C   0  0  0  0  0  2  0  0  0  0  0  0
  160.0490  213.1840  155.8030 C   0  0  0  0  0  1  0  0  0  0  0  0
  162.6480  210.8770  148.6910 C   0  0  0  0  0  2  0  0  0  0  0  0
  162.1640  211.5210  149.9950 C   0  0  2  0  0  3  0  0  0  0  0  0
  160.2710  212.1310  154.7260 C   0  0  1  0  0  3  0  0  0  0  0  0
  157.3560  212.6010  151.1440 C   0  0  0  0  0  2  0  0  0  0  0  0
  155.9600  213.9620  149.6230 C   0  0  0  0  0  1  0  0  0  0  0  0
  157.0650  212.9310  149.6940 C   0  0  0  0  0  2  0  0  0  0  0  0
  1  5  1  6  0  0  0
  1  4  1  0  0  0  0
  2 16  2  0  0  0  0
  3 10  1  0  0  0  0
  4 20  1  0  0  0  0
  4 12  1  1  0  0  0
  5 11  1  0  0  0  0
  7 15  1  1  0  0  0
  8 12  1  0  0  0  0
  8  6  2  0  0  0  0
  9 14  1  1  0  0  0
  9  7  1  0  0  0  0
 10 21  2  0  0  0  0
 10 22  1  0  0  0  0
 11 28  1  6  0  0  0
 11  8  1  0  0  0  0
 12 27  1  0  0  0  0
 13 18  1  0  0  0  0
 13  2  1  0  0  0  0
 14 23  1  0  0  0  0
 17  3  1  6  0  0  0
 17 20  1  0  0  0  0
 18 25  1  0  0  0  0
 19  2  1  6  0  0  0
 19 26  1  0  0  0  0
 19  1  1  0  0  0  0
 20 22  1  0  0  0  0
 22  9  1  0  0  0  0
 23 15  1  0  0  0  0
 25 26  1  0  0  0  0
 26 17  1  0  0  0  0
 27  7  1  0  0  0  0
 27 24  1  0  0  0  0
 29 30  1  0  0  0  0
 30 28  1  0  0  0  0
M  END
>  <MODEL>
8

>  <REMARK>
 VINA RESULT:      -2.7      1.675      2.164
  Name = 
  2 active torsions:
  status: ('A' for Active; 'I' for Inactive)
    1  A    between atoms: C_11  and  C_28
    2  A    between atoms: C_28  and  C_30
                            x       y       z     vdW  Elec       q    Type
                         _______ _______ _______ _____ _____    ______ ____

>  <TORSDO>
F 2

$$$$
=
 OpenBabel11122412433D

 30 35  0  0  1  0  0  0  0  0999 V2000
  161.9390  208.9140  151.8830 C   0  0  2  0  0  3  0  0  0  0  0  0
  161.4520  207.3740  153.8700 C   0  0  0  0  0  0  0  0  0  0  0  0
  159.0550  211.1640  153.0820 N   0  0  0  0  0  2  0  0  0  0  0  0
  161.3470  210.0980  151.1000 C   0  0  2  0  0  3  0  0  0  0  0  0
  162.2560  207.7540  151.1000 O   0  0  0  0  0  0  0  0  0  0  0  0
  162.6610  209.1920  147.8960 O   0  0  0  0  0  0  0  0  0  0  0  0
  161.2810  212.3990  148.9000 C   0  0  1  0  0  3  0  0  0  0  0  0
  162.2850  209.1380  149.0960 C   0  0  0  0  0  0  0  0  0  0  0  0
  159.9850  212.2350  149.6940 C   0  0  2  0  0  3  0  0  0  0  0  0
  158.8590  211.9690  151.9370 C   0  0  0  0  0  0  0  0  0  0  0  0
  161.9110  207.8230  149.7180 C   0  0  2  0  0  3  0  0  0  0  0  0
  162.1370  210.3150  149.8960 N   0  0  0  0  0  0  0  0  0  0  0  0
  160.7180  207.0750  155.1400 C   0  0  0  0  0  2  0  0  0  0  0  0
  159.1820  213.4150  149.2000 C   0  0  0  0  0  2  0  0  0  0  0  0
  161.5250  213.8260  148.7530 N   0  0  0  0  0  2  0  0  0  0  0  0
  162.3660  206.6440  153.5170 O   0  0  0  0  0  0  0  0  0  0  0  0
  160.4880  211.0820  153.2910 C   0  0  2  0  0  3  0  0  0  0  0  0
  160.6790  208.3250  156.0140 C   0  0  0  0  0  2  0  0  0  0  0  0
  161.0140  208.5740  153.0570 C   0  0  1  0  0  3  0  0  0  0  0  0
  161.1470  211.3840  151.9290 C   0  0  2  0  0  3  0  0  0  0  0  0
  157.7160  212.3620  151.5830 O   0  0  0  0  0  0  0  0  0  0  0  0
  160.1270  212.3320  151.2400 C   0  0  1  0  0  3  0  0  0  0  0  0
  160.2080  214.4530  148.7700 C   0  0  0  0  0  2  0  0  0  0  0  0
  163.7000  211.7300  148.5530 C   0  0  0  0  0  1  0  0  0  0  0  0
  160.0960  209.5050  155.2400 C   0  0  0  0  0  2  0  0  0  0  0  0
  160.9400  209.7920  153.9930 C   0  0  2  0  0  3  0  0  0  0  0  0
  162.4940  211.6790  149.4810 C   0  0  1  0  0  3  0  0  0  0  0  0
  160.4350  207.5180  149.5020 C   0  0  0  0  0  2  0  0  0  0  0  0
  160.8730  205.0880  149.3840 C   0  0  0  0  0  1  0  0  0  0  0  0
  160.2720  206.2710  148.6560 C   0  0  0  0  0  2  0  0  0  0  0  0
  1  5  1  6  0  0  0
  1 19  1  0  0  0  0
  2 13  1  0  0  0  0
  4 12  1  6  0  0  0
  4  1  1  0  0  0  0
  4 20  1  0  0  0  0
  6  8  2  0  0  0  0
  7 15  1  1  0  0  0
  7 27  1  0  0  0  0
  7  9  1  0  0  0  0
  8 11  1  0  0  0  0
  8 12  1  0  0  0  0
  9 14  1  6  0  0  0
  9 22  1  0  0  0  0
 10  3  1  0  0  0  0
 11 28  1  1  0  0  0
 11  5  1  0  0  0  0
 13 18  1  0  0  0  0
 15 23  1  0  0  0  0
 16  2  2  0  0  0  0
 17  3  1  6  0  0  0
 17 26  1  0  0  0  0
 19  2  1  1  0  0  0
 19 26  1  0  0  0  0
 20 17  1  0  0  0  0
 21 10  2  0  0  0  0
 22 20  1  0  0  0  0
 22 10  1  0  0  0  0
 23 14  1  0  0  0  0
 24 27  1  0  0  0  0
 25 18  1  0  0  0  0
 26 25  1  0  0  0  0
 27 12  1  0  0  0  0
 30 29  1  0  0  0  0
 30 28  1  0  0  0  0
M  END
>  <MODEL>
9

>  <REMARK>
 VINA RESULT:      -2.6      2.491      7.012
  Name = 
  2 active torsions:
  status: ('A' for Active; 'I' for Inactive)
    1  A    between atoms: C_11  and  C_28
    2  A    between atoms: C_28  and  C_30
                            x       y       z     vdW  Elec       q    Type
                         _______ _______ _______ _____ _____    ______ ____

>  <TORSDO>
F 2

$$$$
