=
 OpenBabel11122414153D

 34 40  0  0  1  0  0  0  0  0999 V2000
  161.7740  207.7610  149.6810 C   0  0  0  0  0  0  0  0  0  0  0  0
  161.8620  209.9860  150.9190 C   0  0  0  0  0  2  0  0  0  0  0  0
  159.7030  201.6260  149.1630 C   0  0  0  0  0  0  0  0  0  0  0  0
  161.3110  205.6200  148.6290 C   0  0  0  0  0  0  0  0  0  0  0  0
  161.1920  203.5250  150.0850 C   0  0  2  0  0  3  0  0  0  0  0  0
  161.6190  201.1300  150.6610 C   0  0  0  0  0  1  0  0  0  0  0  0
  158.5290  201.2520  149.4170 O   0  0  0  0  0  0  0  0  0  0  0  0
  161.3340  202.1520  147.2720 C   0  0  0  0  0  3  0  0  0  0  0  0
  162.1180  207.9410  152.1780 C   0  0  2  0  0  3  0  0  0  0  0  0
  160.2250  207.9280  154.8060 C   0  0  0  0  0  3  0  0  0  0  0  0
  160.7400  204.4640  151.1920 C   0  0  0  0  0  2  0  0  0  0  0  0
  161.7020  203.3740  147.6600 C   0  0  0  0  0  3  0  0  0  0  0  0
  161.2450  206.6820  152.2900 C   0  0  1  0  0  3  0  0  0  0  0  0
  162.0140  210.3490  152.3870 C   0  0  0  0  0  2  0  0  0  0  0  0
  160.9560  204.1490  148.6990 C   0  0  2  0  0  3  0  0  0  0  0  0
  160.2210  201.4480  147.8370 N   0  0  0  0  0  2  0  0  0  0  0  0
  160.3670  208.9700  153.7250 C   0  0  2  0  0  3  0  0  0  0  0  0
  161.5430  206.3780  149.7980 C   0  0  0  0  0  0  0  0  0  0  0  0
  160.5550  202.1450  150.2900 C   0  0  2  0  0  3  0  0  0  0  0  0
  161.6150  205.7120  151.1600 C   0  0  2  0  0  3  0  0  0  0  0  0
  161.4950  207.5830  147.2930 C   0  0  0  0  0  3  0  0  0  0  0  0
  160.6730  206.6630  154.7540 C   0  0  0  0  0  3  0  0  0  0  0  0
  161.2770  206.2480  147.4210 N   0  0  0  0  0  0  0  0  0  0  0  0
  161.4920  206.0450  153.6510 C   0  0  0  0  0  2  0  0  0  0  0  0
  161.8070  209.0580  153.1840 C   0  0  1  0  0  3  0  0  0  0  0  0
  161.7450  208.3640  148.4200 C   0  0  0  0  0  3  0  0  0  0  0  0
  161.9830  208.5440  150.8650 N   0  0  0  0  0  0  0  0  0  0  0  0
  159.9460  210.2030  154.2330 O   0  0  0  0  0  0  0  0  0  0  0  0
  160.1910  210.1260  155.6070 C   0  0  0  0  0  2  0  0  0  0  0  0
  159.4870  213.2960  155.3060 O   0  0  0  0  0  0  0  0  0  0  0  0
  158.0850  211.4210  155.5970 C   0  0  0  0  0  2  0  0  0  0  0  0
  159.3640  211.1680  156.3410 C   0  0  2  0  0  3  0  0  0  0  0  0
  158.1470  212.8910  155.2600 C   0  0  0  0  0  2  0  0  0  0  0  0
  160.0780  212.4990  156.2990 C   0  0  0  0  0  2  0  0  0  0  0  0
  1 18  1  0  0  0  0
  1 27  1  0  0  0  0
  2 14  1  0  0  0  0
  3  7  2  0  0  0  0
  3 19  1  0  0  0  0
  4 15  1  0  0  0  0
  4 18  2  0  0  0  0
  5 19  1  0  0  0  0
  5 11  1  1  0  0  0
  8 12  2  0  0  0  0
  8 16  1  0  0  0  0
  9 27  1  6  0  0  0
  9 13  1  0  0  0  0
  9 25  1  0  0  0  0
 13 24  1  1  0  0  0
 15 12  1  6  0  0  0
 15  5  1  0  0  0  0
 16  3  1  0  0  0  0
 17 28  1  1  0  0  0
 17 10  1  0  0  0  0
 18 20  1  0  0  0  0
 19  6  1  6  0  0  0
 20 11  1  6  0  0  0
 20 13  1  0  0  0  0
 21 23  2  0  0  0  0
 21 26  1  0  0  0  0
 22 10  2  0  0  0  0
 23  4  1  0  0  0  0
 24 22  1  0  0  0  0
 25 14  1  6  0  0  0
 25 17  1  0  0  0  0
 26  1  2  0  0  0  0
 27  2  1  0  0  0  0
 28 29  1  0  0  0  0
 30 34  1  0  0  0  0
 31 32  1  0  0  0  0
 32 29  1  6  0  0  0
 33 30  1  0  0  0  0
 33 31  1  0  0  0  0
 34 32  1  0  0  0  0
M  END
>  <MODEL>
1

>  <REMARK>
 VINA RESULT:      -9.4      0.000      0.000
  Name = 
  3 active torsions:
  status: ('A' for Active; 'I' for Inactive)
    1  A    between atoms: C_17  and  O_28
    2  A    between atoms: O_28  and  C_29
    3  A    between atoms: C_29  and  C_32
                            x       y       z     vdW  Elec       q    Type
                         _______ _______ _______ _____ _____    ______ ____

>  <TORSDO>
F 3

$$$$
=
 OpenBabel11122414153D

 34 40  0  0  1  0  0  0  0  0999 V2000
  160.8330  208.2460  154.1120 C   0  0  0  0  0  0  0  0  0  0  0  0
  161.6620  205.9110  153.5180 C   0  0  0  0  0  2  0  0  0  0  0  0
  157.9490  213.8340  152.4870 C   0  0  0  0  0  0  0  0  0  0  0  0
  159.7390  210.3930  154.4280 C   0  0  0  0  0  0  0  0  0  0  0  0
  159.9050  212.1500  152.5820 C   0  0  2  0  0  3  0  0  0  0  0  0
  160.2040  214.4530  151.6570 C   0  0  0  0  0  1  0  0  0  0  0  0
  156.9170  213.9160  151.7710 O   0  0  0  0  0  0  0  0  0  0  0  0
  158.8080  213.9690  154.8860 C   0  0  0  0  0  3  0  0  0  0  0  0
  162.1050  207.7290  151.9910 C   0  0  2  0  0  3  0  0  0  0  0  0
  161.3470  206.9240  148.9460 C   0  0  0  0  0  3  0  0  0  0  0  0
  160.0240  210.9690  151.6320 C   0  0  0  0  0  2  0  0  0  0  0  0
  159.4470  212.8000  154.9350 C   0  0  0  0  0  3  0  0  0  0  0  0
  161.1830  208.7490  151.3060 C   0  0  1  0  0  3  0  0  0  0  0  0
  162.3970  205.3490  152.3120 C   0  0  0  0  0  2  0  0  0  0  0  0
  159.2500  211.7280  153.9090 C   0  0  2  0  0  3  0  0  0  0  0  0
  157.9060  214.3300  153.8320 N   0  0  0  0  0  2  0  0  0  0  0  0
  161.2070  206.1260  150.2180 C   0  0  2  0  0  3  0  0  0  0  0  0
  160.4870  209.5150  153.6120 C   0  0  0  0  0  0  0  0  0  0  0  0
  159.2190  213.3200  151.8660 C   0  0  2  0  0  3  0  0  0  0  0  0
  160.9760  209.9470  152.2430 C   0  0  2  0  0  3  0  0  0  0  0  0
  159.6620  208.7550  156.1570 C   0  0  0  0  0  3  0  0  0  0  0  0
  161.5760  208.2450  148.8580 C   0  0  0  0  0  3  0  0  0  0  0  0
  159.3380  209.9790  155.6620 N   0  0  0  0  0  0  0  0  0  0  0  0
  161.8370  209.1890  150.0020 C   0  0  0  0  0  2  0  0  0  0  0  0
  162.3390  206.4220  151.2210 C   0  0  1  0  0  3  0  0  0  0  0  0
  160.4120  207.8660  155.3890 C   0  0  0  0  0  3  0  0  0  0  0  0
  161.5680  207.3360  153.2800 N   0  0  0  0  0  0  0  0  0  0  0  0
  161.1680  204.7660  149.8910 O   0  0  0  0  0  0  0  0  0  0  0  0
  160.8090  204.7330  148.5410 C   0  0  0  0  0  2  0  0  0  0  0  0
  160.5030  202.0690  146.6860 O   0  0  0  0  0  0  0  0  0  0  0  0
  161.6720  204.0850  146.3160 C   0  0  0  0  0  2  0  0  0  0  0  0
  161.7190  203.7800  147.7850 C   0  0  2  0  0  3  0  0  0  0  0  0
  161.1700  202.8030  145.6970 C   0  0  0  0  0  2  0  0  0  0  0  0
  161.1690  202.3750  147.8820 C   0  0  0  0  0  2  0  0  0  0  0  0
  1 26  1  0  0  0  0
  3 16  1  0  0  0  0
  4 23  2  0  0  0  0
  5 11  1  6  0  0  0
  5 15  1  0  0  0  0
  7  3  2  0  0  0  0
  8 12  2  0  0  0  0
  9 27  1  1  0  0  0
 10 17  1  0  0  0  0
 13 24  1  6  0  0  0
 13  9  1  0  0  0  0
 13 20  1  0  0  0  0
 14  2  1  0  0  0  0
 15  4  1  0  0  0  0
 15 12  1  1  0  0  0
 16  8  1  0  0  0  0
 17 28  1  6  0  0  0
 17 25  1  0  0  0  0
 18  1  2  0  0  0  0
 18  4  1  0  0  0  0
 19  6  1  1  0  0  0
 19  3  1  0  0  0  0
 19  5  1  0  0  0  0
 20 11  1  6  0  0  0
 20 18  1  0  0  0  0
 22 10  2  0  0  0  0
 22 24  1  0  0  0  0
 23 21  1  0  0  0  0
 25  9  1  0  0  0  0
 25 14  1  1  0  0  0
 26 21  2  0  0  0  0
 27  2  1  0  0  0  0
 27  1  1  0  0  0  0
 29 28  1  0  0  0  0
 30 34  1  0  0  0  0
 31 32  1  0  0  0  0
 32 34  1  0  0  0  0
 32 29  1  1  0  0  0
 33 31  1  0  0  0  0
 33 30  1  0  0  0  0
M  END
>  <MODEL>
2

>  <REMARK>
 VINA RESULT:      -8.2      2.617      9.301
  Name = 
  3 active torsions:
  status: ('A' for Active; 'I' for Inactive)
    1  A    between atoms: C_17  and  O_28
    2  A    between atoms: O_28  and  C_29
    3  A    between atoms: C_29  and  C_32
                            x       y       z     vdW  Elec       q    Type
                         _______ _______ _______ _____ _____    ______ ____

>  <TORSDO>
F 3

$$$$
=
 OpenBabel11122414153D

 34 40  0  0  1  0  0  0  0  0999 V2000
  160.8480  207.8500  154.1710 C   0  0  0  0  0  0  0  0  0  0  0  0
  162.0020  205.9830  152.8780 C   0  0  0  0  0  2  0  0  0  0  0  0
  157.2100  213.2290  154.3480 C   0  0  0  0  0  0  0  0  0  0  0  0
  159.4590  209.6020  155.1250 C   0  0  0  0  0  0  0  0  0  0  0  0
  159.3840  211.8840  153.9810 C   0  0  2  0  0  3  0  0  0  0  0  0
  159.3600  214.3820  153.8920 C   0  0  0  0  0  1  0  0  0  0  0  0
  156.1810  213.4100  153.6480 O   0  0  0  0  0  0  0  0  0  0  0  0
  158.0290  212.6590  156.6980 C   0  0  0  0  0  3  0  0  0  0  0  0
  162.1910  208.2500  152.0680 C   0  0  2  0  0  3  0  0  0  0  0  0
  161.5710  208.4260  148.8940 C   0  0  0  0  0  3  0  0  0  0  0  0
  159.6750  211.1180  152.7000 C   0  0  0  0  0  2  0  0  0  0  0  0
  158.8270  211.6370  156.3880 C   0  0  0  0  0  3  0  0  0  0  0  0
  161.1380  209.3110  151.7150 C   0  0  1  0  0  3  0  0  0  0  0  0
  162.8160  205.9610  151.5940 C   0  0  0  0  0  2  0  0  0  0  0  0
  158.7890  210.9570  155.0550 C   0  0  2  0  0  3  0  0  0  0  0  0
  157.0910  213.2320  155.7780 N   0  0  0  0  0  2  0  0  0  0  0  0
  161.5390  207.2350  149.8190 C   0  0  2  0  0  3  0  0  0  0  0  0
  160.3280  209.1560  154.1040 C   0  0  0  0  0  0  0  0  0  0  0  0
  158.5440  213.1250  153.6590 C   0  0  2  0  0  3  0  0  0  0  0  0
  160.7580  210.0850  152.9840 C   0  0  2  0  0  3  0  0  0  0  0  0
  159.6050  207.4820  156.2040 C   0  0  0  0  0  3  0  0  0  0  0  0
  161.6120  209.7170  149.2630 C   0  0  0  0  0  3  0  0  0  0  0  0
  159.1140  208.7470  156.1280 N   0  0  0  0  0  0  0  0  0  0  0  0
  161.7300  210.2460  150.6680 C   0  0  0  0  0  2  0  0  0  0  0  0
  162.6120  207.3220  150.9210 C   0  0  1  0  0  3  0  0  0  0  0  0
  160.4780  207.0100  155.2250 C   0  0  0  0  0  3  0  0  0  0  0  0
  161.7090  207.3790  153.1240 N   0  0  0  0  0  0  0  0  0  0  0  0
  161.6940  206.0720  149.0570 O   0  0  0  0  0  0  0  0  0  0  0  0
  160.7150  206.1620  148.0630 C   0  0  0  0  0  2  0  0  0  0  0  0
  162.5020  205.8870  145.3500 O   0  0  0  0  0  0  0  0  0  0  0  0
  162.3000  204.4610  147.2200 C   0  0  0  0  0  2  0  0  0  0  0  0
  160.9710  205.1200  146.9870 C   0  0  2  0  0  3  0  0  0  0  0  0
  163.0790  204.7660  145.9630 C   0  0  0  0  0  2  0  0  0  0  0  0
  161.1340  205.8060  145.6510 C   0  0  0  0  0  2  0  0  0  0  0  0
  1 26  1  0  0  0  0
  2 27  1  0  0  0  0
  3 16  1  0  0  0  0
  4 23  2  0  0  0  0
  5 11  1  6  0  0  0
  5 15  1  0  0  0  0
  7  3  2  0  0  0  0
  9 27  1  1  0  0  0
 10 22  2  0  0  0  0
 10 17  1  0  0  0  0
 12  8  2  0  0  0  0
 13 24  1  6  0  0  0
 13  9  1  0  0  0  0
 13 20  1  0  0  0  0
 14  2  1  0  0  0  0
 15  4  1  0  0  0  0
 15 12  1  1  0  0  0
 16  8  1  0  0  0  0
 17 28  1  6  0  0  0
 17 25  1  0  0  0  0
 18  1  2  0  0  0  0
 18  4  1  0  0  0  0
 19  6  1  1  0  0  0
 19  5  1  0  0  0  0
 19  3  1  0  0  0  0
 20 11  1  6  0  0  0
 20 18  1  0  0  0  0
 22 24  1  0  0  0  0
 23 21  1  0  0  0  0
 25 14  1  1  0  0  0
 25  9  1  0  0  0  0
 26 21  2  0  0  0  0
 27  1  1  0  0  0  0
 29 28  1  0  0  0  0
 30 34  1  0  0  0  0
 30 33  1  0  0  0  0
 32 31  1  0  0  0  0
 32 29  1  1  0  0  0
 33 31  1  0  0  0  0
 34 32  1  0  0  0  0
M  END
>  <MODEL>
3

>  <REMARK>
 VINA RESULT:      -7.7      2.912      9.219
  Name = 
  3 active torsions:
  status: ('A' for Active; 'I' for Inactive)
    1  A    between atoms: C_17  and  O_28
    2  A    between atoms: O_28  and  C_29
    3  A    between atoms: C_29  and  C_32
                            x       y       z     vdW  Elec       q    Type
                         _______ _______ _______ _____ _____    ______ ____

>  <TORSDO>
F 3

$$$$
=
 OpenBabel11122414153D

 34 40  0  0  1  0  0  0  0  0999 V2000
  161.4800  208.5670  149.6720 C   0  0  0  0  0  0  0  0  0  0  0  0
  161.5980  207.2710  147.4820 C   0  0  0  0  0  2  0  0  0  0  0  0
  161.8680  208.8170  156.1520 C   0  0  0  0  0  0  0  0  0  0  0  0
  161.6650  209.5610  151.8820 C   0  0  0  0  0  0  0  0  0  0  0  0
  160.7310  208.2910  153.8930 C   0  0  2  0  0  3  0  0  0  0  0  0
  159.5100  208.0490  156.0600 C   0  0  0  0  0  1  0  0  0  0  0  0
  162.7480  208.2280  156.8310 O   0  0  0  0  0  0  0  0  0  0  0  0
  161.1490  211.0900  155.2380 C   0  0  0  0  0  3  0  0  0  0  0  0
  160.4020  206.3050  149.3440 C   0  0  2  0  0  3  0  0  0  0  0  0
  161.2560  203.2170  149.8200 C   0  0  0  0  0  3  0  0  0  0  0  0
  161.0330  207.0360  153.0890 C   0  0  0  0  0  2  0  0  0  0  0  0
  161.0200  210.7570  153.9530 C   0  0  0  0  0  3  0  0  0  0  0  0
  160.8170  206.0070  150.7930 C   0  0  1  0  0  3  0  0  0  0  0  0
  161.0790  205.9080  147.0560 C   0  0  0  0  0  2  0  0  0  0  0  0
  161.5660  209.4820  153.3910 C   0  0  2  0  0  3  0  0  0  0  0  0
  161.7830  210.2480  156.2100 N   0  0  0  0  0  2  0  0  0  0  0  0
  161.7610  204.2120  148.8060 C   0  0  2  0  0  3  0  0  0  0  0  0
  161.2770  208.4770  151.0620 C   0  0  0  0  0  0  0  0  0  0  0  0
  160.8690  207.9900  155.3900 C   0  0  2  0  0  3  0  0  0  0  0  0
  160.5880  207.2600  151.6490 C   0  0  2  0  0  3  0  0  0  0  0  0
  162.4640  210.7470  149.9770 C   0  0  0  0  0  3  0  0  0  0  0  0
  160.5250  203.4970  150.9110 C   0  0  0  0  0  3  0  0  0  0  0  0
  162.2590  210.6480  151.3170 N   0  0  0  0  0  0  0  0  0  0  0  0
  159.9760  204.8440  151.3040 C   0  0  0  0  0  2  0  0  0  0  0  0
  160.6570  205.1780  148.3340 C   0  0  1  0  0  3  0  0  0  0  0  0
  162.0810  209.7070  149.1310 C   0  0  0  0  0  3  0  0  0  0  0  0
  161.1160  207.4610  148.8340 N   0  0  0  0  0  0  0  0  0  0  0  0
  162.3110  203.5120  147.7260 O   0  0  0  0  0  0  0  0  0  0  0  0
  161.3530  202.5460  147.4030 C   0  0  0  0  0  2  0  0  0  0  0  0
  159.3130  201.5310  145.0710 O   0  0  0  0  0  0  0  0  0  0  0  0
  160.7990  203.3630  145.1360 C   0  0  0  0  0  2  0  0  0  0  0  0
  161.4110  202.2360  145.9160 C   0  0  2  0  0  3  0  0  0  0  0  0
  159.6550  202.7120  144.3980 C   0  0  0  0  0  2  0  0  0  0  0  0
  160.5170  201.0560  145.6130 C   0  0  0  0  0  2  0  0  0  0  0  0
  1 18  1  0  0  0  0
  2 27  1  0  0  0  0
  3 16  1  0  0  0  0
  3  7  2  0  0  0  0
  4 15  1  0  0  0  0
  5 11  1  6  0  0  0
  5 19  1  0  0  0  0
  8 16  1  0  0  0  0
  9 27  1  6  0  0  0
  9 13  1  0  0  0  0
 10 22  2  0  0  0  0
 12  8  2  0  0  0  0
 13 24  1  1  0  0  0
 13 20  1  0  0  0  0
 14  2  1  0  0  0  0
 15  5  1  0  0  0  0
 15 12  1  6  0  0  0
 17 28  1  6  0  0  0
 17 10  1  0  0  0  0
 18 20  1  0  0  0  0
 18  4  2  0  0  0  0
 19  6  1  1  0  0  0
 19  3  1  0  0  0  0
 20 11  1  1  0  0  0
 21 23  2  0  0  0  0
 22 24  1  0  0  0  0
 23  4  1  0  0  0  0
 25 14  1  6  0  0  0
 25 17  1  0  0  0  0
 25  9  1  0  0  0  0
 26  1  2  0  0  0  0
 26 21  1  0  0  0  0
 27  1  1  0  0  0  0
 29 28  1  0  0  0  0
 30 34  1  0  0  0  0
 31 32  1  0  0  0  0
 32 29  1  1  0  0  0
 33 30  1  0  0  0  0
 33 31  1  0  0  0  0
 34 32  1  0  0  0  0
M  END
>  <MODEL>
4

>  <REMARK>
 VINA RESULT:      -7.3      2.343      8.601
  Name = 
  3 active torsions:
  status: ('A' for Active; 'I' for Inactive)
    1  A    between atoms: C_17  and  O_28
    2  A    between atoms: O_28  and  C_29
    3  A    between atoms: C_29  and  C_32
                            x       y       z     vdW  Elec       q    Type
                         _______ _______ _______ _____ _____    ______ ____

>  <TORSDO>
F 3

$$$$
