=
 OpenBabel11122412443D

 30 35  0  0  1  0  0  0  0  0999 V2000
  160.0750  212.1630  151.7730 C   0  0  2  0  0  3  0  0  0  0  0  0
  160.7080  213.2780  149.5180 C   0  0  0  0  0  0  0  0  0  0  0  0
  161.5830  208.7510  150.6350 N   0  0  0  0  0  2  0  0  0  0  0  0
  160.0110  210.7770  152.4330 C   0  0  2  0  0  3  0  0  0  0  0  0
  158.7610  212.6230  151.5760 O   0  0  0  0  0  0  0  0  0  0  0  0
  157.2350  211.8910  154.5930 O   0  0  0  0  0  0  0  0  0  0  0  0
  160.6150  209.2860  155.1930 C   0  0  2  0  0  3  0  0  0  0  0  0
  158.1340  211.9100  153.7650 C   0  0  0  0  0  0  0  0  0  0  0  0
  160.3970  208.4080  154.0430 N   0  0  2  0  0  0  0  0  0  0  0  0
  161.2700  207.9630  151.7660 C   0  0  0  0  0  0  0  0  0  0  0  0
  158.3060  213.0800  152.8250 C   0  0  2  0  0  3  0  0  0  0  0  0
  159.1380  210.7850  153.7230 C   0  0  2  0  0  3  0  0  0  0  0  0
  161.5430  213.3370  148.3600 N   0  0  0  0  0  0  0  0  0  0  0  0
  160.6280  207.0720  154.5810 C   0  0  0  0  0  2  0  0  0  0  0  0
  160.1500  208.5450  156.4240 C   0  0  0  0  0  2  0  0  0  0  0  0
  159.9160  214.2280  149.7510 O   0  0  0  0  0  0  0  0  0  0  0  0
  162.0220  210.0430  151.1380 C   0  0  2  0  0  3  0  0  0  0  0  0
  162.3510  212.3740  148.0450 C   0  0  0  0  0  3  0  0  0  0  0  0
  160.8220  212.1360  150.4560 C   0  0  0  0  0  0  0  0  0  0  0  0
  161.4290  210.1720  152.5520 C   0  0  2  0  0  3  0  0  0  0  0  0
  160.9440  206.7500  151.6740 O   0  0  0  0  0  0  0  0  0  0  0  0
  161.4370  208.7030  153.0490 C   0  0  1  0  0  3  0  0  0  0  0  0
  160.2290  207.0870  156.0440 C   0  0  0  0  0  2  0  0  0  0  0  0
  160.8410  211.7780  155.3230 C   0  0  0  0  0  1  0  0  0  0  0  0
  162.4330  211.1050  148.8450 C   0  0  0  0  0  2  0  0  0  0  0  0
  161.7170  211.1610  150.1740 C   0  0  0  0  0  0  0  0  0  0  0  0
  159.8840  210.6260  155.0590 C   0  0  2  0  0  3  0  0  0  0  0  0
  157.0060  213.8500  152.6400 C   0  0  0  0  0  2  0  0  0  0  0  0
  155.2910  214.4510  150.9610 C   0  0  0  0  0  1  0  0  0  0  0  0
  156.7470  214.0940  151.1660 C   0  0  0  0  0  2  0  0  0  0  0  0
  1 19  1  6  0  0  0
  1  4  1  0  0  0  0
  2 16  2  0  0  0  0
  2 19  1  0  0  0  0
  3 17  1  0  0  0  0
  3 10  1  0  0  0  0
  4 20  1  0  0  0  0
  4 12  1  0  0  0  0
  5  1  1  0  0  0  0
  5 11  1  0  0  0  0
  7 15  1  0  0  0  0
  8  6  2  0  0  0  0
  9 14  1  0  0  0  0
  9  7  1  0  0  0  0
 10 22  1  0  0  0  0
 11  8  1  0  0  0  0
 12  8  1  0  0  0  0
 12 27  1  0  0  0  0
 13  2  1  0  0  0  0
 14 23  1  0  0  0  0
 17 20  1  0  0  0  0
 18 13  2  0  0  0  0
 18 25  1  0  0  0  0
 20 22  1  0  0  0  0
 21 10  2  0  0  0  0
 22  9  1  0  0  0  0
 23 15  1  0  0  0  0
 25 26  1  0  0  0  0
 26 19  2  0  0  0  0
 26 17  1  0  0  0  0
 27  7  1  0  0  0  0
 27 24  1  0  0  0  0
 28 11  1  0  0  0  0
 29 30  1  0  0  0  0
 30 28  1  0  0  0  0
M  END
>  <MODEL>
1

>  <REMARK>
 VINA RESULT:      -6.5      0.000      0.000
  Name = 
  2 active torsions:
  status: ('A' for Active; 'I' for Inactive)
    1  A    between atoms: C_11  and  C_28
    2  A    between atoms: C_28  and  C_30
                            x       y       z     vdW  Elec       q    Type
                         _______ _______ _______ _____ _____    ______ ____

>  <TORSDO>
F 2

$$$$
=
 OpenBabel11122412443D

 30 35  0  0  1  0  0  0  0  0999 V2000
  160.7200  211.8620  151.4920 C   0  0  2  0  0  3  0  0  0  0  0  0
  161.1930  213.5630  149.5910 C   0  0  0  0  0  0  0  0  0  0  0  0
  161.7860  208.8700  149.2270 N   0  0  0  0  0  2  0  0  0  0  0  0
  160.6090  210.3480  151.7260 C   0  0  2  0  0  3  0  0  0  0  0  0
  159.4390  212.4260  151.6120 O   0  0  0  0  0  0  0  0  0  0  0  0
  158.2010  210.9100  154.4640 O   0  0  0  0  0  0  0  0  0  0  0  0
  161.3840  208.0750  153.8330 C   0  0  2  0  0  3  0  0  0  0  0  0
  159.0000  211.1270  153.5650 C   0  0  0  0  0  0  0  0  0  0  0  0
  160.9630  207.5900  152.5170 N   0  0  2  0  0  0  0  0  0  0  0  0
  161.5330  207.7980  150.1140 C   0  0  0  0  0  0  0  0  0  0  0  0
  159.1680  212.5140  152.9890 C   0  0  2  0  0  3  0  0  0  0  0  0
  159.8900  210.0160  153.0670 C   0  0  2  0  0  3  0  0  0  0  0  0
  161.8950  213.9200  148.3990 N   0  0  0  0  0  0  0  0  0  0  0  0
  161.1340  206.1450  152.6120 C   0  0  0  0  0  2  0  0  0  0  0  0
  160.9970  207.0260  154.8480 C   0  0  0  0  0  2  0  0  0  0  0  0
  160.5190  214.4400  150.1910 O   0  0  0  0  0  0  0  0  0  0  0  0
  162.3900  209.9300  150.0190 C   0  0  2  0  0  3  0  0  0  0  0  0
  162.5750  213.0550  147.7150 C   0  0  0  0  0  3  0  0  0  0  0  0
  161.3110  212.1890  150.1350 C   0  0  0  0  0  0  0  0  0  0  0  0
  161.9730  209.6620  151.4760 C   0  0  2  0  0  3  0  0  0  0  0  0
  161.0930  206.6860  149.7200 O   0  0  0  0  0  0  0  0  0  0  0  0
  161.9070  208.1140  151.5220 C   0  0  1  0  0  3  0  0  0  0  0  0
  160.9050  205.7450  154.0560 C   0  0  0  0  0  2  0  0  0  0  0  0
  161.8420  210.4000  154.6450 C   0  0  0  0  0  1  0  0  0  0  0  0
  162.6340  211.6030  148.0970 C   0  0  0  0  0  2  0  0  0  0  0  0
  162.0790  211.2980  149.4680 C   0  0  0  0  0  0  0  0  0  0  0  0
  160.7640  209.4300  154.1890 C   0  0  2  0  0  3  0  0  0  0  0  0
  157.9280  213.3690  153.2080 C   0  0  0  0  0  2  0  0  0  0  0  0
  156.7440  214.1920  155.2190 C   0  0  0  0  0  1  0  0  0  0  0  0
  158.0680  214.1760  154.4840 C   0  0  0  0  0  2  0  0  0  0  0  0
  1 19  1  6  0  0  0
  1  5  1  0  0  0  0
  1  4  1  0  0  0  0
  2 19  1  0  0  0  0
  2 16  2  0  0  0  0
  3 17  1  0  0  0  0
  3 10  1  0  0  0  0
  4 12  1  0  0  0  0
  5 11  1  0  0  0  0
  7 27  1  0  0  0  0
  7 15  1  0  0  0  0
  8  6  2  0  0  0  0
  9 14  1  0  0  0  0
  9  7  1  0  0  0  0
 10 22  1  0  0  0  0
 11 28  1  0  0  0  0
 11  8  1  0  0  0  0
 12  8  1  0  0  0  0
 12 27  1  0  0  0  0
 13  2  1  0  0  0  0
 14 23  1  0  0  0  0
 17 20  1  0  0  0  0
 18 25  1  0  0  0  0
 18 13  2  0  0  0  0
 20 22  1  0  0  0  0
 20  4  1  0  0  0  0
 21 10  2  0  0  0  0
 22  9  1  0  0  0  0
 23 15  1  0  0  0  0
 25 26  1  0  0  0  0
 26 17  1  0  0  0  0
 26 19  2  0  0  0  0
 27 24  1  0  0  0  0
 28 30  1  0  0  0  0
 30 29  1  0  0  0  0
M  END
>  <MODEL>
2

>  <REMARK>
 VINA RESULT:      -5.7      1.386      1.746
  Name = 
  2 active torsions:
  status: ('A' for Active; 'I' for Inactive)
    1  A    between atoms: C_11  and  C_28
    2  A    between atoms: C_28  and  C_30
                            x       y       z     vdW  Elec       q    Type
                         _______ _______ _______ _____ _____    ______ ____

>  <TORSDO>
F 2

$$$$
=
 OpenBabel11122412443D

 30 35  0  0  1  0  0  0  0  0999 V2000
  161.3670  204.7530  148.7360 C   0  0  2  0  0  3  0  0  0  0  0  0
  161.0370  202.2060  148.3650 C   0  0  0  0  0  0  0  0  0  0  0  0
  160.6740  204.3960  152.5580 N   0  0  0  0  0  2  0  0  0  0  0  0
  161.1750  205.8270  149.8170 C   0  0  2  0  0  3  0  0  0  0  0  0
  160.4260  204.9740  147.7150 O   0  0  0  0  0  0  0  0  0  0  0  0
  160.6230  208.3920  147.2220 O   0  0  0  0  0  0  0  0  0  0  0  0
  162.5830  208.4110  151.0600 C   0  0  2  0  0  3  0  0  0  0  0  0
  160.8700  207.3180  147.7520 C   0  0  0  0  0  0  0  0  0  0  0  0
  161.4820  207.8590  151.8500 N   0  0  2  0  0  0  0  0  0  0  0  0
  160.7610  205.7540  152.9430 C   0  0  0  0  0  0  0  0  0  0  0  0
  160.9160  206.0430  146.9440 C   0  0  2  0  0  3  0  0  0  0  0  0
  161.2060  207.2660  149.2210 C   0  0  2  0  0  3  0  0  0  0  0  0
  161.0700  200.8700  148.8690 N   0  0  0  0  0  0  0  0  0  0  0  0
  161.4670  208.6910  153.0480 C   0  0  0  0  0  2  0  0  0  0  0  0
  162.6250  209.8980  151.3180 C   0  0  0  0  0  2  0  0  0  0  0  0
  160.9010  202.3910  147.1270 O   0  0  0  0  0  0  0  0  0  0  0  0
  161.7450  204.1680  151.6010 C   0  0  2  0  0  3  0  0  0  0  0  0
  161.1700  200.6140  150.1350 C   0  0  0  0  0  3  0  0  0  0  0  0
  161.2170  203.3510  149.2900 C   0  0  0  0  0  0  0  0  0  0  0  0
  162.1010  205.5490  151.0240 C   0  0  2  0  0  3  0  0  0  0  0  0
  160.0260  206.2500  153.8380 O   0  0  0  0  0  0  0  0  0  0  0  0
  161.8460  206.4880  152.2310 C   0  0  1  0  0  3  0  0  0  0  0  0
  161.9560  210.0710  152.6590 C   0  0  0  0  0  2  0  0  0  0  0  0
  163.7240  207.5290  149.0100 C   0  0  0  0  0  1  0  0  0  0  0  0
  161.2060  201.7030  151.1700 C   0  0  0  0  0  2  0  0  0  0  0  0
  161.3960  203.0900  150.6050 C   0  0  0  0  0  0  0  0  0  0  0  0
  162.4370  208.1240  149.5620 C   0  0  2  0  0  3  0  0  0  0  0  0
  160.1030  206.1570  145.6620 C   0  0  0  0  0  2  0  0  0  0  0  0
  162.2380  205.1260  144.9540 C   0  0  0  0  0  1  0  0  0  0  0  0
  160.8320  205.4790  144.5180 C   0  0  0  0  0  2  0  0  0  0  0  0
  1  5  1  6  0  0  0
  1 19  1  0  0  0  0
  1  4  1  0  0  0  0
  2 13  1  0  0  0  0
  2 19  1  0  0  0  0
  3 10  1  0  0  0  0
  4 20  1  0  0  0  0
  6  8  2  0  0  0  0
  7 15  1  0  0  0  0
  7  9  1  0  0  0  0
  8 12  1  0  0  0  0
  9 22  1  0  0  0  0
  9 14  1  0  0  0  0
 10 21  2  0  0  0  0
 11  5  1  0  0  0  0
 11  8  1  0  0  0  0
 12 27  1  0  0  0  0
 12  4  1  0  0  0  0
 13 18  2  0  0  0  0
 15 23  1  0  0  0  0
 16  2  2  0  0  0  0
 17  3  1  0  0  0  0
 18 25  1  0  0  0  0
 19 26  2  0  0  0  0
 20 17  1  0  0  0  0
 20 22  1  0  0  0  0
 22 10  1  0  0  0  0
 23 14  1  0  0  0  0
 24 27  1  0  0  0  0
 26 25  1  0  0  0  0
 26 17  1  0  0  0  0
 27  7  1  0  0  0  0
 28 11  1  0  0  0  0
 30 29  1  0  0  0  0
 30 28  1  0  0  0  0
M  END
>  <MODEL>
3

>  <REMARK>
 VINA RESULT:      -4.6      4.623      8.127
  Name = 
  2 active torsions:
  status: ('A' for Active; 'I' for Inactive)
    1  A    between atoms: C_11  and  C_28
    2  A    between atoms: C_28  and  C_30
                            x       y       z     vdW  Elec       q    Type
                         _______ _______ _______ _____ _____    ______ ____

>  <TORSDO>
F 2

$$$$
=
 OpenBabel11122412443D

 30 35  0  0  1  0  0  0  0  0999 V2000
  160.8960  211.9340  150.9180 C   0  0  2  0  0  3  0  0  0  0  0  0
  160.0810  212.2030  153.3660 C   0  0  0  0  0  0  0  0  0  0  0  0
  157.9250  214.0770  149.5790 N   0  0  0  0  0  2  0  0  0  0  0  0
  160.4300  212.2000  149.4780 C   0  0  2  0  0  3  0  0  0  0  0  0
  160.9180  210.5450  151.1290 O   0  0  0  0  0  0  0  0  0  0  0  0
  162.4460  209.3590  148.2610 O   0  0  0  0  0  0  0  0  0  0  0  0
  161.4940  213.2420  146.6520 C   0  0  2  0  0  3  0  0  0  0  0  0
  161.9560  210.1930  149.0100 C   0  0  0  0  0  0  0  0  0  0  0  0
  160.0380  213.1610  146.7800 N   0  0  2  0  0  0  0  0  0  0  0  0
  158.1780  213.9960  148.1900 C   0  0  0  0  0  0  0  0  0  0  0  0
  162.0850  210.0640  150.5100 C   0  0  2  0  0  3  0  0  0  0  0  0
  161.2760  211.4090  148.4360 C   0  0  2  0  0  3  0  0  0  0  0  0
  159.3720  212.9490  154.3570 N   0  0  0  0  0  0  0  0  0  0  0  0
  159.5510  213.6970  145.5140 C   0  0  0  0  0  2  0  0  0  0  0  0
  161.8350  213.0070  145.2000 C   0  0  0  0  0  2  0  0  0  0  0  0
  160.8060  211.2390  153.7270 O   0  0  0  0  0  0  0  0  0  0  0  0
  159.2140  214.2550  150.2260 C   0  0  2  0  0  3  0  0  0  0  0  0
  158.5810  213.9270  154.0470 C   0  0  0  0  0  3  0  0  0  0  0  0
  160.0020  212.6050  151.9410 C   0  0  0  0  0  0  0  0  0  0  0  0
  160.2640  213.7190  149.2370 C   0  0  2  0  0  3  0  0  0  0  0  0
  157.2540  213.9310  147.3380 O   0  0  0  0  0  0  0  0  0  0  0  0
  159.6320  214.0640  147.8650 C   0  0  1  0  0  3  0  0  0  0  0  0
  160.5800  213.3770  144.4490 C   0  0  0  0  0  2  0  0  0  0  0  0
  163.3020  212.9390  148.3600 C   0  0  0  0  0  1  0  0  0  0  0  0
  158.3120  214.3170  152.6210 C   0  0  0  0  0  2  0  0  0  0  0  0
  159.2370  213.6720  151.6170 C   0  0  0  0  0  0  0  0  0  0  0  0
  162.2230  212.2370  147.5500 C   0  0  2  0  0  3  0  0  0  0  0  0
  162.3270  208.6220  150.9340 C   0  0  0  0  0  2  0  0  0  0  0  0
  161.2060  206.6350  151.8910 C   0  0  0  0  0  1  0  0  0  0  0  0
  161.2060  208.1480  151.8380 C   0  0  0  0  0  2  0  0  0  0  0  0
  1  5  1  1  0  0  0
  1 19  1  0  0  0  0
  2 16  2  0  0  0  0
  2 13  1  0  0  0  0
  3 17  1  0  0  0  0
  4  1  1  0  0  0  0
  6  8  2  0  0  0  0
  7  9  1  0  0  0  0
  7 27  1  0  0  0  0
  8 11  1  0  0  0  0
  9 22  1  0  0  0  0
 10  3  1  0  0  0  0
 11 28  1  0  0  0  0
 11  5  1  0  0  0  0
 12  8  1  0  0  0  0
 12  4  1  0  0  0  0
 14  9  1  0  0  0  0
 15  7  1  0  0  0  0
 17 26  1  0  0  0  0
 18 13  2  0  0  0  0
 19  2  1  0  0  0  0
 20  4  1  0  0  0  0
 20 17  1  0  0  0  0
 21 10  2  0  0  0  0
 22 10  1  0  0  0  0
 22 20  1  0  0  0  0
 23 15  1  0  0  0  0
 23 14  1  0  0  0  0
 25 18  1  0  0  0  0
 26 19  2  0  0  0  0
 26 25  1  0  0  0  0
 27 24  1  0  0  0  0
 27 12  1  0  0  0  0
 28 30  1  0  0  0  0
 30 29  1  0  0  0  0
M  END
>  <MODEL>
4

>  <REMARK>
 VINA RESULT:      -4.5      2.738      7.380
  Name = 
  2 active torsions:
  status: ('A' for Active; 'I' for Inactive)
    1  A    between atoms: C_11  and  C_28
    2  A    between atoms: C_28  and  C_30
                            x       y       z     vdW  Elec       q    Type
                         _______ _______ _______ _____ _____    ______ ____

>  <TORSDO>
F 2

$$$$
=
 OpenBabel11122412443D

 30 35  0  0  1  0  0  0  0  0999 V2000
  160.3020  212.5850  150.6530 C   0  0  2  0  0  3  0  0  0  0  0  0
  159.1420  212.9030  152.9520 C   0  0  0  0  0  0  0  0  0  0  0  0
  157.1240  213.8190  148.7580 N   0  0  0  0  0  2  0  0  0  0  0  0
  159.9760  212.5850  149.1520 C   0  0  2  0  0  3  0  0  0  0  0  0
  160.6050  211.2690  151.0430 O   0  0  0  0  0  0  0  0  0  0  0  0
  162.7110  210.1910  148.5190 O   0  0  0  0  0  0  0  0  0  0  0  0
  161.1330  213.5560  146.3370 C   0  0  2  0  0  3  0  0  0  0  0  0
  161.9570  210.9570  149.1020 C   0  0  0  0  0  0  0  0  0  0  0  0
  159.7280  213.1470  146.3270 N   0  0  2  0  0  0  0  0  0  0  0  0
  157.5650  213.6590  147.4240 C   0  0  0  0  0  0  0  0  0  0  0  0
  161.9190  211.0160  150.6110 C   0  0  2  0  0  3  0  0  0  0  0  0
  161.1020  211.9150  148.3110 C   0  0  2  0  0  3  0  0  0  0  0  0
  158.1640  213.5570  153.7630 N   0  0  0  0  0  0  0  0  0  0  0  0
  159.2990  213.4210  144.9600 C   0  0  0  0  0  2  0  0  0  0  0  0
  161.7010  213.2610  144.9690 C   0  0  0  0  0  2  0  0  0  0  0  0
  160.0110  212.1790  153.5050 O   0  0  0  0  0  0  0  0  0  0  0  0
  158.2480  214.3620  149.5040 C   0  0  2  0  0  3  0  0  0  0  0  0
  157.2220  214.2850  153.2510 C   0  0  0  0  0  3  0  0  0  0  0  0
  159.1580  213.1270  151.4870 C   0  0  0  0  0  0  0  0  0  0  0  0
  159.5080  213.9900  148.7020 C   0  0  2  0  0  3  0  0  0  0  0  0
  156.7940  213.2920  146.4980 O   0  0  0  0  0  0  0  0  0  0  0  0
  158.9960  214.0340  147.2400 C   0  0  1  0  0  3  0  0  0  0  0  0
  160.5010  213.2460  144.0540 C   0  0  0  0  0  2  0  0  0  0  0  0
  162.7300  213.8620  148.2430 C   0  0  0  0  0  1  0  0  0  0  0  0
  157.0570  214.4530  151.7680 C   0  0  0  0  0  2  0  0  0  0  0  0
  158.2230  213.9450  150.9520 C   0  0  0  0  0  0  0  0  0  0  0  0
  161.9460  212.8480  147.4260 C   0  0  2  0  0  3  0  0  0  0  0  0
  162.4190  209.7230  151.2390 C   0  0  0  0  0  2  0  0  0  0  0  0
  161.2030  207.6380  150.6930 C   0  0  0  0  0  1  0  0  0  0  0  0
  161.2480  208.8370  151.6160 C   0  0  0  0  0  2  0  0  0  0  0  0
  1  5  1  1  0  0  0
  1 19  1  0  0  0  0
  2 16  2  0  0  0  0
  2 13  1  0  0  0  0
  3 17  1  0  0  0  0
  4  1  1  0  0  0  0
  6  8  2  0  0  0  0
  7 27  1  0  0  0  0
  8 11  1  0  0  0  0
  9  7  1  0  0  0  0
  9 22  1  0  0  0  0
 10  3  1  0  0  0  0
 11  5  1  0  0  0  0
 11 28  1  0  0  0  0
 12  8  1  0  0  0  0
 12  4  1  0  0  0  0
 14  9  1  0  0  0  0
 15  7  1  0  0  0  0
 17 26  1  0  0  0  0
 18 13  2  0  0  0  0
 19  2  1  0  0  0  0
 20  4  1  0  0  0  0
 20 17  1  0  0  0  0
 21 10  2  0  0  0  0
 22 10  1  0  0  0  0
 22 20  1  0  0  0  0
 23 14  1  0  0  0  0
 23 15  1  0  0  0  0
 25 18  1  0  0  0  0
 26 19  2  0  0  0  0
 26 25  1  0  0  0  0
 27 24  1  0  0  0  0
 27 12  1  0  0  0  0
 28 30  1  0  0  0  0
 29 30  1  0  0  0  0
M  END
>  <MODEL>
5

>  <REMARK>
 VINA RESULT:      -4.3      2.885      7.487
  Name = 
  2 active torsions:
  status: ('A' for Active; 'I' for Inactive)
    1  A    between atoms: C_11  and  C_28
    2  A    between atoms: C_28  and  C_30
                            x       y       z     vdW  Elec       q    Type
                         _______ _______ _______ _____ _____    ______ ____

>  <TORSDO>
F 2

$$$$
=
 OpenBabel11122412443D

 30 35  0  0  1  0  0  0  0  0999 V2000
  161.2250  207.6750  150.8850 C   0  0  2  0  0  3  0  0  0  0  0  0
  161.0580  209.1060  153.0430 C   0  0  0  0  0  0  0  0  0  0  0  0
  161.5160  204.3850  152.9600 N   0  0  0  0  0  2  0  0  0  0  0  0
  161.5440  206.2400  150.4370 C   0  0  2  0  0  3  0  0  0  0  0  0
  162.2720  208.5150  150.4680 O   0  0  0  0  0  0  0  0  0  0  0  0
  162.8190  207.4930  147.2090 O   0  0  0  0  0  0  0  0  0  0  0  0
  160.5970  203.9900  148.3780 C   0  0  2  0  0  3  0  0  0  0  0  0
  162.3150  207.4710  148.3230 C   0  0  0  0  0  0  0  0  0  0  0  0
  161.4940  203.5280  149.4380 N   0  0  2  0  0  0  0  0  0  0  0  0
  161.6770  203.4530  151.9090 C   0  0  0  0  0  0  0  0  0  0  0  0
  162.0760  208.7470  149.0950 C   0  0  2  0  0  3  0  0  0  0  0  0
  161.8560  206.1620  148.9130 C   0  0  2  0  0  3  0  0  0  0  0  0
  160.7100  209.2240  154.4240 N   0  0  0  0  0  0  0  0  0  0  0  0
  161.5810  202.0900  149.2140 C   0  0  0  0  0  2  0  0  0  0  0  0
  160.8390  203.1190  147.1680 C   0  0  0  0  0  2  0  0  0  0  0  0
  161.3290  210.1470  152.3890 O   0  0  0  0  0  0  0  0  0  0  0  0
  160.5030  205.3320  152.5230 C   0  0  2  0  0  3  0  0  0  0  0  0
  160.4570  208.1880  155.1600 C   0  0  0  0  0  3  0  0  0  0  0  0
  161.0400  207.7770  152.3860 C   0  0  0  0  0  0  0  0  0  0  0  0
  160.4850  205.2560  150.9870 C   0  0  2  0  0  3  0  0  0  0  0  0
  162.4230  202.4430  152.0110 O   0  0  0  0  0  0  0  0  0  0  0  0
  160.8270  203.7670  150.7250 C   0  0  1  0  0  3  0  0  0  0  0  0
  161.4170  201.8420  147.7270 C   0  0  0  0  0  2  0  0  0  0  0  0
  159.4720  206.2030  148.0400 C   0  0  0  0  0  1  0  0  0  0  0  0
  160.5600  206.7860  154.6300 C   0  0  0  0  0  2  0  0  0  0  0  0
  160.7040  206.6980  153.1290 C   0  0  0  0  0  0  0  0  0  0  0  0
  160.8030  205.4680  148.0320 C   0  0  2  0  0  3  0  0  0  0  0  0
  162.9970  209.8670  148.6330 C   0  0  0  0  0  2  0  0  0  0  0  0
  163.0660  212.2260  147.8880 C   0  0  0  0  0  1  0  0  0  0  0  0
  162.2540  211.1890  148.6350 C   0  0  0  0  0  2  0  0  0  0  0  0
  1  5  1  1  0  0  0
  1 19  1  0  0  0  0
  2 13  1  0  0  0  0
  4  1  1  0  0  0  0
  4 20  1  0  0  0  0
  6  8  2  0  0  0  0
  7  9  1  0  0  0  0
  8 12  1  0  0  0  0
  8 11  1  0  0  0  0
  9 22  1  0  0  0  0
 10 21  2  0  0  0  0
 10  3  1  0  0  0  0
 11  5  1  0  0  0  0
 12  4  1  0  0  0  0
 13 18  2  0  0  0  0
 14  9  1  0  0  0  0
 15 23  1  0  0  0  0
 15  7  1  0  0  0  0
 16  2  2  0  0  0  0
 17  3  1  0  0  0  0
 17 26  1  0  0  0  0
 19  2  1  0  0  0  0
 19 26  2  0  0  0  0
 20 17  1  0  0  0  0
 22 20  1  0  0  0  0
 22 10  1  0  0  0  0
 23 14  1  0  0  0  0
 25 18  1  0  0  0  0
 26 25  1  0  0  0  0
 27 24  1  0  0  0  0
 27  7  1  0  0  0  0
 27 12  1  0  0  0  0
 28 30  1  0  0  0  0
 28 11  1  0  0  0  0
 29 30  1  0  0  0  0
M  END
>  <MODEL>
6

>  <REMARK>
 VINA RESULT:      -4.0      3.733      7.140
  Name = 
  2 active torsions:
  status: ('A' for Active; 'I' for Inactive)
    1  A    between atoms: C_11  and  C_28
    2  A    between atoms: C_28  and  C_30
                            x       y       z     vdW  Elec       q    Type
                         _______ _______ _______ _____ _____    ______ ____

>  <TORSDO>
F 2

$$$$
=
 OpenBabel11122412443D

 30 35  0  0  1  0  0  0  0  0999 V2000
  161.5890  208.6740  151.5140 C   0  0  2  0  0  3  0  0  0  0  0  0
  161.8250  211.1140  150.6650 C   0  0  0  0  0  0  0  0  0  0  0  0
  160.9450  207.3620  147.8980 N   0  0  0  0  0  2  0  0  0  0  0  0
  161.1550  207.2850  151.0220 C   0  0  2  0  0  3  0  0  0  0  0  0
  160.6350  209.1380  152.4360 O   0  0  0  0  0  0  0  0  0  0  0  0
  160.0900  206.3680  154.4340 O   0  0  0  0  0  0  0  0  0  0  0  0
  161.9540  204.1980  151.2100 C   0  0  2  0  0  3  0  0  0  0  0  0
  160.5580  207.0050  153.5010 C   0  0  0  0  0  0  0  0  0  0  0  0
  160.9890  204.5310  150.1610 N   0  0  2  0  0  0  0  0  0  0  0  0
  160.7300  205.9930  148.1760 C   0  0  0  0  0  0  0  0  0  0  0  0
  160.8900  208.4720  153.6470 C   0  0  2  0  0  3  0  0  0  0  0  0
  160.8800  206.3070  152.2040 C   0  0  2  0  0  3  0  0  0  0  0  0
  162.1420  212.0330  149.6170 N   0  0  0  0  0  0  0  0  0  0  0  0
  160.7790  203.2630  149.4710 C   0  0  0  0  0  2  0  0  0  0  0  0
  161.6680  202.7840  151.6560 C   0  0  0  0  0  2  0  0  0  0  0  0
  161.6660  211.5500  151.8350 O   0  0  0  0  0  0  0  0  0  0  0  0
  162.0510  207.7880  148.7410 C   0  0  2  0  0  3  0  0  0  0  0  0
  162.2800  211.6520  148.3870 C   0  0  0  0  0  3  0  0  0  0  0  0
  161.7410  209.6630  150.3760 C   0  0  0  0  0  0  0  0  0  0  0  0
  162.1050  206.7870  149.9080 C   0  0  2  0  0  3  0  0  0  0  0  0
  159.8940  205.2980  147.5400 O   0  0  0  0  0  0  0  0  0  0  0  0
  161.6380  205.4700  149.2370 C   0  0  1  0  0  3  0  0  0  0  0  0
  160.9610  202.1490  150.4840 C   0  0  0  0  0  2  0  0  0  0  0  0
  163.2830  205.6770  152.7350 C   0  0  0  0  0  1  0  0  0  0  0  0
  162.0660  210.2260  147.9620 C   0  0  0  0  0  2  0  0  0  0  0  0
  161.9570  209.2470  149.1070 C   0  0  0  0  0  0  0  0  0  0  0  0
  161.8910  205.1640  152.3980 C   0  0  2  0  0  3  0  0  0  0  0  0
  160.0870  209.1230  154.7630 C   0  0  0  0  0  2  0  0  0  0  0  0
  162.0530  210.5190  155.3160 C   0  0  0  0  0  1  0  0  0  0  0  0
  160.5730  210.5400  155.0000 C   0  0  0  0  0  2  0  0  0  0  0  0
  1 19  1  6  0  0  0
  1  5  1  0  0  0  0
  2 16  2  0  0  0  0
  3 10  1  0  0  0  0
  3 17  1  0  0  0  0
  4  1  1  0  0  0  0
  4 12  1  0  0  0  0
  5 11  1  0  0  0  0
  7 15  1  0  0  0  0
  7 27  1  0  0  0  0
  8 11  1  0  0  0  0
  8  6  2  0  0  0  0
  9  7  1  0  0  0  0
 10 22  1  0  0  0  0
 11 28  1  0  0  0  0
 12 27  1  0  0  0  0
 12  8  1  0  0  0  0
 13  2  1  0  0  0  0
 14  9  1  0  0  0  0
 14 23  1  0  0  0  0
 17 26  1  0  0  0  0
 17 20  1  0  0  0  0
 18 13  2  0  0  0  0
 19  2  1  0  0  0  0
 20  4  1  0  0  0  0
 21 10  2  0  0  0  0
 22 20  1  0  0  0  0
 22  9  1  0  0  0  0
 23 15  1  0  0  0  0
 25 18  1  0  0  0  0
 25 26  1  0  0  0  0
 26 19  2  0  0  0  0
 27 24  1  0  0  0  0
 28 30  1  0  0  0  0
 30 29  1  0  0  0  0
M  END
>  <MODEL>
7

>  <REMARK>
 VINA RESULT:      -3.8      3.087      5.127
  Name = 
  2 active torsions:
  status: ('A' for Active; 'I' for Inactive)
    1  A    between atoms: C_11  and  C_28
    2  A    between atoms: C_28  and  C_30
                            x       y       z     vdW  Elec       q    Type
                         _______ _______ _______ _____ _____    ______ ____

>  <TORSDO>
F 2

$$$$
=
 OpenBabel11122412443D

 30 35  0  0  1  0  0  0  0  0999 V2000
  160.7020  208.8460  153.8640 C   0  0  2  0  0  3  0  0  0  0  0  0
  161.2010  206.3110  154.0950 C   0  0  0  0  0  0  0  0  0  0  0  0
  162.1590  208.9140  150.2460 N   0  0  0  0  0  2  0  0  0  0  0  0
  160.9960  210.0310  152.9310 C   0  0  2  0  0  3  0  0  0  0  0  0
  161.4000  209.0440  155.0680 O   0  0  0  0  0  0  0  0  0  0  0  0
  160.7770  212.3720  155.7750 O   0  0  0  0  0  0  0  0  0  0  0  0
  159.6110  212.6000  151.6330 C   0  0  2  0  0  3  0  0  0  0  0  0
  160.7450  211.3370  155.1240 C   0  0  0  0  0  0  0  0  0  0  0  0
  160.8940  212.2170  151.0420 N   0  0  2  0  0  0  0  0  0  0  0  0
  162.0170  210.2910  149.9580 C   0  0  0  0  0  0  0  0  0  0  0  0
  160.6670  209.9900  155.8050 C   0  0  2  0  0  3  0  0  0  0  0  0
  160.7080  211.3990  153.6180 C   0  0  2  0  0  3  0  0  0  0  0  0
  161.3980  205.0300  153.4920 N   0  0  0  0  0  0  0  0  0  0  0  0
  161.0620  213.1580  149.9410 C   0  0  0  0  0  2  0  0  0  0  0  0
  159.4750  214.0970  151.4880 C   0  0  0  0  0  2  0  0  0  0  0  0
  161.0740  206.3870  155.3450 O   0  0  0  0  0  0  0  0  0  0  0  0
  160.9500  208.5100  150.9450 C   0  0  2  0  0  3  0  0  0  0  0  0
  161.5730  204.8900  152.2160 C   0  0  0  0  0  3  0  0  0  0  0  0
  161.0940  207.5200  153.2440 C   0  0  0  0  0  0  0  0  0  0  0  0
  160.3550  209.7970  151.5430 C   0  0  2  0  0  3  0  0  0  0  0  0
  162.8600  210.9280  149.2730 O   0  0  0  0  0  0  0  0  0  0  0  0
  160.7480  210.8640  150.4900 C   0  0  1  0  0  3  0  0  0  0  0  0
  160.3730  214.4520  150.3280 C   0  0  0  0  0  2  0  0  0  0  0  0
  158.1840  211.4380  153.3330 C   0  0  0  0  0  1  0  0  0  0  0  0
  161.6330  206.0660  151.2830 C   0  0  0  0  0  2  0  0  0  0  0  0
  161.2010  207.3730  151.9040 C   0  0  0  0  0  0  0  0  0  0  0  0
  159.4890  212.1840  153.1020 C   0  0  2  0  0  3  0  0  0  0  0  0
  161.1990  210.0470  157.2300 C   0  0  0  0  0  2  0  0  0  0  0  0
  163.5330  210.8650  157.2580 C   0  0  0  0  0  1  0  0  0  0  0  0
  162.6560  209.6310  157.2610 C   0  0  0  0  0  2  0  0  0  0  0  0
  1 19  1  6  0  0  0
  1  5  1  0  0  0  0
  2 16  2  0  0  0  0
  3 17  1  0  0  0  0
  4 12  1  0  0  0  0
  4  1  1  0  0  0  0
  5 11  1  0  0  0  0
  7 27  1  0  0  0  0
  8  6  2  0  0  0  0
  8 11  1  0  0  0  0
  9  7  1  0  0  0  0
 10  3  1  0  0  0  0
 10 22  1  0  0  0  0
 11 28  1  0  0  0  0
 12  8  1  0  0  0  0
 13  2  1  0  0  0  0
 14 23  1  0  0  0  0
 14  9  1  0  0  0  0
 15  7  1  0  0  0  0
 17 20  1  0  0  0  0
 17 26  1  0  0  0  0
 18 13  2  0  0  0  0
 19  2  1  0  0  0  0
 20  4  1  0  0  0  0
 21 10  2  0  0  0  0
 22  9  1  0  0  0  0
 22 20  1  0  0  0  0
 23 15  1  0  0  0  0
 25 26  1  0  0  0  0
 25 18  1  0  0  0  0
 26 19  2  0  0  0  0
 27 24  1  0  0  0  0
 27 12  1  0  0  0  0
 28 30  1  0  0  0  0
 29 30  1  0  0  0  0
M  END
>  <MODEL>
8

>  <REMARK>
 VINA RESULT:      -3.7      2.282      6.051
  Name = 
  2 active torsions:
  status: ('A' for Active; 'I' for Inactive)
    1  A    between atoms: C_11  and  C_28
    2  A    between atoms: C_28  and  C_30
                            x       y       z     vdW  Elec       q    Type
                         _______ _______ _______ _____ _____    ______ ____

>  <TORSDO>
F 2

$$$$
=
 OpenBabel11122412443D

 30 35  0  0  1  0  0  0  0  0999 V2000
  160.4150  212.3460  151.8110 C   0  0  2  0  0  3  0  0  0  0  0  0
  160.0160  212.0950  154.3630 C   0  0  0  0  0  0  0  0  0  0  0  0
  156.8410  213.8180  151.2880 N   0  0  0  0  0  2  0  0  0  0  0  0
  159.6480  212.6620  150.5180 C   0  0  2  0  0  3  0  0  0  0  0  0
  160.7920  210.9920  151.7860 O   0  0  0  0  0  0  0  0  0  0  0  0
  162.0060  210.5960  148.5720 O   0  0  0  0  0  0  0  0  0  0  0  0
  159.9180  214.2810  147.7780 C   0  0  2  0  0  3  0  0  0  0  0  0
  161.4830  211.1790  149.5110 C   0  0  0  0  0  0  0  0  0  0  0  0
  158.5670  213.8190  148.1000 N   0  0  2  0  0  0  0  0  0  0  0  0
  156.8520  213.9770  149.8830 C   0  0  0  0  0  0  0  0  0  0  0  0
  161.9060  210.9020  150.9340 C   0  0  2  0  0  3  0  0  0  0  0  0
  160.4500  212.2460  149.2490 C   0  0  2  0  0  3  0  0  0  0  0  0
  159.3460  212.5090  155.5550 N   0  0  0  0  0  0  0  0  0  0  0  0
  157.7500  214.3680  147.0240 C   0  0  0  0  0  2  0  0  0  0  0  0
  160.0360  214.3220  146.2730 C   0  0  0  0  0  2  0  0  0  0  0  0
  160.9950  211.3090  154.4510 O   0  0  0  0  0  0  0  0  0  0  0  0
  158.1510  214.2350  151.7620 C   0  0  2  0  0  3  0  0  0  0  0  0
  158.3100  213.2870  155.5280 C   0  0  0  0  0  3  0  0  0  0  0  0
  159.5920  212.6370  153.0500 C   0  0  0  0  0  0  0  0  0  0  0  0
  159.0990  214.1070  150.5560 C   0  0  2  0  0  3  0  0  0  0  0  0
  155.8280  213.7860  149.1740 O   0  0  0  0  0  0  0  0  0  0  0  0
  158.1680  214.4490  149.3650 C   0  0  1  0  0  3  0  0  0  0  0  0
  158.6150  214.4530  145.7820 C   0  0  0  0  0  2  0  0  0  0  0  0
  162.0260  214.2350  149.1320 C   0  0  0  0  0  1  0  0  0  0  0  0
  157.7070  213.7690  154.2390 C   0  0  0  0  0  2  0  0  0  0  0  0
  158.5570  213.5080  153.0190 C   0  0  0  0  0  0  0  0  0  0  0  0
  161.0070  213.3890  148.3830 C   0  0  2  0  0  3  0  0  0  0  0  0
  162.5430  209.5270  151.0760 C   0  0  0  0  0  2  0  0  0  0  0  0
  161.3130  207.4420  150.5650 C   0  0  0  0  0  1  0  0  0  0  0  0
  161.5260  208.5300  151.5960 C   0  0  0  0  0  2  0  0  0  0  0  0
  1  5  1  6  0  0  0
  1 19  1  0  0  0  0
  2 16  2  0  0  0  0
  2 13  1  0  0  0  0
  3 17  1  0  0  0  0
  4 20  1  0  0  0  0
  4  1  1  0  0  0  0
  6  8  2  0  0  0  0
  7  9  1  0  0  0  0
  7 27  1  0  0  0  0
  8 11  1  0  0  0  0
  9 22  1  0  0  0  0
 10  3  1  0  0  0  0
 11 28  1  0  0  0  0
 11  5  1  0  0  0  0
 12  8  1  0  0  0  0
 12  4  1  0  0  0  0
 14  9  1  0  0  0  0
 15  7  1  0  0  0  0
 17 26  1  0  0  0  0
 18 13  2  0  0  0  0
 19  2  1  0  0  0  0
 20 17  1  0  0  0  0
 21 10  2  0  0  0  0
 22 10  1  0  0  0  0
 22 20  1  0  0  0  0
 23 15  1  0  0  0  0
 23 14  1  0  0  0  0
 25 18  1  0  0  0  0
 26 19  2  0  0  0  0
 26 25  1  0  0  0  0
 27 24  1  0  0  0  0
 27 12  1  0  0  0  0
 28 30  1  0  0  0  0
 29 30  1  0  0  0  0
M  END
>  <MODEL>
9

>  <REMARK>
 VINA RESULT:      -3.6      2.722      7.278
  Name = 
  2 active torsions:
  status: ('A' for Active; 'I' for Inactive)
    1  A    between atoms: C_11  and  C_28
    2  A    between atoms: C_28  and  C_30
                            x       y       z     vdW  Elec       q    Type
                         _______ _______ _______ _____ _____    ______ ____

>  <TORSDO>
F 2

$$$$
