=
 OpenBabel11122412333D

 30 35  0  0  1  0  0  0  0  0999 V2000
  161.4760  206.3670  150.0330 C   0  0  1  0  0  3  0  0  0  0  0  0
  161.2430  203.8400  149.7680 C   0  0  0  0  0  0  0  0  0  0  0  0
  160.8810  205.9820  154.3160 C   0  0  0  0  0  2  0  0  0  0  0  0
  161.8090  207.4650  151.0680 C   0  0  1  0  0  3  0  0  0  0  0  0
  162.3860  206.4430  148.9630 O   0  0  0  0  0  0  0  0  0  0  0  0
  162.0510  209.9670  148.4240 O   0  0  0  0  0  0  0  0  0  0  0  0
  160.4260  210.2690  151.9180 C   0  0  1  0  0  3  0  0  0  0  0  0
  161.9510  208.8500  149.0000 C   0  0  0  0  0  0  0  0  0  0  0  0
  160.2390  209.5330  153.2430 C   0  0  2  0  0  3  0  0  0  0  0  0
  160.8200  207.4500  154.5350 C   0  0  0  0  0  0  0  0  0  0  0  0
  162.0580  207.5840  148.1830 C   0  0  2  0  0  3  0  0  0  0  0  0
  161.7040  208.7780  150.4190 N   0  0  0  0  0  0  0  0  0  0  0  0
  161.0320  202.5690  150.3100 C   0  0  0  0  0  3  0  0  0  0  0  0
  160.7170  210.5040  154.3040 C   0  0  0  0  0  2  0  0  0  0  0  0
  160.3080  211.7480  152.2530 C   0  0  0  0  0  2  0  0  0  0  0  0
  161.3200  203.9740  148.4200 F   0  0  0  0  0  0  0  0  0  0  0  0
  161.3920  205.9740  152.8960 C   0  0  2  0  0  3  0  0  0  0  0  0
  160.9190  202.4000  151.6920 C   0  0  0  0  0  3  0  0  0  0  0  0
  161.3580  204.9590  150.6130 C   0  0  0  0  0  0  0  0  0  0  0  0
  160.8730  207.2480  152.2550 C   0  0  1  0  0  3  0  0  0  0  0  0
  160.6460  207.9580  155.6740 O   0  0  0  0  0  0  0  0  0  0  0  0
  160.9080  208.2300  153.3350 N   0  0  0  0  0  0  0  0  0  0  0  0
  160.3590  211.8730  153.7680 C   0  0  0  0  0  2  0  0  0  0  0  0
  163.0040  210.1110  152.0520 C   0  0  0  0  0  1  0  0  0  0  0  0
  161.0040  203.5030  152.5410 C   0  0  0  0  0  3  0  0  0  0  0  0
  161.1890  204.7850  152.0100 C   0  0  0  0  0  0  0  0  0  0  0  0
  161.7490  210.0150  151.1900 C   0  0  2  0  0  3  0  0  0  0  0  0
  160.8030  207.3580  147.3440 C   0  0  0  0  0  2  0  0  0  0  0  0
  160.3870  206.3080  145.4510 C   0  0  0  0  0  1  0  0  0  0  0  0
  160.8530  206.0980  146.7490 O   0  0  0  0  0  0  0  0  0  0  0  0
  1  5  1  6  0  0  0
  1 19  1  0  0  0  0
  1  4  1  0  0  0  0
  2 13  2  0  0  0  0
  2 19  1  0  0  0  0
  3 10  1  0  0  0  0
  4 12  1  6  0  0  0
  4 20  1  0  0  0  0
  6  8  2  0  0  0  0
  7 15  1  1  0  0  0
  7  9  1  0  0  0  0
  8 12  1  0  0  0  0
  9 22  1  0  0  0  0
  9 14  1  1  0  0  0
 10 21  2  0  0  0  0
 11 28  1  1  0  0  0
 11  5  1  0  0  0  0
 11  8  1  0  0  0  0
 12 27  1  0  0  0  0
 13 18  1  0  0  0  0
 15 23  1  0  0  0  0
 16  2  1  0  0  0  0
 17  3  1  1  0  0  0
 18 25  2  0  0  0  0
 19 26  2  0  0  0  0
 20 17  1  0  0  0  0
 20 22  1  1  0  0  0
 22 10  1  0  0  0  0
 23 14  1  0  0  0  0
 26 25  1  0  0  0  0
 26 17  1  0  0  0  0
 27  7  1  0  0  0  0
 27 24  1  1  0  0  0
 29 30  1  0  0  0  0
 30 28  1  0  0  0  0
M  END
>  <MODEL>
1

>  <REMARK>
 VINA RESULT:      -9.3      0.000      0.000
  Name = 
  2 active torsions:
  status: ('A' for Active; 'I' for Inactive)
    1  A    between atoms: C_11  and  C_28
    2  A    between atoms: C_28  and  O_30
                            x       y       z     vdW  Elec       q    Type
                         _______ _______ _______ _____ _____    ______ ____

>  <TORSDO>
F 2

$$$$
=
 OpenBabel11122412333D

 30 35  0  0  1  0  0  0  0  0999 V2000
  161.3440  204.8030  148.1840 C   0  0  1  0  0  3  0  0  0  0  0  0
  160.9990  202.4510  147.2600 C   0  0  0  0  0  0  0  0  0  0  0  0
  161.1500  203.2500  152.2340 C   0  0  0  0  0  2  0  0  0  0  0  0
  161.8130  205.5690  149.4420 C   0  0  1  0  0  3  0  0  0  0  0  0
  162.1500  205.1670  147.0890 O   0  0  0  0  0  0  0  0  0  0  0  0
  161.8880  208.7040  147.5780 O   0  0  0  0  0  0  0  0  0  0  0  0
  160.6180  208.0370  151.1670 C   0  0  1  0  0  3  0  0  0  0  0  0
  161.8050  207.4720  147.8320 C   0  0  0  0  0  0  0  0  0  0  0  0
  160.5330  206.9640  152.2510 C   0  0  2  0  0  3  0  0  0  0  0  0
  161.1620  204.6000  152.8530 C   0  0  0  0  0  0  0  0  0  0  0  0
  161.7880  206.4810  146.6910 C   0  0  2  0  0  3  0  0  0  0  0  0
  161.6930  207.0110  149.1930 N   0  0  0  0  0  0  0  0  0  0  0  0
  160.7970  201.0810  147.4500 C   0  0  0  0  0  3  0  0  0  0  0  0
  161.1440  207.5990  153.4830 C   0  0  0  0  0  2  0  0  0  0  0  0
  160.5840  209.3660  151.9060 C   0  0  0  0  0  2  0  0  0  0  0  0
  160.9510  202.9530  146.0000 F   0  0  0  0  0  0  0  0  0  0  0  0
  161.5220  203.6320  150.8220 C   0  0  2  0  0  3  0  0  0  0  0  0
  160.8110  200.5360  148.7350 C   0  0  0  0  0  3  0  0  0  0  0  0
  161.2330  203.2910  148.3630 C   0  0  0  0  0  0  0  0  0  0  0  0
  160.9890  205.0380  150.6120 C   0  0  1  0  0  3  0  0  0  0  0  0
  161.1160  204.7730  154.1000 O   0  0  0  0  0  0  0  0  0  0  0  0
  161.1620  205.6810  151.9110 N   0  0  0  0  0  0  0  0  0  0  0  0
  160.7840  209.0660  153.3840 C   0  0  0  0  0  2  0  0  0  0  0  0
  163.1900  207.8300  150.9890 C   0  0  0  0  0  1  0  0  0  0  0  0
  161.0150  201.3600  149.8420 C   0  0  0  0  0  3  0  0  0  0  0  0
  161.1940  202.7370  149.6680 C   0  0  0  0  0  0  0  0  0  0  0  0
  161.8550  207.9860  150.2660 C   0  0  2  0  0  3  0  0  0  0  0  0
  160.4520  206.5060  145.9550 C   0  0  0  0  0  2  0  0  0  0  0  0
  161.4280  205.7270  144.1380 C   0  0  0  0  0  1  0  0  0  0  0  0
  160.3980  205.4570  145.0380 O   0  0  0  0  0  0  0  0  0  0  0  0
  1  5  1  6  0  0  0
  1 19  1  0  0  0  0
  1  4  1  0  0  0  0
  2 13  2  0  0  0  0
  2 19  1  0  0  0  0
  3 10  1  0  0  0  0
  4 12  1  6  0  0  0
  4 20  1  0  0  0  0
  6  8  2  0  0  0  0
  7 15  1  1  0  0  0
  7  9  1  0  0  0  0
  8 12  1  0  0  0  0
  9 14  1  1  0  0  0
 10 21  2  0  0  0  0
 11 28  1  1  0  0  0
 11  5  1  0  0  0  0
 11  8  1  0  0  0  0
 12 27  1  0  0  0  0
 13 18  1  0  0  0  0
 15 23  1  0  0  0  0
 16  2  1  0  0  0  0
 17  3  1  1  0  0  0
 18 25  2  0  0  0  0
 19 26  2  0  0  0  0
 20 17  1  0  0  0  0
 20 22  1  1  0  0  0
 22  9  1  0  0  0  0
 22 10  1  0  0  0  0
 23 14  1  0  0  0  0
 26 25  1  0  0  0  0
 26 17  1  0  0  0  0
 27 24  1  1  0  0  0
 27  7  1  0  0  0  0
 29 30  1  0  0  0  0
 30 28  1  0  0  0  0
M  END
>  <MODEL>
2

>  <REMARK>
 VINA RESULT:      -7.2      1.748      2.694
  Name = 
  2 active torsions:
  status: ('A' for Active; 'I' for Inactive)
    1  A    between atoms: C_11  and  C_28
    2  A    between atoms: C_28  and  O_30
                            x       y       z     vdW  Elec       q    Type
                         _______ _______ _______ _____ _____    ______ ____

>  <TORSDO>
F 2

$$$$
=
 OpenBabel11122412333D

 30 35  0  0  1  0  0  0  0  0999 V2000
  161.2340  209.6310  151.8290 C   0  0  1  0  0  3  0  0  0  0  0  0
  161.1130  211.9800  150.8420 C   0  0  0  0  0  0  0  0  0  0  0  0
  162.0270  208.0030  147.8830 C   0  0  0  0  0  2  0  0  0  0  0  0
  161.7920  208.2150  151.5590 C   0  0  1  0  0  3  0  0  0  0  0  0
  161.7600  210.1150  153.0410 O   0  0  0  0  0  0  0  0  0  0  0  0
  161.0220  207.1930  154.9760 O   0  0  0  0  0  0  0  0  0  0  0  0
  160.5440  205.2280  151.6810 C   0  0  1  0  0  3  0  0  0  0  0  0
  161.1860  207.9210  153.9590 C   0  0  0  0  0  0  0  0  0  0  0  0
  160.8300  205.2730  150.1820 C   0  0  2  0  0  3  0  0  0  0  0  0
  161.9310  206.5940  148.3410 C   0  0  0  0  0  0  0  0  0  0  0  0
  161.1250  209.4230  154.1070 C   0  0  2  0  0  3  0  0  0  0  0  0
  161.3970  207.3290  152.6610 N   0  0  0  0  0  0  0  0  0  0  0  0
  161.1730  212.8510  149.7510 C   0  0  0  0  0  3  0  0  0  0  0  0
  161.5420  203.9710  149.8770 C   0  0  0  0  0  2  0  0  0  0  0  0
  160.4290  203.7520  152.0300 C   0  0  0  0  0  2  0  0  0  0  0  0
  160.7580  212.4710  152.0560 F   0  0  0  0  0  0  0  0  0  0  0  0
  162.0720  208.6890  149.2270 C   0  0  2  0  0  3  0  0  0  0  0  0
  161.5060  212.3730  148.4820 C   0  0  0  0  0  3  0  0  0  0  0  0
  161.4030  210.6140  150.6730 C   0  0  0  0  0  0  0  0  0  0  0  0
  161.2890  207.8010  150.1770 C   0  0  1  0  0  3  0  0  0  0  0  0
  162.0830  205.6170  147.5610 O   0  0  0  0  0  0  0  0  0  0  0  0
  161.5870  206.4450  149.7250 N   0  0  0  0  0  0  0  0  0  0  0  0
  160.9380  202.9640  150.8320 C   0  0  0  0  0  2  0  0  0  0  0  0
  163.0400  205.5120  152.2930 C   0  0  0  0  0  1  0  0  0  0  0  0
  161.7710  211.0160  148.2930 C   0  0  0  0  0  3  0  0  0  0  0  0
  161.6890  210.1290  149.3720 C   0  0  0  0  0  0  0  0  0  0  0  0
  161.5900  205.8850  152.5860 C   0  0  2  0  0  3  0  0  0  0  0  0
  159.6920  209.9010  154.3220 C   0  0  0  0  0  2  0  0  0  0  0  0
  160.3360  210.9160  156.1700 C   0  0  0  0  0  1  0  0  0  0  0  0
  159.4190  209.9820  155.6870 O   0  0  0  0  0  0  0  0  0  0  0  0
  1 19  1  6  0  0  0
  1  5  1  0  0  0  0
  2 16  1  0  0  0  0
  3 10  1  0  0  0  0
  4  1  1  0  0  0  0
  4 12  1  1  0  0  0
  5 11  1  0  0  0  0
  7 15  1  1  0  0  0
  7 27  1  0  0  0  0
  8 11  1  0  0  0  0
  8  6  2  0  0  0  0
  9 14  1  1  0  0  0
  9  7  1  0  0  0  0
 10 22  1  0  0  0  0
 11 28  1  6  0  0  0
 12  8  1  0  0  0  0
 13  2  2  0  0  0  0
 14 23  1  0  0  0  0
 17  3  1  6  0  0  0
 17 26  1  0  0  0  0
 17 20  1  0  0  0  0
 18 13  1  0  0  0  0
 19  2  1  0  0  0  0
 20 22  1  6  0  0  0
 20  4  1  0  0  0  0
 21 10  2  0  0  0  0
 22  9  1  0  0  0  0
 23 15  1  0  0  0  0
 25 18  2  0  0  0  0
 25 26  1  0  0  0  0
 26 19  2  0  0  0  0
 27 24  1  6  0  0  0
 27 12  1  0  0  0  0
 28 30  1  0  0  0  0
 30 29  1  0  0  0  0
M  END
>  <MODEL>
3

>  <REMARK>
 VINA RESULT:      -6.6      2.340      7.032
  Name = 
  2 active torsions:
  status: ('A' for Active; 'I' for Inactive)
    1  A    between atoms: C_11  and  C_28
    2  A    between atoms: C_28  and  O_30
                            x       y       z     vdW  Elec       q    Type
                         _______ _______ _______ _____ _____    ______ ____

>  <TORSDO>
F 2

$$$$
