=
 OpenBabel11122412413D

 30 35  0  0  1  0  0  0  0  0999 V2000
  161.1450  205.7260  149.9110 C   0  0  0  0  0  0  0  0  0  0  0  0
  161.0760  203.2240  149.6980 C   0  0  0  0  0  0  0  0  0  0  0  0
  160.9930  205.4770  154.0180 N   0  0  0  0  0  2  0  0  0  0  0  0
  161.2300  206.8740  150.7510 C   0  0  0  0  0  0  0  0  0  0  0  0
  160.9250  205.9320  148.4300 C   0  0  0  0  0  2  0  0  0  0  0  0
  161.8300  209.5440  148.1830 O   0  0  0  0  0  1  0  0  0  0  0  0
  160.5320  209.6770  151.7510 C   0  0  1  0  0  3  0  0  0  0  0  0
  161.2310  208.4010  148.7230 C   0  0  1  0  0  3  0  0  0  0  0  0
  160.3940  208.9410  153.0760 C   0  0  2  0  0  3  0  0  0  0  0  0
  160.8970  206.8050  154.2520 C   0  0  0  0  0  0  0  0  0  0  0  0
  161.5890  207.1880  147.8690 C   0  0  2  0  0  3  0  0  0  0  0  0
  161.7630  208.1530  150.1330 C   0  0  1  0  0  3  0  0  0  0  0  0
  161.0460  201.9710  150.3190 C   0  0  0  0  0  3  0  0  0  0  0  0
  160.9700  209.8720  154.1230 C   0  0  0  0  0  2  0  0  0  0  0  0
  160.4580  211.1530  152.1100 C   0  0  0  0  0  2  0  0  0  0  0  0
  161.0920  203.2530  148.3090 O   0  0  0  0  0  1  0  0  0  0  0  0
  161.1080  205.4220  152.6810 C   0  0  0  0  0  0  0  0  0  0  0  0
  161.0480  201.8610  151.7070 C   0  0  0  0  0  3  0  0  0  0  0  0
  161.1070  204.4110  150.4800 C   0  0  0  0  0  0  0  0  0  0  0  0
  161.1160  206.6790  152.1400 C   0  0  0  0  0  0  0  0  0  0  0  0
  160.6960  207.2660  155.4070 O   0  0  0  0  0  0  0  0  0  0  0  0
  160.9660  207.5840  153.1390 N   0  0  0  0  0  0  0  0  0  0  0  0
  160.6630  211.2650  153.6140 C   0  0  0  0  0  2  0  0  0  0  0  0
  163.0980  209.4350  151.8400 C   0  0  0  0  0  1  0  0  0  0  0  0
  161.0810  203.0080  152.4950 C   0  0  0  0  0  3  0  0  0  0  0  0
  161.1170  204.2730  151.8980 C   0  0  0  0  0  0  0  0  0  0  0  0
  161.8300  209.4050  150.9950 C   0  0  2  0  0  3  0  0  0  0  0  0
  161.1390  207.3960  146.4280 C   0  0  0  0  0  2  0  0  0  0  0  0
  161.1120  205.5850  144.7130 C   0  0  0  0  0  1  0  0  0  0  0  0
  160.3860  206.1830  145.9020 C   0  0  0  0  0  2  0  0  0  0  0  0
  1 19  2  0  0  0  0
  1  4  1  0  0  0  0
  2 13  2  0  0  0  0
  2 19  1  0  0  0  0
  3 10  1  0  0  0  0
  4 20  2  0  0  0  0
  5  1  1  0  0  0  0
  7 15  1  1  0  0  0
  7  9  1  0  0  0  0
  8  6  1  6  0  0  0
  8 12  1  0  0  0  0
  9 22  1  0  0  0  0
  9 14  1  1  0  0  0
 10 21  2  0  0  0  0
 11 28  1  6  0  0  0
 11  5  1  0  0  0  0
 11  8  1  0  0  0  0
 12  4  1  1  0  0  0
 12 27  1  0  0  0  0
 13 18  1  0  0  0  0
 15 23  1  0  0  0  0
 16  2  1  0  0  0  0
 17  3  1  0  0  0  0
 18 25  2  0  0  0  0
 19 26  1  0  0  0  0
 20 17  1  0  0  0  0
 20 22  1  0  0  0  0
 22 10  1  0  0  0  0
 23 14  1  0  0  0  0
 26 25  1  0  0  0  0
 26 17  2  0  0  0  0
 27  7  1  0  0  0  0
 27 24  1  1  0  0  0
 29 30  1  0  0  0  0
 30 28  1  0  0  0  0
M  END
>  <MODEL>
1

>  <REMARK>
 VINA RESULT:      -7.4      0.000      0.000
  Name = 
  2 active torsions:
  status: ('A' for Active; 'I' for Inactive)
    1  A    between atoms: C_11  and  C_28
    2  A    between atoms: C_28  and  C_30
                            x       y       z     vdW  Elec       q    Type
                         _______ _______ _______ _____ _____    ______ ____

>  <TORSDO>
F 2

$$$$
=
 OpenBabel11122412413D

 30 35  0  0  1  0  0  0  0  0999 V2000
  161.5640  208.5520  151.7070 C   0  0  0  0  0  0  0  0  0  0  0  0
  161.4260  209.3250  154.0930 C   0  0  0  0  0  0  0  0  0  0  0  0
  160.8210  204.6590  152.8240 N   0  0  0  0  0  2  0  0  0  0  0  0
  161.4190  207.4980  150.7590 C   0  0  0  0  0  0  0  0  0  0  0  0
  162.1120  209.8780  151.2300 C   0  0  0  0  0  2  0  0  0  0  0  0
  161.6440  209.4390  147.5540 O   0  0  0  0  0  1  0  0  0  0  0  0
  162.1670  205.7620  148.3560 C   0  0  1  0  0  3  0  0  0  0  0  0
  161.9990  209.0790  148.8590 C   0  0  1  0  0  3  0  0  0  0  0  0
  161.9480  204.6430  149.3640 C   0  0  2  0  0  3  0  0  0  0  0  0
  160.9970  204.1090  151.6020 C   0  0  0  0  0  0  0  0  0  0  0  0
  161.7090  210.2430  149.8030 C   0  0  2  0  0  3  0  0  0  0  0  0
  161.1580  207.8880  149.3160 C   0  0  1  0  0  3  0  0  0  0  0  0
  161.2000  209.0180  155.4380 C   0  0  0  0  0  3  0  0  0  0  0  0
  161.2600  203.5310  148.5980 C   0  0  0  0  0  2  0  0  0  0  0  0
  162.3110  205.0620  147.0140 C   0  0  0  0  0  2  0  0  0  0  0  0
  161.7070  210.6480  153.7730 O   0  0  0  0  0  1  0  0  0  0  0  0
  160.9860  205.9700  152.5830 C   0  0  0  0  0  0  0  0  0  0  0  0
  160.8940  207.7190  155.8330 C   0  0  0  0  0  3  0  0  0  0  0  0
  161.3500  208.3070  153.1020 C   0  0  0  0  0  0  0  0  0  0  0  0
  161.2180  206.1950  151.2530 C   0  0  0  0  0  0  0  0  0  0  0  0
  160.9950  202.8620  151.4260 O   0  0  0  0  0  0  0  0  0  0  0  0
  161.2430  205.0040  150.6070 N   0  0  0  0  0  0  0  0  0  0  0  0
  161.8050  203.6360  147.1890 C   0  0  0  0  0  2  0  0  0  0  0  0
  159.6290  206.2040  148.2370 C   0  0  0  0  0  1  0  0  0  0  0  0
  160.8100  206.7050  154.8830 C   0  0  0  0  0  3  0  0  0  0  0  0
  161.0270  206.9870  153.5300 C   0  0  0  0  0  0  0  0  0  0  0  0
  161.0370  206.7850  148.2740 C   0  0  2  0  0  3  0  0  0  0  0  0
  162.4720  211.4890  149.3670 C   0  0  0  0  0  2  0  0  0  0  0  0
  161.8810  212.9700  147.4490 C   0  0  0  0  0  1  0  0  0  0  0  0
  161.5260  212.5710  148.8680 C   0  0  0  0  0  2  0  0  0  0  0  0
  1 19  1  0  0  0  0
  2 13  1  0  0  0  0
  4 20  1  0  0  0  0
  4  1  2  0  0  0  0
  5  1  1  0  0  0  0
  7 15  1  6  0  0  0
  7  9  1  0  0  0  0
  8  6  1  6  0  0  0
  8 12  1  0  0  0  0
  8 11  1  0  0  0  0
  9 14  1  6  0  0  0
  9 22  1  0  0  0  0
 10  3  1  0  0  0  0
 11 28  1  6  0  0  0
 11  5  1  0  0  0  0
 12  4  1  1  0  0  0
 13 18  2  0  0  0  0
 15 23  1  0  0  0  0
 16  2  1  0  0  0  0
 17  3  1  0  0  0  0
 17 26  1  0  0  0  0
 19 26  1  0  0  0  0
 19  2  2  0  0  0  0
 20 17  2  0  0  0  0
 21 10  2  0  0  0  0
 22 20  1  0  0  0  0
 22 10  1  0  0  0  0
 23 14  1  0  0  0  0
 25 18  1  0  0  0  0
 26 25  2  0  0  0  0
 27 24  1  1  0  0  0
 27  7  1  0  0  0  0
 27 12  1  0  0  0  0
 29 30  1  0  0  0  0
 30 28  1  0  0  0  0
M  END
>  <MODEL>
2

>  <REMARK>
 VINA RESULT:      -7.2      1.986      5.575
  Name = 
  2 active torsions:
  status: ('A' for Active; 'I' for Inactive)
    1  A    between atoms: C_11  and  C_28
    2  A    between atoms: C_28  and  C_30
                            x       y       z     vdW  Elec       q    Type
                         _______ _______ _______ _____ _____    ______ ____

>  <TORSDO>
F 2

$$$$
=
 OpenBabel11122412413D

 30 35  0  0  1  0  0  0  0  0999 V2000
  161.0690  209.3060  151.6700 C   0  0  0  0  0  0  0  0  0  0  0  0
  161.2120  211.6410  150.7520 C   0  0  0  0  0  0  0  0  0  0  0  0
  161.9980  207.7000  147.9940 N   0  0  0  0  0  2  0  0  0  0  0  0
  161.2460  207.9070  151.4690 C   0  0  0  0  0  0  0  0  0  0  0  0
  160.4580  209.7760  152.9710 C   0  0  0  0  0  2  0  0  0  0  0  0
  160.8850  206.6700  154.9940 O   0  0  0  0  0  1  0  0  0  0  0  0
  160.5350  204.9380  151.6310 C   0  0  1  0  0  3  0  0  0  0  0  0
  160.5680  207.4410  153.8710 C   0  0  1  0  0  3  0  0  0  0  0  0
  160.8180  205.0050  150.1370 C   0  0  2  0  0  3  0  0  0  0  0  0
  161.8270  206.4050  148.3420 C   0  0  0  0  0  0  0  0  0  0  0  0
  160.8210  208.9140  154.1790 C   0  0  2  0  0  3  0  0  0  0  0  0
  161.4660  207.0470  152.7000 C   0  0  1  0  0  3  0  0  0  0  0  0
  161.4730  212.4860  149.6690 C   0  0  0  0  0  3  0  0  0  0  0  0
  161.5420  203.7170  149.7990 C   0  0  0  0  0  2  0  0  0  0  0  0
  160.4010  203.4550  151.9400 C   0  0  0  0  0  2  0  0  0  0  0  0
  160.8690  212.2320  151.9620 O   0  0  0  0  0  1  0  0  0  0  0  0
  161.7730  208.3460  149.1500 C   0  0  0  0  0  0  0  0  0  0  0  0
  161.8400  211.9670  148.4300 C   0  0  0  0  0  3  0  0  0  0  0  0
  161.3160  210.2300  150.6030 C   0  0  0  0  0  0  0  0  0  0  0  0
  161.5100  207.4610  150.1610 C   0  0  0  0  0  0  0  0  0  0  0  0
  161.8800  205.4750  147.4940 O   0  0  0  0  0  0  0  0  0  0  0  0
  161.5260  206.2040  149.6540 N   0  0  0  0  0  0  0  0  0  0  0  0
  160.9700  202.6900  150.7540 C   0  0  0  0  0  2  0  0  0  0  0  0
  163.0500  205.1670  152.1570 C   0  0  0  0  0  1  0  0  0  0  0  0
  161.9530  210.5900  148.2590 C   0  0  0  0  0  3  0  0  0  0  0  0
  161.7020  209.7240  149.3280 C   0  0  0  0  0  0  0  0  0  0  0  0
  161.6180  205.5440  152.5200 C   0  0  2  0  0  3  0  0  0  0  0  0
  159.9990  209.3600  155.3820 C   0  0  0  0  0  2  0  0  0  0  0  0
  162.1850  209.6730  156.5410 C   0  0  0  0  0  1  0  0  0  0  0  0
  160.8080  210.2610  156.3030 C   0  0  0  0  0  2  0  0  0  0  0  0
  1  5  1  0  0  0  0
  2 16  1  0  0  0  0
  3 10  1  0  0  0  0
  3 17  1  0  0  0  0
  4  1  1  0  0  0  0
  5 11  1  0  0  0  0
  7 15  1  1  0  0  0
  7 27  1  0  0  0  0
  8 11  1  0  0  0  0
  8  6  1  1  0  0  0
  9 14  1  1  0  0  0
  9  7  1  0  0  0  0
 10 22  1  0  0  0  0
 11 28  1  1  0  0  0
 12  4  1  6  0  0  0
 12  8  1  0  0  0  0
 13  2  2  0  0  0  0
 14 23  1  0  0  0  0
 17 26  2  0  0  0  0
 17 20  1  0  0  0  0
 18 13  1  0  0  0  0
 19  2  1  0  0  0  0
 19  1  2  0  0  0  0
 20  4  2  0  0  0  0
 21 10  2  0  0  0  0
 22  9  1  0  0  0  0
 22 20  1  0  0  0  0
 23 15  1  0  0  0  0
 25 18  2  0  0  0  0
 25 26  1  0  0  0  0
 26 19  1  0  0  0  0
 27 24  1  6  0  0  0
 27 12  1  0  0  0  0
 28 30  1  0  0  0  0
 30 29  1  0  0  0  0
M  END
>  <MODEL>
3

>  <REMARK>
 VINA RESULT:      -6.8      2.118      7.210
  Name = 
  2 active torsions:
  status: ('A' for Active; 'I' for Inactive)
    1  A    between atoms: C_11  and  C_28
    2  A    between atoms: C_28  and  C_30
                            x       y       z     vdW  Elec       q    Type
                         _______ _______ _______ _____ _____    ______ ____

>  <TORSDO>
F 2

$$$$
=
 OpenBabel11122412413D

 30 35  0  0  1  0  0  0  0  0999 V2000
  161.3280  207.5240  150.9430 C   0  0  0  0  0  0  0  0  0  0  0  0
  161.4230  205.2550  149.8670 C   0  0  0  0  0  0  0  0  0  0  0  0
  160.6530  205.8470  154.6430 N   0  0  0  0  0  2  0  0  0  0  0  0
  161.2400  208.3030  152.1320 C   0  0  0  0  0  0  0  0  0  0  0  0
  161.2920  208.2360  149.6110 C   0  0  0  0  0  2  0  0  0  0  0  0
  162.0250  211.7090  150.7640 O   0  0  0  0  0  1  0  0  0  0  0  0
  160.2660  210.5730  153.9340 C   0  0  1  0  0  3  0  0  0  0  0  0
  161.4230  210.4460  150.7830 C   0  0  1  0  0  3  0  0  0  0  0  0
  159.9960  209.4180  154.8870 C   0  0  2  0  0  3  0  0  0  0  0  0
  160.4560  207.0070  155.3070 C   0  0  0  0  0  0  0  0  0  0  0  0
  161.9560  209.6130  149.6200 C   0  0  2  0  0  3  0  0  0  0  0  0
  161.7790  209.7210  152.0790 C   0  0  1  0  0  3  0  0  0  0  0  0
  161.3800  203.8640  150.0040 C   0  0  0  0  0  3  0  0  0  0  0  0
  160.3790  209.9240  156.2630 C   0  0  0  0  0  2  0  0  0  0  0  0
  160.0650  211.8280  154.7690 C   0  0  0  0  0  2  0  0  0  0  0  0
  161.6190  205.7710  148.5910 O   0  0  0  0  0  1  0  0  0  0  0  0
  160.9450  206.2660  153.4000 C   0  0  0  0  0  0  0  0  0  0  0  0
  161.2060  203.2740  151.2530 C   0  0  0  0  0  3  0  0  0  0  0  0
  161.2870  206.0930  151.0090 C   0  0  0  0  0  0  0  0  0  0  0  0
  160.9550  207.6330  153.3370 C   0  0  0  0  0  0  0  0  0  0  0  0
  160.0800  207.0320  156.5090 O   0  0  0  0  0  0  0  0  0  0  0  0
  160.6270  208.1280  154.5550 N   0  0  0  0  0  0  0  0  0  0  0  0
  160.0650  211.4060  156.2310 C   0  0  0  0  0  2  0  0  0  0  0  0
  162.8080  210.3280  154.2950 C   0  0  0  0  0  1  0  0  0  0  0  0
  161.0740  204.0710  152.3860 C   0  0  0  0  0  3  0  0  0  0  0  0
  161.1190  205.4650  152.2760 C   0  0  0  0  0  0  0  0  0  0  0  0
  161.6650  210.5910  153.3220 C   0  0  2  0  0  3  0  0  0  0  0  0
  161.6870  210.3110  148.2930 C   0  0  0  0  0  2  0  0  0  0  0  0
  161.8200  212.6220  147.3620 C   0  0  0  0  0  1  0  0  0  0  0  0
  162.5620  211.5460  148.1300 C   0  0  0  0  0  2  0  0  0  0  0  0
  1 19  2  0  0  0  0
  1  4  1  0  0  0  0
  2 13  2  0  0  0  0
  2 19  1  0  0  0  0
  3 10  1  0  0  0  0
  4 20  2  0  0  0  0
  5 11  1  0  0  0  0
  5  1  1  0  0  0  0
  7 15  1  1  0  0  0
  7  9  1  0  0  0  0
  8  6  1  1  0  0  0
  8 12  1  0  0  0  0
  9 14  1  1  0  0  0
 10 21  2  0  0  0  0
 11 28  1  6  0  0  0
 11  8  1  0  0  0  0
 12  4  1  1  0  0  0
 12 27  1  0  0  0  0
 13 18  1  0  0  0  0
 15 23  1  0  0  0  0
 16  2  1  0  0  0  0
 17  3  1  0  0  0  0
 18 25  2  0  0  0  0
 19 26  1  0  0  0  0
 20 17  1  0  0  0  0
 20 22  1  0  0  0  0
 22  9  1  0  0  0  0
 22 10  1  0  0  0  0
 23 14  1  0  0  0  0
 26 25  1  0  0  0  0
 26 17  2  0  0  0  0
 27  7  1  0  0  0  0
 27 24  1  1  0  0  0
 29 30  1  0  0  0  0
 30 28  1  0  0  0  0
M  END
>  <MODEL>
4

>  <REMARK>
 VINA RESULT:      -6.1      1.907      2.790
  Name = 
  2 active torsions:
  status: ('A' for Active; 'I' for Inactive)
    1  A    between atoms: C_11  and  C_28
    2  A    between atoms: C_28  and  C_30
                            x       y       z     vdW  Elec       q    Type
                         _______ _______ _______ _____ _____    ______ ____

>  <TORSDO>
F 2

$$$$
=
 OpenBabel11122412413D

 30 35  0  0  1  0  0  0  0  0999 V2000
  161.3720  206.3700  148.0060 C   0  0  0  0  0  0  0  0  0  0  0  0
  161.2170  205.3510  145.7150 C   0  0  0  0  0  0  0  0  0  0  0  0
  161.0370  202.6690  149.7800 N   0  0  0  0  0  2  0  0  0  0  0  0
  161.4650  206.1860  149.4160 C   0  0  0  0  0  0  0  0  0  0  0  0
  161.2220  207.7760  147.4720 C   0  0  0  0  0  2  0  0  0  0  0  0
  162.2730  209.6870  150.5000 O   0  0  0  0  0  1  0  0  0  0  0  0
  160.8310  206.7050  152.3610 C   0  0  1  0  0  3  0  0  0  0  0  0
  161.6080  208.6960  149.7690 C   0  0  1  0  0  3  0  0  0  0  0  0
  160.6100  205.1990  152.3600 C   0  0  2  0  0  3  0  0  0  0  0  0
  160.9820  203.1120  151.0560 C   0  0  0  0  0  0  0  0  0  0  0  0
  161.9570  208.8370  148.2900 C   0  0  2  0  0  3  0  0  0  0  0  0
  162.0720  207.3150  150.2280 C   0  0  1  0  0  3  0  0  0  0  0  0
  161.1130  204.2050  144.9200 C   0  0  0  0  0  3  0  0  0  0  0  0
  161.1760  204.7020  153.6750 C   0  0  0  0  0  2  0  0  0  0  0  0
  160.7980  207.1080  153.8270 C   0  0  0  0  0  2  0  0  0  0  0  0
  161.2920  206.5790  145.0670 O   0  0  0  0  0  1  0  0  0  0  0  0
  161.2060  203.8050  149.0820 C   0  0  0  0  0  0  0  0  0  0  0  0
  161.0520  202.9390  145.4970 C   0  0  0  0  0  3  0  0  0  0  0  0
  161.2600  205.2400  147.1320 C   0  0  0  0  0  0  0  0  0  0  0  0
  161.2840  204.8840  149.9200 C   0  0  0  0  0  0  0  0  0  0  0  0
  160.7500  202.3360  152.0210 O   0  0  0  0  0  0  0  0  0  0  0  0
  161.1270  204.4570  151.1970 N   0  0  0  0  0  0  0  0  0  0  0  0
  160.9440  205.8370  154.6510 C   0  0  0  0  0  2  0  0  0  0  0  0
  163.3810  206.3690  152.1600 C   0  0  0  0  0  1  0  0  0  0  0  0
  161.0960  202.8030  146.8810 C   0  0  0  0  0  3  0  0  0  0  0  0
  161.2050  203.9330  147.6970 C   0  0  0  0  0  0  0  0  0  0  0  0
  162.1490  207.1630  151.7410 C   0  0  2  0  0  3  0  0  0  0  0  0
  161.5760  210.2210  147.7790 C   0  0  0  0  0  2  0  0  0  0  0  0
  161.8470  212.5990  148.4820 C   0  0  0  0  0  1  0  0  0  0  0  0
  162.5580  211.2780  148.2610 C   0  0  0  0  0  2  0  0  0  0  0  0
  1  4  1  0  0  0  0
  2 19  1  0  0  0  0
  3 10  1  0  0  0  0
  4 20  2  0  0  0  0
  5  1  1  0  0  0  0
  5 11  1  0  0  0  0
  7 15  1  1  0  0  0
  8 12  1  0  0  0  0
  8  6  1  1  0  0  0
  9  7  1  0  0  0  0
  9 14  1  1  0  0  0
 10 22  1  0  0  0  0
 10 21  2  0  0  0  0
 11 28  1  6  0  0  0
 11  8  1  0  0  0  0
 12  4  1  1  0  0  0
 12 27  1  0  0  0  0
 13 18  1  0  0  0  0
 13  2  2  0  0  0  0
 14 23  1  0  0  0  0
 15 23  1  0  0  0  0
 16  2  1  0  0  0  0
 17  3  1  0  0  0  0
 17 20  1  0  0  0  0
 18 25  2  0  0  0  0
 19 26  1  0  0  0  0
 19  1  2  0  0  0  0
 20 22  1  0  0  0  0
 22  9  1  0  0  0  0
 25 26  1  0  0  0  0
 26 17  2  0  0  0  0
 27 24  1  6  0  0  0
 27  7  1  0  0  0  0
 28 30  1  0  0  0  0
 30 29  1  0  0  0  0
M  END
>  <MODEL>
5

>  <REMARK>
 VINA RESULT:      -5.2      2.228      4.273
  Name = 
  2 active torsions:
  status: ('A' for Active; 'I' for Inactive)
    1  A    between atoms: C_11  and  C_28
    2  A    between atoms: C_28  and  C_30
                            x       y       z     vdW  Elec       q    Type
                         _______ _______ _______ _____ _____    ______ ____

>  <TORSDO>
F 2

$$$$
=
 OpenBabel11122412413D

 30 35  0  0  1  0  0  0  0  0999 V2000
  161.2130  204.1810  148.2580 C   0  0  0  0  0  0  0  0  0  0  0  0
  161.0380  201.7590  147.6170 C   0  0  0  0  0  0  0  0  0  0  0  0
  161.2310  203.2200  152.2620 N   0  0  0  0  0  2  0  0  0  0  0  0
  161.3800  205.1610  149.2790 C   0  0  0  0  0  0  0  0  0  0  0  0
  160.9370  204.6510  146.8480 C   0  0  0  0  0  2  0  0  0  0  0  0
  161.9700  208.2210  147.1880 O   0  0  0  0  0  1  0  0  0  0  0  0
  160.8360  207.7650  150.7850 C   0  0  1  0  0  3  0  0  0  0  0  0
  161.3510  207.0190  147.5500 C   0  0  1  0  0  3  0  0  0  0  0  0
  160.7270  206.8120  151.9670 C   0  0  2  0  0  3  0  0  0  0  0  0
  161.1980  204.4890  152.7270 C   0  0  0  0  0  0  0  0  0  0  0  0
  161.6250  205.9650  146.4810 C   0  0  2  0  0  3  0  0  0  0  0  0
  161.9350  206.5120  148.8670 C   0  0  1  0  0  3  0  0  0  0  0  0
  160.9860  200.4180  148.0110 C   0  0  0  0  0  3  0  0  0  0  0  0
  161.3850  207.5270  153.1300 C   0  0  0  0  0  2  0  0  0  0  0  0
  160.8350  209.1560  151.3990 C   0  0  0  0  0  2  0  0  0  0  0  0
  160.9940  202.0310  146.2540 O   0  0  0  0  0  1  0  0  0  0  0  0
  161.2850  203.3970  150.9310 C   0  0  0  0  0  0  0  0  0  0  0  0
  161.0440  200.0660  149.3570 C   0  0  0  0  0  3  0  0  0  0  0  0
  161.1490  202.7890  148.5910 C   0  0  0  0  0  0  0  0  0  0  0  0
  161.3190  204.7290  150.6180 C   0  0  0  0  0  0  0  0  0  0  0  0
  161.0650  204.7450  153.9540 O   0  0  0  0  0  0  0  0  0  0  0  0
  161.2480  205.4480  151.7640 N   0  0  0  0  0  0  0  0  0  0  0  0
  161.1100  208.9970  152.8870 C   0  0  0  0  0  2  0  0  0  0  0  0
  163.3920  207.4330  150.7020 C   0  0  0  0  0  1  0  0  0  0  0  0
  161.1570  201.0560  150.3300 C   0  0  0  0  0  3  0  0  0  0  0  0
  161.2150  202.4030  149.9610 C   0  0  0  0  0  0  0  0  0  0  0  0
  162.0880  207.5910  149.9300 C   0  0  2  0  0  3  0  0  0  0  0  0
  161.1200  206.4370  145.1230 C   0  0  0  0  0  2  0  0  0  0  0  0
  161.5820  206.1030  142.6940 C   0  0  0  0  0  1  0  0  0  0  0  0
  161.4210  205.4160  144.0360 C   0  0  0  0  0  2  0  0  0  0  0  0
  1 19  2  0  0  0  0
  1  4  1  0  0  0  0
  2 13  2  0  0  0  0
  2 19  1  0  0  0  0
  3 10  1  0  0  0  0
  4 20  2  0  0  0  0
  5  1  1  0  0  0  0
  7 15  1  1  0  0  0
  7  9  1  0  0  0  0
  8  6  1  6  0  0  0
  8 12  1  0  0  0  0
  9 14  1  1  0  0  0
 10 21  2  0  0  0  0
 11 28  1  6  0  0  0
 11  5  1  0  0  0  0
 11  8  1  0  0  0  0
 12  4  1  1  0  0  0
 12 27  1  0  0  0  0
 13 18  1  0  0  0  0
 15 23  1  0  0  0  0
 16  2  1  0  0  0  0
 17  3  1  0  0  0  0
 18 25  2  0  0  0  0
 19 26  1  0  0  0  0
 20 17  1  0  0  0  0
 20 22  1  0  0  0  0
 22  9  1  0  0  0  0
 22 10  1  0  0  0  0
 23 14  1  0  0  0  0
 26 25  1  0  0  0  0
 26 17  2  0  0  0  0
 27 24  1  1  0  0  0
 27  7  1  0  0  0  0
 29 30  1  0  0  0  0
 30 28  1  0  0  0  0
M  END
>  <MODEL>
6

>  <REMARK>
 VINA RESULT:      -5.0      1.622      2.403
  Name = 
  2 active torsions:
  status: ('A' for Active; 'I' for Inactive)
    1  A    between atoms: C_11  and  C_28
    2  A    between atoms: C_28  and  C_30
                            x       y       z     vdW  Elec       q    Type
                         _______ _______ _______ _____ _____    ______ ____

>  <TORSDO>
F 2

$$$$
=
 OpenBabel11122412413D

 30 35  0  0  1  0  0  0  0  0999 V2000
  161.3920  206.0010  150.3700 C   0  0  0  0  0  0  0  0  0  0  0  0
  161.1140  205.1960  152.7340 C   0  0  0  0  0  0  0  0  0  0  0  0
  160.7070  202.2170  148.8990 N   0  0  0  0  0  2  0  0  0  0  0  0
  161.3240  205.7230  148.9750 C   0  0  0  0  0  0  0  0  0  0  0  0
  161.9240  207.3460  150.8120 C   0  0  0  0  0  2  0  0  0  0  0  0
  161.6530  209.1930  147.5810 O   0  0  0  0  0  1  0  0  0  0  0  0
  162.2410  205.7630  146.0580 C   0  0  1  0  0  3  0  0  0  0  0  0
  161.9520  208.1220  148.4310 C   0  0  1  0  0  3  0  0  0  0  0  0
  162.0040  204.2640  146.1850 C   0  0  2  0  0  3  0  0  0  0  0  0
  160.9590  202.5050  147.6030 C   0  0  0  0  0  0  0  0  0  0  0  0
  161.5830  208.4940  149.8640 C   0  0  2  0  0  3  0  0  0  0  0  0
  161.1250  206.9010  148.0380 C   0  0  1  0  0  3  0  0  0  0  0  0
  160.8300  204.1480  153.6150 C   0  0  0  0  0  3  0  0  0  0  0  0
  161.3870  203.8350  144.8690 C   0  0  0  0  0  2  0  0  0  0  0  0
  162.4710  206.0020  144.5740 C   0  0  0  0  0  2  0  0  0  0  0  0
  161.3720  206.4470  153.2840 O   0  0  0  0  0  1  0  0  0  0  0  0
  160.8460  203.4120  149.4980 C   0  0  0  0  0  0  0  0  0  0  0  0
  160.5420  202.8720  153.1370 C   0  0  0  0  0  3  0  0  0  0  0  0
  161.1160  204.9730  151.3290 C   0  0  0  0  0  0  0  0  0  0  0  0
  161.1370  204.3850  148.5810 C   0  0  0  0  0  0  0  0  0  0  0  0
  161.0020  201.6100  146.7170 O   0  0  0  0  0  0  0  0  0  0  0  0
  161.2290  203.8150  147.3550 N   0  0  0  0  0  0  0  0  0  0  0  0
  161.9990  204.7580  143.8350 C   0  0  0  0  0  2  0  0  0  0  0  0
  159.7000  206.2040  146.0820 C   0  0  0  0  0  1  0  0  0  0  0  0
  160.5340  202.6280  151.7670 C   0  0  0  0  0  3  0  0  0  0  0  0
  160.8110  203.6610  150.8660 C   0  0  0  0  0  0  0  0  0  0  0  0
  161.0870  206.6390  146.5390 C   0  0  2  0  0  3  0  0  0  0  0  0
  162.3300  209.7480  150.3020 C   0  0  0  0  0  2  0  0  0  0  0  0
  161.0510  210.5830  152.2750 C   0  0  0  0  0  1  0  0  0  0  0  0
  162.3230  209.8960  151.8160 C   0  0  0  0  0  2  0  0  0  0  0  0
  1  5  1  0  0  0  0
  1 19  1  0  0  0  0
  2 16  1  0  0  0  0
  2 13  1  0  0  0  0
  3 17  1  0  0  0  0
  4  1  2  0  0  0  0
  7 15  1  6  0  0  0
  7  9  1  0  0  0  0
  7 27  1  0  0  0  0
  8  6  1  6  0  0  0
  8 11  1  0  0  0  0
  9 14  1  6  0  0  0
  9 22  1  0  0  0  0
 10  3  1  0  0  0  0
 11 28  1  1  0  0  0
 11  5  1  0  0  0  0
 12  8  1  0  0  0  0
 12  4  1  1  0  0  0
 17 26  1  0  0  0  0
 18 13  2  0  0  0  0
 19  2  2  0  0  0  0
 20  4  1  0  0  0  0
 20 17  2  0  0  0  0
 21 10  2  0  0  0  0
 22 10  1  0  0  0  0
 22 20  1  0  0  0  0
 23 15  1  0  0  0  0
 23 14  1  0  0  0  0
 25 18  1  0  0  0  0
 26 19  1  0  0  0  0
 26 25  2  0  0  0  0
 27 24  1  1  0  0  0
 27 12  1  0  0  0  0
 28 30  1  0  0  0  0
 30 29  1  0  0  0  0
M  END
>  <MODEL>
7

>  <REMARK>
 VINA RESULT:      -4.8      2.085      6.045
  Name = 
  2 active torsions:
  status: ('A' for Active; 'I' for Inactive)
    1  A    between atoms: C_11  and  C_28
    2  A    between atoms: C_28  and  C_30
                            x       y       z     vdW  Elec       q    Type
                         _______ _______ _______ _____ _____    ______ ____

>  <TORSDO>
F 2

$$$$
=
 OpenBabel11122412413D

 30 35  0  0  1  0  0  0  0  0999 V2000
  161.1460  208.9260  151.7910 C   0  0  0  0  0  0  0  0  0  0  0  0
  160.7890  208.1060  154.1390 C   0  0  0  0  0  0  0  0  0  0  0  0
  160.0550  212.7500  152.8580 N   0  0  0  0  0  2  0  0  0  0  0  0
  161.1980  210.0190  150.8790 C   0  0  0  0  0  0  0  0  0  0  0  0
  161.2900  207.5240  151.2440 C   0  0  0  0  0  2  0  0  0  0  0  0
  162.7060  208.3280  147.8870 O   0  0  0  0  0  1  0  0  0  0  0  0
  160.6800  211.5190  148.2660 C   0  0  1  0  0  3  0  0  0  0  0  0
  161.8540  208.4560  148.9890 C   0  0  1  0  0  3  0  0  0  0  0  0
  160.1530  212.5780  149.2250 C   0  0  2  0  0  3  0  0  0  0  0  0
  160.0900  213.2750  151.6140 C   0  0  0  0  0  0  0  0  0  0  0  0
  162.2260  207.4150  150.0410 C   0  0  2  0  0  3  0  0  0  0  0  0
  162.0220  209.8370  149.6180 C   0  0  1  0  0  3  0  0  0  0  0  0
  160.4530  208.3890  155.4660 C   0  0  0  0  0  3  0  0  0  0  0  0
  160.6030  213.9070  148.6530 C   0  0  0  0  0  2  0  0  0  0  0  0
  160.7280  212.2040  146.9090 C   0  0  0  0  0  2  0  0  0  0  0  0
  161.1160  206.7920  153.8240 O   0  0  0  0  0  1  0  0  0  0  0  0
  160.4550  211.4840  152.6540 C   0  0  0  0  0  0  0  0  0  0  0  0
  160.1320  209.6850  155.8620 C   0  0  0  0  0  3  0  0  0  0  0  0
  160.8060  209.1430  153.1660 C   0  0  0  0  0  0  0  0  0  0  0  0
  160.7520  211.2740  151.3340 C   0  0  0  0  0  0  0  0  0  0  0  0
  159.7020  214.4500  151.3750 O   0  0  0  0  0  0  0  0  0  0  0  0
  160.5090  212.4160  150.6460 N   0  0  0  0  0  0  0  0  0  0  0  0
  160.6070  213.7020  147.1520 C   0  0  0  0  0  2  0  0  0  0  0  0
  163.1060  212.0200  148.9840 C   0  0  0  0  0  1  0  0  0  0  0  0
  160.1450  210.7190  154.9300 C   0  0  0  0  0  3  0  0  0  0  0  0
  160.4820  210.4620  153.5970 C   0  0  0  0  0  0  0  0  0  0  0  0
  162.0640  210.9740  148.6060 C   0  0  2  0  0  3  0  0  0  0  0  0
  162.1380  206.0090  149.4590 C   0  0  0  0  0  2  0  0  0  0  0  0
  160.8310  203.9820  150.0930 C   0  0  0  0  0  1  0  0  0  0  0  0
  160.7450  205.4240  149.6340 C   0  0  0  0  0  2  0  0  0  0  0  0
  1 19  1  0  0  0  0
  2 13  1  0  0  0  0
  4 20  1  0  0  0  0
  4  1  2  0  0  0  0
  5  1  1  0  0  0  0
  7 15  1  6  0  0  0
  7 27  1  0  0  0  0
  7  9  1  0  0  0  0
  8  6  1  6  0  0  0
  8 12  1  0  0  0  0
  8 11  1  0  0  0  0
  9 14  1  6  0  0  0
  9 22  1  0  0  0  0
 10  3  1  0  0  0  0
 11 28  1  6  0  0  0
 11  5  1  0  0  0  0
 12  4  1  1  0  0  0
 13 18  2  0  0  0  0
 15 23  1  0  0  0  0
 16  2  1  0  0  0  0
 17  3  1  0  0  0  0
 17 26  1  0  0  0  0
 19 26  1  0  0  0  0
 19  2  2  0  0  0  0
 20 17  2  0  0  0  0
 21 10  2  0  0  0  0
 22 20  1  0  0  0  0
 22 10  1  0  0  0  0
 23 14  1  0  0  0  0
 25 18  1  0  0  0  0
 26 25  2  0  0  0  0
 27 24  1  1  0  0  0
 27 12  1  0  0  0  0
 28 30  1  0  0  0  0
 30 29  1  0  0  0  0
M  END
>  <MODEL>
8

>  <REMARK>
 VINA RESULT:      -4.8      2.809      5.557
  Name = 
  2 active torsions:
  status: ('A' for Active; 'I' for Inactive)
    1  A    between atoms: C_11  and  C_28
    2  A    between atoms: C_28  and  C_30
                            x       y       z     vdW  Elec       q    Type
                         _______ _______ _______ _____ _____    ______ ____

>  <TORSDO>
F 2

$$$$
=
 OpenBabel11122412413D

 30 35  0  0  1  0  0  0  0  0999 V2000
  161.0790  204.1760  150.4110 C   0  0  0  0  0  0  0  0  0  0  0  0
  161.0200  204.8280  152.8360 C   0  0  0  0  0  0  0  0  0  0  0  0
  161.6490  208.0930  149.2730 N   0  0  0  0  0  2  0  0  0  0  0  0
  161.2880  204.5560  149.0540 C   0  0  0  0  0  0  0  0  0  0  0  0
  160.6000  202.7720  150.7000 C   0  0  0  0  0  2  0  0  0  0  0  0
  161.3820  201.1810  147.4160 O   0  0  0  0  0  1  0  0  0  0  0  0
  160.7230  204.6640  146.0510 C   0  0  1  0  0  3  0  0  0  0  0  0
  160.9070  202.1660  148.2890 C   0  0  1  0  0  3  0  0  0  0  0  0
  160.8320  206.1620  146.2990 C   0  0  2  0  0  3  0  0  0  0  0  0
  161.5710  207.8810  147.9410 C   0  0  0  0  0  0  0  0  0  0  0  0
  161.1340  201.7180  149.7300 C   0  0  2  0  0  3  0  0  0  0  0  0
  161.6820  203.4650  148.0760 C   0  0  1  0  0  3  0  0  0  0  0  0
  161.1210  205.8270  153.8090 C   0  0  0  0  0  3  0  0  0  0  0  0
  161.5650  206.7230  145.0970 C   0  0  0  0  0  2  0  0  0  0  0  0
  160.6860  204.5160  144.5380 C   0  0  0  0  0  2  0  0  0  0  0  0
  160.7920  203.5270  153.2710 O   0  0  0  0  0  1  0  0  0  0  0  0
  161.5300  206.8520  149.7750 C   0  0  0  0  0  0  0  0  0  0  0  0
  161.3660  207.1510  153.4510 C   0  0  0  0  0  3  0  0  0  0  0  0
  161.1640  205.1500  151.4590 C   0  0  0  0  0  0  0  0  0  0  0  0
  161.4210  205.9290  148.7700 C   0  0  0  0  0  0  0  0  0  0  0  0
  161.5660  208.8320  147.1140 O   0  0  0  0  0  0  0  0  0  0  0  0
  161.4310  206.5770  147.5800 N   0  0  0  0  0  0  0  0  0  0  0  0
  161.1480  205.8380  143.9410 C   0  0  0  0  0  2  0  0  0  0  0  0
  163.2700  204.3910  146.3550 C   0  0  0  0  0  1  0  0  0  0  0  0
  161.5160  207.4910  152.1100 C   0  0  0  0  0  3  0  0  0  0  0  0
  161.4230  206.5090  151.1180 C   0  0  0  0  0  0  0  0  0  0  0  0
  161.8750  203.8340  146.6120 C   0  0  2  0  0  3  0  0  0  0  0  0
  160.4360  200.3900  149.9950 C   0  0  0  0  0  2  0  0  0  0  0  0
  158.2130  200.9530  149.0130 C   0  0  0  0  0  1  0  0  0  0  0  0
  158.9560  200.5900  150.2840 C   0  0  0  0  0  2  0  0  0  0  0  0
  1  5  1  0  0  0  0
  1 19  1  0  0  0  0
  2 16  1  0  0  0  0
  2 13  1  0  0  0  0
  3 17  1  0  0  0  0
  4  1  2  0  0  0  0
  7 15  1  6  0  0  0
  7  9  1  0  0  0  0
  7 27  1  0  0  0  0
  8  6  1  6  0  0  0
  8 11  1  0  0  0  0
  9 14  1  6  0  0  0
  9 22  1  0  0  0  0
 10  3  1  0  0  0  0
 11 28  1  1  0  0  0
 11  5  1  0  0  0  0
 12  8  1  0  0  0  0
 12  4  1  1  0  0  0
 17 26  1  0  0  0  0
 18 13  2  0  0  0  0
 19  2  2  0  0  0  0
 20  4  1  0  0  0  0
 20 17  2  0  0  0  0
 21 10  2  0  0  0  0
 22 10  1  0  0  0  0
 22 20  1  0  0  0  0
 23 15  1  0  0  0  0
 23 14  1  0  0  0  0
 25 18  1  0  0  0  0
 26 19  1  0  0  0  0
 26 25  2  0  0  0  0
 27 24  1  1  0  0  0
 27 12  1  0  0  0  0
 28 30  1  0  0  0  0
 29 30  1  0  0  0  0
M  END
>  <MODEL>
9

>  <REMARK>
 VINA RESULT:      -4.5      2.242      6.361
  Name = 
  2 active torsions:
  status: ('A' for Active; 'I' for Inactive)
    1  A    between atoms: C_11  and  C_28
    2  A    between atoms: C_28  and  C_30
                            x       y       z     vdW  Elec       q    Type
                         _______ _______ _______ _____ _____    ______ ____

>  <TORSDO>
F 2

$$$$
