=
 OpenBabel11122412413D

 30 35  0  0  1  0  0  0  0  0999 V2000
  161.3500  206.0150  150.1960 C   0  0  0  0  0  0  0  0  0  0  0  0
  161.2130  203.5410  149.9850 C   0  0  0  0  0  0  0  0  0  0  0  0
  160.8790  205.7920  154.3660 N   0  0  0  0  0  2  0  0  0  0  0  0
  161.2890  207.1720  151.0060 C   0  0  0  0  0  0  0  0  0  0  0  0
  161.5720  206.1650  148.8250 O   0  0  0  0  0  0  0  0  0  0  0  0
  162.0960  209.7500  148.4450 O   0  0  0  0  0  1  0  0  0  0  0  0
  160.5030  210.1420  152.1850 C   0  0  1  0  0  3  0  0  0  0  0  0
  161.4030  208.5930  148.8170 C   0  0  1  0  0  3  0  0  0  0  0  0
  160.1530  209.1310  153.2810 C   0  0  2  0  0  3  0  0  0  0  0  0
  160.9850  207.1770  154.6760 C   0  0  0  0  0  0  0  0  0  0  0  0
  162.1330  207.3580  148.2880 C   0  0  2  0  0  3  0  0  0  0  0  0
  161.1700  208.5330  150.3420 C   0  0  2  0  0  3  0  0  0  0  0  0
  161.0560  202.2930  150.5950 C   0  0  0  0  0  3  0  0  0  0  0  0
  159.9530  209.8360  154.4870 O   0  0  0  0  0  0  0  0  0  0  0  0
  160.8090  211.4000  152.9220 C   0  0  0  0  0  2  0  0  0  0  0  0
  161.3830  203.5830  148.6050 O   0  0  0  0  0  1  0  0  0  0  0  0
  161.0150  205.7540  152.9550 C   0  0  0  0  0  0  0  0  0  0  0  0
  160.8800  202.1920  151.9740 C   0  0  0  0  0  3  0  0  0  0  0  0
  161.1940  204.7210  150.7670 C   0  0  0  0  0  0  0  0  0  0  0  0
  161.1600  207.0080  152.3950 C   0  0  0  0  0  0  0  0  0  0  0  0
  160.9500  207.6050  155.8590 O   0  0  0  0  0  0  0  0  0  0  0  0
  161.2220  208.0480  153.4730 C   0  0  1  0  0  3  0  0  0  0  0  0
  160.0270  211.2110  154.1940 C   0  0  0  0  0  2  0  0  0  0  0  0
  163.0020  209.6990  151.6800 C   0  0  0  0  0  1  0  0  0  0  0  0
  160.8620  203.3410  152.7620 C   0  0  0  0  0  3  0  0  0  0  0  0
  161.0160  204.6010  152.1720 C   0  0  0  0  0  0  0  0  0  0  0  0
  161.5750  209.7720  151.1450 C   0  0  2  0  0  3  0  0  0  0  0  0
  162.1300  207.3050  146.7630 C   0  0  0  0  0  2  0  0  0  0  0  0
  160.3830  206.1700  145.4210 C   0  0  0  0  0  1  0  0  0  0  0  0
  161.6360  205.9630  146.2440 C   0  0  0  0  0  2  0  0  0  0  0  0
  1 19  2  0  0  0  0
  1  4  1  0  0  0  0
  2 13  2  0  0  0  0
  2 19  1  0  0  0  0
  3 10  1  0  0  0  0
  4 20  2  0  0  0  0
  5  1  1  0  0  0  0
  7 15  1  1  0  0  0
  7  9  1  0  0  0  0
  8  6  1  1  0  0  0
  8 12  1  0  0  0  0
  9 22  1  0  0  0  0
  9 14  1  1  0  0  0
 10 21  2  0  0  0  0
 11 28  1  6  0  0  0
 11  8  1  0  0  0  0
 11  5  1  0  0  0  0
 12  4  1  1  0  0  0
 12 27  1  0  0  0  0
 13 18  1  0  0  0  0
 15 23  1  0  0  0  0
 16  2  1  0  0  0  0
 17  3  1  0  0  0  0
 18 25  2  0  0  0  0
 19 26  1  0  0  0  0
 20 17  1  0  0  0  0
 22 20  1  6  0  0  0
 22 10  1  0  0  0  0
 23 14  1  0  0  0  0
 26 25  1  0  0  0  0
 26 17  2  0  0  0  0
 27 24  1  1  0  0  0
 27  7  1  0  0  0  0
 29 30  1  0  0  0  0
 30 28  1  0  0  0  0
M  END
>  <MODEL>
1

>  <REMARK>
 VINA RESULT:      -7.2      0.000      0.000
  Name = 
  2 active torsions:
  status: ('A' for Active; 'I' for Inactive)
    1  A    between atoms: C_11  and  C_28
    2  A    between atoms: C_28  and  C_30
                            x       y       z     vdW  Elec       q    Type
                         _______ _______ _______ _____ _____    ______ ____

>  <TORSDO>
F 2

$$$$
=
 OpenBabel11122412413D

 30 35  0  0  1  0  0  0  0  0999 V2000
  161.2240  205.0840  149.3120 C   0  0  0  0  0  0  0  0  0  0  0  0
  160.9900  202.6330  148.9620 C   0  0  0  0  0  0  0  0  0  0  0  0
  161.1930  204.5980  153.4870 N   0  0  0  0  0  2  0  0  0  0  0  0
  161.2830  206.1860  150.1960 C   0  0  0  0  0  0  0  0  0  0  0  0
  161.3030  205.3180  147.9380 O   0  0  0  0  0  0  0  0  0  0  0  0
  161.8900  208.9070  147.7290 O   0  0  0  0  0  1  0  0  0  0  0  0
  160.7170  209.0900  151.6370 C   0  0  1  0  0  3  0  0  0  0  0  0
  161.2060  207.7450  148.1000 C   0  0  1  0  0  3  0  0  0  0  0  0
  160.4560  208.0170  152.6980 C   0  0  2  0  0  3  0  0  0  0  0  0
  161.3720  205.9570  153.8690 C   0  0  0  0  0  0  0  0  0  0  0  0
  161.8390  206.5310  147.4190 C   0  0  2  0  0  3  0  0  0  0  0  0
  161.1360  207.5900  149.6350 C   0  0  2  0  0  3  0  0  0  0  0  0
  160.8610  201.3520  149.5050 C   0  0  0  0  0  3  0  0  0  0  0  0
  160.4060  208.6460  153.9610 O   0  0  0  0  0  0  0  0  0  0  0  0
  161.1370  210.2890  152.4140 C   0  0  0  0  0  2  0  0  0  0  0  0
  161.0140  202.7610  147.5770 O   0  0  0  0  0  1  0  0  0  0  0  0
  161.1760  204.6500  152.0690 C   0  0  0  0  0  0  0  0  0  0  0  0
  160.8300  201.1640  150.8870 C   0  0  0  0  0  3  0  0  0  0  0  0
  161.0900  203.7590  149.8140 C   0  0  0  0  0  0  0  0  0  0  0  0
  161.2980  205.9340  151.5770 C   0  0  0  0  0  0  0  0  0  0  0  0
  161.4760  206.3060  155.0740 O   0  0  0  0  0  0  0  0  0  0  0  0
  161.5060  206.8990  152.7060 C   0  0  1  0  0  3  0  0  0  0  0  0
  160.4900  210.0350  153.7490 C   0  0  0  0  0  2  0  0  0  0  0  0
  163.1330  208.6230  150.8380 C   0  0  0  0  0  1  0  0  0  0  0  0
  160.9300  202.2590  151.7420 C   0  0  0  0  0  3  0  0  0  0  0  0
  161.0590  203.5510  151.2200 C   0  0  0  0  0  0  0  0  0  0  0  0
  161.6610  208.7640  150.4660 C   0  0  2  0  0  3  0  0  0  0  0  0
  161.6710  206.5780  145.9030 C   0  0  0  0  0  2  0  0  0  0  0  0
  160.8310  204.7090  144.5110 C   0  0  0  0  0  1  0  0  0  0  0  0
  160.4300  205.8280  145.4470 C   0  0  0  0  0  2  0  0  0  0  0  0
  1 19  2  0  0  0  0
  1  4  1  0  0  0  0
  2 13  2  0  0  0  0
  2 19  1  0  0  0  0
  3 10  1  0  0  0  0
  4 20  2  0  0  0  0
  5  1  1  0  0  0  0
  7 15  1  1  0  0  0
  7  9  1  0  0  0  0
  8  6  1  1  0  0  0
  8 12  1  0  0  0  0
  9 22  1  0  0  0  0
  9 14  1  1  0  0  0
 10 21  2  0  0  0  0
 11 28  1  6  0  0  0
 11  5  1  0  0  0  0
 11  8  1  0  0  0  0
 12  4  1  1  0  0  0
 12 27  1  0  0  0  0
 13 18  1  0  0  0  0
 15 23  1  0  0  0  0
 16  2  1  0  0  0  0
 17  3  1  0  0  0  0
 18 25  2  0  0  0  0
 19 26  1  0  0  0  0
 20 17  1  0  0  0  0
 22 20  1  6  0  0  0
 22 10  1  0  0  0  0
 23 14  1  0  0  0  0
 26 25  1  0  0  0  0
 26 17  2  0  0  0  0
 27 24  1  1  0  0  0
 27  7  1  0  0  0  0
 29 30  1  0  0  0  0
 30 28  1  0  0  0  0
M  END
>  <MODEL>
2

>  <REMARK>
 VINA RESULT:      -7.1      1.114      1.367
  Name = 
  2 active torsions:
  status: ('A' for Active; 'I' for Inactive)
    1  A    between atoms: C_11  and  C_28
    2  A    between atoms: C_28  and  C_30
                            x       y       z     vdW  Elec       q    Type
                         _______ _______ _______ _____ _____    ______ ____

>  <TORSDO>
F 2

$$$$
=
 OpenBabel11122412413D

 30 35  0  0  1  0  0  0  0  0999 V2000
  161.4250  208.1920  151.4620 C   0  0  0  0  0  0  0  0  0  0  0  0
  161.6570  210.5880  150.8360 C   0  0  0  0  0  0  0  0  0  0  0  0
  162.1610  206.9780  147.5060 N   0  0  0  0  0  2  0  0  0  0  0  0
  161.3930  206.8320  151.0770 C   0  0  0  0  0  0  0  0  0  0  0  0
  161.2340  208.5160  152.8070 O   0  0  0  0  0  0  0  0  0  0  0  0
  161.0170  205.2620  154.4310 O   0  0  0  0  0  1  0  0  0  0  0  0
  160.4680  203.6960  150.6990 C   0  0  1  0  0  3  0  0  0  0  0  0
  160.6590  206.2600  153.5180 C   0  0  1  0  0  3  0  0  0  0  0  0
  160.6090  204.2830  149.2910 C   0  0  2  0  0  3  0  0  0  0  0  0
  162.1100  205.5680  147.6940 C   0  0  0  0  0  0  0  0  0  0  0  0
  161.4150  207.5500  153.8380 C   0  0  2  0  0  3  0  0  0  0  0  0
  160.8680  205.8000  152.0590 C   0  0  2  0  0  3  0  0  0  0  0  0
  161.8870  211.5520  149.8510 C   0  0  0  0  0  3  0  0  0  0  0  0
  160.6310  203.2160  148.3660 O   0  0  0  0  0  0  0  0  0  0  0  0
  160.7460  202.2430  150.5270 C   0  0  0  0  0  2  0  0  0  0  0  0
  161.4330  211.0180  152.1390 O   0  0  0  0  0  1  0  0  0  0  0  0
  161.9080  207.4960  148.8020 C   0  0  0  0  0  0  0  0  0  0  0  0
  162.1170  211.1770  148.5270 C   0  0  0  0  0  3  0  0  0  0  0  0
  161.6530  209.2130  150.4970 C   0  0  0  0  0  0  0  0  0  0  0  0
  161.6800  206.5100  149.7400 C   0  0  0  0  0  0  0  0  0  0  0  0
  162.3290  204.7580  146.7560 O   0  0  0  0  0  0  0  0  0  0  0  0
  161.8580  205.1570  149.1180 C   0  0  1  0  0  3  0  0  0  0  0  0
  160.3870  202.0280  149.0810 C   0  0  0  0  0  2  0  0  0  0  0  0
  162.7700  204.1200  151.8010 C   0  0  0  0  0  1  0  0  0  0  0  0
  162.1200  209.8300  148.1740 C   0  0  0  0  0  3  0  0  0  0  0  0
  161.8910  208.8470  149.1440 C   0  0  0  0  0  0  0  0  0  0  0  0
  161.2610  204.3340  151.8540 C   0  0  2  0  0  3  0  0  0  0  0  0
  161.0030  208.1320  155.1870 C   0  0  0  0  0  2  0  0  0  0  0  0
  159.9740  210.3490  155.5870 C   0  0  0  0  0  1  0  0  0  0  0  0
  161.2630  209.6280  155.2610 C   0  0  0  0  0  2  0  0  0  0  0  0
  1  5  1  0  0  0  0
  2 16  1  0  0  0  0
  3 10  1  0  0  0  0
  3 17  1  0  0  0  0
  4  1  1  0  0  0  0
  5 11  1  0  0  0  0
  7 15  1  6  0  0  0
  7 27  1  0  0  0  0
  8 11  1  0  0  0  0
  8  6  1  1  0  0  0
  9 14  1  6  0  0  0
  9  7  1  0  0  0  0
 11 28  1  1  0  0  0
 12  4  1  1  0  0  0
 12  8  1  0  0  0  0
 13  2  2  0  0  0  0
 14 23  1  0  0  0  0
 17 26  2  0  0  0  0
 17 20  1  0  0  0  0
 18 13  1  0  0  0  0
 19  2  1  0  0  0  0
 19  1  2  0  0  0  0
 20  4  2  0  0  0  0
 21 10  2  0  0  0  0
 22 10  1  6  0  0  0
 22  9  1  0  0  0  0
 22 20  1  0  0  0  0
 23 15  1  0  0  0  0
 25 18  2  0  0  0  0
 25 26  1  0  0  0  0
 26 19  1  0  0  0  0
 27 24  1  6  0  0  0
 27 12  1  0  0  0  0
 28 30  1  0  0  0  0
 30 29  1  0  0  0  0
M  END
>  <MODEL>
3

>  <REMARK>
 VINA RESULT:      -7.0      2.122      7.154
  Name = 
  2 active torsions:
  status: ('A' for Active; 'I' for Inactive)
    1  A    between atoms: C_11  and  C_28
    2  A    between atoms: C_28  and  C_30
                            x       y       z     vdW  Elec       q    Type
                         _______ _______ _______ _____ _____    ______ ____

>  <TORSDO>
F 2

$$$$
=
 OpenBabel11122412413D

 30 35  0  0  1  0  0  0  0  0999 V2000
  161.1310  209.4060  151.6810 C   0  0  0  0  0  0  0  0  0  0  0  0
  161.1310  211.7800  150.9380 C   0  0  0  0  0  0  0  0  0  0  0  0
  162.1640  208.0900  147.8250 N   0  0  0  0  0  2  0  0  0  0  0  0
  161.2610  208.0330  151.3670 C   0  0  0  0  0  0  0  0  0  0  0  0
  160.8480  209.7710  152.9980 O   0  0  0  0  0  0  0  0  0  0  0  0
  160.9100  206.5960  154.7830 O   0  0  0  0  0  1  0  0  0  0  0  0
  160.6960  204.8010  151.1200 C   0  0  1  0  0  3  0  0  0  0  0  0
  160.4880  207.5030  153.8060 C   0  0  1  0  0  3  0  0  0  0  0  0
  160.8350  205.3300  149.6900 C   0  0  2  0  0  3  0  0  0  0  0  0
  162.2570  206.6930  148.0850 C   0  0  0  0  0  0  0  0  0  0  0  0
  161.0860  208.8820  154.0850 C   0  0  2  0  0  3  0  0  0  0  0  0
  160.8070  206.9980  152.3820 C   0  0  2  0  0  3  0  0  0  0  0  0
  161.2990  212.7140  149.9130 C   0  0  0  0  0  3  0  0  0  0  0  0
  161.0110  204.2290  148.8240 O   0  0  0  0  0  0  0  0  0  0  0  0
  161.1360  203.3800  151.0360 C   0  0  0  0  0  2  0  0  0  0  0  0
  160.8050  212.2450  152.2070 O   0  0  0  0  0  1  0  0  0  0  0  0
  161.8010  208.6390  149.0810 C   0  0  0  0  0  0  0  0  0  0  0  0
  161.6240  212.3030  148.6210 C   0  0  0  0  0  3  0  0  0  0  0  0
  161.2890  210.3980  150.6730 C   0  0  0  0  0  0  0  0  0  0  0  0
  161.6390  207.6800  150.0610 C   0  0  0  0  0  0  0  0  0  0  0  0
  162.6030  205.8680  147.2000 O   0  0  0  0  0  0  0  0  0  0  0  0
  161.9880  206.3270  149.5180 C   0  0  1  0  0  3  0  0  0  0  0  0
  160.8650  203.0580  149.5910 C   0  0  0  0  0  2  0  0  0  0  0  0
  162.8890  205.5270  152.2860 C   0  0  0  0  0  1  0  0  0  0  0  0
  161.7880  210.9490  148.3400 C   0  0  0  0  0  3  0  0  0  0  0  0
  161.6240  209.9950  149.3510 C   0  0  0  0  0  0  0  0  0  0  0  0
  161.3640  205.5760  152.2700 C   0  0  2  0  0  3  0  0  0  0  0  0
  160.5550  209.4800  155.3850 C   0  0  0  0  0  2  0  0  0  0  0  0
  162.6380  210.6710  156.0020 C   0  0  0  0  0  1  0  0  0  0  0  0
  161.1700  210.8400  155.6750 C   0  0  0  0  0  2  0  0  0  0  0  0
  1  5  1  0  0  0  0
  2 16  1  0  0  0  0
  3 10  1  0  0  0  0
  3 17  1  0  0  0  0
  4  1  1  0  0  0  0
  5 11  1  0  0  0  0
  7 15  1  6  0  0  0
  7 27  1  0  0  0  0
  8 11  1  0  0  0  0
  8  6  1  1  0  0  0
  9 14  1  6  0  0  0
  9  7  1  0  0  0  0
 11 28  1  1  0  0  0
 12  4  1  1  0  0  0
 12  8  1  0  0  0  0
 13  2  2  0  0  0  0
 14 23  1  0  0  0  0
 17 26  2  0  0  0  0
 17 20  1  0  0  0  0
 18 13  1  0  0  0  0
 19  2  1  0  0  0  0
 19  1  2  0  0  0  0
 20  4  2  0  0  0  0
 21 10  2  0  0  0  0
 22 10  1  6  0  0  0
 22  9  1  0  0  0  0
 22 20  1  0  0  0  0
 23 15  1  0  0  0  0
 25 18  2  0  0  0  0
 25 26  1  0  0  0  0
 26 19  1  0  0  0  0
 27 24  1  6  0  0  0
 27 12  1  0  0  0  0
 28 30  1  0  0  0  0
 30 29  1  0  0  0  0
M  END
>  <MODEL>
4

>  <REMARK>
 VINA RESULT:      -7.0      2.159      7.229
  Name = 
  2 active torsions:
  status: ('A' for Active; 'I' for Inactive)
    1  A    between atoms: C_11  and  C_28
    2  A    between atoms: C_28  and  C_30
                            x       y       z     vdW  Elec       q    Type
                         _______ _______ _______ _____ _____    ______ ____

>  <TORSDO>
F 2

$$$$
=
 OpenBabel11122412413D

 30 35  0  0  1  0  0  0  0  0999 V2000
  161.2400  207.7860  151.1090 C   0  0  0  0  0  0  0  0  0  0  0  0
  161.3520  205.5960  149.9360 C   0  0  0  0  0  0  0  0  0  0  0  0
  160.7120  205.8900  154.8220 N   0  0  0  0  0  2  0  0  0  0  0  0
  161.0490  208.5180  152.3040 C   0  0  0  0  0  0  0  0  0  0  0  0
  161.4730  208.4850  149.9220 O   0  0  0  0  0  0  0  0  0  0  0  0
  161.6470  211.9570  151.0110 O   0  0  0  0  0  1  0  0  0  0  0  0
  159.9500  210.7010  154.5070 C   0  0  1  0  0  3  0  0  0  0  0  0
  161.0650  210.6940  150.8590 C   0  0  1  0  0  3  0  0  0  0  0  0
  159.6810  209.3130  155.0960 C   0  0  2  0  0  3  0  0  0  0  0  0
  160.6740  207.0420  155.6560 C   0  0  0  0  0  0  0  0  0  0  0  0
  161.9240  209.8350  149.9300 C   0  0  2  0  0  3  0  0  0  0  0  0
  160.8090  210.0160  152.2210 C   0  0  2  0  0  3  0  0  0  0  0  0
  161.3070  204.2010  149.9970 C   0  0  0  0  0  3  0  0  0  0  0  0
  159.3880  209.4630  156.4690 O   0  0  0  0  0  0  0  0  0  0  0  0
  160.1160  211.5840  155.6950 C   0  0  0  0  0  2  0  0  0  0  0  0
  161.5440  206.1960  148.6960 O   0  0  0  0  0  1  0  0  0  0  0  0
  160.8780  206.4260  153.5200 C   0  0  0  0  0  0  0  0  0  0  0  0
  161.1150  203.5460  151.2130 C   0  0  0  0  0  3  0  0  0  0  0  0
  161.2010  206.3640  151.1160 C   0  0  0  0  0  0  0  0  0  0  0  0
  160.9100  207.8060  153.5070 C   0  0  0  0  0  0  0  0  0  0  0  0
  160.5740  206.9620  156.9080 O   0  0  0  0  0  0  0  0  0  0  0  0
  160.8480  208.3350  154.9080 C   0  0  1  0  0  3  0  0  0  0  0  0
  159.3320  210.8420  156.7440 C   0  0  0  0  0  2  0  0  0  0  0  0
  162.4900  210.7030  154.0130 C   0  0  0  0  0  1  0  0  0  0  0  0
  160.9680  204.2830  152.3860 C   0  0  0  0  0  3  0  0  0  0  0  0
  161.0090  205.6820  152.3490 C   0  0  0  0  0  0  0  0  0  0  0  0
  161.0740  210.8640  153.4680 C   0  0  2  0  0  3  0  0  0  0  0  0
  161.9550  210.3910  148.5090 C   0  0  0  0  0  2  0  0  0  0  0  0
  161.9780  212.6630  147.5220 C   0  0  0  0  0  1  0  0  0  0  0  0
  162.7160  211.7050  148.4320 C   0  0  0  0  0  2  0  0  0  0  0  0
  1 19  2  0  0  0  0
  1  4  1  0  0  0  0
  2 13  2  0  0  0  0
  2 19  1  0  0  0  0
  3 10  1  0  0  0  0
  4 20  2  0  0  0  0
  5 11  1  0  0  0  0
  5  1  1  0  0  0  0
  7  9  1  0  0  0  0
  7 15  1  1  0  0  0
  8  6  1  1  0  0  0
  8 12  1  0  0  0  0
  9 14  1  1  0  0  0
 10 21  2  0  0  0  0
 11 28  1  6  0  0  0
 11  8  1  0  0  0  0
 12  4  1  1  0  0  0
 12 27  1  0  0  0  0
 13 18  1  0  0  0  0
 14 23  1  0  0  0  0
 15 23  1  0  0  0  0
 16  2  1  0  0  0  0
 17  3  1  0  0  0  0
 18 25  2  0  0  0  0
 19 26  1  0  0  0  0
 20 17  1  0  0  0  0
 22 20  1  6  0  0  0
 22  9  1  0  0  0  0
 22 10  1  0  0  0  0
 26 25  1  0  0  0  0
 26 17  2  0  0  0  0
 27 24  1  1  0  0  0
 27  7  1  0  0  0  0
 29 30  1  0  0  0  0
 30 28  1  0  0  0  0
M  END
>  <MODEL>
5

>  <REMARK>
 VINA RESULT:      -6.1      1.785      2.729
  Name = 
  2 active torsions:
  status: ('A' for Active; 'I' for Inactive)
    1  A    between atoms: C_11  and  C_28
    2  A    between atoms: C_28  and  C_30
                            x       y       z     vdW  Elec       q    Type
                         _______ _______ _______ _____ _____    ______ ____

>  <TORSDO>
F 2

$$$$
=
 OpenBabel11122412413D

 30 35  0  0  1  0  0  0  0  0999 V2000
  161.1490  209.1180  152.1760 C   0  0  0  0  0  0  0  0  0  0  0  0
  162.0630  209.0770  149.8640 C   0  0  0  0  0  0  0  0  0  0  0  0
  159.9860  213.1360  151.7580 N   0  0  0  0  0  2  0  0  0  0  0  0
  160.5510  209.8400  153.2350 C   0  0  0  0  0  0  0  0  0  0  0  0
  161.4500  207.7680  152.3680 O   0  0  0  0  0  0  0  0  0  0  0  0
  160.1110  207.0710  155.6830 O   0  0  0  0  0  1  0  0  0  0  0  0
  159.9210  211.1170  156.2020 C   0  0  1  0  0  3  0  0  0  0  0  0
  160.9030  207.7330  154.7400 C   0  0  1  0  0  3  0  0  0  0  0  0
  160.0860  212.3000  155.2430 C   0  0  2  0  0  3  0  0  0  0  0  0
  159.3740  213.3230  153.0290 C   0  0  0  0  0  0  0  0  0  0  0  0
  160.8280  207.0050  153.3970 C   0  0  2  0  0  3  0  0  0  0  0  0
  160.5250  209.2250  154.6240 C   0  0  2  0  0  3  0  0  0  0  0  0
  162.3200  209.7470  148.6650 C   0  0  0  0  0  3  0  0  0  0  0  0
  159.5850  213.4580  155.8770 O   0  0  0  0  0  0  0  0  0  0  0  0
  159.0020  211.6210  157.2610 C   0  0  0  0  0  2  0  0  0  0  0  0
  162.4440  207.7430  149.9680 O   0  0  0  0  0  1  0  0  0  0  0  0
  160.4330  211.7900  151.7980 C   0  0  0  0  0  0  0  0  0  0  0  0
  161.9600  211.0850  148.5050 C   0  0  0  0  0  3  0  0  0  0  0  0
  161.4330  209.7540  150.9350 C   0  0  0  0  0  0  0  0  0  0  0  0
  160.1660  211.1710  153.0020 C   0  0  0  0  0  0  0  0  0  0  0  0
  158.8170  214.4040  153.3530 O   0  0  0  0  0  0  0  0  0  0  0  0
  159.3890  212.0930  153.8930 C   0  0  1  0  0  3  0  0  0  0  0  0
  159.2400  213.1060  157.1950 C   0  0  0  0  0  2  0  0  0  0  0  0
  158.0640  209.6750  155.1220 C   0  0  0  0  0  1  0  0  0  0  0  0
  161.3370  211.7690  149.5460 C   0  0  0  0  0  3  0  0  0  0  0  0
  161.0710  211.1180  150.7570 C   0  0  0  0  0  0  0  0  0  0  0  0
  159.4990  209.7510  155.6330 C   0  0  2  0  0  3  0  0  0  0  0  0
  161.4450  205.6120  153.4700 C   0  0  0  0  0  2  0  0  0  0  0  0
  160.8570  203.6500  152.0760 C   0  0  0  0  0  1  0  0  0  0  0  0
  161.5800  204.9790  152.0930 C   0  0  0  0  0  2  0  0  0  0  0  0
  1  5  1  0  0  0  0
  1  4  1  0  0  0  0
  2 16  1  0  0  0  0
  2 19  1  0  0  0  0
  3 17  1  0  0  0  0
  3 10  1  0  0  0  0
  5 11  1  0  0  0  0
  7 15  1  1  0  0  0
  8  6  1  1  0  0  0
  9 14  1  1  0  0  0
  9  7  1  0  0  0  0
 10 21  2  0  0  0  0
 10 22  1  0  0  0  0
 11 28  1  1  0  0  0
 11  8  1  0  0  0  0
 12  4  1  6  0  0  0
 12  8  1  0  0  0  0
 12 27  1  0  0  0  0
 13  2  2  0  0  0  0
 14 23  1  0  0  0  0
 17 20  1  0  0  0  0
 18 13  1  0  0  0  0
 18 25  2  0  0  0  0
 19  1  2  0  0  0  0
 20  4  2  0  0  0  0
 22 20  1  6  0  0  0
 22  9  1  0  0  0  0
 23 15  1  0  0  0  0
 25 26  1  0  0  0  0
 26 19  1  0  0  0  0
 26 17  2  0  0  0  0
 27 24  1  6  0  0  0
 27  7  1  0  0  0  0
 29 30  1  0  0  0  0
 30 28  1  0  0  0  0
M  END
>  <MODEL>
6

>  <REMARK>
 VINA RESULT:      -5.8      2.597      5.943
  Name = 
  2 active torsions:
  status: ('A' for Active; 'I' for Inactive)
    1  A    between atoms: C_11  and  C_28
    2  A    between atoms: C_28  and  C_30
                            x       y       z     vdW  Elec       q    Type
                         _______ _______ _______ _____ _____    ______ ____

>  <TORSDO>
F 2

$$$$
=
 OpenBabel11122412413D

 30 35  0  0  1  0  0  0  0  0999 V2000
  161.5940  207.9710  151.3190 C   0  0  0  0  0  0  0  0  0  0  0  0
  161.5230  208.4990  153.7490 C   0  0  0  0  0  0  0  0  0  0  0  0
  160.5110  203.9760  152.0470 N   0  0  0  0  0  2  0  0  0  0  0  0
  161.4900  207.0210  150.2770 C   0  0  0  0  0  0  0  0  0  0  0  0
  161.8970  209.2960  150.9950 O   0  0  0  0  0  0  0  0  0  0  0  0
  161.9470  209.2780  147.3520 O   0  0  0  0  0  1  0  0  0  0  0  0
  162.1260  205.2060  147.6070 C   0  0  1  0  0  3  0  0  0  0  0  0
  162.3270  208.8740  148.6360 C   0  0  1  0  0  3  0  0  0  0  0  0
  161.9440  204.2250  148.7690 C   0  0  2  0  0  3  0  0  0  0  0  0
  160.4560  203.5130  150.7020 C   0  0  0  0  0  0  0  0  0  0  0  0
  161.7030  209.8030  149.6780 C   0  0  2  0  0  3  0  0  0  0  0  0
  161.9890  207.3900  148.8910 C   0  0  2  0  0  3  0  0  0  0  0  0
  161.3110  208.0710  155.0620 C   0  0  0  0  0  3  0  0  0  0  0  0
  161.7760  202.9290  148.2340 O   0  0  0  0  0  0  0  0  0  0  0  0
  161.7180  204.4340  146.4010 C   0  0  0  0  0  2  0  0  0  0  0  0
  161.8640  209.8300  153.5370 O   0  0  0  0  0  1  0  0  0  0  0  0
  160.8870  205.3370  151.9160 C   0  0  0  0  0  0  0  0  0  0  0  0
  160.9680  206.7470  155.3330 C   0  0  0  0  0  3  0  0  0  0  0  0
  161.3910  207.5870  152.6740 C   0  0  0  0  0  0  0  0  0  0  0  0
  161.0930  205.7140  150.6040 C   0  0  0  0  0  0  0  0  0  0  0  0
  160.1120  202.3380  150.4110 O   0  0  0  0  0  0  0  0  0  0  0  0
  160.7640  204.5760  149.6850 C   0  0  1  0  0  3  0  0  0  0  0  0
  161.9650  203.0160  146.8420 C   0  0  0  0  0  2  0  0  0  0  0  0
  159.9410  206.5930  147.5950 C   0  0  0  0  0  1  0  0  0  0  0  0
  160.8300  205.8340  154.2900 C   0  0  0  0  0  3  0  0  0  0  0  0
  161.0380  206.2400  152.9660 C   0  0  0  0  0  0  0  0  0  0  0  0
  161.4640  206.5930  147.6930 C   0  0  2  0  0  3  0  0  0  0  0  0
  162.2470  211.2240  149.5730 C   0  0  0  0  0  2  0  0  0  0  0  0
  161.8440  212.8220  147.7220 C   0  0  0  0  0  1  0  0  0  0  0  0
  161.2360  212.1720  148.9460 C   0  0  0  0  0  2  0  0  0  0  0  0
  1 19  1  0  0  0  0
  2 13  1  0  0  0  0
  4 20  1  0  0  0  0
  4  1  2  0  0  0  0
  5  1  1  0  0  0  0
  7 15  1  6  0  0  0
  7 27  1  0  0  0  0
  7  9  1  0  0  0  0
  8  6  1  6  0  0  0
  8 12  1  0  0  0  0
  8 11  1  0  0  0  0
  9 14  1  6  0  0  0
  9 22  1  0  0  0  0
 10  3  1  0  0  0  0
 11 28  1  1  0  0  0
 11  5  1  0  0  0  0
 12  4  1  1  0  0  0
 13 18  2  0  0  0  0
 15 23  1  0  0  0  0
 16  2  1  0  0  0  0
 17  3  1  0  0  0  0
 17 26  1  0  0  0  0
 19 26  1  0  0  0  0
 19  2  2  0  0  0  0
 20 17  2  0  0  0  0
 21 10  2  0  0  0  0
 22 20  1  1  0  0  0
 22 10  1  0  0  0  0
 23 14  1  0  0  0  0
 25 18  1  0  0  0  0
 26 25  2  0  0  0  0
 27 24  1  1  0  0  0
 27 12  1  0  0  0  0
 29 30  1  0  0  0  0
 30 28  1  0  0  0  0
M  END
>  <MODEL>
7

>  <REMARK>
 VINA RESULT:      -5.7      1.827      5.648
  Name = 
  2 active torsions:
  status: ('A' for Active; 'I' for Inactive)
    1  A    between atoms: C_11  and  C_28
    2  A    between atoms: C_28  and  C_30
                            x       y       z     vdW  Elec       q    Type
                         _______ _______ _______ _____ _____    ______ ____

>  <TORSDO>
F 2

$$$$
=
 OpenBabel11122412413D

 30 35  0  0  1  0  0  0  0  0999 V2000
  161.1550  204.0550  148.6210 C   0  0  0  0  0  0  0  0  0  0  0  0
  160.6800  201.6240  148.8500 C   0  0  0  0  0  0  0  0  0  0  0  0
  161.2850  204.5300  152.7960 N   0  0  0  0  0  2  0  0  0  0  0  0
  161.3590  205.3170  149.2270 C   0  0  0  0  0  0  0  0  0  0  0  0
  161.1880  203.9630  147.2280 O   0  0  0  0  0  0  0  0  0  0  0  0
  162.0910  207.3350  146.1860 O   0  0  0  0  0  1  0  0  0  0  0  0
  161.1340  208.5130  149.9770 C   0  0  1  0  0  3  0  0  0  0  0  0
  161.3230  206.3620  146.8320 C   0  0  1  0  0  3  0  0  0  0  0  0
  160.8280  207.7390  151.2630 C   0  0  2  0  0  3  0  0  0  0  0  0
  161.6070  205.9150  152.8510 C   0  0  0  0  0  0  0  0  0  0  0  0
  161.8070  204.9680  146.4310 C   0  0  2  0  0  3  0  0  0  0  0  0
  161.3140  206.5650  148.3620 C   0  0  2  0  0  3  0  0  0  0  0  0
  160.4620  200.5190  149.6760 C   0  0  0  0  0  3  0  0  0  0  0  0
  160.8990  208.6390  152.3490 O   0  0  0  0  0  0  0  0  0  0  0  0
  161.7000  209.8080  150.4470 C   0  0  0  0  0  2  0  0  0  0  0  0
  160.6480  201.4340  147.4730 O   0  0  0  0  0  1  0  0  0  0  0  0
  161.2040  204.2620  151.4050 C   0  0  0  0  0  0  0  0  0  0  0  0
  160.4820  200.6520  151.0640 C   0  0  0  0  0  3  0  0  0  0  0  0
  160.9250  202.8980  149.4170 C   0  0  0  0  0  0  0  0  0  0  0  0
  161.4190  205.3830  150.6280 C   0  0  0  0  0  0  0  0  0  0  0  0
  161.8030  206.5150  153.9400 O   0  0  0  0  0  0  0  0  0  0  0  0
  161.7700  206.5520  151.4990 C   0  0  1  0  0  3  0  0  0  0  0  0
  161.0990  209.9280  151.8220 C   0  0  0  0  0  2  0  0  0  0  0  0
  163.4550  207.6370  149.2420 C   0  0  0  0  0  1  0  0  0  0  0  0
  160.7240  201.8960  151.6420 C   0  0  0  0  0  3  0  0  0  0  0  0
  160.9450  203.0170  150.8340 C   0  0  0  0  0  0  0  0  0  0  0  0
  161.9850  207.8380  148.8870 C   0  0  2  0  0  3  0  0  0  0  0  0
  161.5700  204.6880  144.9490 C   0  0  0  0  0  2  0  0  0  0  0  0
  159.8360  202.9740  144.5100 C   0  0  0  0  0  1  0  0  0  0  0  0
  160.0980  204.4580  144.6450 C   0  0  0  0  0  2  0  0  0  0  0  0
  1  4  2  0  0  0  0
  1 19  1  0  0  0  0
  2 19  2  0  0  0  0
  2 13  1  0  0  0  0
  3 10  1  0  0  0  0
  4 20  1  0  0  0  0
  5  1  1  0  0  0  0
  7 15  1  1  0  0  0
  7  9  1  0  0  0  0
  8  6  1  6  0  0  0
  8 12  1  0  0  0  0
  9 22  1  0  0  0  0
  9 14  1  1  0  0  0
 10 21  2  0  0  0  0
 11 28  1  6  0  0  0
 11  8  1  0  0  0  0
 11  5  1  0  0  0  0
 12 27  1  0  0  0  0
 12  4  1  1  0  0  0
 13 18  2  0  0  0  0
 15 23  1  0  0  0  0
 16  2  1  0  0  0  0
 17  3  1  0  0  0  0
 18 25  1  0  0  0  0
 19 26  1  0  0  0  0
 20 17  2  0  0  0  0
 22 20  1  6  0  0  0
 22 10  1  0  0  0  0
 23 14  1  0  0  0  0
 26 17  1  0  0  0  0
 26 25  2  0  0  0  0
 27 24  1  1  0  0  0
 27  7  1  0  0  0  0
 29 30  1  0  0  0  0
 30 28  1  0  0  0  0
M  END
>  <MODEL>
8

>  <REMARK>
 VINA RESULT:      -5.2      1.662      2.642
  Name = 
  2 active torsions:
  status: ('A' for Active; 'I' for Inactive)
    1  A    between atoms: C_11  and  C_28
    2  A    between atoms: C_28  and  C_30
                            x       y       z     vdW  Elec       q    Type
                         _______ _______ _______ _____ _____    ______ ____

>  <TORSDO>
F 2

$$$$
=
 OpenBabel11122412413D

 30 35  0  0  1  0  0  0  0  0999 V2000
  160.6430  210.5600  151.6760 C   0  0  0  0  0  0  0  0  0  0  0  0
  161.9350  208.7860  150.5070 C   0  0  0  0  0  0  0  0  0  0  0  0
  160.4720  208.2660  155.1940 N   0  0  0  0  0  2  0  0  0  0  0  0
  159.9510  211.0030  152.8270 C   0  0  0  0  0  0  0  0  0  0  0  0
  160.7120  211.4040  150.5660 O   0  0  0  0  0  0  0  0  0  0  0  0
  159.0910  214.4530  151.7270 O   0  0  0  0  0  1  0  0  0  0  0  0
  157.6380  212.2230  154.8250 C   0  0  1  0  0  3  0  0  0  0  0  0
  159.1880  213.0860  151.4480 C   0  0  1  0  0  3  0  0  0  0  0  0
  157.9500  210.8110  155.3290 C   0  0  2  0  0  3  0  0  0  0  0  0
  159.7760  209.1870  156.0250 C   0  0  0  0  0  0  0  0  0  0  0  0
  160.4810  212.8050  150.6800 C   0  0  2  0  0  3  0  0  0  0  0  0
  159.0640  212.2320  152.7270 C   0  0  2  0  0  3  0  0  0  0  0  0
  162.5300  207.5210  150.5340 C   0  0  0  0  0  3  0  0  0  0  0  0
  157.4090  210.6740  156.6260 O   0  0  0  0  0  0  0  0  0  0  0  0
  157.1880  212.9620  156.0380 C   0  0  0  0  0  2  0  0  0  0  0  0
  162.0220  209.5290  149.3350 O   0  0  0  0  0  1  0  0  0  0  0  0
  160.5750  208.9470  153.9540 C   0  0  0  0  0  0  0  0  0  0  0  0
  162.4730  206.7320  151.6830 C   0  0  0  0  0  3  0  0  0  0  0  0
  161.2640  209.2800  151.6510 C   0  0  0  0  0  0  0  0  0  0  0  0
  159.9680  210.1870  153.9710 C   0  0  0  0  0  0  0  0  0  0  0  0
  159.5290  208.9440  157.2350 O   0  0  0  0  0  0  0  0  0  0  0  0
  159.4500  210.4870  155.3450 C   0  0  1  0  0  3  0  0  0  0  0  0
  156.6810  211.8440  156.9090 C   0  0  0  0  0  2  0  0  0  0  0  0
  159.9330  213.4180  154.8120 C   0  0  0  0  0  1  0  0  0  0  0  0
  161.8190  207.2010  152.8200 C   0  0  0  0  0  3  0  0  0  0  0  0
  161.2160  208.4640  152.8150 C   0  0  0  0  0  0  0  0  0  0  0  0
  158.7080  212.9780  154.0160 C   0  0  2  0  0  3  0  0  0  0  0  0
  160.4760  213.4550  149.3000 C   0  0  0  0  0  2  0  0  0  0  0  0
  160.9600  212.3000  147.1620 C   0  0  0  0  0  1  0  0  0  0  0  0
  161.5750  212.8990  148.4080 C   0  0  0  0  0  2  0  0  0  0  0  0
  1  4  1  0  0  0  0
  2 13  2  0  0  0  0
  2 19  1  0  0  0  0
  3 10  1  0  0  0  0
  4 20  2  0  0  0  0
  5 11  1  0  0  0  0
  5  1  1  0  0  0  0
  7  9  1  0  0  0  0
  7 15  1  1  0  0  0
  8  6  1  1  0  0  0
  8 12  1  0  0  0  0
  9 22  1  0  0  0  0
  9 14  1  1  0  0  0
 10 21  2  0  0  0  0
 11 28  1  6  0  0  0
 11  8  1  0  0  0  0
 12  4  1  1  0  0  0
 12 27  1  0  0  0  0
 13 18  1  0  0  0  0
 14 23  1  0  0  0  0
 15 23  1  0  0  0  0
 16  2  1  0  0  0  0
 17 20  1  0  0  0  0
 17  3  1  0  0  0  0
 18 25  2  0  0  0  0
 19  1  2  0  0  0  0
 19 26  1  0  0  0  0
 22 20  1  6  0  0  0
 22 10  1  0  0  0  0
 26 25  1  0  0  0  0
 26 17  2  0  0  0  0
 27 24  1  1  0  0  0
 27  7  1  0  0  0  0
 29 30  1  0  0  0  0
 30 28  1  0  0  0  0
M  END
>  <MODEL>
9

>  <REMARK>
 VINA RESULT:      -5.0      2.931      4.920
  Name = 
  2 active torsions:
  status: ('A' for Active; 'I' for Inactive)
    1  A    between atoms: C_11  and  C_28
    2  A    between atoms: C_28  and  C_30
                            x       y       z     vdW  Elec       q    Type
                         _______ _______ _______ _____ _____    ______ ____

>  <TORSDO>
F 2

$$$$
