=
 OpenBabel11122414263D

 34 41  0  0  1  0  0  0  0  0999 V2000
  161.1010  205.1350  151.8980 C   0  0  0  0  0  0  0  0  0  0  0  0
  160.7130  206.4720  154.0250 C   0  0  0  0  0  2  0  0  0  0  0  0
  162.0420  204.7500  145.3620 C   0  0  1  0  0  3  0  0  0  0  0  0
  161.0240  204.0630  149.7230 C   0  0  0  0  0  0  0  0  0  0  0  0
  161.1150  205.4380  147.7260 C   0  0  0  0  0  0  0  0  0  0  0  0
  159.8330  206.0580  145.5490 C   0  0  0  0  0  1  0  0  0  0  0  0
  162.3600  206.2140  145.6440 C   0  0  0  0  0  2  0  0  0  0  0  0
  162.2930  202.6340  146.7550 C   0  0  0  0  0  2  0  0  0  0  0  0
  161.6920  207.5690  152.1030 C   0  0  1  0  0  3  0  0  0  0  0  0
  162.7290  210.3020  151.8630 C   0  0  0  0  0  2  0  0  0  0  0  0
  161.1650  206.5510  148.5090 N   0  0  0  0  0  0  0  0  0  0  0  0
  160.9600  202.9350  147.4510 C   0  0  0  0  0  2  0  0  0  0  0  0
  161.1450  207.7740  150.6790 C   0  0  2  0  0  3  0  0  0  0  0  0
  160.9000  207.9440  154.3630 C   0  0  0  0  0  2  0  0  0  0  0  0
  161.0300  204.1620  148.3210 C   0  0  0  0  0  0  0  0  0  0  0  0
  162.9890  203.8730  146.1810 C   0  0  0  0  0  2  0  0  0  0  0  0
  162.0780  209.8460  153.1790 C   0  0  2  0  0  3  0  0  0  0  0  0
  161.1110  205.2350  150.5000 C   0  0  0  0  0  0  0  0  0  0  0  0
  161.1080  205.5990  146.2270 C   0  0  2  0  0  0  0  0  0  0  0  0
  161.1850  206.4910  149.8680 C   0  0  0  0  0  0  0  0  0  0  0  0
  160.8850  202.7740  151.7650 C   0  0  0  0  0  3  0  0  0  0  0  0
  161.7860  210.2420  150.6650 C   0  0  0  0  0  2  0  0  0  0  0  0
  160.9110  202.8250  150.3700 C   0  0  0  0  0  3  0  0  0  0  0  0
  161.9150  208.8920  149.9660 C   0  0  0  0  0  2  0  0  0  0  0  0
  161.1440  208.6400  153.0290 C   0  0  1  0  0  3  0  0  0  0  0  0
  160.9780  203.9180  152.4950 N   0  0  0  0  0  0  0  0  0  0  0  0
  161.2300  206.3230  152.6800 N   0  0  0  0  0  0  0  0  0  0  0  0
  161.3770  210.9120  153.7460 O   0  0  0  0  0  0  0  0  0  0  0  0
  161.7500  210.9120  155.0960 C   0  0  0  0  0  2  0  0  0  0  0  0
  158.5550  211.8990  155.0350 O   0  0  0  0  0  0  0  0  0  0  0  0
  159.8010  210.6950  156.6380 C   0  0  0  0  0  2  0  0  0  0  0  0
  160.7280  211.6550  155.9510 C   0  0  2  0  0  3  0  0  0  0  0  0
  158.4310  211.1760  156.2300 C   0  0  0  0  0  2  0  0  0  0  0  0
  159.8150  212.5120  155.0990 C   0  0  0  0  0  2  0  0  0  0  0  0
  1 26  1  0  0  0  0
  1 27  1  0  0  0  0
  2 14  1  0  0  0  0
  3  7  1  1  0  0  0
  3 16  1  0  0  0  0
  3 19  1  0  0  0  0
  4 23  2  0  0  0  0
  4 18  1  0  0  0  0
  5 15  2  0  0  0  0
  5 11  1  0  0  0  0
  7 19  1  0  0  0  0
  8 12  1  0  0  0  0
  9 27  1  1  0  0  0
  9 25  1  0  0  0  0
 10 17  1  0  0  0  0
 11 20  2  0  0  0  0
 12 15  1  0  0  0  0
 13 24  1  6  0  0  0
 13  9  1  0  0  0  0
 15  4  1  0  0  0  0
 16  8  1  0  0  0  0
 17 28  1  6  0  0  0
 18  1  2  0  0  0  0
 19  6  1  6  0  0  0
 19  5  1  0  0  0  0
 20 18  1  0  0  0  0
 20 13  1  0  0  0  0
 21 26  2  0  0  0  0
 22 10  1  0  0  0  0
 23 21  1  0  0  0  0
 24 22  1  0  0  0  0
 25 17  1  0  0  0  0
 25 14  1  1  0  0  0
 27  2  1  0  0  0  0
 28 29  1  0  0  0  0
 30 34  1  0  0  0  0
 30 33  1  0  0  0  0
 32 29  1  6  0  0  0
 32 31  1  0  0  0  0
 33 31  1  0  0  0  0
 34 32  1  0  0  0  0
M  END
>  <MODEL>
1

>  <REMARK>
 VINA RESULT:      -9.4      0.000      0.000
  Name = 
  3 active torsions:
  status: ('A' for Active; 'I' for Inactive)
    1  A    between atoms: C_17  and  O_28
    2  A    between atoms: O_28  and  C_29
    3  A    between atoms: C_29  and  C_32
                            x       y       z     vdW  Elec       q    Type
                         _______ _______ _______ _____ _____    ______ ____

>  <TORSDO>
F 3

$$$$
=
 OpenBabel11122414263D

 34 41  0  0  1  0  0  0  0  0999 V2000
  161.0990  205.1940  151.9080 C   0  0  0  0  0  0  0  0  0  0  0  0
  160.7290  206.5640  154.0180 C   0  0  0  0  0  2  0  0  0  0  0  0
  162.0260  204.7070  145.3780 C   0  0  1  0  0  3  0  0  0  0  0  0
  161.0060  204.0920  149.7480 C   0  0  0  0  0  0  0  0  0  0  0  0
  161.1100  205.4390  147.7330 C   0  0  0  0  0  0  0  0  0  0  0  0
  159.8320  206.0430  145.5490 C   0  0  0  0  0  1  0  0  0  0  0  0
  162.3610  206.1720  145.6380 C   0  0  0  0  0  2  0  0  0  0  0  0
  162.2550  202.6080  146.7990 C   0  0  0  0  0  2  0  0  0  0  0  0
  161.7180  207.6240  152.0790 C   0  0  1  0  0  3  0  0  0  0  0  0
  162.7860  210.3410  151.8000 C   0  0  0  0  0  2  0  0  0  0  0  0
  161.1730  206.5620  148.5000 N   0  0  0  0  0  0  0  0  0  0  0  0
  160.9270  202.9340  147.4920 C   0  0  0  0  0  2  0  0  0  0  0  0
  161.1720  207.8150  150.6540 C   0  0  2  0  0  3  0  0  0  0  0  0
  160.9340  208.0380  154.3350 C   0  0  0  0  0  2  0  0  0  0  0  0
  161.0110  204.1720  148.3450 C   0  0  0  0  0  0  0  0  0  0  0  0
  162.9640  203.8320  146.2070 C   0  0  0  0  0  2  0  0  0  0  0  0
  162.1320  209.9110  153.1230 C   0  0  2  0  0  3  0  0  0  0  0  0
  161.1080  205.2740  150.5100 C   0  0  0  0  0  0  0  0  0  0  0  0
  161.1020  205.5790  146.2320 C   0  0  2  0  0  0  0  0  0  0  0  0
  161.1960  206.5210  149.8600 C   0  0  0  0  0  0  0  0  0  0  0  0
  160.8560  202.8340  151.8090 C   0  0  0  0  0  3  0  0  0  0  0  0
  161.8400  210.2750  150.6050 C   0  0  0  0  0  2  0  0  0  0  0  0
  160.8810  202.8650  150.4130 C   0  0  0  0  0  3  0  0  0  0  0  0
  161.9530  208.9140  149.9230 C   0  0  0  0  0  2  0  0  0  0  0  0
  161.1840  208.7130  152.9910 C   0  0  1  0  0  3  0  0  0  0  0  0
  160.9630  203.9860  152.5230 N   0  0  0  0  0  0  0  0  0  0  0  0
  161.2430  206.3910  152.6740 N   0  0  0  0  0  0  0  0  0  0  0  0
  161.4430  210.9920  153.6760 O   0  0  0  0  0  0  0  0  0  0  0  0
  160.2740  211.1060  152.9140 C   0  0  0  0  0  2  0  0  0  0  0  0
  158.3070  213.1250  151.1120 O   0  0  0  0  0  0  0  0  0  0  0  0
  158.3710  212.6360  153.4210 C   0  0  0  0  0  2  0  0  0  0  0  0
  159.7700  212.5450  152.8860 C   0  0  2  0  0  3  0  0  0  0  0  0
  157.6160  213.3300  152.3150 C   0  0  0  0  0  2  0  0  0  0  0  0
  159.6630  213.0650  151.4670 C   0  0  0  0  0  2  0  0  0  0  0  0
  1 26  1  0  0  0  0
  1 27  1  0  0  0  0
  2 14  1  0  0  0  0
  3  7  1  6  0  0  0
  3 16  1  0  0  0  0
  3 19  1  0  0  0  0
  4 23  2  0  0  0  0
  4 18  1  0  0  0  0
  5 15  2  0  0  0  0
  5 11  1  0  0  0  0
  7 19  1  0  0  0  0
  8 12  1  0  0  0  0
  9 27  1  1  0  0  0
  9 25  1  0  0  0  0
 10 17  1  0  0  0  0
 11 20  2  0  0  0  0
 12 15  1  0  0  0  0
 13 24  1  6  0  0  0
 13  9  1  0  0  0  0
 15  4  1  0  0  0  0
 16  8  1  0  0  0  0
 17 28  1  6  0  0  0
 18  1  2  0  0  0  0
 19  6  1  6  0  0  0
 19  5  1  0  0  0  0
 20 18  1  0  0  0  0
 20 13  1  0  0  0  0
 21 26  2  0  0  0  0
 22 10  1  0  0  0  0
 23 21  1  0  0  0  0
 24 22  1  0  0  0  0
 25 17  1  0  0  0  0
 25 14  1  1  0  0  0
 27  2  1  0  0  0  0
 29 28  1  0  0  0  0
 30 34  1  0  0  0  0
 30 33  1  0  0  0  0
 32 29  1  6  0  0  0
 32 31  1  0  0  0  0
 33 31  1  0  0  0  0
 34 32  1  0  0  0  0
M  END
>  <MODEL>
2

>  <REMARK>
 VINA RESULT:      -9.2      1.308      1.586
  Name = 
  3 active torsions:
  status: ('A' for Active; 'I' for Inactive)
    1  A    between atoms: C_17  and  O_28
    2  A    between atoms: O_28  and  C_29
    3  A    between atoms: C_29  and  C_32
                            x       y       z     vdW  Elec       q    Type
                         _______ _______ _______ _____ _____    ______ ____

>  <TORSDO>
F 3

$$$$
=
 OpenBabel11122414263D

 34 41  0  0  1  0  0  0  0  0999 V2000
  161.6310  208.0630  150.3490 C   0  0  0  0  0  0  0  0  0  0  0  0
  161.2260  206.5960  148.3120 C   0  0  0  0  0  2  0  0  0  0  0  0
  161.4760  209.1210  156.8760 C   0  0  1  0  0  3  0  0  0  0  0  0
  161.5110  209.4210  152.3560 C   0  0  0  0  0  0  0  0  0  0  0  0
  160.8120  208.3890  154.4380 C   0  0  0  0  0  0  0  0  0  0  0  0
  159.0380  208.4950  156.3370 C   0  0  0  0  0  1  0  0  0  0  0  0
  161.3630  207.6020  156.7970 C   0  0  0  0  0  2  0  0  0  0  0  0
  162.6190  210.8430  155.3910 C   0  0  0  0  0  2  0  0  0  0  0  0
  161.4560  205.5590  150.4870 C   0  0  1  0  0  3  0  0  0  0  0  0
  161.5250  202.7100  151.1790 C   0  0  0  0  0  2  0  0  0  0  0  0
  160.6480  207.2070  153.7840 N   0  0  0  0  0  0  0  0  0  0  0  0
  161.4040  210.8410  154.4560 C   0  0  0  0  0  2  0  0  0  0  0  0
  160.6310  205.7340  151.7730 C   0  0  2  0  0  3  0  0  0  0  0  0
  160.9990  205.1000  148.1520 C   0  0  0  0  0  2  0  0  0  0  0  0
  161.2380  209.5330  153.7300 C   0  0  0  0  0  0  0  0  0  0  0  0
  162.7780  209.5540  156.2060 C   0  0  0  0  0  2  0  0  0  0  0  0
  161.2930  203.1350  149.7210 C   0  0  2  0  0  3  0  0  0  0  0  0
  161.3630  208.1720  151.7200 C   0  0  0  0  0  0  0  0  0  0  0  0
  160.4910  208.4610  155.9090 C   0  0  2  0  0  0  0  0  0  0  0  0
  160.9260  207.0560  152.4600 C   0  0  0  0  0  0  0  0  0  0  0  0
  162.1460  210.3770  150.2270 C   0  0  0  0  0  3  0  0  0  0  0  0
  160.4520  203.2170  152.1380 C   0  0  0  0  0  2  0  0  0  0  0  0
  161.9080  210.5280  151.5950 C   0  0  0  0  0  3  0  0  0  0  0  0
  160.8720  204.5600  152.7290 C   0  0  0  0  0  2  0  0  0  0  0  0
  160.7730  204.5680  149.5620 C   0  0  1  0  0  3  0  0  0  0  0  0
  162.0040  209.1610  149.6360 N   0  0  0  0  0  0  0  0  0  0  0  0
  161.5180  206.7860  149.7180 N   0  0  0  0  0  0  0  0  0  0  0  0
  160.4050  202.2460  149.1110 O   0  0  0  0  0  0  0  0  0  0  0  0
  161.1800  201.1260  148.7860 C   0  0  0  0  0  2  0  0  0  0  0  0
  160.4760  199.8540  145.7740 O   0  0  0  0  0  0  0  0  0  0  0  0
  160.7730  202.0750  146.5160 C   0  0  0  0  0  2  0  0  0  0  0  0
  161.6580  201.1860  147.3380 C   0  0  2  0  0  3  0  0  0  0  0  0
  160.3560  201.1900  145.3670 C   0  0  0  0  0  2  0  0  0  0  0  0
  161.5580  199.8320  146.6670 C   0  0  0  0  0  2  0  0  0  0  0  0
  1 18  1  0  0  0  0
  2 27  1  0  0  0  0
  3 16  1  6  0  0  0
  4 15  1  0  0  0  0
  5 19  1  0  0  0  0
  7  3  1  0  0  0  0
  8 16  1  0  0  0  0
  9 27  1  6  0  0  0
  9 13  1  0  0  0  0
 10 22  1  0  0  0  0
 11  5  1  0  0  0  0
 12  8  1  0  0  0  0
 13 20  1  0  0  0  0
 13 24  1  1  0  0  0
 14  2  1  0  0  0  0
 15  5  2  0  0  0  0
 15 12  1  0  0  0  0
 17 28  1  1  0  0  0
 17 10  1  0  0  0  0
 18  4  2  0  0  0  0
 18 20  1  0  0  0  0
 19  6  1  1  0  0  0
 19  7  1  0  0  0  0
 19  3  1  0  0  0  0
 20 11  2  0  0  0  0
 21 23  2  0  0  0  0
 22 24  1  0  0  0  0
 23  4  1  0  0  0  0
 25 14  1  6  0  0  0
 25 17  1  0  0  0  0
 25  9  1  0  0  0  0
 26 21  1  0  0  0  0
 26  1  2  0  0  0  0
 27  1  1  0  0  0  0
 29 28  1  0  0  0  0
 30 34  1  0  0  0  0
 31 32  1  0  0  0  0
 32 29  1  1  0  0  0
 33 30  1  0  0  0  0
 33 31  1  0  0  0  0
 34 32  1  0  0  0  0
M  END
>  <MODEL>
3

>  <REMARK>
 VINA RESULT:      -8.6      3.254      9.189
  Name = 
  3 active torsions:
  status: ('A' for Active; 'I' for Inactive)
    1  A    between atoms: C_17  and  O_28
    2  A    between atoms: O_28  and  C_29
    3  A    between atoms: C_29  and  C_32
                            x       y       z     vdW  Elec       q    Type
                         _______ _______ _______ _____ _____    ______ ____

>  <TORSDO>
F 3

$$$$
=
 OpenBabel11122414263D

 34 41  0  0  1  0  0  0  0  0999 V2000
  161.6320  207.4280  148.8380 C   0  0  0  0  0  0  0  0  0  0  0  0
  162.1460  209.8380  149.4640 C   0  0  0  0  0  2  0  0  0  0  0  0
  160.4000  201.1350  150.4600 C   0  0  1  0  0  3  0  0  0  0  0  0
  161.5880  205.0290  148.4740 C   0  0  0  0  0  0  0  0  0  0  0  0
  161.4460  203.5480  150.3900 C   0  0  0  0  0  0  0  0  0  0  0  0
  162.6480  201.6000  151.6250 C   0  0  0  0  0  1  0  0  0  0  0  0
  160.1330  201.8610  151.7750 C   0  0  0  0  0  2  0  0  0  0  0  0
  160.1550  201.8350  148.0260 C   0  0  0  0  0  2  0  0  0  0  0  0
  161.1130  208.3870  151.1030 C   0  0  1  0  0  3  0  0  0  0  0  0
  160.1380  209.0340  153.7920 C   0  0  0  0  0  2  0  0  0  0  0  0
  161.4590  204.6310  151.2140 N   0  0  0  0  0  0  0  0  0  0  0  0
  161.5240  202.5230  148.0860 C   0  0  0  0  0  2  0  0  0  0  0  0
  161.6040  207.0670  151.7230 C   0  0  2  0  0  3  0  0  0  0  0  0
  162.0120  210.6130  150.7660 C   0  0  0  0  0  2  0  0  0  0  0  0
  161.5240  203.7250  148.9930 C   0  0  0  0  0  0  0  0  0  0  0  0
  159.4670  201.6960  149.3890 C   0  0  0  0  0  2  0  0  0  0  0  0
  160.8330  210.1170  152.9520 C   0  0  2  0  0  3  0  0  0  0  0  0
  161.5640  206.1280  149.3560 C   0  0  0  0  0  0  0  0  0  0  0  0
  161.3930  202.1690  150.9970 C   0  0  2  0  0  0  0  0  0  0  0  0
  161.4960  205.9090  150.7460 C   0  0  0  0  0  0  0  0  0  0  0  0
  161.7800  206.5790  146.6260 C   0  0  0  0  0  3  0  0  0  0  0  0
  161.0270  207.8300  154.0870 C   0  0  0  0  0  2  0  0  0  0  0  0
  161.6960  205.2660  147.0970 C   0  0  0  0  0  3  0  0  0  0  0  0
  160.8330  206.7620  153.0130 C   0  0  0  0  0  2  0  0  0  0  0  0
  161.7280  209.5650  151.8370 C   0  0  1  0  0  3  0  0  0  0  0  0
  161.7480  207.6230  147.4960 N   0  0  0  0  0  0  0  0  0  0  0  0
  161.5670  208.5380  149.7350 N   0  0  0  0  0  0  0  0  0  0  0  0
  161.5860  210.9450  153.7870 O   0  0  0  0  0  0  0  0  0  0  0  0
  160.6740  211.4280  154.7350 C   0  0  0  0  0  2  0  0  0  0  0  0
  161.0870  209.2750  157.2600 O   0  0  0  0  0  0  0  0  0  0  0  0
  162.6000  210.7000  156.1410 C   0  0  0  0  0  2  0  0  0  0  0  0
  161.2530  211.3600  156.1440 C   0  0  2  0  0  3  0  0  0  0  0  0
  162.4500  209.5880  157.1490 C   0  0  0  0  0  2  0  0  0  0  0  0
  160.4080  210.4830  157.0460 C   0  0  0  0  0  2  0  0  0  0  0  0
  1 18  1  0  0  0  0
  1 27  1  0  0  0  0
  2 27  1  0  0  0  0
  2 14  1  0  0  0  0
  3 16  1  6  0  0  0
  3 19  1  0  0  0  0
  3  7  1  0  0  0  0
  4 15  2  0  0  0  0
  4 18  1  0  0  0  0
  5 19  1  0  0  0  0
  5 11  2  0  0  0  0
  8 12  1  0  0  0  0
  8 16  1  0  0  0  0
  9 27  1  6  0  0  0
  9 13  1  0  0  0  0
  9 25  1  0  0  0  0
 10 22  1  0  0  0  0
 12 15  1  0  0  0  0
 13 24  1  1  0  0  0
 15  5  1  0  0  0  0
 17 28  1  1  0  0  0
 17 10  1  0  0  0  0
 18 20  2  0  0  0  0
 19  6  1  1  0  0  0
 19  7  1  0  0  0  0
 20 11  1  0  0  0  0
 20 13  1  0  0  0  0
 21 23  2  0  0  0  0
 21 26  1  0  0  0  0
 23  4  1  0  0  0  0
 24 22  1  0  0  0  0
 25 14  1  6  0  0  0
 25 17  1  0  0  0  0
 26  1  2  0  0  0  0
 28 29  1  0  0  0  0
 31 32  1  0  0  0  0
 31 33  1  0  0  0  0
 32 29  1  6  0  0  0
 32 34  1  0  0  0  0
 33 30  1  0  0  0  0
 34 30  1  0  0  0  0
M  END
>  <MODEL>
4

>  <REMARK>
 VINA RESULT:      -7.7      1.442      4.053
  Name = 
  3 active torsions:
  status: ('A' for Active; 'I' for Inactive)
    1  A    between atoms: C_17  and  O_28
    2  A    between atoms: O_28  and  C_29
    3  A    between atoms: C_29  and  C_32
                            x       y       z     vdW  Elec       q    Type
                         _______ _______ _______ _____ _____    ______ ____

>  <TORSDO>
F 3

$$$$
=
 OpenBabel11122414263D

 34 41  0  0  1  0  0  0  0  0999 V2000
  160.6840  209.1040  152.8280 C   0  0  0  0  0  0  0  0  0  0  0  0
  161.0980  206.7840  153.7830 C   0  0  0  0  0  2  0  0  0  0  0  0
  160.7630  213.4330  147.8280 C   0  0  1  0  0  3  0  0  0  0  0  0
  160.7950  211.3130  151.8310 C   0  0  0  0  0  0  0  0  0  0  0  0
  161.4510  211.5260  149.5050 C   0  0  0  0  0  0  0  0  0  0  0  0
  163.2000  212.6070  147.9120 C   0  0  0  0  0  1  0  0  0  0  0  0
  160.8570  212.0990  147.0950 C   0  0  0  0  0  2  0  0  0  0  0  0
  159.6640  214.1230  150.0170 C   0  0  0  0  0  2  0  0  0  0  0  0
  160.8240  207.0460  151.3920 C   0  0  1  0  0  3  0  0  0  0  0  0
  160.7080  204.9850  149.3080 C   0  0  0  0  0  2  0  0  0  0  0  0
  161.6080  210.1760  149.4380 N   0  0  0  0  0  0  0  0  0  0  0  0
  160.8920  213.6250  150.7890 C   0  0  0  0  0  2  0  0  0  0  0  0
  161.6340  207.8670  150.3740 C   0  0  2  0  0  3  0  0  0  0  0  0
  161.3070  205.4260  153.1290 C   0  0  0  0  0  2  0  0  0  0  0  0
  161.0500  212.1290  150.7160 C   0  0  0  0  0  0  0  0  0  0  0  0
  159.4760  213.4550  148.6500 C   0  0  0  0  0  2  0  0  0  0  0  0
  160.9650  204.5800  150.7680 C   0  0  2  0  0  3  0  0  0  0  0  0
  160.9350  209.9160  151.7140 C   0  0  0  0  0  0  0  0  0  0  0  0
  161.7530  212.3590  148.2850 C   0  0  2  0  0  0  0  0  0  0  0  0
  161.3460  209.3530  150.4900 C   0  0  0  0  0  0  0  0  0  0  0  0
  160.2010  211.0110  154.1570 C   0  0  0  0  0  3  0  0  0  0  0  0
  161.7740  205.9160  148.7380 C   0  0  0  0  0  2  0  0  0  0  0  0
  160.4230  211.8570  153.0680 C   0  0  0  0  0  3  0  0  0  0  0  0
  161.3640  207.3710  148.9490 C   0  0  0  0  0  2  0  0  0  0  0  0
  161.5070  205.7130  151.6460 C   0  0  1  0  0  3  0  0  0  0  0  0
  160.3360  209.6650  154.0180 N   0  0  0  0  0  0  0  0  0  0  0  0
  160.7890  207.6860  152.6920 N   0  0  0  0  0  0  0  0  0  0  0  0
  161.8500  203.5000  150.8030 O   0  0  0  0  0  0  0  0  0  0  0  0
  161.1020  202.4360  151.3230 C   0  0  0  0  0  2  0  0  0  0  0  0
  159.7280  201.8500  148.3300 O   0  0  0  0  0  0  0  0  0  0  0  0
  161.9080  201.4880  149.1620 C   0  0  0  0  0  2  0  0  0  0  0  0
  160.9420  201.3190  150.2970 C   0  0  2  0  0  3  0  0  0  0  0  0
  161.0220  201.4760  147.9410 C   0  0  0  0  0  2  0  0  0  0  0  0
  159.5780  201.3660  149.6390 C   0  0  0  0  0  2  0  0  0  0  0  0
  1 26  1  0  0  0  0
  3  7  1  6  0  0  0
  3 19  1  0  0  0  0
  3 16  1  0  0  0  0
  4 23  2  0  0  0  0
  5 15  2  0  0  0  0
  7 19  1  0  0  0  0
  8 12  1  0  0  0  0
  9 25  1  0  0  0  0
  9 27  1  1  0  0  0
 10 17  1  0  0  0  0
 11  5  1  0  0  0  0
 11 20  2  0  0  0  0
 13 24  1  6  0  0  0
 13 20  1  0  0  0  0
 13  9  1  0  0  0  0
 14  2  1  0  0  0  0
 15 12  1  0  0  0  0
 15  4  1  0  0  0  0
 16  8  1  0  0  0  0
 17 28  1  6  0  0  0
 17 25  1  0  0  0  0
 18  4  1  0  0  0  0
 18  1  2  0  0  0  0
 19  6  1  6  0  0  0
 19  5  1  0  0  0  0
 20 18  1  0  0  0  0
 22 24  1  0  0  0  0
 22 10  1  0  0  0  0
 23 21  1  0  0  0  0
 25 14  1  1  0  0  0
 26 21  2  0  0  0  0
 27  1  1  0  0  0  0
 27  2  1  0  0  0  0
 28 29  1  0  0  0  0
 30 34  1  0  0  0  0
 31 32  1  0  0  0  0
 32 29  1  1  0  0  0
 33 30  1  0  0  0  0
 33 31  1  0  0  0  0
 34 32  1  0  0  0  0
M  END
>  <MODEL>
5

>  <REMARK>
 VINA RESULT:      -7.6      3.283      7.810
  Name = 
  3 active torsions:
  status: ('A' for Active; 'I' for Inactive)
    1  A    between atoms: C_17  and  O_28
    2  A    between atoms: O_28  and  C_29
    3  A    between atoms: C_29  and  C_32
                            x       y       z     vdW  Elec       q    Type
                         _______ _______ _______ _____ _____    ______ ____

>  <TORSDO>
F 3

$$$$
=
 OpenBabel11122414263D

 34 41  0  0  1  0  0  0  0  0999 V2000
  161.4490  207.9190  150.2150 C   0  0  0  0  0  0  0  0  0  0  0  0
  161.7760  210.1520  151.3870 C   0  0  0  0  0  2  0  0  0  0  0  0
  160.6620  201.3530  150.3300 C   0  0  1  0  0  3  0  0  0  0  0  0
  161.5860  205.6700  149.3150 C   0  0  0  0  0  0  0  0  0  0  0  0
  161.5290  203.7830  150.8400 C   0  0  0  0  0  0  0  0  0  0  0  0
  162.8540  201.6920  151.6360 C   0  0  0  0  0  1  0  0  0  0  0  0
  160.3250  201.7380  151.7660 C   0  0  0  0  0  2  0  0  0  0  0  0
  160.3990  202.5710  148.1110 C   0  0  0  0  0  2  0  0  0  0  0  0
  160.8310  208.2970  152.6220 C   0  0  1  0  0  3  0  0  0  0  0  0
  159.7750  208.2440  155.3580 C   0  0  0  0  0  2  0  0  0  0  0  0
  161.4510  204.6480  151.8880 N   0  0  0  0  0  0  0  0  0  0  0  0
  161.7120  203.3200  148.3670 C   0  0  0  0  0  2  0  0  0  0  0  0
  161.4090  206.9070  152.9400 C   0  0  2  0  0  3  0  0  0  0  0  0
  161.5670  210.5970  152.8270 C   0  0  0  0  0  2  0  0  0  0  0  0
  161.6110  204.2800  149.5220 C   0  0  0  0  0  0  0  0  0  0  0  0
  159.7050  202.0780  149.3860 C   0  0  0  0  0  2  0  0  0  0  0  0
  160.4000  209.5350  154.8060 C   0  0  2  0  0  3  0  0  0  0  0  0
  161.4700  206.5330  150.4230 C   0  0  0  0  0  0  0  0  0  0  0  0
  161.5690  202.3020  151.1160 C   0  0  2  0  0  0  0  0  0  0  0  0
  161.3990  205.9980  151.7240 C   0  0  0  0  0  0  0  0  0  0  0  0
  161.6890  207.6100  147.8730 C   0  0  0  0  0  3  0  0  0  0  0  0
  160.7470  207.0680  155.3980 C   0  0  0  0  0  2  0  0  0  0  0  0
  161.6940  206.2220  148.0320 C   0  0  0  0  0  3  0  0  0  0  0  0
  160.6460  206.2630  154.1050 C   0  0  0  0  0  2  0  0  0  0  0  0
  161.3480  209.3160  153.6220 C   0  0  1  0  0  3  0  0  0  0  0  0
  161.5680  208.4230  148.9570 N   0  0  0  0  0  0  0  0  0  0  0  0
  161.2910  208.7870  151.3380 N   0  0  0  0  0  0  0  0  0  0  0  0
  161.0780  210.2000  155.8300 O   0  0  0  0  0  0  0  0  0  0  0  0
  160.0870  210.9120  156.5180 C   0  0  0  0  0  2  0  0  0  0  0  0
  157.3960  212.8980  156.5180 O   0  0  0  0  0  0  0  0  0  0  0  0
  159.5120  213.1110  155.4930 C   0  0  0  0  0  2  0  0  0  0  0  0
  159.1670  211.6520  155.5520 C   0  0  2  0  0  3  0  0  0  0  0  0
  158.2040  213.7950  155.8030 C   0  0  0  0  0  2  0  0  0  0  0  0
  157.7300  211.6260  156.0300 C   0  0  0  0  0  2  0  0  0  0  0  0
  1 18  1  0  0  0  0
  1 27  1  0  0  0  0
  2 14  1  0  0  0  0
  3 16  1  6  0  0  0
  3 19  1  0  0  0  0
  3  7  1  0  0  0  0
  4 15  2  0  0  0  0
  4 18  1  0  0  0  0
  5 19  1  0  0  0  0
  5 11  2  0  0  0  0
  8 12  1  0  0  0  0
  8 16  1  0  0  0  0
  9 27  1  6  0  0  0
  9 13  1  0  0  0  0
  9 25  1  0  0  0  0
 10 22  1  0  0  0  0
 12 15  1  0  0  0  0
 13 24  1  1  0  0  0
 15  5  1  0  0  0  0
 17 10  1  0  0  0  0
 17 28  1  1  0  0  0
 18 20  2  0  0  0  0
 19  6  1  1  0  0  0
 19  7  1  0  0  0  0
 20 11  1  0  0  0  0
 20 13  1  0  0  0  0
 21 23  2  0  0  0  0
 21 26  1  0  0  0  0
 23  4  1  0  0  0  0
 24 22  1  0  0  0  0
 25 14  1  6  0  0  0
 25 17  1  0  0  0  0
 26  1  2  0  0  0  0
 27  2  1  0  0  0  0
 28 29  1  0  0  0  0
 31 32  1  0  0  0  0
 31 33  1  0  0  0  0
 32 34  1  0  0  0  0
 32 29  1  1  0  0  0
 33 30  1  0  0  0  0
 34 30  1  0  0  0  0
M  END
>  <MODEL>
6

>  <REMARK>
 VINA RESULT:      -7.5      1.539      4.003
  Name = 
  3 active torsions:
  status: ('A' for Active; 'I' for Inactive)
    1  A    between atoms: C_17  and  O_28
    2  A    between atoms: O_28  and  C_29
    3  A    between atoms: C_29  and  C_32
                            x       y       z     vdW  Elec       q    Type
                         _______ _______ _______ _____ _____    ______ ____

>  <TORSDO>
F 3

$$$$
=
 OpenBabel11122414263D

 34 41  0  0  1  0  0  0  0  0999 V2000
  161.5120  207.4010  148.8830 C   0  0  0  0  0  0  0  0  0  0  0  0
  162.0090  209.7990  149.5660 C   0  0  0  0  0  2  0  0  0  0  0  0
  160.4030  201.0480  150.3500 C   0  0  1  0  0  3  0  0  0  0  0  0
  161.4900  205.0130  148.4500 C   0  0  0  0  0  0  0  0  0  0  0  0
  161.4150  203.4760  150.3250 C   0  0  0  0  0  0  0  0  0  0  0  0
  162.6730  201.5090  151.4730 C   0  0  0  0  0  1  0  0  0  0  0  0
  160.1590  201.7310  151.6910 C   0  0  0  0  0  2  0  0  0  0  0  0
  160.0890  201.8130  147.9430 C   0  0  0  0  0  2  0  0  0  0  0  0
  161.0370  208.2860  151.1870 C   0  0  1  0  0  3  0  0  0  0  0  0
  160.1200  208.8430  153.9160 C   0  0  0  0  0  2  0  0  0  0  0  0
  161.4340  204.5350  151.1800 N   0  0  0  0  0  0  0  0  0  0  0  0
  161.4490  202.5180  147.9910 C   0  0  0  0  0  2  0  0  0  0  0  0
  161.5590  206.9560  151.7550 C   0  0  2  0  0  3  0  0  0  0  0  0
  161.8970  210.5340  150.8930 C   0  0  0  0  0  2  0  0  0  0  0  0
  161.4560  203.6940  148.9320 C   0  0  0  0  0  0  0  0  0  0  0  0
  159.4370  201.6260  149.3180 C   0  0  0  0  0  2  0  0  0  0  0  0
  160.7800  209.9590  153.0910 C   0  0  2  0  0  3  0  0  0  0  0  0
  161.4730  206.0850  149.3640 C   0  0  0  0  0  0  0  0  0  0  0  0
  161.3950  202.0790  150.8920 C   0  0  2  0  0  0  0  0  0  0  0  0
  161.4420  205.8260  150.7490 C   0  0  0  0  0  0  0  0  0  0  0  0
  161.6160  206.6180  146.6430 C   0  0  0  0  0  3  0  0  0  0  0  0
  161.0320  207.6420  154.1540 C   0  0  0  0  0  2  0  0  0  0  0  0
  161.5600  205.2920  147.0780 C   0  0  0  0  0  3  0  0  0  0  0  0
  160.8250  206.6040  153.0550 C   0  0  0  0  0  2  0  0  0  0  0  0
  161.6540  209.4520  151.9390 C   0  0  1  0  0  3  0  0  0  0  0  0
  161.5920  207.6370  147.5440 N   0  0  0  0  0  0  0  0  0  0  0  0
  161.4550  208.4830  149.8130 N   0  0  0  0  0  0  0  0  0  0  0  0
  161.5420  210.7720  153.9320 O   0  0  0  0  0  0  0  0  0  0  0  0
  160.6320  211.6950  154.4650 C   0  0  0  0  0  2  0  0  0  0  0  0
  159.5770  213.1980  157.2600 O   0  0  0  0  0  0  0  0  0  0  0  0
  158.8440  211.2500  156.1460 C   0  0  0  0  0  2  0  0  0  0  0  0
  160.3220  211.3860  155.9260 C   0  0  2  0  0  3  0  0  0  0  0  0
  158.5630  212.2290  157.2580 C   0  0  0  0  0  2  0  0  0  0  0  0
  160.7330  212.5290  156.8310 C   0  0  0  0  0  2  0  0  0  0  0  0
  1 18  1  0  0  0  0
  1 27  1  0  0  0  0
  2 27  1  0  0  0  0
  2 14  1  0  0  0  0
  3 16  1  6  0  0  0
  3 19  1  0  0  0  0
  3  7  1  0  0  0  0
  4 15  2  0  0  0  0
  4 18  1  0  0  0  0
  5 19  1  0  0  0  0
  5 11  2  0  0  0  0
  8 12  1  0  0  0  0
  8 16  1  0  0  0  0
  9 27  1  6  0  0  0
  9 13  1  0  0  0  0
  9 25  1  0  0  0  0
 10 22  1  0  0  0  0
 12 15  1  0  0  0  0
 13 24  1  1  0  0  0
 15  5  1  0  0  0  0
 17 10  1  0  0  0  0
 17 28  1  1  0  0  0
 18 20  2  0  0  0  0
 19  6  1  1  0  0  0
 19  7  1  0  0  0  0
 20 11  1  0  0  0  0
 20 13  1  0  0  0  0
 21 23  2  0  0  0  0
 21 26  1  0  0  0  0
 23  4  1  0  0  0  0
 24 22  1  0  0  0  0
 25 14  1  6  0  0  0
 25 17  1  0  0  0  0
 26  1  2  0  0  0  0
 28 29  1  0  0  0  0
 31 33  1  0  0  0  0
 32 29  1  6  0  0  0
 32 31  1  0  0  0  0
 32 34  1  0  0  0  0
 33 30  1  0  0  0  0
 34 30  1  0  0  0  0
M  END
>  <MODEL>
7

>  <REMARK>
 VINA RESULT:      -6.8      1.309      3.897
  Name = 
  3 active torsions:
  status: ('A' for Active; 'I' for Inactive)
    1  A    between atoms: C_17  and  O_28
    2  A    between atoms: O_28  and  C_29
    3  A    between atoms: C_29  and  C_32
                            x       y       z     vdW  Elec       q    Type
                         _______ _______ _______ _____ _____    ______ ____

>  <TORSDO>
F 3

$$$$
=
 OpenBabel11122414263D

 34 41  0  0  1  0  0  0  0  0999 V2000
  160.9610  208.0970  151.9470 C   0  0  0  0  0  0  0  0  0  0  0  0
  161.3480  205.6130  152.3260 C   0  0  0  0  0  2  0  0  0  0  0  0
  161.0070  213.4660  148.0840 C   0  0  1  0  0  3  0  0  0  0  0  0
  161.0940  210.4750  151.4860 C   0  0  0  0  0  0  0  0  0  0  0  0
  161.6950  211.2120  149.2530 C   0  0  0  0  0  0  0  0  0  0  0  0
  163.4270  212.6060  147.9030 C   0  0  0  0  0  1  0  0  0  0  0  0
  161.0530  212.3370  147.0600 C   0  0  0  0  0  2  0  0  0  0  0  0
  159.9790  213.6460  150.4060 C   0  0  0  0  0  2  0  0  0  0  0  0
  161.0190  206.4260  150.0700 C   0  0  1  0  0  3  0  0  0  0  0  0
  160.8050  204.9070  147.5700 C   0  0  0  0  0  2  0  0  0  0  0  0
  161.8210  209.9120  148.8710 N   0  0  0  0  0  0  0  0  0  0  0  0
  161.2150  212.9640  151.0050 C   0  0  0  0  0  2  0  0  0  0  0  0
  161.8210  207.4490  149.2460 C   0  0  2  0  0  3  0  0  0  0  0  0
  161.5110  204.4400  151.3700 C   0  0  0  0  0  2  0  0  0  0  0  0
  161.3390  211.5240  150.5820 C   0  0  0  0  0  0  0  0  0  0  0  0
  159.7420  213.3160  148.9270 C   0  0  0  0  0  2  0  0  0  0  0  0
  161.0910  204.1700  148.8880 C   0  0  2  0  0  3  0  0  0  0  0  0
  161.2000  209.1420  151.0440 C   0  0  0  0  0  0  0  0  0  0  0  0
  161.9850  212.3010  148.2510 C   0  0  2  0  0  0  0  0  0  0  0  0
  161.5680  208.8720  149.7110 C   0  0  0  0  0  0  0  0  0  0  0  0
  160.5530  209.6510  153.6950 C   0  0  0  0  0  3  0  0  0  0  0  0
  161.8770  205.9280  147.2000 C   0  0  0  0  0  2  0  0  0  0  0  0
  160.7650  210.7230  152.8250 C   0  0  0  0  0  3  0  0  0  0  0  0
  161.5040  207.3010  147.7530 C   0  0  0  0  0  2  0  0  0  0  0  0
  161.6790  205.0610  149.9880 C   0  0  1  0  0  3  0  0  0  0  0  0
  160.6550  208.3720  153.2440 N   0  0  0  0  0  0  0  0  0  0  0  0
  161.0310  206.7480  151.4830 N   0  0  0  0  0  0  0  0  0  0  0  0
  161.9520  203.0980  148.6460 O   0  0  0  0  0  0  0  0  0  0  0  0
  161.7070  202.7300  147.3170 C   0  0  0  0  0  2  0  0  0  0  0  0
  160.7840  200.3160  145.1930 O   0  0  0  0  0  0  0  0  0  0  0  0
  161.5740  200.2410  147.4170 C   0  0  0  0  0  2  0  0  0  0  0  0
  160.7930  201.5100  147.2410 C   0  0  2  0  0  3  0  0  0  0  0  0
  161.2110  199.4330  146.1960 C   0  0  0  0  0  2  0  0  0  0  0  0
  160.1640  201.3770  145.8700 C   0  0  0  0  0  2  0  0  0  0  0  0
  1 26  1  0  0  0  0
  3  7  1  6  0  0  0
  3 19  1  0  0  0  0
  3 16  1  0  0  0  0
  4 23  2  0  0  0  0
  5 15  2  0  0  0  0
  7 19  1  0  0  0  0
  8 12  1  0  0  0  0
  9 27  1  1  0  0  0
 10 17  1  0  0  0  0
 11  5  1  0  0  0  0
 11 20  2  0  0  0  0
 13 24  1  6  0  0  0
 13 20  1  0  0  0  0
 13  9  1  0  0  0  0
 14  2  1  0  0  0  0
 15 12  1  0  0  0  0
 15  4  1  0  0  0  0
 16  8  1  0  0  0  0
 17 28  1  6  0  0  0
 17 25  1  0  0  0  0
 18  4  1  0  0  0  0
 18  1  2  0  0  0  0
 19  6  1  6  0  0  0
 19  5  1  0  0  0  0
 20 18  1  0  0  0  0
 22 10  1  0  0  0  0
 22 24  1  0  0  0  0
 23 21  1  0  0  0  0
 25  9  1  0  0  0  0
 25 14  1  1  0  0  0
 26 21  2  0  0  0  0
 27  1  1  0  0  0  0
 27  2  1  0  0  0  0
 29 28  1  0  0  0  0
 30 34  1  0  0  0  0
 30 33  1  0  0  0  0
 32 29  1  6  0  0  0
 32 31  1  0  0  0  0
 33 31  1  0  0  0  0
 34 32  1  0  0  0  0
M  END
>  <MODEL>
8

>  <REMARK>
 VINA RESULT:      -6.6      3.604      8.403
  Name = 
  3 active torsions:
  status: ('A' for Active; 'I' for Inactive)
    1  A    between atoms: C_17  and  O_28
    2  A    between atoms: O_28  and  C_29
    3  A    between atoms: C_29  and  C_32
                            x       y       z     vdW  Elec       q    Type
                         _______ _______ _______ _____ _____    ______ ____

>  <TORSDO>
F 3

$$$$
