=
 OpenBabel11122412483D

 32 37  0  0  1  0  0  0  0  0999 V2000
  161.7710  201.8290  150.4630 C   0  0  0  0  0  2  0  0  0  0  0  0
  160.7890  206.9730  152.3930 C   0  0  1  0  0  3  0  0  0  0  0  0
  162.3670  210.1010  149.0020 C   0  0  0  0  0  3  0  0  0  0  0  0
  161.7180  211.2500  149.7210 C   0  0  0  0  0  2  0  0  0  0  0  0
  160.6500  207.7920  154.8310 C   0  0  0  0  0  0  0  0  0  0  0  0
  160.9800  208.7760  155.9200 C   0  0  1  0  0  3  0  0  0  0  0  0
  160.6870  204.5090  151.8690 C   0  0  1  0  0  3  0  0  0  0  0  0
  160.9160  206.2840  150.1210 C   0  0  0  0  0  2  0  0  0  0  0  0
  162.1120  210.8490  156.3630 N   0  0  0  0  0  0  0  0  0  0  0  0
  160.7750  203.9260  149.3500 C   0  0  0  0  0  2  0  0  0  0  0  0
  162.1260  208.8440  149.3980 C   0  0  0  0  0  3  0  0  0  0  0  0
  161.4740  207.2180  151.1070 N   0  0  1  0  0  0  0  0  0  0  0  0
  161.2080  208.5660  150.5750 C   0  0  1  0  0  3  0  0  0  0  0  0
  160.9880  209.4180  153.0470 C   0  0  2  0  0  3  0  0  0  0  0  0
  162.7060  209.7870  157.1760 C   0  0  0  0  0  2  0  0  0  0  0  0
  162.2350  202.5860  151.6320 N   0  0  0  0  0  2  0  0  0  0  0  0
  161.2610  204.8450  150.4780 C   0  0  2  0  0  3  0  0  0  0  0  0
  162.2620  208.4470  156.6240 C   0  0  0  0  0  2  0  0  0  0  0  0
  161.1020  203.1230  152.3860 C   0  0  0  0  0  2  0  0  0  0  0  0
  160.5640  202.4620  149.7450 C   0  0  1  0  0  3  0  0  0  0  0  0
  161.5550  210.9390  151.1860 C   0  0  0  0  0  3  0  0  0  0  0  0
  161.3540  209.6730  151.6110 C   0  0  0  0  0  0  0  0  0  0  0  0
  161.7410  210.3290  154.0180 C   0  0  0  0  0  2  0  0  0  0  0  0
  161.1410  205.5570  152.8740 C   0  0  0  0  0  2  0  0  0  0  0  0
  159.8890  206.8680  155.0740 O   0  0  0  0  0  0  0  0  0  0  0  0
  161.3360  211.6890  157.2610 C   0  0  0  0  0  1  0  0  0  0  0  0
  161.2590  207.9790  153.4580 C   0  0  2  0  0  3  0  0  0  0  0  0
  161.1720  210.2170  155.4410 C   0  0  1  0  0  3  0  0  0  0  0  0
  160.2200  201.6860  148.5650 N   0  0  0  0  0  2  0  0  0  0  0  0
  160.8040  201.9420  147.2860 C   0  0  0  0  0  0  0  0  0  0  0  0
  161.7580  202.9410  147.1330 O   0  0  0  0  0  1  0  0  0  0  0  0
  160.4560  201.2530  146.2930 O   0  0  0  0  0  0  0  0  0  0  0  0
  1 16  1  0  0  0  0
  2 24  1  1  0  0  0
  2 27  1  0  0  0  0
  3 11  2  0  0  0  0
  3  4  1  0  0  0  0
  4 21  1  0  0  0  0
  5 25  2  0  0  0  0
  5  6  1  0  0  0  0
  6 18  1  6  0  0  0
  7 19  1  1  0  0  0
  7 24  1  0  0  0  0
  8 17  1  0  0  0  0
  9 15  1  0  0  0  0
  9 26  1  0  0  0  0
 10 20  1  0  0  0  0
 12  8  1  6  0  0  0
 12  2  1  0  0  0  0
 13 11  1  6  0  0  0
 13 12  1  0  0  0  0
 13 22  1  0  0  0  0
 14 27  1  0  0  0  0
 14 23  1  1  0  0  0
 16 19  1  0  0  0  0
 17 10  1  6  0  0  0
 17  7  1  0  0  0  0
 18 15  1  0  0  0  0
 20 29  1  6  0  0  0
 20  1  1  0  0  0  0
 21 22  2  0  0  0  0
 22 14  1  0  0  0  0
 27  5  1  1  0  0  0
 28 23  1  6  0  0  0
 28  6  1  0  0  0  0
 28  9  1  0  0  0  0
 30 29  1  0  0  0  0
 31 30  1  0  0  0  0
 32 30  2  0  0  0  0
M  END
>  <MODEL>
1

>  <REMARK>
 VINA RESULT:      -8.7      0.000      0.000
  Name = 
  1 active torsions:
  status: ('A' for Active; 'I' for Inactive)
    1  A    between atoms: C_20  and  N_29
                            x       y       z     vdW  Elec       q    Type
                         _______ _______ _______ _____ _____    ______ ____

>  <TORSDO>
F 1

$$$$
=
 OpenBabel11122412483D

 32 37  0  0  1  0  0  0  0  0999 V2000
  160.8620  213.6800  147.4460 C   0  0  0  0  0  2  0  0  0  0  0  0
  161.7530  209.6080  151.1580 C   0  0  1  0  0  3  0  0  0  0  0  0
  160.8100  205.3870  148.9070 C   0  0  0  0  0  3  0  0  0  0  0  0
  161.3920  204.6120  150.0560 C   0  0  0  0  0  2  0  0  0  0  0  0
  161.5670  209.6840  153.7260 C   0  0  0  0  0  0  0  0  0  0  0  0
  161.1200  209.1050  155.0400 C   0  0  1  0  0  3  0  0  0  0  0  0
  161.8340  211.7440  149.8220 C   0  0  1  0  0  3  0  0  0  0  0  0
  161.9320  209.4670  148.7910 C   0  0  0  0  0  2  0  0  0  0  0  0
  160.0190  207.2160  156.0370 N   0  0  0  0  0  0  0  0  0  0  0  0
  162.0910  211.4240  147.2680 C   0  0  0  0  0  2  0  0  0  0  0  0
  160.9410  206.7200  148.8650 C   0  0  0  0  0  3  0  0  0  0  0  0
  161.2730  208.8800  149.9650 N   0  0  1  0  0  0  0  0  0  0  0  0
  161.6660  207.4600  149.9740 C   0  0  1  0  0  3  0  0  0  0  0  0
  161.5570  207.5240  152.5950 C   0  0  2  0  0  3  0  0  0  0  0  0
  159.2710  208.4360  156.3480 C   0  0  0  0  0  2  0  0  0  0  0  0
  160.2620  213.3280  148.7400 N   0  0  0  0  0  2  0  0  0  0  0  0
  161.4830  210.9060  148.5770 C   0  0  2  0  0  3  0  0  0  0  0  0
  159.7380  209.5400  155.4210 C   0  0  0  0  0  2  0  0  0  0  0  0
  161.2930  213.1820  149.7670 C   0  0  0  0  0  2  0  0  0  0  0  0
  162.1840  212.9480  147.1490 C   0  0  1  0  0  3  0  0  0  0  0  0
  161.3280  205.4170  151.3290 C   0  0  0  0  0  3  0  0  0  0  0  0
  161.4150  206.7640  151.3050 C   0  0  0  0  0  0  0  0  0  0  0  0
  160.7070  206.9370  153.7230 C   0  0  0  0  0  2  0  0  0  0  0  0
  161.2800  211.0660  151.0660 C   0  0  0  0  0  2  0  0  0  0  0  0
  162.2480  210.6980  153.7220 O   0  0  0  0  0  0  0  0  0  0  0  0
  160.6870  206.8030  157.2600 C   0  0  0  0  0  1  0  0  0  0  0  0
  161.1730  208.9880  152.4410 C   0  0  2  0  0  3  0  0  0  0  0  0
  161.0570  207.5760  155.0750 C   0  0  1  0  0  3  0  0  0  0  0  0
  162.6660  213.3020  145.8240 N   0  0  0  0  0  2  0  0  0  0  0  0
  161.8800  213.1030  144.6480 C   0  0  0  0  0  0  0  0  0  0  0  0
  160.5960  212.5790  144.7370 O   0  0  0  0  0  1  0  0  0  0  0  0
  162.3540  213.4080  143.5230 O   0  0  0  0  0  0  0  0  0  0  0  0
  1 16  1  0  0  0  0
  2 24  1  6  0  0  0
  2 27  1  0  0  0  0
  3  4  1  0  0  0  0
  4 21  1  0  0  0  0
  5  6  1  0  0  0  0
  6 28  1  0  0  0  0
  6 18  1  6  0  0  0
  7 19  1  6  0  0  0
  7 24  1  0  0  0  0
  9 15  1  0  0  0  0
  9 26  1  0  0  0  0
 11  3  2  0  0  0  0
 12  8  1  6  0  0  0
 12 13  1  0  0  0  0
 12  2  1  0  0  0  0
 13 11  1  6  0  0  0
 13 22  1  0  0  0  0
 14 23  1  1  0  0  0
 16 19  1  0  0  0  0
 17 10  1  6  0  0  0
 17  8  1  0  0  0  0
 17  7  1  0  0  0  0
 18 15  1  0  0  0  0
 20 29  1  6  0  0  0
 20 10  1  0  0  0  0
 20  1  1  0  0  0  0
 22 21  2  0  0  0  0
 22 14  1  0  0  0  0
 25  5  2  0  0  0  0
 27 14  1  0  0  0  0
 27  5  1  1  0  0  0
 28 23  1  6  0  0  0
 28  9  1  0  0  0  0
 30 31  1  0  0  0  0
 30 29  1  0  0  0  0
 32 30  2  0  0  0  0
M  END
>  <MODEL>
2

>  <REMARK>
 VINA RESULT:      -7.2      3.806      6.851
  Name = 
  1 active torsions:
  status: ('A' for Active; 'I' for Inactive)
    1  A    between atoms: C_20  and  N_29
                            x       y       z     vdW  Elec       q    Type
                         _______ _______ _______ _____ _____    ______ ____

>  <TORSDO>
F 1

$$$$
=
 OpenBabel11122412483D

 32 37  0  0  1  0  0  0  0  0999 V2000
  159.7900  208.7450  156.4500 C   0  0  0  0  0  2  0  0  0  0  0  0
  161.5850  205.9590  151.9590 C   0  0  1  0  0  3  0  0  0  0  0  0
  161.7290  209.1380  148.2650 C   0  0  0  0  0  3  0  0  0  0  0  0
  162.4640  208.1480  147.4050 C   0  0  0  0  0  2  0  0  0  0  0  0
  161.3470  203.4560  151.4000 C   0  0  0  0  0  0  0  0  0  0  0  0
  161.0340  202.3350  150.4480 C   0  0  1  0  0  3  0  0  0  0  0  0
  161.1660  206.7870  154.3030 C   0  0  1  0  0  3  0  0  0  0  0  0
  161.8290  208.2810  152.4100 C   0  0  0  0  0  2  0  0  0  0  0  0
  160.4080  201.8540  148.1780 N   0  0  0  0  0  0  0  0  0  0  0  0
  161.5320  209.3250  154.6450 C   0  0  0  0  0  2  0  0  0  0  0  0
  161.5340  208.8780  149.5650 C   0  0  0  0  0  3  0  0  0  0  0  0
  161.3140  207.3130  151.4320 N   0  0  1  0  0  0  0  0  0  0  0  0
  162.0400  207.5860  150.1800 C   0  0  1  0  0  3  0  0  0  0  0  0
  161.8790  205.0290  149.6150 C   0  0  2  0  0  3  0  0  0  0  0  0
  159.3820  201.3370  149.0850 C   0  0  0  0  0  2  0  0  0  0  0  0
  159.2730  207.6040  155.6820 N   0  0  0  0  0  2  0  0  0  0  0  0
  161.0480  208.2070  153.7140 C   0  0  2  0  0  3  0  0  0  0  0  0
  159.5810  201.9650  150.4500 C   0  0  0  0  0  2  0  0  0  0  0  0
  160.2930  206.5640  155.5480 C   0  0  0  0  0  2  0  0  0  0  0  0
  161.2550  209.1010  156.1340 C   0  0  1  0  0  3  0  0  0  0  0  0
  162.1870  206.7380  147.8600 C   0  0  0  0  0  3  0  0  0  0  0  0
  161.9450  206.4600  149.1580 C   0  0  0  0  0  0  0  0  0  0  0  0
  161.1790  204.1190  148.6040 C   0  0  0  0  0  2  0  0  0  0  0  0
  160.7740  205.7630  153.2480 C   0  0  0  0  0  2  0  0  0  0  0  0
  161.7610  203.1900  152.5170 O   0  0  0  0  0  0  0  0  0  0  0  0
  161.1380  200.7070  147.6630 C   0  0  0  0  0  1  0  0  0  0  0  0
  161.1530  204.8860  150.9440 C   0  0  2  0  0  3  0  0  0  0  0  0
  161.3430  202.6390  148.9800 C   0  0  1  0  0  3  0  0  0  0  0  0
  161.6570  210.2800  156.8840 N   0  0  0  0  0  2  0  0  0  0  0  0
  161.1440  211.5810  156.5930 C   0  0  0  0  0  0  0  0  0  0  0  0
  160.2070  211.7610  155.5830 O   0  0  0  0  0  0  0  0  0  0  0  0
  161.5410  212.5700  157.2610 O   0  0  0  0  0  1  0  0  0  0  0  0
  2 24  1  1  0  0  0
  3 11  2  0  0  0  0
  4 21  1  0  0  0  0
  4  3  1  0  0  0  0
  5 25  2  0  0  0  0
  6 18  1  6  0  0  0
  6  5  1  0  0  0  0
  7 24  1  6  0  0  0
  7 19  1  0  0  0  0
  9 28  1  0  0  0  0
  9 15  1  0  0  0  0
 10 20  1  0  0  0  0
 12  2  1  0  0  0  0
 12  8  1  1  0  0  0
 13 11  1  6  0  0  0
 13 12  1  0  0  0  0
 14 23  1  6  0  0  0
 14 27  1  0  0  0  0
 15 18  1  0  0  0  0
 16  1  1  0  0  0  0
 17  8  1  6  0  0  0
 17  7  1  0  0  0  0
 17 10  1  0  0  0  0
 19 16  1  0  0  0  0
 20  1  1  0  0  0  0
 20 29  1  1  0  0  0
 21 22  2  0  0  0  0
 22 14  1  0  0  0  0
 22 13  1  0  0  0  0
 26  9  1  0  0  0  0
 27  5  1  1  0  0  0
 27  2  1  0  0  0  0
 28 23  1  1  0  0  0
 28  6  1  0  0  0  0
 30 29  1  0  0  0  0
 30 32  1  0  0  0  0
 31 30  2  0  0  0  0
M  END
>  <MODEL>
3

>  <REMARK>
 VINA RESULT:      -6.1      2.209      8.063
  Name = 
  1 active torsions:
  status: ('A' for Active; 'I' for Inactive)
    1  A    between atoms: C_20  and  N_29
                            x       y       z     vdW  Elec       q    Type
                         _______ _______ _______ _____ _____    ______ ____

>  <TORSDO>
F 1

$$$$
