=
 OpenBabel11122414063D

 28 31  0  0  1  0  0  0  0  0999 V2000
  160.9650  209.3260  155.8170 C   0  0  2  0  0  3  0  0  0  0  0  0
  158.5880  211.1680  157.2460 O   0  0  0  0  0  0  0  0  0  0  0  0
  163.3320  210.5010  156.9950 C   0  0  0  0  0  3  0  0  0  0  0  0
  160.1920  208.5320  154.9400 O   0  0  0  0  0  0  0  0  0  0  0  0
  159.7250  213.2490  156.5700 O   0  0  0  0  0  0  0  0  0  0  0  0
  158.7510  212.1840  156.1510 S   0  0  0  0  0  0  0  0  0  0  0  0
  156.5350  212.1200  154.5740 C   0  0  1  0  0  3  0  0  0  0  0  0
  159.2500  211.4000  154.6430 C   0  0  1  0  0  3  0  0  0  0  0  0
  161.3210  207.2170  151.6140 C   0  0  0  0  0  1  0  0  0  0  0  0
  160.8450  211.4580  152.8210 C   0  0  2  0  0  3  0  0  0  0  0  0
  157.2770  212.0200  153.3550 O   0  0  0  0  0  0  0  0  0  0  0  0
  157.1780  212.9180  155.7320 C   0  0  0  0  0  2  0  0  0  0  0  0
  160.4500  207.9430  152.6300 C   0  0  2  0  0  3  0  0  0  0  0  0
  161.6710  210.5150  155.1220 C   0  0  2  0  0  3  0  0  0  0  0  0
  155.1590  212.6800  154.2810 C   0  0  0  0  0  1  0  0  0  0  0  0
  160.0740  209.2380  152.2080 O   0  0  0  0  0  0  0  0  0  0  0  0
  162.4010  211.3420  156.1740 C   0  0  0  0  0  2  0  0  0  0  0  0
  161.8910  208.4710  156.7070 C   0  0  0  0  0  2  0  0  0  0  0  0
  163.0800  209.2140  157.2610 C   0  0  0  0  0  3  0  0  0  0  0  0
  161.0560  207.9030  154.0290 C   0  0  0  0  0  2  0  0  0  0  0  0
  159.4890  211.9550  152.3030 C   0  0  1  0  0  3  0  0  0  0  0  0
  161.1980  210.0920  152.2100 C   0  0  1  0  0  3  0  0  0  0  0  0
  158.6610  212.2470  153.5430 C   0  0  2  0  0  3  0  0  0  0  0  0
  160.7320  211.4620  154.3500 C   0  0  2  0  0  3  0  0  0  0  0  0
  163.0340  210.4340  151.0170 C   0  0  0  0  0  1  0  0  0  0  0  0
  161.6520  210.2710  150.9000 O   0  0  0  0  0  0  0  0  0  0  0  0
  159.6820  213.2180  151.4830 C   0  0  0  0  0  2  0  0  0  0  0  0
  158.6520  213.3430  150.5510 O   0  0  0  0  0  1  0  0  0  0  0  0
  1 18  1  6  0  0  0
  3 19  2  0  0  0  0
  4  1  1  0  0  0  0
  6  5  2  0  0  0  0
  6  2  2  0  0  0  0
  7 15  1  6  0  0  0
  7 12  1  0  0  0  0
  8  6  1  1  0  0  0
  9 13  1  0  0  0  0
 10 24  1  0  0  0  0
 11 23  1  0  0  0  0
 11  7  1  0  0  0  0
 12  6  1  0  0  0  0
 13 20  1  0  0  0  0
 14  1  1  0  0  0  0
 14 17  1  0  0  0  0
 16 22  1  0  0  0  0
 16 13  1  0  0  0  0
 17  3  1  0  0  0  0
 18 19  1  0  0  0  0
 20  4  1  0  0  0  0
 21 10  1  0  0  0  0
 21 23  1  0  0  0  0
 22 10  1  0  0  0  0
 23  8  1  0  0  0  0
 24  8  1  0  0  0  0
 24 14  1  0  0  0  0
 26 25  1  0  0  0  0
 26 22  1  0  0  0  0
 27 21  1  0  0  0  0
 28 27  1  0  0  0  0
M  END
>  <MODEL>
1

>  <REMARK>
 VINA RESULT:      -3.2      0.000      0.000
  Name = 
  2 active torsions:
  status: ('A' for Active; 'I' for Inactive)
    1  A    between atoms: C_5  and  C_24
    2  A    between atoms: O_17  and  C_25
                            x       y       z     vdW  Elec       q    Type
                         _______ _______ _______ _____ _____    ______ ____

>  <TORSDO>
F 2

$$$$
=
 OpenBabel11122414063D

 28 31  0  0  1  0  0  0  0  0999 V2000
  161.4640  209.6680  155.6070 C   0  0  2  0  0  3  0  0  0  0  0  0
  162.6590  208.6600  152.6660 O   0  0  0  0  0  0  0  0  0  0  0  0
  160.0290  207.2980  156.4400 C   0  0  0  0  0  3  0  0  0  0  0  0
  161.8900  211.0150  155.6170 O   0  0  0  0  0  0  0  0  0  0  0  0
  160.4150  207.9350  151.9470 O   0  0  0  0  0  0  0  0  0  0  0  0
  161.3720  209.0920  152.0220 S   0  0  0  0  0  0  0  0  0  0  0  0
  161.8640  211.2820  150.4860 C   0  0  1  0  0  3  0  0  0  0  0  0
  160.6690  210.4640  152.8940 C   0  0  1  0  0  3  0  0  0  0  0  0
  160.0870  213.8630  157.2610 C   0  0  0  0  0  1  0  0  0  0  0  0
  158.6500  211.3290  153.9170 C   0  0  2  0  0  3  0  0  0  0  0  0
  160.7880  212.0440  151.0440 O   0  0  0  0  0  0  0  0  0  0  0  0
  161.6730  209.7520  150.3910 C   0  0  0  0  0  2  0  0  0  0  0  0
  160.7720  213.0660  156.1600 C   0  0  2  0  0  3  0  0  0  0  0  0
  159.9750  209.4870  155.2270 C   0  0  2  0  0  3  0  0  0  0  0  0
  162.2140  211.8320  149.1200 C   0  0  0  0  0  1  0  0  0  0  0  0
  160.0300  213.0370  154.9580 O   0  0  0  0  0  0  0  0  0  0  0  0
  159.6560  207.9980  155.1670 C   0  0  0  0  0  2  0  0  0  0  0  0
  161.8880  208.9180  156.8870 C   0  0  0  0  0  2  0  0  0  0  0  0
  161.0590  207.6970  157.1950 C   0  0  0  0  0  3  0  0  0  0  0  0
  161.2120  211.6890  156.6460 C   0  0  0  0  0  2  0  0  0  0  0  0
  158.8980  212.0830  152.6040 C   0  0  1  0  0  3  0  0  0  0  0  0
  158.8680  212.2520  155.1280 C   0  0  1  0  0  3  0  0  0  0  0  0
  159.9290  211.2600  151.8490 C   0  0  2  0  0  3  0  0  0  0  0  0
  159.5740  210.1060  153.8740 C   0  0  2  0  0  3  0  0  0  0  0  0
  156.7290  212.2440  155.7020 C   0  0  0  0  0  1  0  0  0  0  0  0
  157.7580  213.0880  155.2810 O   0  0  0  0  0  0  0  0  0  0  0  0
  157.6070  212.1750  151.8110 C   0  0  0  0  0  2  0  0  0  0  0  0
  157.5160  213.4220  151.1920 O   0  0  0  0  0  1  0  0  0  0  0  0
  1  4  1  0  0  0  0
  1 18  1  1  0  0  0
  3 19  2  0  0  0  0
  4 20  1  0  0  0  0
  5  6  2  0  0  0  0
  6  2  2  0  0  0  0
  7 15  1  6  0  0  0
  7 11  1  0  0  0  0
  8  6  1  6  0  0  0
  8 24  1  0  0  0  0
 10 22  1  0  0  0  0
 11 23  1  0  0  0  0
 12  7  1  0  0  0  0
 12  6  1  0  0  0  0
 13 20  1  0  0  0  0
 13  9  1  0  0  0  0
 14  1  1  0  0  0  0
 16 22  1  0  0  0  0
 16 13  1  0  0  0  0
 17 14  1  0  0  0  0
 17  3  1  0  0  0  0
 18 19  1  0  0  0  0
 21 10  1  0  0  0  0
 22 26  1  0  0  0  0
 23 21  1  0  0  0  0
 23  8  1  0  0  0  0
 24 10  1  0  0  0  0
 24 14  1  0  0  0  0
 26 25  1  0  0  0  0
 27 21  1  0  0  0  0
 28 27  1  0  0  0  0
M  END
>  <MODEL>
2

>  <REMARK>
 VINA RESULT:      -1.7      2.055      5.009
  Name = 
  2 active torsions:
  status: ('A' for Active; 'I' for Inactive)
    1  A    between atoms: C_5  and  C_24
    2  A    between atoms: O_17  and  C_25
                            x       y       z     vdW  Elec       q    Type
                         _______ _______ _______ _____ _____    ______ ____

>  <TORSDO>
F 2

$$$$
=
 OpenBabel11122414063D

 28 31  0  0  1  0  0  0  0  0999 V2000
  159.6490  212.8300  152.2070 C   0  0  2  0  0  3  0  0  0  0  0  0
  160.2990  213.4050  155.4220 O   0  0  0  0  0  0  0  0  0  0  0  0
  156.7580  212.7150  152.2600 C   0  0  0  0  0  3  0  0  0  0  0  0
  160.9580  212.6940  151.6930 O   0  0  0  0  0  0  0  0  0  0  0  0
  158.8860  211.5010  156.0990 O   0  0  0  0  0  0  0  0  0  0  0  0
  160.2630  211.9220  155.6690 S   0  0  0  0  0  0  0  0  0  0  0  0
  162.7900  211.0740  156.2110 C   0  0  1  0  0  3  0  0  0  0  0  0
  160.7970  211.0390  154.2300 C   0  0  1  0  0  3  0  0  0  0  0  0
  161.9590  210.5100  148.8150 C   0  0  0  0  0  1  0  0  0  0  0  0
  160.2540  209.2360  152.7050 C   0  0  2  0  0  3  0  0  0  0  0  0
  162.7450  210.0020  155.2630 O   0  0  0  0  0  0  0  0  0  0  0  0
  161.4640  211.4600  156.9060 C   0  0  0  0  0  2  0  0  0  0  0  0
  161.9650  211.0930  150.2200 C   0  0  2  0  0  3  0  0  0  0  0  0
  158.9280  211.4810  152.4440 C   0  0  2  0  0  3  0  0  0  0  0  0
  163.8400  210.7730  157.2600 C   0  0  0  0  0  1  0  0  0  0  0  0
  161.9770  210.1020  151.2280 O   0  0  0  0  0  0  0  0  0  0  0  0
  157.5670  211.7500  153.0740 C   0  0  0  0  0  2  0  0  0  0  0  0
  158.8190  213.8610  151.4130 C   0  0  0  0  0  2  0  0  0  0  0  0
  157.3270  213.6870  151.5380 C   0  0  0  0  0  3  0  0  0  0  0  0
  160.8760  212.1440  150.4040 C   0  0  0  0  0  2  0  0  0  0  0  0
  161.4080  208.7840  153.6090 C   0  0  1  0  0  3  0  0  0  0  0  0
  160.7360  209.4290  151.2580 C   0  0  1  0  0  3  0  0  0  0  0  0
  161.4440  209.7810  154.7560 C   0  0  2  0  0  3  0  0  0  0  0  0
  159.6830  210.4990  153.3610 C   0  0  2  0  0  3  0  0  0  0  0  0
  162.2130  207.8520  150.7730 C   0  0  0  0  0  1  0  0  0  0  0  0
  160.8640  208.1820  150.6400 O   0  0  0  0  0  0  0  0  0  0  0  0
  161.1370  207.3850  154.1310 C   0  0  0  0  0  2  0  0  0  0  0  0
  160.3050  207.4460  155.2490 O   0  0  0  0  0  1  0  0  0  0  0  0
  1 18  1  6  0  0  0
  1 14  1  0  0  0  0
  2  6  2  0  0  0  0
  3 17  1  0  0  0  0
  4  1  1  0  0  0  0
  6  5  2  0  0  0  0
  6 12  1  0  0  0  0
  7 12  1  0  0  0  0
  7 15  1  1  0  0  0
  8 23  1  0  0  0  0
  8  6  1  1  0  0  0
  9 13  1  0  0  0  0
 10 24  1  0  0  0  0
 10 21  1  0  0  0  0
 11  7  1  0  0  0  0
 13 20  1  0  0  0  0
 13 16  1  0  0  0  0
 14 17  1  0  0  0  0
 14 24  1  0  0  0  0
 16 22  1  0  0  0  0
 18 19  1  0  0  0  0
 19  3  2  0  0  0  0
 20  4  1  0  0  0  0
 21 27  1  0  0  0  0
 21 23  1  0  0  0  0
 22 10  1  0  0  0  0
 23 11  1  0  0  0  0
 24  8  1  0  0  0  0
 26 25  1  0  0  0  0
 26 22  1  0  0  0  0
 27 28  1  0  0  0  0
M  END
>  <MODEL>
3

>  <REMARK>
 VINA RESULT:      -0.8      1.635      5.235
  Name = 
  2 active torsions:
  status: ('A' for Active; 'I' for Inactive)
    1  A    between atoms: C_5  and  C_24
    2  A    between atoms: O_17  and  C_25
                            x       y       z     vdW  Elec       q    Type
                         _______ _______ _______ _____ _____    ______ ____

>  <TORSDO>
F 2

$$$$
