=
 OpenBabel11122412453D

 30 35  0  0  1  0  0  0  0  0999 V2000
  160.6010  211.9600  150.8630 C   0  0  1  0  0  3  0  0  0  0  0  0
  161.1620  213.7250  149.0590 C   0  0  0  0  0  0  0  0  0  0  0  0
  162.0210  208.9530  148.6900 N   0  0  0  0  0  2  0  0  0  0  0  0
  161.2960  210.8680  151.6990 C   0  0  1  0  0  3  0  0  0  0  0  0
  160.1790  212.9960  151.7240 O   0  0  0  0  0  0  0  0  0  0  0  0
  158.7820  211.0510  154.3470 O   0  0  0  0  0  0  0  0  0  0  0  0
  160.7340  207.9500  153.2030 C   0  0  1  0  0  3  0  0  0  0  0  0
  159.4340  211.3140  153.3010 C   0  0  0  0  0  0  0  0  0  0  0  0
  161.6910  207.6060  152.0960 C   0  0  1  0  0  3  0  0  0  0  0  0
  161.7930  207.7860  149.5280 C   0  0  2  0  0  3  0  0  0  0  0  0
  159.0850  212.5380  152.5000 C   0  0  2  0  0  3  0  0  0  0  0  0
  160.4770  210.4360  152.8440 N   0  0  0  0  0  0  0  0  0  0  0  0
  161.9170  214.0790  147.8220 C   0  0  0  0  0  2  0  0  0  0  0  0
  161.5830  206.0980  152.0060 C   0  0  0  0  0  2  0  0  0  0  0  0
  160.9360  206.8670  154.2390 C   0  0  0  0  0  2  0  0  0  0  0  0
  160.2680  214.4530  149.4620 O   0  0  0  0  0  0  0  0  0  0  0  0
  162.1050  210.0150  149.4180 C   0  0  2  0  0  3  0  0  0  0  0  0
  161.8880  212.8920  146.8630 C   0  0  0  0  0  2  0  0  0  0  0  0
  161.5960  212.4890  149.8110 C   0  0  2  0  0  3  0  0  0  0  0  0
  161.9440  209.7310  150.8680 C   0  0  2  0  0  3  0  0  0  0  0  0
  160.7400  206.9010  148.8920 C   0  0  0  0  0  1  0  0  0  0  0  0
  161.2730  208.3670  150.8450 C   0  0  2  0  0  3  0  0  0  0  0  0
  161.3250  205.6330  153.4350 C   0  0  0  0  0  2  0  0  0  0  0  0
  161.4220  209.5990  154.8110 O   0  0  0  0  0  0  0  0  0  0  0  0
  162.1720  211.5790  147.5460 C   0  0  0  0  0  3  0  0  0  0  0  0
  161.9910  211.3720  148.8610 C   0  0  0  0  0  0  0  0  0  0  0  0
  160.9110  209.3570  153.6850 C   0  0  0  0  0  0  0  0  0  0  0  0
  157.8220  212.3220  151.6640 C   0  0  0  0  0  2  0  0  0  0  0  0
  157.0320  213.3530  149.5350 C   0  0  0  0  0  1  0  0  0  0  0  0
  157.3830  213.6100  150.9890 C   0  0  0  0  0  2  0  0  0  0  0  0
  1  4  1  0  0  0  0
  1  5  1  1  0  0  0
  2 16  2  0  0  0  0
  2 19  1  0  0  0  0
  3 10  1  0  0  0  0
  4 12  1  1  0  0  0
  5 11  1  0  0  0  0
  7 27  1  0  0  0  0
  7 15  1  1  0  0  0
  8  6  2  0  0  0  0
  9 14  1  6  0  0  0
  9  7  1  0  0  0  0
 10 21  1  6  0  0  0
 10 22  1  0  0  0  0
 11 28  1  6  0  0  0
 11  8  1  0  0  0  0
 12  8  1  0  0  0  0
 12 27  1  0  0  0  0
 13  2  1  0  0  0  0
 14 23  1  0  0  0  0
 17  3  1  6  0  0  0
 17 20  1  0  0  0  0
 18 25  1  0  0  0  0
 18 13  1  0  0  0  0
 19 26  1  6  0  0  0
 19  1  1  0  0  0  0
 20  4  1  0  0  0  0
 22 20  1  0  0  0  0
 22  9  1  0  0  0  0
 23 15  1  0  0  0  0
 25 26  2  0  0  0  0
 26 17  1  0  0  0  0
 27 24  2  0  0  0  0
 29 30  1  0  0  0  0
 30 28  1  0  0  0  0
M  END
>  <MODEL>
1

>  <REMARK>
 VINA RESULT:      -6.8      0.000      0.000
  Name = 
  2 active torsions:
  status: ('A' for Active; 'I' for Inactive)
    1  A    between atoms: C_11  and  C_28
    2  A    between atoms: C_28  and  C_30
                            x       y       z     vdW  Elec       q    Type
                         _______ _______ _______ _____ _____    ______ ____

>  <TORSDO>
F 2

$$$$
=
 OpenBabel11122412453D

 30 35  0  0  1  0  0  0  0  0999 V2000
  161.3440  209.0270  151.9710 C   0  0  1  0  0  3  0  0  0  0  0  0
  161.2410  207.9630  154.3250 C   0  0  0  0  0  0  0  0  0  0  0  0
  159.1700  212.1730  153.0470 N   0  0  0  0  0  2  0  0  0  0  0  0
  161.7780  210.3390  151.2900 C   0  0  1  0  0  3  0  0  0  0  0  0
  162.2090  207.9900  151.5570 O   0  0  0  0  0  0  0  0  0  0  0  0
  162.3430  208.6900  148.0770 O   0  0  0  0  0  0  0  0  0  0  0  0
  161.1230  212.2810  148.6640 C   0  0  1  0  0  3  0  0  0  0  0  0
  162.0950  208.8650  149.3010 C   0  0  0  0  0  0  0  0  0  0  0  0
  160.7080  213.1180  149.8430 C   0  0  1  0  0  3  0  0  0  0  0  0
  159.0710  212.9550  151.8250 C   0  0  2  0  0  3  0  0  0  0  0  0
  161.9360  207.6720  150.2030 C   0  0  2  0  0  3  0  0  0  0  0  0
  161.9220  210.1900  149.8320 N   0  0  0  0  0  0  0  0  0  0  0  0
  160.9600  208.1280  155.7810 C   0  0  0  0  0  2  0  0  0  0  0  0
  159.8680  214.2070  149.2110 C   0  0  0  0  0  2  0  0  0  0  0  0
  161.4330  213.2790  147.5720 C   0  0  0  0  0  2  0  0  0  0  0  0
  161.3850  206.8470  153.8510 O   0  0  0  0  0  0  0  0  0  0  0  0
  160.2270  211.4340  153.0170 C   0  0  2  0  0  3  0  0  0  0  0  0
  159.7130  208.9910  155.9540 C   0  0  0  0  0  2  0  0  0  0  0  0
  161.4070  209.2170  153.5000 C   0  0  2  0  0  3  0  0  0  0  0  0
  161.0090  211.6000  151.7650 C   0  0  2  0  0  3  0  0  0  0  0  0
  157.6380  212.9440  151.3290 C   0  0  0  0  0  1  0  0  0  0  0  0
  159.9790  212.2220  150.8360 C   0  0  2  0  0  3  0  0  0  0  0  0
  160.4970  214.4500  147.8430 C   0  0  0  0  0  2  0  0  0  0  0  0
  163.3970  211.5050  148.5820 O   0  0  0  0  0  0  0  0  0  0  0  0
  159.7130  210.2070  155.0630 C   0  0  0  0  0  3  0  0  0  0  0  0
  160.4280  210.2960  153.9300 C   0  0  0  0  0  0  0  0  0  0  0  0
  162.2250  211.3270  149.0090 C   0  0  0  0  0  0  0  0  0  0  0  0
  160.5710  207.0070  150.0180 C   0  0  0  0  0  2  0  0  0  0  0  0
  160.9180  204.7130  150.9320 C   0  0  0  0  0  1  0  0  0  0  0  0
  160.7210  205.5350  149.6730 C   0  0  0  0  0  2  0  0  0  0  0  0
  1  5  1  6  0  0  0
  1 19  1  0  0  0  0
  2 13  1  0  0  0  0
  4 12  1  6  0  0  0
  4 20  1  0  0  0  0
  4  1  1  0  0  0  0
  6  8  2  0  0  0  0
  7 15  1  6  0  0  0
  7 27  1  0  0  0  0
  7  9  1  0  0  0  0
  8 12  1  0  0  0  0
  8 11  1  0  0  0  0
  9 14  1  6  0  0  0
  9 22  1  0  0  0  0
 10 21  1  6  0  0  0
 10  3  1  0  0  0  0
 11 28  1  1  0  0  0
 11  5  1  0  0  0  0
 13 18  1  0  0  0  0
 15 23  1  0  0  0  0
 16  2  2  0  0  0  0
 17  3  1  6  0  0  0
 17 26  1  0  0  0  0
 19 26  1  1  0  0  0
 19  2  1  0  0  0  0
 20 17  1  0  0  0  0
 22 20  1  0  0  0  0
 22 10  1  0  0  0  0
 23 14  1  0  0  0  0
 24 27  2  0  0  0  0
 25 18  1  0  0  0  0
 26 25  2  0  0  0  0
 27 12  1  0  0  0  0
 30 28  1  0  0  0  0
 30 29  1  0  0  0  0
M  END
>  <MODEL>
2

>  <REMARK>
 VINA RESULT:      -6.4      2.044      6.914
  Name = 
  2 active torsions:
  status: ('A' for Active; 'I' for Inactive)
    1  A    between atoms: C_11  and  C_28
    2  A    between atoms: C_28  and  C_30
                            x       y       z     vdW  Elec       q    Type
                         _______ _______ _______ _____ _____    ______ ____

>  <TORSDO>
F 2

$$$$
=
 OpenBabel11122412453D

 30 35  0  0  1  0  0  0  0  0999 V2000
  161.2430  209.7400  151.9220 C   0  0  1  0  0  3  0  0  0  0  0  0
  160.9810  209.1460  154.4240 C   0  0  0  0  0  0  0  0  0  0  0  0
  158.8700  212.9140  152.1900 N   0  0  0  0  0  2  0  0  0  0  0  0
  161.6830  210.9170  151.0310 C   0  0  1  0  0  3  0  0  0  0  0  0
  162.1780  208.6900  151.7860 O   0  0  0  0  0  0  0  0  0  0  0  0
  162.5790  208.7110  148.2570 O   0  0  0  0  0  0  0  0  0  0  0  0
  161.1810  212.2780  148.0320 C   0  0  1  0  0  3  0  0  0  0  0  0
  162.2230  209.1060  149.4000 C   0  0  0  0  0  0  0  0  0  0  0  0
  160.6370  213.3030  148.9880 C   0  0  1  0  0  3  0  0  0  0  0  0
  158.8450  213.4390  150.8340 C   0  0  2  0  0  3  0  0  0  0  0  0
  162.0330  208.1030  150.5040 C   0  0  2  0  0  3  0  0  0  0  0  0
  161.9560  210.4970  149.6460 N   0  0  0  0  0  0  0  0  0  0  0  0
  160.5720  209.5740  155.7930 C   0  0  0  0  0  2  0  0  0  0  0  0
  159.8130  214.2040  148.0930 C   0  0  0  0  0  2  0  0  0  0  0  0
  161.5450  213.0620  146.7910 C   0  0  0  0  0  2  0  0  0  0  0  0
  161.2060  207.9690  154.1910 O   0  0  0  0  0  0  0  0  0  0  0  0
  159.9520  212.2400  152.3870 C   0  0  2  0  0  3  0  0  0  0  0  0
  159.2840  210.3870  155.6990 C   0  0  0  0  0  2  0  0  0  0  0  0
  161.1690  210.2240  153.3830 C   0  0  2  0  0  3  0  0  0  0  0  0
  160.8310  212.2030  151.1890 C   0  0  2  0  0  3  0  0  0  0  0  0
  157.4610  213.2570  150.2430 C   0  0  0  0  0  1  0  0  0  0  0  0
  159.8610  212.5780  150.0800 C   0  0  2  0  0  3  0  0  0  0  0  0
  160.5460  214.2120  146.7560 C   0  0  0  0  0  2  0  0  0  0  0  0
  163.4810  211.6220  148.2760 O   0  0  0  0  0  0  0  0  0  0  0  0
  159.3140  211.4060  154.5890 C   0  0  0  0  0  3  0  0  0  0  0  0
  160.1180  211.3130  153.5170 C   0  0  0  0  0  0  0  0  0  0  0  0
  162.2840  211.4690  148.6400 C   0  0  0  0  0  0  0  0  0  0  0  0
  160.7140  207.3420  150.3510 C   0  0  0  0  0  2  0  0  0  0  0  0
  160.8320  205.4500  148.7320 C   0  0  0  0  0  1  0  0  0  0  0  0
  160.9570  205.8510  150.1900 C   0  0  0  0  0  2  0  0  0  0  0  0
  1  5  1  1  0  0  0
  1 19  1  0  0  0  0
  2 13  1  0  0  0  0
  4 12  1  6  0  0  0
  4 20  1  0  0  0  0
  4  1  1  0  0  0  0
  6  8  2  0  0  0  0
  7 15  1  6  0  0  0
  7 27  1  0  0  0  0
  7  9  1  0  0  0  0
  8 12  1  0  0  0  0
  8 11  1  0  0  0  0
  9 14  1  6  0  0  0
  9 22  1  0  0  0  0
 10 21  1  6  0  0  0
 10  3  1  0  0  0  0
 11 28  1  1  0  0  0
 11  5  1  0  0  0  0
 16  2  2  0  0  0  0
 17  3  1  6  0  0  0
 17 26  1  0  0  0  0
 18 13  1  0  0  0  0
 19 26  1  6  0  0  0
 19  2  1  0  0  0  0
 20 17  1  0  0  0  0
 22 10  1  0  0  0  0
 22 20  1  0  0  0  0
 23 15  1  0  0  0  0
 23 14  1  0  0  0  0
 24 27  2  0  0  0  0
 25 18  1  0  0  0  0
 26 25  2  0  0  0  0
 27 12  1  0  0  0  0
 29 30  1  0  0  0  0
 30 28  1  0  0  0  0
M  END
>  <MODEL>
3

>  <REMARK>
 VINA RESULT:      -6.2      2.008      6.798
  Name = 
  2 active torsions:
  status: ('A' for Active; 'I' for Inactive)
    1  A    between atoms: C_11  and  C_28
    2  A    between atoms: C_28  and  C_30
                            x       y       z     vdW  Elec       q    Type
                         _______ _______ _______ _____ _____    ______ ____

>  <TORSDO>
F 2

$$$$
=
 OpenBabel11122412453D

 30 35  0  0  1  0  0  0  0  0999 V2000
  160.1900  212.4010  151.0990 C   0  0  1  0  0  3  0  0  0  0  0  0
  160.9970  213.7050  149.0190 C   0  0  0  0  0  0  0  0  0  0  0  0
  162.0120  209.0500  149.9910 N   0  0  0  0  0  2  0  0  0  0  0  0
  160.7640  211.5920  152.2780 C   0  0  1  0  0  3  0  0  0  0  0  0
  159.6110  213.5880  151.6000 O   0  0  0  0  0  0  0  0  0  0  0  0
  157.8490  212.2580  154.3820 O   0  0  0  0  0  0  0  0  0  0  0  0
  160.0300  209.0990  154.3620 C   0  0  1  0  0  3  0  0  0  0  0  0
  158.6560  212.2990  153.4150 C   0  0  0  0  0  0  0  0  0  0  0  0
  161.1620  208.5560  153.5350 C   0  0  1  0  0  3  0  0  0  0  0  0
  161.6770  208.1110  151.0500 C   0  0  2  0  0  3  0  0  0  0  0  0
  158.4150  213.2660  152.2890 C   0  0  2  0  0  3  0  0  0  0  0  0
  159.7790  211.4020  153.3560 N   0  0  0  0  0  0  0  0  0  0  0  0
  161.9360  213.7930  147.8620 C   0  0  0  0  0  2  0  0  0  0  0  0
  161.1040  207.0680  153.8100 C   0  0  0  0  0  2  0  0  0  0  0  0
  160.0850  208.3170  155.6540 C   0  0  0  0  0  2  0  0  0  0  0  0
  160.0340  214.4530  149.0850 O   0  0  0  0  0  0  0  0  0  0  0  0
  161.9530  210.2600  150.4340 C   0  0  2  0  0  3  0  0  0  0  0  0
  162.0900  212.4090  147.2380 C   0  0  0  0  0  2  0  0  0  0  0  0
  161.3310  212.7200  150.1130 C   0  0  2  0  0  3  0  0  0  0  0  0
  161.5640  210.3290  151.8670 C   0  0  2  0  0  3  0  0  0  0  0  0
  160.7610  207.0340  150.5030 C   0  0  0  0  0  1  0  0  0  0  0  0
  160.9360  208.9620  152.0840 C   0  0  2  0  0  3  0  0  0  0  0  0
  160.6270  206.9500  155.2540 C   0  0  0  0  0  2  0  0  0  0  0  0
  160.4100  211.1300  155.5910 O   0  0  0  0  0  0  0  0  0  0  0  0
  162.2880  211.3230  148.2630 C   0  0  0  0  0  3  0  0  0  0  0  0
  161.9010  211.4320  149.5440 C   0  0  0  0  0  0  0  0  0  0  0  0
  160.0950  210.5890  154.4970 C   0  0  0  0  0  0  0  0  0  0  0  0
  157.3100  212.7740  151.3520 C   0  0  0  0  0  2  0  0  0  0  0  0
  156.7180  213.3670  149.0040 C   0  0  0  0  0  1  0  0  0  0  0  0
  156.8440  213.8840  150.4250 C   0  0  0  0  0  2  0  0  0  0  0  0
  1  5  1  1  0  0  0
  1  4  1  0  0  0  0
  2 16  2  0  0  0  0
  3 17  1  0  0  0  0
  3 10  1  0  0  0  0
  4 12  1  1  0  0  0
  5 11  1  0  0  0  0
  7 27  1  0  0  0  0
  7 15  1  1  0  0  0
  8  6  2  0  0  0  0
  9 14  1  6  0  0  0
  9  7  1  0  0  0  0
 10 21  1  6  0  0  0
 10 22  1  0  0  0  0
 11 28  1  6  0  0  0
 11  8  1  0  0  0  0
 12  8  1  0  0  0  0
 12 27  1  0  0  0  0
 13  2  1  0  0  0  0
 14 23  1  0  0  0  0
 17 26  1  6  0  0  0
 17 20  1  0  0  0  0
 18 13  1  0  0  0  0
 18 25  1  0  0  0  0
 19  2  1  6  0  0  0
 19  1  1  0  0  0  0
 20 22  1  0  0  0  0
 20  4  1  0  0  0  0
 22  9  1  0  0  0  0
 23 15  1  0  0  0  0
 25 26  2  0  0  0  0
 26 19  1  0  0  0  0
 27 24  2  0  0  0  0
 29 30  1  0  0  0  0
 30 28  1  0  0  0  0
M  END
>  <MODEL>
4

>  <REMARK>
 VINA RESULT:      -5.9      1.055      1.315
  Name = 
  2 active torsions:
  status: ('A' for Active; 'I' for Inactive)
    1  A    between atoms: C_11  and  C_28
    2  A    between atoms: C_28  and  C_30
                            x       y       z     vdW  Elec       q    Type
                         _______ _______ _______ _____ _____    ______ ____

>  <TORSDO>
F 2

$$$$
=
 OpenBabel11122412453D

 30 35  0  0  1  0  0  0  0  0999 V2000
  159.8190  212.9300  150.4800 C   0  0  1  0  0  3  0  0  0  0  0  0
  160.8300  213.8160  148.2710 C   0  0  0  0  0  0  0  0  0  0  0  0
  162.0310  209.6310  150.4360 N   0  0  0  0  0  2  0  0  0  0  0  0
  160.2690  212.4700  151.8790 C   0  0  1  0  0  3  0  0  0  0  0  0
  159.0850  214.1300  150.6070 O   0  0  0  0  0  0  0  0  0  0  0  0
  157.0310  213.2730  153.3750 O   0  0  0  0  0  0  0  0  0  0  0  0
  159.4190  210.4410  154.3800 C   0  0  1  0  0  3  0  0  0  0  0  0
  157.9680  213.1830  152.5370 C   0  0  0  0  0  0  0  0  0  0  0  0
  160.6990  209.8510  153.8570 C   0  0  1  0  0  3  0  0  0  0  0  0
  161.6120  208.9220  151.6350 C   0  0  2  0  0  3  0  0  0  0  0  0
  157.8270  213.8440  151.1940 C   0  0  2  0  0  3  0  0  0  0  0  0
  159.1510  212.4210  152.8360 N   0  0  0  0  0  0  0  0  0  0  0  0
  161.9220  213.7440  147.2570 C   0  0  0  0  0  2  0  0  0  0  0  0
  160.7120  208.4640  154.4660 C   0  0  0  0  0  2  0  0  0  0  0  0
  159.3380  209.9760  155.8170 C   0  0  0  0  0  2  0  0  0  0  0  0
  159.8150  214.4520  148.0350 O   0  0  0  0  0  0  0  0  0  0  0  0
  161.8160  210.8960  150.5700 C   0  0  2  0  0  3  0  0  0  0  0  0
  162.2700  212.2800  147.0020 C   0  0  0  0  0  2  0  0  0  0  0  0
  161.0690  213.1410  149.6010 C   0  0  2  0  0  3  0  0  0  0  0  0
  161.2140  211.2410  151.8840 C   0  0  2  0  0  3  0  0  0  0  0  0
  160.8710  207.6580  151.2440 C   0  0  0  0  0  1  0  0  0  0  0  0
  160.6640  209.8970  152.3350 C   0  0  2  0  0  3  0  0  0  0  0  0
  160.0340  208.6210  155.8230 C   0  0  0  0  0  2  0  0  0  0  0  0
  159.4590  212.7230  155.1340 O   0  0  0  0  0  0  0  0  0  0  0  0
  162.3930  211.4770  148.2710 C   0  0  0  0  0  3  0  0  0  0  0  0
  161.8110  211.8270  149.4300 C   0  0  0  0  0  0  0  0  0  0  0  0
  159.3520  211.9220  154.1680 C   0  0  0  0  0  0  0  0  0  0  0  0
  156.9150  213.0400  150.2650 C   0  0  0  0  0  2  0  0  0  0  0  0
  156.2730  214.3770  148.2600 C   0  0  0  0  0  1  0  0  0  0  0  0
  155.8470  213.9250  149.6440 C   0  0  0  0  0  2  0  0  0  0  0  0
  1  5  1  1  0  0  0
  1  4  1  0  0  0  0
  3 17  1  0  0  0  0
  3 10  1  0  0  0  0
  4 20  1  0  0  0  0
  4 12  1  1  0  0  0
  5 11  1  0  0  0  0
  7 15  1  1  0  0  0
  8 12  1  0  0  0  0
  8  6  2  0  0  0  0
  9  7  1  0  0  0  0
  9 14  1  6  0  0  0
 10 21  1  6  0  0  0
 10 22  1  0  0  0  0
 11 28  1  6  0  0  0
 11  8  1  0  0  0  0
 12 27  1  0  0  0  0
 13  2  1  0  0  0  0
 14 23  1  0  0  0  0
 15 23  1  0  0  0  0
 16  2  2  0  0  0  0
 17 26  1  6  0  0  0
 17 20  1  0  0  0  0
 18 13  1  0  0  0  0
 18 25  1  0  0  0  0
 19  2  1  6  0  0  0
 19  1  1  0  0  0  0
 20 22  1  0  0  0  0
 22  9  1  0  0  0  0
 25 26  2  0  0  0  0
 26 19  1  0  0  0  0
 27  7  1  0  0  0  0
 27 24  2  0  0  0  0
 29 30  1  0  0  0  0
 30 28  1  0  0  0  0
M  END
>  <MODEL>
5

>  <REMARK>
 VINA RESULT:      -5.4      1.593      2.329
  Name = 
  2 active torsions:
  status: ('A' for Active; 'I' for Inactive)
    1  A    between atoms: C_11  and  C_28
    2  A    between atoms: C_28  and  C_30
                            x       y       z     vdW  Elec       q    Type
                         _______ _______ _______ _____ _____    ______ ____

>  <TORSDO>
F 2

$$$$
=
 OpenBabel11122412453D

 30 35  0  0  1  0  0  0  0  0999 V2000
  160.6440  211.4730  138.5110 C   0  0  1  0  0  3  0  0  0  0  0  0
  163.1410  212.1160  138.3260 C   0  0  0  0  0  0  0  0  0  0  0  0
  159.8250  214.4530  141.0070 N   0  0  0  0  0  2  0  0  0  0  0  0
  159.2500  212.0920  138.2970 C   0  0  1  0  0  3  0  0  0  0  0  0
  160.8480  210.4630  137.5470 O   0  0  0  0  0  0  0  0  0  0  0  0
  157.6980  208.8320  137.7240 O   0  0  0  0  0  0  0  0  0  0  0  0
  156.0990  211.9120  139.3640 C   0  0  1  0  0  3  0  0  0  0  0  0
  158.5720  209.7200  137.9150 C   0  0  0  0  0  0  0  0  0  0  0  0
  156.5530  213.2750  139.8100 C   0  0  1  0  0  3  0  0  0  0  0  0
  158.4070  214.2880  141.2840 C   0  0  2  0  0  3  0  0  0  0  0  0
  160.0280  209.3500  137.8600 C   0  0  2  0  0  3  0  0  0  0  0  0
  158.1910  211.0710  138.2260 N   0  0  0  0  0  0  0  0  0  0  0  0
  164.2060  213.1400  138.5340 C   0  0  0  0  0  2  0  0  0  0  0  0
  155.5010  213.6720  140.8240 C   0  0  0  0  0  2  0  0  0  0  0  0
  154.5950  212.0220  139.2570 C   0  0  0  0  0  2  0  0  0  0  0  0
  163.4430  210.9620  138.0670 O   0  0  0  0  0  0  0  0  0  0  0  0
  160.1190  213.9280  139.8660 C   0  0  2  0  0  3  0  0  0  0  0  0
  163.9720  213.8400  139.8690 C   0  0  0  0  0  2  0  0  0  0  0  0
  161.7060  212.5830  138.3780 C   0  0  2  0  0  3  0  0  0  0  0  0
  158.9420  213.3200  139.1920 C   0  0  2  0  0  3  0  0  0  0  0  0
  158.2160  213.8790  142.7320 C   0  0  0  0  0  1  0  0  0  0  0  0
  157.9720  213.1560  140.3520 C   0  0  2  0  0  3  0  0  0  0  0  0
  154.2070  213.0420  140.3200 C   0  0  0  0  0  2  0  0  0  0  0  0
  156.2160  211.4000  137.0180 O   0  0  0  0  0  0  0  0  0  0  0  0
  162.5310  214.2250  140.0850 C   0  0  0  0  0  3  0  0  0  0  0  0
  161.5020  213.6290  139.4610 C   0  0  0  0  0  0  0  0  0  0  0  0
  156.8110  211.4570  138.1280 C   0  0  0  0  0  0  0  0  0  0  0  0
  160.4750  208.6310  139.1340 C   0  0  0  0  0  2  0  0  0  0  0  0
  162.0410  206.9610  140.1230 C   0  0  0  0  0  1  0  0  0  0  0  0
  161.5750  207.6260  138.8410 C   0  0  0  0  0  2  0  0  0  0  0  0
  1  5  1  6  0  0  0
  2 13  1  0  0  0  0
  3 10  1  0  0  0  0
  4 12  1  1  0  0  0
  4  1  1  0  0  0  0
  4 20  1  0  0  0  0
  5 11  1  0  0  0  0
  6  8  2  0  0  0  0
  7 15  1  6  0  0  0
  7  9  1  0  0  0  0
  8 12  1  0  0  0  0
  9 22  1  0  0  0  0
  9 14  1  1  0  0  0
 10 21  1  1  0  0  0
 11  8  1  0  0  0  0
 11 28  1  1  0  0  0
 13 18  1  0  0  0  0
 15 23  1  0  0  0  0
 16  2  2  0  0  0  0
 17 26  1  1  0  0  0
 17  3  1  0  0  0  0
 18 25  1  0  0  0  0
 19  2  1  1  0  0  0
 19  1  1  0  0  0  0
 19 26  1  0  0  0  0
 20 17  1  0  0  0  0
 20 22  1  0  0  0  0
 22 10  1  0  0  0  0
 23 14  1  0  0  0  0
 24 27  2  0  0  0  0
 26 25  2  0  0  0  0
 27 12  1  0  0  0  0
 27  7  1  0  0  0  0
 30 28  1  0  0  0  0
 30 29  1  0  0  0  0
M  END
>  <MODEL>
6

>  <REMARK>
 VINA RESULT:      -4.1     10.714     13.306
  Name = 
  2 active torsions:
  status: ('A' for Active; 'I' for Inactive)
    1  A    between atoms: C_11  and  C_28
    2  A    between atoms: C_28  and  C_30
                            x       y       z     vdW  Elec       q    Type
                         _______ _______ _______ _____ _____    ______ ____

>  <TORSDO>
F 2

$$$$
