=
 OpenBabel11122412473D

 32 37  0  0  1  0  0  0  0  0999 V2000
  161.9310  201.5720  149.6100 C   0  0  0  0  0  2  0  0  0  0  0  0
  160.6380  206.4150  152.0760 C   0  0  1  0  0  3  0  0  0  0  0  0
  162.3220  209.6750  148.7120 C   0  0  0  0  0  3  0  0  0  0  0  0
  162.3320  210.6650  149.6930 C   0  0  0  0  0  3  0  0  0  0  0  0
  160.6620  207.1540  154.5150 C   0  0  0  0  0  0  0  0  0  0  0  0
  160.6280  208.2820  155.4450 C   0  0  0  0  0  0  0  0  0  0  0  0
  160.6900  204.0160  151.3150 C   0  0  1  0  0  3  0  0  0  0  0  0
  160.5190  205.8910  149.6300 C   0  0  0  0  0  2  0  0  0  0  0  0
  160.8620  210.3450  156.1450 N   0  0  0  0  0  0  0  0  0  0  0  0
  160.5490  203.5680  148.7570 C   0  0  0  0  0  2  0  0  0  0  0  0
  161.8660  208.3990  149.0400 C   0  0  0  0  0  3  0  0  0  0  0  0
  160.9480  206.8020  150.6900 N   0  0  0  0  0  0  0  0  0  0  0  0
  161.4270  208.1160  150.3420 C   0  0  0  0  0  0  0  0  0  0  0  0
  160.9380  208.8760  152.6830 C   0  0  2  0  0  3  0  0  0  0  0  0
  160.4460  209.6310  157.1820 N   0  0  0  0  0  0  0  0  0  0  0  0
  162.3930  202.2930  150.8040 N   0  0  0  0  0  2  0  0  0  0  0  0
  161.0490  204.4850  149.8830 C   0  0  2  0  0  3  0  0  0  0  0  0
  160.2880  208.3440  156.7850 C   0  0  0  0  0  3  0  0  0  0  0  0
  161.2640  202.6370  151.6700 C   0  0  0  0  0  2  0  0  0  0  0  0
  160.5820  202.0690  149.0600 C   0  0  1  0  0  3  0  0  0  0  0  0
  161.9040  210.3820  150.9510 N   0  0  0  0  0  0  0  0  0  0  0  0
  161.4750  209.1360  151.3050 C   0  0  0  0  0  0  0  0  0  0  0  0
  161.4710  209.9000  153.7100 C   0  0  0  0  0  2  0  0  0  0  0  0
  161.2120  205.0210  152.3360 C   0  0  0  0  0  2  0  0  0  0  0  0
  160.3230  206.0040  154.9010 O   0  0  0  0  0  0  0  0  0  0  0  0
  161.1550  211.7670  156.2010 C   0  0  0  0  0  1  0  0  0  0  0  0
  161.2000  207.4080  153.1140 C   0  0  2  0  0  3  0  0  0  0  0  0
  160.9680  209.5470  155.0740 C   0  0  0  0  0  0  0  0  0  0  0  0
  160.2250  201.3250  147.8610 N   0  0  0  0  0  2  0  0  0  0  0  0
  160.6960  201.6970  146.5660 C   0  0  0  0  0  0  0  0  0  0  0  0
  161.5440  202.7860  146.4060 O   0  0  0  0  0  1  0  0  0  0  0  0
  160.3430  201.0300  145.5590 O   0  0  0  0  0  0  0  0  0  0  0  0
  1 16  1  0  0  0  0
  2 24  1  1  0  0  0
  2 27  1  0  0  0  0
  3 11  2  0  0  0  0
  3  4  1  0  0  0  0
  4 21  2  0  0  0  0
  5 25  2  0  0  0  0
  5  6  1  0  0  0  0
  6 18  1  0  0  0  0
  7 19  1  1  0  0  0
  7 24  1  0  0  0  0
  8 17  1  0  0  0  0
  8 12  1  0  0  0  0
  9 26  1  0  0  0  0
  9 15  1  0  0  0  0
 10 20  1  0  0  0  0
 11 13  1  0  0  0  0
 12  2  1  0  0  0  0
 13 12  1  0  0  0  0
 13 22  2  0  0  0  0
 14 27  1  0  0  0  0
 14 23  1  1  0  0  0
 16 19  1  0  0  0  0
 17 10  1  6  0  0  0
 17  7  1  0  0  0  0
 18 15  2  0  0  0  0
 20 29  1  6  0  0  0
 20  1  1  0  0  0  0
 21 22  1  0  0  0  0
 22 14  1  0  0  0  0
 23 28  1  0  0  0  0
 27  5  1  1  0  0  0
 28  6  2  0  0  0  0
 28  9  1  0  0  0  0
 30 29  1  0  0  0  0
 31 30  1  0  0  0  0
 32 30  2  0  0  0  0
M  END
>  <MODEL>
1

>  <REMARK>
 VINA RESULT:      -7.9      0.000      0.000
  Name = 
  1 active torsions:
  status: ('A' for Active; 'I' for Inactive)
    1  A    between atoms: C_20  and  N_29
                            x       y       z     vdW  Elec       q    Type
                         _______ _______ _______ _____ _____    ______ ____

>  <TORSDO>
F 1

$$$$
=
 OpenBabel11122412473D

 32 37  0  0  1  0  0  0  0  0999 V2000
  159.8150  208.8850  156.2350 C   0  0  0  0  0  2  0  0  0  0  0  0
  161.4500  205.7790  151.8890 C   0  0  1  0  0  3  0  0  0  0  0  0
  161.6370  209.2090  148.2860 C   0  0  0  0  0  3  0  0  0  0  0  0
  161.5800  208.1940  147.3330 C   0  0  0  0  0  3  0  0  0  0  0  0
  160.8970  203.3930  151.1860 C   0  0  0  0  0  0  0  0  0  0  0  0
  160.9270  202.4030  150.1090 C   0  0  0  0  0  0  0  0  0  0  0  0
  161.0530  206.7130  154.1930 C   0  0  1  0  0  3  0  0  0  0  0  0
  162.1450  208.1290  152.4080 C   0  0  0  0  0  2  0  0  0  0  0  0
  160.9980  201.6350  148.0580 N   0  0  0  0  0  0  0  0  0  0  0  0
  161.8180  209.1580  154.6420 C   0  0  0  0  0  2  0  0  0  0  0  0
  161.6630  208.8690  149.6380 C   0  0  0  0  0  3  0  0  0  0  0  0
  161.6560  207.1620  151.4270 N   0  0  0  0  0  0  0  0  0  0  0  0
  161.6250  207.5240  150.0310 C   0  0  0  0  0  0  0  0  0  0  0  0
  161.5810  205.0860  149.4360 C   0  0  2  0  0  3  0  0  0  0  0  0
  160.9140  200.5820  148.8620 N   0  0  0  0  0  0  0  0  0  0  0  0
  159.2120  207.8130  155.4310 N   0  0  0  0  0  2  0  0  0  0  0  0
  161.2460  208.1460  153.6380 C   0  0  2  0  0  3  0  0  0  0  0  0
  160.8690  201.0210  150.1440 C   0  0  0  0  0  3  0  0  0  0  0  0
  160.0900  206.6420  155.3870 C   0  0  0  0  0  2  0  0  0  0  0  0
  161.3440  208.9950  156.0880 C   0  0  1  0  0  3  0  0  0  0  0  0
  161.5440  206.8930  147.7230 N   0  0  0  0  0  0  0  0  0  0  0  0
  161.5440  206.5340  149.0400 C   0  0  0  0  0  0  0  0  0  0  0  0
  161.0320  204.1700  148.3190 C   0  0  0  0  0  2  0  0  0  0  0  0
  160.5120  205.8010  153.0960 C   0  0  0  0  0  2  0  0  0  0  0  0
  160.8260  203.0200  152.3870 O   0  0  0  0  0  0  0  0  0  0  0  0
  161.0480  201.5500  146.6090 C   0  0  0  0  0  1  0  0  0  0  0  0
  160.8640  204.8630  150.7950 C   0  0  2  0  0  3  0  0  0  0  0  0
  161.0200  202.7530  148.7970 C   0  0  0  0  0  0  0  0  0  0  0  0
  161.8450  210.1020  156.8880 N   0  0  0  0  0  2  0  0  0  0  0  0
  161.5960  211.4660  156.5440 C   0  0  0  0  0  0  0  0  0  0  0  0
  160.8340  211.7860  155.4260 O   0  0  0  0  0  0  0  0  0  0  0  0
  162.0670  212.3860  157.2610 O   0  0  0  0  0  1  0  0  0  0  0  0
  2 24  1  1  0  0  0
  3 11  1  0  0  0  0
  4 21  1  0  0  0  0
  4  3  2  0  0  0  0
  5 25  2  0  0  0  0
  6 18  1  0  0  0  0
  6  5  1  0  0  0  0
  7 24  1  6  0  0  0
  7 19  1  0  0  0  0
  9 28  1  0  0  0  0
  9 15  1  0  0  0  0
 10 20  1  0  0  0  0
 11 13  2  0  0  0  0
 12  2  1  0  0  0  0
 12  8  1  0  0  0  0
 13 12  1  0  0  0  0
 14 23  1  6  0  0  0
 14 27  1  0  0  0  0
 15 18  2  0  0  0  0
 16  1  1  0  0  0  0
 17  8  1  6  0  0  0
 17  7  1  0  0  0  0
 17 10  1  0  0  0  0
 19 16  1  0  0  0  0
 20  1  1  0  0  0  0
 20 29  1  1  0  0  0
 21 22  2  0  0  0  0
 22 14  1  0  0  0  0
 22 13  1  0  0  0  0
 23 28  1  0  0  0  0
 26  9  1  0  0  0  0
 27  5  1  1  0  0  0
 27  2  1  0  0  0  0
 28  6  2  0  0  0  0
 30 29  1  0  0  0  0
 30 32  1  0  0  0  0
 31 30  2  0  0  0  0
M  END
>  <MODEL>
2

>  <REMARK>
 VINA RESULT:      -7.6      2.191      8.171
  Name = 
  1 active torsions:
  status: ('A' for Active; 'I' for Inactive)
    1  A    between atoms: C_20  and  N_29
                            x       y       z     vdW  Elec       q    Type
                         _______ _______ _______ _____ _____    ______ ____

>  <TORSDO>
F 1

$$$$
=
 OpenBabel11122412473D

 32 37  0  0  1  0  0  0  0  0999 V2000
  162.7370  210.7030  153.8160 C   0  0  0  0  0  2  0  0  0  0  0  0
  160.9050  206.9620  150.0950 C   0  0  1  0  0  3  0  0  0  0  0  0
  161.2060  202.7580  152.7440 C   0  0  0  0  0  3  0  0  0  0  0  0
  161.1810  202.0240  151.5610 C   0  0  0  0  0  3  0  0  0  0  0  0
  161.2130  206.7630  147.5730 C   0  0  0  0  0  0  0  0  0  0  0  0
  161.1070  205.8980  146.3980 C   0  0  0  0  0  0  0  0  0  0  0  0
  161.3310  209.0590  151.4210 C   0  0  1  0  0  3  0  0  0  0  0  0
  160.4570  206.9790  152.5590 C   0  0  0  0  0  2  0  0  0  0  0  0
  161.0160  204.0340  145.2500 N   0  0  0  0  0  0  0  0  0  0  0  0
  160.8260  208.9860  153.9710 C   0  0  0  0  0  2  0  0  0  0  0  0
  161.1020  204.1480  152.6840 C   0  0  0  0  0  3  0  0  0  0  0  0
  160.8660  206.2310  151.3720 N   0  0  0  0  0  0  0  0  0  0  0  0
  160.9800  204.7950  151.4460 C   0  0  0  0  0  0  0  0  0  0  0  0
  160.7740  204.6860  148.9470 C   0  0  2  0  0  3  0  0  0  0  0  0
  160.9590  205.0290  144.3750 N   0  0  0  0  0  0  0  0  0  0  0  0
  163.2420  210.1540  152.5510 N   0  0  0  0  0  2  0  0  0  0  0  0
  161.3140  208.2280  152.7270 C   0  0  2  0  0  3  0  0  0  0  0  0
  161.0120  206.2030  145.0520 C   0  0  0  0  0  3  0  0  0  0  0  0
  162.2440  210.2920  151.4900 C   0  0  0  0  0  2  0  0  0  0  0  0
  161.2350  210.4590  154.0510 C   0  0  1  0  0  3  0  0  0  0  0  0
  161.0610  202.6600  150.3660 N   0  0  0  0  0  0  0  0  0  0  0  0
  160.9810  204.0190  150.2760 C   0  0  0  0  0  0  0  0  0  0  0  0
  161.2520  203.7970  147.7770 C   0  0  0  0  0  2  0  0  0  0  0  0
  161.8010  208.1890  150.2600 C   0  0  0  0  0  2  0  0  0  0  0  0
  161.2050  208.0160  147.4400 O   0  0  0  0  0  0  0  0  0  0  0  0
  161.0010  202.6290  144.8860 C   0  0  0  0  0  1  0  0  0  0  0  0
  161.4190  206.0980  148.9260 C   0  0  2  0  0  3  0  0  0  0  0  0
  161.0940  204.5400  146.4890 C   0  0  0  0  0  0  0  0  0  0  0  0
  160.8340  211.0020  155.3390 N   0  0  0  0  0  2  0  0  0  0  0  0
  159.9870  212.1460  155.4530 C   0  0  0  0  0  0  0  0  0  0  0  0
  159.4900  212.7750  154.3180 O   0  0  0  0  0  0  0  0  0  0  0  0
  159.6850  212.5870  156.5920 O   0  0  0  0  0  1  0  0  0  0  0  0
  1 20  1  0  0  0  0
  2 24  1  1  0  0  0
  2 12  1  0  0  0  0
  4  3  2  0  0  0  0
  6 28  2  0  0  0  0
  6  5  1  0  0  0  0
  7 24  1  6  0  0  0
  7 19  1  0  0  0  0
  7 17  1  0  0  0  0
  9 28  1  0  0  0  0
 10 20  1  0  0  0  0
 11  3  1  0  0  0  0
 12 13  1  0  0  0  0
 12  8  1  0  0  0  0
 13 11  2  0  0  0  0
 14 23  1  6  0  0  0
 14 22  1  0  0  0  0
 15 18  2  0  0  0  0
 15  9  1  0  0  0  0
 16  1  1  0  0  0  0
 17  8  1  6  0  0  0
 17 10  1  0  0  0  0
 18  6  1  0  0  0  0
 19 16  1  0  0  0  0
 20 29  1  1  0  0  0
 21  4  1  0  0  0  0
 22 21  2  0  0  0  0
 22 13  1  0  0  0  0
 25  5  2  0  0  0  0
 26  9  1  0  0  0  0
 27  5  1  6  0  0  0
 27 14  1  0  0  0  0
 27  2  1  0  0  0  0
 28 23  1  0  0  0  0
 29 30  1  0  0  0  0
 30 32  1  0  0  0  0
 31 30  2  0  0  0  0
M  END
>  <MODEL>
3

>  <REMARK>
 VINA RESULT:      -6.6      2.722      9.036
  Name = 
  1 active torsions:
  status: ('A' for Active; 'I' for Inactive)
    1  A    between atoms: C_20  and  N_29
                            x       y       z     vdW  Elec       q    Type
                         _______ _______ _______ _____ _____    ______ ____

>  <TORSDO>
F 1

$$$$
