=
 OpenBabel11122414373D

 34 40  0  0  1  0  0  0  0  0999 V2000
  161.0490  207.0420  154.3590 C   0  0  0  0  0  0  0  0  0  0  0  0
  161.2120  204.8970  153.0950 C   0  0  0  0  0  2  0  0  0  0  0  0
  158.9220  213.2840  154.0850 C   0  0  0  0  0  0  0  0  0  0  0  0
  159.9570  209.0760  155.0520 C   0  0  0  0  0  0  0  0  0  0  0  0
  160.0900  211.0880  153.4960 C   0  0  2  0  0  3  0  0  0  0  0  0
  159.9510  212.9230  151.9540 O   0  0  0  0  0  1  0  0  0  0  0  0
  159.3880  214.4530  154.0430 O   0  0  0  0  0  0  0  0  0  0  0  0
  157.9540  211.7020  155.7620 C   0  0  0  0  0  2  0  0  0  0  0  0
  162.1410  206.8700  152.0150 C   0  0  2  0  0  3  0  0  0  0  0  0
  161.7400  206.8560  148.8270 C   0  0  0  0  0  2  0  0  0  0  0  0
  160.0950  210.0680  152.4470 N   0  0  0  0  0  2  0  0  0  0  0  0
  158.1480  210.6330  154.8810 O   0  0  0  0  0  0  0  0  0  0  0  0
  161.2010  208.0390  151.6460 C   0  0  1  0  0  3  0  0  0  0  0  0
  161.8610  204.4340  151.8140 C   0  0  0  0  0  2  0  0  0  0  0  0
  159.5400  210.5030  154.8150 C   0  0  1  0  0  3  0  0  0  0  0  0
  157.9950  212.9600  155.0840 O   0  0  0  0  0  0  0  0  0  0  0  0
  161.2180  205.8120  149.8020 C   0  0  2  0  0  3  0  0  0  0  0  0
  160.6580  208.3560  154.0720 C   0  0  0  0  0  0  0  0  0  0  0  0
  159.2790  212.2940  153.0050 C   0  0  2  0  0  3  0  0  0  0  0  0
  161.0720  209.0380  152.7970 C   0  0  2  0  0  3  0  0  0  0  0  0
  160.0360  207.2040  156.4940 C   0  0  0  0  0  3  0  0  0  0  0  0
  161.1700  208.2260  149.1480 C   0  0  0  0  0  2  0  0  0  0  0  0
  159.6570  208.4820  156.2370 N   0  0  0  0  0  0  0  0  0  0  0  0
  161.7590  208.7760  150.4350 C   0  0  0  0  0  2  0  0  0  0  0  0
  162.1660  205.6920  151.0090 C   0  0  1  0  0  3  0  0  0  0  0  0
  160.7290  206.5000  155.5650 N   0  0  0  0  0  0  0  0  0  0  0  0
  161.8560  206.2310  153.3820 C   0  0  1  0  0  3  0  0  0  0  0  0
  161.1270  204.5890  149.1310 O   0  0  0  0  0  0  0  0  0  0  0  0
  161.5750  204.8580  147.8350 C   0  0  0  0  0  2  0  0  0  0  0  0
  160.6400  201.5020  146.8230 C   0  0  0  0  0  2  0  0  0  0  0  0
  161.2320  203.5810  145.7870 N   0  0  0  0  0  2  0  0  0  0  0  0
  161.8490  203.5570  147.1040 C   0  0  2  0  0  3  0  0  0  0  0  0
  160.8830  202.1990  145.5020 C   0  0  0  0  0  2  0  0  0  0  0  0
  161.2490  202.4020  147.8710 C   0  0  0  0  0  2  0  0  0  0  0  0
  1 26  1  0  0  0  0
  2 27  1  0  0  0  0
  3 16  1  0  0  0  0
  4 23  2  0  0  0  0
  5 11  1  6  0  0  0
  5 15  1  0  0  0  0
  6 19  1  0  0  0  0
  7  3  2  0  0  0  0
  9 27  1  0  0  0  0
 10 22  1  0  0  0  0
 10 17  1  0  0  0  0
 11 20  1  0  0  0  0
 12  8  1  0  0  0  0
 13  9  1  0  0  0  0
 13 20  1  0  0  0  0
 14  2  1  0  0  0  0
 15 12  1  0  0  0  0
 15  4  1  0  0  0  0
 16  8  1  0  0  0  0
 17 25  1  0  0  0  0
 18  1  2  0  0  0  0
 18  4  1  0  0  0  0
 19  5  1  0  0  0  0
 19  3  1  0  0  0  0
 20 18  1  0  0  0  0
 22 24  1  0  0  0  0
 23 21  1  0  0  0  0
 24 13  1  0  0  0  0
 25 14  1  0  0  0  0
 25  9  1  0  0  0  0
 26 21  2  0  0  0  0
 27  1  1  0  0  0  0
 28 17  1  0  0  0  0
 29 28  1  0  0  0  0
 30 34  1  0  0  0  0
 31 32  1  0  0  0  0
 32 29  1  0  0  0  0
 32 34  1  0  0  0  0
 33 31  1  0  0  0  0
 33 30  1  0  0  0  0
M  END
>  <MODEL>
1

>  <REMARK>
 VINA RESULT:      -9.2      0.000      0.000
  Name = 
  3 active torsions:
  status: ('A' for Active; 'I' for Inactive)
    1  A    between atoms: C_17  and  O_28
    2  A    between atoms: O_28  and  C_29
    3  A    between atoms: C_29  and  C_32
                            x       y       z     vdW  Elec       q    Type
                         _______ _______ _______ _____ _____    ______ ____

>  <TORSDO>
F 3

$$$$
=
 OpenBabel11122414373D

 34 40  0  0  1  0  0  0  0  0999 V2000
  161.8500  209.2090  151.2760 C   0  0  0  0  0  0  0  0  0  0  0  0
  160.9690  211.1710  152.5420 C   0  0  0  0  0  2  0  0  0  0  0  0
  161.0760  202.7490  150.1680 C   0  0  0  0  0  0  0  0  0  0  0  0
  161.6400  207.1510  150.0390 C   0  0  0  0  0  0  0  0  0  0  0  0
  161.3720  204.9900  151.3610 C   0  0  2  0  0  3  0  0  0  0  0  0
  160.8460  202.9670  152.5410 O   0  0  0  0  0  1  0  0  0  0  0  0
  161.6730  201.6630  150.3880 O   0  0  0  0  0  0  0  0  0  0  0  0
  160.7710  204.3860  148.3030 C   0  0  0  0  0  2  0  0  0  0  0  0
  161.6050  209.2230  153.8560 C   0  0  2  0  0  3  0  0  0  0  0  0
  159.7060  208.7600  156.4050 C   0  0  0  0  0  2  0  0  0  0  0  0
  160.6730  205.8530  152.3120 N   0  0  0  0  0  2  0  0  0  0  0  0
  160.3060  205.3460  149.2080 O   0  0  0  0  0  0  0  0  0  0  0  0
  160.8440  207.8940  153.6490 C   0  0  1  0  0  3  0  0  0  0  0  0
  160.8100  211.5470  153.9940 C   0  0  0  0  0  2  0  0  0  0  0  0
  161.4360  205.6610  149.9710 C   0  0  1  0  0  3  0  0  0  0  0  0
  160.7120  203.0680  148.8530 O   0  0  0  0  0  0  0  0  0  0  0  0
  159.5400  209.8390  155.3460 C   0  0  2  0  0  3  0  0  0  0  0  0
  161.6230  207.8270  151.2690 C   0  0  0  0  0  0  0  0  0  0  0  0
  160.6670  203.6290  151.3230 C   0  0  2  0  0  3  0  0  0  0  0  0
  161.4830  207.0480  152.5470 C   0  0  2  0  0  3  0  0  0  0  0  0
  162.0580  209.1890  148.9160 C   0  0  0  0  0  3  0  0  0  0  0  0
  159.6340  207.3780  155.7810 C   0  0  0  0  0  2  0  0  0  0  0  0
  161.8490  207.8480  148.8910 N   0  0  0  0  0  0  0  0  0  0  0  0
  160.8670  207.0900  154.9440 C   0  0  0  0  0  2  0  0  0  0  0  0
  160.9140  210.2500  154.7870 C   0  0  1  0  0  3  0  0  0  0  0  0
  162.0630  209.8560  150.0980 N   0  0  0  0  0  0  0  0  0  0  0  0
  161.9090  209.9900  152.5600 C   0  0  1  0  0  3  0  0  0  0  0  0
  158.9050  210.9380  155.9330 O   0  0  0  0  0  0  0  0  0  0  0  0
  157.6210  210.9450  155.3820 C   0  0  0  0  0  2  0  0  0  0  0  0
  158.4380  214.4250  154.7590 C   0  0  0  0  0  2  0  0  0  0  0  0
  157.4740  212.5770  153.5760 N   0  0  0  0  0  2  0  0  0  0  0  0
  157.2350  212.3610  154.9950 C   0  0  2  0  0  3  0  0  0  0  0  0
  157.8110  213.9860  153.4540 C   0  0  0  0  0  2  0  0  0  0  0  0
  158.0840  213.3510  155.7580 C   0  0  0  0  0  2  0  0  0  0  0  0
  1 27  1  0  0  0  0
  2 27  1  0  0  0  0
  2 14  1  0  0  0  0
  3  7  2  0  0  0  0
  3 19  1  0  0  0  0
  4 18  2  0  0  0  0
  5 11  1  1  0  0  0
  8 16  1  0  0  0  0
  8 12  1  0  0  0  0
  9 25  1  0  0  0  0
 11 20  1  0  0  0  0
 12 15  1  0  0  0  0
 13  9  1  0  0  0  0
 13 24  1  0  0  0  0
 14 25  1  0  0  0  0
 15  4  1  0  0  0  0
 15  5  1  0  0  0  0
 16  3  1  0  0  0  0
 17 28  1  0  0  0  0
 17 10  1  0  0  0  0
 18  1  1  0  0  0  0
 18 20  1  0  0  0  0
 19  5  1  0  0  0  0
 19  6  1  0  0  0  0
 20 13  1  0  0  0  0
 21 26  1  0  0  0  0
 22 10  1  0  0  0  0
 23 21  2  0  0  0  0
 23  4  1  0  0  0  0
 24 22  1  0  0  0  0
 25 17  1  0  0  0  0
 26  1  2  0  0  0  0
 27  9  1  0  0  0  0
 29 28  1  0  0  0  0
 30 34  1  0  0  0  0
 31 32  1  0  0  0  0
 32 29  1  0  0  0  0
 32 34  1  0  0  0  0
 33 31  1  0  0  0  0
 33 30  1  0  0  0  0
M  END
>  <MODEL>
2

>  <REMARK>
 VINA RESULT:      -8.9      2.261      8.848
  Name = 
  3 active torsions:
  status: ('A' for Active; 'I' for Inactive)
    1  A    between atoms: C_17  and  O_28
    2  A    between atoms: O_28  and  C_29
    3  A    between atoms: C_29  and  C_32
                            x       y       z     vdW  Elec       q    Type
                         _______ _______ _______ _____ _____    ______ ____

>  <TORSDO>
F 3

$$$$
=
 OpenBabel11122414373D

 34 40  0  0  1  0  0  0  0  0999 V2000
  161.0950  207.3570  153.7320 C   0  0  0  0  0  0  0  0  0  0  0  0
  160.8260  204.9280  153.2240 C   0  0  0  0  0  2  0  0  0  0  0  0
  160.1080  213.4630  151.4310 C   0  0  0  0  0  0  0  0  0  0  0  0
  160.4110  209.6680  153.7150 C   0  0  0  0  0  0  0  0  0  0  0  0
  160.8430  211.0210  151.6000 C   0  0  2  0  0  3  0  0  0  0  0  0
  160.9780  212.2620  149.5510 O   0  0  0  0  0  1  0  0  0  0  0  0
  160.7740  214.4530  151.0280 O   0  0  0  0  0  0  0  0  0  0  0  0
  158.9360  212.6990  153.5020 C   0  0  0  0  0  2  0  0  0  0  0  0
  162.0530  206.2530  151.5920 C   0  0  2  0  0  3  0  0  0  0  0  0
  161.5380  205.2980  148.5670 C   0  0  0  0  0  2  0  0  0  0  0  0
  160.6270  209.7370  150.9330 N   0  0  0  0  0  2  0  0  0  0  0  0
  158.9040  211.3890  153.0140 O   0  0  0  0  0  0  0  0  0  0  0  0
  161.3230  207.3940  150.8480 C   0  0  1  0  0  3  0  0  0  0  0  0
  161.3340  203.9730  152.1740 C   0  0  0  0  0  2  0  0  0  0  0  0
  160.2470  210.9950  153.0240 C   0  0  1  0  0  3  0  0  0  0  0  0
  159.1760  213.6470  152.4600 O   0  0  0  0  0  0  0  0  0  0  0  0
  160.8740  204.7310  149.8130 C   0  0  2  0  0  3  0  0  0  0  0  0
  160.9350  208.5590  153.0320 C   0  0  0  0  0  0  0  0  0  0  0  0
  160.2430  212.1330  150.7320 C   0  0  2  0  0  3  0  0  0  0  0  0
  161.4170  208.7130  151.6160 C   0  0  2  0  0  3  0  0  0  0  0  0
  160.2070  208.3700  155.6810 C   0  0  0  0  0  3  0  0  0  0  0  0
  161.2340  206.7780  148.4210 C   0  0  0  0  0  2  0  0  0  0  0  0
  160.0520  209.5460  155.0200 N   0  0  0  0  0  0  0  0  0  0  0  0
  161.9590  207.5930  149.4770 C   0  0  0  0  0  2  0  0  0  0  0  0
  161.8290  204.8320  151.0160 C   0  0  1  0  0  3  0  0  0  0  0  0
  160.7290  207.2930  155.0410 N   0  0  0  0  0  0  0  0  0  0  0  0
  161.7080  206.1450  153.0850 C   0  0  1  0  0  3  0  0  0  0  0  0
  160.5420  203.3960  149.5660 O   0  0  0  0  0  0  0  0  0  0  0  0
  161.1280  203.1050  148.3320 C   0  0  0  0  0  2  0  0  0  0  0  0
  160.9500  200.5040  145.8080 C   0  0  0  0  0  2  0  0  0  0  0  0
  161.5570  200.7140  148.1180 N   0  0  0  0  0  2  0  0  0  0  0  0
  160.6090  201.7750  147.8160 C   0  0  2  0  0  3  0  0  0  0  0  0
  161.4120  199.7520  147.0370 C   0  0  0  0  0  2  0  0  0  0  0  0
  160.4500  201.8350  146.3140 C   0  0  0  0  0  2  0  0  0  0  0  0
  1 26  1  0  0  0  0
  3 16  1  0  0  0  0
  4 23  2  0  0  0  0
  5 11  1  6  0  0  0
  5 15  1  0  0  0  0
  6 19  1  0  0  0  0
  7  3  2  0  0  0  0
  9 27  1  0  0  0  0
 10 17  1  0  0  0  0
 11 20  1  0  0  0  0
 12 15  1  0  0  0  0
 12  8  1  0  0  0  0
 13  9  1  0  0  0  0
 13 20  1  0  0  0  0
 14  2  1  0  0  0  0
 15  4  1  0  0  0  0
 16  8  1  0  0  0  0
 17 25  1  0  0  0  0
 18  4  1  0  0  0  0
 18  1  2  0  0  0  0
 19  3  1  0  0  0  0
 19  5  1  0  0  0  0
 20 18  1  0  0  0  0
 22 10  1  0  0  0  0
 22 24  1  0  0  0  0
 23 21  1  0  0  0  0
 24 13  1  0  0  0  0
 25  9  1  0  0  0  0
 25 14  1  0  0  0  0
 26 21  2  0  0  0  0
 27  2  1  0  0  0  0
 27  1  1  0  0  0  0
 28 17  1  0  0  0  0
 29 28  1  0  0  0  0
 30 34  1  0  0  0  0
 30 33  1  0  0  0  0
 32 31  1  0  0  0  0
 32 29  1  0  0  0  0
 33 31  1  0  0  0  0
 34 32  1  0  0  0  0
M  END
>  <MODEL>
3

>  <REMARK>
 VINA RESULT:      -7.8      1.468      1.927
  Name = 
  3 active torsions:
  status: ('A' for Active; 'I' for Inactive)
    1  A    between atoms: C_17  and  O_28
    2  A    between atoms: O_28  and  C_29
    3  A    between atoms: C_29  and  C_32
                            x       y       z     vdW  Elec       q    Type
                         _______ _______ _______ _____ _____    ______ ____

>  <TORSDO>
F 3

$$$$
=
 OpenBabel11122414373D

 34 40  0  0  1  0  0  0  0  0999 V2000
  162.1160  208.5390  150.3300 C   0  0  0  0  0  0  0  0  0  0  0  0
  161.3170  210.6690  151.3550 C   0  0  0  0  0  2  0  0  0  0  0  0
  161.1410  202.0180  150.0580 C   0  0  0  0  0  0  0  0  0  0  0  0
  161.8230  206.3500  149.3650 C   0  0  0  0  0  0  0  0  0  0  0  0
  161.5250  204.3800  150.9530 C   0  0  2  0  0  3  0  0  0  0  0  0
  160.9700  202.5380  152.3890 O   0  0  0  0  0  1  0  0  0  0  0  0
  161.7130  200.9500  150.4020 O   0  0  0  0  0  0  0  0  0  0  0  0
  160.8410  203.4160  148.0080 C   0  0  0  0  0  2  0  0  0  0  0  0
  161.9290  208.8830  152.8910 C   0  0  2  0  0  3  0  0  0  0  0  0
  160.0740  208.8000  155.5140 C   0  0  0  0  0  2  0  0  0  0  0  0
  160.8710  205.3770  151.8020 N   0  0  0  0  0  2  0  0  0  0  0  0
  160.4220  204.4950  148.7930 O   0  0  0  0  0  0  0  0  0  0  0  0
  161.1270  207.5630  152.8680 C   0  0  1  0  0  3  0  0  0  0  0  0
  161.2010  211.2290  152.7510 C   0  0  0  0  0  2  0  0  0  0  0  0
  161.5770  204.8700  149.4900 C   0  0  1  0  0  3  0  0  0  0  0  0
  160.7580  202.1800  148.7200 O   0  0  0  0  0  0  0  0  0  0  0  0
  159.9140  209.7430  154.3300 C   0  0  2  0  0  3  0  0  0  0  0  0
  161.8520  207.1750  150.5010 C   0  0  0  0  0  0  0  0  0  0  0  0
  160.7820  203.0470  151.1000 C   0  0  2  0  0  3  0  0  0  0  0  0
  161.7180  206.5670  151.8690 C   0  0  2  0  0  3  0  0  0  0  0  0
  162.2720  208.2170  147.9870 C   0  0  0  0  0  3  0  0  0  0  0  0
  159.9500  207.3540  155.0690 C   0  0  0  0  0  2  0  0  0  0  0  0
  162.0260  206.8910  148.1350 N   0  0  0  0  0  0  0  0  0  0  0  0
  161.1560  206.9270  154.2520 C   0  0  0  0  0  2  0  0  0  0  0  0
  161.2870  210.0390  153.6990 C   0  0  1  0  0  3  0  0  0  0  0  0
  162.3220  209.0260  149.0760 N   0  0  0  0  0  0  0  0  0  0  0  0
  162.2250  209.4730  151.5040 C   0  0  1  0  0  3  0  0  0  0  0  0
  159.3230  210.9250  154.7860 O   0  0  0  0  0  0  0  0  0  0  0  0
  158.4120  210.5160  155.7620 C   0  0  0  0  0  2  0  0  0  0  0  0
  156.7010  213.5700  154.8090 C   0  0  0  0  0  2  0  0  0  0  0  0
  156.1390  211.3070  155.3660 N   0  0  0  0  0  2  0  0  0  0  0  0
  157.4010  211.6180  156.0190 C   0  0  2  0  0  3  0  0  0  0  0  0
  155.5620  212.5930  155.0130 C   0  0  0  0  0  2  0  0  0  0  0  0
  157.9060  212.9200  155.4430 C   0  0  0  0  0  2  0  0  0  0  0  0
  1 18  1  0  0  0  0
  1 27  1  0  0  0  0
  2 27  1  0  0  0  0
  2 14  1  0  0  0  0
  3  7  2  0  0  0  0
  3 19  1  0  0  0  0
  4 15  1  0  0  0  0
  4 18  2  0  0  0  0
  5 19  1  0  0  0  0
  5 11  1  1  0  0  0
  8 16  1  0  0  0  0
  8 12  1  0  0  0  0
  9 25  1  0  0  0  0
 11 20  1  0  0  0  0
 12 15  1  0  0  0  0
 13  9  1  0  0  0  0
 13 24  1  0  0  0  0
 14 25  1  0  0  0  0
 15  5  1  0  0  0  0
 16  3  1  0  0  0  0
 17 28  1  0  0  0  0
 17 10  1  0  0  0  0
 18 20  1  0  0  0  0
 19  6  1  0  0  0  0
 20 13  1  0  0  0  0
 21 23  2  0  0  0  0
 21 26  1  0  0  0  0
 22 10  1  0  0  0  0
 23  4  1  0  0  0  0
 24 22  1  0  0  0  0
 25 17  1  0  0  0  0
 26  1  2  0  0  0  0
 27  9  1  0  0  0  0
 28 29  1  0  0  0  0
 29 32  1  0  0  0  0
 30 33  1  0  0  0  0
 30 34  1  0  0  0  0
 31 32  1  0  0  0  0
 33 31  1  0  0  0  0
 34 32  1  0  0  0  0
M  END
>  <MODEL>
4

>  <REMARK>
 VINA RESULT:      -7.4      2.163      9.058
  Name = 
  3 active torsions:
  status: ('A' for Active; 'I' for Inactive)
    1  A    between atoms: C_17  and  O_28
    2  A    between atoms: O_28  and  C_29
    3  A    between atoms: C_29  and  C_32
                            x       y       z     vdW  Elec       q    Type
                         _______ _______ _______ _____ _____    ______ ____

>  <TORSDO>
F 3

$$$$
=
 OpenBabel11122414373D

 34 40  0  0  1  0  0  0  0  0999 V2000
  161.4190  208.1420  149.6300 C   0  0  0  0  0  0  0  0  0  0  0  0
  162.0300  206.4470  147.9030 C   0  0  0  0  0  2  0  0  0  0  0  0
  161.1370  209.3340  156.1150 C   0  0  0  0  0  0  0  0  0  0  0  0
  161.7080  209.3220  151.7120 C   0  0  0  0  0  0  0  0  0  0  0  0
  160.8360  208.2180  153.8360 C   0  0  2  0  0  3  0  0  0  0  0  0
  160.2820  207.1090  155.8920 O   0  0  0  0  0  1  0  0  0  0  0  0
  160.2780  209.5070  157.0200 O   0  0  0  0  0  0  0  0  0  0  0  0
  162.6320  210.7030  154.6530 C   0  0  0  0  0  2  0  0  0  0  0  0
  160.4350  205.7450  149.6030 C   0  0  2  0  0  3  0  0  0  0  0  0
  160.7750  202.6610  150.4370 C   0  0  0  0  0  2  0  0  0  0  0  0
  161.1890  206.9800  153.1400 N   0  0  0  0  0  2  0  0  0  0  0  0
  162.8280  209.6060  153.8080 O   0  0  0  0  0  0  0  0  0  0  0  0
  160.8830  205.6960  151.0810 C   0  0  1  0  0  3  0  0  0  0  0  0
  161.5770  205.0560  147.5350 C   0  0  0  0  0  2  0  0  0  0  0  0
  161.5770  209.4180  153.2090 C   0  0  1  0  0  3  0  0  0  0  0  0
  162.1300  210.3050  155.9310 O   0  0  0  0  0  0  0  0  0  0  0  0
  161.6520  203.4290  149.4600 C   0  0  2  0  0  3  0  0  0  0  0  0
  161.3040  208.1660  151.0260 C   0  0  0  0  0  0  0  0  0  0  0  0
  161.1500  208.0480  155.3280 C   0  0  2  0  0  3  0  0  0  0  0  0
  160.6550  207.0380  151.7790 C   0  0  2  0  0  3  0  0  0  0  0  0
  162.3310  210.3290  149.6660 C   0  0  0  0  0  3  0  0  0  0  0  0
  160.8140  203.3010  151.8130 C   0  0  0  0  0  2  0  0  0  0  0  0
  162.2180  210.3730  151.0180 N   0  0  0  0  0  0  0  0  0  0  0  0
  160.0810  204.6310  151.8190 C   0  0  0  0  0  2  0  0  0  0  0  0
  160.8270  204.5150  148.7460 C   0  0  1  0  0  3  0  0  0  0  0  0
  161.9290  209.2270  148.9850 N   0  0  0  0  0  0  0  0  0  0  0  0
  160.9490  206.9640  148.8220 C   0  0  1  0  0  3  0  0  0  0  0  0
  162.1720  202.5230  148.5300 O   0  0  0  0  0  0  0  0  0  0  0  0
  161.0680  201.7850  148.0950 C   0  0  0  0  0  2  0  0  0  0  0  0
  160.8210  199.2730  145.4880 C   0  0  0  0  0  2  0  0  0  0  0  0
  160.1020  201.5280  145.8710 N   0  0  0  0  0  2  0  0  0  0  0  0
  161.2950  201.3070  146.6730 C   0  0  2  0  0  3  0  0  0  0  0  0
  160.0990  200.4590  144.8860 C   0  0  0  0  0  2  0  0  0  0  0  0
  161.5810  199.8230  146.6700 C   0  0  0  0  0  2  0  0  0  0  0  0
  1 18  1  0  0  0  0
  2 27  1  0  0  0  0
  3  7  2  0  0  0  0
  4 15  1  0  0  0  0
  5 11  1  6  0  0  0
  5 19  1  0  0  0  0
  8 16  1  0  0  0  0
  9 13  1  0  0  0  0
 10 22  1  0  0  0  0
 12  8  1  0  0  0  0
 13 20  1  0  0  0  0
 13 24  1  0  0  0  0
 14  2  1  0  0  0  0
 14 25  1  0  0  0  0
 15 12  1  0  0  0  0
 15  5  1  0  0  0  0
 16  3  1  0  0  0  0
 17 10  1  0  0  0  0
 18  4  2  0  0  0  0
 18 20  1  0  0  0  0
 19  6  1  0  0  0  0
 19  3  1  0  0  0  0
 20 11  1  0  0  0  0
 21 23  2  0  0  0  0
 22 24  1  0  0  0  0
 23  4  1  0  0  0  0
 25 17  1  0  0  0  0
 25  9  1  0  0  0  0
 26  1  2  0  0  0  0
 26 21  1  0  0  0  0
 27  9  1  0  0  0  0
 27  1  1  0  0  0  0
 28 17  1  0  0  0  0
 29 28  1  0  0  0  0
 30 34  1  0  0  0  0
 31 32  1  0  0  0  0
 32 29  1  0  0  0  0
 33 30  1  0  0  0  0
 33 31  1  0  0  0  0
 34 32  1  0  0  0  0
M  END
>  <MODEL>
5

>  <REMARK>
 VINA RESULT:      -7.3      2.501      4.411
  Name = 
  3 active torsions:
  status: ('A' for Active; 'I' for Inactive)
    1  A    between atoms: C_17  and  O_28
    2  A    between atoms: O_28  and  C_29
    3  A    between atoms: C_29  and  C_32
                            x       y       z     vdW  Elec       q    Type
                         _______ _______ _______ _____ _____    ______ ____

>  <TORSDO>
F 3

$$$$
=
 OpenBabel11122414373D

 34 40  0  0  1  0  0  0  0  0999 V2000
  161.8790  206.5520  147.9710 C   0  0  0  0  0  0  0  0  0  0  0  0
  161.3470  208.3370  149.6320 C   0  0  0  0  0  2  0  0  0  0  0  0
  160.9230  200.2090  146.4190 C   0  0  0  0  0  0  0  0  0  0  0  0
  161.3700  204.6220  146.6200 C   0  0  0  0  0  0  0  0  0  0  0  0
  161.5000  202.3300  147.7240 C   0  0  2  0  0  3  0  0  0  0  0  0
  161.3420  200.1780  148.7760 O   0  0  0  0  0  1  0  0  0  0  0  0
  161.5720  199.1320  146.3520 O   0  0  0  0  0  0  0  0  0  0  0  0
  160.1020  202.0110  144.8930 C   0  0  0  0  0  2  0  0  0  0  0  0
  162.3430  206.2960  150.5070 C   0  0  2  0  0  3  0  0  0  0  0  0
  161.2120  205.4990  153.4070 C   0  0  0  0  0  2  0  0  0  0  0  0
  161.0730  203.0630  148.9160 N   0  0  0  0  0  2  0  0  0  0  0  0
  159.8860  202.8540  145.9870 O   0  0  0  0  0  0  0  0  0  0  0  0
  161.5720  204.9640  150.3710 C   0  0  1  0  0  3  0  0  0  0  0  0
  161.5830  208.5590  151.1050 C   0  0  0  0  0  2  0  0  0  0  0  0
  161.1760  203.1390  146.4490 C   0  0  1  0  0  3  0  0  0  0  0  0
  160.2120  200.6430  145.2920 O   0  0  0  0  0  0  0  0  0  0  0  0
  160.7510  206.6720  152.5550 C   0  0  2  0  0  3  0  0  0  0  0  0
  161.6780  205.1700  147.8750 C   0  0  0  0  0  0  0  0  0  0  0  0
  160.8310  200.9500  147.7290 C   0  0  2  0  0  3  0  0  0  0  0  0
  161.9000  204.2610  149.0530 C   0  0  2  0  0  3  0  0  0  0  0  0
  161.4400  206.7780  145.6530 C   0  0  0  0  0  3  0  0  0  0  0  0
  160.9930  204.1850  152.6800 C   0  0  0  0  0  2  0  0  0  0  0  0
  161.2510  205.4390  145.5410 N   0  0  0  0  0  0  0  0  0  0  0  0
  161.9570  204.0360  151.5160 C   0  0  0  0  0  2  0  0  0  0  0  0
  161.9160  207.1940  151.6960 C   0  0  1  0  0  3  0  0  0  0  0  0
  161.7560  207.3220  146.8560 N   0  0  0  0  0  0  0  0  0  0  0  0
  162.2730  207.2020  149.2690 C   0  0  1  0  0  3  0  0  0  0  0  0
  160.2840  207.6780  153.4060 O   0  0  0  0  0  0  0  0  0  0  0  0
  160.8260  207.3680  154.6560 C   0  0  0  0  0  2  0  0  0  0  0  0
  162.5020  209.9480  156.5790 C   0  0  0  0  0  2  0  0  0  0  0  0
  160.9680  209.8010  154.7420 N   0  0  0  0  0  2  0  0  0  0  0  0
  160.8070  208.5980  155.5450 C   0  0  2  0  0  3  0  0  0  0  0  0
  161.6650  210.7440  155.6010 C   0  0  0  0  0  2  0  0  0  0  0  0
  161.9580  208.5410  156.5220 C   0  0  0  0  0  2  0  0  0  0  0  0
  1 27  1  0  0  0  0
  2 14  1  0  0  0  0
  3 19  1  0  0  0  0
  4 18  2  0  0  0  0
  5 19  1  0  0  0  0
  5 11  1  1  0  0  0
  7  3  2  0  0  0  0
  8 16  1  0  0  0  0
  8 12  1  0  0  0  0
  9 25  1  0  0  0  0
 11 20  1  0  0  0  0
 12 15  1  0  0  0  0
 13  9  1  0  0  0  0
 13 24  1  0  0  0  0
 14 25  1  0  0  0  0
 15  4  1  0  0  0  0
 15  5  1  0  0  0  0
 16  3  1  0  0  0  0
 17 28  1  0  0  0  0
 17 10  1  0  0  0  0
 18  1  1  0  0  0  0
 18 20  1  0  0  0  0
 19  6  1  0  0  0  0
 20 13  1  0  0  0  0
 21 26  1  0  0  0  0
 22 10  1  0  0  0  0
 23 21  2  0  0  0  0
 23  4  1  0  0  0  0
 24 22  1  0  0  0  0
 25 17  1  0  0  0  0
 26  1  2  0  0  0  0
 27  2  1  0  0  0  0
 27  9  1  0  0  0  0
 28 29  1  0  0  0  0
 29 32  1  0  0  0  0
 31 32  1  0  0  0  0
 31 33  1  0  0  0  0
 32 34  1  0  0  0  0
 33 30  1  0  0  0  0
 34 30  1  0  0  0  0
M  END
>  <MODEL>
6

>  <REMARK>
 VINA RESULT:      -6.9      2.693      9.765
  Name = 
  3 active torsions:
  status: ('A' for Active; 'I' for Inactive)
    1  A    between atoms: C_17  and  O_28
    2  A    between atoms: O_28  and  C_29
    3  A    between atoms: C_29  and  C_32
                            x       y       z     vdW  Elec       q    Type
                         _______ _______ _______ _____ _____    ______ ____

>  <TORSDO>
F 3

$$$$
=
 OpenBabel11122414373D

 34 40  0  0  1  0  0  0  0  0999 V2000
  160.8390  203.5610  151.2510 C   0  0  0  0  0  0  0  0  0  0  0  0
  161.7730  205.4550  152.5800 C   0  0  0  0  0  2  0  0  0  0  0  0
  160.5440  200.8580  145.2370 C   0  0  0  0  0  0  0  0  0  0  0  0
  160.9170  201.8580  149.5470 C   0  0  0  0  0  0  0  0  0  0  0  0
  160.4310  202.5550  147.1450 C   0  0  2  0  0  3  0  0  0  0  0  0
  160.2510  203.2010  144.8400 O   0  0  0  0  0  1  0  0  0  0  0  0
  159.7070  200.6610  144.3170 O   0  0  0  0  0  0  0  0  0  0  0  0
  161.5960  199.6030  147.1260 C   0  0  0  0  0  2  0  0  0  0  0  0
  160.4710  206.0450  150.6100 C   0  0  2  0  0  3  0  0  0  0  0  0
  161.5910  208.6570  149.1090 C   0  0  0  0  0  2  0  0  0  0  0  0
  161.0460  203.8150  147.5610 N   0  0  0  0  0  2  0  0  0  0  0  0
  162.0190  200.8040  147.7020 O   0  0  0  0  0  0  0  0  0  0  0  0
  160.9790  205.6150  149.2160 C   0  0  1  0  0  3  0  0  0  0  0  0
  161.6600  206.9590  152.5610 C   0  0  0  0  0  2  0  0  0  0  0  0
  160.8280  201.4170  148.1100 C   0  0  1  0  0  3  0  0  0  0  0  0
  161.2610  199.7670  145.7460 O   0  0  0  0  0  0  0  0  0  0  0  0
  162.2120  207.9840  150.3240 C   0  0  2  0  0  3  0  0  0  0  0  0
  160.7800  203.2110  149.8960 C   0  0  0  0  0  0  0  0  0  0  0  0
  160.8380  202.2640  145.6950 C   0  0  2  0  0  3  0  0  0  0  0  0
  160.4590  204.2270  148.8350 C   0  0  2  0  0  3  0  0  0  0  0  0
  161.1880  201.2890  151.8250 C   0  0  0  0  0  3  0  0  0  0  0  0
  161.5290  207.6960  147.9350 C   0  0  0  0  0  2  0  0  0  0  0  0
  161.1250  200.9300  150.5180 N   0  0  0  0  0  0  0  0  0  0  0  0
  160.4940  206.6110  148.1700 C   0  0  0  0  0  2  0  0  0  0  0  0
  161.1160  207.3310  151.1870 C   0  0  1  0  0  3  0  0  0  0  0  0
  161.0400  202.5900  152.1820 N   0  0  0  0  0  0  0  0  0  0  0  0
  160.6390  204.9810  151.7050 C   0  0  1  0  0  3  0  0  0  0  0  0
  162.8980  208.9540  151.0620 O   0  0  0  0  0  0  0  0  0  0  0  0
  162.1930  210.1390  150.8370 C   0  0  0  0  0  2  0  0  0  0  0  0
  160.1670  210.1810  153.8460 C   0  0  0  0  0  2  0  0  0  0  0  0
  162.4900  210.1100  153.2570 N   0  0  0  0  0  2  0  0  0  0  0  0
  161.7800  210.7520  152.1610 C   0  0  2  0  0  3  0  0  0  0  0  0
  161.5800  210.1660  154.3890 C   0  0  0  0  0  2  0  0  0  0  0  0
  160.3010  210.5380  152.3860 C   0  0  0  0  0  2  0  0  0  0  0  0
  1 27  1  0  0  0  0
  1 26  1  0  0  0  0
  3 19  1  0  0  0  0
  3 16  1  0  0  0  0
  4 18  1  0  0  0  0
  4 23  2  0  0  0  0
  5 11  1  1  0  0  0
  5 15  1  0  0  0  0
  6 19  1  0  0  0  0
  7  3  2  0  0  0  0
  8 12  1  0  0  0  0
  9 25  1  0  0  0  0
  9 27  1  0  0  0  0
 10 17  1  0  0  0  0
 11 20  1  0  0  0  0
 12 15  1  0  0  0  0
 13  9  1  0  0  0  0
 14  2  1  0  0  0  0
 15  4  1  0  0  0  0
 16  8  1  0  0  0  0
 17 28  1  0  0  0  0
 17 25  1  0  0  0  0
 18  1  2  0  0  0  0
 19  5  1  0  0  0  0
 20 13  1  0  0  0  0
 20 18  1  0  0  0  0
 21 26  2  0  0  0  0
 22 24  1  0  0  0  0
 22 10  1  0  0  0  0
 23 21  1  0  0  0  0
 24 13  1  0  0  0  0
 25 14  1  0  0  0  0
 27  2  1  0  0  0  0
 29 28  1  0  0  0  0
 29 32  1  0  0  0  0
 30 33  1  0  0  0  0
 31 33  1  0  0  0  0
 32 34  1  0  0  0  0
 32 31  1  0  0  0  0
 34 30  1  0  0  0  0
M  END
>  <MODEL>
7

>  <REMARK>
 VINA RESULT:      -6.8      3.055      9.101
  Name = 
  3 active torsions:
  status: ('A' for Active; 'I' for Inactive)
    1  A    between atoms: C_17  and  O_28
    2  A    between atoms: O_28  and  C_29
    3  A    between atoms: C_29  and  C_32
                            x       y       z     vdW  Elec       q    Type
                         _______ _______ _______ _____ _____    ______ ____

>  <TORSDO>
F 3

$$$$
=
 OpenBabel11122414373D

 34 40  0  0  1  0  0  0  0  0999 V2000
  161.3740  206.9620  148.7760 C   0  0  0  0  0  0  0  0  0  0  0  0
  162.0830  205.0620  147.3210 C   0  0  0  0  0  2  0  0  0  0  0  0
  160.9820  209.0920  155.0100 C   0  0  0  0  0  0  0  0  0  0  0  0
  161.5870  208.4520  150.6580 C   0  0  0  0  0  0  0  0  0  0  0  0
  160.7560  207.6340  152.9230 C   0  0  2  0  0  3  0  0  0  0  0  0
  160.2430  206.8180  155.1210 O   0  0  0  0  0  1  0  0  0  0  0  0
  160.1080  209.3540  155.8780 O   0  0  0  0  0  0  0  0  0  0  0  0
  162.4170  210.3030  153.3590 C   0  0  0  0  0  2  0  0  0  0  0  0
  160.5130  204.5400  149.1070 C   0  0  2  0  0  3  0  0  0  0  0  0
  161.0030  201.6370  150.3920 C   0  0  0  0  0  2  0  0  0  0  0  0
  161.1760  206.3260  152.4190 N   0  0  0  0  0  2  0  0  0  0  0  0
  162.6740  209.1040  152.6880 O   0  0  0  0  0  0  0  0  0  0  0  0
  160.9520  204.7350  150.5750 C   0  0  1  0  0  3  0  0  0  0  0  0
  161.7050  203.6100  147.1650 C   0  0  0  0  0  2  0  0  0  0  0  0
  161.4390  208.7640  152.1230 C   0  0  1  0  0  3  0  0  0  0  0  0
  161.9260  210.0740  154.6820 O   0  0  0  0  0  0  0  0  0  0  0  0
  161.8480  202.2940  149.3110 C   0  0  2  0  0  3  0  0  0  0  0  0
  161.2470  207.1880  150.1520 C   0  0  0  0  0  0  0  0  0  0  0  0
  161.0660  207.7050  154.4230 C   0  0  2  0  0  3  0  0  0  0  0  0
  160.6510  206.1530  151.0650 C   0  0  2  0  0  3  0  0  0  0  0  0
  162.1730  209.1730  148.4850 C   0  0  0  0  0  3  0  0  0  0  0  0
  161.0000  202.4760  151.6570 C   0  0  0  0  0  2  0  0  0  0  0  0
  162.0480  209.4130  149.8140 N   0  0  0  0  0  0  0  0  0  0  0  0
  160.2000  203.7520  151.4640 C   0  0  0  0  0  2  0  0  0  0  0  0
  160.9740  203.2180  148.4440 C   0  0  1  0  0  3  0  0  0  0  0  0
  161.8330  207.9620  147.9750 N   0  0  0  0  0  0  0  0  0  0  0  0
  160.9710  205.6530  148.1530 C   0  0  1  0  0  3  0  0  0  0  0  0
  162.4200  201.2880  148.5270 O   0  0  0  0  0  0  0  0  0  0  0  0
  161.3350  200.5580  148.0350 C   0  0  0  0  0  2  0  0  0  0  0  0
  160.7280  198.7660  144.9390 C   0  0  0  0  0  2  0  0  0  0  0  0
  160.2510  200.9190  145.8810 N   0  0  0  0  0  2  0  0  0  0  0  0
  161.4510  200.4140  146.5290 C   0  0  2  0  0  3  0  0  0  0  0  0
  160.0990  200.1180  144.6770 C   0  0  0  0  0  2  0  0  0  0  0  0
  161.5900  198.9540  146.1630 C   0  0  0  0  0  2  0  0  0  0  0  0
  1 18  1  0  0  0  0
  2 27  1  0  0  0  0
  3  7  2  0  0  0  0
  4 15  1  0  0  0  0
  5 11  1  6  0  0  0
  5 19  1  0  0  0  0
  8 16  1  0  0  0  0
  9 13  1  0  0  0  0
 10 22  1  0  0  0  0
 12  8  1  0  0  0  0
 13 20  1  0  0  0  0
 13 24  1  0  0  0  0
 14  2  1  0  0  0  0
 14 25  1  0  0  0  0
 15 12  1  0  0  0  0
 15  5  1  0  0  0  0
 16  3  1  0  0  0  0
 17 10  1  0  0  0  0
 18  4  2  0  0  0  0
 18 20  1  0  0  0  0
 19  3  1  0  0  0  0
 19  6  1  0  0  0  0
 20 11  1  0  0  0  0
 21 23  2  0  0  0  0
 23  4  1  0  0  0  0
 24 22  1  0  0  0  0
 25  9  1  0  0  0  0
 25 17  1  0  0  0  0
 26 21  1  0  0  0  0
 26  1  2  0  0  0  0
 27  1  1  0  0  0  0
 27  9  1  0  0  0  0
 28 17  1  0  0  0  0
 29 28  1  0  0  0  0
 30 34  1  0  0  0  0
 31 32  1  0  0  0  0
 32 29  1  0  0  0  0
 33 30  1  0  0  0  0
 33 31  1  0  0  0  0
 34 32  1  0  0  0  0
M  END
>  <MODEL>
8

>  <REMARK>
 VINA RESULT:      -6.2      2.624      4.945
  Name = 
  3 active torsions:
  status: ('A' for Active; 'I' for Inactive)
    1  A    between atoms: C_17  and  O_28
    2  A    between atoms: O_28  and  C_29
    3  A    between atoms: C_29  and  C_32
                            x       y       z     vdW  Elec       q    Type
                         _______ _______ _______ _____ _____    ______ ____

>  <TORSDO>
F 3

$$$$
