=
 OpenBabel11122414063D

 28 31  0  0  1  0  0  0  0  0999 V2000
  161.5030  209.1760  155.1550 C   0  0  0  0  0  0  0  0  0  0  0  0
  162.7440  207.7670  151.6600 O   0  0  0  0  0  0  0  0  0  0  0  0
  160.2070  206.8150  155.9210 C   0  0  0  0  0  3  0  0  0  0  0  0
  162.1400  210.3550  154.7680 O   0  0  0  0  0  0  0  0  0  0  0  0
  160.4510  207.4680  150.8190 O   0  0  0  0  0  0  0  0  0  0  0  0
  161.5510  208.4620  151.0700 S   0  0  0  0  0  0  0  0  0  0  0  0
  162.1070  210.7910  149.7010 C   0  0  0  0  0  0  0  0  0  0  0  0
  161.0010  209.7530  152.1540 C   0  0  1  0  0  3  0  0  0  0  0  0
  160.7000  211.5950  157.2600 C   0  0  0  0  0  1  0  0  0  0  0  0
  159.1840  210.7230  153.4030 C   0  0  2  0  0  3  0  0  0  0  0  0
  161.3320  211.4570  150.4990 N   0  0  0  0  0  0  0  0  0  0  0  0
  161.9990  209.2830  149.5350 C   0  0  0  0  0  2  0  0  0  0  0  0
  161.3330  212.1830  156.0860 N   0  0  0  0  0  0  0  0  0  0  0  0
  160.4510  208.6670  154.3710 C   0  0  0  0  0  0  0  0  0  0  0  0
  163.1410  211.5210  148.9180 C   0  0  0  0  0  1  0  0  0  0  0  0
  160.3940  212.4040  154.9680 C   0  0  0  0  0  2  0  0  0  0  0  0
  159.8060  207.4890  154.7640 C   0  0  0  0  0  3  0  0  0  0  0  0
  161.8930  208.5030  156.3220 C   0  0  0  0  0  3  0  0  0  0  0  0
  161.2480  207.3240  156.7010 C   0  0  0  0  0  3  0  0  0  0  0  0
  162.4940  211.3760  155.6920 C   0  0  0  0  0  2  0  0  0  0  0  0
  159.6050  211.6810  152.2790 C   0  0  1  0  0  3  0  0  0  0  0  0
  159.2980  211.3270  154.8210 C   0  0  1  0  0  3  0  0  0  0  0  0
  160.3350  210.7850  151.2970 C   0  0  2  0  0  3  0  0  0  0  0  0
  159.9310  209.3910  153.1560 C   0  0  2  0  0  3  0  0  0  0  0  0
  157.2300  210.7590  155.3740 C   0  0  0  0  0  1  0  0  0  0  0  0
  158.0670  211.8630  155.2010 O   0  0  0  0  0  0  0  0  0  0  0  0
  158.3720  212.2940  151.6380 C   0  0  0  0  0  2  0  0  0  0  0  0
  158.2450  213.7550  152.0270 C   0  0  0  0  0  1  0  0  0  0  0  0
  1 18  1  0  0  0  0
  3 19  1  0  0  0  0
  4  1  1  0  0  0  0
  4 20  1  0  0  0  0
  5  6  2  0  0  0  0
  6  2  2  0  0  0  0
  7 11  2  0  0  0  0
  8  6  1  6  0  0  0
  8 24  1  0  0  0  0
 10 22  1  0  0  0  0
 11 23  1  0  0  0  0
 12  7  1  0  0  0  0
 12  6  1  0  0  0  0
 13  9  1  0  0  0  0
 14 17  1  0  0  0  0
 14  1  2  0  0  0  0
 15  7  1  0  0  0  0
 16 13  1  0  0  0  0
 17  3  2  0  0  0  0
 18 19  2  0  0  0  0
 20 13  1  0  0  0  0
 21 10  1  0  0  0  0
 22 16  1  0  0  0  0
 22 26  1  0  0  0  0
 23  8  1  0  0  0  0
 23 21  1  0  0  0  0
 24 10  1  0  0  0  0
 24 14  1  0  0  0  0
 26 25  1  0  0  0  0
 27 28  1  0  0  0  0
 27 21  1  0  0  0  0
M  END
>  <MODEL>
1

>  <REMARK>
 VINA RESULT:      -1.0      0.000      0.000
  Name = 
  2 active torsions:
  status: ('A' for Active; 'I' for Inactive)
    1  A    between atoms: C_5  and  C_24
    2  A    between atoms: O_17  and  C_25
                            x       y       z     vdW  Elec       q    Type
                         _______ _______ _______ _____ _____    ______ ____

>  <TORSDO>
F 2

$$$$
=
 OpenBabel11122414063D

 28 31  0  0  1  0  0  0  0  0999 V2000
  160.4340  211.2040  155.4880 C   0  0  0  0  0  0  0  0  0  0  0  0
  162.6510  210.3290  152.3160 O   0  0  0  0  0  0  0  0  0  0  0  0
  160.0670  208.5400  156.2690 C   0  0  0  0  0  3  0  0  0  0  0  0
  160.6080  212.5290  155.0920 O   0  0  0  0  0  0  0  0  0  0  0  0
  160.8190  209.1180  151.2070 O   0  0  0  0  0  0  0  0  0  0  0  0
  161.3880  210.4740  151.5180 S   0  0  0  0  0  0  0  0  0  0  0  0
  161.1890  212.7990  150.0470 C   0  0  0  0  0  0  0  0  0  0  0  0
  160.2150  211.4620  152.4100 C   0  0  1  0  0  3  0  0  0  0  0  0
  158.4320  213.1460  157.2610 C   0  0  0  0  0  1  0  0  0  0  0  0
  157.9940  211.6520  153.3230 C   0  0  2  0  0  3  0  0  0  0  0  0
  160.1020  213.1180  150.6780 N   0  0  0  0  0  0  0  0  0  0  0  0
  161.7090  211.3700  149.9940 C   0  0  0  0  0  2  0  0  0  0  0  0
  158.9560  213.9110  156.1360 N   0  0  0  0  0  0  0  0  0  0  0  0
  159.8010  210.2980  154.6170 C   0  0  0  0  0  0  0  0  0  0  0  0
  161.9610  213.8640  149.3500 C   0  0  0  0  0  1  0  0  0  0  0  0
  158.1910  213.7120  154.8900 C   0  0  0  0  0  2  0  0  0  0  0  0
  159.6180  208.9700  155.0170 C   0  0  0  0  0  3  0  0  0  0  0  0
  160.8720  210.7700  156.7480 C   0  0  0  0  0  3  0  0  0  0  0  0
  160.6910  209.4410  157.1350 C   0  0  0  0  0  3  0  0  0  0  0  0
  160.3860  213.6280  155.9680 C   0  0  0  0  0  2  0  0  0  0  0  0
  158.1740  212.6720  152.1890 C   0  0  1  0  0  3  0  0  0  0  0  0
  157.6420  212.2840  154.6890 C   0  0  1  0  0  3  0  0  0  0  0  0
  159.3390  212.1210  151.3900 C   0  0  2  0  0  3  0  0  0  0  0  0
  159.2330  210.7260  153.2880 C   0  0  2  0  0  3  0  0  0  0  0  0
  155.9090  210.9520  155.0470 C   0  0  0  0  0  1  0  0  0  0  0  0
  156.2560  212.2910  154.8570 O   0  0  0  0  0  0  0  0  0  0  0  0
  156.9140  212.7260  151.3420 C   0  0  0  0  0  2  0  0  0  0  0  0
  156.3650  214.1390  151.2990 C   0  0  0  0  0  1  0  0  0  0  0  0
  1 18  1  0  0  0  0
  3 19  1  0  0  0  0
  4  1  1  0  0  0  0
  4 20  1  0  0  0  0
  5  6  2  0  0  0  0
  6  2  2  0  0  0  0
  7 11  2  0  0  0  0
  8  6  1  6  0  0  0
  8 24  1  0  0  0  0
 10 22  1  0  0  0  0
 11 23  1  0  0  0  0
 12  7  1  0  0  0  0
 12  6  1  0  0  0  0
 13  9  1  0  0  0  0
 14 17  1  0  0  0  0
 14  1  2  0  0  0  0
 15  7  1  0  0  0  0
 16 13  1  0  0  0  0
 17  3  2  0  0  0  0
 18 19  2  0  0  0  0
 20 13  1  0  0  0  0
 21 10  1  0  0  0  0
 22 26  1  0  0  0  0
 22 16  1  0  0  0  0
 23 21  1  0  0  0  0
 23  8  1  0  0  0  0
 24 10  1  0  0  0  0
 24 14  1  0  0  0  0
 26 25  1  0  0  0  0
 27 21  1  0  0  0  0
 28 27  1  0  0  0  0
M  END
>  <MODEL>
2

>  <REMARK>
 VINA RESULT:      -0.2      1.825      2.154
  Name = 
  2 active torsions:
  status: ('A' for Active; 'I' for Inactive)
    1  A    between atoms: C_5  and  C_24
    2  A    between atoms: O_17  and  C_25
                            x       y       z     vdW  Elec       q    Type
                         _______ _______ _______ _____ _____    ______ ____

>  <TORSDO>
F 2

$$$$
=
 OpenBabel11122414063D

 28 31  0  0  1  0  0  0  0  0999 V2000
  160.2400  212.0860  151.6390 C   0  0  0  0  0  0  0  0  0  0  0  0
  160.4380  213.4170  155.3720 O   0  0  0  0  0  0  0  0  0  0  0  0
  157.4870  212.5210  151.3730 C   0  0  0  0  0  3  0  0  0  0  0  0
  161.6090  211.8590  151.7770 O   0  0  0  0  0  0  0  0  0  0  0  0
  158.9710  211.6340  156.2230 O   0  0  0  0  0  0  0  0  0  0  0  0
  160.3680  211.9750  155.7840 S   0  0  0  0  0  0  0  0  0  0  0  0
  162.7530  210.8810  156.6350 C   0  0  0  0  0  0  0  0  0  0  0  0
  160.8800  210.9340  154.4430 C   0  0  1  0  0  3  0  0  0  0  0  0
  161.3220  210.3270  149.0580 C   0  0  0  0  0  1  0  0  0  0  0  0
  160.3570  209.0850  152.9900 C   0  0  2  0  0  3  0  0  0  0  0  0
  162.6860  209.9820  155.7030 N   0  0  0  0  0  0  0  0  0  0  0  0
  161.5290  211.6470  157.1150 C   0  0  0  0  0  2  0  0  0  0  0  0
  162.3520  210.3330  150.0900 N   0  0  0  0  0  0  0  0  0  0  0  0
  159.3390  211.4290  152.4980 C   0  0  0  0  0  0  0  0  0  0  0  0
  164.0700  211.1790  157.2610 C   0  0  0  0  0  1  0  0  0  0  0  0
  162.1470  209.2970  151.1210 C   0  0  0  0  0  2  0  0  0  0  0  0
  157.9650  211.6490  152.3550 C   0  0  0  0  0  3  0  0  0  0  0  0
  159.7540  212.9500  150.6480 C   0  0  0  0  0  3  0  0  0  0  0  0
  158.3810  213.1680  150.5180 C   0  0  0  0  0  3  0  0  0  0  0  0
  162.4740  211.6780  150.6620 C   0  0  0  0  0  2  0  0  0  0  0  0
  161.5440  208.7120  153.8910 C   0  0  1  0  0  3  0  0  0  0  0  0
  160.6710  209.0220  151.4780 C   0  0  1  0  0  3  0  0  0  0  0  0
  161.4330  209.6820  155.0510 C   0  0  2  0  0  3  0  0  0  0  0  0
  159.7960  210.4230  153.5250 C   0  0  2  0  0  3  0  0  0  0  0  0
  161.4990  207.1170  150.7090 C   0  0  0  0  0  1  0  0  0  0  0  0
  160.2970  207.7740  150.9750 O   0  0  0  0  0  0  0  0  0  0  0  0
  161.3950  207.2780  154.3700 C   0  0  0  0  0  2  0  0  0  0  0  0
  160.3160  207.1830  155.4310 C   0  0  0  0  0  1  0  0  0  0  0  0
  1  4  1  0  0  0  0
  1 14  1  0  0  0  0
  2  6  2  0  0  0  0
  3 17  1  0  0  0  0
  6  5  2  0  0  0  0
  6 12  1  0  0  0  0
  7 12  1  0  0  0  0
  7 15  1  0  0  0  0
  8 23  1  0  0  0  0
  8  6  1  1  0  0  0
  9 13  1  0  0  0  0
 10 24  1  0  0  0  0
 10 21  1  0  0  0  0
 11  7  2  0  0  0  0
 13 20  1  0  0  0  0
 13 16  1  0  0  0  0
 14 24  1  0  0  0  0
 16 22  1  0  0  0  0
 17 14  2  0  0  0  0
 18  1  2  0  0  0  0
 19 18  1  0  0  0  0
 19  3  2  0  0  0  0
 20  4  1  0  0  0  0
 21 27  1  0  0  0  0
 21 23  1  0  0  0  0
 22 10  1  0  0  0  0
 23 11  1  0  0  0  0
 24  8  1  0  0  0  0
 25 26  1  0  0  0  0
 26 22  1  0  0  0  0
 27 28  1  0  0  0  0
M  END
>  <MODEL>
3

>  <REMARK>
 VINA RESULT:       1.6      1.938      6.089
  Name = 
  2 active torsions:
  status: ('A' for Active; 'I' for Inactive)
    1  A    between atoms: C_5  and  C_24
    2  A    between atoms: O_17  and  C_25
                            x       y       z     vdW  Elec       q    Type
                         _______ _______ _______ _____ _____    ______ ____

>  <TORSDO>
F 2

$$$$
=
 OpenBabel11122414063D

 28 31  0  0  1  0  0  0  0  0999 V2000
  160.7900  205.2780  151.1640 C   0  0  0  0  0  0  0  0  0  0  0  0
  159.7570  206.8120  154.6750 O   0  0  0  0  0  0  0  0  0  0  0  0
  162.7160  203.5400  152.2180 C   0  0  0  0  0  3  0  0  0  0  0  0
  159.8380  206.1520  150.6400 O   0  0  0  0  0  0  0  0  0  0  0  0
  161.9890  207.7730  155.0580 O   0  0  0  0  0  0  0  0  0  0  0  0
  160.6810  207.9460  154.3380 S   0  0  0  0  0  0  0  0  0  0  0  0
  159.4370  210.2860  153.5740 C   0  0  0  0  0  0  0  0  0  0  0  0
  160.9320  208.0270  152.5850 C   0  0  1  0  0  3  0  0  0  0  0  0
  161.0460  205.3240  147.8690 C   0  0  0  0  0  1  0  0  0  0  0  0
  162.4970  208.0640  150.7540 C   0  0  2  0  0  3  0  0  0  0  0  0
  160.0540  210.2540  152.4340 N   0  0  0  0  0  0  0  0  0  0  0  0
  159.9350  209.5170  154.7890 C   0  0  0  0  0  2  0  0  0  0  0  0
  160.2070  206.4380  148.2920 N   0  0  0  0  0  0  0  0  0  0  0  0
  161.8890  205.7950  151.8750 C   0  0  0  0  0  0  0  0  0  0  0  0
  158.1990  211.1020  153.7060 C   0  0  0  0  0  1  0  0  0  0  0  0
  160.9800  207.6300  148.6920 C   0  0  0  0  0  2  0  0  0  0  0  0
  162.8490  204.9200  152.3940 C   0  0  0  0  0  3  0  0  0  0  0  0
  160.6680  203.8930  150.9800 C   0  0  0  0  0  3  0  0  0  0  0  0
  161.6270  203.0270  151.5080 C   0  0  0  0  0  3  0  0  0  0  0  0
  159.2820  205.9920  149.3410 C   0  0  0  0  0  2  0  0  0  0  0  0
  161.7650  209.4120  150.8330 C   0  0  1  0  0  3  0  0  0  0  0  0
  162.3130  207.3260  149.4080 C   0  0  1  0  0  3  0  0  0  0  0  0
  161.2420  209.4540  152.2560 C   0  0  2  0  0  3  0  0  0  0  0  0
  162.1190  207.2770  152.0310 C   0  0  2  0  0  3  0  0  0  0  0  0
  162.8400  208.4990  147.6040 C   0  0  0  0  0  1  0  0  0  0  0  0
  163.3780  207.6330  148.5580 O   0  0  0  0  0  0  0  0  0  0  0  0
  162.7460  210.5440  150.5840 C   0  0  0  0  0  2  0  0  0  0  0  0
  162.2450  211.4430  149.4690 C   0  0  0  0  0  1  0  0  0  0  0  0
  1 14  1  0  0  0  0
  3 17  1  0  0  0  0
  4  1  1  0  0  0  0
  6  2  2  0  0  0  0
  6 12  1  0  0  0  0
  6  5  2  0  0  0  0
  7 15  1  0  0  0  0
  7 12  1  0  0  0  0
  8  6  1  1  0  0  0
  9 13  1  0  0  0  0
 10 21  1  0  0  0  0
 10 24  1  0  0  0  0
 11  7  2  0  0  0  0
 13 16  1  0  0  0  0
 13 20  1  0  0  0  0
 14 24  1  0  0  0  0
 14 17  2  0  0  0  0
 16 22  1  0  0  0  0
 18  1  2  0  0  0  0
 18 19  1  0  0  0  0
 19  3  2  0  0  0  0
 20  4  1  0  0  0  0
 21 23  1  0  0  0  0
 22 10  1  0  0  0  0
 23 11  1  0  0  0  0
 23  8  1  0  0  0  0
 24  8  1  0  0  0  0
 25 26  1  0  0  0  0
 26 22  1  0  0  0  0
 27 21  1  0  0  0  0
 28 27  1  0  0  0  0
M  END
>  <MODEL>
4

>  <REMARK>
 VINA RESULT:       2.0      3.295      6.292
  Name = 
  2 active torsions:
  status: ('A' for Active; 'I' for Inactive)
    1  A    between atoms: C_5  and  C_24
    2  A    between atoms: O_17  and  C_25
                            x       y       z     vdW  Elec       q    Type
                         _______ _______ _______ _____ _____    ______ ____

>  <TORSDO>
F 2

$$$$
