=
 OpenBabel11122413003D

 32 38  0  0  1  0  0  0  0  0999 V2000
  160.0810  208.7680  156.7190 C   0  0  0  0  0  2  0  0  0  0  0  0
  161.0760  206.1460  151.9050 C   0  0  0  0  0  0  0  0  0  0  0  0
  161.9510  209.2800  148.2600 C   0  0  0  0  0  3  0  0  0  0  0  0
  161.9220  208.2290  147.3460 C   0  0  0  0  0  3  0  0  0  0  0  0
  160.8110  203.7140  151.3830 C   0  0  0  0  0  0  0  0  0  0  0  0
  160.8020  202.7410  150.3900 C   0  0  0  0  0  0  0  0  0  0  0  0
  160.8950  206.9300  154.1600 C   0  0  0  0  0  0  0  0  0  0  0  0
  161.3410  208.5030  152.3900 C   0  0  0  0  0  3  0  0  0  0  0  0
  160.9470  201.9490  148.3520 N   0  0  0  0  0  0  0  0  0  0  0  0
  161.1970  209.3500  154.6250 O   0  0  0  0  0  0  0  0  0  0  0  0
  161.7500  209.0290  149.6190 C   0  0  0  0  0  3  0  0  0  0  0  0
  161.3120  207.4640  151.4500 C   0  0  0  0  0  0  0  0  0  0  0  0
  161.5150  207.7210  150.0820 C   0  0  0  0  0  0  0  0  0  0  0  0
  161.2540  205.3400  149.5870 C   0  0  0  0  0  0  0  0  0  0  0  0
  160.7030  200.9530  149.2370 C   0  0  0  0  0  3  0  0  0  0  0  0
  159.5220  207.4640  156.1510 C   0  0  0  0  0  2  0  0  0  0  0  0
  161.1470  208.2570  153.7470 C   0  0  0  0  0  0  0  0  0  0  0  0
  160.6070  201.4120  150.5160 N   0  0  0  0  0  0  0  0  0  0  0  0
  160.6140  206.5660  155.5850 C   0  0  0  0  0  2  0  0  0  0  0  0
  161.3660  209.2410  156.0350 C   0  0  1  0  0  3  0  0  0  0  0  0
  161.6900  206.9250  147.7870 C   0  0  0  0  0  3  0  0  0  0  0  0
  161.4850  206.6560  149.1510 C   0  0  0  0  0  0  0  0  0  0  0  0
  161.2290  204.3210  148.6720 N   0  0  0  0  0  0  0  0  0  0  0  0
  160.8740  205.9340  153.2360 N   0  0  0  0  0  0  0  0  0  0  0  0
  160.5940  203.3300  152.7390 N   0  0  0  0  0  1  0  0  0  0  0  0
  161.1080  201.8250  146.9150 C   0  0  0  0  0  1  0  0  0  0  0  0
  161.0440  205.0670  150.9850 C   0  0  0  0  0  0  0  0  0  0  0  0
  161.0050  203.0570  149.0950 C   0  0  0  0  0  0  0  0  0  0  0  0
  161.7830  210.5890  156.5960 C   0  0  0  0  0  2  0  0  0  0  0  0
  160.6150  211.3180  157.0600 N   0  0  0  0  0  0  0  0  0  0  0  0
  161.0450  212.7100  157.2610 C   0  0  0  0  0  2  0  0  0  0  0  0
  160.3310  212.3430  156.0460 C   0  0  0  0  0  2  0  0  0  0  0  0
  2 24  1  0  0  0  0
  3 11  1  0  0  0  0
  4 21  1  0  0  0  0
  4  3  2  0  0  0  0
  5 25  1  0  0  0  0
  6 18  1  0  0  0  0
  6  5  2  0  0  0  0
  7 19  1  0  0  0  0
  8 17  2  0  0  0  0
  9 28  1  0  0  0  0
  9 15  1  0  0  0  0
 10 20  1  0  0  0  0
 11 13  2  0  0  0  0
 12  2  2  0  0  0  0
 12  8  1  0  0  0  0
 13 12  1  0  0  0  0
 14 27  2  0  0  0  0
 15 18  2  0  0  0  0
 16  1  1  0  0  0  0
 17  7  1  0  0  0  0
 17 10  1  0  0  0  0
 19 16  1  0  0  0  0
 20 29  1  1  0  0  0
 20  1  1  0  0  0  0
 21 22  2  0  0  0  0
 22 14  1  0  0  0  0
 22 13  1  0  0  0  0
 23 28  2  0  0  0  0
 23 14  1  0  0  0  0
 24  7  2  0  0  0  0
 26  9  1  0  0  0  0
 27  5  1  0  0  0  0
 27  2  1  0  0  0  0
 28  6  1  0  0  0  0
 29 30  1  0  0  0  0
 30 31  1  0  0  0  0
 32 30  1  0  0  0  0
 32 31  1  0  0  0  0
M  END
>  <MODEL>
1

>  <REMARK>
 VINA RESULT:      -8.7      0.000      0.000
  Name = 
  2 active torsions:
  status: ('A' for Active; 'I' for Inactive)
    1  A    between atoms: C_20  and  C_29
    2  A    between atoms: C_29  and  N_30
                            x       y       z     vdW  Elec       q    Type
                         _______ _______ _______ _____ _____    ______ ____

>  <TORSDO>
F 2

$$$$
=
 OpenBabel11122413003D

 32 38  0  0  1  0  0  0  0  0999 V2000
  161.2080  201.3070  149.8950 C   0  0  0  0  0  2  0  0  0  0  0  0
  161.1320  206.4610  152.0090 C   0  0  0  0  0  0  0  0  0  0  0  0
  161.9910  209.8520  148.5970 C   0  0  0  0  0  3  0  0  0  0  0  0
  162.0690  210.8310  149.5860 C   0  0  0  0  0  3  0  0  0  0  0  0
  161.0410  207.1480  154.4130 C   0  0  0  0  0  0  0  0  0  0  0  0
  161.1390  208.1980  155.3180 C   0  0  0  0  0  0  0  0  0  0  0  0
  160.8120  204.1710  151.3880 C   0  0  0  0  0  0  0  0  0  0  0  0
  161.2190  205.8180  149.6760 C   0  0  0  0  0  3  0  0  0  0  0  0
  161.4300  210.2720  155.9640 N   0  0  0  0  0  0  0  0  0  0  0  0
  160.8810  203.5510  148.9850 O   0  0  0  0  0  0  0  0  0  0  0  0
  161.7380  208.5240  148.9480 C   0  0  0  0  0  3  0  0  0  0  0  0
  161.3070  206.8210  150.6530 C   0  0  0  0  0  0  0  0  0  0  0  0
  161.5620  208.1570  150.2950 C   0  0  0  0  0  0  0  0  0  0  0  0
  161.4700  208.8120  152.6490 C   0  0  0  0  0  0  0  0  0  0  0  0
  161.2040  209.4640  157.0280 C   0  0  0  0  0  3  0  0  0  0  0  0
  161.6320  201.8380  151.2630 C   0  0  0  0  0  2  0  0  0  0  0  0
  160.9620  204.4930  150.0200 C   0  0  0  0  0  0  0  0  0  0  0  0
  161.0190  208.1660  156.6600 N   0  0  0  0  0  0  0  0  0  0  0  0
  160.5920  202.7710  151.8690 C   0  0  0  0  0  2  0  0  0  0  0  0
  160.2960  202.2590  149.1170 C   0  0  1  0  0  3  0  0  0  0  0  0
  161.8970  210.4840  150.9270 C   0  0  0  0  0  3  0  0  0  0  0  0
  161.6430  209.1520  151.2970 C   0  0  0  0  0  0  0  0  0  0  0  0
  161.5510  209.7890  153.6060 N   0  0  0  0  0  0  0  0  0  0  0  0
  160.8960  205.1560  152.3200 N   0  0  0  0  0  0  0  0  0  0  0  0
  160.7780  205.8320  154.8960 N   0  0  0  0  0  1  0  0  0  0  0  0
  161.6670  211.7040  155.9840 C   0  0  0  0  0  1  0  0  0  0  0  0
  161.2090  207.4480  153.0250 C   0  0  0  0  0  0  0  0  0  0  0  0
  161.3850  209.4590  154.9060 C   0  0  0  0  0  0  0  0  0  0  0  0
  160.0160  201.6920  147.7360 C   0  0  0  0  0  2  0  0  0  0  0  0
  161.2200  201.7390  146.9250 N   0  0  0  0  0  0  0  0  0  0  0  0
  160.8880  201.0920  145.6470 C   0  0  0  0  0  2  0  0  0  0  0  0
  160.8940  202.5450  145.7390 C   0  0  0  0  0  2  0  0  0  0  0  0
  1 16  1  0  0  0  0
  2 24  1  0  0  0  0
  2 27  1  0  0  0  0
  3 11  2  0  0  0  0
  3  4  1  0  0  0  0
  4 21  2  0  0  0  0
  5 25  1  0  0  0  0
  5  6  1  0  0  0  0
  6 18  1  0  0  0  0
  7 19  1  0  0  0  0
  7 24  2  0  0  0  0
  8 17  2  0  0  0  0
  8 12  1  0  0  0  0
  9 26  1  0  0  0  0
  9 15  1  0  0  0  0
 10 20  1  0  0  0  0
 10 17  1  0  0  0  0
 11 13  1  0  0  0  0
 12  2  2  0  0  0  0
 13 12  1  0  0  0  0
 13 22  2  0  0  0  0
 14 27  1  0  0  0  0
 14 23  2  0  0  0  0
 16 19  1  0  0  0  0
 17  7  1  0  0  0  0
 18 15  2  0  0  0  0
 20 29  1  6  0  0  0
 20  1  1  0  0  0  0
 21 22  1  0  0  0  0
 22 14  1  0  0  0  0
 23 28  1  0  0  0  0
 27  5  2  0  0  0  0
 28  6  2  0  0  0  0
 28  9  1  0  0  0  0
 30 29  1  0  0  0  0
 31 32  1  0  0  0  0
 31 30  1  0  0  0  0
 32 30  1  0  0  0  0
M  END
>  <MODEL>
2

>  <REMARK>
 VINA RESULT:      -8.6      2.042      8.026
  Name = 
  2 active torsions:
  status: ('A' for Active; 'I' for Inactive)
    1  A    between atoms: C_20  and  C_29
    2  A    between atoms: C_29  and  N_30
                            x       y       z     vdW  Elec       q    Type
                         _______ _______ _______ _____ _____    ______ ____

>  <TORSDO>
F 2

$$$$
=
 OpenBabel11122413003D

 32 38  0  0  1  0  0  0  0  0999 V2000
  162.1620  210.4480  154.0560 C   0  0  0  0  0  2  0  0  0  0  0  0
  161.1470  206.5190  150.2380 C   0  0  0  0  0  0  0  0  0  0  0  0
  160.9240  202.0570  152.2170 C   0  0  0  0  0  3  0  0  0  0  0  0
  160.8750  201.4920  150.9440 C   0  0  0  0  0  3  0  0  0  0  0  0
  161.1270  206.7490  147.7470 C   0  0  0  0  0  0  0  0  0  0  0  0
  161.0740  206.0850  146.5270 C   0  0  0  0  0  0  0  0  0  0  0  0
  161.2830  208.4590  151.6350 C   0  0  0  0  0  0  0  0  0  0  0  0
  161.1600  206.2750  152.6470 C   0  0  0  0  0  3  0  0  0  0  0  0
  160.9590  204.3570  145.1830 N   0  0  0  0  0  0  0  0  0  0  0  0
  161.2680  208.1740  154.1010 O   0  0  0  0  0  0  0  0  0  0  0  0
  161.0030  203.4440  152.3620 C   0  0  0  0  0  3  0  0  0  0  0  0
  161.1140  205.6820  151.3770 C   0  0  0  0  0  0  0  0  0  0  0  0
  161.0350  204.2850  151.2350 C   0  0  0  0  0  0  0  0  0  0  0  0
  161.0160  204.5260  148.8010 C   0  0  0  0  0  0  0  0  0  0  0  0
  161.0140  205.5120  144.4770 C   0  0  0  0  0  3  0  0  0  0  0  0
  162.5820  210.3380  152.5910 C   0  0  0  0  0  2  0  0  0  0  0  0
  161.2330  207.6580  152.7970 C   0  0  0  0  0  0  0  0  0  0  0  0
  161.0870  206.6080  145.2840 N   0  0  0  0  0  0  0  0  0  0  0  0
  161.4220  209.9490  151.6850 C   0  0  0  0  0  2  0  0  0  0  0  0
  160.9960  209.5320  154.4360 C   0  0  1  0  0  3  0  0  0  0  0  0
  160.9060  202.3120  149.8140 C   0  0  0  0  0  3  0  0  0  0  0  0
  160.9860  203.7090  149.9440 C   0  0  0  0  0  0  0  0  0  0  0  0
  160.9680  203.9510  147.5590 N   0  0  0  0  0  0  0  0  0  0  0  0
  161.2340  207.8670  150.4120 N   0  0  0  0  0  0  0  0  0  0  0  0
  161.2050  208.1730  147.7640 N   0  0  0  0  0  1  0  0  0  0  0  0
  160.8760  203.0090  144.6540 C   0  0  0  0  0  1  0  0  0  0  0  0
  161.0980  205.9570  148.9360 C   0  0  0  0  0  0  0  0  0  0  0  0
  160.9970  204.7400  146.4620 C   0  0  0  0  0  0  0  0  0  0  0  0
  160.7230  209.6350  155.9260 C   0  0  0  0  0  2  0  0  0  0  0  0
  159.3230  209.9470  156.1560 N   0  0  0  0  0  0  0  0  0  0  0  0
  159.2920  210.9820  157.1990 C   0  0  0  0  0  2  0  0  0  0  0  0
  159.1460  211.3620  155.8020 C   0  0  0  0  0  2  0  0  0  0  0  0
  1 20  1  0  0  0  0
  2 24  2  0  0  0  0
  2 12  1  0  0  0  0
  3 11  1  0  0  0  0
  4  3  2  0  0  0  0
  5 25  1  0  0  0  0
  5 27  1  0  0  0  0
  6  5  2  0  0  0  0
  7 19  1  0  0  0  0
  7 17  2  0  0  0  0
  8 17  1  0  0  0  0
  9 28  1  0  0  0  0
 10 20  1  0  0  0  0
 12  8  2  0  0  0  0
 13 12  1  0  0  0  0
 13 11  2  0  0  0  0
 14 27  2  0  0  0  0
 14 22  1  0  0  0  0
 15  9  1  0  0  0  0
 15 18  2  0  0  0  0
 16  1  1  0  0  0  0
 17 10  1  0  0  0  0
 18  6  1  0  0  0  0
 19 16  1  0  0  0  0
 20 29  1  1  0  0  0
 21 22  2  0  0  0  0
 21  4  1  0  0  0  0
 22 13  1  0  0  0  0
 23 14  1  0  0  0  0
 24  7  1  0  0  0  0
 26  9  1  0  0  0  0
 27  2  1  0  0  0  0
 28  6  1  0  0  0  0
 28 23  2  0  0  0  0
 29 30  1  0  0  0  0
 30 31  1  0  0  0  0
 32 30  1  0  0  0  0
 32 31  1  0  0  0  0
M  END
>  <MODEL>
3

>  <REMARK>
 VINA RESULT:      -8.1      2.025      4.245
  Name = 
  2 active torsions:
  status: ('A' for Active; 'I' for Inactive)
    1  A    between atoms: C_20  and  C_29
    2  A    between atoms: C_29  and  N_30
                            x       y       z     vdW  Elec       q    Type
                         _______ _______ _______ _____ _____    ______ ____

>  <TORSDO>
F 2

$$$$
=
 OpenBabel11122413003D

 32 38  0  0  1  0  0  0  0  0999 V2000
  161.6630  202.0820  147.7870 C   0  0  0  0  0  2  0  0  0  0  0  0
  161.2410  206.5780  151.0500 C   0  0  0  0  0  0  0  0  0  0  0  0
  162.2720  210.6980  148.6320 C   0  0  0  0  0  3  0  0  0  0  0  0
  162.2350  211.4120  149.8290 C   0  0  0  0  0  3  0  0  0  0  0  0
  160.9250  206.6680  153.5290 C   0  0  0  0  0  0  0  0  0  0  0  0
  160.9120  207.4720  154.6630 C   0  0  0  0  0  0  0  0  0  0  0  0
  161.0490  204.5000  149.8760 C   0  0  0  0  0  0  0  0  0  0  0  0
  161.5450  206.5140  148.6480 C   0  0  0  0  0  3  0  0  0  0  0  0
  161.0790  209.3340  155.8070 N   0  0  0  0  0  0  0  0  0  0  0  0
  161.3410  204.4740  147.4100 O   0  0  0  0  0  0  0  0  0  0  0  0
  162.0350  209.3220  148.6340 C   0  0  0  0  0  3  0  0  0  0  0  0
  161.5170  207.2540  149.8390 C   0  0  0  0  0  0  0  0  0  0  0  0
  161.7570  208.6400  149.8330 C   0  0  0  0  0  0  0  0  0  0  0  0
  161.4460  208.7120  152.2580 C   0  0  0  0  0  0  0  0  0  0  0  0
  160.7910  208.2920  156.6240 C   0  0  0  0  0  3  0  0  0  0  0  0
  161.9530  202.2750  149.2750 C   0  0  0  0  0  2  0  0  0  0  0  0
  161.3030  205.1420  148.6430 C   0  0  0  0  0  0  0  0  0  0  0  0
  160.6800  207.1180  155.9430 N   0  0  0  0  0  0  0  0  0  0  0  0
  160.8350  203.0230  149.9880 C   0  0  0  0  0  2  0  0  0  0  0  0
  160.7890  203.1820  147.1790 C   0  0  1  0  0  3  0  0  0  0  0  0
  161.9620  210.7520  151.0280 C   0  0  0  0  0  3  0  0  0  0  0  0
  161.7220  209.3680  151.0460 C   0  0  0  0  0  0  0  0  0  0  0  0
  161.4150  209.4320  153.4230 N   0  0  0  0  0  0  0  0  0  0  0  0
  161.0220  205.2340  151.0190 N   0  0  0  0  0  0  0  0  0  0  0  0
  160.6650  205.2720  153.6610 N   0  0  0  0  0  1  0  0  0  0  0  0
  161.2670  210.7220  156.1880 C   0  0  0  0  0  1  0  0  0  0  0  0
  161.2000  207.2940  152.2740 C   0  0  0  0  0  0  0  0  0  0  0  0
  161.1500  208.7980  154.5860 C   0  0  0  0  0  0  0  0  0  0  0  0
  160.6460  202.9590  145.6840 C   0  0  0  0  0  2  0  0  0  0  0  0
  161.3400  204.0060  144.9550 N   0  0  0  0  0  0  0  0  0  0  0  0
  160.4430  204.4230  143.8670 C   0  0  0  0  0  2  0  0  0  0  0  0
  160.5200  205.2200  145.0830 C   0  0  0  0  0  2  0  0  0  0  0  0
  1 16  1  0  0  0  0
  2 27  1  0  0  0  0
  3 11  2  0  0  0  0
  3  4  1  0  0  0  0
  4 21  2  0  0  0  0
  5 25  1  0  0  0  0
  5  6  1  0  0  0  0
  6 18  1  0  0  0  0
  7 19  1  0  0  0  0
  7 24  2  0  0  0  0
  8 12  1  0  0  0  0
  9 26  1  0  0  0  0
  9 15  1  0  0  0  0
 10 17  1  0  0  0  0
 11 13  1  0  0  0  0
 12  2  2  0  0  0  0
 13 12  1  0  0  0  0
 13 22  2  0  0  0  0
 14 27  1  0  0  0  0
 14 23  2  0  0  0  0
 16 19  1  0  0  0  0
 17  8  2  0  0  0  0
 17  7  1  0  0  0  0
 18 15  2  0  0  0  0
 20 29  1  6  0  0  0
 20 10  1  0  0  0  0
 20  1  1  0  0  0  0
 21 22  1  0  0  0  0
 22 14  1  0  0  0  0
 23 28  1  0  0  0  0
 24  2  1  0  0  0  0
 27  5  2  0  0  0  0
 28  6  2  0  0  0  0
 28  9  1  0  0  0  0
 30 32  1  0  0  0  0
 30 29  1  0  0  0  0
 31 30  1  0  0  0  0
 31 32  1  0  0  0  0
M  END
>  <MODEL>
4

>  <REMARK>
 VINA RESULT:      -6.6      2.384      7.958
  Name = 
  2 active torsions:
  status: ('A' for Active; 'I' for Inactive)
    1  A    between atoms: C_20  and  C_29
    2  A    between atoms: C_29  and  N_30
                            x       y       z     vdW  Elec       q    Type
                         _______ _______ _______ _____ _____    ______ ____

>  <TORSDO>
F 2

$$$$
=
 OpenBabel11122413003D

 32 38  0  0  1  0  0  0  0  0999 V2000
  160.9380  213.8030  147.3660 C   0  0  0  0  0  2  0  0  0  0  0  0
  161.1690  210.1300  151.5500 C   0  0  0  0  0  0  0  0  0  0  0  0
  161.9330  205.5780  149.9480 C   0  0  0  0  0  3  0  0  0  0  0  0
  161.7100  205.0860  151.2320 C   0  0  0  0  0  3  0  0  0  0  0  0
  160.6280  210.4970  153.9640 C   0  0  0  0  0  0  0  0  0  0  0  0
  160.4240  209.9040  155.2040 C   0  0  0  0  0  0  0  0  0  0  0  0
  161.3020  211.9840  150.0400 C   0  0  0  0  0  0  0  0  0  0  0  0
  161.6990  209.7540  149.2170 C   0  0  0  0  0  3  0  0  0  0  0  0
  160.2780  208.2580  156.6440 N   0  0  0  0  0  0  0  0  0  0  0  0
  161.8720  211.5650  147.6600 O   0  0  0  0  0  0  0  0  0  0  0  0
  161.8560  206.9500  149.7030 C   0  0  0  0  0  3  0  0  0  0  0  0
  161.4740  209.2340  150.4990 C   0  0  0  0  0  0  0  0  0  0  0  0
  161.5530  207.8500  150.7410 C   0  0  0  0  0  0  0  0  0  0  0  0
  161.0240  208.2250  153.1000 C   0  0  0  0  0  0  0  0  0  0  0  0
  160.0390  209.4470  157.2480 C   0  0  0  0  0  3  0  0  0  0  0  0
  160.2040  213.7590  148.7070 C   0  0  0  0  0  2  0  0  0  0  0  0
  161.6280  211.1230  148.9690 C   0  0  0  0  0  0  0  0  0  0  0  0
  160.1230  210.4930  156.3790 N   0  0  0  0  0  0  0  0  0  0  0  0
  161.1430  213.4620  149.8690 C   0  0  0  0  0  2  0  0  0  0  0  0
  162.1800  212.9110  147.3110 C   0  0  1  0  0  3  0  0  0  0  0  0
  161.4090  205.9640  152.2740 C   0  0  0  0  0  3  0  0  0  0  0  0
  161.3260  207.3480  152.0440 C   0  0  0  0  0  0  0  0  0  0  0  0
  160.8080  207.7210  154.3550 N   0  0  0  0  0  0  0  0  0  0  0  0
  161.0920  211.4630  151.2770 N   0  0  0  0  0  0  0  0  0  0  0  0
  160.5220  211.9140  153.8420 N   0  0  0  0  0  1  0  0  0  0  0  0
  160.2720  206.9440  157.2600 C   0  0  0  0  0  1  0  0  0  0  0  0
  160.9400  209.6420  152.8620 C   0  0  0  0  0  0  0  0  0  0  0  0
  160.5160  208.5680  155.3670 C   0  0  0  0  0  0  0  0  0  0  0  0
  162.7760  212.9430  145.9150 C   0  0  0  0  0  2  0  0  0  0  0  0
  161.8760  213.6290  145.0040 N   0  0  0  0  0  0  0  0  0  0  0  0
  162.7140  214.1980  143.9390 C   0  0  0  0  0  2  0  0  0  0  0  0
  161.9990  212.9520  143.7050 C   0  0  0  0  0  2  0  0  0  0  0  0
  1 16  1  0  0  0  0
  2 27  1  0  0  0  0
  3  4  1  0  0  0  0
  4 21  2  0  0  0  0
  5  6  1  0  0  0  0
  6 28  2  0  0  0  0
  6 18  1  0  0  0  0
  7 24  2  0  0  0  0
  8 12  1  0  0  0  0
  9 15  1  0  0  0  0
  9 26  1  0  0  0  0
 10 17  1  0  0  0  0
 11  3  2  0  0  0  0
 11 13  1  0  0  0  0
 12 13  1  0  0  0  0
 12  2  2  0  0  0  0
 13 22  2  0  0  0  0
 14 23  2  0  0  0  0
 16 19  1  0  0  0  0
 17  8  2  0  0  0  0
 17  7  1  0  0  0  0
 18 15  2  0  0  0  0
 19  7  1  0  0  0  0
 20 29  1  6  0  0  0
 20  1  1  0  0  0  0
 20 10  1  0  0  0  0
 22 21  1  0  0  0  0
 22 14  1  0  0  0  0
 23 28  1  0  0  0  0
 24  2  1  0  0  0  0
 25  5  1  0  0  0  0
 27 14  1  0  0  0  0
 27  5  2  0  0  0  0
 28  9  1  0  0  0  0
 30 29  1  0  0  0  0
 31 30  1  0  0  0  0
 32 31  1  0  0  0  0
 32 30  1  0  0  0  0
M  END
>  <MODEL>
5

>  <REMARK>
 VINA RESULT:      -6.3      3.649      8.138
  Name = 
  2 active torsions:
  status: ('A' for Active; 'I' for Inactive)
    1  A    between atoms: C_20  and  C_29
    2  A    between atoms: C_29  and  N_30
                            x       y       z     vdW  Elec       q    Type
                         _______ _______ _______ _____ _____    ______ ____

>  <TORSDO>
F 2

$$$$
