=
 OpenBabel11122412303D

 30 35  0  0  1  0  0  0  0  0999 V2000
  161.2640  207.4820  150.8820 C   0  0  0  0  0  0  0  0  0  0  0  0
  161.4050  205.2820  149.6780 C   0  0  0  0  0  0  0  0  0  0  0  0
  160.5750  205.5970  154.4900 N   0  0  0  0  0  2  0  0  0  0  0  0
  161.1500  208.1790  152.1170 C   0  0  0  0  0  0  0  0  0  0  0  0
  161.2200  208.2740  149.6010 C   0  0  0  0  0  2  0  0  0  0  0  0
  161.9180  211.5820  150.9810 O   0  0  0  0  0  0  0  0  0  0  0  0
  159.9610  210.3320  154.3360 C   0  0  1  0  0  3  0  0  0  0  0  0
  161.6250  210.3560  150.9470 C   0  0  0  0  0  0  0  0  0  0  0  0
  160.7100  209.2230  155.0950 C   0  0  2  0  0  3  0  0  0  0  0  0
  160.4670  206.7290  155.2270 C   0  0  0  0  0  0  0  0  0  0  0  0
  161.8040  209.6030  149.7420 N   0  0  0  0  0  0  0  0  0  0  0  0
  161.1700  209.6750  152.2060 C   0  0  1  0  0  3  0  0  0  0  0  0
  161.3450  203.8860  149.7260 C   0  0  0  0  0  3  0  0  0  0  0  0
  162.1320  209.7010  155.2620 C   0  0  0  0  0  2  0  0  0  0  0  0
  160.7290  211.6080  154.6680 C   0  0  0  0  0  2  0  0  0  0  0  0
  161.6450  205.8760  148.4450 O   0  0  0  0  0  1  0  0  0  0  0  0
  160.8540  206.0730  153.2600 C   0  0  0  0  0  0  0  0  0  0  0  0
  161.1280  203.2190  150.9300 C   0  0  0  0  0  3  0  0  0  0  0  0
  161.2390  206.0470  150.8650 C   0  0  0  0  0  0  0  0  0  0  0  0
  160.9210  207.4340  153.2750 C   0  0  0  0  0  0  0  0  0  0  0  0
  160.2260  206.7130  156.4630 O   0  0  0  0  0  0  0  0  0  0  0  0
  160.6490  207.8710  154.5220 N   0  0  0  0  0  0  0  0  0  0  0  0
  162.0190  211.2070  155.3720 C   0  0  0  0  0  2  0  0  0  0  0  0
  159.3540  211.3140  152.2060 O   0  0  0  0  0  1  0  0  0  0  0  0
  160.9700  203.9430  152.1080 C   0  0  0  0  0  3  0  0  0  0  0  0
  161.0280  205.3400  152.0880 C   0  0  0  0  0  0  0  0  0  0  0  0
  159.8450  210.1520  152.8110 C   0  0  2  0  0  3  0  0  0  0  0  0
  162.4100  210.2230  148.5700 C   0  0  0  0  0  2  0  0  0  0  0  0
  162.4270  212.5420  147.6480 C   0  0  0  0  0  1  0  0  0  0  0  0
  161.5520  211.3770  148.0720 C   0  0  0  0  0  2  0  0  0  0  0  0
  1  4  1  0  0  0  0
  2 13  2  0  0  0  0
  2 19  1  0  0  0  0
  3 10  1  0  0  0  0
  4 12  1  0  0  0  0
  4 20  2  0  0  0  0
  5 11  1  0  0  0  0
  5  1  1  0  0  0  0
  7 15  1  6  0  0  0
  7  9  1  0  0  0  0
  8  6  2  0  0  0  0
  9 14  1  6  0  0  0
 10 21  2  0  0  0  0
 11  8  1  0  0  0  0
 12  8  1  6  0  0  0
 12 27  1  0  0  0  0
 13 18  1  0  0  0  0
 14 23  1  0  0  0  0
 15 23  1  0  0  0  0
 16  2  1  0  0  0  0
 17 20  1  0  0  0  0
 17  3  1  0  0  0  0
 18 25  2  0  0  0  0
 19  1  2  0  0  0  0
 19 26  1  0  0  0  0
 20 22  1  0  0  0  0
 22  9  1  0  0  0  0
 22 10  1  0  0  0  0
 26 25  1  0  0  0  0
 26 17  2  0  0  0  0
 27 24  1  6  0  0  0
 27  7  1  0  0  0  0
 28 11  1  0  0  0  0
 29 30  1  0  0  0  0
 30 28  1  0  0  0  0
M  END
>  <MODEL>
1

>  <REMARK>
 VINA RESULT:      -6.7      0.000      0.000
  Name = 
  2 active torsions:
  status: ('A' for Active; 'I' for Inactive)
    1  A    between atoms: N_11  and  C_28
    2  A    between atoms: C_28  and  C_30
                            x       y       z     vdW  Elec       q    Type
                         _______ _______ _______ _____ _____    ______ ____

>  <TORSDO>
F 2

$$$$
=
 OpenBabel11122412303D

 30 35  0  0  1  0  0  0  0  0999 V2000
  160.6230  210.3770  152.0820 C   0  0  0  0  0  0  0  0  0  0  0  0
  161.8530  208.8470  150.5150 C   0  0  0  0  0  0  0  0  0  0  0  0
  160.8170  207.6010  155.1310 N   0  0  0  0  0  2  0  0  0  0  0  0
  160.1450  210.6290  153.3980 C   0  0  0  0  0  0  0  0  0  0  0  0
  160.2420  211.3340  150.9820 C   0  0  0  0  0  2  0  0  0  0  0  0
  159.2020  214.1580  153.0490 O   0  0  0  0  0  0  0  0  0  0  0  0
  157.9880  211.3930  155.7940 C   0  0  1  0  0  3  0  0  0  0  0  0
  159.5420  212.9830  152.7420 C   0  0  0  0  0  0  0  0  0  0  0  0
  159.1550  210.6160  156.4260 C   0  0  2  0  0  3  0  0  0  0  0  0
  160.1490  208.3440  156.0470 C   0  0  0  0  0  0  0  0  0  0  0  0
  160.1030  212.7070  151.4540 N   0  0  0  0  0  0  0  0  0  0  0  0
  159.4330  211.8950  153.7710 C   0  0  1  0  0  3  0  0  0  0  0  0
  162.4770  207.6170  150.2880 C   0  0  0  0  0  3  0  0  0  0  0  0
  160.1610  211.6460  156.8820 C   0  0  0  0  0  2  0  0  0  0  0  0
  158.0290  212.7620  156.4670 C   0  0  0  0  0  2  0  0  0  0  0  0
  161.8160  209.7560  149.4640 O   0  0  0  0  0  1  0  0  0  0  0  0
  160.8700  208.4260  154.0660 C   0  0  0  0  0  0  0  0  0  0  0  0
  162.5700  206.6640  151.3000 C   0  0  0  0  0  3  0  0  0  0  0  0
  161.2980  209.1450  151.7890 C   0  0  0  0  0  0  0  0  0  0  0  0
  160.2680  209.6150  154.3480 C   0  0  0  0  0  0  0  0  0  0  0  0
  159.9060  207.9280  157.2100 O   0  0  0  0  0  0  0  0  0  0  0  0
  159.7770  209.5690  155.6040 N   0  0  0  0  0  0  0  0  0  0  0  0
  159.3280  212.8540  157.2580 C   0  0  0  0  0  2  0  0  0  0  0  0
  157.0510  212.4490  153.8240 O   0  0  0  0  0  1  0  0  0  0  0  0
  162.0420  206.9320  152.5600 C   0  0  0  0  0  3  0  0  0  0  0  0
  161.4160  208.1570  152.8140 C   0  0  0  0  0  0  0  0  0  0  0  0
  158.0240  211.5440  154.2620 C   0  0  2  0  0  3  0  0  0  0  0  0
  160.3700  213.7930  150.5190 C   0  0  0  0  0  2  0  0  0  0  0  0
  161.7330  213.6720  148.4330 C   0  0  0  0  0  1  0  0  0  0  0  0
  160.4280  213.2680  149.0930 C   0  0  0  0  0  2  0  0  0  0  0  0
  1  4  1  0  0  0  0
  2 19  1  0  0  0  0
  3 10  1  0  0  0  0
  4 12  1  0  0  0  0
  4 20  2  0  0  0  0
  5 11  1  0  0  0  0
  5  1  1  0  0  0  0
  7  9  1  0  0  0  0
  7 15  1  1  0  0  0
  8  6  2  0  0  0  0
  9 14  1  6  0  0  0
 10 21  2  0  0  0  0
 11  8  1  0  0  0  0
 12  8  1  6  0  0  0
 12 27  1  0  0  0  0
 13  2  2  0  0  0  0
 13 18  1  0  0  0  0
 14 23  1  0  0  0  0
 15 23  1  0  0  0  0
 16  2  1  0  0  0  0
 17 20  1  0  0  0  0
 17  3  1  0  0  0  0
 18 25  2  0  0  0  0
 19  1  2  0  0  0  0
 19 26  1  0  0  0  0
 20 22  1  0  0  0  0
 22 10  1  0  0  0  0
 22  9  1  0  0  0  0
 25 26  1  0  0  0  0
 26 17  2  0  0  0  0
 27 24  1  1  0  0  0
 27  7  1  0  0  0  0
 28 11  1  0  0  0  0
 29 30  1  0  0  0  0
 30 28  1  0  0  0  0
M  END
>  <MODEL>
2

>  <REMARK>
 VINA RESULT:      -6.1      2.189      3.163
  Name = 
  2 active torsions:
  status: ('A' for Active; 'I' for Inactive)
    1  A    between atoms: N_11  and  C_28
    2  A    between atoms: C_28  and  C_30
                            x       y       z     vdW  Elec       q    Type
                         _______ _______ _______ _____ _____    ______ ____

>  <TORSDO>
F 2

$$$$
=
 OpenBabel11122412303D

 30 35  0  0  1  0  0  0  0  0999 V2000
  161.3140  204.5100  148.7090 C   0  0  0  0  0  0  0  0  0  0  0  0
  161.1700  203.7350  146.3230 C   0  0  0  0  0  0  0  0  0  0  0  0
  161.7820  208.4380  147.5270 N   0  0  0  0  0  2  0  0  0  0  0  0
  161.3890  205.5960  149.6240 C   0  0  0  0  0  0  0  0  0  0  0  0
  161.4390  203.1070  149.2440 C   0  0  0  0  0  2  0  0  0  0  0  0
  160.7670  203.8030  152.7640 O   0  0  0  0  0  0  0  0  0  0  0  0
  162.5320  207.4290  152.1370 C   0  0  1  0  0  3  0  0  0  0  0  0
  161.0290  204.0150  151.5490 C   0  0  0  0  0  0  0  0  0  0  0  0
  161.7190  208.3430  151.2040 C   0  0  2  0  0  3  0  0  0  0  0  0
  161.8870  208.9540  148.7770 C   0  0  0  0  0  0  0  0  0  0  0  0
  160.8860  202.9660  150.5860 N   0  0  0  0  0  0  0  0  0  0  0  0
  161.4060  205.4020  151.1110 C   0  0  1  0  0  3  0  0  0  0  0  0
  161.1890  204.0470  144.9610 C   0  0  0  0  0  3  0  0  0  0  0  0
  160.3040  208.3450  151.7310 C   0  0  0  0  0  2  0  0  0  0  0  0
  161.7830  207.4750  153.4660 C   0  0  0  0  0  2  0  0  0  0  0  0
  161.0030  202.4020  146.6780 O   0  0  0  0  0  1  0  0  0  0  0  0
  161.5740  207.1280  147.7670 C   0  0  0  0  0  0  0  0  0  0  0  0
  161.3320  205.3650  144.5300 C   0  0  0  0  0  3  0  0  0  0  0  0
  161.3010  204.7640  147.2960 C   0  0  0  0  0  0  0  0  0  0  0  0
  161.5440  206.8830  149.1070 C   0  0  0  0  0  0  0  0  0  0  0  0
  162.0690  210.1810  148.9900 O   0  0  0  0  0  0  0  0  0  0  0  0
  161.7690  208.0380  149.7680 N   0  0  0  0  0  0  0  0  0  0  0  0
  160.4520  208.1750  153.2280 C   0  0  0  0  0  2  0  0  0  0  0  0
  163.2640  205.1860  152.6880 O   0  0  0  0  0  1  0  0  0  0  0  0
  161.4550  206.3930  145.4610 C   0  0  0  0  0  3  0  0  0  0  0  0
  161.4350  206.1070  146.8300 C   0  0  0  0  0  0  0  0  0  0  0  0
  162.7140  205.9730  151.6700 C   0  0  2  0  0  3  0  0  0  0  0  0
  160.3520  201.6690  150.9840 C   0  0  0  0  0  2  0  0  0  0  0  0
  158.6270  201.1180  149.2680 C   0  0  0  0  0  1  0  0  0  0  0  0
  160.0320  200.8250  149.7600 C   0  0  0  0  0  2  0  0  0  0  0  0
  1  5  1  0  0  0  0
  1  4  1  0  0  0  0
  2 16  1  0  0  0  0
  2 19  1  0  0  0  0
  3 17  1  0  0  0  0
  3 10  1  0  0  0  0
  5 11  1  0  0  0  0
  7 15  1  1  0  0  0
  8  6  2  0  0  0  0
  9 14  1  1  0  0  0
  9  7  1  0  0  0  0
 10 21  2  0  0  0  0
 10 22  1  0  0  0  0
 11 28  1  0  0  0  0
 11  8  1  0  0  0  0
 12  4  1  6  0  0  0
 12  8  1  0  0  0  0
 12 27  1  0  0  0  0
 13  2  2  0  0  0  0
 14 23  1  0  0  0  0
 17 20  1  0  0  0  0
 18 13  1  0  0  0  0
 18 25  2  0  0  0  0
 19  1  2  0  0  0  0
 20  4  2  0  0  0  0
 20 22  1  0  0  0  0
 22  9  1  0  0  0  0
 23 15  1  0  0  0  0
 25 26  1  0  0  0  0
 26 19  1  0  0  0  0
 26 17  2  0  0  0  0
 27  7  1  0  0  0  0
 27 24  1  1  0  0  0
 29 30  1  0  0  0  0
 30 28  1  0  0  0  0
M  END
>  <MODEL>
3

>  <REMARK>
 VINA RESULT:      -6.0      2.806      6.284
  Name = 
  2 active torsions:
  status: ('A' for Active; 'I' for Inactive)
    1  A    between atoms: N_11  and  C_28
    2  A    between atoms: C_28  and  C_30
                            x       y       z     vdW  Elec       q    Type
                         _______ _______ _______ _____ _____    ______ ____

>  <TORSDO>
F 2

$$$$
=
 OpenBabel11122412303D

 30 35  0  0  1  0  0  0  0  0999 V2000
  161.4130  209.0060  151.8730 C   0  0  0  0  0  0  0  0  0  0  0  0
  161.1110  209.4950  154.3190 C   0  0  0  0  0  0  0  0  0  0  0  0
  160.9040  204.9570  152.5000 N   0  0  0  0  0  2  0  0  0  0  0  0
  161.3860  208.0510  150.8190 C   0  0  0  0  0  0  0  0  0  0  0  0
  161.8930  210.4010  151.5690 C   0  0  0  0  0  2  0  0  0  0  0  0
  161.5720  210.3090  147.9330 O   0  0  0  0  0  0  0  0  0  0  0  0
  162.4560  206.3340  148.1960 C   0  0  1  0  0  3  0  0  0  0  0  0
  161.6180  209.8960  149.1240 C   0  0  0  0  0  0  0  0  0  0  0  0
  161.3550  205.5140  148.8920 C   0  0  2  0  0  3  0  0  0  0  0  0
  161.0680  204.5880  151.2060 C   0  0  0  0  0  0  0  0  0  0  0  0
  161.5650  210.8250  150.2120 N   0  0  0  0  0  0  0  0  0  0  0  0
  161.6420  208.4180  149.3880 C   0  0  1  0  0  3  0  0  0  0  0  0
  160.8830  209.0210  155.6140 C   0  0  0  0  0  3  0  0  0  0  0  0
  160.0530  205.8900  148.2260 C   0  0  0  0  0  2  0  0  0  0  0  0
  161.8990  206.6170  146.8040 C   0  0  0  0  0  2  0  0  0  0  0  0
  161.2700  210.8650  154.1510 O   0  0  0  0  0  1  0  0  0  0  0  0
  161.0020  206.3000  152.4370 C   0  0  0  0  0  0  0  0  0  0  0  0
  160.6940  207.6620  155.8570 C   0  0  0  0  0  3  0  0  0  0  0  0
  161.1580  208.5900  153.2230 C   0  0  0  0  0  0  0  0  0  0  0  0
  161.2030  206.7080  151.1530 C   0  0  0  0  0  0  0  0  0  0  0  0
  161.0220  203.3870  150.8320 O   0  0  0  0  0  0  0  0  0  0  0  0
  161.2730  205.6220  150.3550 N   0  0  0  0  0  0  0  0  0  0  0  0
  160.4330  206.2050  146.7940 C   0  0  0  0  0  2  0  0  0  0  0  0
  163.6990  208.4090  148.0650 O   0  0  0  0  0  1  0  0  0  0  0  0
  160.7280  206.7550  154.8020 C   0  0  0  0  0  3  0  0  0  0  0  0
  160.9510  207.2030  153.4960 C   0  0  0  0  0  0  0  0  0  0  0  0
  162.8670  207.6440  148.8910 C   0  0  2  0  0  3  0  0  0  0  0  0
  161.3670  212.2470  149.9580 C   0  0  0  0  0  2  0  0  0  0  0  0
  160.0160  214.2640  150.5320 C   0  0  0  0  0  1  0  0  0  0  0  0
  160.2380  212.7910  150.8200 C   0  0  0  0  0  2  0  0  0  0  0  0
  1 19  1  0  0  0  0
  2 13  1  0  0  0  0
  4 20  1  0  0  0  0
  4  1  2  0  0  0  0
  5  1  1  0  0  0  0
  6  8  2  0  0  0  0
  7 15  1  6  0  0  0
  7 27  1  0  0  0  0
  7  9  1  0  0  0  0
  8 11  1  0  0  0  0
  9 14  1  6  0  0  0
  9 22  1  0  0  0  0
 10  3  1  0  0  0  0
 11  5  1  0  0  0  0
 12  8  1  1  0  0  0
 12  4  1  0  0  0  0
 13 18  2  0  0  0  0
 16  2  1  0  0  0  0
 17  3  1  0  0  0  0
 17 26  1  0  0  0  0
 19 26  1  0  0  0  0
 19  2  2  0  0  0  0
 20 17  2  0  0  0  0
 21 10  2  0  0  0  0
 22 20  1  0  0  0  0
 22 10  1  0  0  0  0
 23 15  1  0  0  0  0
 23 14  1  0  0  0  0
 25 18  1  0  0  0  0
 26 25  2  0  0  0  0
 27 24  1  6  0  0  0
 27 12  1  0  0  0  0
 28 11  1  0  0  0  0
 28 30  1  0  0  0  0
 29 30  1  0  0  0  0
M  END
>  <MODEL>
4

>  <REMARK>
 VINA RESULT:      -5.9      2.132      5.334
  Name = 
  2 active torsions:
  status: ('A' for Active; 'I' for Inactive)
    1  A    between atoms: N_11  and  C_28
    2  A    between atoms: C_28  and  C_30
                            x       y       z     vdW  Elec       q    Type
                         _______ _______ _______ _____ _____    ______ ____

>  <TORSDO>
F 2

$$$$
=
 OpenBabel11122412303D

 30 35  0  0  1  0  0  0  0  0999 V2000
  161.3650  206.2790  150.0620 C   0  0  0  0  0  0  0  0  0  0  0  0
  161.2520  207.2800  152.3630 C   0  0  0  0  0  0  0  0  0  0  0  0
  160.8660  202.4680  151.5690 N   0  0  0  0  0  2  0  0  0  0  0  0
  161.2500  205.1240  149.2400 C   0  0  0  0  0  0  0  0  0  0  0  0
  161.8340  207.5660  149.4350 C   0  0  0  0  0  2  0  0  0  0  0  0
  161.2400  206.7170  145.9340 O   0  0  0  0  0  0  0  0  0  0  0  0
  162.1040  202.8660  146.9710 C   0  0  1  0  0  3  0  0  0  0  0  0
  161.3720  206.5640  147.1790 C   0  0  0  0  0  0  0  0  0  0  0  0
  161.0510  202.2400  147.9020 C   0  0  2  0  0  3  0  0  0  0  0  0
  160.9290  201.8300  150.3740 C   0  0  0  0  0  0  0  0  0  0  0  0
  161.4100  207.7030  148.0460 N   0  0  0  0  0  0  0  0  0  0  0  0
  161.4010  205.1750  147.7490 C   0  0  1  0  0  3  0  0  0  0  0  0
  161.1180  207.0970  153.7430 C   0  0  0  0  0  3  0  0  0  0  0  0
  159.7060  202.4990  147.2660 C   0  0  0  0  0  2  0  0  0  0  0  0
  161.4470  202.8630  145.5930 C   0  0  0  0  0  2  0  0  0  0  0  0
  161.4110  208.5800  151.8980 O   0  0  0  0  0  1  0  0  0  0  0  0
  160.9720  203.7650  151.2150 C   0  0  0  0  0  0  0  0  0  0  0  0
  160.9350  205.8250  154.2810 C   0  0  0  0  0  3  0  0  0  0  0  0
  161.2080  206.1640  151.4840 C   0  0  0  0  0  0  0  0  0  0  0  0
  161.0800  203.8870  149.8620 C   0  0  0  0  0  0  0  0  0  0  0  0
  160.8440  200.5790  150.2680 O   0  0  0  0  0  0  0  0  0  0  0  0
  161.0800  202.6560  149.3110 N   0  0  0  0  0  0  0  0  0  0  0  0
  159.9800  202.4950  145.7760 C   0  0  0  0  0  2  0  0  0  0  0  0
  163.3530  204.8350  146.3140 O   0  0  0  0  0  1  0  0  0  0  0  0
  160.8800  204.7140  153.4430 C   0  0  0  0  0  3  0  0  0  0  0  0
  161.0090  204.8720  152.0590 C   0  0  0  0  0  0  0  0  0  0  0  0
  162.5790  204.2830  147.3400 C   0  0  2  0  0  3  0  0  0  0  0  0
  161.2060  209.0430  147.5110 C   0  0  0  0  0  2  0  0  0  0  0  0
  161.5810  211.4770  147.9100 C   0  0  0  0  0  1  0  0  0  0  0  0
  161.9470  210.0720  148.3510 C   0  0  0  0  0  2  0  0  0  0  0  0
  1 19  1  0  0  0  0
  2 13  1  0  0  0  0
  4 20  1  0  0  0  0
  4  1  2  0  0  0  0
  5  1  1  0  0  0  0
  6  8  2  0  0  0  0
  7 15  1  6  0  0  0
  7 27  1  0  0  0  0
  7  9  1  0  0  0  0
  8 11  1  0  0  0  0
  9 14  1  6  0  0  0
  9 22  1  0  0  0  0
 10  3  1  0  0  0  0
 11  5  1  0  0  0  0
 12  8  1  1  0  0  0
 12  4  1  0  0  0  0
 13 18  2  0  0  0  0
 15 23  1  0  0  0  0
 16  2  1  0  0  0  0
 17  3  1  0  0  0  0
 17 26  1  0  0  0  0
 19 26  1  0  0  0  0
 19  2  2  0  0  0  0
 20 17  2  0  0  0  0
 21 10  2  0  0  0  0
 22 20  1  0  0  0  0
 22 10  1  0  0  0  0
 23 14  1  0  0  0  0
 25 18  1  0  0  0  0
 26 25  2  0  0  0  0
 27 24  1  6  0  0  0
 27 12  1  0  0  0  0
 28 11  1  0  0  0  0
 28 30  1  0  0  0  0
 29 30  1  0  0  0  0
M  END
>  <MODEL>
5

>  <REMARK>
 VINA RESULT:      -5.8      2.727      6.571
  Name = 
  2 active torsions:
  status: ('A' for Active; 'I' for Inactive)
    1  A    between atoms: N_11  and  C_28
    2  A    between atoms: C_28  and  C_30
                            x       y       z     vdW  Elec       q    Type
                         _______ _______ _______ _____ _____    ______ ____

>  <TORSDO>
F 2

$$$$
=
 OpenBabel11122412303D

 30 35  0  0  1  0  0  0  0  0999 V2000
  161.3780  210.4250  151.2130 C   0  0  0  0  0  0  0  0  0  0  0  0
  161.8670  211.1260  148.8500 C   0  0  0  0  0  0  0  0  0  0  0  0
  159.3340  213.9340  151.9550 N   0  0  0  0  0  2  0  0  0  0  0  0
  160.7110  210.6940  152.4400 C   0  0  0  0  0  0  0  0  0  0  0  0
  162.3300  209.2590  151.1510 C   0  0  0  0  0  2  0  0  0  0  0  0
  161.2020  207.4750  154.1300 O   0  0  0  0  0  0  0  0  0  0  0  0
  160.3270  211.1380  155.7000 C   0  0  1  0  0  3  0  0  0  0  0  0
  161.3300  208.4080  153.2930 C   0  0  0  0  0  0  0  0  0  0  0  0
  159.1660  211.8440  154.9780 C   0  0  2  0  0  3  0  0  0  0  0  0
  159.0310  213.6550  153.2460 C   0  0  0  0  0  0  0  0  0  0  0  0
  161.9240  208.1560  152.0150 N   0  0  0  0  0  0  0  0  0  0  0  0
  160.7740  209.7660  153.6160 C   0  0  1  0  0  3  0  0  0  0  0  0
  161.7520  212.0840  147.8390 C   0  0  0  0  0  3  0  0  0  0  0  0
  158.0400  210.8420  154.8930 C   0  0  0  0  0  2  0  0  0  0  0  0
  159.6520  210.0690  156.5550 C   0  0  0  0  0  2  0  0  0  0  0  0
  162.5580  209.9570  148.5570 O   0  0  0  0  0  1  0  0  0  0  0  0
  159.9830  212.8200  151.5590 C   0  0  0  0  0  0  0  0  0  0  0  0
  161.0580  213.2720  148.0540 C   0  0  0  0  0  3  0  0  0  0  0  0
  161.2770  211.3540  150.1230 C   0  0  0  0  0  0  0  0  0  0  0  0
  160.0480  211.9150  152.5750 C   0  0  0  0  0  0  0  0  0  0  0  0
  158.3920  214.4530  153.9810 O   0  0  0  0  0  0  0  0  0  0  0  0
  159.4660  212.4440  153.6700 N   0  0  0  0  0  0  0  0  0  0  0  0
  158.1900  209.9920  156.1370 C   0  0  0  0  0  2  0  0  0  0  0  0
  162.2770  209.7090  155.5450 O   0  0  0  0  0  1  0  0  0  0  0  0
  160.4630  213.5180  149.2880 C   0  0  0  0  0  3  0  0  0  0  0  0
  160.5600  212.5750  150.3160 C   0  0  0  0  0  0  0  0  0  0  0  0
  161.4050  210.5090  154.7980 C   0  0  2  0  0  3  0  0  0  0  0  0
  162.3050  206.8000  151.6350 C   0  0  0  0  0  2  0  0  0  0  0  0
  161.0350  204.6950  151.2110 C   0  0  0  0  0  1  0  0  0  0  0  0
  161.2050  206.1480  150.8110 C   0  0  0  0  0  2  0  0  0  0  0  0
  1  4  1  0  0  0  0
  2 19  1  0  0  0  0
  3 10  1  0  0  0  0
  4 20  2  0  0  0  0
  5  1  1  0  0  0  0
  5 11  1  0  0  0  0
  7 15  1  6  0  0  0
  8 12  1  0  0  0  0
  8  6  2  0  0  0  0
  9 14  1  6  0  0  0
  9  7  1  0  0  0  0
 10 22  1  0  0  0  0
 10 21  2  0  0  0  0
 11  8  1  0  0  0  0
 12  4  1  6  0  0  0
 12 27  1  0  0  0  0
 13 18  1  0  0  0  0
 13  2  2  0  0  0  0
 14 23  1  0  0  0  0
 16  2  1  0  0  0  0
 17  3  1  0  0  0  0
 17 20  1  0  0  0  0
 18 25  2  0  0  0  0
 19 26  1  0  0  0  0
 19  1  2  0  0  0  0
 20 22  1  0  0  0  0
 22  9  1  0  0  0  0
 23 15  1  0  0  0  0
 25 26  1  0  0  0  0
 26 17  2  0  0  0  0
 27 24  1  1  0  0  0
 27  7  1  0  0  0  0
 28 11  1  0  0  0  0
 30 29  1  0  0  0  0
 30 28  1  0  0  0  0
M  END
>  <MODEL>
6

>  <REMARK>
 VINA RESULT:      -5.0      2.404      5.752
  Name = 
  2 active torsions:
  status: ('A' for Active; 'I' for Inactive)
    1  A    between atoms: N_11  and  C_28
    2  A    between atoms: C_28  and  C_30
                            x       y       z     vdW  Elec       q    Type
                         _______ _______ _______ _____ _____    ______ ____

>  <TORSDO>
F 2

$$$$
=
 OpenBabel11122412303D

 30 35  0  0  1  0  0  0  0  0999 V2000
  159.1880  212.6040  151.6760 C   0  0  0  0  0  0  0  0  0  0  0  0
  159.5630  213.1490  149.2520 C   0  0  0  0  0  0  0  0  0  0  0  0
  155.4360  214.3250  151.6030 N   0  0  0  0  0  2  0  0  0  0  0  0
  158.3010  212.5890  152.7880 C   0  0  0  0  0  0  0  0  0  0  0  0
  160.6270  212.2150  151.8960 C   0  0  0  0  0  2  0  0  0  0  0  0
  160.2460  210.5080  155.1000 O   0  0  0  0  0  0  0  0  0  0  0  0
  157.2250  213.1400  155.8720 C   0  0  1  0  0  3  0  0  0  0  0  0
  159.9570  211.2240  154.1040 C   0  0  0  0  0  0  0  0  0  0  0  0
  156.0000  212.9380  154.9630 C   0  0  2  0  0  3  0  0  0  0  0  0
  155.1440  214.0900  152.9050 C   0  0  0  0  0  0  0  0  0  0  0  0
  160.7830  211.2040  152.9350 N   0  0  0  0  0  0  0  0  0  0  0  0
  158.6900  212.0320  154.1240 C   0  0  1  0  0  3  0  0  0  0  0  0
  159.0900  213.7210  148.0670 C   0  0  0  0  0  3  0  0  0  0  0  0
  155.6650  211.4670  155.0150 C   0  0  0  0  0  2  0  0  0  0  0  0
  157.1450  211.9980  156.8810 C   0  0  0  0  0  2  0  0  0  0  0  0
  160.8280  212.5750  149.2310 O   0  0  0  0  0  1  0  0  0  0  0  0
  156.6520  213.7590  151.4680 C   0  0  0  0  0  0  0  0  0  0  0  0
  157.8230  214.2980  148.0070 C   0  0  0  0  0  3  0  0  0  0  0  0
  158.7550  213.1510  150.4210 C   0  0  0  0  0  0  0  0  0  0  0  0
  157.0550  213.2000  152.6440 C   0  0  0  0  0  0  0  0  0  0  0  0
  154.0600  214.4530  153.4330 O   0  0  0  0  0  0  0  0  0  0  0  0
  156.1120  213.4270  153.5820 N   0  0  0  0  0  0  0  0  0  0  0  0
  156.0690  211.0310  156.4080 C   0  0  0  0  0  2  0  0  0  0  0  0
  159.6360  213.1090  156.1060 O   0  0  0  0  0  1  0  0  0  0  0  0
  157.0070  214.3070  149.1340 C   0  0  0  0  0  3  0  0  0  0  0  0
  157.4550  213.7390  150.3310 C   0  0  0  0  0  0  0  0  0  0  0  0
  158.5960  213.1470  155.1710 C   0  0  2  0  0  3  0  0  0  0  0  0
  161.9150  210.2890  152.8500 C   0  0  0  0  0  2  0  0  0  0  0  0
  160.7640  208.2190  152.0650 C   0  0  0  0  0  1  0  0  0  0  0  0
  161.7340  209.3230  151.6890 C   0  0  0  0  0  2  0  0  0  0  0  0
  1  5  1  0  0  0  0
  1  4  1  0  0  0  0
  2 19  1  0  0  0  0
  3 10  1  0  0  0  0
  5 11  1  0  0  0  0
  7 15  1  1  0  0  0
  8 12  1  0  0  0  0
  8  6  2  0  0  0  0
  9 14  1  6  0  0  0
  9  7  1  0  0  0  0
 10 21  2  0  0  0  0
 10 22  1  0  0  0  0
 11  8  1  0  0  0  0
 12  4  1  6  0  0  0
 12 27  1  0  0  0  0
 13  2  2  0  0  0  0
 14 23  1  0  0  0  0
 16  2  1  0  0  0  0
 17  3  1  0  0  0  0
 17 20  1  0  0  0  0
 18 13  1  0  0  0  0
 18 25  2  0  0  0  0
 19  1  2  0  0  0  0
 20  4  2  0  0  0  0
 20 22  1  0  0  0  0
 22  9  1  0  0  0  0
 23 15  1  0  0  0  0
 25 26  1  0  0  0  0
 26 19  1  0  0  0  0
 26 17  2  0  0  0  0
 27  7  1  0  0  0  0
 27 24  1  1  0  0  0
 28 11  1  0  0  0  0
 30 29  1  0  0  0  0
 30 28  1  0  0  0  0
M  END
>  <MODEL>
7

>  <REMARK>
 VINA RESULT:      -5.0      4.207      7.139
  Name = 
  2 active torsions:
  status: ('A' for Active; 'I' for Inactive)
    1  A    between atoms: N_11  and  C_28
    2  A    between atoms: C_28  and  C_30
                            x       y       z     vdW  Elec       q    Type
                         _______ _______ _______ _____ _____    ______ ____

>  <TORSDO>
F 2

$$$$
=
 OpenBabel11122412303D

 30 35  0  0  1  0  0  0  0  0999 V2000
  160.6410  209.4660  153.6410 C   0  0  0  0  0  0  0  0  0  0  0  0
  160.0580  209.3980  156.0840 C   0  0  0  0  0  0  0  0  0  0  0  0
  161.2910  205.3900  153.5630 N   0  0  0  0  0  2  0  0  0  0  0  0
  160.9580  208.7500  152.4540 C   0  0  0  0  0  0  0  0  0  0  0  0
  160.7130  210.9710  153.6160 C   0  0  0  0  0  2  0  0  0  0  0  0
  160.6610  211.4590  149.9980 O   0  0  0  0  0  0  0  0  0  0  0  0
  162.6430  207.9020  149.7300 C   0  0  1  0  0  3  0  0  0  0  0  0
  160.7510  210.8650  151.1070 C   0  0  0  0  0  0  0  0  0  0  0  0
  161.7860  206.6990  150.1610 C   0  0  2  0  0  3  0  0  0  0  0  0
  161.6350  205.3230  152.2540 C   0  0  0  0  0  0  0  0  0  0  0  0
  160.3630  211.5290  152.3150 N   0  0  0  0  0  0  0  0  0  0  0  0
  161.1860  209.4280  151.1370 C   0  0  1  0  0  3  0  0  0  0  0  0
  159.8960  208.6520  157.2550 C   0  0  0  0  0  3  0  0  0  0  0  0
  160.4750  206.8170  149.4200 C   0  0  0  0  0  2  0  0  0  0  0  0
  162.1160  208.2710  148.3460 C   0  0  0  0  0  2  0  0  0  0  0  0
  159.8220  210.7660  156.1530 O   0  0  0  0  0  1  0  0  0  0  0  0
  160.9990  206.6960  153.7230 C   0  0  0  0  0  0  0  0  0  0  0  0
  160.0960  207.2730  157.2580 C   0  0  0  0  0  3  0  0  0  0  0  0
  160.4340  208.7570  154.8720 C   0  0  0  0  0  0  0  0  0  0  0  0
  161.1530  207.3710  152.5500 C   0  0  0  0  0  0  0  0  0  0  0  0
  161.9630  204.2450  151.6930 O   0  0  0  0  0  0  0  0  0  0  0  0
  161.5850  206.5110  151.6040 N   0  0  0  0  0  0  0  0  0  0  0  0
  160.8360  207.4810  148.1080 C   0  0  0  0  0  2  0  0  0  0  0  0
  163.2350  210.2270  150.0670 O   0  0  0  0  0  1  0  0  0  0  0  0
  160.4570  206.6180  156.0840 C   0  0  0  0  0  3  0  0  0  0  0  0
  160.6210  207.3410  154.8980 C   0  0  0  0  0  0  0  0  0  0  0  0
  162.6120  209.1260  150.6640 C   0  0  2  0  0  3  0  0  0  0  0  0
  159.7760  212.8630  152.2660 C   0  0  0  0  0  2  0  0  0  0  0  0
  158.5140  213.9580  154.1190 C   0  0  0  0  0  1  0  0  0  0  0  0
  158.4640  212.8980  153.0350 C   0  0  0  0  0  2  0  0  0  0  0  0
  1 19  1  0  0  0  0
  2 16  1  0  0  0  0
  2 13  1  0  0  0  0
  3 17  1  0  0  0  0
  4 20  1  0  0  0  0
  4  1  2  0  0  0  0
  5  1  1  0  0  0  0
  6  8  2  0  0  0  0
  7 15  1  6  0  0  0
  7  9  1  0  0  0  0
  7 27  1  0  0  0  0
  8 11  1  0  0  0  0
  9 14  1  6  0  0  0
  9 22  1  0  0  0  0
 10  3  1  0  0  0  0
 11  5  1  0  0  0  0
 12  8  1  1  0  0  0
 12  4  1  0  0  0  0
 13 18  2  0  0  0  0
 17 26  1  0  0  0  0
 19 26  1  0  0  0  0
 19  2  2  0  0  0  0
 20 17  2  0  0  0  0
 21 10  2  0  0  0  0
 22 10  1  0  0  0  0
 22 20  1  0  0  0  0
 23 15  1  0  0  0  0
 23 14  1  0  0  0  0
 25 18  1  0  0  0  0
 26 25  2  0  0  0  0
 27 24  1  6  0  0  0
 27 12  1  0  0  0  0
 28 11  1  0  0  0  0
 28 30  1  0  0  0  0
 30 29  1  0  0  0  0
M  END
>  <MODEL>
8

>  <REMARK>
 VINA RESULT:      -5.0      2.120      5.310
  Name = 
  2 active torsions:
  status: ('A' for Active; 'I' for Inactive)
    1  A    between atoms: N_11  and  C_28
    2  A    between atoms: C_28  and  C_30
                            x       y       z     vdW  Elec       q    Type
                         _______ _______ _______ _____ _____    ______ ____

>  <TORSDO>
F 2

$$$$
=
 OpenBabel11122412303D

 30 35  0  0  1  0  0  0  0  0999 V2000
  161.6490  206.6050  148.6610 C   0  0  0  0  0  0  0  0  0  0  0  0
  161.6860  205.5100  146.4000 C   0  0  0  0  0  0  0  0  0  0  0  0
  160.8560  203.0070  150.5210 N   0  0  0  0  0  2  0  0  0  0  0  0
  161.5660  206.4590  150.0730 C   0  0  0  0  0  0  0  0  0  0  0  0
  161.6490  207.9950  148.0790 C   0  0  0  0  0  2  0  0  0  0  0  0
  162.5050  209.8530  151.1030 O   0  0  0  0  0  0  0  0  0  0  0  0
  160.4760  206.9720  153.1600 C   0  0  1  0  0  3  0  0  0  0  0  0
  162.1520  208.8890  150.3720 C   0  0  0  0  0  0  0  0  0  0  0  0
  161.1670  205.5970  153.1140 C   0  0  2  0  0  3  0  0  0  0  0  0
  160.8010  203.5030  151.7810 C   0  0  0  0  0  0  0  0  0  0  0  0
  162.2970  208.9690  148.9490 N   0  0  0  0  0  0  0  0  0  0  0  0
  161.6590  207.6230  151.0130 C   0  0  1  0  0  3  0  0  0  0  0  0
  161.5570  204.3500  145.6300 C   0  0  0  0  0  3  0  0  0  0  0  0
  162.6100  205.8280  153.4910 C   0  0  0  0  0  2  0  0  0  0  0  0
  161.3060  207.7840  154.1500 C   0  0  0  0  0  2  0  0  0  0  0  0
  161.9600  206.6990  145.7350 O   0  0  0  0  0  1  0  0  0  0  0  0
  161.1620  204.0960  149.7890 C   0  0  0  0  0  0  0  0  0  0  0  0
  161.3030  203.1180  146.2290 C   0  0  0  0  0  3  0  0  0  0  0  0
  161.5540  205.4500  147.8140 C   0  0  0  0  0  0  0  0  0  0  0  0
  161.2960  205.1910  150.5890 C   0  0  0  0  0  0  0  0  0  0  0  0
  160.5550  202.7830  152.7840 O   0  0  0  0  0  0  0  0  0  0  0  0
  161.0420  204.8340  151.8650 N   0  0  0  0  0  0  0  0  0  0  0  0
  162.5720  206.9940  154.4570 C   0  0  0  0  0  2  0  0  0  0  0  0
  159.9260  209.0330  152.0110 O   0  0  0  0  0  1  0  0  0  0  0  0
  161.1760  203.0290  147.6130 C   0  0  0  0  0  3  0  0  0  0  0  0
  161.3040  204.1740  148.4060 C   0  0  0  0  0  0  0  0  0  0  0  0
  160.3570  207.7150  151.8170 C   0  0  2  0  0  3  0  0  0  0  0  0
  162.9380  210.1290  148.3390 C   0  0  0  0  0  2  0  0  0  0  0  0
  162.7070  212.5810  147.9420 C   0  0  0  0  0  1  0  0  0  0  0  0
  161.9660  211.2960  148.2620 C   0  0  0  0  0  2  0  0  0  0  0  0
  1  4  1  0  0  0  0
  2 19  1  0  0  0  0
  3 10  1  0  0  0  0
  4 20  2  0  0  0  0
  5  1  1  0  0  0  0
  5 11  1  0  0  0  0
  7 15  1  1  0  0  0
  8 12  1  0  0  0  0
  8  6  2  0  0  0  0
  9  7  1  0  0  0  0
  9 14  1  6  0  0  0
 10 22  1  0  0  0  0
 10 21  2  0  0  0  0
 11  8  1  0  0  0  0
 12  4  1  6  0  0  0
 12 27  1  0  0  0  0
 13 18  1  0  0  0  0
 13  2  2  0  0  0  0
 14 23  1  0  0  0  0
 15 23  1  0  0  0  0
 16  2  1  0  0  0  0
 17  3  1  0  0  0  0
 17 20  1  0  0  0  0
 18 25  2  0  0  0  0
 19 26  1  0  0  0  0
 19  1  2  0  0  0  0
 20 22  1  0  0  0  0
 22  9  1  0  0  0  0
 25 26  1  0  0  0  0
 26 17  2  0  0  0  0
 27 24  1  1  0  0  0
 27  7  1  0  0  0  0
 28 11  1  0  0  0  0
 29 30  1  0  0  0  0
 30 28  1  0  0  0  0
M  END
>  <MODEL>
9

>  <REMARK>
 VINA RESULT:      -4.6      2.232      3.406
  Name = 
  2 active torsions:
  status: ('A' for Active; 'I' for Inactive)
    1  A    between atoms: N_11  and  C_28
    2  A    between atoms: C_28  and  C_30
                            x       y       z     vdW  Elec       q    Type
                         _______ _______ _______ _____ _____    ______ ____

>  <TORSDO>
F 2

$$$$
