=
 OpenBabel11122414123D

 28 33  0  0  1  0  0  0  0  0999 V2000
  160.8310  207.6700  151.9500 C   0  0  0  0  0  0  0  0  0  0  0  0
  158.4030  210.7350  153.0890 O   0  0  0  0  0  0  0  0  0  0  0  0
  160.6930  211.0500  147.2110 O   0  0  0  0  0  1  0  0  0  0  0  0
  161.3730  208.2340  154.6380 C   0  0  0  0  0  3  0  0  0  0  0  0
  162.3650  211.9270  148.6610 C   0  0  1  0  0  3  0  0  0  0  0  0
  160.6240  207.3790  150.4920 C   0  0  1  0  0  3  0  0  0  0  0  0
  159.3690  212.8390  153.8920 O   0  0  0  0  0  0  0  0  0  0  0  0
  159.1560  211.9710  152.6850 S   0  0  0  0  0  0  0  0  0  0  0  0
  159.1530  213.6900  150.6280 C   0  0  2  0  0  3  0  0  0  0  0  0
  160.7530  211.5460  151.9860 C   0  0  2  0  0  3  0  0  0  0  0  0
  163.1240  207.4880  150.6240 O   0  0  0  0  0  1  0  0  0  0  0  0
  161.8970  210.2140  150.3010 C   0  0  2  0  0  3  0  0  0  0  0  0
  160.0840  212.7940  149.9570 N   0  0  0  0  0  2  0  0  0  0  0  0
  158.2060  212.8730  151.4840 C   0  0  0  0  0  2  0  0  0  0  0  0
  161.9910  207.4480  149.8000 C   0  0  2  0  0  0  0  0  0  0  0  0
  160.9840  209.0160  152.3640 C   0  0  0  0  0  0  0  0  0  0  0  0
  161.7910  210.6910  147.9920 C   0  0  1  0  0  3  0  0  0  0  0  0
  158.3580  214.4530  149.5920 C   0  0  0  0  0  1  0  0  0  0  0  0
  161.9560  208.4350  148.6360 C   0  0  0  0  0  2  0  0  0  0  0  0
  161.2670  209.2780  153.7150 C   0  0  0  0  0  3  0  0  0  0  0  0
  160.9280  206.6300  152.8830 C   0  0  0  0  0  3  0  0  0  0  0  0
  161.1960  206.9130  154.2240 C   0  0  0  0  0  3  0  0  0  0  0  0
  161.2480  206.1360  149.8620 C   0  0  0  0  0  2  0  0  0  0  0  0
  162.2750  211.6730  150.1490 C   0  0  2  0  0  3  0  0  0  0  0  0
  161.3720  209.7350  149.0130 N   0  0  1  0  0  0  0  0  0  0  0  0
  161.1950  212.4900  150.8680 C   0  0  2  0  0  3  0  0  0  0  0  0
  163.8180  212.0870  148.2610 C   0  0  0  0  0  1  0  0  0  0  0  0
  160.7970  210.1540  151.3690 C   0  0  1  0  0  3  0  0  0  0  0  0
  1 16  2  0  0  0  0
  1 21  1  0  0  0  0
  3 17  1  0  0  0  0
  5 27  1  6  0  0  0
  5 24  1  0  0  0  0
  6 23  1  1  0  0  0
  6  1  1  0  0  0  0
  8  2  2  0  0  0  0
  8  7  2  0  0  0  0
  9 18  1  6  0  0  0
  9 14  1  0  0  0  0
 10  8  1  6  0  0  0
 12 28  1  0  0  0  0
 13  9  1  0  0  0  0
 13 26  1  0  0  0  0
 14  8  1  0  0  0  0
 15 23  1  0  0  0  0
 15  6  1  0  0  0  0
 15 11  1  0  0  0  0
 16 20  1  0  0  0  0
 17  5  1  0  0  0  0
 17 25  1  0  0  0  0
 19 25  1  0  0  0  0
 19 15  1  0  0  0  0
 20  4  2  0  0  0  0
 21 22  2  0  0  0  0
 22  4  1  0  0  0  0
 24 12  1  0  0  0  0
 24 26  1  0  0  0  0
 25 12  1  0  0  0  0
 26 10  1  0  0  0  0
 28 10  1  0  0  0  0
 28 16  1  0  0  0  0
M  END
>  <MODEL>
1

>  <REMARK>
 VINA RESULT:      -2.9      0.000      0.000
  Name = 
  0 active torsions:
  status: ('A' for Active; 'I' for Inactive)
                            x       y       z     vdW  Elec       q    Type
                         _______ _______ _______ _____ _____    ______ ____

>  <TORSDO>
F 0

$$$$
=
 OpenBabel11122414123D

 28 33  0  0  1  0  0  0  0  0999 V2000
  159.4990  211.4380  152.0480 C   0  0  0  0  0  0  0  0  0  0  0  0
  160.4640  208.1600  149.8330 O   0  0  0  0  0  0  0  0  0  0  0  0
  158.9560  207.0800  155.8710 O   0  0  0  0  0  1  0  0  0  0  0  0
  161.5740  212.1610  150.3130 C   0  0  0  0  0  3  0  0  0  0  0  0
  161.2530  207.7030  155.8240 C   0  0  1  0  0  3  0  0  0  0  0  0
  158.4340  211.0780  153.0440 C   0  0  1  0  0  3  0  0  0  0  0  0
  162.7300  207.2330  149.9280 O   0  0  0  0  0  0  0  0  0  0  0  0
  161.4480  207.4130  150.6890 S   0  0  0  0  0  0  0  0  0  0  0  0
  161.3980  205.3500  152.3990 C   0  0  2  0  0  3  0  0  0  0  0  0
  161.7920  208.3170  152.2010 C   0  0  2  0  0  3  0  0  0  0  0  0
  160.0810  212.2850  154.4960 O   0  0  0  0  0  1  0  0  0  0  0  0
  160.8030  209.3880  154.1500 C   0  0  2  0  0  3  0  0  0  0  0  0
  161.0720  206.3060  153.4480 N   0  0  0  0  0  2  0  0  0  0  0  0
  160.7840  205.8160  151.0940 C   0  0  0  0  0  2  0  0  0  0  0  0
  158.9400  211.4750  154.4360 C   0  0  2  0  0  0  0  0  0  0  0  0
  160.6150  210.5790  151.8980 C   0  0  0  0  0  0  0  0  0  0  0  0
  159.8140  208.1780  155.9190 C   0  0  1  0  0  3  0  0  0  0  0  0
  160.8310  203.9950  152.7620 C   0  0  0  0  0  1  0  0  0  0  0  0
  158.9000  210.2780  155.3840 C   0  0  0  0  0  2  0  0  0  0  0  0
  161.6510  210.9650  151.0320 C   0  0  0  0  0  3  0  0  0  0  0  0
  159.4230  212.6300  151.3160 C   0  0  0  0  0  3  0  0  0  0  0  0
  160.4580  212.9880  150.4500 C   0  0  0  0  0  3  0  0  0  0  0  0
  157.7360  212.1710  153.8500 C   0  0  0  0  0  2  0  0  0  0  0  0
  161.8270  208.3610  154.5890 C   0  0  2  0  0  3  0  0  0  0  0  0
  159.5230  209.0750  154.8030 N   0  0  1  0  0  0  0  0  0  0  0  0
  162.0400  207.4100  153.4050 C   0  0  2  0  0  3  0  0  0  0  0  0
  162.0180  208.1680  157.0470 C   0  0  0  0  0  1  0  0  0  0  0  0
  160.6620  209.2430  152.6290 C   0  0  1  0  0  3  0  0  0  0  0  0
  1  6  1  0  0  0  0
  2  8  2  0  0  0  0
  3 17  1  0  0  0  0
  4 22  2  0  0  0  0
  4 20  1  0  0  0  0
  5 17  1  0  0  0  0
  5 27  1  1  0  0  0
  6 23  1  6  0  0  0
  6 15  1  0  0  0  0
  7  8  2  0  0  0  0
  8 14  1  0  0  0  0
  9 18  1  1  0  0  0
  9 13  1  0  0  0  0
 10  8  1  6  0  0  0
 10 28  1  0  0  0  0
 10 26  1  0  0  0  0
 12 24  1  0  0  0  0
 12 25  1  0  0  0  0
 14  9  1  0  0  0  0
 15 11  1  0  0  0  0
 15 19  1  0  0  0  0
 16  1  1  0  0  0  0
 16 28  1  0  0  0  0
 20 16  2  0  0  0  0
 21  1  2  0  0  0  0
 22 21  1  0  0  0  0
 23 15  1  0  0  0  0
 24  5  1  0  0  0  0
 25 19  1  0  0  0  0
 25 17  1  0  0  0  0
 26 13  1  0  0  0  0
 26 24  1  0  0  0  0
 28 12  1  0  0  0  0
M  END
>  <MODEL>
2

>  <REMARK>
 VINA RESULT:      -2.8      2.632      6.782
  Name = 
  0 active torsions:
  status: ('A' for Active; 'I' for Inactive)
                            x       y       z     vdW  Elec       q    Type
                         _______ _______ _______ _____ _____    ______ ____

>  <TORSDO>
F 0

$$$$
=
 OpenBabel11122414123D

 28 33  0  0  1  0  0  0  0  0999 V2000
  159.5680  212.5760  150.3190 C   0  0  0  0  0  0  0  0  0  0  0  0
  160.8280  208.7160  150.0110 O   0  0  0  0  0  0  0  0  0  0  0  0
  158.2100  210.3460  155.5230 O   0  0  0  0  0  1  0  0  0  0  0  0
  161.9460  212.5700  148.8410 C   0  0  0  0  0  3  0  0  0  0  0  0
  160.4940  211.0120  155.6100 C   0  0  1  0  0  3  0  0  0  0  0  0
  158.3300  212.6360  151.1660 C   0  0  1  0  0  3  0  0  0  0  0  0
  163.0110  208.0570  150.9080 O   0  0  0  0  0  0  0  0  0  0  0  0
  161.6170  208.4840  151.2690 S   0  0  0  0  0  0  0  0  0  0  0  0
  161.1960  207.3950  153.6810 C   0  0  2  0  0  3  0  0  0  0  0  0
  161.7050  209.9830  152.2520 C   0  0  2  0  0  3  0  0  0  0  0  0
  159.7170  214.4530  152.1910 O   0  0  0  0  0  1  0  0  0  0  0  0
  160.4070  211.7490  153.3090 C   0  0  2  0  0  3  0  0  0  0  0  0
  160.7120  208.6970  154.1170 N   0  0  0  0  0  2  0  0  0  0  0  0
  160.8450  207.1970  152.2210 C   0  0  0  0  0  2  0  0  0  0  0  0
  158.5830  213.6370  152.2990 C   0  0  2  0  0  0  0  0  0  0  0  0
  160.6680  211.8050  150.7680 C   0  0  0  0  0  0  0  0  0  0  0  0
  159.0770  211.3980  155.2270 C   0  0  1  0  0  3  0  0  0  0  0  0
  160.5340  206.3120  154.5050 C   0  0  0  0  0  1  0  0  0  0  0  0
  158.3360  212.9860  153.6580 C   0  0  0  0  0  2  0  0  0  0  0  0
  161.8560  211.8240  150.0190 C   0  0  0  0  0  3  0  0  0  0  0  0
  159.6620  213.3130  149.1310 C   0  0  0  0  0  3  0  0  0  0  0  0
  160.8480  213.3070  148.3950 C   0  0  0  0  0  3  0  0  0  0  0  0
  157.5280  213.9320  151.2620 C   0  0  0  0  0  2  0  0  0  0  0  0
  161.3030  211.0840  154.3330 C   0  0  2  0  0  3  0  0  0  0  0  0
  159.0210  211.6880  153.7960 N   0  0  1  0  0  0  0  0  0  0  0  0
  161.7020  209.7200  153.7580 C   0  0  2  0  0  3  0  0  0  0  0  0
  161.0360  212.0140  156.6090 C   0  0  0  0  0  1  0  0  0  0  0  0
  160.5430  210.9370  152.0140 C   0  0  1  0  0  3  0  0  0  0  0  0
  1 16  1  0  0  0  0
  1  6  1  0  0  0  0
  2  8  2  0  0  0  0
  4 20  1  0  0  0  0
  5 27  1  1  0  0  0
  6 23  1  6  0  0  0
  6 15  1  0  0  0  0
  7  8  2  0  0  0  0
  8 14  1  0  0  0  0
  9 13  1  0  0  0  0
  9 18  1  1  0  0  0
 10  8  1  6  0  0  0
 10 26  1  0  0  0  0
 11 15  1  0  0  0  0
 12 25  1  0  0  0  0
 12 24  1  0  0  0  0
 14  9  1  0  0  0  0
 15 19  1  0  0  0  0
 16 28  1  0  0  0  0
 17  3  1  0  0  0  0
 17  5  1  0  0  0  0
 19 25  1  0  0  0  0
 20 16  2  0  0  0  0
 21  1  2  0  0  0  0
 22  4  2  0  0  0  0
 22 21  1  0  0  0  0
 23 15  1  0  0  0  0
 24  5  1  0  0  0  0
 25 17  1  0  0  0  0
 26 13  1  0  0  0  0
 26 24  1  0  0  0  0
 28 10  1  0  0  0  0
 28 12  1  0  0  0  0
M  END
>  <MODEL>
3

>  <REMARK>
 VINA RESULT:      -2.8      2.286      6.529
  Name = 
  0 active torsions:
  status: ('A' for Active; 'I' for Inactive)
                            x       y       z     vdW  Elec       q    Type
                         _______ _______ _______ _____ _____    ______ ____

>  <TORSDO>
F 0

$$$$
=
 OpenBabel11122414123D

 28 33  0  0  1  0  0  0  0  0999 V2000
  160.8080  209.8160  152.6560 C   0  0  0  0  0  0  0  0  0  0  0  0
  157.3800  212.0140  152.6340 O   0  0  0  0  0  0  0  0  0  0  0  0
  160.4440  211.6010  147.1260 O   0  0  0  0  0  1  0  0  0  0  0  0
  160.6670  211.2010  155.0850 C   0  0  0  0  0  3  0  0  0  0  0  0
  161.4740  213.3490  148.3700 C   0  0  1  0  0  3  0  0  0  0  0  0
  160.9620  209.1090  151.3410 C   0  0  1  0  0  3  0  0  0  0  0  0
  157.4790  214.4530  152.8410 O   0  0  0  0  0  0  0  0  0  0  0  0
  157.7630  213.2890  151.9360 S   0  0  0  0  0  0  0  0  0  0  0  0
  157.5800  214.3100  149.4660 C   0  0  2  0  0  3  0  0  0  0  0  0
  159.5090  213.2880  151.5220 C   0  0  2  0  0  3  0  0  0  0  0  0
  163.2360  210.1200  151.6260 O   0  0  0  0  0  1  0  0  0  0  0  0
  161.2910  212.0610  150.4080 C   0  0  2  0  0  3  0  0  0  0  0  0
  158.8470  213.6590  149.1680 N   0  0  0  0  0  2  0  0  0  0  0  0
  156.8040  213.4600  150.4510 C   0  0  0  0  0  2  0  0  0  0  0  0
  162.3360  209.4740  150.7680 C   0  0  2  0  0  0  0  0  0  0  0  0
  160.4550  211.1880  152.6580 C   0  0  0  0  0  0  0  0  0  0  0  0
  161.4450  211.8630  148.0610 C   0  0  1  0  0  3  0  0  0  0  0  0
  156.7780  214.4530  148.1900 C   0  0  0  0  0  1  0  0  0  0  0  0
  162.1970  210.0540  149.3620 C   0  0  0  0  0  2  0  0  0  0  0  0
  160.4010  211.8680  153.8860 C   0  0  0  0  0  3  0  0  0  0  0  0
  161.0630  209.1520  153.8630 C   0  0  0  0  0  3  0  0  0  0  0  0
  160.9900  209.8440  155.0730 C   0  0  0  0  0  3  0  0  0  0  0  0
  162.0450  208.0470  151.1630 C   0  0  0  0  0  2  0  0  0  0  0  0
  161.2110  213.4690  149.8550 C   0  0  2  0  0  3  0  0  0  0  0  0
  161.1760  211.1160  149.2870 N   0  0  1  0  0  0  0  0  0  0  0  0
  159.8200  214.0090  150.2110 C   0  0  2  0  0  3  0  0  0  0  0  0
  162.8490  213.9020  148.0540 C   0  0  0  0  0  1  0  0  0  0  0  0
  160.0970  211.8930  151.3570 C   0  0  1  0  0  3  0  0  0  0  0  0
  1 16  2  0  0  0  0
  1 21  1  0  0  0  0
  3 17  1  0  0  0  0
  5 27  1  1  0  0  0
  5 24  1  0  0  0  0
  6 23  1  1  0  0  0
  6  1  1  0  0  0  0
  8  2  2  0  0  0  0
  8  7  2  0  0  0  0
  9 18  1  6  0  0  0
  9 14  1  0  0  0  0
 10  8  1  6  0  0  0
 12 28  1  0  0  0  0
 13  9  1  0  0  0  0
 13 26  1  0  0  0  0
 14  8  1  0  0  0  0
 15 23  1  0  0  0  0
 15  6  1  0  0  0  0
 15 11  1  0  0  0  0
 16 20  1  0  0  0  0
 17  5  1  0  0  0  0
 17 25  1  0  0  0  0
 19 15  1  0  0  0  0
 20  4  2  0  0  0  0
 21 22  2  0  0  0  0
 22  4  1  0  0  0  0
 24 26  1  0  0  0  0
 24 12  1  0  0  0  0
 25 19  1  0  0  0  0
 25 12  1  0  0  0  0
 26 10  1  0  0  0  0
 28 10  1  0  0  0  0
 28 16  1  0  0  0  0
M  END
>  <MODEL>
4

>  <REMARK>
 VINA RESULT:      -2.7      1.597      2.168
  Name = 
  0 active torsions:
  status: ('A' for Active; 'I' for Inactive)
                            x       y       z     vdW  Elec       q    Type
                         _______ _______ _______ _____ _____    ______ ____

>  <TORSDO>
F 0

$$$$
=
 OpenBabel11122414123D

 28 33  0  0  1  0  0  0  0  0999 V2000
  161.1380  206.2510  150.2930 C   0  0  0  0  0  0  0  0  0  0  0  0
  159.6420  208.4470  153.3780 O   0  0  0  0  0  0  0  0  0  0  0  0
  160.3260  211.4900  147.8850 O   0  0  0  0  0  1  0  0  0  0  0  0
  162.4530  205.4460  152.6290 C   0  0  0  0  0  3  0  0  0  0  0  0
  162.4430  211.5280  148.9750 C   0  0  1  0  0  3  0  0  0  0  0  0
  160.5100  206.6980  149.0040 C   0  0  1  0  0  3  0  0  0  0  0  0
  161.1220  209.8880  154.6960 O   0  0  0  0  0  0  0  0  0  0  0  0
  160.4570  209.7100  153.3610 S   0  0  0  0  0  0  0  0  0  0  0  0
  160.2020  212.2030  152.4120 C   0  0  2  0  0  3  0  0  0  0  0  0
  161.7200  209.6360  152.0890 C   0  0  2  0  0  3  0  0  0  0  0  0
  162.9390  206.6760  148.3880 O   0  0  0  0  0  1  0  0  0  0  0  0
  162.1430  209.2490  149.7240 C   0  0  2  0  0  3  0  0  0  0  0  0
  160.7600  211.7180  151.1580 N   0  0  0  0  0  2  0  0  0  0  0  0
  159.3900  211.0970  153.0550 C   0  0  0  0  0  2  0  0  0  0  0  0
  161.6390  207.0600  148.0310 C   0  0  2  0  0  0  0  0  0  0  0  0
  161.6170  207.2300  151.1970 C   0  0  0  0  0  0  0  0  0  0  0  0
  161.5150  210.7770  148.0370 C   0  0  1  0  0  3  0  0  0  0  0  0
  159.3010  213.3860  152.1340 C   0  0  0  0  0  1  0  0  0  0  0  0
  161.4650  208.4850  147.5110 C   0  0  0  0  0  2  0  0  0  0  0  0
  162.2850  206.8060  152.3580 C   0  0  0  0  0  3  0  0  0  0  0  0
  161.3020  204.8880  150.5760 C   0  0  0  0  0  3  0  0  0  0  0  0
  161.9560  204.4890  151.7430 C   0  0  0  0  0  3  0  0  0  0  0  0
  160.7300  205.8950  147.7240 C   0  0  0  0  0  2  0  0  0  0  0  0
  162.7060  210.5940  150.1350 C   0  0  2  0  0  3  0  0  0  0  0  0
  161.2260  209.4570  148.5930 N   0  0  1  0  0  0  0  0  0  0  0  0
  162.0050  210.9900  151.4400 C   0  0  2  0  0  3  0  0  0  0  0  0
  163.7450  211.8280  148.2610 C   0  0  0  0  0  1  0  0  0  0  0  0
  161.3680  208.7090  150.9330 C   0  0  1  0  0  3  0  0  0  0  0  0
  1 21  2  0  0  0  0
  1 16  1  0  0  0  0
  3 17  1  0  0  0  0
  5 27  1  6  0  0  0
  5 24  1  0  0  0  0
  6 23  1  6  0  0  0
  6  1  1  0  0  0  0
  8  2  2  0  0  0  0
  8  7  2  0  0  0  0
  9 18  1  6  0  0  0
  9 14  1  0  0  0  0
 10  8  1  1  0  0  0
 12 24  1  0  0  0  0
 12 28  1  0  0  0  0
 13 26  1  0  0  0  0
 13  9  1  0  0  0  0
 14  8  1  0  0  0  0
 15 11  1  0  0  0  0
 15  6  1  0  0  0  0
 16 20  2  0  0  0  0
 17 25  1  0  0  0  0
 17  5  1  0  0  0  0
 19 15  1  0  0  0  0
 19 25  1  0  0  0  0
 20  4  1  0  0  0  0
 21 22  1  0  0  0  0
 22  4  2  0  0  0  0
 23 15  1  0  0  0  0
 24 26  1  0  0  0  0
 25 12  1  0  0  0  0
 26 10  1  0  0  0  0
 28 16  1  0  0  0  0
 28 10  1  0  0  0  0
M  END
>  <MODEL>
5

>  <REMARK>
 VINA RESULT:      -2.0      1.723      2.214
  Name = 
  0 active torsions:
  status: ('A' for Active; 'I' for Inactive)
                            x       y       z     vdW  Elec       q    Type
                         _______ _______ _______ _____ _____    ______ ____

>  <TORSDO>
F 0

$$$$
=
 OpenBabel11122414123D

 28 33  0  0  1  0  0  0  0  0999 V2000
  160.5620  209.2570  154.6470 C   0  0  0  0  0  0  0  0  0  0  0  0
  157.4340  211.0940  156.4980 O   0  0  0  0  0  0  0  0  0  0  0  0
  158.0510  212.2260  150.3140 O   0  0  0  0  0  1  0  0  0  0  0  0
  161.4150  210.0290  157.2000 C   0  0  0  0  0  3  0  0  0  0  0  0
  159.5120  213.7240  151.4490 C   0  0  1  0  0  3  0  0  0  0  0  0
  160.1720  208.8860  153.2460 C   0  0  1  0  0  3  0  0  0  0  0  0
  157.6360  213.4190  157.2420 O   0  0  0  0  0  0  0  0  0  0  0  0
  157.5240  212.5230  156.0420 S   0  0  0  0  0  0  0  0  0  0  0  0
  156.3860  214.0650  154.1690 C   0  0  2  0  0  3  0  0  0  0  0  0
  158.9620  212.7700  154.9960 C   0  0  2  0  0  3  0  0  0  0  0  0
  162.3840  209.9990  152.8640 O   0  0  0  0  0  1  0  0  0  0  0  0
  160.1380  211.9910  153.0140 C   0  0  2  0  0  3  0  0  0  0  0  0
  157.4220  213.6130  153.2530 N   0  0  0  0  0  2  0  0  0  0  0  0
  156.0550  212.9470  155.1370 C   0  0  0  0  0  2  0  0  0  0  0  0
  161.2100  209.4920  152.2930 C   0  0  2  0  0  0  0  0  0  0  0  0
  160.2560  210.5550  155.1230 C   0  0  0  0  0  0  0  0  0  0  0  0
  159.3440  212.3520  150.8200 C   0  0  1  0  0  3  0  0  0  0  0  0
  155.1450  214.4270  153.3820 C   0  0  0  0  0  1  0  0  0  0  0  0
  160.5300  210.3650  151.2400 C   0  0  0  0  0  2  0  0  0  0  0  0
  160.7020  210.9280  156.4020 C   0  0  0  0  0  3  0  0  0  0  0  0
  161.2680  208.3570  155.4570 C   0  0  0  0  0  3  0  0  0  0  0  0
  161.6900  208.7440  156.7310 C   0  0  0  0  0  3  0  0  0  0  0  0
  161.0820  207.9930  152.4060 C   0  0  0  0  0  2  0  0  0  0  0  0
  159.8620  213.4760  152.8990 C   0  0  2  0  0  3  0  0  0  0  0  0
  159.5760  211.3220  151.8300 N   0  0  1  0  0  0  0  0  0  0  0  0
  158.7340  213.7970  153.8870 C   0  0  2  0  0  3  0  0  0  0  0  0
  160.6550  214.4520  150.7700 C   0  0  0  0  0  1  0  0  0  0  0  0
  159.4180  211.5070  154.2790 C   0  0  1  0  0  3  0  0  0  0  0  0
  1 16  2  0  0  0  0
  1 21  1  0  0  0  0
  3 17  1  0  0  0  0
  5 27  1  6  0  0  0
  5 24  1  0  0  0  0
  6 23  1  1  0  0  0
  6  1  1  0  0  0  0
  8  2  2  0  0  0  0
  8  7  2  0  0  0  0
  9 18  1  6  0  0  0
  9 14  1  0  0  0  0
 10  8  1  6  0  0  0
 12 28  1  0  0  0  0
 13 26  1  0  0  0  0
 13  9  1  0  0  0  0
 14  8  1  0  0  0  0
 15 23  1  0  0  0  0
 15 11  1  0  0  0  0
 15  6  1  0  0  0  0
 16 20  1  0  0  0  0
 17  5  1  0  0  0  0
 17 25  1  0  0  0  0
 19 25  1  0  0  0  0
 19 15  1  0  0  0  0
 20  4  2  0  0  0  0
 21 22  2  0  0  0  0
 22  4  1  0  0  0  0
 24 12  1  0  0  0  0
 24 26  1  0  0  0  0
 25 12  1  0  0  0  0
 26 10  1  0  0  0  0
 28 10  1  0  0  0  0
 28 16  1  0  0  0  0
M  END
>  <MODEL>
6

>  <REMARK>
 VINA RESULT:      -1.6      2.713      3.785
  Name = 
  0 active torsions:
  status: ('A' for Active; 'I' for Inactive)
                            x       y       z     vdW  Elec       q    Type
                         _______ _______ _______ _____ _____    ______ ____

>  <TORSDO>
F 0

$$$$
=
 OpenBabel11122414123D

 28 33  0  0  1  0  0  0  0  0999 V2000
  161.0890  206.6930  149.6880 C   0  0  0  0  0  0  0  0  0  0  0  0
  160.1160  206.5130  145.7370 O   0  0  0  0  0  0  0  0  0  0  0  0
  159.1490  201.2380  149.0740 O   0  0  0  0  0  1  0  0  0  0  0  0
  162.9970  208.1740  148.2710 C   0  0  0  0  0  3  0  0  0  0  0  0
  161.4430  201.2520  148.4380 C   0  0  1  0  0  3  0  0  0  0  0  0
  160.1310  205.8530  150.4820 C   0  0  1  0  0  3  0  0  0  0  0  0
  161.6910  205.5530  144.1240 O   0  0  0  0  0  0  0  0  0  0  0  0
  160.7570  205.2400  145.2580 S   0  0  0  0  0  0  0  0  0  0  0  0
  160.0060  202.7060  144.8170 C   0  0  2  0  0  3  0  0  0  0  0  0
  161.6880  204.4580  146.5780 C   0  0  2  0  0  3  0  0  0  0  0  0
  162.3350  205.0770  151.3880 O   0  0  0  0  0  1  0  0  0  0  0  0
  161.5870  203.6280  148.8630 C   0  0  2  0  0  3  0  0  0  0  0  0
  160.3070  202.4370  146.2150 N   0  0  0  0  0  2  0  0  0  0  0  0
  159.4980  204.1270  144.6820 C   0  0  0  0  0  2  0  0  0  0  0  0
  160.9530  204.8590  151.3110 C   0  0  2  0  0  0  0  0  0  0  0  0
  161.6520  206.1560  148.5040 C   0  0  0  0  0  0  0  0  0  0  0  0
  160.4130  201.6720  149.4710 C   0  0  1  0  0  3  0  0  0  0  0  0
  158.9370  201.7470  144.3410 C   0  0  0  0  0  1  0  0  0  0  0  0
  160.5010  203.4260  151.0360 C   0  0  0  0  0  2  0  0  0  0  0  0
  162.6160  206.9090  147.8140 C   0  0  0  0  0  3  0  0  0  0  0  0
  161.4680  207.9660  150.1340 C   0  0  0  0  0  3  0  0  0  0  0  0
  162.4180  208.7040  149.4250 C   0  0  0  0  0  3  0  0  0  0  0  0
  160.1350  205.9190  152.0070 C   0  0  0  0  0  2  0  0  0  0  0  0
  162.0750  202.5320  147.9370 C   0  0  2  0  0  3  0  0  0  0  0  0
  160.4130  203.1280  149.5950 N   0  0  1  0  0  0  0  0  0  0  0  0
  161.6580  202.9310  146.5160 C   0  0  2  0  0  3  0  0  0  0  0  0
  162.5000  200.3920  149.1010 C   0  0  0  0  0  1  0  0  0  0  0  0
  161.1830  204.8090  147.9700 C   0  0  1  0  0  3  0  0  0  0  0  0
  1 21  1  0  0  0  0
  1  6  1  0  0  0  0
  3 17  1  0  0  0  0
  4 22  1  0  0  0  0
  5 27  1  1  0  0  0
  5 17  1  0  0  0  0
  6 15  1  0  0  0  0
  6 23  1  1  0  0  0
  7  8  2  0  0  0  0
  8  2  2  0  0  0  0
  9 18  1  1  0  0  0
  9 13  1  0  0  0  0
 10  8  1  6  0  0  0
 10 28  1  0  0  0  0
 12 25  1  0  0  0  0
 13 26  1  0  0  0  0
 14  9  1  0  0  0  0
 14  8  1  0  0  0  0
 15 11  1  0  0  0  0
 15 23  1  0  0  0  0
 16  1  2  0  0  0  0
 17 25  1  0  0  0  0
 19 15  1  0  0  0  0
 20  4  2  0  0  0  0
 20 16  1  0  0  0  0
 22 21  2  0  0  0  0
 24  5  1  0  0  0  0
 24 12  1  0  0  0  0
 25 19  1  0  0  0  0
 26 10  1  0  0  0  0
 26 24  1  0  0  0  0
 28 16  1  0  0  0  0
 28 12  1  0  0  0  0
M  END
>  <MODEL>
7

>  <REMARK>
 VINA RESULT:      -1.3      4.844      8.419
  Name = 
  0 active torsions:
  status: ('A' for Active; 'I' for Inactive)
                            x       y       z     vdW  Elec       q    Type
                         _______ _______ _______ _____ _____    ______ ____

>  <TORSDO>
F 0

$$$$
=
 OpenBabel11122414123D

 28 33  0  0  1  0  0  0  0  0999 V2000
  161.4570  208.5000  154.7780 C   0  0  0  0  0  0  0  0  0  0  0  0
  162.7300  209.7960  151.1330 O   0  0  0  0  0  0  0  0  0  0  0  0
  159.6780  214.0440  154.6740 O   0  0  0  0  0  1  0  0  0  0  0  0
  161.1320  206.3940  152.9630 C   0  0  0  0  0  3  0  0  0  0  0  0
  158.0240  212.7460  153.5580 C   0  0  1  0  0  3  0  0  0  0  0  0
  161.5470  209.6220  155.7720 C   0  0  1  0  0  3  0  0  0  0  0  0
  161.1860  209.8370  149.2320 O   0  0  0  0  0  0  0  0  0  0  0  0
  161.5280  210.4810  150.5450 S   0  0  0  0  0  0  0  0  0  0  0  0
  160.6120  212.9880  150.3120 C   0  0  2  0  0  3  0  0  0  0  0  0
  160.1160  210.3460  151.6440 C   0  0  2  0  0  3  0  0  0  0  0  0
  159.2260  208.7770  156.1920 O   0  0  0  0  0  1  0  0  0  0  0  0
  159.3130  210.7300  153.9090 C   0  0  2  0  0  3  0  0  0  0  0  0
  159.9890  212.8160  151.6170 N   0  0  0  0  0  2  0  0  0  0  0  0
  161.9030  212.1960  150.2700 C   0  0  0  0  0  2  0  0  0  0  0  0
  160.1670  209.7910  156.4180 C   0  0  2  0  0  0  0  0  0  0  0  0
  160.8820  208.7550  153.5090 C   0  0  0  0  0  0  0  0  0  0  0  0
  158.9100  212.8850  154.7840 C   0  0  1  0  0  3  0  0  0  0  0  0
  160.9180  214.4530  150.0920 C   0  0  0  0  0  1  0  0  0  0  0  0
  159.6740  211.2280  156.2670 C   0  0  0  0  0  2  0  0  0  0  0  0
  160.7170  207.6830  152.6160 C   0  0  0  0  0  3  0  0  0  0  0  0
  161.8800  207.2080  155.1140 C   0  0  0  0  0  3  0  0  0  0  0  0
  161.7190  206.1590  154.2070 C   0  0  0  0  0  3  0  0  0  0  0  0
  161.3390  209.3480  157.2600 C   0  0  0  0  0  2  0  0  0  0  0  0
  158.4100  211.4320  152.9150 C   0  0  2  0  0  3  0  0  0  0  0  0
  159.7890  211.7230  154.8840 N   0  0  1  0  0  0  0  0  0  0  0  0
  159.2060  211.5740  151.6120 C   0  0  2  0  0  3  0  0  0  0  0  0
  156.5730  212.6910  153.9900 C   0  0  0  0  0  1  0  0  0  0  0  0
  160.4970  210.1730  153.1080 C   0  0  1  0  0  3  0  0  0  0  0  0
  1 21  1  0  0  0  0
  1  6  1  0  0  0  0
  3 17  1  0  0  0  0
  4 22  1  0  0  0  0
  5 27  1  1  0  0  0
  5 17  1  0  0  0  0
  6 15  1  0  0  0  0
  6 23  1  1  0  0  0
  7  8  2  0  0  0  0
  8  2  2  0  0  0  0
  9 18  1  1  0  0  0
  9 13  1  0  0  0  0
 10  8  1  6  0  0  0
 10 28  1  0  0  0  0
 11 15  1  0  0  0  0
 12 25  1  0  0  0  0
 14  9  1  0  0  0  0
 14  8  1  0  0  0  0
 15 23  1  0  0  0  0
 16  1  2  0  0  0  0
 17 25  1  0  0  0  0
 19 15  1  0  0  0  0
 20  4  2  0  0  0  0
 20 16  1  0  0  0  0
 22 21  2  0  0  0  0
 24  5  1  0  0  0  0
 24 12  1  0  0  0  0
 25 19  1  0  0  0  0
 26 13  1  0  0  0  0
 26 10  1  0  0  0  0
 26 24  1  0  0  0  0
 28 16  1  0  0  0  0
 28 12  1  0  0  0  0
M  END
>  <MODEL>
8

>  <REMARK>
 VINA RESULT:      -0.1      2.300      5.156
  Name = 
  0 active torsions:
  status: ('A' for Active; 'I' for Inactive)
                            x       y       z     vdW  Elec       q    Type
                         _______ _______ _______ _____ _____    ______ ____

>  <TORSDO>
F 0

$$$$
