=
 OpenBabel11122413393D

 37 43  0  0  1  0  0  0  0  0999 V2000
  161.8420  210.3170  154.4260 C   0  0  0  0  0  2  0  0  0  0  0  0
  161.5860  205.7230  152.4510 C   0  0  1  0  0  0  0  0  0  0  0  0
  161.2810  209.6170  150.8110 C   0  0  1  0  0  3  0  0  0  0  0  0
  162.3150  210.4180  155.8820 C   0  0  2  0  0  3  0  0  0  0  0  0
  159.4410  212.2630  152.7250 O   0  0  0  0  0  0  0  0  0  0  0  0
  162.0660  207.2230  150.4380 C   0  0  1  0  0  3  0  0  0  0  0  0
  160.1820  210.2240  151.6560 C   0  0  2  0  0  3  0  0  0  0  0  0
  160.5780  212.2330  156.2410 C   0  0  0  0  0  0  0  0  0  0  0  0
  161.0690  208.1810  151.0970 C   0  0  1  0  0  3  0  0  0  0  0  0
  160.4780  211.7050  151.9690 C   0  0  1  0  0  3  0  0  0  0  0  0
  163.1160  207.9760  149.6030 C   0  0  0  0  0  2  0  0  0  0  0  0
  161.3030  211.0600  156.8420 C   0  0  0  0  0  2  0  0  0  0  0  0
  161.0540  208.1240  152.5350 N   0  0  2  0  0  0  0  0  0  0  0  0
  162.2210  205.2240  153.5730 F   0  0  0  0  0  0  0  0  0  0  0  0
  161.2420  211.2670  148.8800 C   0  0  0  0  0  2  0  0  0  0  0  0
  162.4720  209.0500  148.6820 C   0  0  0  0  0  2  0  0  0  0  0  0
  160.5660  206.8010  152.9000 C   0  0  0  0  0  2  0  0  0  0  0  0
  159.5890  212.0440  155.1180 C   0  0  1  0  0  3  0  0  0  0  0  0
  160.0680  212.7730  153.8640 C   0  0  0  0  0  2  0  0  0  0  0  0
  161.2700  209.8020  149.3070 C   0  0  1  0  0  3  0  0  0  0  0  0
  160.1240  209.2100  152.8630 C   0  0  1  0  0  3  0  0  0  0  0  0
  162.6660  206.2690  151.4800 C   0  0  0  0  0  2  0  0  0  0  0  0
  160.7160  212.5740  150.7110 C   0  0  1  0  0  3  0  0  0  0  0  0
  160.8950  204.6840  151.8270 O   0  0  0  0  0  1  0  0  0  0  0  0
  159.2740  210.5590  154.8570 C   0  0  0  0  0  2  0  0  0  0  0  0
  160.7910  213.3520  156.6780 O   0  0  0  0  0  0  0  0  0  0  0  0
  160.4330  209.7260  154.2780 C   0  0  2  0  0  3  0  0  0  0  0  0
  161.7650  212.1280  149.8660 O   0  0  0  0  0  0  0  0  0  0  0  0
  159.5850  213.5310  148.6810 C   0  0  0  0  0  3  0  0  0  0  0  0
  159.4940  213.1380  150.0210 C   0  0  0  0  0  0  0  0  0  0  0  0
  158.2670  213.2490  150.6930 C   0  0  0  0  0  3  0  0  0  0  0  0
  155.6210  213.8980  150.8790 Cl  0  0  0  0  0  0  0  0  0  0  0  0
  157.2450  214.1550  148.6950 C   0  0  0  0  0  3  0  0  0  0  0  0
  157.1470  213.7590  150.0320 C   0  0  0  0  0  0  0  0  0  0  0  0
  158.4630  214.0410  148.0200 C   0  0  0  0  0  3  0  0  0  0  0  0
  163.9320  211.0360  157.2610 C   0  0  0  0  0  1  0  0  0  0  0  0
  163.5210  211.1200  155.9300 O   0  0  0  0  0  0  0  0  0  0  0  0
  1  4  1  0  0  0  0
  2 24  1  6  0  0  0
  2 17  1  0  0  0  0
  2 14  1  0  0  0  0
  3  9  1  0  0  0  0
  3  7  1  0  0  0  0
  4 37  1  0  0  0  0
  4 12  1  0  0  0  0
  5 19  1  0  0  0  0
  6  9  1  0  0  0  0
  6 22  1  0  0  0  0
  7 10  1  0  0  0  0
  7 21  1  0  0  0  0
  8 26  2  0  0  0  0
  8 12  1  0  0  0  0
  9 13  1  0  0  0  0
 10  5  1  0  0  0  0
 11  6  1  0  0  0  0
 13 21  1  0  0  0  0
 13 17  1  0  0  0  0
 15 20  1  0  0  0  0
 15 28  1  0  0  0  0
 16 20  1  0  0  0  0
 16 11  1  0  0  0  0
 18  8  1  0  0  0  0
 19 18  1  0  0  0  0
 20  3  1  0  0  0  0
 21 27  1  0  0  0  0
 22  2  1  0  0  0  0
 23 10  1  0  0  0  0
 25 18  1  0  0  0  0
 27  1  1  0  0  0  0
 27 25  1  0  0  0  0
 28 23  1  0  0  0  0
 29 30  1  0  0  0  0
 30 31  2  0  0  0  0
 30 23  1  0  0  0  0
 33 34  2  0  0  0  0
 34 31  1  0  0  0  0
 34 32  1  0  0  0  0
 35 29  2  0  0  0  0
 35 33  1  0  0  0  0
 37 36  1  0  0  0  0
M  END
>  <MODEL>
1

>  <REMARK>
 VINA RESULT:      -1.3      0.000      0.000
  Name = 
  2 active torsions:
  status: ('A' for Active; 'I' for Inactive)
    1  A    between atoms: C_4  and  O_37
    2  A    between atoms: C_23  and  C_30
                            x       y       z     vdW  Elec       q    Type
                         _______ _______ _______ _____ _____    ______ ____

>  <TORSDO>
F 2

$$$$
