=
 OpenBabel11122412563D

 32 38  0  0  1  0  0  0  0  0999 V2000
  161.4780  209.8220  154.7630 C   0  0  1  0  0  3  0  0  0  0  0  0
  161.5480  206.7500  150.4460 C   0  0  0  0  0  0  0  0  0  0  0  0
  160.5960  202.3730  152.3550 C   0  0  0  0  0  3  0  0  0  0  0  0
  160.6160  201.8330  151.0710 C   0  0  0  0  0  3  0  0  0  0  0  0
  161.4870  206.9790  147.9900 C   0  0  1  0  0  3  0  0  0  0  0  0
  161.3910  206.2960  146.6940 C   0  0  2  0  0  3  0  0  0  0  0  0
  161.3240  208.7330  151.9740 C   0  0  1  0  0  3  0  0  0  0  0  0
  161.3490  206.4790  152.8980 N   0  0  0  0  0  2  0  0  0  0  0  0
  161.0440  204.5270  145.3430 C   0  0  0  0  0  0  0  0  0  0  0  0
  161.2480  208.3280  154.5220 C   0  0  2  0  0  3  0  0  0  0  0  0
  160.8290  203.7360  152.5220 C   0  0  0  0  0  3  0  0  0  0  0  0
  161.3400  205.9180  151.5740 C   0  0  0  0  0  0  0  0  0  0  0  0
  161.0760  204.5560  151.4110 C   0  0  0  0  0  0  0  0  0  0  0  0
  161.3360  204.7720  148.9940 C   0  0  0  0  0  0  0  0  0  0  0  0
  160.3910  205.5200  144.8360 N   0  0  0  0  0  0  0  0  0  0  0  0
  162.1630  210.5570  153.5880 C   0  0  0  0  0  2  0  0  0  0  0  0
  161.7550  207.8550  153.1470 C   0  0  2  0  0  3  0  0  0  0  0  0
  160.5680  206.6290  145.7110 C   0  0  0  0  0  2  0  0  0  0  0  0
  161.6820  210.2070  152.1700 C   0  0  0  0  0  2  0  0  0  0  0  0
  160.0790  209.3090  154.4520 C   0  0  1  0  0  3  0  0  0  0  0  0
  160.8590  202.6340  150.0010 N   0  0  0  0  0  0  0  0  0  0  0  0
  161.0850  203.9770  150.1290 C   0  0  0  0  0  0  0  0  0  0  0  0
  161.4140  204.1580  147.7910 C   0  0  0  0  0  2  0  0  0  0  0  0
  161.9550  208.1840  150.7040 C   0  0  0  0  0  2  0  0  0  0  0  0
  161.3830  208.7430  147.9380 Cl  0  0  0  0  0  0  0  0  0  0  0  0
  161.1180  203.2580  144.7020 N   0  0  0  0  0  1  0  0  0  0  0  0
  161.4880  206.2020  149.1260 C   0  0  0  0  0  0  0  0  0  0  0  0
  161.8250  204.8940  146.5550 C   0  0  2  0  0  3  0  0  0  0  0  0
  159.2800  209.2220  155.7360 C   0  0  0  0  0  2  0  0  0  0  0  0
  158.8310  210.5800  156.1450 C   0  0  0  0  0  0  0  0  0  0  0  0
  158.0180  211.3260  155.3010 O   0  0  0  0  0  0  0  0  0  0  0  0
  159.2150  211.0680  157.2390 O   0  0  0  0  0  1  0  0  0  0  0  0
  1 16  1  6  0  0  0
  2 24  1  0  0  0  0
  2 12  1  0  0  0  0
  3 11  2  0  0  0  0
  4  3  1  0  0  0  0
  5 25  1  1  0  0  0
  5 27  1  0  0  0  0
  6 18  1  1  0  0  0
  6  5  1  0  0  0  0
  7 24  1  6  0  0  0
  7 19  1  0  0  0  0
  7 17  1  0  0  0  0
  8 17  1  0  0  0  0
  9 28  1  0  0  0  0
 10  1  1  0  0  0  0
 12  8  1  0  0  0  0
 13 12  2  0  0  0  0
 13 11  1  0  0  0  0
 14 27  1  0  0  0  0
 14 22  2  0  0  0  0
 15  9  2  0  0  0  0
 15 18  1  0  0  0  0
 17 10  1  0  0  0  0
 19 16  1  0  0  0  0
 20 10  1  0  0  0  0
 20  1  1  0  0  0  0
 20 29  1  0  0  0  0
 21 22  1  0  0  0  0
 21  4  2  0  0  0  0
 22 13  1  0  0  0  0
 23 14  1  0  0  0  0
 26  9  1  0  0  0  0
 27  2  2  0  0  0  0
 28  6  1  0  0  0  0
 28 23  1  0  0  0  0
 29 30  1  0  0  0  0
 30 32  1  0  0  0  0
 31 30  2  0  0  0  0
M  END
>  <MODEL>
1

>  <REMARK>
 VINA RESULT:      -8.7      0.000      0.000
  Name = 
  2 active torsions:
  status: ('A' for Active; 'I' for Inactive)
    1  A    between atoms: C_20  and  C_29
    2  A    between atoms: C_29  and  C_30
                            x       y       z     vdW  Elec       q    Type
                         _______ _______ _______ _____ _____    ______ ____

>  <TORSDO>
F 2

$$$$
=
 OpenBabel11122412563D

 32 38  0  0  1  0  0  0  0  0999 V2000
  162.1790  210.3310  151.4300 C   0  0  1  0  0  3  0  0  0  0  0  0
  161.5590  205.8460  148.6750 C   0  0  0  0  0  0  0  0  0  0  0  0
  161.0700  202.5750  152.2480 C   0  0  0  0  0  3  0  0  0  0  0  0
  160.8760  201.5860  151.2860 C   0  0  0  0  0  3  0  0  0  0  0  0
  161.0580  205.1250  146.3700 C   0  0  1  0  0  3  0  0  0  0  0  0
  160.7510  204.0050  145.4720 C   0  0  2  0  0  3  0  0  0  0  0  0
  161.5600  208.2700  149.3420 C   0  0  1  0  0  3  0  0  0  0  0  0
  161.8050  206.5400  151.0390 N   0  0  0  0  0  2  0  0  0  0  0  0
  160.2150  201.8720  144.9830 C   0  0  0  0  0  0  0  0  0  0  0  0
  161.9470  208.8700  151.8220 C   0  0  2  0  0  3  0  0  0  0  0  0
  161.2940  203.8870  151.8380 C   0  0  0  0  0  3  0  0  0  0  0  0
  161.5750  205.5170  150.0540 C   0  0  0  0  0  0  0  0  0  0  0  0
  161.3200  204.2090  150.4730 C   0  0  0  0  0  0  0  0  0  0  0  0
  161.1420  203.4760  148.1520 C   0  0  0  0  0  0  0  0  0  0  0  0
  159.4580  202.6250  144.2550 N   0  0  0  0  0  0  0  0  0  0  0  0
  162.6260  210.5320  149.9630 C   0  0  0  0  0  2  0  0  0  0  0  0
  162.2140  207.8860  150.6670 C   0  0  2  0  0  3  0  0  0  0  0  0
  159.7590  203.9740  144.5940 C   0  0  0  0  0  2  0  0  0  0  0  0
  161.9100  209.6900  148.8930 C   0  0  0  0  0  2  0  0  0  0  0  0
  160.7600  209.8020  151.5860 C   0  0  1  0  0  3  0  0  0  0  0  0
  160.9050  201.9070  149.9660 N   0  0  0  0  0  0  0  0  0  0  0  0
  161.1160  203.1850  149.5300 C   0  0  0  0  0  0  0  0  0  0  0  0
  161.0210  202.4480  147.2820 C   0  0  0  0  0  2  0  0  0  0  0  0
  161.9690  207.2500  148.2900 C   0  0  0  0  0  2  0  0  0  0  0  0
  160.9030  206.7390  145.6650 Cl  0  0  0  0  0  0  0  0  0  0  0  0
  160.2060  200.4530  144.8740 N   0  0  0  0  0  1  0  0  0  0  0  0
  161.2800  204.8410  147.6980 C   0  0  0  0  0  0  0  0  0  0  0  0
  161.1880  202.6370  145.8080 C   0  0  2  0  0  3  0  0  0  0  0  0
  160.2040  210.2470  152.9220 C   0  0  0  0  0  2  0  0  0  0  0  0
  159.2810  211.3970  152.7270 C   0  0  0  0  0  0  0  0  0  0  0  0
  159.7040  212.5160  152.0220 O   0  0  0  0  0  0  0  0  0  0  0  0
  158.1270  211.3710  153.2300 O   0  0  0  0  0  1  0  0  0  0  0  0
  1 16  1  6  0  0  0
  1 20  1  0  0  0  0
  1 10  1  0  0  0  0
  2 12  1  0  0  0  0
  4  3  1  0  0  0  0
  5 25  1  1  0  0  0
  5 27  1  0  0  0  0
  6 18  1  1  0  0  0
  6 28  1  0  0  0  0
  6  5  1  0  0  0  0
  7 24  1  6  0  0  0
  7 17  1  0  0  0  0
  9 28  1  0  0  0  0
 11  3  2  0  0  0  0
 12 13  2  0  0  0  0
 12  8  1  0  0  0  0
 13 11  1  0  0  0  0
 14 22  2  0  0  0  0
 15 18  1  0  0  0  0
 15  9  2  0  0  0  0
 17  8  1  0  0  0  0
 17 10  1  0  0  0  0
 19  7  1  0  0  0  0
 19 16  1  0  0  0  0
 20 10  1  0  0  0  0
 20 29  1  0  0  0  0
 21  4  2  0  0  0  0
 22 21  1  0  0  0  0
 22 13  1  0  0  0  0
 23 14  1  0  0  0  0
 24  2  1  0  0  0  0
 26  9  1  0  0  0  0
 27 14  1  0  0  0  0
 27  2  2  0  0  0  0
 28 23  1  0  0  0  0
 30 29  1  0  0  0  0
 30 32  1  0  0  0  0
 31 30  2  0  0  0  0
M  END
>  <MODEL>
2

>  <REMARK>
 VINA RESULT:      -8.6      1.847      2.597
  Name = 
  2 active torsions:
  status: ('A' for Active; 'I' for Inactive)
    1  A    between atoms: C_20  and  C_29
    2  A    between atoms: C_29  and  C_30
                            x       y       z     vdW  Elec       q    Type
                         _______ _______ _______ _____ _____    ______ ____

>  <TORSDO>
F 2

$$$$
=
 OpenBabel11122412563D

 32 38  0  0  1  0  0  0  0  0999 V2000
  161.3210  213.8210  149.0130 C   0  0  1  0  0  3  0  0  0  0  0  0
  161.5080  208.7440  150.5190 C   0  0  0  0  0  0  0  0  0  0  0  0
  160.2470  209.0780  155.2100 C   0  0  0  0  0  3  0  0  0  0  0  0
  160.3190  207.6900  155.3060 C   0  0  0  0  0  3  0  0  0  0  0  0
  161.6030  206.4980  149.5040 C   0  0  1  0  0  3  0  0  0  0  0  0
  161.5540  205.0470  149.7240 C   0  0  2  0  0  3  0  0  0  0  0  0
  161.2840  210.8250  149.1280 C   0  0  1  0  0  3  0  0  0  0  0  0
  161.1510  210.9630  151.5560 N   0  0  0  0  0  2  0  0  0  0  0  0
  161.2080  203.1790  150.9340 C   0  0  0  0  0  0  0  0  0  0  0  0
  161.0380  213.0960  150.3300 C   0  0  2  0  0  3  0  0  0  0  0  0
  160.5310  209.6910  153.9920 C   0  0  0  0  0  3  0  0  0  0  0  0
  161.1960  209.5290  151.6570 C   0  0  0  0  0  0  0  0  0  0  0  0
  160.8800  208.9200  152.8740 C   0  0  0  0  0  0  0  0  0  0  0  0
  161.2930  206.7190  151.9030 C   0  0  0  0  0  0  0  0  0  0  0  0
  160.6320  202.9970  149.7920 N   0  0  0  0  0  0  0  0  0  0  0  0
  162.1070  212.9800  147.9800 C   0  0  0  0  0  2  0  0  0  0  0  0
  161.6040  211.6640  150.3630 C   0  0  2  0  0  3  0  0  0  0  0  0
  160.8060  204.1920  149.0400 C   0  0  0  0  0  2  0  0  0  0  0  0
  161.6960  211.5060  147.8220 C   0  0  0  0  0  2  0  0  0  0  0  0
  159.9210  213.3020  149.3090 C   0  0  1  0  0  3  0  0  0  0  0  0
  160.6610  206.9510  154.2180 N   0  0  0  0  0  0  0  0  0  0  0  0
  160.9390  207.5200  153.0060 C   0  0  0  0  0  0  0  0  0  0  0  0
  161.4140  205.3850  152.0980 C   0  0  0  0  0  2  0  0  0  0  0  0
  161.9630  209.4720  149.2740 C   0  0  0  0  0  2  0  0  0  0  0  0
  161.5830  207.0190  147.8150 Cl  0  0  0  0  0  0  0  0  0  0  0  0
  161.2620  202.1620  151.9290 N   0  0  0  0  0  1  0  0  0  0  0  0
  161.5010  207.3170  150.6050 C   0  0  0  0  0  0  0  0  0  0  0  0
  161.9310  204.4760  151.0290 C   0  0  2  0  0  3  0  0  0  0  0  0
  159.0440  214.4530  149.7570 C   0  0  0  0  0  2  0  0  0  0  0  0
  157.6980  213.9460  150.1350 C   0  0  0  0  0  0  0  0  0  0  0  0
  157.0820  214.4050  151.2920 O   0  0  0  0  0  1  0  0  0  0  0  0
  157.1310  213.0750  149.4250 O   0  0  0  0  0  0  0  0  0  0  0  0
  1 16  1  6  0  0  0
  1 20  1  0  0  0  0
  1 10  1  0  0  0  0
  2 27  2  0  0  0  0
  2 12  1  0  0  0  0
  3  4  1  0  0  0  0
  5 25  1  6  0  0  0
  5  6  1  0  0  0  0
  5 27  1  0  0  0  0
  6 18  1  1  0  0  0
  6 28  1  0  0  0  0
  7 19  1  6  0  0  0
  7 24  1  0  0  0  0
  7 17  1  0  0  0  0
  8 12  1  0  0  0  0
  9 28  1  0  0  0  0
  9 26  1  0  0  0  0
 10 17  1  0  0  0  0
 11  3  2  0  0  0  0
 12 13  2  0  0  0  0
 13 22  1  0  0  0  0
 13 11  1  0  0  0  0
 14 23  1  0  0  0  0
 14 22  2  0  0  0  0
 15  9  2  0  0  0  0
 17  8  1  0  0  0  0
 18 15  1  0  0  0  0
 19 16  1  0  0  0  0
 20 29  1  0  0  0  0
 20 10  1  0  0  0  0
 21  4  2  0  0  0  0
 22 21  1  0  0  0  0
 24  2  1  0  0  0  0
 27 14  1  0  0  0  0
 28 23  1  0  0  0  0
 29 30  1  0  0  0  0
 30 31  1  0  0  0  0
 32 30  2  0  0  0  0
M  END
>  <MODEL>
3

>  <REMARK>
 VINA RESULT:      -7.4      3.025      5.314
  Name = 
  2 active torsions:
  status: ('A' for Active; 'I' for Inactive)
    1  A    between atoms: C_20  and  C_29
    2  A    between atoms: C_29  and  C_30
                            x       y       z     vdW  Elec       q    Type
                         _______ _______ _______ _____ _____    ______ ____

>  <TORSDO>
F 2

$$$$
=
 OpenBabel11122412563D

 32 38  0  0  1  0  0  0  0  0999 V2000
  161.6930  202.9800  146.4420 C   0  0  1  0  0  3  0  0  0  0  0  0
  161.5840  206.1350  150.6980 C   0  0  0  0  0  0  0  0  0  0  0  0
  162.1930  210.5190  148.6700 C   0  0  0  0  0  3  0  0  0  0  0  0
  162.0670  211.0960  149.9320 C   0  0  0  0  0  3  0  0  0  0  0  0
  160.9340  206.0410  153.0760 C   0  0  1  0  0  3  0  0  0  0  0  0
  160.7310  206.7850  154.3260 C   0  0  2  0  0  3  0  0  0  0  0  0
  161.2110  204.2000  149.1380 C   0  0  1  0  0  3  0  0  0  0  0  0
  161.9980  206.3340  148.2660 N   0  0  0  0  0  2  0  0  0  0  0  0
  160.5500  208.6440  155.5840 C   0  0  0  0  0  0  0  0  0  0  0  0
  161.7950  204.4940  146.6420 C   0  0  2  0  0  3  0  0  0  0  0  0
  162.1090  209.1350  148.5450 C   0  0  0  0  0  3  0  0  0  0  0  0
  161.8410  206.9400  149.5610 C   0  0  0  0  0  0  0  0  0  0  0  0
  161.8960  208.3320  149.6750 C   0  0  0  0  0  0  0  0  0  0  0  0
  161.5600  208.1680  152.0870 C   0  0  0  0  0  0  0  0  0  0  0  0
  159.5760  207.8660  155.9230 N   0  0  0  0  0  0  0  0  0  0  0  0
  161.8990  202.1530  147.7330 C   0  0  0  0  0  2  0  0  0  0  0  0
  162.0920  204.8910  148.1000 C   0  0  2  0  0  3  0  0  0  0  0  0
  159.6570  206.7100  155.0980 C   0  0  0  0  0  2  0  0  0  0  0  0
  161.2240  202.6750  149.0120 C   0  0  0  0  0  2  0  0  0  0  0  0
  160.4330  203.8340  146.4390 C   0  0  1  0  0  3  0  0  0  0  0  0
  161.8630  210.3090  151.0220 N   0  0  0  0  0  0  0  0  0  0  0  0
  161.7690  208.9490  150.9330 C   0  0  0  0  0  0  0  0  0  0  0  0
  161.5250  208.7990  153.2830 C   0  0  0  0  0  2  0  0  0  0  0  0
  161.6660  204.6350  150.5230 C   0  0  0  0  0  2  0  0  0  0  0  0
  160.3850  204.3600  153.0860 Cl  0  0  0  0  0  0  0  0  0  0  0  0
  160.7970  209.8840  156.2380 N   0  0  0  0  0  1  0  0  0  0  0  0
  161.3760  206.7400  151.9770 C   0  0  0  0  0  0  0  0  0  0  0  0
  161.4600  208.0420  154.5720 C   0  0  2  0  0  3  0  0  0  0  0  0
  159.9810  204.0550  145.0110 C   0  0  0  0  0  2  0  0  0  0  0  0
  160.5230  205.3430  144.5020 C   0  0  0  0  0  0  0  0  0  0  0  0
  160.1820  206.5360  145.1270 O   0  0  0  0  0  1  0  0  0  0  0  0
  161.2650  205.3570  143.4860 O   0  0  0  0  0  0  0  0  0  0  0  0
  1 10  1  0  0  0  0
  1 16  1  1  0  0  0
  2 27  1  0  0  0  0
  3  4  1  0  0  0  0
  4 21  2  0  0  0  0
  5 25  1  6  0  0  0
  5  6  1  0  0  0  0
  6 28  1  0  0  0  0
  6 18  1  6  0  0  0
  7 19  1  1  0  0  0
  7 24  1  0  0  0  0
  8 12  1  0  0  0  0
  9 15  2  0  0  0  0
  9 26  1  0  0  0  0
 10 17  1  0  0  0  0
 11  3  2  0  0  0  0
 11 13  1  0  0  0  0
 12 13  1  0  0  0  0
 12  2  2  0  0  0  0
 13 22  2  0  0  0  0
 14 23  1  0  0  0  0
 16 19  1  0  0  0  0
 17  8  1  0  0  0  0
 17  7  1  0  0  0  0
 18 15  1  0  0  0  0
 20  1  1  0  0  0  0
 20 10  1  0  0  0  0
 22 21  1  0  0  0  0
 22 14  1  0  0  0  0
 23 28  1  0  0  0  0
 24  2  1  0  0  0  0
 27 14  2  0  0  0  0
 27  5  1  0  0  0  0
 28  9  1  0  0  0  0
 29 20  1  0  0  0  0
 30 29  1  0  0  0  0
 30 31  1  0  0  0  0
 32 30  2  0  0  0  0
M  END
>  <MODEL>
4

>  <REMARK>
 VINA RESULT:      -7.3      3.918      8.581
  Name = 
  2 active torsions:
  status: ('A' for Active; 'I' for Inactive)
    1  A    between atoms: C_20  and  C_29
    2  A    between atoms: C_29  and  C_30
                            x       y       z     vdW  Elec       q    Type
                         _______ _______ _______ _____ _____    ______ ____

>  <TORSDO>
F 2

$$$$
=
 OpenBabel11122412563D

 32 38  0  0  1  0  0  0  0  0999 V2000
  161.4150  202.1480  150.2690 C   0  0  1  0  0  3  0  0  0  0  0  0
  161.2600  206.9560  152.4910 C   0  0  0  0  0  0  0  0  0  0  0  0
  162.0310  209.8300  148.6360 C   0  0  0  0  0  3  0  0  0  0  0  0
  161.8830  210.9410  149.4630 C   0  0  0  0  0  3  0  0  0  0  0  0
  160.5410  208.0170  154.5980 C   0  0  1  0  0  3  0  0  0  0  0  0
  160.3210  209.2700  155.3320 C   0  0  2  0  0  3  0  0  0  0  0  0
  160.8860  204.5130  152.0340 C   0  0  1  0  0  3  0  0  0  0  0  0
  161.7480  205.9630  150.2760 N   0  0  0  0  0  2  0  0  0  0  0  0
  160.1490  211.5070  155.5390 C   0  0  0  0  0  0  0  0  0  0  0  0
  161.5470  203.5720  149.7240 C   0  0  2  0  0  3  0  0  0  0  0  0
  161.9180  208.5550  149.1850 C   0  0  0  0  0  3  0  0  0  0  0  0
  161.5690  207.1170  151.1170 C   0  0  0  0  0  0  0  0  0  0  0  0
  161.6540  208.3920  150.5530 C   0  0  0  0  0  0  0  0  0  0  0  0
  161.2460  209.4070  152.7350 C   0  0  0  0  0  0  0  0  0  0  0  0
  159.1480  210.9930  156.1740 N   0  0  0  0  0  0  0  0  0  0  0  0
  161.5650  202.0390  151.8050 C   0  0  0  0  0  2  0  0  0  0  0  0
  161.8120  204.6160  150.8240 C   0  0  2  0  0  3  0  0  0  0  0  0
  159.2240  209.5820  156.0060 C   0  0  0  0  0  2  0  0  0  0  0  0
  160.8660  203.1150  152.6530 C   0  0  0  0  0  2  0  0  0  0  0  0
  160.1760  202.9060  149.8130 C   0  0  1  0  0  3  0  0  0  0  0  0
  161.6300  210.7740  150.7870 N   0  0  0  0  0  0  0  0  0  0  0  0
  161.5060  209.5380  151.3570 C   0  0  0  0  0  0  0  0  0  0  0  0
  161.1920  210.5330  153.4820 C   0  0  0  0  0  2  0  0  0  0  0  0
  161.3120  205.5550  153.0570 C   0  0  0  0  0  2  0  0  0  0  0  0
  159.9530  206.5510  155.3920 Cl  0  0  0  0  0  0  0  0  0  0  0  0
  160.4070  212.9070  155.5290 N   0  0  0  0  0  1  0  0  0  0  0  0
  161.0310  208.1020  153.3150 C   0  0  0  0  0  0  0  0  0  0  0  0
  161.0720  210.4870  154.9720 C   0  0  2  0  0  3  0  0  0  0  0  0
  159.7700  202.4190  148.4370 C   0  0  0  0  0  2  0  0  0  0  0  0
  160.9630  201.9150  147.7060 C   0  0  0  0  0  0  0  0  0  0  0  0
  161.6340  202.7430  146.8160 O   0  0  0  0  0  0  0  0  0  0  0  0
  161.3460  200.7270  147.8690 O   0  0  0  0  0  1  0  0  0  0  0  0
  1 16  1  1  0  0  0
  2 24  1  0  0  0  0
  2 27  1  0  0  0  0
  3 11  2  0  0  0  0
  3  4  1  0  0  0  0
  4 21  2  0  0  0  0
  5  6  1  0  0  0  0
  5 25  1  6  0  0  0
  6 18  1  6  0  0  0
  7 19  1  1  0  0  0
  7 24  1  0  0  0  0
  8 17  1  0  0  0  0
  8 12  1  0  0  0  0
  9 15  2  0  0  0  0
 10 20  1  0  0  0  0
 10  1  1  0  0  0  0
 10 17  1  0  0  0  0
 11 13  1  0  0  0  0
 12  2  2  0  0  0  0
 13 12  1  0  0  0  0
 13 22  2  0  0  0  0
 14 27  2  0  0  0  0
 14 23  1  0  0  0  0
 16 19  1  0  0  0  0
 17  7  1  0  0  0  0
 18 15  1  0  0  0  0
 20  1  1  0  0  0  0
 21 22  1  0  0  0  0
 22 14  1  0  0  0  0
 23 28  1  0  0  0  0
 26  9  1  0  0  0  0
 27  5  1  0  0  0  0
 28  6  1  0  0  0  0
 28  9  1  0  0  0  0
 29 20  1  0  0  0  0
 30 32  1  0  0  0  0
 30 29  1  0  0  0  0
 31 30  2  0  0  0  0
M  END
>  <MODEL>
5

>  <REMARK>
 VINA RESULT:      -7.3      4.240      8.587
  Name = 
  2 active torsions:
  status: ('A' for Active; 'I' for Inactive)
    1  A    between atoms: C_20  and  C_29
    2  A    between atoms: C_29  and  C_30
                            x       y       z     vdW  Elec       q    Type
                         _______ _______ _______ _____ _____    ______ ____

>  <TORSDO>
F 2

$$$$
=
 OpenBabel11122412563D

 32 38  0  0  1  0  0  0  0  0999 V2000
  161.8430  204.8730  146.4550 C   0  0  1  0  0  3  0  0  0  0  0  0
  161.5540  207.3410  151.1360 C   0  0  0  0  0  0  0  0  0  0  0  0
  161.3290  212.0050  149.7590 C   0  0  0  0  0  3  0  0  0  0  0  0
  161.2060  212.3720  151.0980 C   0  0  0  0  0  3  0  0  0  0  0  0
  161.1000  206.8090  153.5010 C   0  0  1  0  0  3  0  0  0  0  0  0
  160.8750  207.3280  154.8570 C   0  0  2  0  0  3  0  0  0  0  0  0
  161.3740  205.6080  149.3240 C   0  0  1  0  0  3  0  0  0  0  0  0
  161.7560  207.9430  148.7430 N   0  0  0  0  0  2  0  0  0  0  0  0
  160.4990  208.9390  156.3860 C   0  0  0  0  0  0  0  0  0  0  0  0
  161.7240  206.3400  146.8740 C   0  0  2  0  0  3  0  0  0  0  0  0
  161.4520  210.6570  149.4330 C   0  0  0  0  0  3  0  0  0  0  0  0
  161.6010  208.3280  150.1200 C   0  0  0  0  0  0  0  0  0  0  0  0
  161.4480  209.6800  150.4380 C   0  0  0  0  0  0  0  0  0  0  0  0
  161.3160  209.1280  152.8120 C   0  0  0  0  0  0  0  0  0  0  0  0
  159.6850  207.9720  156.6520 N   0  0  0  0  0  0  0  0  0  0  0  0
  162.2680  203.9190  147.5960 C   0  0  0  0  0  2  0  0  0  0  0  0
  162.0600  206.5720  148.3590 C   0  0  2  0  0  3  0  0  0  0  0  0
  159.8840  206.9710  155.6600 C   0  0  0  0  0  2  0  0  0  0  0  0
  161.6140  204.1390  148.9700 C   0  0  0  0  0  2  0  0  0  0  0  0
  160.4700  205.5010  146.6420 C   0  0  1  0  0  3  0  0  0  0  0  0
  161.2060  211.4180  152.0660 N   0  0  0  0  0  0  0  0  0  0  0  0
  161.3170  210.0860  151.7790 C   0  0  0  0  0  0  0  0  0  0  0  0
  161.2690  209.5710  154.0900 C   0  0  0  0  0  2  0  0  0  0  0  0
  161.8550  205.9140  150.7340 C   0  0  0  0  0  2  0  0  0  0  0  0
  160.8200  205.0770  153.2870 Cl  0  0  0  0  0  0  0  0  0  0  0  0
  160.5970  210.0980  157.2060 N   0  0  0  0  0  1  0  0  0  0  0  0
  161.3470  207.7190  152.4990 C   0  0  0  0  0  0  0  0  0  0  0  0
  161.4160  208.6410  155.2520 C   0  0  2  0  0  3  0  0  0  0  0  0
  159.8860  205.8430  145.2860 C   0  0  0  0  0  2  0  0  0  0  0  0
  160.4740  204.9570  144.2460 C   0  0  0  0  0  0  0  0  0  0  0  0
  161.4320  205.4530  143.3700 O   0  0  0  0  0  0  0  0  0  0  0  0
  160.0800  203.7670  144.1360 O   0  0  0  0  0  1  0  0  0  0  0  0
  1 20  1  0  0  0  0
  1 10  1  0  0  0  0
  1 16  1  1  0  0  0
  2 27  1  0  0  0  0
  3  4  1  0  0  0  0
  4 21  2  0  0  0  0
  5 25  1  6  0  0  0
  5  6  1  0  0  0  0
  6 28  1  0  0  0  0
  6 18  1  6  0  0  0
  7 19  1  6  0  0  0
  7 24  1  0  0  0  0
  8 12  1  0  0  0  0
  9 15  2  0  0  0  0
  9 26  1  0  0  0  0
 10 17  1  0  0  0  0
 11  3  2  0  0  0  0
 11 13  1  0  0  0  0
 12 13  1  0  0  0  0
 12  2  2  0  0  0  0
 13 22  2  0  0  0  0
 14 23  1  0  0  0  0
 16 19  1  0  0  0  0
 17  8  1  0  0  0  0
 17  7  1  0  0  0  0
 18 15  1  0  0  0  0
 20 10  1  0  0  0  0
 22 21  1  0  0  0  0
 22 14  1  0  0  0  0
 23 28  1  0  0  0  0
 24  2  1  0  0  0  0
 27 14  2  0  0  0  0
 27  5  1  0  0  0  0
 28  9  1  0  0  0  0
 29 20  1  0  0  0  0
 30 29  1  0  0  0  0
 31 30  2  0  0  0  0
 32 30  1  0  0  0  0
M  END
>  <MODEL>
6

>  <REMARK>
 VINA RESULT:      -6.4      4.428      8.841
  Name = 
  2 active torsions:
  status: ('A' for Active; 'I' for Inactive)
    1  A    between atoms: C_20  and  C_29
    2  A    between atoms: C_29  and  C_30
                            x       y       z     vdW  Elec       q    Type
                         _______ _______ _______ _____ _____    ______ ____

>  <TORSDO>
F 2

$$$$
=
 OpenBabel11122412563D

 32 38  0  0  1  0  0  0  0  0999 V2000
  161.8890  210.2000  150.7420 C   0  0  1  0  0  3  0  0  0  0  0  0
  161.4490  205.4840  148.3660 C   0  0  0  0  0  0  0  0  0  0  0  0
  161.3010  202.4800  152.1950 C   0  0  0  0  0  3  0  0  0  0  0  0
  161.1330  201.4090  151.3210 C   0  0  0  0  0  3  0  0  0  0  0  0
  160.9080  204.5550  146.1460 C   0  0  1  0  0  3  0  0  0  0  0  0
  160.6380  203.3520  145.3490 C   0  0  2  0  0  3  0  0  0  0  0  0
  161.3230  207.9480  148.8450 C   0  0  1  0  0  3  0  0  0  0  0  0
  161.7390  206.3740  150.6570 N   0  0  0  0  0  2  0  0  0  0  0  0
  160.2180  201.1590  145.0470 C   0  0  0  0  0  0  0  0  0  0  0  0
  161.7640  208.7630  151.2540 C   0  0  2  0  0  3  0  0  0  0  0  0
  161.4270  203.7670  151.6770 C   0  0  0  0  0  3  0  0  0  0  0  0
  161.5370  205.2650  149.7640 C   0  0  0  0  0  0  0  0  0  0  0  0
  161.3810  203.9820  150.2920 C   0  0  0  0  0  0  0  0  0  0  0  0
  161.1620  203.0600  148.0430 C   0  0  0  0  0  0  0  0  0  0  0  0
  159.3880  201.8060  144.2980 N   0  0  0  0  0  0  0  0  0  0  0  0
  162.2670  210.3110  149.2460 C   0  0  0  0  0  2  0  0  0  0  0  0
  162.0490  207.7100  150.1680 C   0  0  2  0  0  3  0  0  0  0  0  0
  159.6170  203.1930  144.5200 C   0  0  0  0  0  2  0  0  0  0  0  0
  161.5660  209.3470  148.2750 C   0  0  0  0  0  2  0  0  0  0  0  0
  160.5140  209.6020  150.9980 C   0  0  1  0  0  3  0  0  0  0  0  0
  161.0920  201.6270  149.9800 N   0  0  0  0  0  0  0  0  0  0  0  0
  161.2060  202.8770  149.4390 C   0  0  0  0  0  0  0  0  0  0  0  0
  161.0730  201.9600  147.2590 C   0  0  0  0  0  2  0  0  0  0  0  0
  161.7550  206.8750  147.8580 C   0  0  0  0  0  2  0  0  0  0  0  0
  160.6250  206.0960  145.3270 Cl  0  0  0  0  0  0  0  0  0  0  0  0
  160.2940  199.7380  145.0480 N   0  0  0  0  0  1  0  0  0  0  0  0
  161.1960  204.3900  147.4810 C   0  0  0  0  0  0  0  0  0  0  0  0
  161.1720  202.0430  145.7700 C   0  0  2  0  0  3  0  0  0  0  0  0
  159.9810  210.1170  152.3190 C   0  0  0  0  0  2  0  0  0  0  0  0
  160.6880  209.4480  153.4440 C   0  0  0  0  0  0  0  0  0  0  0  0
  160.4830  208.0970  153.6890 O   0  0  0  0  0  0  0  0  0  0  0  0
  161.4470  210.1140  154.1960 O   0  0  0  0  0  1  0  0  0  0  0  0
  1 16  1  6  0  0  0
  1 20  1  0  0  0  0
  1 10  1  0  0  0  0
  2 12  1  0  0  0  0
  4  3  1  0  0  0  0
  5 25  1  1  0  0  0
  5 27  1  0  0  0  0
  6 18  1  1  0  0  0
  6 28  1  0  0  0  0
  6  5  1  0  0  0  0
  7 24  1  6  0  0  0
  7 17  1  0  0  0  0
  9 26  1  0  0  0  0
  9 28  1  0  0  0  0
 11  3  2  0  0  0  0
 12 13  2  0  0  0  0
 12  8  1  0  0  0  0
 13 11  1  0  0  0  0
 14 22  2  0  0  0  0
 15 18  1  0  0  0  0
 15  9  2  0  0  0  0
 17  8  1  0  0  0  0
 17 10  1  0  0  0  0
 19  7  1  0  0  0  0
 19 16  1  0  0  0  0
 20 10  1  0  0  0  0
 20 29  1  0  0  0  0
 21  4  2  0  0  0  0
 22 21  1  0  0  0  0
 22 13  1  0  0  0  0
 23 14  1  0  0  0  0
 24  2  1  0  0  0  0
 27 14  1  0  0  0  0
 27  2  2  0  0  0  0
 28 23  1  0  0  0  0
 29 30  1  0  0  0  0
 30 31  2  0  0  0  0
 30 32  1  0  0  0  0
M  END
>  <MODEL>
7

>  <REMARK>
 VINA RESULT:      -6.1      2.048      3.054
  Name = 
  2 active torsions:
  status: ('A' for Active; 'I' for Inactive)
    1  A    between atoms: C_20  and  C_29
    2  A    between atoms: C_29  and  C_30
                            x       y       z     vdW  Elec       q    Type
                         _______ _______ _______ _____ _____    ______ ____

>  <TORSDO>
F 2

$$$$
