=
 OpenBabel11122414213D

 34 40  0  0  1  0  0  0  0  0999 V2000
  161.1080  205.1560  152.0420 C   0  0  0  0  0  0  0  0  0  0  0  0
  160.8330  206.4350  154.2530 C   0  0  0  0  0  2  0  0  0  0  0  0
  162.3060  205.1220  145.6570 C   0  0  2  0  0  3  0  0  0  0  0  0
  161.0130  204.1560  149.8170 C   0  0  0  0  0  0  0  0  0  0  0  0
  161.0430  205.6550  147.8480 C   0  0  2  0  0  3  0  0  0  0  0  0
  159.9230  205.5960  145.7070 O   0  0  0  0  0  1  0  0  0  0  0  0
  162.7740  205.8930  144.4400 C   0  0  0  0  0  1  0  0  0  0  0  0
  161.1760  202.9340  146.3190 C   0  0  0  0  0  2  0  0  0  0  0  0
  160.9520  207.5870  152.1970 C   0  0  2  0  0  3  0  0  0  0  0  0
  162.5030  210.3420  151.9160 C   0  0  0  0  0  2  0  0  0  0  0  0
  161.9400  206.6030  148.6300 C   0  0  0  0  0  2  0  0  0  0  0  0
  161.7910  203.1640  147.6860 C   0  0  0  0  0  2  0  0  0  0  0  0
  161.7060  207.7740  150.8750 C   0  0  1  0  0  3  0  0  0  0  0  0
  160.8940  207.9230  154.5870 C   0  0  0  0  0  2  0  0  0  0  0  0
  161.1540  204.2820  148.3890 N   0  0  0  0  0  0  0  0  0  0  0  0
  161.9570  203.6870  145.2480 C   0  0  0  0  0  2  0  0  0  0  0  0
  162.3110  209.5200  153.2090 C   0  0  2  0  0  3  0  0  0  0  0  0
  161.2270  205.2800  150.6400 C   0  0  0  0  0  0  0  0  0  0  0  0
  161.1460  205.8580  146.3300 C   0  0  2  0  0  3  0  0  0  0  0  0
  161.5550  206.5640  150.0420 N   0  0  0  0  0  0  0  0  0  0  0  0
  160.6080  202.7980  151.7920 C   0  0  0  0  0  3  0  0  0  0  0  0
  161.3020  210.3140  150.9670 C   0  0  0  0  0  2  0  0  0  0  0  0
  160.7050  202.9180  150.4040 C   0  0  0  0  0  3  0  0  0  0  0  0
  161.2410  209.0320  150.1280 C   0  0  0  0  0  2  0  0  0  0  0  0
  161.0150  208.6830  153.2600 C   0  0  1  0  0  3  0  0  0  0  0  0
  160.8190  203.9110  152.6110 C   0  0  0  0  0  3  0  0  0  0  0  0
  161.4530  206.3490  152.8810 C   0  0  2  0  0  3  0  0  0  0  0  0
  162.3660  210.4220  154.3480 N   0  0  0  0  0  2  0  0  0  0  0  0
  161.3140  211.4130  154.1570 C   0  0  0  0  0  2  0  0  0  0  0  0
  160.0840  210.1660  157.2600 N   0  0  0  0  0  2  0  0  0  0  0  0
  159.1290  211.3030  155.3870 C   0  0  0  0  0  2  0  0  0  0  0  0
  160.5800  211.7000  155.4640 C   0  0  1  0  0  3  0  0  0  0  0  0
  158.8400  210.7210  156.7480 C   0  0  0  0  0  2  0  0  0  0  0  0
  161.1630  210.9130  156.6230 C   0  0  0  0  0  2  0  0  0  0  0  0
  1 26  1  0  0  0  0
  1 27  1  0  0  0  0
  2 14  1  0  0  0  0
  3  7  1  6  0  0  0
  3 19  1  0  0  0  0
  4 23  2  0  0  0  0
  4 18  1  0  0  0  0
  5 15  1  0  0  0  0
  5 11  1  1  0  0  0
  6 19  1  0  0  0  0
  8 12  1  0  0  0  0
  9 27  1  0  0  0  0
  9 25  1  0  0  0  0
 10 17  1  0  0  0  0
 11 20  1  0  0  0  0
 12 15  1  0  0  0  0
 13  9  1  0  0  0  0
 15  4  1  0  0  0  0
 16  3  1  0  0  0  0
 16  8  1  0  0  0  0
 17 25  1  0  0  0  0
 17 28  1  0  0  0  0
 18  1  2  0  0  0  0
 19  5  1  0  0  0  0
 20 18  1  0  0  0  0
 20 13  1  0  0  0  0
 21 26  2  0  0  0  0
 22 10  1  0  0  0  0
 23 21  1  0  0  0  0
 24 13  1  0  0  0  0
 24 22  1  0  0  0  0
 25 14  1  0  0  0  0
 27  2  1  0  0  0  0
 29 28  1  0  0  0  0
 29 32  1  0  0  0  0
 31 32  1  0  0  0  0
 31 33  1  0  0  0  0
 32 34  1  0  0  0  0
 33 30  1  0  0  0  0
 34 30  1  0  0  0  0
M  END
>  <MODEL>
1

>  <REMARK>
 VINA RESULT:      -8.1      0.000      0.000
  Name = 
  3 active torsions:
  status: ('A' for Active; 'I' for Inactive)
    1  A    between atoms: C_17  and  N_28
    2  A    between atoms: N_28  and  C_29
    3  A    between atoms: C_29  and  C_32
                            x       y       z     vdW  Elec       q    Type
                         _______ _______ _______ _____ _____    ______ ____

>  <TORSDO>
F 3

$$$$
=
 OpenBabel11122414213D

 34 40  0  0  1  0  0  0  0  0999 V2000
  160.8270  207.5130  153.9280 C   0  0  0  0  0  0  0  0  0  0  0  0
  162.2440  205.9990  152.4110 C   0  0  0  0  0  2  0  0  0  0  0  0
  157.7660  213.1400  155.0050 C   0  0  2  0  0  3  0  0  0  0  0  0
  159.8340  209.2040  155.3820 C   0  0  0  0  0  0  0  0  0  0  0  0
  159.7560  211.5460  154.5830 C   0  0  2  0  0  3  0  0  0  0  0  0
  160.0370  213.6790  155.6830 O   0  0  0  0  0  1  0  0  0  0  0  0
  157.2670  214.4530  154.4390 C   0  0  0  0  0  1  0  0  0  0  0  0
  158.1330  211.9370  157.2240 C   0  0  0  0  0  2  0  0  0  0  0  0
  161.9290  208.2780  151.8880 C   0  0  2  0  0  3  0  0  0  0  0  0
  161.5290  209.2650  148.8990 C   0  0  0  0  0  2  0  0  0  0  0  0
  159.5770  211.0170  153.1670 C   0  0  0  0  0  2  0  0  0  0  0  0
  158.1140  210.6620  156.4030 C   0  0  0  0  0  2  0  0  0  0  0  0
  160.9280  209.4260  151.7140 C   0  0  1  0  0  3  0  0  0  0  0  0
  162.8570  206.2210  151.0310 C   0  0  0  0  0  2  0  0  0  0  0  0
  159.3120  210.5340  155.5660 N   0  0  0  0  0  0  0  0  0  0  0  0
  157.4010  213.0550  156.4910 C   0  0  0  0  0  2  0  0  0  0  0  0
  161.7920  207.8170  149.3640 C   0  0  2  0  0  3  0  0  0  0  0  0
  160.3310  208.8210  154.1180 C   0  0  0  0  0  0  0  0  0  0  0  0
  159.2660  212.9910  154.7430 C   0  0  2  0  0  3  0  0  0  0  0  0
  160.3410  209.7770  153.0230 N   0  0  0  0  0  0  0  0  0  0  0  0
  160.2960  206.9740  156.2300 C   0  0  0  0  0  3  0  0  0  0  0  0
  162.2670  210.3320  149.7120 C   0  0  0  0  0  2  0  0  0  0  0  0
  159.8200  208.2710  156.4300 C   0  0  0  0  0  3  0  0  0  0  0  0
  161.5730  210.6470  151.0420 C   0  0  0  0  0  2  0  0  0  0  0  0
  162.6210  207.6910  150.6600 C   0  0  1  0  0  3  0  0  0  0  0  0
  160.7890  206.5910  154.9800 C   0  0  0  0  0  3  0  0  0  0  0  0
  161.2410  207.1170  152.5430 C   0  0  2  0  0  3  0  0  0  0  0  0
  162.4420  207.0900  148.2850 N   0  0  0  0  0  2  0  0  0  0  0  0
  161.4540  206.1710  147.7350 C   0  0  0  0  0  2  0  0  0  0  0  0
  161.1510  202.8680  146.4340 N   0  0  0  0  0  2  0  0  0  0  0  0
  161.1840  203.8380  148.6190 C   0  0  0  0  0  2  0  0  0  0  0  0
  161.9810  204.7390  147.7130 C   0  0  1  0  0  3  0  0  0  0  0  0
  161.0920  202.5430  147.8520 C   0  0  0  0  0  2  0  0  0  0  0  0
  161.8850  204.1250  146.3290 C   0  0  0  0  0  2  0  0  0  0  0  0
  1 18  2  0  0  0  0
  1 26  1  0  0  0  0
  2 27  1  0  0  0  0
  3  7  1  1  0  0  0
  3 16  1  0  0  0  0
  4 15  1  0  0  0  0
  4 23  2  0  0  0  0
  5 11  1  6  0  0  0
  5 19  1  0  0  0  0
  5 15  1  0  0  0  0
  9 27  1  0  0  0  0
 10 17  1  0  0  0  0
 10 22  1  0  0  0  0
 12  8  1  0  0  0  0
 13  9  1  0  0  0  0
 13 20  1  0  0  0  0
 14  2  1  0  0  0  0
 15 12  1  0  0  0  0
 16  8  1  0  0  0  0
 17 25  1  0  0  0  0
 18  4  1  0  0  0  0
 19  3  1  0  0  0  0
 19  6  1  0  0  0  0
 20 11  1  0  0  0  0
 20 18  1  0  0  0  0
 21 23  1  0  0  0  0
 22 24  1  0  0  0  0
 24 13  1  0  0  0  0
 25 14  1  0  0  0  0
 25  9  1  0  0  0  0
 26 21  2  0  0  0  0
 27  1  1  0  0  0  0
 28 17  1  0  0  0  0
 29 28  1  0  0  0  0
 30 33  1  0  0  0  0
 32 29  1  0  0  0  0
 32 31  1  0  0  0  0
 33 31  1  0  0  0  0
 34 30  1  0  0  0  0
 34 32  1  0  0  0  0
M  END
>  <MODEL>
2

>  <REMARK>
 VINA RESULT:      -8.1      2.758      8.730
  Name = 
  3 active torsions:
  status: ('A' for Active; 'I' for Inactive)
    1  A    between atoms: C_17  and  N_28
    2  A    between atoms: N_28  and  C_29
    3  A    between atoms: C_29  and  C_32
                            x       y       z     vdW  Elec       q    Type
                         _______ _______ _______ _____ _____    ______ ____

>  <TORSDO>
F 3

$$$$
=
 OpenBabel11122414213D

 34 40  0  0  1  0  0  0  0  0999 V2000
  161.7820  208.6060  149.4790 C   0  0  0  0  0  0  0  0  0  0  0  0
  161.5500  207.3370  147.2570 C   0  0  0  0  0  2  0  0  0  0  0  0
  161.6700  208.6760  155.9740 C   0  0  2  0  0  3  0  0  0  0  0  0
  161.5790  209.7270  151.6390 C   0  0  0  0  0  0  0  0  0  0  0  0
  160.7520  208.4210  153.5720 C   0  0  2  0  0  3  0  0  0  0  0  0
  159.3160  208.9610  155.4390 O   0  0  0  0  0  1  0  0  0  0  0  0
  161.6250  207.8780  157.2600 C   0  0  0  0  0  1  0  0  0  0  0  0
  161.4400  211.0590  155.0970 C   0  0  0  0  0  2  0  0  0  0  0  0
  160.8990  206.3380  149.2940 C   0  0  2  0  0  3  0  0  0  0  0  0
  161.4140  203.2630  149.8830 C   0  0  0  0  0  2  0  0  0  0  0  0
  161.4370  207.1940  152.9880 C   0  0  0  0  0  2  0  0  0  0  0  0
  162.2030  210.5630  153.8840 C   0  0  0  0  0  2  0  0  0  0  0  0
  161.2840  206.0120  150.7410 C   0  0  1  0  0  3  0  0  0  0  0  0
  161.2010  205.8850  146.9420 C   0  0  0  0  0  2  0  0  0  0  0  0
  161.3930  209.6550  153.0650 N   0  0  0  0  0  0  0  0  0  0  0  0
  161.7200  210.1710  156.3040 C   0  0  0  0  0  2  0  0  0  0  0  0
  161.7460  204.0190  148.5790 C   0  0  2  0  0  3  0  0  0  0  0  0
  161.5820  208.5410  150.8760 C   0  0  0  0  0  0  0  0  0  0  0  0
  160.4900  208.2940  155.0780 C   0  0  2  0  0  3  0  0  0  0  0  0
  161.3650  207.2600  151.5270 N   0  0  0  0  0  0  0  0  0  0  0  0
  162.0140  211.0140  149.6230 C   0  0  0  0  0  3  0  0  0  0  0  0
  160.1240  203.7220  150.5680 C   0  0  0  0  0  2  0  0  0  0  0  0
  161.7980  210.9590  151.0020 C   0  0  0  0  0  3  0  0  0  0  0  0
  160.3090  205.0100  151.3780 C   0  0  0  0  0  2  0  0  0  0  0  0
  160.8170  205.2120  148.2660 C   0  0  1  0  0  3  0  0  0  0  0  0
  162.0170  209.8410  148.8640 C   0  0  0  0  0  3  0  0  0  0  0  0
  161.8880  207.3140  148.7270 C   0  0  2  0  0  3  0  0  0  0  0  0
  161.7320  203.0740  147.4740 N   0  0  0  0  0  2  0  0  0  0  0  0
  161.5260  201.7510  148.0500 C   0  0  0  0  0  2  0  0  0  0  0  0
  161.1360  199.5230  145.2960 N   0  0  0  0  0  2  0  0  0  0  0  0
  160.1980  201.6310  145.9230 C   0  0  0  0  0  2  0  0  0  0  0  0
  160.5830  200.9140  147.1900 C   0  0  1  0  0  3  0  0  0  0  0  0
  160.1820  200.5420  144.8800 C   0  0  0  0  0  2  0  0  0  0  0  0
  161.2280  199.6130  146.7500 C   0  0  0  0  0  2  0  0  0  0  0  0
  1 18  1  0  0  0  0
  2 27  1  0  0  0  0
  3 16  1  0  0  0  0
  3  7  1  1  0  0  0
  4 15  1  0  0  0  0
  5 11  1  1  0  0  0
  5 19  1  0  0  0  0
  8 16  1  0  0  0  0
  9 13  1  0  0  0  0
 10 22  1  0  0  0  0
 12  8  1  0  0  0  0
 13 24  1  0  0  0  0
 13 20  1  0  0  0  0
 14  2  1  0  0  0  0
 14 25  1  0  0  0  0
 15  5  1  0  0  0  0
 15 12  1  0  0  0  0
 17 10  1  0  0  0  0
 18 20  1  0  0  0  0
 18  4  2  0  0  0  0
 19  6  1  0  0  0  0
 19  3  1  0  0  0  0
 20 11  1  0  0  0  0
 21 23  2  0  0  0  0
 22 24  1  0  0  0  0
 23  4  1  0  0  0  0
 25 17  1  0  0  0  0
 25  9  1  0  0  0  0
 26  1  2  0  0  0  0
 26 21  1  0  0  0  0
 27  9  1  0  0  0  0
 27  1  1  0  0  0  0
 28 29  1  0  0  0  0
 28 17  1  0  0  0  0
 30 34  1  0  0  0  0
 31 32  1  0  0  0  0
 32 29  1  0  0  0  0
 33 30  1  0  0  0  0
 33 31  1  0  0  0  0
 34 32  1  0  0  0  0
M  END
>  <MODEL>
3

>  <REMARK>
 VINA RESULT:      -7.3      2.500      9.285
  Name = 
  3 active torsions:
  status: ('A' for Active; 'I' for Inactive)
    1  A    between atoms: C_17  and  N_28
    2  A    between atoms: N_28  and  C_29
    3  A    between atoms: C_29  and  C_32
                            x       y       z     vdW  Elec       q    Type
                         _______ _______ _______ _____ _____    ______ ____

>  <TORSDO>
F 3

$$$$
=
 OpenBabel11122414213D

 34 40  0  0  1  0  0  0  0  0999 V2000
  161.0200  208.5260  151.9410 C   0  0  0  0  0  0  0  0  0  0  0  0
  161.1900  206.0520  152.6150 C   0  0  0  0  0  2  0  0  0  0  0  0
  161.2270  213.1600  147.3940 C   0  0  2  0  0  3  0  0  0  0  0  0
  161.2810  210.8390  151.2040 C   0  0  0  0  0  0  0  0  0  0  0  0
  162.1040  211.2580  148.9070 C   0  0  2  0  0  3  0  0  0  0  0  0
  163.5800  212.9200  147.9570 O   0  0  0  0  0  1  0  0  0  0  0  0
  161.2710  213.5040  145.9190 C   0  0  0  0  0  1  0  0  0  0  0  0
  161.5030  214.2200  149.6970 C   0  0  0  0  0  2  0  0  0  0  0  0
  161.8450  206.7670  150.4630 C   0  0  2  0  0  3  0  0  0  0  0  0
  161.2640  205.0220  147.8770 C   0  0  0  0  0  2  0  0  0  0  0  0
  161.3810  209.9970  148.4580 C   0  0  0  0  0  2  0  0  0  0  0  0
  160.7110  213.0330  150.2100 C   0  0  0  0  0  2  0  0  0  0  0  0
  161.4730  207.5700  149.2120 C   0  0  1  0  0  3  0  0  0  0  0  0
  161.4980  204.7930  151.8100 C   0  0  0  0  0  2  0  0  0  0  0  0
  161.4860  211.7900  150.1420 N   0  0  0  0  0  0  0  0  0  0  0  0
  161.2180  214.4530  148.2170 C   0  0  0  0  0  2  0  0  0  0  0  0
  160.9320  204.6450  149.3370 C   0  0  2  0  0  3  0  0  0  0  0  0
  161.2390  209.4610  150.9060 C   0  0  0  0  0  0  0  0  0  0  0  0
  162.3840  212.2250  147.7490 C   0  0  2  0  0  3  0  0  0  0  0  0
  161.4330  209.0090  149.5380 N   0  0  0  0  0  0  0  0  0  0  0  0
  160.8490  210.3360  153.5430 C   0  0  0  0  0  3  0  0  0  0  0  0
  162.5740  205.7950  147.7080 C   0  0  0  0  0  2  0  0  0  0  0  0
  161.0830  211.2660  152.5270 C   0  0  0  0  0  3  0  0  0  0  0  0
  162.4320  207.2830  148.0460 C   0  0  0  0  0  2  0  0  0  0  0  0
  161.8850  205.2410  150.3940 C   0  0  1  0  0  3  0  0  0  0  0  0
  160.8070  208.9710  153.2510 C   0  0  0  0  0  3  0  0  0  0  0  0
  160.8730  207.0840  151.5610 C   0  0  2  0  0  3  0  0  0  0  0  0
  160.9070  203.1950  149.4500 N   0  0  0  0  0  2  0  0  0  0  0  0
  161.5560  202.6650  148.2590 C   0  0  0  0  0  2  0  0  0  0  0  0
  161.5760  199.6110  146.4230 N   0  0  0  0  0  2  0  0  0  0  0  0
  160.4930  201.7290  146.1870 C   0  0  0  0  0  2  0  0  0  0  0  0
  160.7520  201.5160  147.6550 C   0  0  1  0  0  3  0  0  0  0  0  0
  160.6410  200.3530  145.5890 C   0  0  0  0  0  2  0  0  0  0  0  0
  161.4930  200.1960  147.7570 C   0  0  0  0  0  2  0  0  0  0  0  0
  1 26  1  0  0  0  0
  3  7  1  6  0  0  0
  3 19  1  0  0  0  0
  3 16  1  0  0  0  0
  4 23  2  0  0  0  0
  5 11  1  6  0  0  0
  5 15  1  0  0  0  0
  8 12  1  0  0  0  0
  9 27  1  0  0  0  0
 10 17  1  0  0  0  0
 11 20  1  0  0  0  0
 13 20  1  0  0  0  0
 13  9  1  0  0  0  0
 14  2  1  0  0  0  0
 15 12  1  0  0  0  0
 15  4  1  0  0  0  0
 16  8  1  0  0  0  0
 17 28  1  0  0  0  0
 17 25  1  0  0  0  0
 18  4  1  0  0  0  0
 18  1  2  0  0  0  0
 19  6  1  0  0  0  0
 19  5  1  0  0  0  0
 20 18  1  0  0  0  0
 22 10  1  0  0  0  0
 22 24  1  0  0  0  0
 23 21  1  0  0  0  0
 24 13  1  0  0  0  0
 25  9  1  0  0  0  0
 25 14  1  0  0  0  0
 26 21  2  0  0  0  0
 27  1  1  0  0  0  0
 27  2  1  0  0  0  0
 29 28  1  0  0  0  0
 30 34  1  0  0  0  0
 31 32  1  0  0  0  0
 32 34  1  0  0  0  0
 32 29  1  0  0  0  0
 33 31  1  0  0  0  0
 33 30  1  0  0  0  0
M  END
>  <MODEL>
4

>  <REMARK>
 VINA RESULT:      -7.2      2.949      8.289
  Name = 
  3 active torsions:
  status: ('A' for Active; 'I' for Inactive)
    1  A    between atoms: C_17  and  N_28
    2  A    between atoms: N_28  and  C_29
    3  A    between atoms: C_29  and  C_32
                            x       y       z     vdW  Elec       q    Type
                         _______ _______ _______ _____ _____    ______ ____

>  <TORSDO>
F 3

$$$$
=
 OpenBabel11122414213D

 34 40  0  0  1  0  0  0  0  0999 V2000
  161.5800  208.3330  150.5780 C   0  0  0  0  0  0  0  0  0  0  0  0
  161.8640  210.4120  152.0620 C   0  0  0  0  0  2  0  0  0  0  0  0
  160.0190  202.0650  149.8910 C   0  0  2  0  0  3  0  0  0  0  0  0
  161.6370  206.1940  149.4030 C   0  0  0  0  0  0  0  0  0  0  0  0
  161.3540  204.1170  150.7190 C   0  0  2  0  0  3  0  0  0  0  0  0
  162.3470  201.9190  150.5740 O   0  0  0  0  0  1  0  0  0  0  0  0
  159.4120  200.8230  150.5110 C   0  0  0  0  0  1  0  0  0  0  0  0
  161.3840  202.8250  147.8750 C   0  0  0  0  0  2  0  0  0  0  0  0
  161.5190  208.2820  153.0180 C   0  0  2  0  0  3  0  0  0  0  0  0
  159.7060  207.8840  155.5920 C   0  0  0  0  0  2  0  0  0  0  0  0
  160.4190  204.8790  151.6490 C   0  0  0  0  0  2  0  0  0  0  0  0
  160.8310  204.2060  148.1680 C   0  0  0  0  0  2  0  0  0  0  0  0
  160.6750  207.0030  153.0240 C   0  0  1  0  0  3  0  0  0  0  0  0
  161.6860  210.6290  153.5620 C   0  0  0  0  0  2  0  0  0  0  0  0
  161.4020  204.7730  149.3940 N   0  0  0  0  0  0  0  0  0  0  0  0
  160.4750  201.7500  148.4630 C   0  0  0  0  0  2  0  0  0  0  0  0
  160.0480  209.2230  154.9050 C   0  0  2  0  0  3  0  0  0  0  0  0
  161.3680  206.9370  150.5710 C   0  0  0  0  0  0  0  0  0  0  0  0
  161.1430  202.5990  150.7810 C   0  0  2  0  0  3  0  0  0  0  0  0
  160.8880  206.2610  151.7650 N   0  0  0  0  0  0  0  0  0  0  0  0
  162.2810  208.2420  148.2610 C   0  0  0  0  0  3  0  0  0  0  0  0
  160.8470  206.8630  155.5880 C   0  0  0  0  0  2  0  0  0  0  0  0
  162.0920  206.8580  148.2520 C   0  0  0  0  0  3  0  0  0  0  0  0
  160.9770  206.1270  154.2500 C   0  0  0  0  0  2  0  0  0  0  0  0
  161.4170  209.2560  154.1910 C   0  0  1  0  0  3  0  0  0  0  0  0
  162.0160  208.9800  149.4160 C   0  0  0  0  0  3  0  0  0  0  0  0
  161.1750  209.0950  151.8050 C   0  0  2  0  0  3  0  0  0  0  0  0
  159.9770  210.2880  155.8930 N   0  0  0  0  0  2  0  0  0  0  0  0
  158.5860  210.7160  155.9560 C   0  0  0  0  0  2  0  0  0  0  0  0
  157.7710  213.8200  154.4060 N   0  0  0  0  0  2  0  0  0  0  0  0
  156.6910  211.6990  154.6360 C   0  0  0  0  0  2  0  0  0  0  0  0
  158.1760  211.4560  154.6860 C   0  0  1  0  0  3  0  0  0  0  0  0
  156.5680  213.0810  154.0460 C   0  0  0  0  0  2  0  0  0  0  0  0
  158.8230  212.8270  154.5990 C   0  0  0  0  0  2  0  0  0  0  0  0
  1 27  1  0  0  0  0
  2 14  1  0  0  0  0
  3  7  1  1  0  0  0
  3 19  1  0  0  0  0
  4 18  2  0  0  0  0
  5 19  1  0  0  0  0
  5 11  1  1  0  0  0
  6 19  1  0  0  0  0
  8 12  1  0  0  0  0
  8 16  1  0  0  0  0
  9 13  1  0  0  0  0
  9 25  1  0  0  0  0
 11 20  1  0  0  0  0
 12 15  1  0  0  0  0
 13 24  1  0  0  0  0
 14 25  1  0  0  0  0
 15  4  1  0  0  0  0
 15  5  1  0  0  0  0
 16  3  1  0  0  0  0
 17 10  1  0  0  0  0
 17 28  1  0  0  0  0
 18  1  1  0  0  0  0
 18 20  1  0  0  0  0
 20 13  1  0  0  0  0
 21 26  1  0  0  0  0
 22 10  1  0  0  0  0
 23 21  2  0  0  0  0
 23  4  1  0  0  0  0
 24 22  1  0  0  0  0
 25 17  1  0  0  0  0
 26  1  2  0  0  0  0
 27  2  1  0  0  0  0
 27  9  1  0  0  0  0
 28 29  1  0  0  0  0
 30 34  1  0  0  0  0
 31 32  1  0  0  0  0
 32 29  1  0  0  0  0
 33 30  1  0  0  0  0
 33 31  1  0  0  0  0
 34 32  1  0  0  0  0
M  END
>  <MODEL>
5

>  <REMARK>
 VINA RESULT:      -7.1      2.004      4.161
  Name = 
  3 active torsions:
  status: ('A' for Active; 'I' for Inactive)
    1  A    between atoms: C_17  and  N_28
    2  A    between atoms: N_28  and  C_29
    3  A    between atoms: C_29  and  C_32
                            x       y       z     vdW  Elec       q    Type
                         _______ _______ _______ _____ _____    ______ ____

>  <TORSDO>
F 3

$$$$
