=
 OpenBabel11122414083D

 28 32  0  0  1  0  0  0  0  0999 V2000
  163.0980  211.9000  139.5090 C   0  0  0  0  0  0  0  0  0  0  0  0
  161.9590  212.1440  143.2170 O   0  0  0  0  0  0  0  0  0  0  0  0
  156.7720  211.5790  139.5550 O   0  0  0  0  0  0  0  0  0  0  0  0
  164.1590  214.4160  138.8750 C   0  0  0  0  0  3  0  0  0  0  0  0
  157.6370  213.7210  140.0110 N   0  0  0  0  0  0  0  0  0  0  0  0
  162.5390  210.5350  139.7500 C   0  0  0  0  0  2  0  0  0  0  0  0
  162.7410  214.4530  143.5200 O   0  0  0  0  0  0  0  0  0  0  0  0
  161.5510  213.5910  143.2130 S   0  0  0  0  0  0  0  0  0  0  0  0
  158.9630  213.8910  144.0120 C   0  0  0  0  0  0  0  0  0  0  0  0
  160.8900  214.0620  141.6130 C   0  0  2  0  0  3  0  0  0  0  0  0
  159.8960  209.9610  137.2850 O   0  0  0  0  0  0  0  0  0  0  0  0
  159.9210  213.1810  139.5590 C   0  0  2  0  0  3  0  0  0  0  0  0
  158.5840  213.6010  142.5960 C   0  0  0  0  0  2  0  0  0  0  0  0
  160.3300  213.8480  144.4070 N   0  0  0  0  0  2  0  0  0  0  0  0
  160.4190  210.2100  138.4020 C   0  0  0  0  0  0  0  0  0  0  0  0
  162.3910  213.0670  139.8660 C   0  0  0  0  0  0  0  0  0  0  0  0
  157.7510  212.3670  139.6350 C   0  0  0  0  0  0  0  0  0  0  0  0
  158.0420  214.0360  144.9030 N   0  0  0  0  0  2  0  0  0  0  0  0
  159.5480  210.6050  139.5480 C   0  0  0  0  0  2  0  0  0  0  0  0
  162.9300  214.3210  139.5290 C   0  0  0  0  0  3  0  0  0  0  0  0
  164.3280  212.0050  138.8490 C   0  0  0  0  0  3  0  0  0  0  0  0
  164.8610  213.2590  138.5390 C   0  0  0  0  0  3  0  0  0  0  0  0
  161.8340  210.0830  138.5590 N   0  0  0  0  0  2  0  0  0  0  0  0
  158.9850  214.2650  140.1490 C   0  0  2  0  0  3  0  0  0  0  0  0
  159.0900  211.9820  139.4000 N   0  0  0  0  0  0  0  0  0  0  0  0
  159.4120  214.4530  141.6170 C   0  0  2  0  0  3  0  0  0  0  0  0
  156.4010  214.4240  140.3090 C   0  0  0  0  0  1  0  0  0  0  0  0
  161.0550  212.9770  140.5590 C   0  0  1  0  0  3  0  0  0  0  0  0
  1  6  1  0  0  0  0
  1 16  1  0  0  0  0
  3 17  2  0  0  0  0
  4 20  1  0  0  0  0
  5 27  1  0  0  0  0
  8  2  2  0  0  0  0
  8  7  2  0  0  0  0
  8 14  1  0  0  0  0
  9 14  1  0  0  0  0
  9 18  2  0  0  0  0
 10 26  1  0  0  0  0
 10  8  1  1  0  0  0
 11 15  2  0  0  0  0
 12 25  1  1  0  0  0
 12 24  1  0  0  0  0
 12 28  1  0  0  0  0
 13  9  1  0  0  0  0
 15 23  1  0  0  0  0
 15 19  1  0  0  0  0
 17  5  1  0  0  0  0
 20 16  2  0  0  0  0
 21  1  2  0  0  0  0
 22 21  1  0  0  0  0
 22  4  2  0  0  0  0
 23  6  1  0  0  0  0
 24  5  1  1  0  0  0
 24 26  1  0  0  0  0
 25 19  1  0  0  0  0
 25 17  1  0  0  0  0
 26 13  1  1  0  0  0
 28 16  1  6  0  0  0
 28 10  1  0  0  0  0
M  END
>  <MODEL>
1

>  <REMARK>
 VINA RESULT:      -4.7      0.000      0.000
  Name = 
  0 active torsions:
  status: ('A' for Active; 'I' for Inactive)
                            x       y       z     vdW  Elec       q    Type
                         _______ _______ _______ _____ _____    ______ ____

>  <TORSDO>
F 0

$$$$
=
 OpenBabel11122414083D

 28 32  0  0  1  0  0  0  0  0999 V2000
  161.2090  208.5860  155.3830 C   0  0  0  0  0  0  0  0  0  0  0  0
  158.1850  210.6900  154.1460 O   0  0  0  0  0  0  0  0  0  0  0  0
  161.3890  208.5900  149.0510 O   0  0  0  0  0  0  0  0  0  0  0  0
  162.9420  210.4060  156.6250 C   0  0  0  0  0  3  0  0  0  0  0  0
  162.0020  210.6370  150.0390 N   0  0  0  0  0  0  0  0  0  0  0  0
  160.3580  207.5470  154.7280 C   0  0  0  0  0  2  0  0  0  0  0  0
  159.0200  212.8100  155.0670 O   0  0  0  0  0  0  0  0  0  0  0  0
  158.9290  211.9590  153.8330 S   0  0  0  0  0  0  0  0  0  0  0  0
  158.5410  212.7220  151.2470 C   0  0  0  0  0  0  0  0  0  0  0  0
  160.5890  211.5970  153.2550 C   0  0  2  0  0  3  0  0  0  0  0  0
  162.3670  205.9300  152.1320 O   0  0  0  0  0  0  0  0  0  0  0  0
  161.9900  209.8510  152.2960 C   0  0  2  0  0  3  0  0  0  0  0  0
  159.6460  211.7820  150.8950 C   0  0  0  0  0  2  0  0  0  0  0  0
  158.0950  212.8260  152.5950 N   0  0  0  0  0  2  0  0  0  0  0  0
  161.4910  206.6800  152.6350 C   0  0  0  0  0  0  0  0  0  0  0  0
  161.5200  209.8030  154.7420 C   0  0  0  0  0  0  0  0  0  0  0  0
  161.6510  209.2730  150.0760 C   0  0  0  0  0  0  0  0  0  0  0  0
  157.8950  213.3300  150.3090 N   0  0  0  0  0  2  0  0  0  0  0  0
  160.7460  207.6290  151.7560 C   0  0  0  0  0  2  0  0  0  0  0  0
  162.4010  210.7000  155.3720 C   0  0  0  0  0  3  0  0  0  0  0  0
  161.7590  208.2970  156.6370 C   0  0  0  0  0  3  0  0  0  0  0  0
  162.6180  209.2070  157.2600 C   0  0  0  0  0  3  0  0  0  0  0  0
  161.2080  206.5910  154.0330 N   0  0  0  0  0  2  0  0  0  0  0  0
  162.0720  211.1220  151.4150 C   0  0  2  0  0  3  0  0  0  0  0  0
  161.5840  208.7670  151.3940 N   0  0  0  0  0  0  0  0  0  0  0  0
  160.8680  211.9980  151.8060 C   0  0  2  0  0  3  0  0  0  0  0  0
  162.1670  211.4460  148.8430 C   0  0  0  0  0  1  0  0  0  0  0  0
  160.9550  210.1260  153.3830 C   0  0  1  0  0  3  0  0  0  0  0  0
  1 21  1  0  0  0  0
  3 17  2  0  0  0  0
  4 22  1  0  0  0  0
  5 17  1  0  0  0  0
  6  1  1  0  0  0  0
  8  2  2  0  0  0  0
  8  7  2  0  0  0  0
  9 14  1  0  0  0  0
 10 28  1  0  0  0  0
 10  8  1  6  0  0  0
 11 15  2  0  0  0  0
 12 25  1  6  0  0  0
 12 28  1  0  0  0  0
 13  9  1  0  0  0  0
 14  8  1  0  0  0  0
 15 23  1  0  0  0  0
 16 20  1  0  0  0  0
 16  1  2  0  0  0  0
 17 25  1  0  0  0  0
 18  9  2  0  0  0  0
 19 15  1  0  0  0  0
 20  4  2  0  0  0  0
 21 22  2  0  0  0  0
 23  6  1  0  0  0  0
 24  5  1  6  0  0  0
 24 26  1  0  0  0  0
 24 12  1  0  0  0  0
 25 19  1  0  0  0  0
 26 13  1  6  0  0  0
 26 10  1  0  0  0  0
 27  5  1  0  0  0  0
 28 16  1  1  0  0  0
M  END
>  <MODEL>
2

>  <REMARK>
 VINA RESULT:      -4.2     10.378     13.310
  Name = 
  0 active torsions:
  status: ('A' for Active; 'I' for Inactive)
                            x       y       z     vdW  Elec       q    Type
                         _______ _______ _______ _____ _____    ______ ____

>  <TORSDO>
F 0

$$$$
=
 OpenBabel11122414083D

 28 32  0  0  1  0  0  0  0  0999 V2000
  157.5710  213.7420  152.7950 C   0  0  0  0  0  0  0  0  0  0  0  0
  160.1560  213.6300  155.6940 O   0  0  0  0  0  0  0  0  0  0  0  0
  162.3170  209.9820  150.9350 O   0  0  0  0  0  0  0  0  0  0  0  0
  155.2990  212.4080  153.7540 C   0  0  0  0  0  3  0  0  0  0  0  0
  160.9150  209.0350  152.5730 N   0  0  0  0  0  0  0  0  0  0  0  0
  158.7390  214.4530  152.1940 C   0  0  0  0  0  2  0  0  0  0  0  0
  158.6580  212.4740  157.2610 O   0  0  0  0  0  0  0  0  0  0  0  0
  159.7690  212.2950  156.2660 S   0  0  0  0  0  0  0  0  0  0  0  0
  161.9020  210.6030  156.3620 C   0  0  0  0  0  0  0  0  0  0  0  0
  159.2140  211.1840  154.9710 C   0  0  2  0  0  3  0  0  0  0  0  0
  159.6710  212.6790  149.1320 O   0  0  0  0  0  0  0  0  0  0  0  0
  159.2900  210.7870  152.5690 C   0  0  2  0  0  3  0  0  0  0  0  0
  161.5960  210.2760  154.9380 C   0  0  0  0  0  2  0  0  0  0  0  0
  161.1340  211.5860  157.0490 N   0  0  0  0  0  2  0  0  0  0  0  0
  159.7420  213.0650  150.3280 C   0  0  0  0  0  0  0  0  0  0  0  0
  157.7140  212.5020  153.4530 C   0  0  0  0  0  0  0  0  0  0  0  0
  161.2790  210.0330  151.6470 C   0  0  0  0  0  0  0  0  0  0  0  0
  162.9510  210.1020  156.9220 N   0  0  0  0  0  2  0  0  0  0  0  0
  160.7650  212.4630  151.2330 C   0  0  0  0  0  2  0  0  0  0  0  0
  156.5640  211.8390  153.9160 C   0  0  0  0  0  3  0  0  0  0  0  0
  156.2980  214.3020  152.6330 C   0  0  0  0  0  3  0  0  0  0  0  0
  155.1660  213.6410  153.1160 C   0  0  0  0  0  3  0  0  0  0  0  0
  158.8580  214.0880  150.7890 N   0  0  0  0  0  2  0  0  0  0  0  0
  159.7550  209.5130  153.3190 C   0  0  2  0  0  3  0  0  0  0  0  0
  160.3740  211.1180  151.6370 N   0  0  0  0  0  0  0  0  0  0  0  0
  160.1010  209.9580  154.7520 C   0  0  2  0  0  3  0  0  0  0  0  0
  161.6290  207.7920  152.8150 C   0  0  0  0  0  1  0  0  0  0  0  0
  159.0710  211.8710  153.6200 C   0  0  1  0  0  3  0  0  0  0  0  0
  1 16  1  0  0  0  0
  2  8  2  0  0  0  0
  3 17  2  0  0  0  0
  4 20  1  0  0  0  0
  5 27  1  0  0  0  0
  6  1  1  0  0  0  0
  8 14  1  0  0  0  0
  8  7  2  0  0  0  0
  9 18  2  0  0  0  0
  9 14  1  0  0  0  0
 10  8  1  1  0  0  0
 11 15  2  0  0  0  0
 12 25  1  6  0  0  0
 12 24  1  0  0  0  0
 12 28  1  0  0  0  0
 13  9  1  0  0  0  0
 15 23  1  0  0  0  0
 15 19  1  0  0  0  0
 16 20  2  0  0  0  0
 17  5  1  0  0  0  0
 19 25  1  0  0  0  0
 21  1  2  0  0  0  0
 21 22  1  0  0  0  0
 22  4  2  0  0  0  0
 23  6  1  0  0  0  0
 24  5  1  6  0  0  0
 24 26  1  0  0  0  0
 25 17  1  0  0  0  0
 26 13  1  6  0  0  0
 26 10  1  0  0  0  0
 28 16  1  1  0  0  0
 28 10  1  0  0  0  0
M  END
>  <MODEL>
3

>  <REMARK>
 VINA RESULT:      -2.7     10.469     13.895
  Name = 
  0 active torsions:
  status: ('A' for Active; 'I' for Inactive)
                            x       y       z     vdW  Elec       q    Type
                         _______ _______ _______ _____ _____    ______ ____

>  <TORSDO>
F 0

$$$$
=
 OpenBabel11122414083D

 28 32  0  0  1  0  0  0  0  0999 V2000
  160.4800  212.7720  145.3970 C   0  0  0  0  0  0  0  0  0  0  0  0
  161.2800  209.9610  147.9580 O   0  0  0  0  0  0  0  0  0  0  0  0
  156.5560  213.5360  150.3110 O   0  0  0  0  0  0  0  0  0  0  0  0
  162.7240  214.4530  145.3910 C   0  0  0  0  0  3  0  0  0  0  0  0
  158.7900  214.1360  150.7520 N   0  0  0  0  0  0  0  0  0  0  0  0
  159.2370  211.9450  145.3450 C   0  0  0  0  0  2  0  0  0  0  0  0
  163.5340  210.7890  148.4750 O   0  0  0  0  0  0  0  0  0  0  0  0
  162.0990  210.7800  148.9160 S   0  0  0  0  0  0  0  0  0  0  0  0
  161.0800  210.6620  151.4400 C   0  0  0  0  0  0  0  0  0  0  0  0
  161.5010  212.4700  148.9810 C   0  0  2  0  0  3  0  0  0  0  0  0
  156.4120  214.1210  146.1670 O   0  0  0  0  0  0  0  0  0  0  0  0
  159.5750  213.8840  148.5090 C   0  0  2  0  0  3  0  0  0  0  0  0
  160.1550  211.7580  151.0240 C   0  0  0  0  0  2  0  0  0  0  0  0
  161.9870  210.0990  150.4980 N   0  0  0  0  0  2  0  0  0  0  0  0
  157.2890  213.2320  146.3260 C   0  0  0  0  0  0  0  0  0  0  0  0
  161.0440  213.1880  146.6210 C   0  0  0  0  0  0  0  0  0  0  0  0
  157.7350  213.7290  149.9100 C   0  0  0  0  0  0  0  0  0  0  0  0
  160.9570  210.1300  152.6100 N   0  0  0  0  0  2  0  0  0  0  0  0
  157.4670  212.6090  147.6710 C   0  0  0  0  0  2  0  0  0  0  0  0
  162.1610  214.0420  146.6010 C   0  0  0  0  0  3  0  0  0  0  0  0
  161.0480  213.1930  144.1880 C   0  0  0  0  0  3  0  0  0  0  0  0
  162.1700  214.0250  144.1850 C   0  0  0  0  0  3  0  0  0  0  0  0
  158.0790  212.8180  145.2100 N   0  0  0  0  0  2  0  0  0  0  0  0
  160.0260  214.0980  149.9750 C   0  0  2  0  0  3  0  0  0  0  0  0
  158.1550  213.5210  148.5770 N   0  0  0  0  0  0  0  0  0  0  0  0
  160.9230  212.8970  150.3300 C   0  0  2  0  0  3  0  0  0  0  0  0
  158.6850  214.4420  152.1690 C   0  0  0  0  0  1  0  0  0  0  0  0
  160.4370  212.7650  147.9330 C   0  0  1  0  0  3  0  0  0  0  0  0
  1 16  1  0  0  0  0
  2  8  2  0  0  0  0
  4 20  1  0  0  0  0
  5 27  1  0  0  0  0
  6  1  1  0  0  0  0
  7  8  2  0  0  0  0
  8 14  1  0  0  0  0
  9 18  2  0  0  0  0
 10  8  1  1  0  0  0
 10 26  1  0  0  0  0
 11 15  2  0  0  0  0
 12 25  1  1  0  0  0
 12 24  1  0  0  0  0
 13  9  1  0  0  0  0
 14  9  1  0  0  0  0
 15 19  1  0  0  0  0
 17  3  2  0  0  0  0
 17  5  1  0  0  0  0
 19 25  1  0  0  0  0
 20 16  2  0  0  0  0
 21  1  2  0  0  0  0
 22 21  1  0  0  0  0
 22  4  2  0  0  0  0
 23  6  1  0  0  0  0
 23 15  1  0  0  0  0
 24 26  1  0  0  0  0
 24  5  1  1  0  0  0
 25 17  1  0  0  0  0
 26 13  1  6  0  0  0
 28 16  1  6  0  0  0
 28 12  1  0  0  0  0
 28 10  1  0  0  0  0
M  END
>  <MODEL>
4

>  <REMARK>
 VINA RESULT:      -2.3      5.633      8.407
  Name = 
  0 active torsions:
  status: ('A' for Active; 'I' for Inactive)
                            x       y       z     vdW  Elec       q    Type
                         _______ _______ _______ _____ _____    ______ ____

>  <TORSDO>
F 0

$$$$
