=
 OpenBabel11122413133D

 31 35  0  0  1  0  0  0  0  0999 V2000
  162.2070  210.1470  149.3060 C   0  0  0  0  0  0  0  0  0  0  0  0
  161.6030  207.7480  152.1370 N   0  0  0  0  0  0  0  0  0  0  0  0
  161.0590  208.4870  153.2600 C   0  0  0  0  0  0  0  0  0  0  0  0
  160.3480  210.5670  154.3080 C   0  0  0  0  0  0  0  0  0  0  0  0
  161.6700  208.3230  150.8170 C   0  0  0  0  0  0  0  0  0  0  0  0
  161.7530  209.3890  148.2230 C   0  0  0  0  0  3  0  0  0  0  0  0
  160.9450  209.8860  153.2430 C   0  0  0  0  0  3  0  0  0  0  0  0
  160.4770  205.8060  151.3180 N   0  0  0  0  0  0  0  0  0  0  0  0
  162.7300  211.5190  149.0830 C   0  0  0  0  0  1  0  0  0  0  0  0
  160.6650  206.3950  154.4120 O   0  0  0  0  0  0  0  0  0  0  0  0
  160.2480  211.9500  154.2780 O   0  0  0  0  0  1  0  0  0  0  0  0
  160.7810  206.1300  149.9160 C   0  0  0  0  0  2  0  0  0  0  0  0
  161.5950  206.2760  152.1500 C   0  0  2  0  0  3  0  0  0  0  0  0
  162.1700  209.6150  150.5970 C   0  0  0  0  0  3  0  0  0  0  0  0
  159.8450  209.8530  155.3970 C   0  0  0  0  0  3  0  0  0  0  0  0
  161.2170  207.5620  149.7210 C   0  0  0  0  0  0  0  0  0  0  0  0
  161.2670  208.0940  148.4300 C   0  0  0  0  0  3  0  0  0  0  0  0
  161.5940  205.7100  153.5810 C   0  0  0  0  0  2  0  0  0  0  0  0
  160.5630  207.7820  154.3700 C   0  0  0  0  0  0  0  0  0  0  0  0
  159.9490  208.4610  155.4280 C   0  0  0  0  0  3  0  0  0  0  0  0
  160.3870  204.3500  151.3790 C   0  0  0  0  0  2  0  0  0  0  0  0
  162.2500  202.6820  151.4210 C   0  0  0  0  0  1  0  0  0  0  0  0
  161.5310  203.7270  150.5880 C   0  0  1  0  0  3  0  0  0  0  0  0
  160.8470  201.5120  147.0250 C   0  0  0  0  0  0  0  0  0  0  0  0
  160.1600  202.0100  149.3760 C   0  0  0  0  0  2  0  0  0  0  0  0
  162.1000  204.7250  147.9080 O   0  0  0  0  0  0  0  0  0  0  0  0
  160.6270  200.6550  145.8310 C   0  0  0  0  0  1  0  0  0  0  0  0
  160.6370  200.9330  148.3990 C   0  0  0  0  0  2  0  0  0  0  0  0
  161.5140  203.6170  148.0370 C   0  0  0  0  0  0  0  0  0  0  0  0
  161.0580  203.1620  149.3250 N   0  0  0  0  0  0  0  0  0  0  0  0
  161.3040  202.7570  146.8640 C   0  0  0  0  0  3  0  0  0  0  0  0
  1 14  1  0  0  0  0
  2 13  1  0  0  0  0
  2  3  1  0  0  0  0
  3 19  1  0  0  0  0
  4 15  2  0  0  0  0
  5  2  1  0  0  0  0
  6 17  1  0  0  0  0
  6  1  2  0  0  0  0
  7  3  2  0  0  0  0
  7  4  1  0  0  0  0
  8 21  1  0  0  0  0
  8 13  1  0  0  0  0
  9  1  1  0  0  0  0
 11  4  1  0  0  0  0
 12  8  1  0  0  0  0
 13 18  1  1  0  0  0
 14  5  2  0  0  0  0
 15 20  1  0  0  0  0
 16 12  1  0  0  0  0
 16  5  1  0  0  0  0
 17 16  2  0  0  0  0
 18 10  1  0  0  0  0
 19 10  1  0  0  0  0
 19 20  2  0  0  0  0
 23 21  1  0  0  0  0
 23 22  1  1  0  0  0
 24 28  1  0  0  0  0
 26 29  2  0  0  0  0
 27 24  1  0  0  0  0
 28 25  1  0  0  0  0
 29 30  1  0  0  0  0
 30 25  1  0  0  0  0
 30 23  1  0  0  0  0
 31 24  2  0  0  0  0
 31 29  1  0  0  0  0
M  END
>  <MODEL>
1

>  <REMARK>
 VINA RESULT:      -7.8      0.000      0.000
  Name = 
  3 active torsions:
  status: ('A' for Active; 'I' for Inactive)
    1  A    between atoms: C_5  and  C_16
    2  A    between atoms: C_5  and  N_30
    3  A    between atoms: N_10  and  C_16
                            x       y       z     vdW  Elec       q    Type
                         _______ _______ _______ _____ _____    ______ ____

>  <TORSDO>
F 3

$$$$
=
 OpenBabel11122413133D

 31 35  0  0  1  0  0  0  0  0999 V2000
  161.9320  212.2120  148.8630 C   0  0  0  0  0  0  0  0  0  0  0  0
  161.0390  210.6430  152.1610 N   0  0  0  0  0  0  0  0  0  0  0  0
  159.9580  211.4040  152.7560 C   0  0  0  0  0  0  0  0  0  0  0  0
  158.3920  213.2690  152.7370 C   0  0  0  0  0  0  0  0  0  0  0  0
  161.4090  210.8130  150.7780 C   0  0  0  0  0  0  0  0  0  0  0  0
  162.1100  211.0720  148.0740 C   0  0  0  0  0  3  0  0  0  0  0  0
  159.4850  212.5960  152.1840 C   0  0  0  0  0  3  0  0  0  0  0  0
  160.8380  208.2760  151.8970 N   0  0  0  0  0  0  0  0  0  0  0  0
  162.1110  213.5610  148.2690 C   0  0  0  0  0  1  0  0  0  0  0  0
  159.7610  209.7220  154.4850 O   0  0  0  0  0  0  0  0  0  0  0  0
  157.9420  214.4490  152.1630 O   0  0  0  0  0  1  0  0  0  0  0  0
  161.5180  208.2900  150.5920 C   0  0  0  0  0  2  0  0  0  0  0  0
  161.4220  209.3400  152.7290 C   0  0  2  0  0  3  0  0  0  0  0  0
  161.5870  212.0840  150.2110 C   0  0  0  0  0  3  0  0  0  0  0  0
  157.7500  212.7500  153.8630 C   0  0  0  0  0  3  0  0  0  0  0  0
  161.5930  209.6670  149.9790 C   0  0  0  0  0  0  0  0  0  0  0  0
  161.9490  209.8010  148.6340 C   0  0  0  0  0  3  0  0  0  0  0  0
  161.0700  209.2330  154.2230 C   0  0  0  0  0  2  0  0  0  0  0  0
  159.3110  210.9000  153.8990 C   0  0  0  0  0  0  0  0  0  0  0  0
  158.2070  211.5650  154.4420 C   0  0  0  0  0  3  0  0  0  0  0  0
  161.1280  206.9700  152.4810 C   0  0  0  0  0  2  0  0  0  0  0  0
  163.3070  205.7730  152.2050 C   0  0  0  0  0  1  0  0  0  0  0  0
  162.0020  206.1600  151.5320 C   0  0  1  0  0  3  0  0  0  0  0  0
  160.7600  202.3410  150.1390 C   0  0  0  0  0  0  0  0  0  0  0  0
  160.8100  204.0030  152.0040 C   0  0  0  0  0  2  0  0  0  0  0  0
  161.3360  205.5690  148.7550 O   0  0  0  0  0  0  0  0  0  0  0  0
  160.3820  200.9650  149.7230 C   0  0  0  0  0  1  0  0  0  0  0  0
  161.1930  202.5910  151.5600 C   0  0  0  0  0  2  0  0  0  0  0  0
  161.1460  204.6850  149.6320 C   0  0  0  0  0  0  0  0  0  0  0  0
  161.2960  204.9810  151.0340 N   0  0  0  0  0  0  0  0  0  0  0  0
  160.7860  203.3180  149.2290 C   0  0  0  0  0  3  0  0  0  0  0  0
  1 14  1  0  0  0  0
  2 13  1  0  0  0  0
  2  3  1  0  0  0  0
  3 19  1  0  0  0  0
  4 15  2  0  0  0  0
  5  2  1  0  0  0  0
  6 17  1  0  0  0  0
  6  1  2  0  0  0  0
  7  4  1  0  0  0  0
  7  3  2  0  0  0  0
  8 21  1  0  0  0  0
  8 13  1  0  0  0  0
  9  1  1  0  0  0  0
 11  4  1  0  0  0  0
 12  8  1  0  0  0  0
 13 18  1  1  0  0  0
 14  5  2  0  0  0  0
 15 20  1  0  0  0  0
 16 12  1  0  0  0  0
 16  5  1  0  0  0  0
 17 16  2  0  0  0  0
 18 10  1  0  0  0  0
 19 20  2  0  0  0  0
 19 10  1  0  0  0  0
 23 22  1  1  0  0  0
 23 21  1  0  0  0  0
 24 28  1  0  0  0  0
 26 29  2  0  0  0  0
 27 24  1  0  0  0  0
 28 25  1  0  0  0  0
 29 30  1  0  0  0  0
 30 23  1  0  0  0  0
 30 25  1  0  0  0  0
 31 29  1  0  0  0  0
 31 24  2  0  0  0  0
M  END
>  <MODEL>
2

>  <REMARK>
 VINA RESULT:      -7.7      1.869      2.979
  Name = 
  3 active torsions:
  status: ('A' for Active; 'I' for Inactive)
    1  A    between atoms: C_5  and  C_16
    2  A    between atoms: C_5  and  N_30
    3  A    between atoms: N_10  and  C_16
                            x       y       z     vdW  Elec       q    Type
                         _______ _______ _______ _____ _____    ______ ____

>  <TORSDO>
F 3

$$$$
=
 OpenBabel11122413133D

 31 35  0  0  1  0  0  0  0  0999 V2000
  160.9510  206.5780  146.8170 C   0  0  0  0  0  0  0  0  0  0  0  0
  160.7370  204.8600  150.1550 N   0  0  0  0  0  0  0  0  0  0  0  0
  160.8520  203.4300  149.9460 C   0  0  0  0  0  0  0  0  0  0  0  0
  161.0800  201.4930  148.4870 C   0  0  0  0  0  0  0  0  0  0  0  0
  161.0680  205.8030  149.1160 C   0  0  0  0  0  0  0  0  0  0  0  0
  161.7670  207.6660  147.1390 C   0  0  0  0  0  3  0  0  0  0  0  0
  160.8930  202.8670  148.6600 C   0  0  0  0  0  3  0  0  0  0  0  0
  162.1660  205.9640  151.7200 N   0  0  0  0  0  0  0  0  0  0  0  0
  160.4570  206.4060  145.4280 C   0  0  0  0  0  1  0  0  0  0  0  0
  160.9630  203.1150  152.3430 O   0  0  0  0  0  0  0  0  0  0  0  0
  161.1120  200.9530  147.2090 O   0  0  0  0  0  1  0  0  0  0  0  0
  162.3120  207.1500  150.8620 C   0  0  0  0  0  2  0  0  0  0  0  0
  160.8170  205.4140  151.5160 C   0  0  2  0  0  3  0  0  0  0  0  0
  160.5990  205.6520  147.8030 C   0  0  0  0  0  3  0  0  0  0  0  0
  161.2420  200.6660  149.5990 C   0  0  0  0  0  3  0  0  0  0  0  0
  161.8880  206.9040  149.4360 C   0  0  0  0  0  0  0  0  0  0  0  0
  162.2280  207.8330  148.4480 C   0  0  0  0  0  3  0  0  0  0  0  0
  160.3880  204.3920  152.5840 C   0  0  0  0  0  2  0  0  0  0  0  0
  161.0010  202.5830  151.0580 C   0  0  0  0  0  0  0  0  0  0  0  0
  161.2060  201.2100  150.8840 C   0  0  0  0  0  3  0  0  0  0  0  0
  162.3070  206.4450  153.0920 C   0  0  0  0  0  2  0  0  0  0  0  0
  160.4560  206.2030  154.7560 C   0  0  0  0  0  1  0  0  0  0  0  0
  160.9800  207.0100  153.5820 C   0  0  1  0  0  3  0  0  0  0  0  0
  160.5060  211.0090  154.9400 C   0  0  0  0  0  0  0  0  0  0  0  0
  161.5810  208.7760  155.2590 C   0  0  0  0  0  2  0  0  0  0  0  0
  160.4560  209.2800  151.8290 O   0  0  0  0  0  0  0  0  0  0  0  0
  160.3020  212.3710  155.4990 C   0  0  0  0  0  1  0  0  0  0  0  0
  160.6760  209.8440  155.8770 C   0  0  0  0  0  2  0  0  0  0  0  0
  160.6680  209.4880  153.0530 C   0  0  0  0  0  0  0  0  0  0  0  0
  161.0990  208.4260  153.9250 N   0  0  0  0  0  0  0  0  0  0  0  0
  160.4560  210.8290  153.6170 C   0  0  0  0  0  3  0  0  0  0  0  0
  1  6  2  0  0  0  0
  1 14  1  0  0  0  0
  2 13  1  0  0  0  0
  3  2  1  0  0  0  0
  3 19  1  0  0  0  0
  4  7  1  0  0  0  0
  4 15  2  0  0  0  0
  5 16  1  0  0  0  0
  5  2  1  0  0  0  0
  6 17  1  0  0  0  0
  7  3  2  0  0  0  0
  8 21  1  0  0  0  0
  9  1  1  0  0  0  0
 10 18  1  0  0  0  0
 11  4  1  0  0  0  0
 12  8  1  0  0  0  0
 13  8  1  0  0  0  0
 13 18  1  1  0  0  0
 14  5  2  0  0  0  0
 15 20  1  0  0  0  0
 16 12  1  0  0  0  0
 17 16  2  0  0  0  0
 19 10  1  0  0  0  0
 20 19  2  0  0  0  0
 21 23  1  0  0  0  0
 23 30  1  0  0  0  0
 23 22  1  1  0  0  0
 24 27  1  0  0  0  0
 24 28  1  0  0  0  0
 25 28  1  0  0  0  0
 26 29  2  0  0  0  0
 29 31  1  0  0  0  0
 29 30  1  0  0  0  0
 30 25  1  0  0  0  0
 31 24  2  0  0  0  0
M  END
>  <MODEL>
3

>  <REMARK>
 VINA RESULT:      -7.3      1.953      7.395
  Name = 
  3 active torsions:
  status: ('A' for Active; 'I' for Inactive)
    1  A    between atoms: C_5  and  C_16
    2  A    between atoms: C_5  and  N_30
    3  A    between atoms: N_10  and  C_16
                            x       y       z     vdW  Elec       q    Type
                         _______ _______ _______ _____ _____    ______ ____

>  <TORSDO>
F 3

$$$$
=
 OpenBabel11122413133D

 31 35  0  0  1  0  0  0  0  0999 V2000
  160.5820  208.3200  154.8400 C   0  0  0  0  0  0  0  0  0  0  0  0
  161.6480  209.3740  151.3920 N   0  0  0  0  0  0  0  0  0  0  0  0
  161.5080  208.2410  150.4980 C   0  0  0  0  0  0  0  0  0  0  0  0
  160.9570  205.9060  150.0760 C   0  0  0  0  0  0  0  0  0  0  0  0
  161.0530  209.3780  152.7040 C   0  0  0  0  0  0  0  0  0  0  0  0
  159.8530  209.4430  155.2390 C   0  0  0  0  0  3  0  0  0  0  0  0
  161.1580  206.9640  150.9670 C   0  0  0  0  0  3  0  0  0  0  0  0
  160.6340  211.4680  150.8420 N   0  0  0  0  0  0  0  0  0  0  0  0
  160.7180  207.1590  155.7560 C   0  0  0  0  0  1  0  0  0  0  0  0
  162.0020  209.6890  148.6240 O   0  0  0  0  0  0  0  0  0  0  0  0
  160.6170  204.6500  150.5570 O   0  0  0  0  0  1  0  0  0  0  0  0
  160.2600  211.7370  152.2390 C   0  0  0  0  0  2  0  0  0  0  0  0
  161.8990  210.7170  150.8430 C   0  0  2  0  0  3  0  0  0  0  0  0
  161.1840  208.2890  153.5790 C   0  0  0  0  0  3  0  0  0  0  0  0
  161.0900  206.1170  148.7030 C   0  0  0  0  0  3  0  0  0  0  0  0
  160.3200  210.5100  153.1140 C   0  0  0  0  0  0  0  0  0  0  0  0
  159.7300  210.5400  154.3810 C   0  0  0  0  0  3  0  0  0  0  0  0
  162.5970  210.6620  149.4730 C   0  0  0  0  0  2  0  0  0  0  0  0
  161.6540  208.4350  149.1140 C   0  0  0  0  0  0  0  0  0  0  0  0
  161.4360  207.3800  148.2210 C   0  0  0  0  0  3  0  0  0  0  0  0
  160.8300  212.7760  150.2240 C   0  0  0  0  0  2  0  0  0  0  0  0
  158.8300  214.2190  149.8090 C   0  0  0  0  0  1  0  0  0  0  0  0
  159.6770  213.0790  149.2750 C   0  0  1  0  0  3  0  0  0  0  0  0
  161.3450  213.0540  145.3660 C   0  0  0  0  0  0  0  0  0  0  0  0
  159.2950  213.0410  146.7950 C   0  0  0  0  0  2  0  0  0  0  0  0
  162.1940  214.3660  148.5630 O   0  0  0  0  0  0  0  0  0  0  0  0
  161.8860  212.9560  143.9850 C   0  0  0  0  0  1  0  0  0  0  0  0
  160.0940  212.2960  145.7240 C   0  0  0  0  0  2  0  0  0  0  0  0
  161.4860  213.8610  147.6520 C   0  0  0  0  0  0  0  0  0  0  0  0
  160.1610  213.3680  147.9260 N   0  0  0  0  0  0  0  0  0  0  0  0
  162.0190  213.7480  146.2870 C   0  0  0  0  0  3  0  0  0  0  0  0
  1  6  1  0  0  0  0
  1  9  1  0  0  0  0
  2  5  1  0  0  0  0
  3  7  1  0  0  0  0
  3  2  1  0  0  0  0
  4 11  1  0  0  0  0
  4  7  2  0  0  0  0
  5 16  2  0  0  0  0
  5 14  1  0  0  0  0
  8 13  1  0  0  0  0
  8 12  1  0  0  0  0
 10 19  1  0  0  0  0
 10 18  1  0  0  0  0
 12 16  1  0  0  0  0
 13 18  1  6  0  0  0
 13  2  1  0  0  0  0
 14  1  2  0  0  0  0
 15  4  1  0  0  0  0
 16 17  1  0  0  0  0
 17  6  2  0  0  0  0
 19  3  2  0  0  0  0
 20 15  2  0  0  0  0
 20 19  1  0  0  0  0
 21  8  1  0  0  0  0
 23 22  1  1  0  0  0
 23 21  1  0  0  0  0
 24 28  1  0  0  0  0
 24 31  2  0  0  0  0
 25 30  1  0  0  0  0
 27 24  1  0  0  0  0
 28 25  1  0  0  0  0
 29 30  1  0  0  0  0
 29 26  2  0  0  0  0
 30 23  1  0  0  0  0
 31 29  1  0  0  0  0
M  END
>  <MODEL>
4

>  <REMARK>
 VINA RESULT:      -7.2      3.171      8.018
  Name = 
  3 active torsions:
  status: ('A' for Active; 'I' for Inactive)
    1  A    between atoms: C_5  and  C_16
    2  A    between atoms: C_5  and  N_30
    3  A    between atoms: N_10  and  C_16
                            x       y       z     vdW  Elec       q    Type
                         _______ _______ _______ _____ _____    ______ ____

>  <TORSDO>
F 3

$$$$
=
 OpenBabel11122413133D

 31 35  0  0  1  0  0  0  0  0999 V2000
  161.1520  202.2860  150.8730 C   0  0  0  0  0  0  0  0  0  0  0  0
  161.8940  205.4130  148.9220 N   0  0  0  0  0  0  0  0  0  0  0  0
  161.5830  205.1720  147.5260 C   0  0  0  0  0  0  0  0  0  0  0  0
  160.8390  203.7140  145.7230 C   0  0  0  0  0  0  0  0  0  0  0  0
  161.4500  204.5170  149.9600 C   0  0  0  0  0  0  0  0  0  0  0  0
  160.5460  202.8290  152.0090 C   0  0  0  0  0  3  0  0  0  0  0  0
  161.2060  203.9030  147.0580 C   0  0  0  0  0  3  0  0  0  0  0  0
  160.9620  207.3040  150.0490 N   0  0  0  0  0  0  0  0  0  0  0  0
  161.3150  200.8150  150.7480 C   0  0  0  0  0  1  0  0  0  0  0  0
  161.9570  207.5170  147.0630 O   0  0  0  0  0  0  0  0  0  0  0  0
  160.4750  202.4520  145.2750 O   0  0  0  0  0  1  0  0  0  0  0  0
  160.7630  206.5530  151.2990 C   0  0  0  0  0  2  0  0  0  0  0  0
  162.1680  206.7830  149.3880 C   0  0  2  0  0  3  0  0  0  0  0  0
  161.6070  203.1270  149.8530 C   0  0  0  0  0  3  0  0  0  0  0  0
  160.8320  204.7970  144.8420 C   0  0  0  0  0  3  0  0  0  0  0  0
  160.8420  205.0590  151.1100 C   0  0  0  0  0  0  0  0  0  0  0  0
  160.3990  204.2130  152.1320 C   0  0  0  0  0  3  0  0  0  0  0  0
  162.7050  207.6820  148.2610 C   0  0  0  0  0  2  0  0  0  0  0  0
  161.5860  206.2500  146.6250 C   0  0  0  0  0  0  0  0  0  0  0  0
  161.2020  206.0650  145.2930 C   0  0  0  0  0  3  0  0  0  0  0  0
  161.1720  208.6930  150.4490 C   0  0  0  0  0  2  0  0  0  0  0  0
  163.0300  209.6760  151.8050 C   0  0  0  0  0  1  0  0  0  0  0  0
  161.8330  208.7430  151.8210 C   0  0  1  0  0  3  0  0  0  0  0  0
  159.6950  210.4540  155.0710 C   0  0  0  0  0  0  0  0  0  0  0  0
  159.9960  210.2650  152.5980 C   0  0  0  0  0  2  0  0  0  0  0  0
  161.3910  207.4040  154.3730 O   0  0  0  0  0  0  0  0  0  0  0  0
  158.9800  211.1420  156.1780 C   0  0  0  0  0  1  0  0  0  0  0  0
  159.9930  211.2080  153.8030 C   0  0  0  0  0  2  0  0  0  0  0  0
  160.8310  208.5110  154.1580 C   0  0  0  0  0  0  0  0  0  0  0  0
  160.8770  209.1290  152.8570 N   0  0  0  0  0  0  0  0  0  0  0  0
  160.1330  209.2040  155.2500 C   0  0  0  0  0  3  0  0  0  0  0  0
  1  6  1  0  0  0  0
  2 13  1  0  0  0  0
  2  5  1  0  0  0  0
  3  2  1  0  0  0  0
  4  7  2  0  0  0  0
  5 16  2  0  0  0  0
  6 17  2  0  0  0  0
  7  3  1  0  0  0  0
  8 21  1  0  0  0  0
  8 12  1  0  0  0  0
  9  1  1  0  0  0  0
 10 18  1  0  0  0  0
 11  4  1  0  0  0  0
 13 18  1  6  0  0  0
 13  8  1  0  0  0  0
 14  5  1  0  0  0  0
 14  1  2  0  0  0  0
 15 20  2  0  0  0  0
 15  4  1  0  0  0  0
 16 12  1  0  0  0  0
 16 17  1  0  0  0  0
 19 10  1  0  0  0  0
 19  3  2  0  0  0  0
 20 19  1  0  0  0  0
 21 23  1  0  0  0  0
 23 22  1  6  0  0  0
 23 30  1  0  0  0  0
 24 31  2  0  0  0  0
 24 27  1  0  0  0  0
 25 30  1  0  0  0  0
 25 28  1  0  0  0  0
 28 24  1  0  0  0  0
 29 26  2  0  0  0  0
 29 31  1  0  0  0  0
 30 29  1  0  0  0  0
M  END
>  <MODEL>
5

>  <REMARK>
 VINA RESULT:      -7.1      1.926      8.291
  Name = 
  3 active torsions:
  status: ('A' for Active; 'I' for Inactive)
    1  A    between atoms: C_5  and  C_16
    2  A    between atoms: C_5  and  N_30
    3  A    between atoms: N_10  and  C_16
                            x       y       z     vdW  Elec       q    Type
                         _______ _______ _______ _____ _____    ______ ____

>  <TORSDO>
F 3

$$$$
=
 OpenBabel11122413133D

 31 35  0  0  1  0  0  0  0  0999 V2000
  161.2380  201.3150  149.2160 C   0  0  0  0  0  0  0  0  0  0  0  0
  161.7210  204.9770  148.5160 N   0  0  0  0  0  0  0  0  0  0  0  0
  161.3030  205.2460  147.1540 C   0  0  0  0  0  0  0  0  0  0  0  0
  160.4560  204.5100  144.9930 C   0  0  0  0  0  0  0  0  0  0  0  0
  161.3920  203.7390  149.1760 C   0  0  0  0  0  0  0  0  0  0  0  0
  160.7120  201.3670  150.5100 C   0  0  0  0  0  3  0  0  0  0  0  0
  160.9260  204.2170  146.2760 C   0  0  0  0  0  3  0  0  0  0  0  0
  160.8310  206.2650  150.3220 N   0  0  0  0  0  0  0  0  0  0  0  0
  161.4330  200.0040  148.5460 C   0  0  0  0  0  1  0  0  0  0  0  0
  161.5680  207.6160  147.5680 O   0  0  0  0  0  0  0  0  0  0  0  0
  160.0940  203.4810  144.1360 O   0  0  0  0  0  1  0  0  0  0  0  0
  160.7590  205.0990  151.2160 C   0  0  0  0  0  2  0  0  0  0  0  0
  161.9930  206.0940  149.4370 C   0  0  2  0  0  3  0  0  0  0  0  0
  161.5810  202.4960  148.5530 C   0  0  0  0  0  3  0  0  0  0  0  0
  160.3440  205.8380  144.5780 C   0  0  0  0  0  3  0  0  0  0  0  0
  160.8660  203.7850  150.4820 C   0  0  0  0  0  0  0  0  0  0  0  0
  160.5350  202.6000  151.1460 C   0  0  0  0  0  3  0  0  0  0  0  0
  162.4070  207.3730  148.6890 C   0  0  0  0  0  2  0  0  0  0  0  0
  161.2000  206.5790  146.7170 C   0  0  0  0  0  0  0  0  0  0  0  0
  160.7120  206.8720  145.4400 C   0  0  0  0  0  3  0  0  0  0  0  0
  161.0320  207.4210  151.1920 C   0  0  0  0  0  2  0  0  0  0  0  0
  162.3310  206.3070  153.0160 C   0  0  0  0  0  1  0  0  0  0  0  0
  161.0200  206.9790  152.6500 C   0  0  1  0  0  3  0  0  0  0  0  0
  161.0870  210.2540  155.3580 C   0  0  0  0  0  0  0  0  0  0  0  0
  160.8300  209.4560  153.0040 C   0  0  0  0  0  2  0  0  0  0  0  0
  160.1530  206.8200  155.4300 O   0  0  0  0  0  0  0  0  0  0  0  0
  161.1900  211.4340  156.2560 C   0  0  0  0  0  1  0  0  0  0  0  0
  161.6340  210.3410  153.9580 C   0  0  0  0  0  2  0  0  0  0  0  0
  160.4670  207.9420  154.9490 C   0  0  0  0  0  0  0  0  0  0  0  0
  160.7350  208.1010  153.5430 N   0  0  0  0  0  0  0  0  0  0  0  0
  160.5840  209.1110  155.8320 C   0  0  0  0  0  3  0  0  0  0  0  0
  1  6  1  0  0  0  0
  2  5  1  0  0  0  0
  2 13  1  0  0  0  0
  3  2  1  0  0  0  0
  4  7  1  0  0  0  0
  5 16  2  0  0  0  0
  6 17  2  0  0  0  0
  7  3  2  0  0  0  0
  8 21  1  0  0  0  0
  8 12  1  0  0  0  0
  9  1  1  0  0  0  0
 10 18  1  0  0  0  0
 11  4  1  0  0  0  0
 13 18  1  6  0  0  0
 13  8  1  0  0  0  0
 14  5  1  0  0  0  0
 14  1  2  0  0  0  0
 15  4  2  0  0  0  0
 15 20  1  0  0  0  0
 16 17  1  0  0  0  0
 16 12  1  0  0  0  0
 19  3  1  0  0  0  0
 19 10  1  0  0  0  0
 20 19  2  0  0  0  0
 21 23  1  0  0  0  0
 23 22  1  1  0  0  0
 23 30  1  0  0  0  0
 24 31  2  0  0  0  0
 24 27  1  0  0  0  0
 25 30  1  0  0  0  0
 25 28  1  0  0  0  0
 28 24  1  0  0  0  0
 29 26  2  0  0  0  0
 29 31  1  0  0  0  0
 30 29  1  0  0  0  0
M  END
>  <MODEL>
6

>  <REMARK>
 VINA RESULT:      -7.0      1.979      8.320
  Name = 
  3 active torsions:
  status: ('A' for Active; 'I' for Inactive)
    1  A    between atoms: C_5  and  C_16
    2  A    between atoms: C_5  and  N_30
    3  A    between atoms: N_10  and  C_16
                            x       y       z     vdW  Elec       q    Type
                         _______ _______ _______ _____ _____    ______ ____

>  <TORSDO>
F 3

$$$$
=
 OpenBabel11122413133D

 31 35  0  0  1  0  0  0  0  0999 V2000
  161.6550  212.9250  148.6810 C   0  0  0  0  0  0  0  0  0  0  0  0
  161.7290  210.0740  151.1310 N   0  0  0  0  0  0  0  0  0  0  0  0
  160.8800  210.4110  152.2570 C   0  0  0  0  0  0  0  0  0  0  0  0
  159.4100  211.9490  153.4410 C   0  0  0  0  0  0  0  0  0  0  0  0
  161.6840  210.8250  149.9010 C   0  0  0  0  0  0  0  0  0  0  0  0
  161.5760  212.2260  147.4730 C   0  0  0  0  0  3  0  0  0  0  0  0
  160.2830  211.6750  152.3850 C   0  0  0  0  0  3  0  0  0  0  0  0
  161.4190  208.0080  149.9690 N   0  0  0  0  0  0  0  0  0  0  0  0
  161.6770  214.4100  148.6790 C   0  0  0  0  0  1  0  0  0  0  0  0
  161.1640  208.1640  153.1100 O   0  0  0  0  0  0  0  0  0  0  0  0
  158.8330  213.2050  153.5570 O   0  0  0  0  0  1  0  0  0  0  0  0
  161.6900  208.6190  148.6590 C   0  0  0  0  0  2  0  0  0  0  0  0
  162.2370  208.7010  150.9770 C   0  0  2  0  0  3  0  0  0  0  0  0
  161.7140  212.2280  149.8910 C   0  0  0  0  0  3  0  0  0  0  0  0
  159.1120  210.9550  154.3750 C   0  0  0  0  0  3  0  0  0  0  0  0
  161.6090  210.1260  148.6810 C   0  0  0  0  0  0  0  0  0  0  0  0
  161.5620  210.8280  147.4730 C   0  0  0  0  0  3  0  0  0  0  0  0
  162.3310  207.9640  152.3240 C   0  0  0  0  0  2  0  0  0  0  0  0
  160.5840  209.4240  153.2140 C   0  0  0  0  0  0  0  0  0  0  0  0
  159.6960  209.6920  154.2600 C   0  0  0  0  0  3  0  0  0  0  0  0
  161.8420  206.6150  149.8540 C   0  0  0  0  0  2  0  0  0  0  0  0
  160.4560  206.4260  147.7800 C   0  0  0  0  0  1  0  0  0  0  0  0
  160.7720  205.8070  149.1300 C   0  0  1  0  0  3  0  0  0  0  0  0
  161.1410  201.6600  148.2780 C   0  0  0  0  0  0  0  0  0  0  0  0
  161.8460  204.0000  147.7600 C   0  0  0  0  0  2  0  0  0  0  0  0
  160.4560  203.6960  151.1160 O   0  0  0  0  0  0  0  0  0  0  0  0
  161.2340  200.2280  147.8880 C   0  0  0  0  0  1  0  0  0  0  0  0
  161.2100  202.7210  147.2120 C   0  0  0  0  0  2  0  0  0  0  0  0
  160.8330  203.3910  149.9530 C   0  0  0  0  0  0  0  0  0  0  0  0
  161.1690  204.4070  148.9880 N   0  0  0  0  0  0  0  0  0  0  0  0
  160.9160  201.9790  149.5550 C   0  0  0  0  0  3  0  0  0  0  0  0
  1 14  1  0  0  0  0
  2  3  1  0  0  0  0
  3  7  2  0  0  0  0
  3 19  1  0  0  0  0
  4 11  1  0  0  0  0
  4 15  2  0  0  0  0
  5  2  1  0  0  0  0
  6 17  1  0  0  0  0
  6  1  2  0  0  0  0
  7  4  1  0  0  0  0
  8 13  1  0  0  0  0
  9  1  1  0  0  0  0
 10 19  1  0  0  0  0
 12 16  1  0  0  0  0
 12  8  1  0  0  0  0
 13  2  1  0  0  0  0
 13 18  1  1  0  0  0
 14  5  2  0  0  0  0
 16  5  1  0  0  0  0
 17 16  2  0  0  0  0
 18 10  1  0  0  0  0
 19 20  2  0  0  0  0
 20 15  1  0  0  0  0
 21  8  1  0  0  0  0
 23 22  1  6  0  0  0
 23 21  1  0  0  0  0
 24 31  2  0  0  0  0
 25 30  1  0  0  0  0
 27 24  1  0  0  0  0
 28 25  1  0  0  0  0
 28 24  1  0  0  0  0
 29 26  2  0  0  0  0
 30 23  1  0  0  0  0
 30 29  1  0  0  0  0
 31 29  1  0  0  0  0
M  END
>  <MODEL>
7

>  <REMARK>
 VINA RESULT:      -6.9      1.667      2.679
  Name = 
  3 active torsions:
  status: ('A' for Active; 'I' for Inactive)
    1  A    between atoms: C_5  and  C_16
    2  A    between atoms: C_5  and  N_30
    3  A    between atoms: N_10  and  C_16
                            x       y       z     vdW  Elec       q    Type
                         _______ _______ _______ _____ _____    ______ ____

>  <TORSDO>
F 3

$$$$
=
 OpenBabel11122413133D

 31 35  0  0  1  0  0  0  0  0999 V2000
  160.8470  201.9140  149.6020 C   0  0  0  0  0  0  0  0  0  0  0  0
  162.0020  205.4050  150.3880 N   0  0  0  0  0  0  0  0  0  0  0  0
  161.7230  206.2520  149.2440 C   0  0  0  0  0  0  0  0  0  0  0  0
  160.8990  206.5790  146.9760 C   0  0  0  0  0  0  0  0  0  0  0  0
  161.4220  204.0910  150.5130 C   0  0  0  0  0  0  0  0  0  0  0  0
  160.2590  201.5570  150.8180 C   0  0  0  0  0  3  0  0  0  0  0  0
  161.2300  205.7320  148.0370 C   0  0  0  0  0  3  0  0  0  0  0  0
  161.2370  206.0350  152.5630 N   0  0  0  0  0  0  0  0  0  0  0  0
  160.8540  200.9530  148.4700 C   0  0  0  0  0  1  0  0  0  0  0  0
  162.3680  208.1840  150.5500 O   0  0  0  0  0  0  0  0  0  0  0  0
  160.4180  206.0480  145.7880 O   0  0  0  0  0  1  0  0  0  0  0  0
  160.9080  204.6480  152.9290 C   0  0  0  0  0  2  0  0  0  0  0  0
  162.4050  206.0080  151.6690 C   0  0  2  0  0  3  0  0  0  0  0  0
  161.4310  203.1750  149.4510 C   0  0  0  0  0  3  0  0  0  0  0  0
  161.0450  207.9600  147.1160 C   0  0  0  0  0  3  0  0  0  0  0  0
  160.8310  203.7240  151.7380 C   0  0  0  0  0  0  0  0  0  0  0  0
  160.2580  202.4580  151.8870 C   0  0  0  0  0  3  0  0  0  0  0  0
  163.0810  207.3770  151.4780 C   0  0  0  0  0  2  0  0  0  0  0  0
  161.8800  207.6440  149.3650 C   0  0  0  0  0  0  0  0  0  0  0  0
  161.5320  208.4930  148.3100 C   0  0  0  0  0  3  0  0  0  0  0  0
  161.5800  206.7050  153.8140 C   0  0  0  0  0  2  0  0  0  0  0  0
  159.8990  206.6960  155.6660 C   0  0  0  0  0  1  0  0  0  0  0  0
  160.3470  207.3880  154.3910 C   0  0  1  0  0  3  0  0  0  0  0  0
  160.1870  211.5270  155.3440 C   0  0  0  0  0  0  0  0  0  0  0  0
  160.9880  209.2410  155.9560 C   0  0  0  0  0  2  0  0  0  0  0  0
  160.2150  209.5190  152.4050 O   0  0  0  0  0  0  0  0  0  0  0  0
  160.0810  212.9500  155.7610 C   0  0  0  0  0  1  0  0  0  0  0  0
  160.1530  210.4460  156.3920 C   0  0  0  0  0  2  0  0  0  0  0  0
  160.3440  209.8220  153.6210 C   0  0  0  0  0  0  0  0  0  0  0  0
  160.5860  208.8120  154.6190 N   0  0  0  0  0  0  0  0  0  0  0  0
  160.2290  211.2250  154.0430 C   0  0  0  0  0  3  0  0  0  0  0  0
  1  6  1  0  0  0  0
  2  5  1  0  0  0  0
  2 13  1  0  0  0  0
  3 19  1  0  0  0  0
  3  2  1  0  0  0  0
  4 15  2  0  0  0  0
  4  7  1  0  0  0  0
  5 16  2  0  0  0  0
  6 17  2  0  0  0  0
  7  3  2  0  0  0  0
  8 12  1  0  0  0  0
  8 21  1  0  0  0  0
  9  1  1  0  0  0  0
 10 18  1  0  0  0  0
 11  4  1  0  0  0  0
 13 18  1  6  0  0  0
 13  8  1  0  0  0  0
 14  1  2  0  0  0  0
 14  5  1  0  0  0  0
 15 20  1  0  0  0  0
 16 17  1  0  0  0  0
 16 12  1  0  0  0  0
 19 10  1  0  0  0  0
 20 19  2  0  0  0  0
 21 23  1  0  0  0  0
 23 30  1  0  0  0  0
 23 22  1  1  0  0  0
 24 27  1  0  0  0  0
 24 28  1  0  0  0  0
 25 28  1  0  0  0  0
 26 29  2  0  0  0  0
 29 31  1  0  0  0  0
 29 30  1  0  0  0  0
 30 25  1  0  0  0  0
 31 24  2  0  0  0  0
M  END
>  <MODEL>
8

>  <REMARK>
 VINA RESULT:      -6.7      1.822      7.799
  Name = 
  3 active torsions:
  status: ('A' for Active; 'I' for Inactive)
    1  A    between atoms: C_5  and  C_16
    2  A    between atoms: C_5  and  N_30
    3  A    between atoms: N_10  and  C_16
                            x       y       z     vdW  Elec       q    Type
                         _______ _______ _______ _____ _____    ______ ____

>  <TORSDO>
F 3

$$$$
=
 OpenBabel11122413133D

 31 35  0  0  1  0  0  0  0  0999 V2000
  161.7740  206.1860  147.4940 C   0  0  0  0  0  0  0  0  0  0  0  0
  162.1550  208.7860  150.1830 N   0  0  0  0  0  0  0  0  0  0  0  0
  161.8020  210.0790  149.6280 C   0  0  0  0  0  0  0  0  0  0  0  0
  161.1060  211.4910  147.7700 C   0  0  0  0  0  0  0  0  0  0  0  0
  161.8370  207.5590  149.4960 C   0  0  0  0  0  0  0  0  0  0  0  0
  161.1760  205.1520  148.2180 C   0  0  0  0  0  3  0  0  0  0  0  0
  161.5150  210.2490  148.2640 C   0  0  0  0  0  3  0  0  0  0  0  0
  161.1160  208.0200  152.1940 N   0  0  0  0  0  0  0  0  0  0  0  0
  162.0560  206.0130  146.0460 C   0  0  0  0  0  1  0  0  0  0  0  0
  161.9530  211.0420  151.8430 O   0  0  0  0  0  0  0  0  0  0  0  0
  160.8310  211.6430  146.4190 O   0  0  0  0  0  1  0  0  0  0  0  0
  161.0400  206.6320  151.7130 C   0  0  0  0  0  2  0  0  0  0  0  0
  162.3320  208.6320  151.6360 C   0  0  2  0  0  3  0  0  0  0  0  0
  162.1080  207.3840  148.1310 C   0  0  0  0  0  3  0  0  0  0  0  0
  160.9650  212.5750  148.6380 C   0  0  0  0  0  3  0  0  0  0  0  0
  161.2380  206.5110  150.2220 C   0  0  0  0  0  0  0  0  0  0  0  0
  160.9160  205.3110  149.5820 C   0  0  0  0  0  3  0  0  0  0  0  0
  162.7370  209.9530  152.3130 C   0  0  0  0  0  2  0  0  0  0  0  0
  161.6720  211.1830  150.4880 C   0  0  0  0  0  0  0  0  0  0  0  0
  161.2460  212.4210  149.9970 C   0  0  0  0  0  3  0  0  0  0  0  0
  161.2240  207.9310  153.6480 C   0  0  0  0  0  2  0  0  0  0  0  0
  159.5630  207.7490  155.5090 C   0  0  0  0  0  1  0  0  0  0  0  0
  159.9950  208.5550  154.2980 C   0  0  1  0  0  3  0  0  0  0  0  0
  160.0610  212.4660  155.9600 C   0  0  0  0  0  0  0  0  0  0  0  0
  161.1790  210.2440  155.7270 C   0  0  0  0  0  2  0  0  0  0  0  0
  158.8510  210.9030  153.0010 O   0  0  0  0  0  0  0  0  0  0  0  0
  160.0800  213.7920  156.6330 C   0  0  0  0  0  1  0  0  0  0  0  0
  160.5710  211.2570  156.6980 C   0  0  0  0  0  2  0  0  0  0  0  0
  159.5060  211.0500  154.0660 C   0  0  0  0  0  0  0  0  0  0  0  0
  160.2330  209.9530  154.6520 N   0  0  0  0  0  0  0  0  0  0  0  0
  159.5190  212.3540  154.7440 C   0  0  0  0  0  3  0  0  0  0  0  0
  1 14  2  0  0  0  0
  1  6  1  0  0  0  0
  2 13  1  0  0  0  0
  3  2  1  0  0  0  0
  3 19  1  0  0  0  0
  4  7  1  0  0  0  0
  4 15  2  0  0  0  0
  5  2  1  0  0  0  0
  5 16  2  0  0  0  0
  6 17  2  0  0  0  0
  7  3  2  0  0  0  0
  8 21  1  0  0  0  0
  9  1  1  0  0  0  0
 10 18  1  0  0  0  0
 11  4  1  0  0  0  0
 12  8  1  0  0  0  0
 13  8  1  0  0  0  0
 13 18  1  1  0  0  0
 14  5  1  0  0  0  0
 15 20  1  0  0  0  0
 16 12  1  0  0  0  0
 17 16  1  0  0  0  0
 19 10  1  0  0  0  0
 20 19  2  0  0  0  0
 21 23  1  0  0  0  0
 23 30  1  0  0  0  0
 23 22  1  1  0  0  0
 24 27  1  0  0  0  0
 24 28  1  0  0  0  0
 25 28  1  0  0  0  0
 26 29  2  0  0  0  0
 29 30  1  0  0  0  0
 29 31  1  0  0  0  0
 30 25  1  0  0  0  0
 31 24  2  0  0  0  0
M  END
>  <MODEL>
9

>  <REMARK>
 VINA RESULT:      -6.4      2.808      7.482
  Name = 
  3 active torsions:
  status: ('A' for Active; 'I' for Inactive)
    1  A    between atoms: C_5  and  C_16
    2  A    between atoms: C_5  and  N_30
    3  A    between atoms: N_10  and  C_16
                            x       y       z     vdW  Elec       q    Type
                         _______ _______ _______ _____ _____    ______ ____

>  <TORSDO>
F 3

$$$$
