=
 OpenBabel11122412453D

 30 35  0  0  1  0  0  0  0  0999 V2000
  160.9500  208.8120  153.0920 C   0  0  0  0  0  0  0  0  0  0  0  0
  161.1740  206.3360  153.0400 C   0  0  0  0  0  0  0  0  0  0  0  0
  161.9590  209.0960  149.0340 N   0  0  0  0  0  2  0  0  0  0  0  0
  160.9500  210.0520  152.4070 C   0  0  0  0  0  0  0  0  0  0  0  0
  160.6890  208.8100  154.4990 N   0  0  0  0  0  2  0  0  0  0  0  0
  160.0620  212.2350  155.1950 O   0  0  0  0  0  0  0  0  0  0  0  0
  160.4420  213.0150  151.2930 C   0  0  1  0  0  3  0  0  0  0  0  0
  160.4400  211.2170  154.5530 C   0  0  0  0  0  0  0  0  0  0  0  0
  160.4420  212.1730  150.0480 C   0  0  1  0  0  3  0  0  0  0  0  0
  161.9180  210.5300  148.7770 C   0  0  2  0  0  3  0  0  0  0  0  0
  160.8700  210.0050  155.3140 C   0  0  2  0  0  3  0  0  0  0  0  0
  160.4980  211.2390  153.1110 N   0  0  0  0  0  0  0  0  0  0  0  0
  161.4450  205.1720  152.3150 C   0  0  0  0  0  3  0  0  0  0  0  0
  160.5910  213.1810  148.9250 C   0  0  0  0  0  2  0  0  0  0  0  0
  159.7480  214.3100  150.9170 C   0  0  0  0  0  2  0  0  0  0  0  0
  160.8760  206.2110  154.3570 F   0  0  0  0  0  0  0  0  0  0  0  0
  161.5890  208.8860  150.3820 C   0  0  0  0  0  0  0  0  0  0  0  0
  161.7570  205.2370  150.9580 C   0  0  0  0  0  3  0  0  0  0  0  0
  161.2090  207.5980  152.3990 C   0  0  0  0  0  0  0  0  0  0  0  0
  161.3220  210.0540  151.0440 C   0  0  0  0  0  0  0  0  0  0  0  0
  163.2640  210.9940  148.2570 C   0  0  0  0  0  1  0  0  0  0  0  0
  161.6170  211.2080  150.1320 C   0  0  2  0  0  3  0  0  0  0  0  0
  159.9200  214.4530  149.4140 C   0  0  0  0  0  2  0  0  0  0  0  0
  158.6100  212.5740  152.7660 O   0  0  0  0  0  0  0  0  0  0  0  0
  161.8010  206.4700  150.3100 C   0  0  0  0  0  3  0  0  0  0  0  0
  161.5280  207.6470  151.0160 C   0  0  0  0  0  0  0  0  0  0  0  0
  159.7900  212.2860  152.4210 C   0  0  0  0  0  0  0  0  0  0  0  0
  162.3340  210.1470  155.7130 C   0  0  0  0  0  2  0  0  0  0  0  0
  163.7870  211.1270  157.2600 C   0  0  0  0  0  1  0  0  0  0  0  0
  162.4390  210.6150  157.0860 N   0  0  0  0  0  2  0  0  0  0  0  0
  1  5  1  0  0  0  0
  2 16  1  0  0  0  0
  3 17  1  0  0  0  0
  4  1  1  0  0  0  0
  4 12  1  0  0  0  0
  5 11  1  0  0  0  0
  7 15  1  6  0  0  0
  7 27  1  0  0  0  0
  8  6  2  0  0  0  0
  8 11  1  0  0  0  0
  9 14  1  6  0  0  0
  9 22  1  0  0  0  0
  9  7  1  0  0  0  0
 10 21  1  1  0  0  0
 10  3  1  0  0  0  0
 10 22  1  0  0  0  0
 11 28  1  6  0  0  0
 12  8  1  0  0  0  0
 13  2  2  0  0  0  0
 14 23  1  0  0  0  0
 17 26  2  0  0  0  0
 17 20  1  0  0  0  0
 18 13  1  0  0  0  0
 19  2  1  0  0  0  0
 19  1  2  0  0  0  0
 20  4  2  0  0  0  0
 22 20  1  1  0  0  0
 23 15  1  0  0  0  0
 25 18  2  0  0  0  0
 25 26  1  0  0  0  0
 26 19  1  0  0  0  0
 27 24  2  0  0  0  0
 27 12  1  0  0  0  0
 28 30  1  0  0  0  0
 30 29  1  0  0  0  0
M  END
>  <MODEL>
1

>  <REMARK>
 VINA RESULT:      -6.0      0.000      0.000
  Name = 
  2 active torsions:
  status: ('A' for Active; 'I' for Inactive)
    1  A    between atoms: C_11  and  C_28
    2  A    between atoms: C_28  and  N_30
                            x       y       z     vdW  Elec       q    Type
                         _______ _______ _______ _____ _____    ______ ____

>  <TORSDO>
F 2

$$$$
=
 OpenBabel11122412453D

 30 35  0  0  1  0  0  0  0  0999 V2000
  161.2530  208.4900  152.4290 C   0  0  0  0  0  0  0  0  0  0  0  0
  161.2070  207.3530  154.6390 C   0  0  0  0  0  0  0  0  0  0  0  0
  159.2410  211.8230  153.9790 N   0  0  0  0  0  2  0  0  0  0  0  0
  160.9900  209.6370  151.6400 C   0  0  0  0  0  0  0  0  0  0  0  0
  161.8570  207.3550  151.8000 N   0  0  0  0  0  2  0  0  0  0  0  0
  162.3830  208.4760  148.4720 O   0  0  0  0  0  0  0  0  0  0  0  0
  160.9810  212.0630  149.5450 C   0  0  1  0  0  3  0  0  0  0  0  0
  161.9330  208.4650  149.6510 C   0  0  0  0  0  0  0  0  0  0  0  0
  160.7320  212.7430  150.8610 C   0  0  1  0  0  3  0  0  0  0  0  0
  159.1110  212.7040  152.8260 C   0  0  2  0  0  3  0  0  0  0  0  0
  161.7980  207.1550  150.3580 C   0  0  2  0  0  3  0  0  0  0  0  0
  161.5140  209.6920  150.2870 N   0  0  0  0  0  0  0  0  0  0  0  0
  160.8490  207.3740  155.9910 C   0  0  0  0  0  3  0  0  0  0  0  0
  160.2320  214.1210  150.4710 C   0  0  0  0  0  2  0  0  0  0  0  0
  161.4620  213.1500  148.6010 C   0  0  0  0  0  2  0  0  0  0  0  0
  161.8340  206.2490  154.1640 F   0  0  0  0  0  0  0  0  0  0  0  0
  159.9510  210.6720  153.5690 C   0  0  0  0  0  0  0  0  0  0  0  0
  160.2030  208.4820  156.5380 C   0  0  0  0  0  3  0  0  0  0  0  0
  160.9190  208.4630  153.8100 C   0  0  0  0  0  0  0  0  0  0  0  0
  160.2890  210.7060  152.2420 C   0  0  0  0  0  0  0  0  0  0  0  0
  157.6470  213.0140  152.5840 C   0  0  0  0  0  1  0  0  0  0  0  0
  159.6900  211.9330  151.6200 C   0  0  2  0  0  3  0  0  0  0  0  0
  160.9080  214.4530  149.1520 C   0  0  0  0  0  2  0  0  0  0  0  0
  163.1520  211.0750  149.3550 O   0  0  0  0  0  0  0  0  0  0  0  0
  159.9070  209.5830  155.7370 C   0  0  0  0  0  3  0  0  0  0  0  0
  160.2600  209.5840  154.3830 C   0  0  0  0  0  0  0  0  0  0  0  0
  161.9480  210.9360  149.7090 C   0  0  0  0  0  0  0  0  0  0  0  0
  160.4750  206.5050  149.9750 C   0  0  0  0  0  2  0  0  0  0  0  0
  161.1430  204.3100  149.5220 C   0  0  0  0  0  1  0  0  0  0  0  0
  160.6780  205.5400  148.9050 N   0  0  0  0  0  2  0  0  0  0  0  0
  1 19  1  0  0  0  0
  2 13  1  0  0  0  0
  4 20  1  0  0  0  0
  4  1  2  0  0  0  0
  5  1  1  0  0  0  0
  6  8  2  0  0  0  0
  7 15  1  6  0  0  0
  7 27  1  0  0  0  0
  7  9  1  0  0  0  0
  8 12  1  0  0  0  0
  8 11  1  0  0  0  0
  9 14  1  6  0  0  0
  9 22  1  0  0  0  0
 10 21  1  6  0  0  0
 10  3  1  0  0  0  0
 11 28  1  1  0  0  0
 11  5  1  0  0  0  0
 12  4  1  0  0  0  0
 13 18  2  0  0  0  0
 15 23  1  0  0  0  0
 16  2  1  0  0  0  0
 17  3  1  0  0  0  0
 17 26  1  0  0  0  0
 19 26  1  0  0  0  0
 19  2  2  0  0  0  0
 20 17  2  0  0  0  0
 22 20  1  1  0  0  0
 22 10  1  0  0  0  0
 23 14  1  0  0  0  0
 24 27  2  0  0  0  0
 25 18  1  0  0  0  0
 26 25  2  0  0  0  0
 27 12  1  0  0  0  0
 30 29  1  0  0  0  0
 30 28  1  0  0  0  0
M  END
>  <MODEL>
2

>  <REMARK>
 VINA RESULT:      -5.8      2.416      5.033
  Name = 
  2 active torsions:
  status: ('A' for Active; 'I' for Inactive)
    1  A    between atoms: C_11  and  C_28
    2  A    between atoms: C_28  and  N_30
                            x       y       z     vdW  Elec       q    Type
                         _______ _______ _______ _____ _____    ______ ____

>  <TORSDO>
F 2

$$$$
=
 OpenBabel11122412453D

 30 35  0  0  1  0  0  0  0  0999 V2000
  160.1840  212.5030  151.5940 C   0  0  0  0  0  0  0  0  0  0  0  0
  161.0360  213.2400  149.3780 C   0  0  0  0  0  0  0  0  0  0  0  0
  162.0070  208.7530  151.1690 N   0  0  0  0  0  2  0  0  0  0  0  0
  160.1390  211.5300  152.6230 C   0  0  0  0  0  0  0  0  0  0  0  0
  159.4560  213.7210  151.7760 N   0  0  0  0  0  2  0  0  0  0  0  0
  158.0870  213.3490  155.0320 O   0  0  0  0  0  0  0  0  0  0  0  0
  160.0330  209.8720  155.3650 C   0  0  1  0  0  3  0  0  0  0  0  0
  158.6460  213.0240  153.9490 C   0  0  0  0  0  0  0  0  0  0  0  0
  161.1590  209.2230  154.6120 C   0  0  1  0  0  3  0  0  0  0  0  0
  161.6390  208.0590  152.3960 C   0  0  2  0  0  3  0  0  0  0  0  0
  158.3480  213.8180  152.7180 C   0  0  2  0  0  3  0  0  0  0  0  0
  159.5240  211.8790  153.8900 N   0  0  0  0  0  0  0  0  0  0  0  0
  161.7750  212.9610  148.2240 C   0  0  0  0  0  3  0  0  0  0  0  0
  161.3860  207.9170  155.3500 C   0  0  0  0  0  2  0  0  0  0  0  0
  160.2270  209.4830  156.8180 C   0  0  0  0  0  2  0  0  0  0  0  0
  160.4380  214.4530  149.4730 F   0  0  0  0  0  0  0  0  0  0  0  0
  161.4690  210.0590  151.2300 C   0  0  0  0  0  0  0  0  0  0  0  0
  162.4130  211.7310  148.0700 C   0  0  0  0  0  3  0  0  0  0  0  0
  160.9310  212.2740  150.4060 C   0  0  0  0  0  0  0  0  0  0  0  0
  160.7660  210.2860  152.3830 C   0  0  0  0  0  0  0  0  0  0  0  0
  160.9020  206.7790  152.0580 C   0  0  0  0  0  1  0  0  0  0  0  0
  160.7050  209.0120  153.1730 C   0  0  2  0  0  3  0  0  0  0  0  0
  161.0210  208.1880  156.7990 C   0  0  0  0  0  2  0  0  0  0  0  0
  160.4710  212.1330  156.0120 O   0  0  0  0  0  0  0  0  0  0  0  0
  162.3190  210.7650  149.0690 C   0  0  0  0  0  3  0  0  0  0  0  0
  161.5870  211.0260  150.2340 C   0  0  0  0  0  0  0  0  0  0  0  0
  160.0250  211.3470  155.1300 C   0  0  0  0  0  0  0  0  0  0  0  0
  157.0690  213.2970  152.0740 C   0  0  0  0  0  2  0  0  0  0  0  0
  155.1000  214.0440  153.0890 C   0  0  0  0  0  1  0  0  0  0  0  0
  156.0590  214.3430  152.0400 N   0  0  0  0  0  2  0  0  0  0  0  0
  1  5  1  0  0  0  0
  1  4  1  0  0  0  0
  2 16  1  0  0  0  0
  2 19  1  0  0  0  0
  3 17  1  0  0  0  0
  3 10  1  0  0  0  0
  4 12  1  0  0  0  0
  5 11  1  0  0  0  0
  7 15  1  1  0  0  0
  8  6  2  0  0  0  0
  9 14  1  1  0  0  0
  9  7  1  0  0  0  0
 10 21  1  6  0  0  0
 10 22  1  0  0  0  0
 11 28  1  6  0  0  0
 11  8  1  0  0  0  0
 12  8  1  0  0  0  0
 12 27  1  0  0  0  0
 13  2  2  0  0  0  0
 14 23  1  0  0  0  0
 17 20  1  0  0  0  0
 18 13  1  0  0  0  0
 18 25  2  0  0  0  0
 19  1  2  0  0  0  0
 20  4  2  0  0  0  0
 22 20  1  6  0  0  0
 22  9  1  0  0  0  0
 23 15  1  0  0  0  0
 25 26  1  0  0  0  0
 26 19  1  0  0  0  0
 26 17  2  0  0  0  0
 27  7  1  0  0  0  0
 27 24  2  0  0  0  0
 30 28  1  0  0  0  0
 30 29  1  0  0  0  0
M  END
>  <MODEL>
3

>  <REMARK>
 VINA RESULT:      -5.8      2.643      5.914
  Name = 
  2 active torsions:
  status: ('A' for Active; 'I' for Inactive)
    1  A    between atoms: C_11  and  C_28
    2  A    between atoms: C_28  and  N_30
                            x       y       z     vdW  Elec       q    Type
                         _______ _______ _______ _____ _____    ______ ____

>  <TORSDO>
F 2

$$$$
=
 OpenBabel11122412453D

 30 35  0  0  1  0  0  0  0  0999 V2000
  160.8680  211.6940  151.0890 C   0  0  0  0  0  0  0  0  0  0  0  0
  161.5670  213.4470  149.4720 C   0  0  0  0  0  0  0  0  0  0  0  0
  162.2760  208.6550  148.5710 N   0  0  0  0  0  2  0  0  0  0  0  0
  160.8300  210.3300  151.4710 C   0  0  0  0  0  0  0  0  0  0  0  0
  160.2790  212.6620  151.9630 N   0  0  0  0  0  2  0  0  0  0  0  0
  159.2020  210.6970  154.7180 O   0  0  0  0  0  0  0  0  0  0  0  0
  160.8330  207.4950  152.9670 C   0  0  1  0  0  3  0  0  0  0  0  0
  159.6210  210.9650  153.5590 C   0  0  0  0  0  0  0  0  0  0  0  0
  161.8150  207.2950  151.8470 C   0  0  1  0  0  3  0  0  0  0  0  0
  161.9650  207.4370  149.3070 C   0  0  2  0  0  3  0  0  0  0  0  0
  159.2810  212.2910  152.9580 C   0  0  2  0  0  3  0  0  0  0  0  0
  160.3760  209.9900  152.8080 N   0  0  0  0  0  0  0  0  0  0  0  0
  162.1620  213.7850  148.2520 C   0  0  0  0  0  3  0  0  0  0  0  0
  161.9870  205.7900  151.7770 C   0  0  0  0  0  2  0  0  0  0  0  0
  161.1290  206.4020  153.9770 C   0  0  0  0  0  2  0  0  0  0  0  0
  161.0980  214.4530  150.2510 F   0  0  0  0  0  0  0  0  0  0  0  0
  161.8740  209.7550  149.3610 C   0  0  0  0  0  0  0  0  0  0  0  0
  162.6620  212.7940  147.4080 C   0  0  0  0  0  3  0  0  0  0  0  0
  161.4710  212.0910  149.8650 C   0  0  0  0  0  0  0  0  0  0  0  0
  161.3100  209.3730  150.5490 C   0  0  0  0  0  0  0  0  0  0  0  0
  161.0810  206.5420  148.4620 C   0  0  0  0  0  1  0  0  0  0  0  0
  161.2060  207.8760  150.5770 C   0  0  2  0  0  3  0  0  0  0  0  0
  161.7910  205.2800  153.1940 C   0  0  0  0  0  2  0  0  0  0  0  0
  161.5440  209.0760  154.6150 O   0  0  0  0  0  0  0  0  0  0  0  0
  162.5730  211.4530  147.7750 C   0  0  0  0  0  3  0  0  0  0  0  0
  161.9860  211.0950  148.9940 C   0  0  0  0  0  0  0  0  0  0  0  0
  160.9430  208.8760  153.5220 C   0  0  0  0  0  0  0  0  0  0  0  0
  157.9030  212.2190  152.3140 C   0  0  0  0  0  2  0  0  0  0  0  0
  156.7690  213.3300  154.0310 C   0  0  0  0  0  1  0  0  0  0  0  0
  157.1360  213.4150  152.6280 N   0  0  0  0  0  2  0  0  0  0  0  0
  1  4  1  0  0  0  0
  1  5  1  0  0  0  0
  2 19  1  0  0  0  0
  2 16  1  0  0  0  0
  3 10  1  0  0  0  0
  3 17  1  0  0  0  0
  4 12  1  0  0  0  0
  5 11  1  0  0  0  0
  7 27  1  0  0  0  0
  7 15  1  1  0  0  0
  8  6  2  0  0  0  0
  9 14  1  6  0  0  0
  9  7  1  0  0  0  0
 10 21  1  6  0  0  0
 10 22  1  0  0  0  0
 11 28  1  6  0  0  0
 11  8  1  0  0  0  0
 12 27  1  0  0  0  0
 12  8  1  0  0  0  0
 13  2  2  0  0  0  0
 14 23  1  0  0  0  0
 17 20  1  0  0  0  0
 18 25  2  0  0  0  0
 18 13  1  0  0  0  0
 19  1  2  0  0  0  0
 20  4  2  0  0  0  0
 22 20  1  1  0  0  0
 22  9  1  0  0  0  0
 23 15  1  0  0  0  0
 25 26  1  0  0  0  0
 26 17  2  0  0  0  0
 26 19  1  0  0  0  0
 27 24  2  0  0  0  0
 28 30  1  0  0  0  0
 30 29  1  0  0  0  0
M  END
>  <MODEL>
4

>  <REMARK>
 VINA RESULT:      -5.6      2.527      5.732
  Name = 
  2 active torsions:
  status: ('A' for Active; 'I' for Inactive)
    1  A    between atoms: C_11  and  C_28
    2  A    between atoms: C_28  and  N_30
                            x       y       z     vdW  Elec       q    Type
                         _______ _______ _______ _____ _____    ______ ____

>  <TORSDO>
F 2

$$$$
=
 OpenBabel11122412453D

 30 35  0  0  1  0  0  0  0  0999 V2000
  160.2010  212.7050  150.7820 C   0  0  0  0  0  0  0  0  0  0  0  0
  161.2710  213.2590  148.6080 C   0  0  0  0  0  0  0  0  0  0  0  0
  162.1560  209.0010  150.9240 N   0  0  0  0  0  2  0  0  0  0  0  0
  160.0680  211.8320  151.8900 C   0  0  0  0  0  0  0  0  0  0  0  0
  159.4250  213.9070  150.7650 N   0  0  0  0  0  2  0  0  0  0  0  0
  157.7160  213.7950  153.8760 O   0  0  0  0  0  0  0  0  0  0  0  0
  159.7040  210.4390  154.7550 C   0  0  1  0  0  3  0  0  0  0  0  0
  158.4000  213.3900  152.8960 C   0  0  0  0  0  0  0  0  0  0  0  0
  160.9230  209.7630  154.1940 C   0  0  1  0  0  3  0  0  0  0  0  0
  161.6740  208.4130  152.1680 C   0  0  2  0  0  3  0  0  0  0  0  0
  158.2180  214.0520  151.5690 C   0  0  2  0  0  3  0  0  0  0  0  0
  159.3080  212.2770  153.0450 N   0  0  0  0  0  0  0  0  0  0  0  0
  162.1400  212.9000  147.5730 C   0  0  0  0  0  3  0  0  0  0  0  0
  161.1010  208.5420  155.0770 C   0  0  0  0  0  2  0  0  0  0  0  0
  159.7470  210.1970  156.2520 C   0  0  0  0  0  2  0  0  0  0  0  0
  160.6350  214.4530  148.5190 F   0  0  0  0  0  0  0  0  0  0  0  0
  161.5810  210.2860  150.7990 C   0  0  0  0  0  0  0  0  0  0  0  0
  162.8230  211.6850  147.6100 C   0  0  0  0  0  3  0  0  0  0  0  0
  161.0790  212.3910  149.7090 C   0  0  0  0  0  0  0  0  0  0  0  0
  160.7500  210.5950  151.8430 C   0  0  0  0  0  0  0  0  0  0  0  0
  161.0120  207.0810  151.8790 C   0  0  0  0  0  1  0  0  0  0  0  0
  160.6360  209.4010  152.7430 C   0  0  2  0  0  3  0  0  0  0  0  0
  160.5720  208.9350  156.4450 C   0  0  0  0  0  2  0  0  0  0  0  0
  160.0100  212.7660  155.2200 O   0  0  0  0  0  0  0  0  0  0  0  0
  162.6440  210.8140  148.6830 C   0  0  0  0  0  3  0  0  0  0  0  0
  161.7820  211.1580  149.7310 C   0  0  0  0  0  0  0  0  0  0  0  0
  159.6840  211.8840  154.3770 C   0  0  0  0  0  0  0  0  0  0  0  0
  157.0320  213.4260  150.8460 C   0  0  0  0  0  2  0  0  0  0  0  0
  154.9510  214.2160  150.1300 C   0  0  0  0  0  1  0  0  0  0  0  0
  156.3840  214.4090  149.9930 N   0  0  0  0  0  2  0  0  0  0  0  0
  1  4  1  0  0  0  0
  2 19  1  0  0  0  0
  3 10  1  0  0  0  0
  4 12  1  0  0  0  0
  5  1  1  0  0  0  0
  5 11  1  0  0  0  0
  7 15  1  1  0  0  0
  8 12  1  0  0  0  0
  8  6  2  0  0  0  0
  9  7  1  0  0  0  0
  9 14  1  1  0  0  0
 10 21  1  6  0  0  0
 10 22  1  0  0  0  0
 11 28  1  6  0  0  0
 11  8  1  0  0  0  0
 12 27  1  0  0  0  0
 13 18  1  0  0  0  0
 13  2  2  0  0  0  0
 14 23  1  0  0  0  0
 15 23  1  0  0  0  0
 16  2  1  0  0  0  0
 17  3  1  0  0  0  0
 17 20  1  0  0  0  0
 18 25  2  0  0  0  0
 19 26  1  0  0  0  0
 19  1  2  0  0  0  0
 20  4  2  0  0  0  0
 22 20  1  6  0  0  0
 22  9  1  0  0  0  0
 25 26  1  0  0  0  0
 26 17  2  0  0  0  0
 27  7  1  0  0  0  0
 27 24  2  0  0  0  0
 30 29  1  0  0  0  0
 30 28  1  0  0  0  0
M  END
>  <MODEL>
5

>  <REMARK>
 VINA RESULT:      -5.3      2.721      6.084
  Name = 
  2 active torsions:
  status: ('A' for Active; 'I' for Inactive)
    1  A    between atoms: C_11  and  C_28
    2  A    between atoms: C_28  and  N_30
                            x       y       z     vdW  Elec       q    Type
                         _______ _______ _______ _____ _____    ______ ____

>  <TORSDO>
F 2

$$$$
=
 OpenBabel11122412453D

 30 35  0  0  1  0  0  0  0  0999 V2000
  161.2870  210.3310  152.5050 C   0  0  0  0  0  0  0  0  0  0  0  0
  161.2130  210.2480  154.9880 C   0  0  0  0  0  0  0  0  0  0  0  0
  158.9020  213.7770  152.4410 N   0  0  0  0  0  2  0  0  0  0  0  0
  160.9700  210.9980  151.2960 C   0  0  0  0  0  0  0  0  0  0  0  0
  162.0240  209.1070  152.4340 N   0  0  0  0  0  2  0  0  0  0  0  0
  162.6420  208.7500  148.9560 O   0  0  0  0  0  0  0  0  0  0  0  0
  160.8690  212.2830  148.3610 C   0  0  1  0  0  3  0  0  0  0  0  0
  162.1270  209.1960  150.0170 C   0  0  0  0  0  0  0  0  0  0  0  0
  160.4850  213.4300  149.2530 C   0  0  1  0  0  3  0  0  0  0  0  0
  158.7620  214.0630  151.0190 C   0  0  2  0  0  3  0  0  0  0  0  0
  162.0670  208.3060  151.2170 C   0  0  2  0  0  3  0  0  0  0  0  0
  161.5650  210.5250  150.0590 N   0  0  0  0  0  0  0  0  0  0  0  0
  160.7770  210.8050  156.1940 C   0  0  0  0  0  3  0  0  0  0  0  0
  159.8890  214.4490  148.3010 C   0  0  0  0  0  2  0  0  0  0  0  0
  161.3060  212.9080  147.0480 C   0  0  0  0  0  2  0  0  0  0  0  0
  161.9620  209.1180  155.0430 F   0  0  0  0  0  0  0  0  0  0  0  0
  159.7340  212.6420  152.5760 C   0  0  0  0  0  0  0  0  0  0  0  0
  160.0050  211.9670  156.2020 C   0  0  0  0  0  3  0  0  0  0  0  0
  160.8770  210.8620  153.7580 C   0  0  0  0  0  0  0  0  0  0  0  0
  160.1440  212.1420  151.3690 C   0  0  0  0  0  0  0  0  0  0  0  0
  157.2930  214.0850  150.6460 C   0  0  0  0  0  1  0  0  0  0  0  0
  159.4760  212.9170  150.2710 C   0  0  2  0  0  3  0  0  0  0  0  0
  160.6090  214.2560  146.9770 C   0  0  0  0  0  2  0  0  0  0  0  0
  163.1260  211.5420  148.6460 O   0  0  0  0  0  0  0  0  0  0  0  0
  159.6600  212.5840  155.0010 C   0  0  0  0  0  3  0  0  0  0  0  0
  160.0900  212.0440  153.7840 C   0  0  0  0  0  0  0  0  0  0  0  0
  161.9200  211.4420  149.0080 C   0  0  0  0  0  0  0  0  0  0  0  0
  160.8310  207.4200  151.1320 C   0  0  0  0  0  2  0  0  0  0  0  0
  160.6260  205.7770  149.4820 C   0  0  0  0  0  1  0  0  0  0  0  0
  161.2080  206.0600  150.7820 N   0  0  0  0  0  2  0  0  0  0  0  0
  1 19  1  0  0  0  0
  2 16  1  0  0  0  0
  2 13  1  0  0  0  0
  3 17  1  0  0  0  0
  4 20  1  0  0  0  0
  4  1  2  0  0  0  0
  5  1  1  0  0  0  0
  6  8  2  0  0  0  0
  7 15  1  6  0  0  0
  7 27  1  0  0  0  0
  7  9  1  0  0  0  0
  8 12  1  0  0  0  0
  8 11  1  0  0  0  0
  9 14  1  6  0  0  0
  9 22  1  0  0  0  0
 10 21  1  6  0  0  0
 10  3  1  0  0  0  0
 11 28  1  6  0  0  0
 11  5  1  0  0  0  0
 12  4  1  0  0  0  0
 13 18  2  0  0  0  0
 17 26  1  0  0  0  0
 19 26  1  0  0  0  0
 19  2  2  0  0  0  0
 20 17  2  0  0  0  0
 22 10  1  0  0  0  0
 22 20  1  1  0  0  0
 23 15  1  0  0  0  0
 23 14  1  0  0  0  0
 24 27  2  0  0  0  0
 25 18  1  0  0  0  0
 26 25  2  0  0  0  0
 27 12  1  0  0  0  0
 29 30  1  0  0  0  0
 30 28  1  0  0  0  0
M  END
>  <MODEL>
6

>  <REMARK>
 VINA RESULT:      -5.3      2.518      5.261
  Name = 
  2 active torsions:
  status: ('A' for Active; 'I' for Inactive)
    1  A    between atoms: C_11  and  C_28
    2  A    between atoms: C_28  and  N_30
                            x       y       z     vdW  Elec       q    Type
                         _______ _______ _______ _____ _____    ______ ____

>  <TORSDO>
F 2

$$$$
=
 OpenBabel11122412453D

 30 35  0  0  1  0  0  0  0  0999 V2000
  160.5780  211.4620  150.9320 C   0  0  0  0  0  0  0  0  0  0  0  0
  159.4080  213.6100  151.3800 C   0  0  0  0  0  0  0  0  0  0  0  0
  160.1670  210.2790  154.9320 N   0  0  0  0  0  2  0  0  0  0  0  0
  161.0150  210.1930  151.3840 C   0  0  0  0  0  0  0  0  0  0  0  0
  160.8420  211.8300  149.5750 N   0  0  0  0  0  2  0  0  0  0  0  0
  162.4220  208.9350  148.2590 O   0  0  0  0  0  0  0  0  0  0  0  0
  161.8390  207.1190  151.7730 C   0  0  1  0  0  3  0  0  0  0  0  0
  161.9560  209.7300  149.1210 C   0  0  0  0  0  0  0  0  0  0  0  0
  160.9740  207.3990  152.9700 C   0  0  1  0  0  3  0  0  0  0  0  0
  160.8180  208.9750  154.9650 C   0  0  2  0  0  3  0  0  0  0  0  0
  161.8930  211.1880  148.7970 C   0  0  2  0  0  3  0  0  0  0  0  0
  161.5340  209.2450  150.4140 N   0  0  0  0  0  0  0  0  0  0  0  0
  158.7540  214.4530  152.2840 C   0  0  0  0  0  3  0  0  0  0  0  0
  161.2580  206.2390  153.9040 C   0  0  0  0  0  2  0  0  0  0  0  0
  161.8700  205.6090  151.6280 C   0  0  0  0  0  2  0  0  0  0  0  0
  159.5460  214.0340  150.1000 F   0  0  0  0  0  0  0  0  0  0  0  0
  160.2140  210.7540  153.6010 C   0  0  0  0  0  0  0  0  0  0  0  0
  158.5800  214.0710  153.6140 C   0  0  0  0  0  3  0  0  0  0  0  0
  159.8980  212.3530  151.8080 C   0  0  0  0  0  0  0  0  0  0  0  0
  160.8530  209.8870  152.7540 C   0  0  0  0  0  0  0  0  0  0  0  0
  161.9380  208.9910  155.9860 C   0  0  0  0  0  1  0  0  0  0  0  0
  161.3970  208.7410  153.5540 C   0  0  2  0  0  3  0  0  0  0  0  0
  161.5810  205.0530  153.0120 C   0  0  0  0  0  2  0  0  0  0  0  0
  160.6700  207.1990  149.6880 O   0  0  0  0  0  0  0  0  0  0  0  0
  159.0600  212.8390  154.0550 C   0  0  0  0  0  3  0  0  0  0  0  0
  159.7130  211.9790  153.1650 C   0  0  0  0  0  0  0  0  0  0  0  0
  161.3160  207.8310  150.5690 C   0  0  0  0  0  0  0  0  0  0  0  0
  163.2380  211.8350  149.1010 C   0  0  0  0  0  2  0  0  0  0  0  0
  162.7410  212.9610  147.1130 C   0  0  0  0  0  1  0  0  0  0  0  0
  163.8240  212.3770  147.8850 N   0  0  0  0  0  2  0  0  0  0  0  0
  1  4  2  0  0  0  0
  1 19  1  0  0  0  0
  2 19  2  0  0  0  0
  2 13  1  0  0  0  0
  3 10  1  0  0  0  0
  4 20  1  0  0  0  0
  5  1  1  0  0  0  0
  6  8  2  0  0  0  0
  7 15  1  6  0  0  0
  7  9  1  0  0  0  0
  8 12  1  0  0  0  0
  9 22  1  0  0  0  0
  9 14  1  1  0  0  0
 10 21  1  1  0  0  0
 11 28  1  1  0  0  0
 11  8  1  0  0  0  0
 11  5  1  0  0  0  0
 12 27  1  0  0  0  0
 12  4  1  0  0  0  0
 13 18  2  0  0  0  0
 15 23  1  0  0  0  0
 16  2  1  0  0  0  0
 17  3  1  0  0  0  0
 18 25  1  0  0  0  0
 19 26  1  0  0  0  0
 20 17  2  0  0  0  0
 22 20  1  6  0  0  0
 22 10  1  0  0  0  0
 23 14  1  0  0  0  0
 24 27  2  0  0  0  0
 26 17  1  0  0  0  0
 26 25  2  0  0  0  0
 27  7  1  0  0  0  0
 29 30  1  0  0  0  0
 30 28  1  0  0  0  0
M  END
>  <MODEL>
7

>  <REMARK>
 VINA RESULT:      -5.1      2.809      6.993
  Name = 
  2 active torsions:
  status: ('A' for Active; 'I' for Inactive)
    1  A    between atoms: C_11  and  C_28
    2  A    between atoms: C_28  and  N_30
                            x       y       z     vdW  Elec       q    Type
                         _______ _______ _______ _____ _____    ______ ____

>  <TORSDO>
F 2

$$$$
=
 OpenBabel11122412453D

 30 35  0  0  1  0  0  0  0  0999 V2000
  161.0850  211.3050  138.5650 C   0  0  0  0  0  0  0  0  0  0  0  0
  163.4450  212.0830  138.4920 C   0  0  0  0  0  0  0  0  0  0  0  0
  160.0120  214.4530  141.1150 N   0  0  0  0  0  2  0  0  0  0  0  0
  159.7460  211.5050  138.9830 C   0  0  0  0  0  0  0  0  0  0  0  0
  161.3870  210.1520  137.7740 N   0  0  0  0  0  2  0  0  0  0  0  0
  158.2070  208.6320  137.3390 O   0  0  0  0  0  0  0  0  0  0  0  0
  156.5630  211.6950  139.3130 C   0  0  1  0  0  3  0  0  0  0  0  0
  159.0850  209.4030  137.8130 C   0  0  0  0  0  0  0  0  0  0  0  0
  157.0330  213.0680  139.7020 C   0  0  1  0  0  3  0  0  0  0  0  0
  158.5920  214.2270  141.3500 C   0  0  2  0  0  3  0  0  0  0  0  0
  160.5180  208.9820  137.7610 C   0  0  2  0  0  3  0  0  0  0  0  0
  158.7080  210.6500  138.4360 N   0  0  0  0  0  0  0  0  0  0  0  0
  164.4150  213.0110  138.8860 C   0  0  0  0  0  3  0  0  0  0  0  0
  155.8340  213.6800  140.4010 C   0  0  0  0  0  2  0  0  0  0  0  0
  155.0890  211.8390  138.9840 C   0  0  0  0  0  2  0  0  0  0  0  0
  163.8310  211.0620  137.6880 F   0  0  0  0  0  0  0  0  0  0  0  0
  160.4690  213.4570  140.2230 C   0  0  0  0  0  0  0  0  0  0  0  0
  164.0780  214.0820  139.7120 C   0  0  0  0  0  3  0  0  0  0  0  0
  162.1060  212.2250  138.9280 C   0  0  0  0  0  0  0  0  0  0  0  0
  159.4810  212.5820  139.8580 C   0  0  0  0  0  0  0  0  0  0  0  0
  158.3390  214.0800  142.8370 C   0  0  0  0  0  1  0  0  0  0  0  0
  158.2340  212.9120  140.6250 C   0  0  2  0  0  3  0  0  0  0  0  0
  154.6090  213.0610  139.7490 C   0  0  0  0  0  2  0  0  0  0  0  0
  156.9260  211.1570  137.0110 O   0  0  0  0  0  0  0  0  0  0  0  0
  162.7660  214.2370  140.1550 C   0  0  0  0  0  3  0  0  0  0  0  0
  161.7800  213.3220  139.7690 C   0  0  0  0  0  0  0  0  0  0  0  0
  157.3840  211.1570  138.1880 C   0  0  0  0  0  0  0  0  0  0  0  0
  160.8300  208.0880  138.9550 C   0  0  0  0  0  2  0  0  0  0  0  0
  162.4210  206.6580  139.8980 C   0  0  0  0  0  1  0  0  0  0  0  0
  161.9270  207.1880  138.6390 N   0  0  0  0  0  2  0  0  0  0  0  0
  1 19  2  0  0  0  0
  1  4  1  0  0  0  0
  2 13  2  0  0  0  0
  2 19  1  0  0  0  0
  3 10  1  0  0  0  0
  4 20  2  0  0  0  0
  5  1  1  0  0  0  0
  6  8  2  0  0  0  0
  7 15  1  6  0  0  0
  7  9  1  0  0  0  0
  8 12  1  0  0  0  0
  9 14  1  1  0  0  0
  9 22  1  0  0  0  0
 10 21  1  1  0  0  0
 11  5  1  0  0  0  0
 11  8  1  0  0  0  0
 11 28  1  1  0  0  0
 12  4  1  0  0  0  0
 13 18  1  0  0  0  0
 15 23  1  0  0  0  0
 16  2  1  0  0  0  0
 17  3  1  0  0  0  0
 18 25  2  0  0  0  0
 19 26  1  0  0  0  0
 20 17  1  0  0  0  0
 22 20  1  6  0  0  0
 22 10  1  0  0  0  0
 23 14  1  0  0  0  0
 24 27  2  0  0  0  0
 26 25  1  0  0  0  0
 26 17  2  0  0  0  0
 27 12  1  0  0  0  0
 27  7  1  0  0  0  0
 30 28  1  0  0  0  0
 30 29  1  0  0  0  0
M  END
>  <MODEL>
8

>  <REMARK>
 VINA RESULT:      -5.0     11.914     14.233
  Name = 
  2 active torsions:
  status: ('A' for Active; 'I' for Inactive)
    1  A    between atoms: C_11  and  C_28
    2  A    between atoms: C_28  and  N_30
                            x       y       z     vdW  Elec       q    Type
                         _______ _______ _______ _____ _____    ______ ____

>  <TORSDO>
F 2

$$$$
=
 OpenBabel11122412453D

 30 35  0  0  1  0  0  0  0  0999 V2000
  160.7990  209.0000  153.6750 C   0  0  0  0  0  0  0  0  0  0  0  0
  162.0050  207.3090  152.3090 C   0  0  0  0  0  0  0  0  0  0  0  0
  160.6330  211.6570  150.4380 N   0  0  0  0  0  2  0  0  0  0  0  0
  160.1300  210.2460  153.7640 C   0  0  0  0  0  0  0  0  0  0  0  0
  160.8960  208.1930  154.8530 N   0  0  0  0  0  2  0  0  0  0  0  0
  159.0920  210.0800  157.2610 O   0  0  0  0  0  0  0  0  0  0  0  0
  158.2040  212.7280  154.4010 C   0  0  1  0  0  3  0  0  0  0  0  0
  159.6960  209.8200  156.1840 C   0  0  0  0  0  0  0  0  0  0  0  0
  158.2630  212.7130  152.8990 C   0  0  1  0  0  3  0  0  0  0  0  0
  159.9470  212.8170  150.9900 C   0  0  2  0  0  3  0  0  0  0  0  0
  160.7510  208.7610  156.1870 C   0  0  2  0  0  3  0  0  0  0  0  0
  159.4050  210.5650  154.9810 N   0  0  0  0  0  0  0  0  0  0  0  0
  162.5560  206.9320  151.0800 C   0  0  0  0  0  3  0  0  0  0  0  0
  157.7190  214.0710  152.4990 C   0  0  0  0  0  2  0  0  0  0  0  0
  156.9710  213.5370  154.7590 C   0  0  0  0  0  2  0  0  0  0  0  0
  162.0980  206.4370  153.3430 F   0  0  0  0  0  0  0  0  0  0  0  0
  160.7060  210.6720  151.4500 C   0  0  0  0  0  0  0  0  0  0  0  0
  162.4910  207.7870  149.9800 C   0  0  0  0  0  3  0  0  0  0  0  0
  161.3680  208.5650  152.4470 C   0  0  0  0  0  0  0  0  0  0  0  0
  160.1410  211.0850  152.6280 C   0  0  0  0  0  0  0  0  0  0  0  0
  160.8210  214.0460  150.8410 C   0  0  0  0  0  1  0  0  0  0  0  0
  159.7150  212.5160  152.4870 C   0  0  2  0  0  3  0  0  0  0  0  0
  156.7160  214.4530  153.5740 C   0  0  0  0  0  2  0  0  0  0  0  0
  157.1110  210.8240  155.3510 O   0  0  0  0  0  0  0  0  0  0  0  0
  161.8720  209.0290  150.0980 C   0  0  0  0  0  3  0  0  0  0  0  0
  161.3090  209.4240  151.3170 C   0  0  0  0  0  0  0  0  0  0  0  0
  158.1900  211.3360  154.9410 C   0  0  0  0  0  0  0  0  0  0  0  0
  162.0740  209.3630  156.6430 C   0  0  0  0  0  2  0  0  0  0  0  0
  163.5850  211.0980  156.2250 C   0  0  0  0  0  1  0  0  0  0  0  0
  162.1750  210.7470  156.2090 N   0  0  0  0  0  2  0  0  0  0  0  0
  1  4  1  0  0  0  0
  1  5  1  0  0  0  0
  2 19  1  0  0  0  0
  2 16  1  0  0  0  0
  3 10  1  0  0  0  0
  3 17  1  0  0  0  0
  4 12  1  0  0  0  0
  5 11  1  0  0  0  0
  7 15  1  6  0  0  0
  7 27  1  0  0  0  0
  8 11  1  0  0  0  0
  8  6  2  0  0  0  0
  9 14  1  6  0  0  0
  9  7  1  0  0  0  0
 10 21  1  1  0  0  0
 10 22  1  0  0  0  0
 11 28  1  6  0  0  0
 12  8  1  0  0  0  0
 13  2  2  0  0  0  0
 14 23  1  0  0  0  0
 17 20  1  0  0  0  0
 18 25  2  0  0  0  0
 18 13  1  0  0  0  0
 19  1  2  0  0  0  0
 20  4  2  0  0  0  0
 22 20  1  6  0  0  0
 22  9  1  0  0  0  0
 23 15  1  0  0  0  0
 25 26  1  0  0  0  0
 26 17  2  0  0  0  0
 26 19  1  0  0  0  0
 27 12  1  0  0  0  0
 27 24  2  0  0  0  0
 30 29  1  0  0  0  0
 30 28  1  0  0  0  0
M  END
>  <MODEL>
9

>  <REMARK>
 VINA RESULT:      -4.5      1.892      2.877
  Name = 
  2 active torsions:
  status: ('A' for Active; 'I' for Inactive)
    1  A    between atoms: C_11  and  C_28
    2  A    between atoms: C_28  and  N_30
                            x       y       z     vdW  Elec       q    Type
                         _______ _______ _______ _____ _____    ______ ____

>  <TORSDO>
F 2

$$$$
