=
 OpenBabel11122414033D

 28 32  0  0  1  0  0  0  0  0999 V2000
  158.5850  212.5370  152.2830 C   0  0  0  0  0  0  0  0  0  0  0  0
  161.5440  209.8510  149.7000 O   0  0  0  0  0  0  0  0  0  0  0  0
  161.8810  210.8840  157.2610 O   0  0  0  0  0  0  0  0  0  0  0  0
  160.0180  213.3280  150.0030 C   0  0  0  0  0  3  0  0  0  0  0  0
  161.1000  209.2320  155.7830 N   0  0  0  0  0  0  0  0  0  0  0  0
  157.7940  212.3000  153.5290 C   0  0  0  0  0  2  0  0  0  0  0  0
  163.2340  210.3110  151.4380 O   0  0  0  0  0  0  0  0  0  0  0  0
  162.0510  209.4630  151.0590 S   0  0  0  0  0  0  0  0  0  0  0  0
  161.9610  206.8530  152.0020 C   0  0  0  0  0  0  0  0  0  0  0  0
  160.7550  209.6200  152.2670 C   0  0  1  0  0  3  0  0  0  0  0  0
  159.1290  214.4530  156.1740 O   0  0  0  0  0  0  0  0  0  0  0  0
  159.9480  210.6520  154.2610 C   0  0  1  0  0  3  0  0  0  0  0  0
  160.9380  207.2610  153.0290 C   0  0  0  0  0  2  0  0  0  0  0  0
  162.5010  207.7880  151.0540 N   0  0  0  0  0  2  0  0  0  0  0  0
  158.8200  213.3780  155.5990 C   0  0  0  0  0  0  0  0  0  0  0  0
  159.8830  211.9960  152.0450 C   0  0  0  0  0  0  0  0  0  0  0  0
  161.2190  210.5630  156.2370 C   0  0  0  0  0  0  0  0  0  0  0  0
  162.3240  205.6500  151.9510 O   0  0  0  0  0  0  0  0  0  0  0  0
  159.3090  212.0860  156.1730 C   0  0  0  0  0  2  0  0  0  0  0  0
  160.5810  212.4280  150.9070 C   0  0  0  0  0  3  0  0  0  0  0  0
  158.0330  213.4390  151.3640 C   0  0  0  0  0  3  0  0  0  0  0  0
  158.7390  213.8270  150.2260 C   0  0  0  0  0  3  0  0  0  0  0  0
  157.9850  213.4230  154.4380 N   0  0  0  0  0  2  0  0  0  0  0  0
  160.2900  209.1820  154.5820 C   0  0  1  0  0  3  0  0  0  0  0  0
  160.4900  211.5340  155.3910 C   0  0  2  0  0  3  0  0  0  0  0  0
  161.1290  208.7200  153.4110 C   0  0  2  0  0  3  0  0  0  0  0  0
  161.5800  208.0630  156.5010 C   0  0  0  0  0  1  0  0  0  0  0  0
  160.6070  210.9840  152.9230 C   0  0  2  0  0  3  0  0  0  0  0  0
  1  6  1  0  0  0  0
  2  8  2  0  0  0  0
  4 22  2  0  0  0  0
  4 20  1  0  0  0  0
  5 17  1  0  0  0  0
  5 27  1  0  0  0  0
  6 23  1  0  0  0  0
  8  7  2  0  0  0  0
  9 13  1  0  0  0  0
 10  8  1  6  0  0  0
 10 28  1  0  0  0  0
 10 26  1  0  0  0  0
 12 24  1  0  0  0  0
 12 25  1  0  0  0  0
 13 26  1  0  0  0  0
 14  8  1  0  0  0  0
 14  9  1  0  0  0  0
 15 19  1  0  0  0  0
 15 11  2  0  0  0  0
 16  1  1  0  0  0  0
 16 28  1  0  0  0  0
 17  3  2  0  0  0  0
 18  9  2  0  0  0  0
 20 16  2  0  0  0  0
 21  1  2  0  0  0  0
 22 21  1  0  0  0  0
 23 15  1  0  0  0  0
 24  5  1  0  0  0  0
 25 19  1  0  0  0  0
 25 17  1  0  0  0  0
 26 24  1  0  0  0  0
 28 12  1  0  0  0  0
M  END
>  <MODEL>
1

>  <REMARK>
 VINA RESULT:      -6.3      0.000      0.000
  Name = 
  0 active torsions:
  status: ('A' for Active; 'I' for Inactive)
                            x       y       z     vdW  Elec       q    Type
                         _______ _______ _______ _____ _____    ______ ____

>  <TORSDO>
F 0

$$$$
=
 OpenBabel11122414033D

 28 32  0  0  1  0  0  0  0  0999 V2000
  161.0880  207.4910  149.9570 C   0  0  0  0  0  0  0  0  0  0  0  0
  162.2040  205.9130  145.6090 O   0  0  0  0  0  0  0  0  0  0  0  0
  162.5140  201.8430  152.0650 O   0  0  0  0  0  0  0  0  0  0  0  0
  162.8790  208.6720  148.1470 C   0  0  0  0  0  3  0  0  0  0  0  0
  161.0490  202.0680  150.2420 N   0  0  0  0  0  0  0  0  0  0  0  0
  160.2130  206.9730  151.0520 C   0  0  0  0  0  2  0  0  0  0  0  0
  163.7280  204.3370  146.7390 O   0  0  0  0  0  0  0  0  0  0  0  0
  162.3050  204.6010  146.3330 S   0  0  0  0  0  0  0  0  0  0  0  0
  160.6960  202.4240  145.7200 C   0  0  0  0  0  0  0  0  0  0  0  0
  161.2380  204.6010  147.7560 C   0  0  1  0  0  3  0  0  0  0  0  0
  162.3310  206.0940  153.9090 O   0  0  0  0  0  0  0  0  0  0  0  0
  161.0080  204.4430  150.1260 C   0  0  1  0  0  3  0  0  0  0  0  0
  160.0080  202.5590  147.0530 C   0  0  0  0  0  2  0  0  0  0  0  0
  161.7350  203.3250  145.3060 N   0  0  0  0  0  2  0  0  0  0  0  0
  161.5140  205.9100  152.9700 C   0  0  0  0  0  0  0  0  0  0  0  0
  161.8710  206.6620  149.1000 C   0  0  0  0  0  0  0  0  0  0  0  0
  161.8630  202.5790  151.2760 C   0  0  0  0  0  0  0  0  0  0  0  0
  160.3230  201.5170  144.9330 O   0  0  0  0  0  0  0  0  0  0  0  0
  161.1500  204.5080  152.5960 C   0  0  0  0  0  2  0  0  0  0  0  0
  162.7710  207.2840  148.2210 C   0  0  0  0  0  3  0  0  0  0  0  0
  161.2070  208.8840  149.8690 C   0  0  0  0  0  3  0  0  0  0  0  0
  162.0890  209.4740  148.9650 C   0  0  0  0  0  3  0  0  0  0  0  0
  160.9360  207.0430  152.3160 N   0  0  0  0  0  2  0  0  0  0  0  0
  160.4410  203.1530  149.4990 C   0  0  1  0  0  3  0  0  0  0  0  0
  161.8690  204.0580  151.3340 C   0  0  2  0  0  3  0  0  0  0  0  0
  160.9570  203.1590  148.0770 C   0  0  2  0  0  3  0  0  0  0  0  0
  160.7370  200.6610  150.0490 C   0  0  0  0  0  1  0  0  0  0  0  0
  161.8350  205.1410  149.0470 C   0  0  2  0  0  3  0  0  0  0  0  0
  1  6  1  0  0  0  0
  2  8  2  0  0  0  0
  4 20  2  0  0  0  0
  4 22  1  0  0  0  0
  5 17  1  0  0  0  0
  6 23  1  0  0  0  0
  8  7  2  0  0  0  0
  9 13  1  0  0  0  0
 10  8  1  6  0  0  0
 10 26  1  0  0  0  0
 10 28  1  0  0  0  0
 12 25  1  0  0  0  0
 13 26  1  0  0  0  0
 14  9  1  0  0  0  0
 14  8  1  0  0  0  0
 15 11  2  0  0  0  0
 16  1  2  0  0  0  0
 17 25  1  0  0  0  0
 17  3  2  0  0  0  0
 18  9  2  0  0  0  0
 19 15  1  0  0  0  0
 20 16  1  0  0  0  0
 21  1  1  0  0  0  0
 22 21  2  0  0  0  0
 23 15  1  0  0  0  0
 24 12  1  0  0  0  0
 24  5  1  0  0  0  0
 25 19  1  0  0  0  0
 26 24  1  0  0  0  0
 27  5  1  0  0  0  0
 28 16  1  0  0  0  0
 28 12  1  0  0  0  0
M  END
>  <MODEL>
2

>  <REMARK>
 VINA RESULT:      -5.4      5.176      7.663
  Name = 
  0 active torsions:
  status: ('A' for Active; 'I' for Inactive)
                            x       y       z     vdW  Elec       q    Type
                         _______ _______ _______ _____ _____    ______ ____

>  <TORSDO>
F 0

$$$$
=
 OpenBabel11122414033D

 28 32  0  0  1  0  0  0  0  0999 V2000
  161.2100  212.2820  149.5790 C   0  0  0  0  0  0  0  0  0  0  0  0
  158.4100  214.3110  152.8470 O   0  0  0  0  0  0  0  0  0  0  0  0
  160.5730  206.9870  152.7310 O   0  0  0  0  0  0  0  0  0  0  0  0
  158.8830  213.7780  149.1060 C   0  0  0  0  0  3  0  0  0  0  0  0
  161.1970  208.9470  153.8660 N   0  0  0  0  0  0  0  0  0  0  0  0
  162.4330  211.4250  149.6540 C   0  0  0  0  0  2  0  0  0  0  0  0
  157.4140  212.0760  153.1610 O   0  0  0  0  0  0  0  0  0  0  0  0
  158.5650  212.9750  153.5150 S   0  0  0  0  0  0  0  0  0  0  0  0
  159.7310  212.6790  156.0170 C   0  0  0  0  0  0  0  0  0  0  0  0
  160.1100  212.2300  153.0450 C   0  0  1  0  0  3  0  0  0  0  0  0
  161.6020  208.1050  148.3500 O   0  0  0  0  0  0  0  0  0  0  0  0
  161.2590  210.4190  151.9990 C   0  0  1  0  0  3  0  0  0  0  0  0
  160.8970  211.9630  155.3870 C   0  0  0  0  0  2  0  0  0  0  0  0
  158.6410  213.1910  155.2340 N   0  0  0  0  0  2  0  0  0  0  0  0
  161.9720  208.9610  149.1950 C   0  0  0  0  0  0  0  0  0  0  0  0
  160.1270  212.2090  150.5040 C   0  0  0  0  0  0  0  0  0  0  0  0
  160.8780  208.2100  152.7060 C   0  0  0  0  0  0  0  0  0  0  0  0
  159.7330  212.8660  157.2610 O   0  0  0  0  0  0  0  0  0  0  0  0
  162.1150  208.5470  150.6250 C   0  0  0  0  0  2  0  0  0  0  0  0
  158.9700  212.9540  150.2270 C   0  0  0  0  0  3  0  0  0  0  0  0
  161.1080  213.1160  148.4590 C   0  0  0  0  0  3  0  0  0  0  0  0
  159.9570  213.8670  148.2250 C   0  0  0  0  0  3  0  0  0  0  0  0
  162.2750  210.2880  148.7570 N   0  0  0  0  0  2  0  0  0  0  0  0
  161.4910  210.3240  153.5210 C   0  0  1  0  0  3  0  0  0  0  0  0
  160.9400  209.0180  151.4680 C   0  0  2  0  0  3  0  0  0  0  0  0
  160.4520  211.2420  154.1250 C   0  0  2  0  0  3  0  0  0  0  0  0
  161.3650  208.3770  155.1930 C   0  0  0  0  0  1  0  0  0  0  0  0
  160.0920  211.3810  151.7820 C   0  0  2  0  0  3  0  0  0  0  0  0
  1  6  1  0  0  0  0
  1 16  1  0  0  0  0
  2  8  2  0  0  0  0
  4 20  1  0  0  0  0
  5 27  1  0  0  0  0
  7  8  2  0  0  0  0
  8 14  1  0  0  0  0
  9 18  2  0  0  0  0
 10  8  1  1  0  0  0
 10 26  1  0  0  0  0
 11 15  2  0  0  0  0
 12 24  1  0  0  0  0
 13  9  1  0  0  0  0
 14  9  1  0  0  0  0
 15 19  1  0  0  0  0
 16 28  1  0  0  0  0
 17  3  2  0  0  0  0
 17  5  1  0  0  0  0
 19 25  1  0  0  0  0
 20 16  2  0  0  0  0
 21  1  2  0  0  0  0
 22 21  1  0  0  0  0
 22  4  2  0  0  0  0
 23 15  1  0  0  0  0
 23  6  1  0  0  0  0
 24  5  1  0  0  0  0
 24 26  1  0  0  0  0
 25 12  1  0  0  0  0
 25 17  1  0  0  0  0
 26 13  1  0  0  0  0
 28 12  1  0  0  0  0
 28 10  1  0  0  0  0
M  END
>  <MODEL>
3

>  <REMARK>
 VINA RESULT:      -4.8      2.187      5.428
  Name = 
  0 active torsions:
  status: ('A' for Active; 'I' for Inactive)
                            x       y       z     vdW  Elec       q    Type
                         _______ _______ _______ _____ _____    ______ ____

>  <TORSDO>
F 0

$$$$
=
 OpenBabel11122414033D

 28 32  0  0  1  0  0  0  0  0999 V2000
  162.3220  206.0330  151.2000 C   0  0  0  0  0  0  0  0  0  0  0  0
  160.6070  201.5950  151.1590 O   0  0  0  0  0  0  0  0  0  0  0  0
  159.9800  206.6890  145.5030 O   0  0  0  0  0  0  0  0  0  0  0  0
  160.6690  204.8500  153.1360 C   0  0  0  0  0  3  0  0  0  0  0  0
  161.3240  204.8270  146.0000 N   0  0  0  0  0  0  0  0  0  0  0  0
  163.1570  206.8280  150.2490 C   0  0  0  0  0  2  0  0  0  0  0  0
  158.8910  202.4350  149.5990 O   0  0  0  0  0  0  0  0  0  0  0  0
  160.3050  201.9420  149.7300 S   0  0  0  0  0  0  0  0  0  0  0  0
  161.4100  200.5640  147.5880 C   0  0  0  0  0  0  0  0  0  0  0  0
  161.4520  203.1660  149.1400 C   0  0  1  0  0  3  0  0  0  0  0  0
  161.1210  209.5800  148.9440 O   0  0  0  0  0  0  0  0  0  0  0  0
  161.8180  205.3560  148.2650 C   0  0  1  0  0  3  0  0  0  0  0  0
  162.2070  201.7870  147.2150 C   0  0  0  0  0  2  0  0  0  0  0  0
  160.5390  200.5450  148.7300 N   0  0  0  0  0  2  0  0  0  0  0  0
  161.8170  208.5310  148.9070 C   0  0  0  0  0  0  0  0  0  0  0  0
  161.3330  205.0880  150.7970 C   0  0  0  0  0  0  0  0  0  0  0  0
  160.7030  206.0540  146.3170 C   0  0  0  0  0  0  0  0  0  0  0  0
  161.5410  199.5200  146.8990 O   0  0  0  0  0  0  0  0  0  0  0  0
  161.8730  207.7480  147.6340 C   0  0  0  0  0  2  0  0  0  0  0  0
  160.5090  204.5300  151.7880 C   0  0  0  0  0  3  0  0  0  0  0  0
  162.4710  206.3420  152.5580 C   0  0  0  0  0  3  0  0  0  0  0  0
  161.6570  205.7490  153.5230 C   0  0  0  0  0  3  0  0  0  0  0  0
  162.5550  208.1430  150.0690 N   0  0  0  0  0  2  0  0  0  0  0  0
  162.0760  204.3360  147.1370 C   0  0  1  0  0  3  0  0  0  0  0  0
  160.9900  206.5120  147.6950 C   0  0  2  0  0  3  0  0  0  0  0  0
  161.4690  203.0460  147.6410 C   0  0  2  0  0  3  0  0  0  0  0  0
  161.3420  204.2220  144.6780 C   0  0  0  0  0  1  0  0  0  0  0  0
  161.0670  204.6200  149.3730 C   0  0  2  0  0  3  0  0  0  0  0  0
  1 21  1  0  0  0  0
  3 17  2  0  0  0  0
  4 22  1  0  0  0  0
  5 17  1  0  0  0  0
  5 24  1  0  0  0  0
  6  1  1  0  0  0  0
  7  8  2  0  0  0  0
  8  2  2  0  0  0  0
  9 14  1  0  0  0  0
 10 28  1  0  0  0  0
 10  8  1  1  0  0  0
 12 28  1  0  0  0  0
 13  9  1  0  0  0  0
 13 26  1  0  0  0  0
 14  8  1  0  0  0  0
 15 11  2  0  0  0  0
 15 23  1  0  0  0  0
 16  1  2  0  0  0  0
 16 20  1  0  0  0  0
 17 25  1  0  0  0  0
 18  9  2  0  0  0  0
 19 25  1  0  0  0  0
 19 15  1  0  0  0  0
 20  4  2  0  0  0  0
 21 22  2  0  0  0  0
 23  6  1  0  0  0  0
 24 26  1  0  0  0  0
 24 12  1  0  0  0  0
 25 12  1  0  0  0  0
 26 10  1  0  0  0  0
 27  5  1  0  0  0  0
 28 16  1  0  0  0  0
M  END
>  <MODEL>
4

>  <REMARK>
 VINA RESULT:      -4.6      5.653      8.911
  Name = 
  0 active torsions:
  status: ('A' for Active; 'I' for Inactive)
                            x       y       z     vdW  Elec       q    Type
                         _______ _______ _______ _____ _____    ______ ____

>  <TORSDO>
F 0

$$$$
=
 OpenBabel11122414033D

 28 32  0  0  1  0  0  0  0  0999 V2000
  161.2960  210.7910  138.0300 C   0  0  0  0  0  0  0  0  0  0  0  0
  157.0820  208.8090  137.0530 O   0  0  0  0  0  0  0  0  0  0  0  0
  158.5980  213.4300  142.9430 O   0  0  0  0  0  0  0  0  0  0  0  0
  160.7790  208.0680  137.5940 C   0  0  0  0  0  3  0  0  0  0  0  0
  157.5920  213.6120  140.8270 N   0  0  0  0  0  0  0  0  0  0  0  0
  161.7360  212.1870  138.3340 C   0  0  0  0  0  2  0  0  0  0  0  0
  156.6310  208.9390  139.4750 O   0  0  0  0  0  0  0  0  0  0  0  0
  156.6330  209.6970  138.1770 S   0  0  0  0  0  0  0  0  0  0  0  0
  154.7440  211.7040  137.8360 C   0  0  0  0  0  0  0  0  0  0  0  0
  157.6850  211.1270  138.2880 C   0  0  1  0  0  3  0  0  0  0  0  0
  162.9430  212.2920  141.7910 O   0  0  0  0  0  0  0  0  0  0  0  0
  159.2240  212.4240  139.5690 C   0  0  1  0  0  3  0  0  0  0  0  0
  155.8080  212.7430  138.0790 C   0  0  0  0  0  2  0  0  0  0  0  0
  155.0410  210.2980  137.8410 N   0  0  0  0  0  2  0  0  0  0  0  0
  162.2130  212.5810  140.8070 C   0  0  0  0  0  0  0  0  0  0  0  0
  160.0560  210.2330  138.4620 C   0  0  0  0  0  0  0  0  0  0  0  0
  158.6230  213.2070  141.7030 C   0  0  0  0  0  0  0  0  0  0  0  0
  153.5710  212.0820  137.5860 O   0  0  0  0  0  0  0  0  0  0  0  0
  160.9700  213.3780  141.0410 C   0  0  0  0  0  2  0  0  0  0  0  0
  159.8380  208.8630  138.2470 C   0  0  0  0  0  3  0  0  0  0  0  0
  162.2290  209.9790  137.3750 C   0  0  0  0  0  3  0  0  0  0  0  0
  161.9720  208.6280  137.1490 C   0  0  0  0  0  3  0  0  0  0  0  0
  162.6140  212.1690  139.4970 N   0  0  0  0  0  2  0  0  0  0  0  0
  157.8990  213.2070  139.4700 C   0  0  1  0  0  3  0  0  0  0  0  0
  159.7270  212.5020  141.0140 C   0  0  2  0  0  3  0  0  0  0  0  0
  156.8860  212.1880  138.9940 C   0  0  2  0  0  3  0  0  0  0  0  0
  156.4670  214.4530  141.2020 C   0  0  0  0  0  1  0  0  0  0  0  0
  158.9270  210.9840  139.1540 C   0  0  2  0  0  3  0  0  0  0  0  0
  1  6  1  0  0  0  0
  1 16  1  0  0  0  0
  2  8  2  0  0  0  0
  4 20  1  0  0  0  0
  5 27  1  0  0  0  0
  5 17  1  0  0  0  0
  6 23  1  0  0  0  0
  8  7  2  0  0  0  0
  9 14  1  0  0  0  0
  9 13  1  0  0  0  0
 10  8  1  1  0  0  0
 10 26  1  0  0  0  0
 10 28  1  0  0  0  0
 12 25  1  0  0  0  0
 13 26  1  0  0  0  0
 14  8  1  0  0  0  0
 15 19  1  0  0  0  0
 15 11  2  0  0  0  0
 16 28  1  0  0  0  0
 17  3  2  0  0  0  0
 18  9  2  0  0  0  0
 20 16  2  0  0  0  0
 21  1  2  0  0  0  0
 22 21  1  0  0  0  0
 22  4  2  0  0  0  0
 23 15  1  0  0  0  0
 24 12  1  0  0  0  0
 24  5  1  0  0  0  0
 25 19  1  0  0  0  0
 25 17  1  0  0  0  0
 26 24  1  0  0  0  0
 28 12  1  0  0  0  0
M  END
>  <MODEL>
5

>  <REMARK>
 VINA RESULT:      -4.1     12.495     15.088
  Name = 
  0 active torsions:
  status: ('A' for Active; 'I' for Inactive)
                            x       y       z     vdW  Elec       q    Type
                         _______ _______ _______ _____ _____    ______ ____

>  <TORSDO>
F 0

$$$$
=
 OpenBabel11122414033D

 28 32  0  0  1  0  0  0  0  0999 V2000
  160.6770  203.7880  149.3630 C   0  0  0  0  0  0  0  0  0  0  0  0
  161.0660  205.0520  153.9330 O   0  0  0  0  0  0  0  0  0  0  0  0
  163.8930  208.8960  147.9680 O   0  0  0  0  0  0  0  0  0  0  0  0
  161.6400  202.2040  151.4700 C   0  0  0  0  0  3  0  0  0  0  0  0
  162.0240  209.0490  149.3850 N   0  0  0  0  0  0  0  0  0  0  0  0
  160.2430  204.5040  148.1250 C   0  0  0  0  0  2  0  0  0  0  0  0
  163.1520  206.1960  153.2810 O   0  0  0  0  0  0  0  0  0  0  0  0
  161.6530  206.2950  153.3280 S   0  0  0  0  0  0  0  0  0  0  0  0
  160.5210  208.8070  153.6720 C   0  0  0  0  0  0  0  0  0  0  0  0
  160.9910  206.5570  151.6980 C   0  0  1  0  0  3  0  0  0  0  0  0
  163.1320  204.8190  145.8950 O   0  0  0  0  0  0  0  0  0  0  0  0
  161.3820  206.7590  149.3530 C   0  0  1  0  0  3  0  0  0  0  0  0
  160.1610  208.8430  152.2100 C   0  0  0  0  0  2  0  0  0  0  0  0
  161.1800  207.6760  154.2650 N   0  0  0  0  0  2  0  0  0  0  0  0
  162.1830  205.2040  146.6270 C   0  0  0  0  0  0  0  0  0  0  0  0
  161.4080  204.3990  150.4240 C   0  0  0  0  0  0  0  0  0  0  0  0
  162.9130  208.3480  148.5420 C   0  0  0  0  0  0  0  0  0  0  0  0
  160.2020  209.7810  154.4010 O   0  0  0  0  0  0  0  0  0  0  0  0
  162.0910  206.6530  146.9840 C   0  0  0  0  0  2  0  0  0  0  0  0
  161.8930  203.5750  151.4520 C   0  0  0  0  0  3  0  0  0  0  0  0
  160.4300  202.4100  149.3970 C   0  0  0  0  0  3  0  0  0  0  0  0
  160.8990  201.6220  150.4470 C   0  0  0  0  0  3  0  0  0  0  0  0
  161.2080  204.2520  147.0630 N   0  0  0  0  0  2  0  0  0  0  0  0
  161.0110  208.1520  149.9030 C   0  0  1  0  0  3  0  0  0  0  0  0
  162.5730  206.9140  148.4030 C   0  0  2  0  0  3  0  0  0  0  0  0
  161.1540  208.0220  151.4030 C   0  0  2  0  0  3  0  0  0  0  0  0
  162.0250  210.4900  149.5790 C   0  0  0  0  0  1  0  0  0  0  0  0
  161.7310  205.8810  150.5540 C   0  0  2  0  0  3  0  0  0  0  0  0
  1 21  2  0  0  0  0
  1 16  1  0  0  0  0
  3 17  2  0  0  0  0
  5 27  1  0  0  0  0
  5 24  1  0  0  0  0
  6  1  1  0  0  0  0
  7  8  2  0  0  0  0
  8  2  2  0  0  0  0
  8 14  1  0  0  0  0
  9 14  1  0  0  0  0
  9 18  2  0  0  0  0
 10  8  1  1  0  0  0
 11 15  2  0  0  0  0
 12 24  1  0  0  0  0
 12 28  1  0  0  0  0
 13  9  1  0  0  0  0
 15 19  1  0  0  0  0
 15 23  1  0  0  0  0
 16 28  1  0  0  0  0
 16 20  2  0  0  0  0
 17  5  1  0  0  0  0
 19 25  1  0  0  0  0
 20  4  1  0  0  0  0
 21 22  1  0  0  0  0
 22  4  2  0  0  0  0
 23  6  1  0  0  0  0
 24 26  1  0  0  0  0
 25 17  1  0  0  0  0
 25 12  1  0  0  0  0
 26 10  1  0  0  0  0
 26 13  1  0  0  0  0
 28 10  1  0  0  0  0
M  END
>  <MODEL>
6

>  <REMARK>
 VINA RESULT:      -3.9      3.691      8.363
  Name = 
  0 active torsions:
  status: ('A' for Active; 'I' for Inactive)
                            x       y       z     vdW  Elec       q    Type
                         _______ _______ _______ _____ _____    ______ ____

>  <TORSDO>
F 0

$$$$
=
 OpenBabel11122414033D

 28 32  0  0  1  0  0  0  0  0999 V2000
  160.5910  209.1460  153.9400 C   0  0  0  0  0  0  0  0  0  0  0  0
  158.3460  211.7080  157.2600 O   0  0  0  0  0  0  0  0  0  0  0  0
  160.4630  214.1980  150.3570 O   0  0  0  0  0  0  0  0  0  0  0  0
  161.3740  209.4910  156.6120 C   0  0  0  0  0  3  0  0  0  0  0  0
  158.4860  213.4510  151.3850 N   0  0  0  0  0  0  0  0  0  0  0  0
  160.3490  208.8980  152.4850 C   0  0  0  0  0  2  0  0  0  0  0  0
  159.4250  213.6830  156.2490 O   0  0  0  0  0  0  0  0  0  0  0  0
  158.2800  212.7150  156.1480 S   0  0  0  0  0  0  0  0  0  0  0  0
  155.8780  213.6410  155.1070 C   0  0  0  0  0  0  0  0  0  0  0  0
  158.2930  211.8900  154.5720 C   0  0  1  0  0  3  0  0  0  0  0  0
  163.1000  210.3910  150.5830 O   0  0  0  0  0  0  0  0  0  0  0  0
  159.3710  211.5310  152.4740 C   0  0  1  0  0  3  0  0  0  0  0  0
  156.1720  212.9370  153.8080 C   0  0  0  0  0  2  0  0  0  0  0  0
  156.7730  213.5710  156.2280 N   0  0  0  0  0  2  0  0  0  0  0  0
  161.9140  210.2120  150.9610 C   0  0  0  0  0  0  0  0  0  0  0  0
  160.3430  210.3900  154.5890 C   0  0  0  0  0  0  0  0  0  0  0  0
  159.8580  213.3500  151.0670 C   0  0  0  0  0  0  0  0  0  0  0  0
  154.7990  214.2760  155.2240 O   0  0  0  0  0  0  0  0  0  0  0  0
  160.8660  211.1890  150.5310 C   0  0  0  0  0  2  0  0  0  0  0  0
  160.7650  210.5370  155.9200 C   0  0  0  0  0  3  0  0  0  0  0  0
  161.2020  208.1040  154.6490 C   0  0  0  0  0  3  0  0  0  0  0  0
  161.5840  208.2700  155.9800 C   0  0  0  0  0  3  0  0  0  0  0  0
  161.6000  209.0660  151.7570 N   0  0  0  0  0  2  0  0  0  0  0  0
  158.0820  212.3400  152.2220 C   0  0  1  0  0  3  0  0  0  0  0  0
  160.5030  212.1530  151.6500 C   0  0  2  0  0  3  0  0  0  0  0  0
  157.6730  212.8440  153.5880 C   0  0  2  0  0  3  0  0  0  0  0  0
  157.5740  214.4350  150.8240 C   0  0  0  0  0  1  0  0  0  0  0  0
  159.6610  211.6040  153.9730 C   0  0  2  0  0  3  0  0  0  0  0  0
  1 16  2  0  0  0  0
  1 21  1  0  0  0  0
  3 17  2  0  0  0  0
  5 24  1  0  0  0  0
  6  1  1  0  0  0  0
  8 14  1  0  0  0  0
  8  7  2  0  0  0  0
  8  2  2  0  0  0  0
  9 18  2  0  0  0  0
  9 14  1  0  0  0  0
 10  8  1  1  0  0  0
 11 15  2  0  0  0  0
 12 28  1  0  0  0  0
 13  9  1  0  0  0  0
 15 23  1  0  0  0  0
 16 20  1  0  0  0  0
 17  5  1  0  0  0  0
 17 25  1  0  0  0  0
 19 15  1  0  0  0  0
 19 25  1  0  0  0  0
 20  4  2  0  0  0  0
 21 22  2  0  0  0  0
 22  4  1  0  0  0  0
 23  6  1  0  0  0  0
 24 12  1  0  0  0  0
 24 26  1  0  0  0  0
 25 12  1  0  0  0  0
 26 13  1  0  0  0  0
 26 10  1  0  0  0  0
 27  5  1  0  0  0  0
 28 10  1  0  0  0  0
 28 16  1  0  0  0  0
M  END
>  <MODEL>
7

>  <REMARK>
 VINA RESULT:      -3.8      2.301      6.831
  Name = 
  0 active torsions:
  status: ('A' for Active; 'I' for Inactive)
                            x       y       z     vdW  Elec       q    Type
                         _______ _______ _______ _____ _____    ______ ____

>  <TORSDO>
F 0

$$$$
=
 OpenBabel11122414033D

 28 32  0  0  1  0  0  0  0  0999 V2000
  161.3610  210.1940  156.0850 C   0  0  0  0  0  0  0  0  0  0  0  0
  162.4100  207.5440  152.2750 O   0  0  0  0  0  0  0  0  0  0  0  0
  156.9770  212.9010  152.6440 O   0  0  0  0  0  0  0  0  0  0  0  0
  161.5260  207.3950  155.9770 C   0  0  0  0  0  3  0  0  0  0  0  0
  159.1670  212.7250  151.8090 N   0  0  0  0  0  0  0  0  0  0  0  0
  161.1820  211.6620  156.3060 C   0  0  0  0  0  2  0  0  0  0  0  0
  160.0560  207.8510  151.6030 O   0  0  0  0  0  0  0  0  0  0  0  0
  161.4270  208.4680  151.6150 S   0  0  0  0  0  0  0  0  0  0  0  0
  162.1230  210.1400  149.5120 C   0  0  0  0  0  0  0  0  0  0  0  0
  161.4010  210.0360  152.4520 C   0  0  1  0  0  3  0  0  0  0  0  0
  157.6810  212.2840  157.1850 O   0  0  0  0  0  0  0  0  0  0  0  0
  160.1650  211.6610  153.6880 C   0  0  1  0  0  3  0  0  0  0  0  0
  161.9230  211.3390  150.4020 C   0  0  0  0  0  2  0  0  0  0  0  0
  161.9410  208.7990  149.9920 N   0  0  0  0  0  2  0  0  0  0  0  0
  158.7410  212.3660  156.5110 C   0  0  0  0  0  0  0  0  0  0  0  0
  160.9590  209.5120  154.8980 C   0  0  0  0  0  0  0  0  0  0  0  0
  158.1800  212.5610  152.8050 C   0  0  0  0  0  0  0  0  0  0  0  0
  162.4980  210.3210  148.3250 O   0  0  0  0  0  0  0  0  0  0  0  0
  158.6870  212.9970  155.1560 C   0  0  0  0  0  2  0  0  0  0  0  0
  161.0360  208.1100  154.8850 C   0  0  0  0  0  3  0  0  0  0  0  0
  161.8530  209.4620  157.1720 C   0  0  0  0  0  3  0  0  0  0  0  0
  161.9450  208.0710  157.1180 C   0  0  0  0  0  3  0  0  0  0  0  0
  159.9650  211.8850  157.0750 N   0  0  0  0  0  2  0  0  0  0  0  0
  160.4450  212.2330  152.2830 C   0  0  1  0  0  3  0  0  0  0  0  0
  158.7050  211.9550  154.0490 C   0  0  2  0  0  3  0  0  0  0  0  0
  160.8760  211.0380  151.4610 C   0  0  2  0  0  3  0  0  0  0  0  0
  158.9700  213.4310  150.5540 C   0  0  0  0  0  1  0  0  0  0  0  0
  160.4370  210.1590  153.6240 C   0  0  2  0  0  3  0  0  0  0  0  0
  1  6  1  0  0  0  0
  1 21  1  0  0  0  0
  3 17  2  0  0  0  0
  4 22  1  0  0  0  0
  5 24  1  0  0  0  0
  5 17  1  0  0  0  0
  6 23  1  0  0  0  0
  7  8  2  0  0  0  0
  8  2  2  0  0  0  0
  9 14  1  0  0  0  0
  9 13  1  0  0  0  0
 10  8  1  6  0  0  0
 10 28  1  0  0  0  0
 12 25  1  0  0  0  0
 13 26  1  0  0  0  0
 14  8  1  0  0  0  0
 15 23  1  0  0  0  0
 15 11  2  0  0  0  0
 16  1  2  0  0  0  0
 17 25  1  0  0  0  0
 18  9  2  0  0  0  0
 19 15  1  0  0  0  0
 20 16  1  0  0  0  0
 20  4  2  0  0  0  0
 22 21  2  0  0  0  0
 24 12  1  0  0  0  0
 25 19  1  0  0  0  0
 26 24  1  0  0  0  0
 26 10  1  0  0  0  0
 27  5  1  0  0  0  0
 28 12  1  0  0  0  0
 28 16  1  0  0  0  0
M  END
>  <MODEL>
8

>  <REMARK>
 VINA RESULT:      -3.5      1.857      4.891
  Name = 
  0 active torsions:
  status: ('A' for Active; 'I' for Inactive)
                            x       y       z     vdW  Elec       q    Type
                         _______ _______ _______ _____ _____    ______ ____

>  <TORSDO>
F 0

$$$$
