=
 OpenBabel11122412373D

 30 34  0  0  1  0  0  0  0  0999 V2000
  161.1120  205.0500  151.3470 C   0  0  0  0  0  0  0  0  0  0  0  0
  160.8660  202.5560  151.4240 C   0  0  0  0  0  0  0  0  0  0  0  0
  161.2890  204.9860  147.1470 N   0  0  0  0  0  2  0  0  0  0  0  0
  161.2290  206.2440  150.5730 C   0  0  0  0  0  0  0  0  0  0  0  0
  161.1420  205.1550  152.7420 C   0  0  0  0  0  3  0  0  0  0  0  0
  161.5930  208.7680  153.2850 O   0  0  0  0  0  1  0  0  0  0  0  0
  162.3480  208.9860  149.2240 C   0  0  2  0  0  3  0  0  0  0  0  0
  161.4200  207.5530  152.6240 C   0  0  0  0  0  0  0  0  0  0  0  0
  162.6100  207.8220  148.4620 O   0  0  0  0  0  0  0  0  0  0  0  0
  161.4770  206.3800  146.9310 C   0  0  0  0  0  0  0  0  0  0  0  0
  161.2890  206.3820  153.3790 C   0  0  0  0  0  0  0  0  0  0  0  0
  161.3900  207.5060  151.2130 C   0  0  0  0  0  0  0  0  0  0  0  0
  160.7820  201.3390  150.7410 C   0  0  0  0  0  3  0  0  0  0  0  0
  160.8250  202.5170  152.7790 F   0  0  0  0  0  0  0  0  0  0  0  0
  161.1260  204.8940  148.5550 C   0  0  0  0  0  0  0  0  0  0  0  0
  160.8190  201.3000  149.3480 C   0  0  0  0  0  3  0  0  0  0  0  0
  160.9880  203.7760  150.7050 C   0  0  0  0  0  0  0  0  0  0  0  0
  161.1880  206.1190  149.1780 C   0  0  0  0  0  0  0  0  0  0  0  0
  161.6790  206.8680  145.7890 O   0  0  0  0  0  0  0  0  0  0  0  0
  161.3870  207.1980  148.1790 C   0  0  1  0  0  3  0  0  0  0  0  0
  160.8310  209.7890  150.8970 O   0  0  0  0  0  0  0  0  0  0  0  0
  160.9350  202.4820  148.6220 C   0  0  0  0  0  3  0  0  0  0  0  0
  161.0130  203.7120  149.2830 C   0  0  0  0  0  0  0  0  0  0  0  0
  161.4660  208.7920  150.4540 C   0  0  0  0  0  0  0  0  0  0  0  0
  161.8770  212.4650  147.6700 C   0  0  0  0  0  1  0  0  0  0  0  0
  161.8890  210.1200  148.3480 C   0  0  0  0  0  3  0  0  0  0  0  0
  162.3400  211.3550  148.5470 C   0  0  0  0  0  3  0  0  0  0  0  0
  161.3330  206.4190  154.8740 C   0  0  0  0  0  2  0  0  0  0  0  0
  160.1150  207.0510  156.9620 C   0  0  0  0  0  1  0  0  0  0  0  0
  160.0590  207.0240  155.4470 C   0  0  0  0  0  2  0  0  0  0  0  0
  1  5  1  0  0  0  0
  2 14  1  0  0  0  0
  3 15  1  0  0  0  0
  4 12  1  0  0  0  0
  4  1  2  0  0  0  0
  5 11  2  0  0  0  0
  7 26  1  6  0  0  0
  7 24  1  0  0  0  0
  8  6  1  0  0  0  0
  8 11  1  0  0  0  0
  9  7  1  0  0  0  0
 10  3  1  0  0  0  0
 11 28  1  0  0  0  0
 12  8  2  0  0  0  0
 13  2  1  0  0  0  0
 15 18  2  0  0  0  0
 15 23  1  0  0  0  0
 16 13  2  0  0  0  0
 17  1  1  0  0  0  0
 17  2  2  0  0  0  0
 18  4  1  0  0  0  0
 19 10  2  0  0  0  0
 20 10  1  6  0  0  0
 20  9  1  0  0  0  0
 20 18  1  0  0  0  0
 22 23  2  0  0  0  0
 22 16  1  0  0  0  0
 23 17  1  0  0  0  0
 24 21  2  0  0  0  0
 24 12  1  0  0  0  0
 25 27  1  0  0  0  0
 26 27  2  0  0  0  0
 28 30  1  0  0  0  0
 30 29  1  0  0  0  0
M  END
>  <MODEL>
1

>  <REMARK>
 VINA RESULT:      -9.9      0.000      0.000
  Name = 
  3 active torsions:
  status: ('A' for Active; 'I' for Inactive)
    1  A    between atoms: C_7  and  C_15
    2  A    between atoms: C_11  and  C_28
    3  A    between atoms: C_28  and  C_30
                            x       y       z     vdW  Elec       q    Type
                         _______ _______ _______ _____ _____    ______ ____

>  <TORSDO>
F 3

$$$$
=
 OpenBabel11122412373D

 30 34  0  0  1  0  0  0  0  0999 V2000
  161.2310  205.1760  149.2760 C   0  0  0  0  0  0  0  0  0  0  0  0
  160.9710  202.7120  148.8910 C   0  0  0  0  0  0  0  0  0  0  0  0
  161.1350  204.6190  153.4420 N   0  0  0  0  0  2  0  0  0  0  0  0
  161.3730  206.2620  150.1920 C   0  0  0  0  0  0  0  0  0  0  0  0
  161.1930  205.4600  147.9070 C   0  0  0  0  0  3  0  0  0  0  0  0
  161.4630  209.1300  147.8200 O   0  0  0  0  0  1  0  0  0  0  0  0
  160.8550  208.9780  151.9090 C   0  0  2  0  0  3  0  0  0  0  0  0
  161.4040  207.8320  148.3220 C   0  0  0  0  0  0  0  0  0  0  0  0
  160.3820  207.8020  152.5370 O   0  0  0  0  0  0  0  0  0  0  0  0
  161.2350  205.9840  153.8310 C   0  0  0  0  0  0  0  0  0  0  0  0
  161.2810  206.7630  147.4290 C   0  0  0  0  0  0  0  0  0  0  0  0
  161.4540  207.6020  149.7150 C   0  0  0  0  0  0  0  0  0  0  0  0
  160.8240  201.4270  149.4200 C   0  0  0  0  0  3  0  0  0  0  0  0
  160.9740  202.8380  147.5410 F   0  0  0  0  0  0  0  0  0  0  0  0
  161.2460  204.6750  152.0270 C   0  0  0  0  0  0  0  0  0  0  0  0
  160.8090  201.2200  150.7980 C   0  0  0  0  0  3  0  0  0  0  0  0
  161.1110  203.8320  149.7550 C   0  0  0  0  0  0  0  0  0  0  0  0
  161.4170  205.9570  151.5580 C   0  0  0  0  0  0  0  0  0  0  0  0
  161.1600  206.3540  155.0310 O   0  0  0  0  0  0  0  0  0  0  0  0
  161.4600  206.9200  152.6870 C   0  0  1  0  0  3  0  0  0  0  0  0
  162.4650  209.6720  150.2750 O   0  0  0  0  0  0  0  0  0  0  0  0
  160.9480  202.3000  151.6640 C   0  0  0  0  0  3  0  0  0  0  0  0
  161.1040  203.5950  151.1590 C   0  0  0  0  0  0  0  0  0  0  0  0
  161.6530  208.7720  150.6250 C   0  0  0  0  0  0  0  0  0  0  0  0
  161.8170  210.8790  155.1030 C   0  0  0  0  0  1  0  0  0  0  0  0
  161.5500  209.8810  152.8910 C   0  0  0  0  0  3  0  0  0  0  0  0
  161.1160  209.9820  154.1440 C   0  0  0  0  0  3  0  0  0  0  0  0
  161.2130  206.9960  145.9520 C   0  0  0  0  0  2  0  0  0  0  0  0
  161.2600  205.1870  144.2280 C   0  0  0  0  0  1  0  0  0  0  0  0
  160.4100  205.9050  145.2590 C   0  0  0  0  0  2  0  0  0  0  0  0
  1 17  2  0  0  0  0
  1  4  1  0  0  0  0
  2 13  2  0  0  0  0
  2 17  1  0  0  0  0
  3 10  1  0  0  0  0
  4 18  2  0  0  0  0
  5  1  1  0  0  0  0
  6  8  1  0  0  0  0
  7  9  1  0  0  0  0
  7 26  1  1  0  0  0
  8 12  2  0  0  0  0
  9 20  1  0  0  0  0
 10 19  2  0  0  0  0
 11  5  2  0  0  0  0
 11  8  1  0  0  0  0
 12  4  1  0  0  0  0
 12 24  1  0  0  0  0
 13 16  1  0  0  0  0
 14  2  1  0  0  0  0
 15  3  1  0  0  0  0
 16 22  2  0  0  0  0
 17 23  1  0  0  0  0
 18 15  1  0  0  0  0
 20 18  1  6  0  0  0
 20 10  1  0  0  0  0
 21 24  2  0  0  0  0
 23 22  1  0  0  0  0
 23 15  2  0  0  0  0
 24  7  1  0  0  0  0
 26 27  2  0  0  0  0
 27 25  1  0  0  0  0
 28 11  1  0  0  0  0
 29 30  1  0  0  0  0
 30 28  1  0  0  0  0
M  END
>  <MODEL>
2

>  <REMARK>
 VINA RESULT:      -9.7      2.264      5.408
  Name = 
  3 active torsions:
  status: ('A' for Active; 'I' for Inactive)
    1  A    between atoms: C_7  and  C_15
    2  A    between atoms: C_11  and  C_28
    3  A    between atoms: C_28  and  C_30
                            x       y       z     vdW  Elec       q    Type
                         _______ _______ _______ _____ _____    ______ ____

>  <TORSDO>
F 3

$$$$
=
 OpenBabel11122412373D

 30 34  0  0  1  0  0  0  0  0999 V2000
  161.5540  207.7170  151.2930 C   0  0  0  0  0  0  0  0  0  0  0  0
  161.7910  210.1880  150.9340 C   0  0  0  0  0  0  0  0  0  0  0  0
  161.9460  206.9980  147.1690 N   0  0  0  0  0  2  0  0  0  0  0  0
  161.5420  206.3980  150.7460 C   0  0  0  0  0  0  0  0  0  0  0  0
  161.3360  207.8720  152.6650 C   0  0  0  0  0  3  0  0  0  0  0  0
  160.8110  204.4130  153.8090 O   0  0  0  0  0  1  0  0  0  0  0  0
  160.6110  203.4280  149.7970 C   0  0  2  0  0  3  0  0  0  0  0  0
  161.0730  205.4870  152.9620 C   0  0  0  0  0  0  0  0  0  0  0  0
  160.4560  204.4230  148.8030 O   0  0  0  0  0  0  0  0  0  0  0  0
  161.7870  205.5830  147.1940 C   0  0  0  0  0  0  0  0  0  0  0  0
  161.1020  206.7810  153.4950 C   0  0  0  0  0  0  0  0  0  0  0  0
  161.2940  205.2730  151.5840 C   0  0  0  0  0  0  0  0  0  0  0  0
  161.9680  211.2580  150.0530 C   0  0  0  0  0  3  0  0  0  0  0  0
  161.6490  210.4780  152.2510 F   0  0  0  0  0  0  0  0  0  0  0  0
  161.9180  207.3530  148.5440 C   0  0  0  0  0  0  0  0  0  0  0  0
  162.1200  211.0380  148.6850 C   0  0  0  0  0  3  0  0  0  0  0  0
  161.7650  208.8530  150.4460 C   0  0  0  0  0  0  0  0  0  0  0  0
  161.7700  206.2640  149.3710 C   0  0  0  0  0  0  0  0  0  0  0  0
  161.7410  204.8880  146.1470 O   0  0  0  0  0  0  0  0  0  0  0  0
  161.7060  205.0130  148.5740 C   0  0  1  0  0  3  0  0  0  0  0  0
  161.8870  202.9850  151.7770 O   0  0  0  0  0  0  0  0  0  0  0  0
  162.1010  209.7390  148.1840 C   0  0  0  0  0  3  0  0  0  0  0  0
  161.9330  208.6520  149.0470 C   0  0  0  0  0  0  0  0  0  0  0  0
  161.3190  203.8670  151.0750 C   0  0  0  0  0  0  0  0  0  0  0  0
  161.3150  200.4320  147.4990 C   0  0  0  0  0  1  0  0  0  0  0  0
  161.1820  202.1620  149.2170 C   0  0  0  0  0  3  0  0  0  0  0  0
  160.7370  201.6860  148.0580 C   0  0  0  0  0  3  0  0  0  0  0  0
  160.8570  207.0200  154.9510 C   0  0  0  0  0  2  0  0  0  0  0  0
  161.8460  208.7350  156.4770 C   0  0  0  0  0  1  0  0  0  0  0  0
  160.9360  208.5030  155.2860 C   0  0  0  0  0  2  0  0  0  0  0  0
  1  5  2  0  0  0  0
  2 14  1  0  0  0  0
  3 10  1  0  0  0  0
  3 15  1  0  0  0  0
  4  1  1  0  0  0  0
  4 12  2  0  0  0  0
  5 11  1  0  0  0  0
  7 26  1  6  0  0  0
  7 24  1  0  0  0  0
  8 11  2  0  0  0  0
  8  6  1  0  0  0  0
  9  7  1  0  0  0  0
 11 28  1  0  0  0  0
 12  8  1  0  0  0  0
 13  2  2  0  0  0  0
 15 23  1  0  0  0  0
 15 18  2  0  0  0  0
 16 13  1  0  0  0  0
 17  2  1  0  0  0  0
 17  1  1  0  0  0  0
 18  4  1  0  0  0  0
 19 10  2  0  0  0  0
 20 10  1  6  0  0  0
 20  9  1  0  0  0  0
 20 18  1  0  0  0  0
 22 16  2  0  0  0  0
 22 23  1  0  0  0  0
 23 17  2  0  0  0  0
 24 12  1  0  0  0  0
 24 21  2  0  0  0  0
 25 27  1  0  0  0  0
 27 26  2  0  0  0  0
 28 30  1  0  0  0  0
 30 29  1  0  0  0  0
M  END
>  <MODEL>
3

>  <REMARK>
 VINA RESULT:      -9.7      2.371      5.573
  Name = 
  3 active torsions:
  status: ('A' for Active; 'I' for Inactive)
    1  A    between atoms: C_7  and  C_15
    2  A    between atoms: C_11  and  C_28
    3  A    between atoms: C_28  and  C_30
                            x       y       z     vdW  Elec       q    Type
                         _______ _______ _______ _____ _____    ______ ____

>  <TORSDO>
F 3

$$$$
=
 OpenBabel11122412373D

 30 34  0  0  1  0  0  0  0  0999 V2000
  161.1850  204.5000  148.6450 C   0  0  0  0  0  0  0  0  0  0  0  0
  161.2070  203.7870  146.2410 C   0  0  0  0  0  0  0  0  0  0  0  0
  161.8700  208.5010  147.5500 N   0  0  0  0  0  2  0  0  0  0  0  0
  161.2620  205.5500  149.6100 C   0  0  0  0  0  0  0  0  0  0  0  0
  161.0360  203.1860  149.1010 C   0  0  0  0  0  3  0  0  0  0  0  0
  161.0190  203.5820  152.7600 O   0  0  0  0  0  1  0  0  0  0  0  0
  162.2260  207.4740  152.0510 C   0  0  2  0  0  3  0  0  0  0  0  0
  161.0610  203.9100  151.4070 C   0  0  0  0  0  0  0  0  0  0  0  0
  162.7040  207.8740  150.7810 O   0  0  0  0  0  0  0  0  0  0  0  0
  161.9280  209.0620  148.8580 C   0  0  0  0  0  0  0  0  0  0  0  0
  160.9700  202.8870  150.4570 C   0  0  0  0  0  0  0  0  0  0  0  0
  161.2050  205.2550  151.0020 C   0  0  0  0  0  0  0  0  0  0  0  0
  161.3400  204.1290  144.8920 C   0  0  0  0  0  3  0  0  0  0  0  0
  161.0090  202.4790  146.5400 F   0  0  0  0  0  0  0  0  0  0  0  0
  161.5510  207.1390  147.7940 C   0  0  0  0  0  0  0  0  0  0  0  0
  161.5480  205.4520  144.5090 C   0  0  0  0  0  3  0  0  0  0  0  0
  161.2800  204.7900  147.2460 C   0  0  0  0  0  0  0  0  0  0  0  0
  161.4030  206.8590  149.1330 C   0  0  0  0  0  0  0  0  0  0  0  0
  162.2100  210.2700  149.0650 O   0  0  0  0  0  0  0  0  0  0  0  0
  161.6000  208.0870  149.9440 C   0  0  1  0  0  3  0  0  0  0  0  0
  160.4410  206.2120  153.0330 O   0  0  0  0  0  0  0  0  0  0  0  0
  161.6190  206.4520  145.4740 C   0  0  0  0  0  3  0  0  0  0  0  0
  161.4820  206.1360  146.8300 C   0  0  0  0  0  0  0  0  0  0  0  0
  161.2300  206.3180  152.0540 C   0  0  0  0  0  0  0  0  0  0  0  0
  160.2460  210.5290  153.2700 C   0  0  0  0  0  1  0  0  0  0  0  0
  161.7540  208.6550  152.8540 C   0  0  0  0  0  3  0  0  0  0  0  0
  160.7000  209.3640  152.4620 C   0  0  0  0  0  3  0  0  0  0  0  0
  160.8300  201.4570  150.8750 C   0  0  0  0  0  2  0  0  0  0  0  0
  161.5810  200.3810  148.7480 C   0  0  0  0  0  1  0  0  0  0  0  0
  160.4180  200.5780  149.7020 C   0  0  0  0  0  2  0  0  0  0  0  0
  1  5  2  0  0  0  0
  1  4  1  0  0  0  0
  2 14  1  0  0  0  0
  2 17  1  0  0  0  0
  3 15  1  0  0  0  0
  3 10  1  0  0  0  0
  4 12  2  0  0  0  0
  5 11  1  0  0  0  0
  7 24  1  0  0  0  0
  7 26  1  6  0  0  0
  8  6  1  0  0  0  0
  9  7  1  0  0  0  0
 10 19  2  0  0  0  0
 11 28  1  0  0  0  0
 11  8  2  0  0  0  0
 12  8  1  0  0  0  0
 12 24  1  0  0  0  0
 13  2  2  0  0  0  0
 15 18  2  0  0  0  0
 16 13  1  0  0  0  0
 16 22  2  0  0  0  0
 17  1  1  0  0  0  0
 18  4  1  0  0  0  0
 18 20  1  0  0  0  0
 20 10  1  6  0  0  0
 20  9  1  0  0  0  0
 22 23  1  0  0  0  0
 23 17  2  0  0  0  0
 23 15  1  0  0  0  0
 24 21  2  0  0  0  0
 27 26  2  0  0  0  0
 27 25  1  0  0  0  0
 29 30  1  0  0  0  0
 30 28  1  0  0  0  0
M  END
>  <MODEL>
4

>  <REMARK>
 VINA RESULT:      -8.7      2.368      4.856
  Name = 
  3 active torsions:
  status: ('A' for Active; 'I' for Inactive)
    1  A    between atoms: C_7  and  C_15
    2  A    between atoms: C_11  and  C_28
    3  A    between atoms: C_28  and  C_30
                            x       y       z     vdW  Elec       q    Type
                         _______ _______ _______ _____ _____    ______ ____

>  <TORSDO>
F 3

$$$$
=
 OpenBabel11122412373D

 30 34  0  0  1  0  0  0  0  0999 V2000
  161.0880  206.4470  152.0720 C   0  0  0  0  0  0  0  0  0  0  0  0
  160.8490  203.9990  152.5600 C   0  0  0  0  0  0  0  0  0  0  0  0
  161.3950  205.6780  147.9500 N   0  0  0  0  0  2  0  0  0  0  0  0
  161.2240  207.4940  151.1110 C   0  0  0  0  0  0  0  0  0  0  0  0
  161.0740  206.7850  153.4290 C   0  0  0  0  0  3  0  0  0  0  0  0
  161.4960  210.4420  153.3680 O   0  0  0  0  0  1  0  0  0  0  0  0
  162.3750  209.9790  149.3530 C   0  0  2  0  0  3  0  0  0  0  0  0
  161.3480  209.1320  152.9170 C   0  0  0  0  0  0  0  0  0  0  0  0
  162.6640  208.7070  148.8060 O   0  0  0  0  0  0  0  0  0  0  0  0
  161.5850  207.0170  147.5070 C   0  0  0  0  0  0  0  0  0  0  0  0
  161.1980  208.1040  153.8540 C   0  0  0  0  0  0  0  0  0  0  0  0
  161.3610  208.8480  151.5340 C   0  0  0  0  0  0  0  0  0  0  0  0
  160.7900  202.6840  152.0900 C   0  0  0  0  0  3  0  0  0  0  0  0
  160.7660  204.1890  153.9010 F   0  0  0  0  0  0  0  0  0  0  0  0
  161.1890  205.8220  149.3480 C   0  0  0  0  0  0  0  0  0  0  0  0
  160.8700  202.4120  150.7260 C   0  0  0  0  0  3  0  0  0  0  0  0
  160.9890  205.0820  151.6500 C   0  0  0  0  0  0  0  0  0  0  0  0
  161.2270  207.1350  149.7570 C   0  0  0  0  0  0  0  0  0  0  0  0
  161.8190  207.3070  146.3060 O   0  0  0  0  0  0  0  0  0  0  0  0
  161.4540  208.0330  148.5960 C   0  0  1  0  0  3  0  0  0  0  0  0
  160.8050  211.0390  150.8210 O   0  0  0  0  0  0  0  0  0  0  0  0
  161.0040  203.4550  149.8150 C   0  0  0  0  0  3  0  0  0  0  0  0
  161.0580  204.7800  150.2610 C   0  0  0  0  0  0  0  0  0  0  0  0
  161.4560  209.9880  150.5710 C   0  0  0  0  0  0  0  0  0  0  0  0
  162.1580  213.0260  147.0250 C   0  0  0  0  0  1  0  0  0  0  0  0
  161.9400  210.9460  148.2850 C   0  0  0  0  0  3  0  0  0  0  0  0
  162.6020  212.0820  148.0880 C   0  0  0  0  0  3  0  0  0  0  0  0
  161.1950  208.3920  155.3220 C   0  0  0  0  0  2  0  0  0  0  0  0
  160.5980  206.9330  157.2610 C   0  0  0  0  0  1  0  0  0  0  0  0
  160.0740  207.6440  156.0280 C   0  0  0  0  0  2  0  0  0  0  0  0
  1  5  1  0  0  0  0
  2 14  1  0  0  0  0
  3 15  1  0  0  0  0
  4 12  1  0  0  0  0
  4  1  2  0  0  0  0
  5 11  2  0  0  0  0
  7 26  1  6  0  0  0
  7 24  1  0  0  0  0
  8  6  1  0  0  0  0
  8 11  1  0  0  0  0
  9  7  1  0  0  0  0
 10  3  1  0  0  0  0
 11 28  1  0  0  0  0
 12  8  2  0  0  0  0
 13  2  1  0  0  0  0
 15 18  2  0  0  0  0
 15 23  1  0  0  0  0
 16 13  2  0  0  0  0
 17  1  1  0  0  0  0
 17  2  2  0  0  0  0
 18  4  1  0  0  0  0
 19 10  2  0  0  0  0
 20 10  1  6  0  0  0
 20  9  1  0  0  0  0
 20 18  1  0  0  0  0
 22 23  2  0  0  0  0
 22 16  1  0  0  0  0
 23 17  1  0  0  0  0
 24 21  2  0  0  0  0
 24 12  1  0  0  0  0
 25 27  1  0  0  0  0
 27 26  2  0  0  0  0
 28 30  1  0  0  0  0
 30 29  1  0  0  0  0
M  END
>  <MODEL>
5

>  <REMARK>
 VINA RESULT:      -8.6      1.067      1.387
  Name = 
  3 active torsions:
  status: ('A' for Active; 'I' for Inactive)
    1  A    between atoms: C_7  and  C_15
    2  A    between atoms: C_11  and  C_28
    3  A    between atoms: C_28  and  C_30
                            x       y       z     vdW  Elec       q    Type
                         _______ _______ _______ _____ _____    ______ ____

>  <TORSDO>
F 3

$$$$
=
 OpenBabel11122412373D

 30 34  0  0  1  0  0  0  0  0999 V2000
  161.5210  208.7640  151.8910 C   0  0  0  0  0  0  0  0  0  0  0  0
  161.5410  209.8310  154.1600 C   0  0  0  0  0  0  0  0  0  0  0  0
  160.8310  204.9790  153.5870 N   0  0  0  0  0  2  0  0  0  0  0  0
  161.3580  207.5910  151.0930 C   0  0  0  0  0  0  0  0  0  0  0  0
  161.8280  209.9680  151.2500 C   0  0  0  0  0  3  0  0  0  0  0  0
  162.0260  208.9880  147.7080 O   0  0  0  0  0  1  0  0  0  0  0  0
  161.9000  205.0890  149.0840 C   0  0  2  0  0  3  0  0  0  0  0  0
  161.8400  208.8930  149.0850 C   0  0  0  0  0  0  0  0  0  0  0  0
  162.1110  204.7860  150.4500 O   0  0  0  0  0  0  0  0  0  0  0  0
  160.8330  204.2150  152.3860 C   0  0  0  0  0  0  0  0  0  0  0  0
  161.9830  210.0430  149.8700 C   0  0  0  0  0  0  0  0  0  0  0  0
  161.5240  207.6520  149.6790 C   0  0  0  0  0  0  0  0  0  0  0  0
  161.4370  209.6970  155.5470 C   0  0  0  0  0  3  0  0  0  0  0  0
  161.7850  211.0710  153.6670 F   0  0  0  0  0  0  0  0  0  0  0  0
  160.9730  206.3150  153.1240 C   0  0  0  0  0  0  0  0  0  0  0  0
  161.1890  208.4540  156.1260 C   0  0  0  0  0  3  0  0  0  0  0  0
  161.3920  208.6970  153.3160 C   0  0  0  0  0  0  0  0  0  0  0  0
  161.0420  206.3970  151.7530 C   0  0  0  0  0  0  0  0  0  0  0  0
  160.7460  202.9600  152.3800 O   0  0  0  0  0  0  0  0  0  0  0  0
  160.9240  205.0470  151.1460 C   0  0  1  0  0  3  0  0  0  0  0  0
  160.6910  206.6340  147.7070 O   0  0  0  0  0  0  0  0  0  0  0  0
  161.0360  207.3290  155.3200 C   0  0  0  0  0  3  0  0  0  0  0  0
  161.1290  207.4400  153.9290 C   0  0  0  0  0  0  0  0  0  0  0  0
  161.3150  206.4670  148.7910 C   0  0  0  0  0  0  0  0  0  0  0  0
  160.4680  201.6510  148.1500 C   0  0  0  0  0  1  0  0  0  0  0  0
  161.1620  203.9800  148.3860 C   0  0  0  0  0  3  0  0  0  0  0  0
  161.2060  202.7360  148.8540 C   0  0  0  0  0  3  0  0  0  0  0  0
  162.3310  211.3600  149.2530 C   0  0  0  0  0  2  0  0  0  0  0  0
  160.8690  212.4160  147.5230 C   0  0  0  0  0  1  0  0  0  0  0  0
  161.0850  212.1990  149.0080 C   0  0  0  0  0  2  0  0  0  0  0  0
  1 17  1  0  0  0  0
  2 13  1  0  0  0  0
  4 18  1  0  0  0  0
  4  1  2  0  0  0  0
  5  1  1  0  0  0  0
  6  8  1  0  0  0  0
  7 26  1  1  0  0  0
  7  9  1  0  0  0  0
  8 12  2  0  0  0  0
  8 11  1  0  0  0  0
 10  3  1  0  0  0  0
 11  5  2  0  0  0  0
 12  4  1  0  0  0  0
 13 16  2  0  0  0  0
 14  2  1  0  0  0  0
 15  3  1  0  0  0  0
 15 23  1  0  0  0  0
 17 23  1  0  0  0  0
 17  2  2  0  0  0  0
 18 15  2  0  0  0  0
 19 10  2  0  0  0  0
 20  9  1  1  0  0  0
 20 18  1  0  0  0  0
 20 10  1  0  0  0  0
 21 24  2  0  0  0  0
 22 16  1  0  0  0  0
 23 22  2  0  0  0  0
 24  7  1  0  0  0  0
 24 12  1  0  0  0  0
 25 27  1  0  0  0  0
 26 27  2  0  0  0  0
 28 11  1  0  0  0  0
 29 30  1  0  0  0  0
 30 28  1  0  0  0  0
M  END
>  <MODEL>
6

>  <REMARK>
 VINA RESULT:      -8.3      2.678      6.564
  Name = 
  3 active torsions:
  status: ('A' for Active; 'I' for Inactive)
    1  A    between atoms: C_7  and  C_15
    2  A    between atoms: C_11  and  C_28
    3  A    between atoms: C_28  and  C_30
                            x       y       z     vdW  Elec       q    Type
                         _______ _______ _______ _____ _____    ______ ____

>  <TORSDO>
F 3

$$$$
=
 OpenBabel11122412373D

 30 34  0  0  1  0  0  0  0  0999 V2000
  161.3440  207.5760  151.0260 C   0  0  0  0  0  0  0  0  0  0  0  0
  161.3530  208.6660  153.2850 C   0  0  0  0  0  0  0  0  0  0  0  0
  160.6650  203.8060  152.7600 N   0  0  0  0  0  2  0  0  0  0  0  0
  161.1880  206.3940  150.2400 C   0  0  0  0  0  0  0  0  0  0  0  0
  161.6480  208.7750  150.3740 C   0  0  0  0  0  3  0  0  0  0  0  0
  161.8620  207.7590  146.8430 O   0  0  0  0  0  1  0  0  0  0  0  0
  161.7470  203.8740  148.2590 C   0  0  2  0  0  3  0  0  0  0  0  0
  161.6720  207.6780  148.2200 C   0  0  0  0  0  0  0  0  0  0  0  0
  161.9550  203.5850  149.6280 O   0  0  0  0  0  0  0  0  0  0  0  0
  160.6740  203.0300  151.5660 C   0  0  0  0  0  0  0  0  0  0  0  0
  161.8080  208.8350  148.9940 C   0  0  0  0  0  0  0  0  0  0  0  0
  161.3580  206.4410  148.8270 C   0  0  0  0  0  0  0  0  0  0  0  0
  161.2450  208.5460  154.6730 C   0  0  0  0  0  3  0  0  0  0  0  0
  161.5940  209.9020  152.7800 F   0  0  0  0  0  0  0  0  0  0  0  0
  160.8020  205.1370  152.2830 C   0  0  0  0  0  0  0  0  0  0  0  0
  161.0010  207.3080  155.2640 C   0  0  0  0  0  3  0  0  0  0  0  0
  161.2110  207.5230  152.4510 C   0  0  0  0  0  0  0  0  0  0  0  0
  160.8760  205.2050  150.9110 C   0  0  0  0  0  0  0  0  0  0  0  0
  160.5910  201.7750  151.5740 O   0  0  0  0  0  0  0  0  0  0  0  0
  160.7650  203.8490  150.3190 C   0  0  1  0  0  3  0  0  0  0  0  0
  160.5360  205.3990  146.8620 O   0  0  0  0  0  0  0  0  0  0  0  0
  160.8550  206.1750  154.4690 C   0  0  0  0  0  3  0  0  0  0  0  0
  160.9510  206.2720  153.0770 C   0  0  0  0  0  0  0  0  0  0  0  0
  161.1580  205.2470  147.9490 C   0  0  0  0  0  0  0  0  0  0  0  0
  160.4580  201.4150  145.6060 C   0  0  0  0  0  1  0  0  0  0  0  0
  161.0160  202.7540  147.5700 C   0  0  0  0  0  3  0  0  0  0  0  0
  161.1900  202.5290  146.2710 C   0  0  0  0  0  3  0  0  0  0  0  0
  162.1520  210.1480  148.3640 C   0  0  0  0  0  2  0  0  0  0  0  0
  161.8420  212.6160  148.6020 C   0  0  0  0  0  1  0  0  0  0  0  0
  161.9540  211.2970  149.3420 C   0  0  0  0  0  2  0  0  0  0  0  0
  1 17  1  0  0  0  0
  2 13  1  0  0  0  0
  4 18  1  0  0  0  0
  4  1  2  0  0  0  0
  5  1  1  0  0  0  0
  6  8  1  0  0  0  0
  7 26  1  1  0  0  0
  7  9  1  0  0  0  0
  8 12  2  0  0  0  0
  8 11  1  0  0  0  0
 10 19  2  0  0  0  0
 10  3  1  0  0  0  0
 11  5  2  0  0  0  0
 12  4  1  0  0  0  0
 13 16  2  0  0  0  0
 14  2  1  0  0  0  0
 15  3  1  0  0  0  0
 15 23  1  0  0  0  0
 17 23  1  0  0  0  0
 17  2  2  0  0  0  0
 18 15  2  0  0  0  0
 20  9  1  1  0  0  0
 20 18  1  0  0  0  0
 20 10  1  0  0  0  0
 21 24  2  0  0  0  0
 22 16  1  0  0  0  0
 23 22  2  0  0  0  0
 24  7  1  0  0  0  0
 24 12  1  0  0  0  0
 25 27  1  0  0  0  0
 27 26  2  0  0  0  0
 28 11  1  0  0  0  0
 28 30  1  0  0  0  0
 29 30  1  0  0  0  0
M  END
>  <MODEL>
7

>  <REMARK>
 VINA RESULT:      -7.9      2.556      6.304
  Name = 
  3 active torsions:
  status: ('A' for Active; 'I' for Inactive)
    1  A    between atoms: C_7  and  C_15
    2  A    between atoms: C_11  and  C_28
    3  A    between atoms: C_28  and  C_30
                            x       y       z     vdW  Elec       q    Type
                         _______ _______ _______ _____ _____    ______ ____

>  <TORSDO>
F 3

$$$$
=
 OpenBabel11122412373D

 30 34  0  0  1  0  0  0  0  0999 V2000
  161.8710  207.0830  148.8450 C   0  0  0  0  0  0  0  0  0  0  0  0
  161.9680  205.8900  146.6410 C   0  0  0  0  0  0  0  0  0  0  0  0
  160.9780  203.4920  150.8420 N   0  0  0  0  0  2  0  0  0  0  0  0
  161.7000  207.0220  150.2610 C   0  0  0  0  0  0  0  0  0  0  0  0
  162.0850  208.3310  148.2520 C   0  0  0  0  0  3  0  0  0  0  0  0
  161.9630  210.6350  151.1200 O   0  0  0  0  0  1  0  0  0  0  0  0
  160.5440  207.4040  153.2790 C   0  0  2  0  0  3  0  0  0  0  0  0
  161.9430  209.4480  150.3910 C   0  0  0  0  0  0  0  0  0  0  0  0
  160.0830  206.2340  152.6310 O   0  0  0  0  0  0  0  0  0  0  0  0
  160.8450  204.0200  152.1570 C   0  0  0  0  0  0  0  0  0  0  0  0
  162.1260  209.4990  149.0050 C   0  0  0  0  0  0  0  0  0  0  0  0
  161.7300  208.2130  151.0420 C   0  0  0  0  0  0  0  0  0  0  0  0
  161.8570  204.6990  145.9180 C   0  0  0  0  0  3  0  0  0  0  0  0
  162.2360  207.0220  145.9450 F   0  0  0  0  0  0  0  0  0  0  0  0
  161.3720  204.6220  150.0760 C   0  0  0  0  0  0  0  0  0  0  0  0
  161.5810  203.4960  146.5660 C   0  0  0  0  0  3  0  0  0  0  0  0
  161.8030  205.8910  148.0530 C   0  0  0  0  0  0  0  0  0  0  0  0
  161.4950  205.7620  150.8360 C   0  0  0  0  0  0  0  0  0  0  0  0
  160.4830  203.3170  153.1360 O   0  0  0  0  0  0  0  0  0  0  0  0
  161.1970  205.4690  152.2610 C   0  0  1  0  0  3  0  0  0  0  0  0
  162.3700  208.9540  153.2020 O   0  0  0  0  0  0  0  0  0  0  0  0
  161.4180  203.4710  147.9470 C   0  0  0  0  0  3  0  0  0  0  0  0
  161.5320  204.6490  148.6930 C   0  0  0  0  0  0  0  0  0  0  0  0
  161.6080  208.2040  152.5330 C   0  0  0  0  0  0  0  0  0  0  0  0
  160.4100  206.9810  157.0930 C   0  0  0  0  0  1  0  0  0  0  0  0
  160.9170  207.1250  154.7090 C   0  0  0  0  0  3  0  0  0  0  0  0
  160.0230  207.2630  155.6830 C   0  0  0  0  0  3  0  0  0  0  0  0
  162.3400  210.8030  148.3030 C   0  0  0  0  0  2  0  0  0  0  0  0
  160.8940  212.8370  148.4420 C   0  0  0  0  0  1  0  0  0  0  0  0
  161.0160  211.4300  147.8900 C   0  0  0  0  0  2  0  0  0  0  0  0
  1  4  1  0  0  0  0
  2 17  1  0  0  0  0
  3 10  1  0  0  0  0
  4 18  1  0  0  0  0
  4 12  2  0  0  0  0
  5  1  2  0  0  0  0
  5 11  1  0  0  0  0
  7 26  1  1  0  0  0
  8 12  1  0  0  0  0
  8  6  1  0  0  0  0
  9  7  1  0  0  0  0
 10 20  1  0  0  0  0
 10 19  2  0  0  0  0
 11  8  2  0  0  0  0
 12 24  1  0  0  0  0
 13 16  1  0  0  0  0
 13  2  2  0  0  0  0
 14  2  1  0  0  0  0
 15 18  2  0  0  0  0
 15  3  1  0  0  0  0
 16 22  2  0  0  0  0
 17 23  2  0  0  0  0
 17  1  1  0  0  0  0
 20 18  1  6  0  0  0
 20  9  1  0  0  0  0
 22 23  1  0  0  0  0
 23 15  1  0  0  0  0
 24 21  2  0  0  0  0
 24  7  1  0  0  0  0
 26 27  2  0  0  0  0
 27 25  1  0  0  0  0
 28 11  1  0  0  0  0
 30 28  1  0  0  0  0
 30 29  1  0  0  0  0
M  END
>  <MODEL>
8

>  <REMARK>
 VINA RESULT:      -7.7      2.457      5.641
  Name = 
  3 active torsions:
  status: ('A' for Active; 'I' for Inactive)
    1  A    between atoms: C_7  and  C_15
    2  A    between atoms: C_11  and  C_28
    3  A    between atoms: C_28  and  C_30
                            x       y       z     vdW  Elec       q    Type
                         _______ _______ _______ _____ _____    ______ ____

>  <TORSDO>
F 3

$$$$
=
 OpenBabel11122412373D

 30 34  0  0  1  0  0  0  0  0999 V2000
  161.4090  209.2070  151.5080 C   0  0  0  0  0  0  0  0  0  0  0  0
  161.6080  211.5370  150.6030 C   0  0  0  0  0  0  0  0  0  0  0  0
  161.8870  207.5840  147.6590 N   0  0  0  0  0  2  0  0  0  0  0  0
  161.4300  207.7980  151.2740 C   0  0  0  0  0  0  0  0  0  0  0  0
  161.1640  209.6630  152.8080 C   0  0  0  0  0  3  0  0  0  0  0  0
  160.6800  206.5400  154.6970 O   0  0  0  0  0  1  0  0  0  0  0  0
  160.5690  204.6710  151.0080 C   0  0  2  0  0  3  0  0  0  0  0  0
  160.9380  207.4020  153.6320 C   0  0  0  0  0  0  0  0  0  0  0  0
  160.4140  205.4130  149.8140 O   0  0  0  0  0  0  0  0  0  0  0  0
  161.7520  206.2080  148.0020 C   0  0  0  0  0  0  0  0  0  0  0  0
  160.9350  208.7820  153.8590 C   0  0  0  0  0  0  0  0  0  0  0  0
  161.1870  206.8860  152.3410 C   0  0  0  0  0  0  0  0  0  0  0  0
  161.7820  212.3840  149.5060 C   0  0  0  0  0  3  0  0  0  0  0  0
  161.4370  212.1140  151.8190 F   0  0  0  0  0  0  0  0  0  0  0  0
  161.8270  208.2400  148.9180 C   0  0  0  0  0  0  0  0  0  0  0  0
  161.9610  211.8640  148.2250 C   0  0  0  0  0  3  0  0  0  0  0  0
  161.6150  210.1260  150.4300 C   0  0  0  0  0  0  0  0  0  0  0  0
  161.6850  207.3620  149.9680 C   0  0  0  0  0  0  0  0  0  0  0  0
  161.7370  205.2940  147.1380 O   0  0  0  0  0  0  0  0  0  0  0  0
  161.6570  205.9630  149.4730 C   0  0  1  0  0  3  0  0  0  0  0  0
  161.8170  204.7150  153.0540 O   0  0  0  0  0  0  0  0  0  0  0  0
  161.9750  210.4860  148.0300 C   0  0  0  0  0  3  0  0  0  0  0  0
  161.8110  209.6180  149.1150 C   0  0  0  0  0  0  0  0  0  0  0  0
  161.2460  205.4030  152.1640 C   0  0  0  0  0  0  0  0  0  0  0  0
  161.2280  201.1590  149.6020 C   0  0  0  0  0  1  0  0  0  0  0  0
  161.1730  203.3200  150.7380 C   0  0  0  0  0  3  0  0  0  0  0  0
  160.6160  202.4930  149.8580 C   0  0  0  0  0  3  0  0  0  0  0  0
  160.6600  209.3390  155.2200 C   0  0  0  0  0  2  0  0  0  0  0  0
  159.2970  211.3900  155.6450 C   0  0  0  0  0  1  0  0  0  0  0  0
  159.2520  209.9130  155.3060 C   0  0  0  0  0  2  0  0  0  0  0  0
  1  5  2  0  0  0  0
  2 14  1  0  0  0  0
  3 10  1  0  0  0  0
  3 15  1  0  0  0  0
  4  1  1  0  0  0  0
  4 12  2  0  0  0  0
  5 11  1  0  0  0  0
  7 26  1  6  0  0  0
  7 24  1  0  0  0  0
  8 11  2  0  0  0  0
  8  6  1  0  0  0  0
  9  7  1  0  0  0  0
 11 28  1  0  0  0  0
 12  8  1  0  0  0  0
 13  2  2  0  0  0  0
 15 23  1  0  0  0  0
 15 18  2  0  0  0  0
 16 13  1  0  0  0  0
 17  2  1  0  0  0  0
 17  1  1  0  0  0  0
 18  4  1  0  0  0  0
 19 10  2  0  0  0  0
 20 10  1  6  0  0  0
 20  9  1  0  0  0  0
 20 18  1  0  0  0  0
 22 16  2  0  0  0  0
 22 23  1  0  0  0  0
 23 17  2  0  0  0  0
 24 12  1  0  0  0  0
 24 21  2  0  0  0  0
 25 27  1  0  0  0  0
 27 26  2  0  0  0  0
 28 30  1  0  0  0  0
 30 29  1  0  0  0  0
M  END
>  <MODEL>
9

>  <REMARK>
 VINA RESULT:      -7.3      2.613      5.871
  Name = 
  3 active torsions:
  status: ('A' for Active; 'I' for Inactive)
    1  A    between atoms: C_7  and  C_15
    2  A    between atoms: C_11  and  C_28
    3  A    between atoms: C_28  and  C_30
                            x       y       z     vdW  Elec       q    Type
                         _______ _______ _______ _____ _____    ______ ____

>  <TORSDO>
F 3

$$$$
