=
 OpenBabel11122413273D

 31 35  0  0  1  0  0  0  0  0999 V2000
  160.7150  206.5840  146.4170 C   0  0  1  0  0  3  0  0  0  0  0  0
  160.1980  205.0520  149.9760 C   0  0  2  0  0  3  0  0  0  0  0  0
  160.7040  203.6120  149.8870 C   0  0  0  0  0  0  0  0  0  0  0  0
  161.2090  201.6370  148.5520 C   0  0  0  0  0  0  0  0  0  0  0  0
  160.6720  206.0100  148.8660 C   0  0  2  0  0  3  0  0  0  0  0  0
  162.2320  206.7030  146.4880 C   0  0  0  0  0  2  0  0  0  0  0  0
  160.8330  202.9770  148.6410 C   0  0  0  0  0  3  0  0  0  0  0  0
  162.0190  206.0230  151.4690 C   0  0  2  0  0  3  0  0  0  0  0  0
  160.3420  206.1450  145.1490 O   0  0  0  0  0  1  0  0  0  0  0  0
  160.8150  203.4430  152.4350 C   0  0  0  0  0  2  0  0  0  0  0  0
  161.3420  201.0500  147.3380 F   0  0  0  0  0  0  0  0  0  0  0  0
  162.4910  206.9070  150.3120 C   0  0  0  0  0  2  0  0  0  0  0  0
  160.5190  205.6910  151.3390 C   0  0  2  0  0  3  0  0  0  0  0  0
  160.2200  205.5930  147.4630 C   0  0  0  0  0  2  0  0  0  0  0  0
  161.4410  200.8990  149.7120 C   0  0  0  0  0  3  0  0  0  0  0  0
  162.1840  206.2680  148.9620 C   0  0  2  0  0  3  0  0  0  0  0  0
  162.6440  207.2220  147.8610 C   0  0  0  0  0  2  0  0  0  0  0  0
  160.0450  204.7610  152.4550 C   0  0  0  0  0  2  0  0  0  0  0  0
  160.9060  202.8430  151.0610 C   0  0  0  0  0  0  0  0  0  0  0  0
  161.2910  201.5030  150.9610 C   0  0  0  0  0  3  0  0  0  0  0  0
  160.5240  208.2280  152.4840 O   0  0  0  0  0  0  0  0  0  0  0  0
  161.4780  207.7960  153.1880 C   0  0  0  0  0  0  0  0  0  0  0  0
  162.2720  206.7000  152.7330 N   0  0  0  0  0  2  0  0  0  0  0  0
  159.4780  209.8890  155.4430 C   0  0  0  0  0  0  0  0  0  0  0  0
  160.9370  207.8820  155.6490 C   0  0  0  0  0  2  0  0  0  0  0  0
  162.5390  210.4710  153.4340 O   0  0  0  0  0  1  0  0  0  0  0  0
  158.4310  210.5660  155.9040 C   0  0  0  0  0  2  0  0  0  0  0  0
  159.4970  208.3970  155.5830 C   0  0  0  0  0  2  0  0  0  0  0  0
  161.7630  209.9710  154.4810 C   0  0  2  0  0  3  0  0  0  0  0  0
  161.8020  208.4330  154.5090 C   0  0  2  0  0  3  0  0  0  0  0  0
  160.3380  210.5150  154.3880 C   0  0  0  0  0  2  0  0  0  0  0  0
  1  9  1  6  0  0  0
  1  6  1  0  0  0  0
  1 14  1  0  0  0  0
  2  3  1  6  0  0  0
  2 13  1  0  0  0  0
  3 19  1  0  0  0  0
  4  7  1  0  0  0  0
  4 15  2  0  0  0  0
  5 14  1  6  0  0  0
  5 16  1  0  0  0  0
  5  2  1  0  0  0  0
  6 17  1  0  0  0  0
  7  3  2  0  0  0  0
  8 23  1  1  0  0  0
 10 18  1  0  0  0  0
 11  4  1  0  0  0  0
 12  8  1  0  0  0  0
 13  8  1  0  0  0  0
 13 18  1  1  0  0  0
 15 20  1  0  0  0  0
 16 17  1  6  0  0  0
 16 12  1  0  0  0  0
 19 10  1  0  0  0  0
 20 19  2  0  0  0  0
 21 22  2  0  0  0  0
 23 22  1  0  0  0  0
 24 28  1  0  0  0  0
 24 27  2  0  0  0  0
 28 25  1  0  0  0  0
 29 26  1  6  0  0  0
 29 30  1  0  0  0  0
 30 22  1  6  0  0  0
 30 25  1  0  0  0  0
 31 29  1  0  0  0  0
 31 24  1  0  0  0  0
M  END
>  <MODEL>
1

>  <REMARK>
 VINA RESULT:      -7.3      0.000      0.000
  Name = 
  2 active torsions:
  status: ('A' for Active; 'I' for Inactive)
    1  A    between atoms: C_5  and  C_30
    2  A    between atoms: C_10  and  N_16
                            x       y       z     vdW  Elec       q    Type
                         _______ _______ _______ _____ _____    ______ ____

>  <TORSDO>
F 2

$$$$
=
 OpenBabel11122413273D

 31 35  0  0  1  0  0  0  0  0999 V2000
  160.9460  204.2580  145.3870 C   0  0  1  0  0  3  0  0  0  0  0  0
  160.4430  205.9080  148.8950 C   0  0  2  0  0  3  0  0  0  0  0  0
  160.9100  204.8690  149.9140 C   0  0  0  0  0  0  0  0  0  0  0  0
  161.3430  202.5440  150.5040 C   0  0  0  0  0  0  0  0  0  0  0  0
  160.9250  205.7040  147.4450 C   0  0  2  0  0  3  0  0  0  0  0  0
  162.4660  204.3470  145.3600 C   0  0  0  0  0  2  0  0  0  0  0  0
  161.0040  203.5130  149.5590 C   0  0  0  0  0  3  0  0  0  0  0  0
  162.3110  207.6160  149.1820 C   0  0  2  0  0  3  0  0  0  0  0  0
  160.5420  203.0300  144.8660 O   0  0  0  0  0  1  0  0  0  0  0  0
  161.0550  206.6540  151.7390 C   0  0  0  0  0  2  0  0  0  0  0  0
  161.4430  201.2440  150.1350 F   0  0  0  0  0  0  0  0  0  0  0  0
  162.7880  207.3270  147.7570 C   0  0  0  0  0  2  0  0  0  0  0  0
  160.8010  207.3410  149.3290 C   0  0  2  0  0  3  0  0  0  0  0  0
  160.4410  204.3930  146.8180 C   0  0  0  0  0  2  0  0  0  0  0  0
  161.5730  202.9120  151.8290 C   0  0  0  0  0  3  0  0  0  0  0  0
  162.4450  205.9040  147.3310 C   0  0  2  0  0  3  0  0  0  0  0  0
  162.9120  205.7040  145.8910 C   0  0  0  0  0  2  0  0  0  0  0  0
  160.3200  207.5680  150.7610 C   0  0  0  0  0  2  0  0  0  0  0  0
  161.1100  205.2280  151.2720 C   0  0  0  0  0  0  0  0  0  0  0  0
  161.4580  204.2500  152.2090 C   0  0  0  0  0  3  0  0  0  0  0  0
  161.3110  209.8940  147.7900 O   0  0  0  0  0  0  0  0  0  0  0  0
  162.0590  210.1000  148.7850 C   0  0  0  0  0  0  0  0  0  0  0  0
  162.6010  209.0020  149.5200 N   0  0  0  0  0  2  0  0  0  0  0  0
  160.9210  213.3660  147.5580 C   0  0  0  0  0  0  0  0  0  0  0  0
  161.1900  212.2520  149.7690 C   0  0  0  0  0  2  0  0  0  0  0  0
  164.1970  211.6300  147.5910 O   0  0  0  0  0  1  0  0  0  0  0  0
  160.2560  214.2500  146.8220 C   0  0  0  0  0  2  0  0  0  0  0  0
  160.2050  212.6630  148.6720 C   0  0  0  0  0  2  0  0  0  0  0  0
  163.1030  212.3230  148.1120 C   0  0  2  0  0  3  0  0  0  0  0  0
  162.4020  211.5000  149.2070 C   0  0  2  0  0  3  0  0  0  0  0  0
  162.1500  212.7240  146.9870 C   0  0  0  0  0  2  0  0  0  0  0  0
  1  9  1  1  0  0  0
  1 14  1  0  0  0  0
  2 13  1  0  0  0  0
  2  3  1  1  0  0  0
  3 19  1  0  0  0  0
  4 15  2  0  0  0  0
  5 14  1  1  0  0  0
  5  2  1  0  0  0  0
  6  1  1  0  0  0  0
  6 17  1  0  0  0  0
  7  3  2  0  0  0  0
  7  4  1  0  0  0  0
  8 13  1  0  0  0  0
  8 23  1  6  0  0  0
 11  4  1  0  0  0  0
 12  8  1  0  0  0  0
 13 18  1  1  0  0  0
 15 20  1  0  0  0  0
 16 17  1  6  0  0  0
 16  5  1  0  0  0  0
 16 12  1  0  0  0  0
 18 10  1  0  0  0  0
 19 10  1  0  0  0  0
 19 20  2  0  0  0  0
 21 22  2  0  0  0  0
 22 23  1  0  0  0  0
 24 28  1  0  0  0  0
 27 24  2  0  0  0  0
 28 25  1  0  0  0  0
 29 26  1  6  0  0  0
 29 30  1  0  0  0  0
 30 22  1  6  0  0  0
 30 25  1  0  0  0  0
 31 24  1  0  0  0  0
 31 29  1  0  0  0  0
M  END
>  <MODEL>
2

>  <REMARK>
 VINA RESULT:      -7.0      3.461      4.647
  Name = 
  2 active torsions:
  status: ('A' for Active; 'I' for Inactive)
    1  A    between atoms: C_5  and  C_30
    2  A    between atoms: C_10  and  N_16
                            x       y       z     vdW  Elec       q    Type
                         _______ _______ _______ _____ _____    ______ ____

>  <TORSDO>
F 2

$$$$
=
 OpenBabel11122413273D

 31 35  0  0  1  0  0  0  0  0999 V2000
  160.8550  204.9750  145.0580 C   0  0  1  0  0  3  0  0  0  0  0  0
  160.4010  205.2120  148.9330 C   0  0  2  0  0  3  0  0  0  0  0  0
  160.8710  203.8680  149.4900 C   0  0  0  0  0  0  0  0  0  0  0  0
  161.2950  201.4890  149.1730 C   0  0  0  0  0  0  0  0  0  0  0  0
  160.8650  205.5570  147.5050 C   0  0  2  0  0  3  0  0  0  0  0  0
  162.3750  205.0640  145.0470 C   0  0  0  0  0  2  0  0  0  0  0  0
  160.9520  202.7400  148.6580 C   0  0  0  0  0  3  0  0  0  0  0  0
  162.2830  206.6880  149.8080 C   0  0  2  0  0  3  0  0  0  0  0  0
  160.4370  204.0270  144.1250 O   0  0  0  0  0  1  0  0  0  0  0  0
  161.0480  204.8520  151.8430 C   0  0  0  0  0  2  0  0  0  0  0  0
  161.3820  200.4180  148.3490 F   0  0  0  0  0  0  0  0  0  0  0  0
  162.7430  206.9460  148.3710 C   0  0  0  0  0  2  0  0  0  0  0  0
  160.7720  206.3810  149.8610 C   0  0  2  0  0  3  0  0  0  0  0  0
  160.3670  204.5720  146.4440 C   0  0  0  0  0  2  0  0  0  0  0  0
  161.5410  201.3410  150.5370 C   0  0  0  0  0  3  0  0  0  0  0  0
  162.3850  205.7810  147.4540 C   0  0  2  0  0  3  0  0  0  0  0  0
  162.8360  206.1280  146.0360 C   0  0  0  0  0  2  0  0  0  0  0  0
  160.3080  206.0640  151.2820 C   0  0  0  0  0  2  0  0  0  0  0  0
  161.0880  203.6990  150.8810 C   0  0  0  0  0  0  0  0  0  0  0  0
  161.4390  202.4430  151.3860 C   0  0  0  0  0  3  0  0  0  0  0  0
  161.3910  209.3460  149.2950 O   0  0  0  0  0  0  0  0  0  0  0  0
  162.0990  209.1570  150.3220 C   0  0  0  0  0  0  0  0  0  0  0  0
  162.5850  207.8500  150.6310 N   0  0  0  0  0  2  0  0  0  0  0  0
  160.1760  210.8870  152.9240 C   0  0  0  0  0  0  0  0  0  0  0  0
  162.4480  209.8920  152.7080 C   0  0  0  0  0  2  0  0  0  0  0  0
  161.5870  211.9190  149.6550 O   0  0  0  0  0  1  0  0  0  0  0  0
  159.1530  211.1830  153.7190 C   0  0  0  0  0  2  0  0  0  0  0  0
  161.0300  209.6990  153.2520 C   0  0  0  0  0  2  0  0  0  0  0  0
  161.5950  211.5580  151.0030 C   0  0  2  0  0  3  0  0  0  0  0  0
  162.4510  210.2990  151.2300 C   0  0  2  0  0  3  0  0  0  0  0  0
  160.1640  211.3860  151.5110 C   0  0  0  0  0  2  0  0  0  0  0  0
  1  9  1  6  0  0  0
  1 14  1  0  0  0  0
  2  3  1  1  0  0  0
  2 13  1  0  0  0  0
  3 19  1  0  0  0  0
  4 15  2  0  0  0  0
  5 14  1  6  0  0  0
  5  2  1  0  0  0  0
  6  1  1  0  0  0  0
  6 17  1  0  0  0  0
  7  4  1  0  0  0  0
  7  3  2  0  0  0  0
  8 13  1  0  0  0  0
  8 23  1  1  0  0  0
 11  4  1  0  0  0  0
 12  8  1  0  0  0  0
 13 18  1  1  0  0  0
 15 20  1  0  0  0  0
 16 17  1  6  0  0  0
 16  5  1  0  0  0  0
 16 12  1  0  0  0  0
 18 10  1  0  0  0  0
 19 20  2  0  0  0  0
 19 10  1  0  0  0  0
 21 22  2  0  0  0  0
 22 23  1  0  0  0  0
 24 28  1  0  0  0  0
 24 27  2  0  0  0  0
 25 28  1  0  0  0  0
 29 26  1  6  0  0  0
 29 30  1  0  0  0  0
 29 31  1  0  0  0  0
 30 22  1  6  0  0  0
 30 25  1  0  0  0  0
 31 24  1  0  0  0  0
M  END
>  <MODEL>
3

>  <REMARK>
 VINA RESULT:      -6.7      1.908      2.339
  Name = 
  2 active torsions:
  status: ('A' for Active; 'I' for Inactive)
    1  A    between atoms: C_5  and  C_30
    2  A    between atoms: C_10  and  N_16
                            x       y       z     vdW  Elec       q    Type
                         _______ _______ _______ _____ _____    ______ ____

>  <TORSDO>
F 2

$$$$
=
 OpenBabel11122413273D

 31 35  0  0  1  0  0  0  0  0999 V2000
  161.2670  208.6450  156.4050 C   0  0  1  0  0  3  0  0  0  0  0  0
  162.0260  209.2570  152.6200 C   0  0  2  0  0  3  0  0  0  0  0  0
  161.5480  208.0010  151.8910 C   0  0  0  0  0  0  0  0  0  0  0  0
  161.0070  205.6240  151.9240 C   0  0  0  0  0  0  0  0  0  0  0  0
  161.4670  209.4750  154.0390 C   0  0  2  0  0  3  0  0  0  0  0  0
  159.7550  208.8040  156.3160 C   0  0  0  0  0  2  0  0  0  0  0  0
  161.3590  206.7980  152.5910 C   0  0  0  0  0  3  0  0  0  0  0  0
  160.2760  210.9010  151.7720 C   0  0  2  0  0  3  0  0  0  0  0  0
  161.5740  207.5890  157.2610 O   0  0  0  0  0  1  0  0  0  0  0  0
  161.5910  209.2270  149.6490 C   0  0  0  0  0  2  0  0  0  0  0  0
  160.8150  204.4790  152.6220 F   0  0  0  0  0  0  0  0  0  0  0  0
  159.7180  211.0320  153.1910 C   0  0  0  0  0  2  0  0  0  0  0  0
  161.7730  210.5310  151.7960 C   0  0  2  0  0  3  0  0  0  0  0  0
  161.8440  208.3640  155.0240 C   0  0  0  0  0  2  0  0  0  0  0  0
  160.8610  205.6280  150.5370 C   0  0  0  0  0  3  0  0  0  0  0  0
  159.9580  209.7640  154.0030 C   0  0  2  0  0  3  0  0  0  0  0  0
  159.4140  209.9840  155.4130 C   0  0  0  0  0  2  0  0  0  0  0  0
  162.3320  210.3390  150.3870 C   0  0  0  0  0  2  0  0  0  0  0  0
  161.4320  207.9850  150.4780 C   0  0  0  0  0  0  0  0  0  0  0  0
  161.0710  206.8050  149.8190 C   0  0  0  0  0  3  0  0  0  0  0  0
  157.8180  212.3310  151.5890 O   0  0  0  0  0  0  0  0  0  0  0  0
  158.8240  212.8260  151.0110 C   0  0  0  0  0  0  0  0  0  0  0  0
  160.0840  212.1550  151.0560 N   0  0  0  0  0  2  0  0  0  0  0  0
  157.7100  213.5710  147.5950 C   0  0  0  0  0  0  0  0  0  0  0  0
  157.2650  214.4530  149.8810 C   0  0  0  0  0  2  0  0  0  0  0  0
  160.9510  213.8820  149.3680 O   0  0  0  0  0  1  0  0  0  0  0  0
  157.2490  213.3570  146.3670 C   0  0  0  0  0  2  0  0  0  0  0  0
  156.7460  213.5710  148.7430 C   0  0  0  0  0  2  0  0  0  0  0  0
  159.6360  214.2000  149.0270 C   0  0  2  0  0  3  0  0  0  0  0  0
  158.7140  214.1190  150.2570 C   0  0  2  0  0  3  0  0  0  0  0  0
  159.1570  213.3080  147.8830 C   0  0  0  0  0  2  0  0  0  0  0  0
  1  9  1  1  0  0  0
  2  3  1  6  0  0  0
  2  5  1  0  0  0  0
  3  7  1  0  0  0  0
  4  7  2  0  0  0  0
  4 11  1  0  0  0  0
  5 14  1  1  0  0  0
  6  1  1  0  0  0  0
  8 23  1  1  0  0  0
  8 13  1  0  0  0  0
  8 12  1  0  0  0  0
 10 18  1  0  0  0  0
 10 19  1  0  0  0  0
 13 18  1  6  0  0  0
 13  2  1  0  0  0  0
 14  1  1  0  0  0  0
 15  4  1  0  0  0  0
 16 12  1  6  0  0  0
 16  5  1  0  0  0  0
 16 17  1  0  0  0  0
 17  6  1  0  0  0  0
 19  3  2  0  0  0  0
 20 19  1  0  0  0  0
 20 15  2  0  0  0  0
 22 23  1  0  0  0  0
 22 21  2  0  0  0  0
 24 31  1  0  0  0  0
 24 28  1  0  0  0  0
 25 30  1  0  0  0  0
 27 24  2  0  0  0  0
 28 25  1  0  0  0  0
 29 26  1  1  0  0  0
 29 30  1  0  0  0  0
 30 22  1  6  0  0  0
 31 29  1  0  0  0  0
M  END
>  <MODEL>
4

>  <REMARK>
 VINA RESULT:      -5.8      4.277      7.244
  Name = 
  2 active torsions:
  status: ('A' for Active; 'I' for Inactive)
    1  A    between atoms: C_5  and  C_30
    2  A    between atoms: C_10  and  N_16
                            x       y       z     vdW  Elec       q    Type
                         _______ _______ _______ _____ _____    ______ ____

>  <TORSDO>
F 2

$$$$
=
 OpenBabel11122413273D

 31 35  0  0  1  0  0  0  0  0999 V2000
  161.0060  209.7450  155.0180 C   0  0  1  0  0  3  0  0  0  0  0  0
  162.2210  209.8970  151.3060 C   0  0  2  0  0  3  0  0  0  0  0  0
  161.6530  208.6480  150.6310 C   0  0  0  0  0  0  0  0  0  0  0  0
  160.7950  206.3720  150.7930 C   0  0  0  0  0  0  0  0  0  0  0  0
  161.5550  210.3160  152.6310 C   0  0  2  0  0  3  0  0  0  0  0  0
  159.5460  210.0840  154.7470 C   0  0  0  0  0  2  0  0  0  0  0  0
  161.2320  207.5500  151.3990 C   0  0  0  0  0  3  0  0  0  0  0  0
  160.8050  211.6610  150.1370 C   0  0  2  0  0  3  0  0  0  0  0  0
  161.0790  208.7440  155.9840 O   0  0  0  0  0  1  0  0  0  0  0  0
  162.0880  209.6420  148.3160 C   0  0  0  0  0  2  0  0  0  0  0  0
  160.3800  205.3310  151.5540 F   0  0  0  0  0  0  0  0  0  0  0  0
  160.1280  211.9940  151.4690 C   0  0  0  0  0  2  0  0  0  0  0  0
  162.2270  211.1090  150.3590 C   0  0  2  0  0  3  0  0  0  0  0  0
  161.6770  209.2640  153.7370 C   0  0  0  0  0  2  0  0  0  0  0  0
  160.7910  206.2640  149.4030 C   0  0  0  0  0  3  0  0  0  0  0  0
  160.1110  210.7890  152.4020 C   0  0  2  0  0  3  0  0  0  0  0  0
  159.4610  211.2080  153.7200 C   0  0  0  0  0  2  0  0  0  0  0  0
  162.8950  210.7170  149.0420 C   0  0  0  0  0  2  0  0  0  0  0  0
  161.6800  208.5140  149.2190 C   0  0  0  0  0  0  0  0  0  0  0  0
  161.2310  207.3320  148.6210 C   0  0  0  0  0  3  0  0  0  0  0  0
  160.0100  211.8010  147.4030 O   0  0  0  0  0  0  0  0  0  0  0  0
  160.4340  212.8600  147.9420 C   0  0  0  0  0  0  0  0  0  0  0  0
  160.8570  212.8560  149.3060 N   0  0  0  0  0  2  0  0  0  0  0  0
  161.2550  213.5190  144.4270 C   0  0  0  0  0  0  0  0  0  0  0  0
  159.4750  214.1950  146.0310 C   0  0  0  0  0  2  0  0  0  0  0  0
  162.8680  214.3860  147.6510 O   0  0  0  0  0  1  0  0  0  0  0  0
  161.5930  213.2720  143.1650 C   0  0  0  0  0  2  0  0  0  0  0  0
  159.8410  213.2790  144.8610 C   0  0  0  0  0  2  0  0  0  0  0  0
  161.9230  214.4530  146.6260 C   0  0  2  0  0  3  0  0  0  0  0  0
  160.5130  214.1380  147.1580 C   0  0  2  0  0  3  0  0  0  0  0  0
  162.3270  213.5340  145.4740 C   0  0  0  0  0  2  0  0  0  0  0  0
  1  9  1  1  0  0  0
  2  3  1  6  0  0  0
  2  5  1  0  0  0  0
  3  7  1  0  0  0  0
  4  7  2  0  0  0  0
  4 11  1  0  0  0  0
  5 14  1  1  0  0  0
  6  1  1  0  0  0  0
  8 23  1  6  0  0  0
  8 13  1  0  0  0  0
  8 12  1  0  0  0  0
 10 18  1  0  0  0  0
 10 19  1  0  0  0  0
 13 18  1  6  0  0  0
 13  2  1  0  0  0  0
 14  1  1  0  0  0  0
 15  4  1  0  0  0  0
 16 12  1  6  0  0  0
 16  5  1  0  0  0  0
 16 17  1  0  0  0  0
 17  6  1  0  0  0  0
 19  3  2  0  0  0  0
 20 19  1  0  0  0  0
 20 15  2  0  0  0  0
 21 22  2  0  0  0  0
 22 23  1  0  0  0  0
 24 28  1  0  0  0  0
 24 31  1  0  0  0  0
 25 30  1  0  0  0  0
 27 24  2  0  0  0  0
 28 25  1  0  0  0  0
 29 30  1  0  0  0  0
 29 26  1  1  0  0  0
 30 22  1  6  0  0  0
 31 29  1  0  0  0  0
M  END
>  <MODEL>
5

>  <REMARK>
 VINA RESULT:      -5.6      4.727      8.023
  Name = 
  2 active torsions:
  status: ('A' for Active; 'I' for Inactive)
    1  A    between atoms: C_5  and  C_30
    2  A    between atoms: C_10  and  N_16
                            x       y       z     vdW  Elec       q    Type
                         _______ _______ _______ _____ _____    ______ ____

>  <TORSDO>
F 2

$$$$
=
 OpenBabel11122413273D

 31 35  0  0  1  0  0  0  0  0999 V2000
  161.7240  213.8060  148.3190 C   0  0  1  0  0  3  0  0  0  0  0  0
  159.3360  214.4030  151.3560 C   0  0  2  0  0  3  0  0  0  0  0  0
  157.9190  214.2230  150.8130 C   0  0  0  0  0  0  0  0  0  0  0  0
  156.3650  214.2370  148.9340 C   0  0  0  0  0  0  0  0  0  0  0  0
  160.4730  213.8100  150.5010 C   0  0  2  0  0  3  0  0  0  0  0  0
  161.5340  212.2970  148.2310 C   0  0  0  0  0  2  0  0  0  0  0  0
  157.6660  214.3130  149.4340 C   0  0  0  0  0  3  0  0  0  0  0  0
  159.4710  212.3240  152.8210 C   0  0  2  0  0  3  0  0  0  0  0  0
  161.7540  214.3460  147.0350 O   0  0  0  0  0  1  0  0  0  0  0  0
  156.9900  213.9830  153.1820 C   0  0  0  0  0  2  0  0  0  0  0  0
  156.1470  214.3120  147.5990 F   0  0  0  0  0  0  0  0  0  0  0  0
  160.5520  211.7520  151.9010 C   0  0  0  0  0  2  0  0  0  0  0  0
  159.4750  213.8660  152.7910 C   0  0  2  0  0  3  0  0  0  0  0  0
  160.5780  214.4310  149.1050 C   0  0  0  0  0  2  0  0  0  0  0  0
  155.2900  214.0930  149.8100 C   0  0  0  0  0  3  0  0  0  0  0  0
  160.4070  212.2750  150.4760 C   0  0  2  0  0  3  0  0  0  0  0  0
  161.5400  211.6960  149.6320 C   0  0  0  0  0  2  0  0  0  0  0  0
  158.3620  214.4530  153.6590 C   0  0  0  0  0  2  0  0  0  0  0  0
  156.8150  214.1120  151.6960 C   0  0  0  0  0  0  0  0  0  0  0  0
  155.5160  214.0290  151.1850 C   0  0  0  0  0  3  0  0  0  0  0  0
  157.5780  210.8690  154.3780 O   0  0  0  0  0  0  0  0  0  0  0  0
  158.6980  211.1180  154.9040 C   0  0  0  0  0  0  0  0  0  0  0  0
  159.6880  211.8510  154.1800 N   0  0  0  0  0  2  0  0  0  0  0  0
  161.8510  210.9440  156.7740 C   0  0  0  0  0  0  0  0  0  0  0  0
  159.5460  211.7920  157.1800 C   0  0  0  0  0  2  0  0  0  0  0  0
  159.4470  208.4030  155.5440 O   0  0  0  0  0  1  0  0  0  0  0  0
  163.1500  211.0640  157.0270 C   0  0  0  0  0  2  0  0  0  0  0  0
  160.9860  212.1680  156.8230 C   0  0  0  0  0  2  0  0  0  0  0  0
  159.9310  209.4290  156.3580 C   0  0  2  0  0  3  0  0  0  0  0  0
  159.0070  210.6580  156.2990 C   0  0  2  0  0  3  0  0  0  0  0  0
  161.3720  209.7670  155.9790 C   0  0  0  0  0  2  0  0  0  0  0  0
  1  9  1  6  0  0  0
  1 14  1  0  0  0  0
  2  3  1  6  0  0  0
  2 13  1  0  0  0  0
  3 19  1  0  0  0  0
  4  7  1  0  0  0  0
  4 15  2  0  0  0  0
  5 14  1  6  0  0  0
  5  2  1  0  0  0  0
  6  1  1  0  0  0  0
  6 17  1  0  0  0  0
  7  3  2  0  0  0  0
  8 23  1  1  0  0  0
 10 18  1  0  0  0  0
 11  4  1  0  0  0  0
 12  8  1  0  0  0  0
 13  8  1  0  0  0  0
 13 18  1  1  0  0  0
 15 20  1  0  0  0  0
 16 17  1  6  0  0  0
 16  5  1  0  0  0  0
 16 12  1  0  0  0  0
 19 10  1  0  0  0  0
 20 19  2  0  0  0  0
 21 22  2  0  0  0  0
 23 22  1  0  0  0  0
 24 28  1  0  0  0  0
 24 27  2  0  0  0  0
 28 25  1  0  0  0  0
 29 26  1  6  0  0  0
 30 22  1  6  0  0  0
 30 29  1  0  0  0  0
 30 25  1  0  0  0  0
 31 29  1  0  0  0  0
 31 24  1  0  0  0  0
M  END
>  <MODEL>
6

>  <REMARK>
 VINA RESULT:      -4.9      6.555      8.464
  Name = 
  2 active torsions:
  status: ('A' for Active; 'I' for Inactive)
    1  A    between atoms: C_5  and  C_30
    2  A    between atoms: C_10  and  N_16
                            x       y       z     vdW  Elec       q    Type
                         _______ _______ _______ _____ _____    ______ ____

>  <TORSDO>
F 2

$$$$
