=
 OpenBabel11122412523D

 32 37  0  0  1  0  0  0  0  0999 V2000
  158.6630  213.7710  147.6490 C   0  0  0  0  0  2  0  0  0  0  0  0
  161.4090  211.2110  151.9760 C   0  0  1  0  0  3  0  0  0  0  0  0
  161.2880  207.6380  148.6180 C   0  0  0  0  0  2  0  0  0  0  0  0
  161.5010  206.6460  149.5980 O   0  0  0  0  0  0  0  0  0  0  0  0
  160.8630  210.5100  154.3570 C   0  0  0  0  0  0  0  0  0  0  0  0
  160.5810  209.4880  155.2580 C   0  0  0  0  0  0  0  0  0  0  0  0
  160.2910  212.9230  150.5170 C   0  0  1  0  0  3  0  0  0  0  0  0
  162.2860  211.6980  149.6530 C   0  0  0  0  0  2  0  0  0  0  0  0
  160.2800  207.2950  156.0170 C   0  0  1  0  0  3  0  0  0  0  0  0
  161.0870  213.2760  148.1350 C   0  0  0  0  0  2  0  0  0  0  0  0
  161.9970  208.9350  149.0220 C   0  0  0  0  0  2  0  0  0  0  0  0
  162.1360  210.6220  150.7460 C   0  0  2  0  0  3  0  0  0  0  0  0
  161.4210  209.4230  150.2800 N   0  0  2  0  0  0  0  0  0  0  0  0
  161.1430  208.7760  152.6550 C   0  0  0  0  0  0  0  0  0  0  0  0
  160.0830  208.3080  157.1680 C   0  0  0  0  0  2  0  0  0  0  0  0
  157.9180  212.8350  149.0250 S   0  0  0  0  0  0  0  0  0  0  0  0
  160.9310  212.2860  149.2780 C   0  0  2  0  0  3  0  0  0  0  0  0
  160.2850  209.6030  156.5980 O   0  0  0  0  0  0  0  0  0  0  0  0
  158.9840  213.6730  150.2450 C   0  0  0  0  0  2  0  0  0  0  0  0
  159.9410  213.1050  147.1450 C   0  0  2  0  0  3  0  0  0  0  0  0
  160.8970  207.0900  150.7900 C   0  0  0  0  0  2  0  0  0  0  0  0
  161.6060  208.3580  151.2810 C   0  0  1  0  0  3  0  0  0  0  0  0
  160.8810  207.8220  153.5980 N   0  0  0  0  0  0  0  0  0  0  0  0
  160.0740  211.8530  151.5790 C   0  0  0  0  0  2  0  0  0  0  0  0
  160.8600  211.9310  154.8150 C   0  0  0  0  0  1  0  0  0  0  0  0
  158.9790  206.5540  155.7680 C   0  0  0  0  0  1  0  0  0  0  0  0
  161.1550  210.1520  153.0200 C   0  0  0  0  0  0  0  0  0  0  0  0
  160.5830  208.1870  154.8700 C   0  0  0  0  0  0  0  0  0  0  0  0
  160.3260  213.6920  145.8700 N   0  0  0  0  0  2  0  0  0  0  0  0
  160.1740  213.0030  144.6270 C   0  0  0  0  0  0  0  0  0  0  0  0
  159.7150  211.8310  144.5960 O   0  0  0  0  0  0  0  0  0  0  0  0
  160.5500  213.6460  143.4170 N   0  0  0  0  0  1  0  0  0  0  0  0
  1 16  1  0  0  0  0
  2 24  1  6  0  0  0
  2 27  1  0  0  0  0
  3 11  1  0  0  0  0
  3  4  1  0  0  0  0
  4 21  1  0  0  0  0
  5 25  1  0  0  0  0
  5  6  1  0  0  0  0
  6 18  1  0  0  0  0
  7 19  1  6  0  0  0
  7 24  1  0  0  0  0
  9 26  1  6  0  0  0
  9 15  1  0  0  0  0
 12  8  1  6  0  0  0
 12  2  1  0  0  0  0
 13 11  1  6  0  0  0
 13 12  1  0  0  0  0
 13 22  1  0  0  0  0
 14 27  1  0  0  0  0
 14 23  2  0  0  0  0
 16 19  1  0  0  0  0
 17 10  1  6  0  0  0
 17  8  1  0  0  0  0
 17  7  1  0  0  0  0
 18 15  1  0  0  0  0
 20 29  1  6  0  0  0
 20  1  1  0  0  0  0
 20 10  1  0  0  0  0
 22 21  1  6  0  0  0
 22 14  1  0  0  0  0
 23 28  1  0  0  0  0
 27  5  2  0  0  0  0
 28  6  2  0  0  0  0
 28  9  1  0  0  0  0
 30 29  1  0  0  0  0
 31 30  2  0  0  0  0
 32 30  1  0  0  0  0
M  END
>  <MODEL>
1

>  <REMARK>
 VINA RESULT:      -4.4      0.000      0.000
  Name = 
  1 active torsions:
  status: ('A' for Active; 'I' for Inactive)
    1  A    between atoms: C_20  and  N_29
                            x       y       z     vdW  Elec       q    Type
                         _______ _______ _______ _____ _____    ______ ____

>  <TORSDO>
F 1

$$$$
=
 OpenBabel11122412523D

 32 37  0  0  1  0  0  0  0  0999 V2000
  157.7110  213.3950  145.4970 C   0  0  0  0  0  2  0  0  0  0  0  0
  160.1160  213.3910  150.6960 C   0  0  1  0  0  3  0  0  0  0  0  0
  162.1870  209.4510  148.6360 C   0  0  0  0  0  2  0  0  0  0  0  0
  162.5270  208.9130  149.8950 O   0  0  0  0  0  0  0  0  0  0  0  0
  159.3320  213.1020  153.0960 C   0  0  0  0  0  0  0  0  0  0  0  0
  159.2610  212.3010  154.2330 C   0  0  0  0  0  0  0  0  0  0  0  0
  158.8060  214.0450  148.6550 C   0  0  1  0  0  3  0  0  0  0  0  0
  161.2620  213.6540  148.4550 C   0  0  0  0  0  2  0  0  0  0  0  0
  159.6580  210.4450  155.6000 C   0  0  1  0  0  3  0  0  0  0  0  0
  159.9460  214.1420  146.3910 C   0  0  0  0  0  2  0  0  0  0  0  0
  162.2220  210.9820  148.6930 C   0  0  0  0  0  2  0  0  0  0  0  0
  161.2840  212.9110  149.8060 C   0  0  2  0  0  3  0  0  0  0  0  0
  161.2210  211.4480  149.6590 N   0  0  2  0  0  0  0  0  0  0  0  0
  160.6570  211.3210  152.0680 C   0  0  0  0  0  0  0  0  0  0  0  0
  158.8170  211.5070  156.3450 C   0  0  0  0  0  2  0  0  0  0  0  0
  157.0810  212.5780  146.9990 S   0  0  0  0  0  0  0  0  0  0  0  0
  159.9180  213.4820  147.7600 C   0  0  2  0  0  3  0  0  0  0  0  0
  158.6330  212.5860  155.4250 O   0  0  0  0  0  0  0  0  0  0  0  0
  157.4160  214.0580  148.0110 C   0  0  0  0  0  2  0  0  0  0  0  0
  159.2280  213.2590  145.3790 C   0  0  2  0  0  3  0  0  0  0  0  0
  161.5330  209.3130  150.8100 C   0  0  0  0  0  2  0  0  0  0  0  0
  161.5580  210.8400  150.9580 C   0  0  1  0  0  3  0  0  0  0  0  0
  160.5670  210.5990  153.2250 N   0  0  0  0  0  0  0  0  0  0  0  0
  158.7720  213.2700  149.9650 C   0  0  0  0  0  2  0  0  0  0  0  0
  158.6720  214.4400  153.0820 C   0  0  0  0  0  1  0  0  0  0  0  0
  158.8440  209.1730  155.4460 C   0  0  0  0  0  1  0  0  0  0  0  0
  160.0490  212.6050  151.9820 C   0  0  0  0  0  0  0  0  0  0  0  0
  159.8570  211.0830  154.2750 C   0  0  0  0  0  0  0  0  0  0  0  0
  159.6480  213.6390  144.0380 N   0  0  0  0  0  2  0  0  0  0  0  0
  160.0520  212.6810  143.0570 C   0  0  0  0  0  0  0  0  0  0  0  0
  160.0810  211.4530  143.3340 O   0  0  0  0  0  0  0  0  0  0  0  0
  160.4290  213.1210  141.7590 N   0  0  0  0  0  1  0  0  0  0  0  0
  1 16  1  0  0  0  0
  2 24  1  6  0  0  0
  2 27  1  0  0  0  0
  3 11  1  0  0  0  0
  3  4  1  0  0  0  0
  4 21  1  0  0  0  0
  5  6  1  0  0  0  0
  6 28  2  0  0  0  0
  6 18  1  0  0  0  0
  7 19  1  6  0  0  0
  7 24  1  0  0  0  0
  9 26  1  6  0  0  0
  9 15  1  0  0  0  0
 12  8  1  6  0  0  0
 12  2  1  0  0  0  0
 13 11  1  6  0  0  0
 13 12  1  0  0  0  0
 13 22  1  0  0  0  0
 14 23  2  0  0  0  0
 16 19  1  0  0  0  0
 17 10  1  6  0  0  0
 17  8  1  0  0  0  0
 17  7  1  0  0  0  0
 18 15  1  0  0  0  0
 20 29  1  6  0  0  0
 20  1  1  0  0  0  0
 20 10  1  0  0  0  0
 22 21  1  6  0  0  0
 22 14  1  0  0  0  0
 23 28  1  0  0  0  0
 25  5  1  0  0  0  0
 27 14  1  0  0  0  0
 27  5  2  0  0  0  0
 28  9  1  0  0  0  0
 30 31  2  0  0  0  0
 30 29  1  0  0  0  0
 32 30  1  0  0  0  0
M  END
>  <MODEL>
2

>  <REMARK>
 VINA RESULT:      -3.9      1.738      2.618
  Name = 
  1 active torsions:
  status: ('A' for Active; 'I' for Inactive)
    1  A    between atoms: C_20  and  N_29
                            x       y       z     vdW  Elec       q    Type
                         _______ _______ _______ _____ _____    ______ ____

>  <TORSDO>
F 1

$$$$
=
 OpenBabel11122412523D

 32 37  0  0  1  0  0  0  0  0999 V2000
  160.4560  209.3120  153.4110 C   0  0  0  0  0  2  0  0  0  0  0  0
  161.3840  213.0310  149.1530 C   0  0  1  0  0  3  0  0  0  0  0  0
  156.4850  212.9840  149.3880 C   0  0  0  0  0  2  0  0  0  0  0  0
  156.3700  213.4920  148.0770 O   0  0  0  0  0  0  0  0  0  0  0  0
  162.3800  212.9570  146.8170 C   0  0  0  0  0  0  0  0  0  0  0  0
  162.1790  212.9740  145.4400 C   0  0  0  0  0  0  0  0  0  0  0  0
  161.7120  211.4550  151.0830 C   0  0  1  0  0  3  0  0  0  0  0  0
  160.2700  213.4700  151.3830 C   0  0  0  0  0  2  0  0  0  0  0  0
  160.9950  213.1370  143.4290 C   0  0  1  0  0  3  0  0  0  0  0  0
  160.4560  211.8280  153.2550 C   0  0  0  0  0  2  0  0  0  0  0  0
  157.7520  213.5310  150.0530 C   0  0  0  0  0  2  0  0  0  0  0  0
  160.1570  213.6540  149.8570 C   0  0  2  0  0  3  0  0  0  0  0  0
  158.9240  213.0760  149.2980 N   0  0  2  0  0  0  0  0  0  0  0  0
  159.9650  213.2550  147.0570 C   0  0  0  0  0  0  0  0  0  0  0  0
  162.5080  212.9530  143.1640 C   0  0  0  0  0  2  0  0  0  0  0  0
  160.6170  208.9340  151.6360 S   0  0  0  0  0  0  0  0  0  0  0  0
  160.4400  212.0000  151.7440 C   0  0  2  0  0  3  0  0  0  0  0  0
  163.1290  212.8630  144.4490 O   0  0  0  0  0  0  0  0  0  0  0  0
  162.0720  210.0210  151.4790 C   0  0  0  0  0  2  0  0  0  0  0  0
  159.6550  210.5920  153.6420 C   0  0  2  0  0  3  0  0  0  0  0  0
  157.4660  213.0060  147.3360 C   0  0  0  0  0  2  0  0  0  0  0  0
  158.7680  213.5710  147.9190 C   0  0  1  0  0  3  0  0  0  0  0  0
  159.8430  213.2870  145.6960 N   0  0  0  0  0  0  0  0  0  0  0  0
  161.5810  211.5670  149.5690 C   0  0  0  0  0  2  0  0  0  0  0  0
  163.7590  212.7970  147.3690 C   0  0  0  0  0  1  0  0  0  0  0  0
  160.2370  211.9470  142.8700 C   0  0  0  0  0  1  0  0  0  0  0  0
  161.2480  213.1030  147.6530 C   0  0  0  0  0  0  0  0  0  0  0  0
  160.9380  213.1240  144.9120 C   0  0  0  0  0  0  0  0  0  0  0  0
  159.2850  210.6890  155.0460 N   0  0  0  0  0  2  0  0  0  0  0  0
  158.1200  211.3880  155.4890 C   0  0  0  0  0  0  0  0  0  0  0  0
  157.3730  211.9770  154.6640 O   0  0  0  0  0  0  0  0  0  0  0  0
  157.8060  211.4240  156.8750 N   0  0  0  0  0  1  0  0  0  0  0  0
  1 20  1  0  0  0  0
  2 24  1  6  0  0  0
  2 12  1  0  0  0  0
  3 11  1  0  0  0  0
  4  3  1  0  0  0  0
  5 25  1  0  0  0  0
  5 27  1  0  0  0  0
  6  5  2  0  0  0  0
  7 24  1  6  0  0  0
  7 19  1  0  0  0  0
  7 17  1  0  0  0  0
  9 26  1  6  0  0  0
  9 28  1  0  0  0  0
 10 20  1  0  0  0  0
 12  8  1  1  0  0  0
 13 12  1  0  0  0  0
 13 11  1  1  0  0  0
 14 27  2  0  0  0  0
 14 22  1  0  0  0  0
 15  9  1  0  0  0  0
 15 18  1  0  0  0  0
 16  1  1  0  0  0  0
 17  8  1  1  0  0  0
 17 10  1  0  0  0  0
 18  6  1  0  0  0  0
 19 16  1  0  0  0  0
 20 29  1  1  0  0  0
 21  4  1  0  0  0  0
 22 21  1  6  0  0  0
 22 13  1  0  0  0  0
 23 14  1  0  0  0  0
 27  2  1  0  0  0  0
 28  6  1  0  0  0  0
 28 23  2  0  0  0  0
 29 30  1  0  0  0  0
 30 32  1  0  0  0  0
 31 30  2  0  0  0  0
M  END
>  <MODEL>
3

>  <REMARK>
 VINA RESULT:      -3.9      2.879      8.627
  Name = 
  1 active torsions:
  status: ('A' for Active; 'I' for Inactive)
    1  A    between atoms: C_20  and  N_29
                            x       y       z     vdW  Elec       q    Type
                         _______ _______ _______ _____ _____    ______ ____

>  <TORSDO>
F 1

$$$$
=
 OpenBabel11122412523D

 32 37  0  0  1  0  0  0  0  0999 V2000
  161.5760  208.6010  150.9620 C   0  0  0  0  0  2  0  0  0  0  0  0
  161.4490  213.1420  147.4720 C   0  0  1  0  0  3  0  0  0  0  0  0
  156.8060  212.9600  149.0430 C   0  0  0  0  0  2  0  0  0  0  0  0
  156.3570  213.7290  147.9480 O   0  0  0  0  0  0  0  0  0  0  0  0
  161.7610  213.5750  144.9880 C   0  0  0  0  0  0  0  0  0  0  0  0
  161.1890  213.8750  143.7550 C   0  0  0  0  0  0  0  0  0  0  0  0
  162.2300  211.2050  148.8680 C   0  0  1  0  0  3  0  0  0  0  0  0
  161.0120  213.0860  149.9640 C   0  0  0  0  0  2  0  0  0  0  0  0
  159.5050  214.4330  142.2290 C   0  0  1  0  0  3  0  0  0  0  0  0
  161.6370  211.0940  151.3320 C   0  0  0  0  0  2  0  0  0  0  0  0
  158.2290  213.3790  149.4280 C   0  0  0  0  0  2  0  0  0  0  0  0
  160.4910  213.5830  148.6010 C   0  0  2  0  0  3  0  0  0  0  0  0
  159.1280  213.1130  148.3000 N   0  0  2  0  0  0  0  0  0  0  0  0
  159.5190  213.7730  145.9440 C   0  0  0  0  0  0  0  0  0  0  0  0
  160.8770  214.3360  141.5230 C   0  0  0  0  0  2  0  0  0  0  0  0
  161.2260  208.6040  149.1730 S   0  0  0  0  0  0  0  0  0  0  0  0
  161.2130  211.5760  149.9540 C   0  0  2  0  0  3  0  0  0  0  0  0
  161.8240  213.9910  142.5370 O   0  0  0  0  0  0  0  0  0  0  0  0
  162.6260  209.7260  148.8450 C   0  0  0  0  0  2  0  0  0  0  0  0
  160.9230  209.7890  151.6630 C   0  0  2  0  0  3  0  0  0  0  0  0
  157.1850  213.4280  146.8490 C   0  0  0  0  0  2  0  0  0  0  0  0
  158.6200  213.8810  147.1510 C   0  0  1  0  0  3  0  0  0  0  0  0
  159.0290  214.0870  144.7070 N   0  0  0  0  0  0  0  0  0  0  0  0
  161.6930  211.6270  147.5070 C   0  0  0  0  0  2  0  0  0  0  0  0
  163.2290  213.3280  145.0900 C   0  0  0  0  0  1  0  0  0  0  0  0
  158.5740  213.3730  141.6710 C   0  0  0  0  0  1  0  0  0  0  0  0
  160.9090  213.5230  146.1160 C   0  0  0  0  0  0  0  0  0  0  0  0
  159.8570  214.1100  143.6340 C   0  0  0  0  0  0  0  0  0  0  0  0
  160.9580  209.5850  153.1040 N   0  0  0  0  0  2  0  0  0  0  0  0
  160.0520  210.2360  153.9970 C   0  0  0  0  0  0  0  0  0  0  0  0
  159.1910  211.0440  153.5600 O   0  0  0  0  0  0  0  0  0  0  0  0
  160.1280  209.9720  155.3910 N   0  0  0  0  0  1  0  0  0  0  0  0
  1 20  1  0  0  0  0
  2 24  1  6  0  0  0
  2 12  1  0  0  0  0
  3 11  1  0  0  0  0
  4  3  1  0  0  0  0
  5 25  1  0  0  0  0
  5 27  1  0  0  0  0
  6  5  2  0  0  0  0
  7 24  1  6  0  0  0
  7 17  1  0  0  0  0
  9 26  1  6  0  0  0
  9 28  1  0  0  0  0
 10 20  1  0  0  0  0
 12  8  1  1  0  0  0
 13 12  1  0  0  0  0
 13 11  1  1  0  0  0
 14 27  2  0  0  0  0
 14 22  1  0  0  0  0
 15  9  1  0  0  0  0
 15 18  1  0  0  0  0
 16  1  1  0  0  0  0
 17  8  1  1  0  0  0
 17 10  1  0  0  0  0
 18  6  1  0  0  0  0
 19  7  1  0  0  0  0
 19 16  1  0  0  0  0
 20 29  1  1  0  0  0
 21  4  1  0  0  0  0
 22 21  1  6  0  0  0
 22 13  1  0  0  0  0
 23 14  1  0  0  0  0
 27  2  1  0  0  0  0
 28  6  1  0  0  0  0
 28 23  2  0  0  0  0
 29 30  1  0  0  0  0
 30 32  1  0  0  0  0
 31 30  2  0  0  0  0
M  END
>  <MODEL>
4

>  <REMARK>
 VINA RESULT:      -3.0      2.495      9.180
  Name = 
  1 active torsions:
  status: ('A' for Active; 'I' for Inactive)
    1  A    between atoms: C_20  and  N_29
                            x       y       z     vdW  Elec       q    Type
                         _______ _______ _______ _____ _____    ______ ____

>  <TORSDO>
F 1

$$$$
=
 OpenBabel11122412523D

 32 37  0  0  1  0  0  0  0  0999 V2000
  160.9150  206.3710  152.5490 C   0  0  0  0  0  2  0  0  0  0  0  0
  162.2070  211.4170  150.1660 C   0  0  1  0  0  3  0  0  0  0  0  0
  157.7700  212.3120  152.0530 C   0  0  0  0  0  2  0  0  0  0  0  0
  157.5770  213.4170  151.1980 O   0  0  0  0  0  0  0  0  0  0  0  0
  162.6120  212.3050  147.8200 C   0  0  0  0  0  0  0  0  0  0  0  0
  162.1520  213.0490  146.7370 C   0  0  0  0  0  0  0  0  0  0  0  0
  162.3440  209.0620  151.0300 C   0  0  1  0  0  3  0  0  0  0  0  0
  161.8040  210.9130  152.6140 C   0  0  0  0  0  2  0  0  0  0  0  0
  160.7180  214.4420  145.5230 C   0  0  1  0  0  3  0  0  0  0  0  0
  161.7750  208.5620  153.4510 C   0  0  0  0  0  2  0  0  0  0  0  0
  159.2560  212.1680  152.3970 C   0  0  0  0  0  2  0  0  0  0  0  0
  161.4540  211.8530  151.4430 C   0  0  2  0  0  3  0  0  0  0  0  0
  160.0090  211.9110  151.1650 N   0  0  2  0  0  0  0  0  0  0  0  0
  160.5630  212.9540  148.9870 C   0  0  0  0  0  0  0  0  0  0  0  0
  161.9780  214.0960  144.6970 C   0  0  0  0  0  2  0  0  0  0  0  0
  160.5630  206.9030  150.8420 S   0  0  0  0  0  0  0  0  0  0  0  0
  161.5120  209.4620  152.2550 C   0  0  2  0  0  3  0  0  0  0  0  0
  162.7760  213.2460  145.5250 O   0  0  0  0  0  0  0  0  0  0  0  0
  162.2450  207.5820  150.6490 C   0  0  0  0  0  2  0  0  0  0  0  0
  160.6850  207.5020  153.5490 C   0  0  2  0  0  3  0  0  0  0  0  0
  158.2520  213.1430  149.9920 C   0  0  0  0  0  2  0  0  0  0  0  0
  159.7600  213.0470  150.2610 C   0  0  1  0  0  3  0  0  0  0  0  0
  160.1850  213.6860  147.8960 N   0  0  0  0  0  0  0  0  0  0  0  0
  161.9540  209.9380  149.8470 C   0  0  0  0  0  2  0  0  0  0  0  0
  163.9250  211.6000  147.7390 C   0  0  0  0  0  1  0  0  0  0  0  0
  159.4900  213.8840  144.8280 C   0  0  0  0  0  1  0  0  0  0  0  0
  161.8020  212.2540  148.9790 C   0  0  0  0  0  0  0  0  0  0  0  0
  160.9650  213.7050  146.7870 C   0  0  0  0  0  0  0  0  0  0  0  0
  160.6690  206.9630  154.9000 N   0  0  0  0  0  2  0  0  0  0  0  0
  159.9520  207.5840  155.9690 C   0  0  0  0  0  0  0  0  0  0  0  0
  159.3160  208.6540  155.7780 O   0  0  0  0  0  0  0  0  0  0  0  0
  159.9620  206.9910  157.2600 N   0  0  0  0  0  1  0  0  0  0  0  0
  1 20  1  0  0  0  0
  2 24  1  6  0  0  0
  2 12  1  0  0  0  0
  3 11  1  0  0  0  0
  4  3  1  0  0  0  0
  5 27  1  0  0  0  0
  6 28  1  0  0  0  0
  6  5  2  0  0  0  0
  7 24  1  6  0  0  0
  7 17  1  0  0  0  0
  9 26  1  6  0  0  0
  9 28  1  0  0  0  0
 10 20  1  0  0  0  0
 12  8  1  1  0  0  0
 13 12  1  0  0  0  0
 13 11  1  1  0  0  0
 14 22  1  0  0  0  0
 15  9  1  0  0  0  0
 15 18  1  0  0  0  0
 16  1  1  0  0  0  0
 17  8  1  1  0  0  0
 17 10  1  0  0  0  0
 18  6  1  0  0  0  0
 19 16  1  0  0  0  0
 19  7  1  0  0  0  0
 20 29  1  1  0  0  0
 21  4  1  0  0  0  0
 22 21  1  6  0  0  0
 22 13  1  0  0  0  0
 23 14  1  0  0  0  0
 25  5  1  0  0  0  0
 27 14  2  0  0  0  0
 27  2  1  0  0  0  0
 28 23  2  0  0  0  0
 29 30  1  0  0  0  0
 30 32  1  0  0  0  0
 31 30  2  0  0  0  0
M  END
>  <MODEL>
5

>  <REMARK>
 VINA RESULT:      -2.7      2.448      8.517
  Name = 
  1 active torsions:
  status: ('A' for Active; 'I' for Inactive)
    1  A    between atoms: C_20  and  N_29
                            x       y       z     vdW  Elec       q    Type
                         _______ _______ _______ _____ _____    ______ ____

>  <TORSDO>
F 1

$$$$
=
 OpenBabel11122412523D

 32 37  0  0  1  0  0  0  0  0999 V2000
  158.5570  213.3230  145.8850 C   0  0  0  0  0  2  0  0  0  0  0  0
  158.6820  213.5700  151.6060 C   0  0  1  0  0  3  0  0  0  0  0  0
  161.7840  209.8810  150.6990 C   0  0  0  0  0  2  0  0  0  0  0  0
  161.6470  209.3810  152.0110 O   0  0  0  0  0  0  0  0  0  0  0  0
  157.0410  213.1930  153.5100 C   0  0  0  0  0  0  0  0  0  0  0  0
  156.6040  212.3880  154.5570 C   0  0  0  0  0  0  0  0  0  0  0  0
  158.2340  214.0820  149.1880 C   0  0  1  0  0  3  0  0  0  0  0  0
  160.5930  213.9600  149.9940 C   0  0  0  0  0  2  0  0  0  0  0  0
  156.6080  210.5830  156.0460 C   0  0  1  0  0  3  0  0  0  0  0  0
  160.1660  214.3060  147.5590 C   0  0  0  0  0  2  0  0  0  0  0  0
  161.6400  211.4070  150.7020 C   0  0  0  0  0  2  0  0  0  0  0  0
  160.1490  213.2210  151.2720 C   0  0  2  0  0  3  0  0  0  0  0  0
  160.2960  211.7600  151.1730 N   0  0  2  0  0  0  0  0  0  0  0  0
  158.8360  211.5690  153.1650 C   0  0  0  0  0  0  0  0  0  0  0  0
  155.4380  211.5470  156.3530 C   0  0  0  0  0  2  0  0  0  0  0  0
  157.4660  212.4410  147.0470 S   0  0  0  0  0  0  0  0  0  0  0  0
  159.6600  213.6450  148.8310 C   0  0  2  0  0  3  0  0  0  0  0  0
  155.5280  212.6010  155.3920 O   0  0  0  0  0  0  0  0  0  0  0  0
  157.2220  213.9460  148.0470 C   0  0  0  0  0  2  0  0  0  0  0  0
  160.0010  213.3520  146.3820 C   0  0  2  0  0  3  0  0  0  0  0  0
  160.3360  209.6690  152.4400 C   0  0  0  0  0  2  0  0  0  0  0  0
  160.1480  211.1890  152.5230 C   0  0  1  0  0  3  0  0  0  0  0  0
  158.3660  210.8390  154.2210 N   0  0  0  0  0  0  0  0  0  0  0  0
  157.7590  213.3060  150.4090 C   0  0  0  0  0  2  0  0  0  0  0  0
  156.3110  214.4530  153.1800 C   0  0  0  0  0  1  0  0  0  0  0  0
  156.0530  209.2310  155.6360 C   0  0  0  0  0  1  0  0  0  0  0  0
  158.1880  212.7800  152.7920 C   0  0  0  0  0  0  0  0  0  0  0  0
  157.2520  211.2410  154.8830 C   0  0  0  0  0  0  0  0  0  0  0  0
  160.8800  213.7780  145.3030 N   0  0  0  0  0  2  0  0  0  0  0  0
  162.2930  213.5640  145.3300 C   0  0  0  0  0  0  0  0  0  0  0  0
  162.8380  213.0110  146.3200 O   0  0  0  0  0  0  0  0  0  0  0  0
  163.0890  213.9850  144.2310 N   0  0  0  0  0  1  0  0  0  0  0  0
  1 20  1  0  0  0  0
  1 16  1  0  0  0  0
  2 24  1  6  0  0  0
  2 27  1  0  0  0  0
  3 11  1  0  0  0  0
  3  4  1  0  0  0  0
  4 21  1  0  0  0  0
  5  6  1  0  0  0  0
  6 28  2  0  0  0  0
  6 18  1  0  0  0  0
  7 19  1  6  0  0  0
  7 24  1  0  0  0  0
  9 26  1  6  0  0  0
  9 15  1  0  0  0  0
 12  8  1  6  0  0  0
 12  2  1  0  0  0  0
 13 11  1  1  0  0  0
 13 12  1  0  0  0  0
 13 22  1  0  0  0  0
 14 23  2  0  0  0  0
 16 19  1  0  0  0  0
 17 10  1  6  0  0  0
 17  7  1  0  0  0  0
 17  8  1  0  0  0  0
 18 15  1  0  0  0  0
 20 29  1  6  0  0  0
 20 10  1  0  0  0  0
 22 21  1  6  0  0  0
 22 14  1  0  0  0  0
 23 28  1  0  0  0  0
 25  5  1  0  0  0  0
 27 14  1  0  0  0  0
 27  5  2  0  0  0  0
 28  9  1  0  0  0  0
 29 30  1  0  0  0  0
 30 31  2  0  0  0  0
 32 30  1  0  0  0  0
M  END
>  <MODEL>
6

>  <REMARK>
 VINA RESULT:      -2.5      2.858      3.566
  Name = 
  1 active torsions:
  status: ('A' for Active; 'I' for Inactive)
    1  A    between atoms: C_20  and  N_29
                            x       y       z     vdW  Elec       q    Type
                         _______ _______ _______ _____ _____    ______ ____

>  <TORSDO>
F 1

$$$$
=
 OpenBabel11122412523D

 32 37  0  0  1  0  0  0  0  0999 V2000
  159.0980  210.5310  155.4110 C   0  0  0  0  0  2  0  0  0  0  0  0
  162.1440  207.8770  151.3510 C   0  0  1  0  0  3  0  0  0  0  0  0
  161.4640  212.3040  149.3540 C   0  0  0  0  0  2  0  0  0  0  0  0
  161.7260  211.8120  148.0580 O   0  0  0  0  0  0  0  0  0  0  0  0
  161.8190  205.8980  149.7910 C   0  0  0  0  0  0  0  0  0  0  0  0
  161.5780  205.4290  148.5030 C   0  0  0  0  0  0  0  0  0  0  0  0
  160.9740  208.4240  153.5050 C   0  0  1  0  0  3  0  0  0  0  0  0
  162.7930  209.9250  152.6890 C   0  0  0  0  0  2  0  0  0  0  0  0
  161.2380  205.5360  146.1900 C   0  0  1  0  0  3  0  0  0  0  0  0
  161.5280  210.5680  154.7430 C   0  0  0  0  0  2  0  0  0  0  0  0
  162.2840  211.5240  150.3860 C   0  0  0  0  0  2  0  0  0  0  0  0
  162.7020  209.3160  151.2760 C   0  0  2  0  0  3  0  0  0  0  0  0
  161.8750  210.1160  150.3570 N   0  0  2  0  0  0  0  0  0  0  0  0
  161.8180  208.1530  148.8460 C   0  0  0  0  0  0  0  0  0  0  0  0
  161.2230  204.0700  146.6820 C   0  0  0  0  0  2  0  0  0  0  0  0
  158.4540  209.5390  154.0250 S   0  0  0  0  0  0  0  0  0  0  0  0
  161.4410  209.8810  153.3900 C   0  0  2  0  0  3  0  0  0  0  0  0
  161.4350  204.1210  148.0950 O   0  0  0  0  0  0  0  0  0  0  0  0
  159.6890  208.2290  154.3150 C   0  0  0  0  0  2  0  0  0  0  0  0
  160.2750  211.4020  154.9780 C   0  0  2  0  0  3  0  0  0  0  0  0
  161.2780  210.4770  148.0130 C   0  0  0  0  0  2  0  0  0  0  0  0
  162.1060  209.6270  148.9860 C   0  0  1  0  0  3  0  0  0  0  0  0
  161.6050  207.6220  147.6040 N   0  0  0  0  0  0  0  0  0  0  0  0
  160.8120  207.8340  152.1110 C   0  0  0  0  0  2  0  0  0  0  0  0
  161.9450  204.9350  150.9250 C   0  0  0  0  0  1  0  0  0  0  0  0
  159.8790  205.8890  145.6160 C   0  0  0  0  0  1  0  0  0  0  0  0
  161.9450  207.2950  149.9740 C   0  0  0  0  0  0  0  0  0  0  0  0
  161.4660  206.2820  147.4530 C   0  0  0  0  0  0  0  0  0  0  0  0
  160.5540  212.3920  156.0080 N   0  0  0  0  0  2  0  0  0  0  0  0
  159.7250  213.5370  156.2210 C   0  0  0  0  0  0  0  0  0  0  0  0
  158.7190  213.7440  155.4930 O   0  0  0  0  0  0  0  0  0  0  0  0
  160.0430  214.4520  157.2610 N   0  0  0  0  0  1  0  0  0  0  0  0
  2 24  1  6  0  0  0
  3 11  1  0  0  0  0
  4  3  1  0  0  0  0
  5 27  1  0  0  0  0
  5 25  1  0  0  0  0
  6  5  2  0  0  0  0
  7 24  1  6  0  0  0
  7 19  1  0  0  0  0
  9 26  1  1  0  0  0
  9 15  1  0  0  0  0
  9 28  1  0  0  0  0
 10 20  1  0  0  0  0
 12  2  1  0  0  0  0
 12  8  1  1  0  0  0
 13 11  1  6  0  0  0
 13 12  1  0  0  0  0
 14 22  1  0  0  0  0
 14 27  2  0  0  0  0
 15 18  1  0  0  0  0
 16 19  1  0  0  0  0
 16  1  1  0  0  0  0
 17  8  1  1  0  0  0
 17  7  1  0  0  0  0
 17 10  1  0  0  0  0
 18  6  1  0  0  0  0
 20  1  1  0  0  0  0
 20 29  1  1  0  0  0
 21  4  1  0  0  0  0
 22 21  1  6  0  0  0
 22 13  1  0  0  0  0
 23 14  1  0  0  0  0
 27  2  1  0  0  0  0
 28 23  2  0  0  0  0
 28  6  1  0  0  0  0
 29 30  1  0  0  0  0
 30 32  1  0  0  0  0
 31 30  2  0  0  0  0
M  END
>  <MODEL>
7

>  <REMARK>
 VINA RESULT:      -2.4      2.971      7.389
  Name = 
  1 active torsions:
  status: ('A' for Active; 'I' for Inactive)
    1  A    between atoms: C_20  and  N_29
                            x       y       z     vdW  Elec       q    Type
                         _______ _______ _______ _____ _____    ______ ____

>  <TORSDO>
F 1

$$$$
