=
 OpenBabel11122413193D

 31 35  0  0  1  0  0  0  0  0999 V2000
  161.2330  205.5080  145.8480 C   0  0  0  0  0  0  0  0  0  0  0  0
  161.0860  204.6630  149.5180 C   0  0  0  0  0  0  0  0  0  0  0  0
  161.1040  203.2330  149.6150 C   0  0  0  0  0  0  0  0  0  0  0  0
  161.1820  201.0030  148.6130 C   0  0  0  0  0  0  0  0  0  0  0  0
  161.1280  205.3890  148.2870 C   0  0  0  0  0  0  0  0  0  0  0  0
  161.2070  206.9010  145.9020 C   0  0  0  0  0  3  0  0  0  0  0  0
  161.1660  202.3930  148.4880 C   0  0  0  0  0  3  0  0  0  0  0  0
  161.0030  206.8180  150.6920 C   0  0  0  0  0  0  0  0  0  0  0  0
  161.2960  204.8610  144.6220 O   0  0  0  0  0  1  0  0  0  0  0  0
  160.9950  203.3810  152.0500 C   0  0  0  0  0  3  0  0  0  0  0  0
  161.2470  200.1500  147.3990 C   0  0  0  0  0  1  0  0  0  0  0  0
  161.0420  207.4650  149.5010 N   0  0  0  0  0  0  0  0  0  0  0  0
  161.0220  205.4150  150.7290 C   0  0  0  0  0  0  0  0  0  0  0  0
  160.9350  207.5730  151.9090 N   0  0  0  0  0  2  0  0  0  0  0  0
  161.1930  204.7650  147.0290 C   0  0  0  0  0  3  0  0  0  0  0  0
  161.1350  200.4160  149.8760 C   0  0  0  0  0  3  0  0  0  0  0  0
  161.1040  206.8060  148.3200 C   0  0  0  0  0  0  0  0  0  0  0  0
  161.1430  207.5480  147.1350 C   0  0  0  0  0  3  0  0  0  0  0  0
  160.9770  204.7650  151.9670 C   0  0  0  0  0  3  0  0  0  0  0  0
  161.0570  202.6130  150.8940 C   0  0  0  0  0  0  0  0  0  0  0  0
  161.0730  201.2200  151.0140 C   0  0  0  0  0  3  0  0  0  0  0  0
  162.3480  209.5550  151.6790 C   0  0  0  0  0  1  0  0  0  0  0  0
  160.9450  209.0300  151.9400 C   0  0  2  0  0  3  0  0  0  0  0  0
  159.4720  210.4620  155.7200 C   0  0  0  0  0  0  0  0  0  0  0  0
  160.7140  208.8250  154.4420 C   0  0  0  0  0  3  0  0  0  0  0  0
  159.3810  211.3930  152.1860 F   0  0  0  0  0  0  0  0  0  0  0  0
  159.0070  210.9160  156.9080 F   0  0  0  0  0  0  0  0  0  0  0  0
  160.2340  209.2930  155.6690 C   0  0  0  0  0  3  0  0  0  0  0  0
  159.6670  210.6990  153.3160 C   0  0  0  0  0  0  0  0  0  0  0  0
  160.4330  209.5240  153.2590 C   0  0  0  0  0  0  0  0  0  0  0  0
  159.1890  211.1640  154.5450 C   0  0  0  0  0  3  0  0  0  0  0  0
  1  6  2  0  0  0  0
  1 15  1  0  0  0  0
  2  3  2  0  0  0  0
  2 13  1  0  0  0  0
  3 20  1  0  0  0  0
  4 16  1  0  0  0  0
  5 17  1  0  0  0  0
  5  2  1  0  0  0  0
  6 18  1  0  0  0  0
  7  4  2  0  0  0  0
  7  3  1  0  0  0  0
  8 13  1  0  0  0  0
  8 14  1  0  0  0  0
  9  1  1  0  0  0  0
 11  4  1  0  0  0  0
 12  8  2  0  0  0  0
 13 19  2  0  0  0  0
 14 23  1  0  0  0  0
 15  5  2  0  0  0  0
 16 21  2  0  0  0  0
 17 12  1  0  0  0  0
 18 17  2  0  0  0  0
 19 10  1  0  0  0  0
 20 21  1  0  0  0  0
 20 10  2  0  0  0  0
 23 22  1  1  0  0  0
 23 30  1  0  0  0  0
 24 27  1  0  0  0  0
 25 28  2  0  0  0  0
 26 29  1  0  0  0  0
 28 24  1  0  0  0  0
 29 31  1  0  0  0  0
 30 29  2  0  0  0  0
 30 25  1  0  0  0  0
 31 24  2  0  0  0  0
M  END
>  <MODEL>
1

>  <REMARK>
 VINA RESULT:     -10.2      0.000      0.000
  Name = 
  2 active torsions:
  status: ('A' for Active; 'I' for Inactive)
    1  A    between atoms: C_5  and  N_16
    2  A    between atoms: C_5  and  C_30
                            x       y       z     vdW  Elec       q    Type
                         _______ _______ _______ _____ _____    ______ ____

>  <TORSDO>
F 2

$$$$
=
 OpenBabel11122413193D

 31 35  0  0  1  0  0  0  0  0999 V2000
  161.8530  207.3190  147.6000 C   0  0  0  0  0  0  0  0  0  0  0  0
  161.2930  205.9630  151.0720 C   0  0  0  0  0  0  0  0  0  0  0  0
  161.1400  204.5430  150.9420 C   0  0  0  0  0  0  0  0  0  0  0  0
  161.0510  202.4950  149.6080 C   0  0  0  0  0  0  0  0  0  0  0  0
  161.5240  206.8530  149.9770 C   0  0  0  0  0  0  0  0  0  0  0  0
  161.9810  208.6800  147.8710 C   0  0  0  0  0  3  0  0  0  0  0  0
  161.2040  203.8790  149.7030 C   0  0  0  0  0  3  0  0  0  0  0  0
  161.3530  207.9130  152.5630 C   0  0  0  0  0  0  0  0  0  0  0  0
  161.9480  206.8580  146.2940 O   0  0  0  0  0  1  0  0  0  0  0  0
  160.8370  204.3400  153.3560 C   0  0  0  0  0  3  0  0  0  0  0  0
  161.1240  201.8300  148.2820 C   0  0  0  0  0  1  0  0  0  0  0  0
  161.5690  208.7190  151.4940 N   0  0  0  0  0  0  0  0  0  0  0  0
  161.2100  206.5280  152.3780 C   0  0  0  0  0  0  0  0  0  0  0  0
  161.2670  208.4810  153.8760 N   0  0  0  0  0  2  0  0  0  0  0  0
  161.6260  206.4190  148.6430 C   0  0  0  0  0  3  0  0  0  0  0  0
  160.8290  201.7380  150.7570 C   0  0  0  0  0  3  0  0  0  0  0  0
  161.6590  208.2410  150.2310 C   0  0  0  0  0  0  0  0  0  0  0  0
  161.8840  209.1390  149.1840 C   0  0  0  0  0  3  0  0  0  0  0  0
  160.9840  205.7130  153.4930 C   0  0  0  0  0  3  0  0  0  0  0  0
  160.9120  203.7510  152.1010 C   0  0  0  0  0  0  0  0  0  0  0  0
  160.7600  202.3650  152.0010 C   0  0  0  0  0  3  0  0  0  0  0  0
  162.1750  210.1140  155.4510 C   0  0  0  0  0  1  0  0  0  0  0  0
  161.4390  209.9040  154.1380 C   0  0  2  0  0  3  0  0  0  0  0  0
  157.6230  211.8890  154.1970 C   0  0  0  0  0  0  0  0  0  0  0  0
  159.2430  210.4360  155.2550 C   0  0  0  0  0  3  0  0  0  0  0  0
  160.5400  211.5720  152.0170 F   0  0  0  0  0  0  0  0  0  0  0  0
  156.4220  212.5170  154.2120 F   0  0  0  0  0  0  0  0  0  0  0  0
  158.0040  211.0830  155.2710 C   0  0  0  0  0  3  0  0  0  0  0  0
  159.7210  211.4060  153.0850 C   0  0  0  0  0  0  0  0  0  0  0  0
  160.1080  210.5920  154.1620 C   0  0  0  0  0  0  0  0  0  0  0  0
  158.4810  212.0510  153.1060 C   0  0  0  0  0  3  0  0  0  0  0  0
  1  6  2  0  0  0  0
  1 15  1  0  0  0  0
  2 13  1  0  0  0  0
  3  2  2  0  0  0  0
  3 20  1  0  0  0  0
  4  7  2  0  0  0  0
  4 16  1  0  0  0  0
  5 17  1  0  0  0  0
  5  2  1  0  0  0  0
  6 18  1  0  0  0  0
  7  3  1  0  0  0  0
  8 14  1  0  0  0  0
  9  1  1  0  0  0  0
 10 19  1  0  0  0  0
 11  4  1  0  0  0  0
 12  8  2  0  0  0  0
 13  8  1  0  0  0  0
 13 19  2  0  0  0  0
 14 23  1  0  0  0  0
 15  5  2  0  0  0  0
 16 21  2  0  0  0  0
 17 12  1  0  0  0  0
 18 17  2  0  0  0  0
 20 10  2  0  0  0  0
 21 20  1  0  0  0  0
 23 30  1  0  0  0  0
 23 22  1  1  0  0  0
 24 27  1  0  0  0  0
 24 28  1  0  0  0  0
 25 28  2  0  0  0  0
 26 29  1  0  0  0  0
 29 31  1  0  0  0  0
 29 30  2  0  0  0  0
 30 25  1  0  0  0  0
 31 24  2  0  0  0  0
M  END
>  <MODEL>
2

>  <REMARK>
 VINA RESULT:      -9.9      1.582      2.290
  Name = 
  2 active torsions:
  status: ('A' for Active; 'I' for Inactive)
    1  A    between atoms: C_5  and  N_16
    2  A    between atoms: C_5  and  C_30
                            x       y       z     vdW  Elec       q    Type
                         _______ _______ _______ _____ _____    ______ ____

>  <TORSDO>
F 2

$$$$
=
 OpenBabel11122413193D

 31 35  0  0  1  0  0  0  0  0999 V2000
  161.1730  208.0780  154.1180 C   0  0  0  0  0  0  0  0  0  0  0  0
  161.4410  207.5290  150.3980 C   0  0  0  0  0  0  0  0  0  0  0  0
  161.2900  206.1210  150.1750 C   0  0  0  0  0  0  0  0  0  0  0  0
  160.9380  203.8360  150.9730 C   0  0  0  0  0  0  0  0  0  0  0  0
  161.4020  208.1510  151.6850 C   0  0  0  0  0  0  0  0  0  0  0  0
  161.3370  209.4610  154.1880 C   0  0  0  0  0  3  0  0  0  0  0  0
  161.0830  205.2010  151.2210 C   0  0  0  0  0  3  0  0  0  0  0  0
  161.8000  209.7540  149.4240 C   0  0  0  0  0  0  0  0  0  0  0  0
  160.9790  207.3410  155.2780 O   0  0  0  0  0  1  0  0  0  0  0  0
  161.5480  206.4580  147.7710 C   0  0  0  0  0  3  0  0  0  0  0  0
  160.7220  202.8960  152.1030 C   0  0  0  0  0  1  0  0  0  0  0  0
  161.7580  210.3000  150.6640 N   0  0  0  0  0  0  0  0  0  0  0  0
  161.6460  208.3670  149.2630 C   0  0  0  0  0  0  0  0  0  0  0  0
  162.0090  210.5950  148.2830 N   0  0  0  0  0  2  0  0  0  0  0  0
  161.2060  207.4340  152.8790 C   0  0  0  0  0  3  0  0  0  0  0  0
  160.9980  203.3530  149.6670 C   0  0  0  0  0  3  0  0  0  0  0  0
  161.5660  209.5560  151.7780 C   0  0  0  0  0  0  0  0  0  0  0  0
  161.5330  210.1970  153.0200 C   0  0  0  0  0  3  0  0  0  0  0  0
  161.6960  207.8210  147.9760 C   0  0  0  0  0  3  0  0  0  0  0  0
  161.3470  205.6070  148.8510 C   0  0  0  0  0  0  0  0  0  0  0  0
  161.2010  204.2380  148.6080 C   0  0  0  0  0  3  0  0  0  0  0  0
  161.1700  212.5980  149.4060 C   0  0  0  0  0  1  0  0  0  0  0  0
  162.1430  212.0430  148.3790 C   0  0  2  0  0  3  0  0  0  0  0  0
  161.4760  213.8540  144.5340 C   0  0  0  0  0  0  0  0  0  0  0  0
  162.9750  213.2760  146.3430 C   0  0  0  0  0  3  0  0  0  0  0  0
  159.5900  212.0970  147.1260 F   0  0  0  0  0  0  0  0  0  0  0  0
  161.2620  214.4230  143.3240 F   0  0  0  0  0  0  0  0  0  0  0  0
  162.7550  213.8630  145.0940 C   0  0  0  0  0  3  0  0  0  0  0  0
  160.6310  212.6700  146.4720 C   0  0  0  0  0  0  0  0  0  0  0  0
  161.9150  212.6760  147.0400 C   0  0  0  0  0  0  0  0  0  0  0  0
  160.4160  213.2580  145.2220 C   0  0  0  0  0  3  0  0  0  0  0  0
  1  6  1  0  0  0  0
  1  9  1  0  0  0  0
  2  5  1  0  0  0  0
  3  2  1  0  0  0  0
  3  7  1  0  0  0  0
  4  7  2  0  0  0  0
  4 11  1  0  0  0  0
  5 17  2  0  0  0  0
  5 15  1  0  0  0  0
  8 12  2  0  0  0  0
 10 19  2  0  0  0  0
 10 20  1  0  0  0  0
 12 17  1  0  0  0  0
 13  8  1  0  0  0  0
 13  2  2  0  0  0  0
 14 23  1  0  0  0  0
 14  8  1  0  0  0  0
 15  1  2  0  0  0  0
 16  4  1  0  0  0  0
 17 18  1  0  0  0  0
 18  6  2  0  0  0  0
 19 13  1  0  0  0  0
 20  3  2  0  0  0  0
 21 20  1  0  0  0  0
 21 16  2  0  0  0  0
 23 22  1  1  0  0  0
 24 28  2  0  0  0  0
 24 31  1  0  0  0  0
 25 30  2  0  0  0  0
 27 24  1  0  0  0  0
 28 25  1  0  0  0  0
 29 30  1  0  0  0  0
 29 26  1  0  0  0  0
 30 23  1  0  0  0  0
 31 29  2  0  0  0  0
M  END
>  <MODEL>
3

>  <REMARK>
 VINA RESULT:      -9.9      4.163      6.834
  Name = 
  2 active torsions:
  status: ('A' for Active; 'I' for Inactive)
    1  A    between atoms: C_5  and  N_16
    2  A    between atoms: C_5  and  C_30
                            x       y       z     vdW  Elec       q    Type
                         _______ _______ _______ _____ _____    ______ ____

>  <TORSDO>
F 2

$$$$
=
 OpenBabel11122413193D

 31 35  0  0  1  0  0  0  0  0999 V2000
  161.9580  209.7760  149.3090 C   0  0  0  0  0  0  0  0  0  0  0  0
  161.3270  206.5640  151.1780 C   0  0  0  0  0  0  0  0  0  0  0  0
  161.2460  205.5220  150.1960 C   0  0  0  0  0  0  0  0  0  0  0  0
  161.3050  204.7280  147.8840 C   0  0  0  0  0  0  0  0  0  0  0  0
  161.5590  207.9420  150.8750 C   0  0  0  0  0  0  0  0  0  0  0  0
  162.0120  210.6840  150.3660 C   0  0  0  0  0  3  0  0  0  0  0  0
  161.3890  205.7620  148.8170 C   0  0  0  0  0  3  0  0  0  0  0  0
  161.2380  207.1840  153.5520 C   0  0  0  0  0  0  0  0  0  0  0  0
  162.1260  210.2170  148.0040 O   0  0  0  0  0  1  0  0  0  0  0  0
  160.8590  203.8740  151.9540 C   0  0  0  0  0  3  0  0  0  0  0  0
  161.4610  205.0200  146.4350 C   0  0  0  0  0  1  0  0  0  0  0  0
  161.4570  208.4800  153.2180 N   0  0  0  0  0  0  0  0  0  0  0  0
  161.1660  206.2050  152.5490 C   0  0  0  0  0  0  0  0  0  0  0  0
  161.0730  206.8230  154.9290 N   0  0  0  0  0  2  0  0  0  0  0  0
  161.7330  208.4220  149.5650 C   0  0  0  0  0  3  0  0  0  0  0  0
  161.0740  203.4210  148.3100 C   0  0  0  0  0  3  0  0  0  0  0  0
  161.6180  208.8810  151.9360 C   0  0  0  0  0  0  0  0  0  0  0  0
  161.8420  210.2370  151.6760 C   0  0  0  0  0  3  0  0  0  0  0  0
  160.9360  204.8730  152.9120 C   0  0  0  0  0  3  0  0  0  0  0  0
  161.0100  204.1830  150.6080 C   0  0  0  0  0  0  0  0  0  0  0  0
  160.9270  203.1500  149.6700 C   0  0  0  0  0  3  0  0  0  0  0  0
  160.4750  207.2490  157.2610 C   0  0  0  0  0  1  0  0  0  0  0  0
  161.1680  207.7860  156.0190 C   0  0  2  0  0  3  0  0  0  0  0  0
  159.4660  211.5570  154.8410 C   0  0  0  0  0  0  0  0  0  0  0  0
  159.1940  209.2100  155.3620 C   0  0  0  0  0  3  0  0  0  0  0  0
  162.7270  210.1430  155.6980 F   0  0  0  0  0  0  0  0  0  0  0  0
  158.9340  212.7470  154.4710 F   0  0  0  0  0  0  0  0  0  0  0  0
  158.6440  210.4370  154.9800 C   0  0  0  0  0  3  0  0  0  0  0  0
  161.3930  210.2270  155.4670 C   0  0  0  0  0  0  0  0  0  0  0  0
  160.5710  209.0970  155.6070 C   0  0  0  0  0  0  0  0  0  0  0  0
  160.8380  211.4530  155.0850 C   0  0  0  0  0  3  0  0  0  0  0  0
  1 15  2  0  0  0  0
  1  6  1  0  0  0  0
  2 13  1  0  0  0  0
  3 20  1  0  0  0  0
  3  2  2  0  0  0  0
  4 16  1  0  0  0  0
  4  7  2  0  0  0  0
  5  2  1  0  0  0  0
  5 17  2  0  0  0  0
  6 18  2  0  0  0  0
  7  3  1  0  0  0  0
  8 14  1  0  0  0  0
  9  1  1  0  0  0  0
 10 19  1  0  0  0  0
 11  4  1  0  0  0  0
 12  8  2  0  0  0  0
 13 19  2  0  0  0  0
 13  8  1  0  0  0  0
 14 23  1  0  0  0  0
 15  5  1  0  0  0  0
 16 21  2  0  0  0  0
 17 12  1  0  0  0  0
 18 17  1  0  0  0  0
 20 10  2  0  0  0  0
 21 20  1  0  0  0  0
 23 22  1  1  0  0  0
 24 28  2  0  0  0  0
 24 31  1  0  0  0  0
 25 30  2  0  0  0  0
 27 24  1  0  0  0  0
 28 25  1  0  0  0  0
 29 30  1  0  0  0  0
 29 26  1  0  0  0  0
 30 23  1  0  0  0  0
 31 29  2  0  0  0  0
M  END
>  <MODEL>
4

>  <REMARK>
 VINA RESULT:      -9.6      2.092      3.703
  Name = 
  2 active torsions:
  status: ('A' for Active; 'I' for Inactive)
    1  A    between atoms: C_5  and  N_16
    2  A    between atoms: C_5  and  C_30
                            x       y       z     vdW  Elec       q    Type
                         _______ _______ _______ _____ _____    ______ ____

>  <TORSDO>
F 2

$$$$
=
 OpenBabel11122413193D

 31 35  0  0  1  0  0  0  0  0999 V2000
  161.8610  207.3680  147.6140 C   0  0  0  0  0  0  0  0  0  0  0  0
  161.2930  206.0110  151.0840 C   0  0  0  0  0  0  0  0  0  0  0  0
  161.1390  204.5910  150.9540 C   0  0  0  0  0  0  0  0  0  0  0  0
  161.0540  202.5440  149.6190 C   0  0  0  0  0  0  0  0  0  0  0  0
  161.5260  206.9010  149.9900 C   0  0  0  0  0  0  0  0  0  0  0  0
  161.9890  208.7290  147.8860 C   0  0  0  0  0  3  0  0  0  0  0  0
  161.2060  203.9280  149.7150 C   0  0  0  0  0  3  0  0  0  0  0  0
  161.3500  207.9600  152.5760 C   0  0  0  0  0  0  0  0  0  0  0  0
  161.9590  206.9070  146.3080 O   0  0  0  0  0  1  0  0  0  0  0  0
  160.8310  204.3880  153.3670 C   0  0  0  0  0  3  0  0  0  0  0  0
  161.1300  201.8790  148.2930 C   0  0  0  0  0  1  0  0  0  0  0  0
  161.5680  208.7670  151.5080 N   0  0  0  0  0  0  0  0  0  0  0  0
  161.2060  206.5760  152.3910 C   0  0  0  0  0  0  0  0  0  0  0  0
  161.2600  208.5280  153.8890 N   0  0  0  0  0  2  0  0  0  0  0  0
  161.6310  206.4670  148.6560 C   0  0  0  0  0  3  0  0  0  0  0  0
  160.8280  201.7860  150.7670 C   0  0  0  0  0  3  0  0  0  0  0  0
  161.6600  208.2890  150.2450 C   0  0  0  0  0  0  0  0  0  0  0  0
  161.8880  209.1880  149.1990 C   0  0  0  0  0  3  0  0  0  0  0  0
  160.9780  205.7600  153.5040 C   0  0  0  0  0  3  0  0  0  0  0  0
  160.9090  203.7990  152.1120 C   0  0  0  0  0  0  0  0  0  0  0  0
  160.7560  202.4130  152.0110 C   0  0  0  0  0  3  0  0  0  0  0  0
  162.1770  210.1600  155.4600 C   0  0  0  0  0  1  0  0  0  0  0  0
  161.4310  209.9510  154.1520 C   0  0  2  0  0  3  0  0  0  0  0  0
  157.6050  211.9130  154.2610 C   0  0  0  0  0  0  0  0  0  0  0  0
  159.7300  211.5300  153.1690 C   0  0  0  0  0  3  0  0  0  0  0  0
  159.5450  209.5280  156.2380 F   0  0  0  0  0  0  0  0  0  0  0  0
  156.3990  212.5290  154.2980 F   0  0  0  0  0  0  0  0  0  0  0  0
  158.4860  212.1660  153.2070 C   0  0  0  0  0  3  0  0  0  0  0  0
  159.2100  210.3860  155.2430 C   0  0  0  0  0  0  0  0  0  0  0  0
  160.1000  210.6370  154.1860 C   0  0  0  0  0  0  0  0  0  0  0  0
  157.9660  211.0250  155.2760 C   0  0  0  0  0  3  0  0  0  0  0  0
  1  6  2  0  0  0  0
  1 15  1  0  0  0  0
  2 13  1  0  0  0  0
  3  2  2  0  0  0  0
  3 20  1  0  0  0  0
  4  7  2  0  0  0  0
  4 16  1  0  0  0  0
  5 17  1  0  0  0  0
  5  2  1  0  0  0  0
  6 18  1  0  0  0  0
  7  3  1  0  0  0  0
  8 14  1  0  0  0  0
  9  1  1  0  0  0  0
 10 19  1  0  0  0  0
 11  4  1  0  0  0  0
 12  8  2  0  0  0  0
 13  8  1  0  0  0  0
 13 19  2  0  0  0  0
 14 23  1  0  0  0  0
 15  5  2  0  0  0  0
 16 21  2  0  0  0  0
 17 12  1  0  0  0  0
 18 17  2  0  0  0  0
 20 10  2  0  0  0  0
 21 20  1  0  0  0  0
 23 30  1  0  0  0  0
 23 22  1  1  0  0  0
 24 27  1  0  0  0  0
 24 31  1  0  0  0  0
 25 28  1  0  0  0  0
 25 30  2  0  0  0  0
 28 24  2  0  0  0  0
 29 31  2  0  0  0  0
 29 26  1  0  0  0  0
 30 29  1  0  0  0  0
M  END
>  <MODEL>
5

>  <REMARK>
 VINA RESULT:      -9.5      1.592      2.544
  Name = 
  2 active torsions:
  status: ('A' for Active; 'I' for Inactive)
    1  A    between atoms: C_5  and  N_16
    2  A    between atoms: C_5  and  C_30
                            x       y       z     vdW  Elec       q    Type
                         _______ _______ _______ _____ _____    ______ ____

>  <TORSDO>
F 2

$$$$
=
 OpenBabel11122413193D

 31 35  0  0  1  0  0  0  0  0999 V2000
  160.8310  201.8300  150.5850 C   0  0  0  0  0  0  0  0  0  0  0  0
  161.2060  205.2950  149.1500 C   0  0  0  0  0  0  0  0  0  0  0  0
  161.1800  205.1570  147.7230 C   0  0  0  0  0  0  0  0  0  0  0  0
  161.0140  203.8110  145.6880 C   0  0  0  0  0  0  0  0  0  0  0  0
  161.0920  204.2050  150.0680 C   0  0  0  0  0  0  0  0  0  0  0  0
  160.8740  202.1090  151.9500 C   0  0  0  0  0  3  0  0  0  0  0  0
  161.0360  203.9140  147.0790 C   0  0  0  0  0  3  0  0  0  0  0  0
  161.3880  206.7980  151.0830 C   0  0  0  0  0  0  0  0  0  0  0  0
  160.6810  200.5210  150.1480 O   0  0  0  0  0  1  0  0  0  0  0  0
  161.4490  207.5710  147.4700 C   0  0  0  0  0  3  0  0  0  0  0  0
  160.8610  202.4810  145.0450 C   0  0  0  0  0  1  0  0  0  0  0  0
  161.2790  205.7330  151.9160 N   0  0  0  0  0  0  0  0  0  0  0  0
  161.3570  206.6050  149.6930 C   0  0  0  0  0  0  0  0  0  0  0  0
  161.5430  208.1140  151.6280 N   0  0  0  0  0  2  0  0  0  0  0  0
  160.9400  202.8680  149.6580 C   0  0  0  0  0  3  0  0  0  0  0  0
  161.1360  204.9560  144.9020 C   0  0  0  0  0  3  0  0  0  0  0  0
  161.1330  204.4670  151.4600 C   0  0  0  0  0  0  0  0  0  0  0  0
  161.0250  203.4250  152.3860 C   0  0  0  0  0  3  0  0  0  0  0  0
  161.4750  207.7150  148.8490 C   0  0  0  0  0  3  0  0  0  0  0  0
  161.3030  206.3110  146.9020 C   0  0  0  0  0  0  0  0  0  0  0  0
  161.2800  206.2030  145.5080 C   0  0  0  0  0  3  0  0  0  0  0  0
  160.8310  207.2750  153.8110 C   0  0  0  0  0  1  0  0  0  0  0  0
  161.5500  208.3840  153.0600 C   0  0  2  0  0  3  0  0  0  0  0  0
  159.7290  212.1930  153.8820 C   0  0  0  0  0  0  0  0  0  0  0  0
  160.0810  210.3200  152.3910 C   0  0  0  0  0  3  0  0  0  0  0  0
  161.9520  209.7860  155.5020 F   0  0  0  0  0  0  0  0  0  0  0  0
  159.1560  213.3930  154.1450 F   0  0  0  0  0  0  0  0  0  0  0  0
  159.4900  211.5580  152.6620 C   0  0  0  0  0  3  0  0  0  0  0  0
  161.1500  210.3540  154.5680 C   0  0  0  0  0  0  0  0  0  0  0  0
  160.9150  209.7110  153.3420 C   0  0  0  0  0  0  0  0  0  0  0  0
  160.5560  211.5920  154.8340 C   0  0  0  0  0  3  0  0  0  0  0  0
  1  6  1  0  0  0  0
  2 13  1  0  0  0  0
  2  5  1  0  0  0  0
  3  2  2  0  0  0  0
  4  7  2  0  0  0  0
  5 17  2  0  0  0  0
  6 18  2  0  0  0  0
  7  3  1  0  0  0  0
  8 14  1  0  0  0  0
  8 12  2  0  0  0  0
  9  1  1  0  0  0  0
 10 19  1  0  0  0  0
 11  4  1  0  0  0  0
 13  8  1  0  0  0  0
 14 23  1  0  0  0  0
 15  5  1  0  0  0  0
 15  1  2  0  0  0  0
 16 21  2  0  0  0  0
 16  4  1  0  0  0  0
 17 12  1  0  0  0  0
 17 18  1  0  0  0  0
 19 13  2  0  0  0  0
 20 10  2  0  0  0  0
 20  3  1  0  0  0  0
 21 20  1  0  0  0  0
 23 30  1  0  0  0  0
 23 22  1  1  0  0  0
 24 27  1  0  0  0  0
 24 31  1  0  0  0  0
 25 28  1  0  0  0  0
 25 30  2  0  0  0  0
 28 24  2  0  0  0  0
 29 31  2  0  0  0  0
 29 26  1  0  0  0  0
 30 29  1  0  0  0  0
M  END
>  <MODEL>
6

>  <REMARK>
 VINA RESULT:      -9.4      1.977      4.185
  Name = 
  2 active torsions:
  status: ('A' for Active; 'I' for Inactive)
    1  A    between atoms: C_5  and  N_16
    2  A    between atoms: C_5  and  C_30
                            x       y       z     vdW  Elec       q    Type
                         _______ _______ _______ _____ _____    ______ ____

>  <TORSDO>
F 2

$$$$
=
 OpenBabel11122413193D

 31 35  0  0  1  0  0  0  0  0999 V2000
  160.8530  201.9730  150.6210 C   0  0  0  0  0  0  0  0  0  0  0  0
  161.2990  205.5900  149.6590 C   0  0  0  0  0  0  0  0  0  0  0  0
  161.3480  205.6350  148.2270 C   0  0  0  0  0  0  0  0  0  0  0  0
  161.2910  204.5590  146.0320 C   0  0  0  0  0  0  0  0  0  0  0  0
  161.1380  204.3930  150.4240 C   0  0  0  0  0  0  0  0  0  0  0  0
  160.8240  202.0760  152.0110 C   0  0  0  0  0  3  0  0  0  0  0  0
  161.2400  204.4840  147.4240 C   0  0  0  0  0  3  0  0  0  0  0  0
  161.3780  206.8340  151.7750 C   0  0  0  0  0  0  0  0  0  0  0  0
  160.7280  200.7310  150.0140 O   0  0  0  0  0  1  0  0  0  0  0  0
  161.6270  208.0590  148.2980 C   0  0  0  0  0  3  0  0  0  0  0  0
  161.1740  203.3220  145.2180 C   0  0  0  0  0  1  0  0  0  0  0  0
  161.2250  205.6730  152.4600 N   0  0  0  0  0  0  0  0  0  0  0  0
  161.4200  206.8200  150.3720 C   0  0  0  0  0  0  0  0  0  0  0  0
  161.5010  208.0700  152.4900 N   0  0  0  0  0  2  0  0  0  0  0  0
  161.0090  203.1200  149.8400 C   0  0  0  0  0  3  0  0  0  0  0  0
  161.4530  205.7930  145.4050 C   0  0  0  0  0  3  0  0  0  0  0  0
  161.1050  204.4760  151.8390 C   0  0  0  0  0  0  0  0  0  0  0  0
  160.9510  203.3250  152.6180 C   0  0  0  0  0  3  0  0  0  0  0  0
  161.5810  208.0270  149.6830 C   0  0  0  0  0  3  0  0  0  0  0  0
  161.5130  206.8830  147.5670 C   0  0  0  0  0  0  0  0  0  0  0  0
  161.5640  206.9530  146.1720 C   0  0  0  0  0  3  0  0  0  0  0  0
  160.4560  207.1270  154.4890 C   0  0  0  0  0  1  0  0  0  0  0  0
  161.4330  208.1560  153.9430 C   0  0  2  0  0  3  0  0  0  0  0  0
  160.2860  212.1260  155.1390 C   0  0  0  0  0  0  0  0  0  0  0  0
  161.5120  210.0840  155.5660 C   0  0  0  0  0  3  0  0  0  0  0  0
  159.7060  209.7920  152.3850 F   0  0  0  0  0  0  0  0  0  0  0  0
  159.9230  213.3760  155.5120 F   0  0  0  0  0  0  0  0  0  0  0  0
  161.1380  211.3740  155.9510 C   0  0  0  0  0  3  0  0  0  0  0  0
  160.1800  210.2980  153.5510 C   0  0  0  0  0  0  0  0  0  0  0  0
  161.0350  209.5380  154.3640 C   0  0  0  0  0  0  0  0  0  0  0  0
  159.8090  211.5890  153.9400 C   0  0  0  0  0  3  0  0  0  0  0  0
  1  6  1  0  0  0  0
  2 13  1  0  0  0  0
  2  5  1  0  0  0  0
  3  2  2  0  0  0  0
  4  7  2  0  0  0  0
  5 17  2  0  0  0  0
  6 18  2  0  0  0  0
  7  3  1  0  0  0  0
  8 12  2  0  0  0  0
  8 14  1  0  0  0  0
  9  1  1  0  0  0  0
 10 19  1  0  0  0  0
 11  4  1  0  0  0  0
 13  8  1  0  0  0  0
 14 23  1  0  0  0  0
 15  5  1  0  0  0  0
 15  1  2  0  0  0  0
 16  4  1  0  0  0  0
 16 21  2  0  0  0  0
 17 12  1  0  0  0  0
 17 18  1  0  0  0  0
 19 13  2  0  0  0  0
 20  3  1  0  0  0  0
 20 10  2  0  0  0  0
 21 20  1  0  0  0  0
 23 30  1  0  0  0  0
 23 22  1  6  0  0  0
 24 27  1  0  0  0  0
 24 28  1  0  0  0  0
 25 28  2  0  0  0  0
 26 29  1  0  0  0  0
 29 31  1  0  0  0  0
 29 30  2  0  0  0  0
 30 25  1  0  0  0  0
 31 24  2  0  0  0  0
M  END
>  <MODEL>
7

>  <REMARK>
 VINA RESULT:      -8.9      1.965      4.121
  Name = 
  2 active torsions:
  status: ('A' for Active; 'I' for Inactive)
    1  A    between atoms: C_5  and  N_16
    2  A    between atoms: C_5  and  C_30
                            x       y       z     vdW  Elec       q    Type
                         _______ _______ _______ _____ _____    ______ ____

>  <TORSDO>
F 2

$$$$
=
 OpenBabel11122413193D

 31 35  0  0  1  0  0  0  0  0999 V2000
  160.8060  202.0370  150.8390 C   0  0  0  0  0  0  0  0  0  0  0  0
  161.2390  205.3240  149.0460 C   0  0  0  0  0  0  0  0  0  0  0  0
  161.2060  205.0380  147.6420 C   0  0  0  0  0  0  0  0  0  0  0  0
  161.0090  203.4880  145.7600 C   0  0  0  0  0  0  0  0  0  0  0  0
  161.1080  204.3390  150.0740 C   0  0  0  0  0  0  0  0  0  0  0  0
  160.8590  202.4570  152.1670 C   0  0  0  0  0  3  0  0  0  0  0  0
  161.0380  203.7360  147.1330 C   0  0  0  0  0  3  0  0  0  0  0  0
  161.4530  207.0180  150.8100 C   0  0  0  0  0  0  0  0  0  0  0  0
  160.6320  200.6920  150.5420 O   0  0  0  0  0  1  0  0  0  0  0  0
  161.5160  207.4060  147.1360 C   0  0  0  0  0  3  0  0  0  0  0  0
  160.8310  202.1000  145.2610 C   0  0  0  0  0  1  0  0  0  0  0  0
  161.3270  206.0500  151.7510 N   0  0  0  0  0  0  0  0  0  0  0  0
  161.4140  206.6810  149.4480 C   0  0  0  0  0  0  0  0  0  0  0  0
  161.6320  208.3820  151.2130 N   0  0  0  0  0  2  0  0  0  0  0  0
  160.9310  202.9690  149.8070 C   0  0  0  0  0  3  0  0  0  0  0  0
  161.1500  204.5410  144.8580 C   0  0  0  0  0  3  0  0  0  0  0  0
  161.1580  204.7460  151.4310 C   0  0  0  0  0  0  0  0  0  0  0  0
  161.0340  203.8090  152.4620 C   0  0  0  0  0  3  0  0  0  0  0  0
  161.5490  207.6940  148.4920 C   0  0  0  0  0  3  0  0  0  0  0  0
  161.3470  206.0960  146.7040 C   0  0  0  0  0  0  0  0  0  0  0  0
  161.3180  205.8420  145.3290 C   0  0  0  0  0  3  0  0  0  0  0  0
  161.1630  207.6740  153.5060 C   0  0  0  0  0  1  0  0  0  0  0  0
  161.6490  208.8010  152.6090 C   0  0  2  0  0  3  0  0  0  0  0  0
  159.2320  212.3210  153.1310 C   0  0  0  0  0  0  0  0  0  0  0  0
  159.9850  210.1630  153.9250 C   0  0  0  0  0  3  0  0  0  0  0  0
  161.6150  210.9360  150.7300 F   0  0  0  0  0  0  0  0  0  0  0  0
  158.4720  213.4310  153.2920 F   0  0  0  0  0  0  0  0  0  0  0  0
  159.2010  211.3080  154.0920 C   0  0  0  0  0  3  0  0  0  0  0  0
  160.8320  211.0470  151.8320 C   0  0  0  0  0  0  0  0  0  0  0  0
  160.8050  210.0250  152.7940 C   0  0  0  0  0  0  0  0  0  0  0  0
  160.0460  212.1910  152.0030 C   0  0  0  0  0  3  0  0  0  0  0  0
  1  6  1  0  0  0  0
  2 13  1  0  0  0  0
  2  5  1  0  0  0  0
  3  2  2  0  0  0  0
  4  7  2  0  0  0  0
  5 17  2  0  0  0  0
  6 18  2  0  0  0  0
  7  3  1  0  0  0  0
  8 14  1  0  0  0  0
  8 12  2  0  0  0  0
  9  1  1  0  0  0  0
 10 19  1  0  0  0  0
 11  4  1  0  0  0  0
 13  8  1  0  0  0  0
 14 23  1  0  0  0  0
 15  5  1  0  0  0  0
 15  1  2  0  0  0  0
 16 21  2  0  0  0  0
 16  4  1  0  0  0  0
 17 12  1  0  0  0  0
 17 18  1  0  0  0  0
 19 13  2  0  0  0  0
 20 10  2  0  0  0  0
 20  3  1  0  0  0  0
 21 20  1  0  0  0  0
 23 30  1  0  0  0  0
 23 22  1  1  0  0  0
 24 27  1  0  0  0  0
 24 28  1  0  0  0  0
 25 28  2  0  0  0  0
 26 29  1  0  0  0  0
 29 31  1  0  0  0  0
 29 30  2  0  0  0  0
 30 25  1  0  0  0  0
 31 24  2  0  0  0  0
M  END
>  <MODEL>
8

>  <REMARK>
 VINA RESULT:      -8.8      2.015      4.112
  Name = 
  2 active torsions:
  status: ('A' for Active; 'I' for Inactive)
    1  A    between atoms: C_5  and  N_16
    2  A    between atoms: C_5  and  C_30
                            x       y       z     vdW  Elec       q    Type
                         _______ _______ _______ _____ _____    ______ ____

>  <TORSDO>
F 2

$$$$
=
 OpenBabel11122413193D

 31 35  0  0  1  0  0  0  0  0999 V2000
  161.7240  211.3590  150.0170 C   0  0  0  0  0  0  0  0  0  0  0  0
  161.3630  207.8730  151.4030 C   0  0  0  0  0  0  0  0  0  0  0  0
  161.1930  208.0060  152.8210 C   0  0  0  0  0  0  0  0  0  0  0  0
  161.0120  209.3510  154.8550 C   0  0  0  0  0  0  0  0  0  0  0  0
  161.5350  208.9710  150.5040 C   0  0  0  0  0  0  0  0  0  0  0  0
  161.8800  211.0830  148.6600 C   0  0  0  0  0  3  0  0  0  0  0  0
  161.1790  209.2530  153.4730 C   0  0  0  0  0  3  0  0  0  0  0  0
  161.5230  206.3700  149.4680 C   0  0  0  0  0  0  0  0  0  0  0  0
  161.7390  212.6730  150.4660 O   0  0  0  0  0  1  0  0  0  0  0  0
  161.0360  205.5800  153.0450 C   0  0  0  0  0  3  0  0  0  0  0  0
  161.0030  210.6860  155.5080 C   0  0  0  0  0  1  0  0  0  0  0  0
  161.6850  207.4420  148.6530 N   0  0  0  0  0  0  0  0  0  0  0  0
  161.3610  206.5580  150.8500 C   0  0  0  0  0  0  0  0  0  0  0  0
  161.5240  205.0490  148.9130 N   0  0  0  0  0  2  0  0  0  0  0  0
  161.5540  210.3130  150.9260 C   0  0  0  0  0  3  0  0  0  0  0  0
  160.8540  208.1990  155.6220 C   0  0  0  0  0  3  0  0  0  0  0  0
  161.6940  208.7120  149.1190 C   0  0  0  0  0  0  0  0  0  0  0  0
  161.8650  209.7630  148.2130 C   0  0  0  0  0  3  0  0  0  0  0  0
  161.1990  205.4400  151.6750 C   0  0  0  0  0  3  0  0  0  0  0  0
  161.0310  206.8430  153.6230 C   0  0  0  0  0  0  0  0  0  0  0  0
  160.8640  206.9470  155.0070 C   0  0  0  0  0  3  0  0  0  0  0  0
  160.6740  205.6440  146.6990 C   0  0  0  0  0  1  0  0  0  0  0  0
  161.6540  204.7880  147.4850 C   0  0  2  0  0  3  0  0  0  0  0  0
  161.0070  200.6170  146.6540 C   0  0  0  0  0  0  0  0  0  0  0  0
  161.4620  202.3890  148.2380 C   0  0  0  0  0  3  0  0  0  0  0  0
  161.1500  203.8010  144.8650 F   0  0  0  0  0  0  0  0  0  0  0  0
  160.8030  199.3040  146.3890 F   0  0  0  0  0  0  0  0  0  0  0  0
  161.2510  201.0350  147.9640 C   0  0  0  0  0  3  0  0  0  0  0  0
  161.1850  202.9080  145.8850 C   0  0  0  0  0  0  0  0  0  0  0  0
  161.4310  203.3340  147.2000 C   0  0  0  0  0  0  0  0  0  0  0  0
  160.9740  201.5520  145.6170 C   0  0  0  0  0  3  0  0  0  0  0  0
  1  9  1  0  0  0  0
  1 15  1  0  0  0  0
  2  3  1  0  0  0  0
  3  7  2  0  0  0  0
  3 20  1  0  0  0  0
  4 11  1  0  0  0  0
  4 16  2  0  0  0  0
  5 15  2  0  0  0  0
  5  2  1  0  0  0  0
  6  1  2  0  0  0  0
  7  4  1  0  0  0  0
  8 13  1  0  0  0  0
 10 20  1  0  0  0  0
 12 17  1  0  0  0  0
 12  8  2  0  0  0  0
 13  2  2  0  0  0  0
 13 19  1  0  0  0  0
 14  8  1  0  0  0  0
 17  5  1  0  0  0  0
 18  6  1  0  0  0  0
 18 17  2  0  0  0  0
 19 10  2  0  0  0  0
 20 21  2  0  0  0  0
 21 16  1  0  0  0  0
 23 22  1  6  0  0  0
 23 14  1  0  0  0  0
 24 28  1  0  0  0  0
 26 29  1  0  0  0  0
 27 24  1  0  0  0  0
 28 25  2  0  0  0  0
 29 30  2  0  0  0  0
 30 23  1  0  0  0  0
 30 25  1  0  0  0  0
 31 29  1  0  0  0  0
 31 24  2  0  0  0  0
M  END
>  <MODEL>
9

>  <REMARK>
 VINA RESULT:      -8.1      3.954      8.134
  Name = 
  2 active torsions:
  status: ('A' for Active; 'I' for Inactive)
    1  A    between atoms: C_5  and  N_16
    2  A    between atoms: C_5  and  C_30
                            x       y       z     vdW  Elec       q    Type
                         _______ _______ _______ _____ _____    ______ ____

>  <TORSDO>
F 2

$$$$
