=
 OpenBabel11122413183D

 31 35  0  0  1  0  0  0  0  0999 V2000
  161.0350  204.4140  152.3890 C   0  0  0  0  0  0  0  0  0  0  0  0
  161.4980  205.7110  148.8810 C   0  0  0  0  0  0  0  0  0  0  0  0
  161.3770  204.5850  148.0030 C   0  0  0  0  0  0  0  0  0  0  0  0
  161.0190  202.2010  147.5880 C   0  0  0  0  0  0  0  0  0  0  0  0
  161.3840  205.6420  150.3050 C   0  0  0  0  0  0  0  0  0  0  0  0
  161.1750  205.5910  153.1230 C   0  0  0  0  0  3  0  0  0  0  0  0
  161.1310  203.2800  148.4680 C   0  0  0  0  0  3  0  0  0  0  0  0
  161.8740  208.1270  149.1120 C   0  0  0  0  0  0  0  0  0  0  0  0
  160.7920  203.2130  153.0430 O   0  0  0  0  0  1  0  0  0  0  0  0
  161.7510  206.0300  146.0720 C   0  0  0  0  0  3  0  0  0  0  0  0
  160.7750  200.9270  148.0820 O   0  0  0  0  0  1  0  0  0  0  0  0
  161.7600  208.0140  150.4590 N   0  0  0  0  0  0  0  0  0  0  0  0
  161.7480  206.9890  148.2990 C   0  0  0  0  0  0  0  0  0  0  0  0
  162.1280  209.4100  148.5280 N   0  0  0  0  0  2  0  0  0  0  0  0
  161.1390  204.4420  150.9970 C   0  0  0  0  0  3  0  0  0  0  0  0
  161.1500  202.4040  146.2160 C   0  0  0  0  0  3  0  0  0  0  0  0
  161.5240  206.8280  151.0680 C   0  0  0  0  0  0  0  0  0  0  0  0
  161.4190  206.7950  152.4630 C   0  0  0  0  0  3  0  0  0  0  0  0
  161.8700  207.1270  146.9120 C   0  0  0  0  0  3  0  0  0  0  0  0
  161.5080  204.7690  146.6000 C   0  0  0  0  0  0  0  0  0  0  0  0
  161.3940  203.6850  145.7240 C   0  0  0  0  0  3  0  0  0  0  0  0
  161.3760  210.5780  150.4070 O   0  0  0  0  0  1  0  0  0  0  0  0
  162.2450  210.6290  149.3150 C   0  0  2  0  0  3  0  0  0  0  0  0
  161.1860  213.4450  146.3090 C   0  0  0  0  0  0  0  0  0  0  0  0
  160.5750  212.3210  148.4330 C   0  0  0  0  0  2  0  0  0  0  0  0
  164.1730  212.1470  147.8760 O   0  0  0  0  0  0  0  0  0  0  0  0
  160.8370  214.2600  145.4160 O   0  0  0  0  0  0  0  0  0  0  0  0
  160.1570  212.5940  146.9890 C   0  0  0  0  0  2  0  0  0  0  0  0
  162.9540  212.3980  147.6770 C   0  0  0  0  0  0  0  0  0  0  0  0
  161.9380  211.7870  148.4850 N   0  0  0  0  0  0  0  0  0  0  0  0
  162.5710  213.2860  146.6270 N   0  0  0  0  0  2  0  0  0  0  0  0
  1  9  1  0  0  0  0
  1  6  1  0  0  0  0
  2  5  1  0  0  0  0
  3  7  1  0  0  0  0
  3  2  2  0  0  0  0
  4 11  1  0  0  0  0
  4  7  2  0  0  0  0
  5 15  1  0  0  0  0
  5 17  2  0  0  0  0
  8 12  2  0  0  0  0
 10 20  2  0  0  0  0
 10 19  1  0  0  0  0
 12 17  1  0  0  0  0
 13  2  1  0  0  0  0
 13  8  1  0  0  0  0
 14  8  1  0  0  0  0
 14 23  1  0  0  0  0
 15  1  2  0  0  0  0
 16  4  1  0  0  0  0
 17 18  1  0  0  0  0
 18  6  2  0  0  0  0
 19 13  2  0  0  0  0
 20  3  1  0  0  0  0
 21 16  2  0  0  0  0
 21 20  1  0  0  0  0
 23 22  1  1  0  0  0
 24 31  1  0  0  0  0
 24 28  1  0  0  0  0
 25 30  1  0  0  0  0
 27 24  2  0  0  0  0
 28 25  1  0  0  0  0
 29 26  2  0  0  0  0
 29 30  1  0  0  0  0
 30 23  1  0  0  0  0
 31 29  1  0  0  0  0
M  END
>  <MODEL>
1

>  <REMARK>
 VINA RESULT:     -10.6      0.000      0.000
  Name = 
  2 active torsions:
  status: ('A' for Active; 'I' for Inactive)
    1  A    between atoms: C_5  and  N_16
    2  A    between atoms: C_5  and  N_30
                            x       y       z     vdW  Elec       q    Type
                         _______ _______ _______ _____ _____    ______ ____

>  <TORSDO>
F 2

$$$$
=
 OpenBabel11122413183D

 31 35  0  0  1  0  0  0  0  0999 V2000
  160.9560  207.4580  154.0340 C   0  0  0  0  0  0  0  0  0  0  0  0
  161.3910  207.2690  150.2960 C   0  0  0  0  0  0  0  0  0  0  0  0
  161.2820  205.8870  149.9340 C   0  0  0  0  0  0  0  0  0  0  0  0
  160.9510  203.5290  150.4980 C   0  0  0  0  0  0  0  0  0  0  0  0
  161.2830  207.7670  151.6320 C   0  0  0  0  0  0  0  0  0  0  0  0
  161.0840  208.8310  154.2430 C   0  0  0  0  0  3  0  0  0  0  0  0
  161.0530  204.8690  150.8790 C   0  0  0  0  0  3  0  0  0  0  0  0
  161.7390  209.5840  149.5510 C   0  0  0  0  0  0  0  0  0  0  0  0
  160.7300  206.6110  155.1110 O   0  0  0  0  0  1  0  0  0  0  0  0
  161.6310  206.4550  147.5870 C   0  0  0  0  0  3  0  0  0  0  0  0
  160.7250  202.5510  151.4560 O   0  0  0  0  0  1  0  0  0  0  0  0
  161.6310  210.0100  150.8340 N   0  0  0  0  0  0  0  0  0  0  0  0
  161.6240  208.2160  149.2550 C   0  0  0  0  0  0  0  0  0  0  0  0
  161.9740  210.5340  148.5060 N   0  0  0  0  0  2  0  0  0  0  0  0
  161.0550  206.9360  152.7440 C   0  0  0  0  0  3  0  0  0  0  0  0
  161.0760  203.1750  149.1560 C   0  0  0  0  0  3  0  0  0  0  0  0
  161.4110  209.1600  151.8640 C   0  0  0  0  0  0  0  0  0  0  0  0
  161.3110  209.6790  153.1590 C   0  0  0  0  0  3  0  0  0  0  0  0
  161.7400  207.7960  147.9250 C   0  0  0  0  0  3  0  0  0  0  0  0
  161.4060  205.5030  148.5720 C   0  0  0  0  0  0  0  0  0  0  0  0
  161.3030  204.1600  148.1960 C   0  0  0  0  0  3  0  0  0  0  0  0
  161.3370  212.3160  149.8760 O   0  0  0  0  0  1  0  0  0  0  0  0
  162.0790  211.9660  148.7470 C   0  0  2  0  0  3  0  0  0  0  0  0
  161.1580  213.5970  144.9280 C   0  0  0  0  0  0  0  0  0  0  0  0
  160.3980  212.2560  146.8700 C   0  0  0  0  0  2  0  0  0  0  0  0
  163.1780  214.4170  147.8100 O   0  0  0  0  0  0  0  0  0  0  0  0
  160.8740  214.0430  143.7860 O   0  0  0  0  0  0  0  0  0  0  0  0
  160.6360  212.2600  145.3610 C   0  0  0  0  0  2  0  0  0  0  0  0
  162.3080  213.8480  147.0980 C   0  0  0  0  0  0  0  0  0  0  0  0
  161.5970  212.7010  147.5840 N   0  0  0  0  0  0  0  0  0  0  0  0
  162.0320  214.3360  145.7850 N   0  0  0  0  0  2  0  0  0  0  0  0
  1  6  1  0  0  0  0
  1  9  1  0  0  0  0
  2  5  1  0  0  0  0
  3  2  1  0  0  0  0
  3  7  1  0  0  0  0
  4  7  2  0  0  0  0
  4 11  1  0  0  0  0
  5 17  2  0  0  0  0
  5 15  1  0  0  0  0
  8 12  2  0  0  0  0
 10 19  2  0  0  0  0
 10 20  1  0  0  0  0
 12 17  1  0  0  0  0
 13  8  1  0  0  0  0
 13  2  2  0  0  0  0
 14 23  1  0  0  0  0
 14  8  1  0  0  0  0
 15  1  2  0  0  0  0
 16  4  1  0  0  0  0
 17 18  1  0  0  0  0
 18  6  2  0  0  0  0
 19 13  1  0  0  0  0
 20  3  2  0  0  0  0
 21 20  1  0  0  0  0
 21 16  2  0  0  0  0
 23 22  1  1  0  0  0
 24 28  1  0  0  0  0
 24 31  1  0  0  0  0
 25 30  1  0  0  0  0
 27 24  2  0  0  0  0
 28 25  1  0  0  0  0
 29 30  1  0  0  0  0
 29 26  2  0  0  0  0
 30 23  1  0  0  0  0
 31 29  1  0  0  0  0
M  END
>  <MODEL>
2

>  <REMARK>
 VINA RESULT:     -10.4      1.628      2.377
  Name = 
  2 active torsions:
  status: ('A' for Active; 'I' for Inactive)
    1  A    between atoms: C_5  and  N_16
    2  A    between atoms: C_5  and  N_30
                            x       y       z     vdW  Elec       q    Type
                         _______ _______ _______ _____ _____    ______ ____

>  <TORSDO>
F 2

$$$$
=
 OpenBabel11122413183D

 31 35  0  0  1  0  0  0  0  0999 V2000
  161.1950  205.5000  145.9370 C   0  0  0  0  0  0  0  0  0  0  0  0
  161.1310  204.8170  149.6430 C   0  0  0  0  0  0  0  0  0  0  0  0
  161.1020  203.3930  149.8020 C   0  0  0  0  0  0  0  0  0  0  0  0
  161.0700  201.1210  148.8960 C   0  0  0  0  0  0  0  0  0  0  0  0
  161.1620  205.4890  148.3810 C   0  0  0  0  0  0  0  0  0  0  0  0
  161.2220  206.8940  145.9290 C   0  0  0  0  0  3  0  0  0  0  0  0
  161.1000  202.5050  148.7100 C   0  0  0  0  0  3  0  0  0  0  0  0
  161.1600  207.0230  150.7240 C   0  0  0  0  0  0  0  0  0  0  0  0
  161.1980  204.8000  144.7380 O   0  0  0  0  0  1  0  0  0  0  0  0
  161.0730  203.6480  152.2290 C   0  0  0  0  0  3  0  0  0  0  0  0
  161.0690  200.2750  147.7960 O   0  0  0  0  0  1  0  0  0  0  0  0
  161.1870  207.6170  149.5050 N   0  0  0  0  0  0  0  0  0  0  0  0
  161.1310  205.6220  150.8210 C   0  0  0  0  0  0  0  0  0  0  0  0
  161.1570  207.8300  151.9070 N   0  0  0  0  0  2  0  0  0  0  0  0
  161.1660  204.8100  147.1500 C   0  0  0  0  0  3  0  0  0  0  0  0
  161.0420  200.5910  150.1840 C   0  0  0  0  0  3  0  0  0  0  0  0
  161.1880  206.9070  148.3530 C   0  0  0  0  0  0  0  0  0  0  0  0
  161.2180  207.5950  147.1350 C   0  0  0  0  0  3  0  0  0  0  0  0
  161.1010  205.0280  152.0870 C   0  0  0  0  0  3  0  0  0  0  0  0
  161.0730  202.8310  151.1060 C   0  0  0  0  0  0  0  0  0  0  0  0
  161.0430  201.4440  151.2870 C   0  0  0  0  0  3  0  0  0  0  0  0
  162.4870  209.7070  151.4990 O   0  0  0  0  0  1  0  0  0  0  0  0
  161.2100  209.2850  151.8720 C   0  0  2  0  0  3  0  0  0  0  0  0
  159.5040  210.4440  155.5920 C   0  0  0  0  0  0  0  0  0  0  0  0
  161.2010  209.0840  154.4000 C   0  0  0  0  0  2  0  0  0  0  0  0
  160.0850  211.8590  152.3180 O   0  0  0  0  0  0  0  0  0  0  0  0
  158.9960  210.7480  156.7020 O   0  0  0  0  0  0  0  0  0  0  0  0
  160.0100  209.0520  155.3560 C   0  0  0  0  0  2  0  0  0  0  0  0
  160.1660  211.0710  153.2980 C   0  0  0  0  0  0  0  0  0  0  0  0
  160.8680  209.8250  153.1820 N   0  0  0  0  0  0  0  0  0  0  0  0
  159.5400  211.4070  154.5360 N   0  0  0  0  0  2  0  0  0  0  0  0
  1 15  1  0  0  0  0
  2  3  2  0  0  0  0
  2 13  1  0  0  0  0
  3 20  1  0  0  0  0
  4 16  1  0  0  0  0
  5  2  1  0  0  0  0
  6  1  2  0  0  0  0
  6 18  1  0  0  0  0
  7  4  2  0  0  0  0
  7  3  1  0  0  0  0
  8 13  1  0  0  0  0
  8 14  1  0  0  0  0
  9  1  1  0  0  0  0
 11  4  1  0  0  0  0
 12  8  2  0  0  0  0
 13 19  2  0  0  0  0
 15  5  2  0  0  0  0
 16 21  2  0  0  0  0
 17  5  1  0  0  0  0
 17 12  1  0  0  0  0
 18 17  2  0  0  0  0
 19 10  1  0  0  0  0
 20 21  1  0  0  0  0
 20 10  2  0  0  0  0
 23 22  1  1  0  0  0
 23 14  1  0  0  0  0
 23 30  1  0  0  0  0
 24 27  2  0  0  0  0
 25 28  1  0  0  0  0
 26 29  2  0  0  0  0
 28 24  1  0  0  0  0
 29 31  1  0  0  0  0
 30 29  1  0  0  0  0
 30 25  1  0  0  0  0
 31 24  1  0  0  0  0
M  END
>  <MODEL>
3

>  <REMARK>
 VINA RESULT:     -10.1      3.245      5.625
  Name = 
  2 active torsions:
  status: ('A' for Active; 'I' for Inactive)
    1  A    between atoms: C_5  and  N_16
    2  A    between atoms: C_5  and  N_30
                            x       y       z     vdW  Elec       q    Type
                         _______ _______ _______ _____ _____    ______ ____

>  <TORSDO>
F 2

$$$$
=
 OpenBabel11122413183D

 31 35  0  0  1  0  0  0  0  0999 V2000
  161.5950  204.5480  147.2150 C   0  0  0  0  0  0  0  0  0  0  0  0
  161.5040  206.9670  150.1040 C   0  0  0  0  0  0  0  0  0  0  0  0
  161.2930  206.1890  151.2900 C   0  0  0  0  0  0  0  0  0  0  0  0
  160.9520  204.0570  152.4390 C   0  0  0  0  0  0  0  0  0  0  0  0
  161.6000  206.4210  148.7860 C   0  0  0  0  0  0  0  0  0  0  0  0
  161.8010  205.4230  146.1490 C   0  0  0  0  0  3  0  0  0  0  0  0
  161.1580  204.7880  151.2670 C   0  0  0  0  0  3  0  0  0  0  0  0
  161.8350  209.1910  149.1170 C   0  0  0  0  0  0  0  0  0  0  0  0
  161.4870  203.1840  146.9820 O   0  0  0  0  0  1  0  0  0  0  0  0
  161.3370  208.2170  152.6470 C   0  0  0  0  0  3  0  0  0  0  0  0
  160.8240  202.6760  152.3800 O   0  0  0  0  0  1  0  0  0  0  0  0
  161.9190  208.6290  147.8850 N   0  0  0  0  0  0  0  0  0  0  0  0
  161.6260  208.3800  150.2450 C   0  0  0  0  0  0  0  0  0  0  0  0
  161.9560  210.6110  149.2590 N   0  0  0  0  0  2  0  0  0  0  0  0
  161.4960  205.0440  148.5160 C   0  0  0  0  0  3  0  0  0  0  0  0
  160.8760  204.7130  153.6660 C   0  0  0  0  0  3  0  0  0  0  0  0
  161.8100  207.2950  147.6890 C   0  0  0  0  0  0  0  0  0  0  0  0
  161.9090  206.7930  146.3870 C   0  0  0  0  0  3  0  0  0  0  0  0
  161.5410  208.9790  151.5070 C   0  0  0  0  0  3  0  0  0  0  0  0
  161.2120  206.8370  152.5520 C   0  0  0  0  0  0  0  0  0  0  0  0
  161.0070  206.1000  153.7220 C   0  0  0  0  0  3  0  0  0  0  0  0
  163.4340  212.1310  148.2760 O   0  0  0  0  0  1  0  0  0  0  0  0
  162.1960  211.5010  148.1320 C   0  0  2  0  0  3  0  0  0  0  0  0
  158.6090  213.7870  148.1410 C   0  0  0  0  0  0  0  0  0  0  0  0
  160.7910  213.3100  149.2190 C   0  0  0  0  0  2  0  0  0  0  0  0
  160.8000  212.1900  145.7510 O   0  0  0  0  0  0  0  0  0  0  0  0
  157.5430  214.4530  148.1820 O   0  0  0  0  0  0  0  0  0  0  0  0
  159.2770  213.3620  149.4140 C   0  0  0  0  0  2  0  0  0  0  0  0
  160.3860  212.6700  146.8400 C   0  0  0  0  0  0  0  0  0  0  0  0
  161.1350  212.4970  148.0510 N   0  0  0  0  0  0  0  0  0  0  0  0
  159.1480  213.3800  146.8800 N   0  0  0  0  0  2  0  0  0  0  0  0
  1 15  1  0  0  0  0
  2 13  2  0  0  0  0
  2  3  1  0  0  0  0
  3 20  1  0  0  0  0
  4 16  2  0  0  0  0
  5  2  1  0  0  0  0
  6 18  1  0  0  0  0
  6  1  2  0  0  0  0
  7  3  2  0  0  0  0
  7  4  1  0  0  0  0
  8 14  1  0  0  0  0
  8 13  1  0  0  0  0
  9  1  1  0  0  0  0
 11  4  1  0  0  0  0
 12  8  2  0  0  0  0
 13 19  1  0  0  0  0
 15  5  2  0  0  0  0
 16 21  1  0  0  0  0
 17 12  1  0  0  0  0
 17  5  1  0  0  0  0
 18 17  2  0  0  0  0
 19 10  2  0  0  0  0
 20 10  1  0  0  0  0
 20 21  2  0  0  0  0
 23 22  1  1  0  0  0
 23 14  1  0  0  0  0
 24 27  2  0  0  0  0
 24 28  1  0  0  0  0
 25 28  1  0  0  0  0
 26 29  2  0  0  0  0
 29 31  1  0  0  0  0
 29 30  1  0  0  0  0
 30 23  1  0  0  0  0
 30 25  1  0  0  0  0
 31 24  1  0  0  0  0
M  END
>  <MODEL>
4

>  <REMARK>
 VINA RESULT:      -9.7      1.558      4.376
  Name = 
  2 active torsions:
  status: ('A' for Active; 'I' for Inactive)
    1  A    between atoms: C_5  and  N_16
    2  A    between atoms: C_5  and  N_30
                            x       y       z     vdW  Elec       q    Type
                         _______ _______ _______ _____ _____    ______ ____

>  <TORSDO>
F 2

$$$$
=
 OpenBabel11122413183D

 31 35  0  0  1  0  0  0  0  0999 V2000
  161.8870  207.4080  147.6500 C   0  0  0  0  0  0  0  0  0  0  0  0
  161.3240  206.3040  151.2090 C   0  0  0  0  0  0  0  0  0  0  0  0
  161.1480  204.8820  151.1790 C   0  0  0  0  0  0  0  0  0  0  0  0
  161.0190  202.7480  149.9900 C   0  0  0  0  0  0  0  0  0  0  0  0
  161.5640  207.1130  150.0540 C   0  0  0  0  0  0  0  0  0  0  0  0
  162.0400  208.7830  147.8240 C   0  0  0  0  0  3  0  0  0  0  0  0
  161.1950  204.1340  149.9880 C   0  0  0  0  0  3  0  0  0  0  0  0
  161.4240  208.3520  152.5620 C   0  0  0  0  0  0  0  0  0  0  0  0
  161.9690  206.8570  146.3780 O   0  0  0  0  0  1  0  0  0  0  0  0
  160.8560  204.8510  153.6020 C   0  0  0  0  0  3  0  0  0  0  0  0
  161.0720  202.0420  148.7960 O   0  0  0  0  0  1  0  0  0  0  0  0
  161.6480  209.0790  151.4390 N   0  0  0  0  0  0  0  0  0  0  0  0
  161.2570  206.9600  152.4740 C   0  0  0  0  0  0  0  0  0  0  0  0
  161.3530  209.0100  153.8310 N   0  0  0  0  0  2  0  0  0  0  0  0
  161.6520  206.5860  148.7530 C   0  0  0  0  0  3  0  0  0  0  0  0
  160.7910  202.0760  151.1890 C   0  0  0  0  0  3  0  0  0  0  0  0
  161.7220  208.5130  150.2120 C   0  0  0  0  0  0  0  0  0  0  0  0
  161.9570  209.3330  149.1030 C   0  0  0  0  0  3  0  0  0  0  0  0
  161.0250  206.2270  153.6430 C   0  0  0  0  0  3  0  0  0  0  0  0
  160.9140  204.1760  152.3900 C   0  0  0  0  0  0  0  0  0  0  0  0
  160.7390  202.7890  152.3860 C   0  0  0  0  0  3  0  0  0  0  0  0
  162.4060  210.6990  155.0570 O   0  0  0  0  0  1  0  0  0  0  0  0
  161.5410  210.4450  153.9900 C   0  0  2  0  0  3  0  0  0  0  0  0
  157.4740  211.5870  154.4860 C   0  0  0  0  0  0  0  0  0  0  0  0
  159.6500  211.0750  155.5580 C   0  0  0  0  0  2  0  0  0  0  0  0
  160.1240  211.9800  152.0600 O   0  0  0  0  0  0  0  0  0  0  0  0
  156.2660  211.8960  154.6590 O   0  0  0  0  0  0  0  0  0  0  0  0
  158.1710  210.7030  155.4750 C   0  0  0  0  0  2  0  0  0  0  0  0
  159.5450  211.7170  153.1480 C   0  0  0  0  0  0  0  0  0  0  0  0
  160.2550  211.0910  154.2250 N   0  0  0  0  0  0  0  0  0  0  0  0
  158.1610  212.0270  153.3110 N   0  0  0  0  0  2  0  0  0  0  0  0
  1  6  2  0  0  0  0
  1 15  1  0  0  0  0
  2 13  1  0  0  0  0
  3  2  2  0  0  0  0
  3 20  1  0  0  0  0
  4 16  1  0  0  0  0
  5 17  1  0  0  0  0
  5  2  1  0  0  0  0
  6 18  1  0  0  0  0
  7  4  2  0  0  0  0
  7  3  1  0  0  0  0
  8 14  1  0  0  0  0
  9  1  1  0  0  0  0
 10 19  1  0  0  0  0
 11  4  1  0  0  0  0
 12  8  2  0  0  0  0
 13  8  1  0  0  0  0
 13 19  2  0  0  0  0
 14 23  1  0  0  0  0
 15  5  2  0  0  0  0
 16 21  2  0  0  0  0
 17 12  1  0  0  0  0
 18 17  2  0  0  0  0
 20 10  2  0  0  0  0
 21 20  1  0  0  0  0
 23 30  1  0  0  0  0
 23 22  1  1  0  0  0
 24 27  2  0  0  0  0
 24 28  1  0  0  0  0
 26 29  2  0  0  0  0
 28 25  1  0  0  0  0
 29 31  1  0  0  0  0
 29 30  1  0  0  0  0
 30 25  1  0  0  0  0
 31 24  1  0  0  0  0
M  END
>  <MODEL>
5

>  <REMARK>
 VINA RESULT:      -9.7      3.390      5.720
  Name = 
  2 active torsions:
  status: ('A' for Active; 'I' for Inactive)
    1  A    between atoms: C_5  and  N_16
    2  A    between atoms: C_5  and  N_30
                            x       y       z     vdW  Elec       q    Type
                         _______ _______ _______ _____ _____    ______ ____

>  <TORSDO>
F 2

$$$$
=
 OpenBabel11122413183D

 31 35  0  0  1  0  0  0  0  0999 V2000
  160.8740  201.8820  150.5580 C   0  0  0  0  0  0  0  0  0  0  0  0
  161.2560  205.4190  149.3140 C   0  0  0  0  0  0  0  0  0  0  0  0
  161.3110  205.3520  147.8830 C   0  0  0  0  0  0  0  0  0  0  0  0
  161.2860  204.1040  145.7790 C   0  0  0  0  0  0  0  0  0  0  0  0
  161.1140  204.2840  150.1710 C   0  0  0  0  0  0  0  0  0  0  0  0
  160.8360  202.0930  151.9360 C   0  0  0  0  0  3  0  0  0  0  0  0
  161.2290  204.1390  147.1740 C   0  0  0  0  0  3  0  0  0  0  0  0
  161.3010  206.8280  151.3250 C   0  0  0  0  0  0  0  0  0  0  0  0
  160.7760  200.5930  150.0510 O   0  0  0  0  0  1  0  0  0  0  0  0
  161.5420  207.7790  147.7620 C   0  0  0  0  0  3  0  0  0  0  0  0
  161.2010  202.8900  145.1120 O   0  0  0  0  0  1  0  0  0  0  0  0
  161.1660  205.7230  152.0990 N   0  0  0  0  0  0  0  0  0  0  0  0
  161.3500  206.7030  149.9270 C   0  0  0  0  0  0  0  0  0  0  0  0
  161.3970  208.1180  151.9400 N   0  0  0  0  0  2  0  0  0  0  0  0
  161.0120  202.9660  149.6890 C   0  0  0  0  0  3  0  0  0  0  0  0
  161.4270  205.2880  145.0580 C   0  0  0  0  0  3  0  0  0  0  0  0
  161.0730  204.4780  151.5750 C   0  0  0  0  0  0  0  0  0  0  0  0
  160.9350  203.3890  152.4420 C   0  0  0  0  0  3  0  0  0  0  0  0
  161.4910  207.8560  149.1460 C   0  0  0  0  0  3  0  0  0  0  0  0
  161.4550  206.5460  147.1270 C   0  0  0  0  0  0  0  0  0  0  0  0
  161.5110  206.5060  145.7300 C   0  0  0  0  0  3  0  0  0  0  0  0
  160.6970  207.2230  153.9830 O   0  0  0  0  0  1  0  0  0  0  0  0
  161.3290  208.3140  153.3820 C   0  0  2  0  0  3  0  0  0  0  0  0
  159.8710  212.2700  153.9420 C   0  0  0  0  0  0  0  0  0  0  0  0
  159.7150  210.1400  152.6820 C   0  0  0  0  0  2  0  0  0  0  0  0
  161.3090  209.6060  155.9150 O   0  0  0  0  0  0  0  0  0  0  0  0
  159.4450  213.4470  154.0680 O   0  0  0  0  0  0  0  0  0  0  0  0
  159.9540  211.6450  152.5810 C   0  0  0  0  0  2  0  0  0  0  0  0
  160.7710  210.2010  154.9440 C   0  0  0  0  0  0  0  0  0  0  0  0
  160.6010  209.5410  153.6820 N   0  0  0  0  0  0  0  0  0  0  0  0
  160.3380  211.5540  155.0880 N   0  0  0  0  0  2  0  0  0  0  0  0
  1  6  1  0  0  0  0
  2 13  1  0  0  0  0
  2  5  1  0  0  0  0
  3  2  2  0  0  0  0
  4  7  2  0  0  0  0
  5 17  2  0  0  0  0
  6 18  2  0  0  0  0
  7  3  1  0  0  0  0
  8 14  1  0  0  0  0
  8 12  2  0  0  0  0
  9  1  1  0  0  0  0
 10 19  1  0  0  0  0
 11  4  1  0  0  0  0
 13  8  1  0  0  0  0
 14 23  1  0  0  0  0
 15  5  1  0  0  0  0
 15  1  2  0  0  0  0
 16 21  2  0  0  0  0
 16  4  1  0  0  0  0
 17 12  1  0  0  0  0
 17 18  1  0  0  0  0
 19 13  2  0  0  0  0
 20 10  2  0  0  0  0
 20  3  1  0  0  0  0
 21 20  1  0  0  0  0
 23 30  1  0  0  0  0
 23 22  1  1  0  0  0
 24 27  2  0  0  0  0
 24 31  1  0  0  0  0
 25 30  1  0  0  0  0
 28 25  1  0  0  0  0
 28 24  1  0  0  0  0
 29 31  1  0  0  0  0
 29 26  2  0  0  0  0
 30 29  1  0  0  0  0
M  END
>  <MODEL>
6

>  <REMARK>
 VINA RESULT:      -9.5      3.645      4.572
  Name = 
  2 active torsions:
  status: ('A' for Active; 'I' for Inactive)
    1  A    between atoms: C_5  and  N_16
    2  A    between atoms: C_5  and  N_30
                            x       y       z     vdW  Elec       q    Type
                         _______ _______ _______ _____ _____    ______ ____

>  <TORSDO>
F 2

$$$$
=
 OpenBabel11122413183D

 31 35  0  0  1  0  0  0  0  0999 V2000
  161.2060  208.5530  154.0010 C   0  0  0  0  0  0  0  0  0  0  0  0
  161.4520  207.7170  150.3340 C   0  0  0  0  0  0  0  0  0  0  0  0
  161.2400  206.3040  150.2160 C   0  0  0  0  0  0  0  0  0  0  0  0
  160.7920  204.1010  151.1800 C   0  0  0  0  0  0  0  0  0  0  0  0
  161.4380  208.4350  151.5710 C   0  0  0  0  0  0  0  0  0  0  0  0
  161.4280  209.9290  153.9700 C   0  0  0  0  0  3  0  0  0  0  0  0
  160.9940  205.4750  151.3260 C   0  0  0  0  0  3  0  0  0  0  0  0
  161.9070  209.8460  149.1970 C   0  0  0  0  0  0  0  0  0  0  0  0
  160.9790  207.9140  155.2130 O   0  0  0  0  0  1  0  0  0  0  0  0
  161.5140  206.4500  147.7950 C   0  0  0  0  0  3  0  0  0  0  0  0
  160.5510  203.3140  152.2970 O   0  0  0  0  0  1  0  0  0  0  0  0
  161.8860  210.4860  150.3940 N   0  0  0  0  0  0  0  0  0  0  0  0
  161.6940  208.4590  149.1410 C   0  0  0  0  0  0  0  0  0  0  0  0
  162.1520  210.5900  147.9990 N   0  0  0  0  0  2  0  0  0  0  0  0
  161.2120  207.8180  152.8140 C   0  0  0  0  0  3  0  0  0  0  0  0
  160.8310  203.5220  149.9130 C   0  0  0  0  0  3  0  0  0  0  0  0
  161.6630  209.8350  151.5590 C   0  0  0  0  0  0  0  0  0  0  0  0
  161.6560  210.5680  152.7510 C   0  0  0  0  0  3  0  0  0  0  0  0
  161.7210  207.8170  147.8970 C   0  0  0  0  0  3  0  0  0  0  0  0
  161.2760  205.6920  148.9340 C   0  0  0  0  0  0  0  0  0  0  0  0
  161.0720  204.3150  148.7930 C   0  0  0  0  0  3  0  0  0  0  0  0
  163.2390  212.3950  149.0110 O   0  0  0  0  0  1  0  0  0  0  0  0
  162.3560  212.0320  147.9910 C   0  0  2  0  0  3  0  0  0  0  0  0
  158.4050  213.3270  148.8890 C   0  0  0  0  0  0  0  0  0  0  0  0
  160.8310  213.5210  149.3650 C   0  0  0  0  0  2  0  0  0  0  0  0
  160.2820  212.1180  146.0470 O   0  0  0  0  0  0  0  0  0  0  0  0
  157.2440  213.7030  149.1930 O   0  0  0  0  0  0  0  0  0  0  0  0
  159.4560  213.2070  149.9510 C   0  0  0  0  0  2  0  0  0  0  0  0
  160.0370  212.5780  147.1940 C   0  0  0  0  0  0  0  0  0  0  0  0
  161.0800  212.7150  148.1680 N   0  0  0  0  0  0  0  0  0  0  0  0
  158.7040  212.9530  147.5420 N   0  0  0  0  0  2  0  0  0  0  0  0
  1  9  1  0  0  0  0
  2  5  1  0  0  0  0
  3  2  1  0  0  0  0
  3  7  1  0  0  0  0
  4  7  2  0  0  0  0
  4 11  1  0  0  0  0
  5 15  1  0  0  0  0
  6  1  1  0  0  0  0
  8 12  2  0  0  0  0
 10 19  2  0  0  0  0
 10 20  1  0  0  0  0
 12 17  1  0  0  0  0
 13  8  1  0  0  0  0
 13  2  2  0  0  0  0
 14  8  1  0  0  0  0
 15  1  2  0  0  0  0
 16  4  1  0  0  0  0
 17  5  2  0  0  0  0
 17 18  1  0  0  0  0
 18  6  2  0  0  0  0
 19 13  1  0  0  0  0
 20  3  2  0  0  0  0
 21 20  1  0  0  0  0
 21 16  2  0  0  0  0
 23 14  1  0  0  0  0
 23 30  1  0  0  0  0
 23 22  1  1  0  0  0
 24 27  2  0  0  0  0
 24 28  1  0  0  0  0
 25 28  1  0  0  0  0
 26 29  2  0  0  0  0
 29 31  1  0  0  0  0
 29 30  1  0  0  0  0
 30 25  1  0  0  0  0
 31 24  1  0  0  0  0
M  END
>  <MODEL>
7

>  <REMARK>
 VINA RESULT:      -9.3      2.162      3.321
  Name = 
  2 active torsions:
  status: ('A' for Active; 'I' for Inactive)
    1  A    between atoms: C_5  and  N_16
    2  A    between atoms: C_5  and  N_30
                            x       y       z     vdW  Elec       q    Type
                         _______ _______ _______ _____ _____    ______ ____

>  <TORSDO>
F 2

$$$$
=
 OpenBabel11122413183D

 31 35  0  0  1  0  0  0  0  0999 V2000
  161.9520  210.0310  149.2170 C   0  0  0  0  0  0  0  0  0  0  0  0
  161.4100  206.8880  151.2250 C   0  0  0  0  0  0  0  0  0  0  0  0
  161.2530  205.8170  150.2850 C   0  0  0  0  0  0  0  0  0  0  0  0
  161.1510  204.9490  148.0000 C   0  0  0  0  0  0  0  0  0  0  0  0
  161.6370  208.2530  150.8650 C   0  0  0  0  0  0  0  0  0  0  0  0
  162.0860  210.9720  150.2380 C   0  0  0  0  0  3  0  0  0  0  0  0
  161.3080  206.0120  148.8930 C   0  0  0  0  0  3  0  0  0  0  0  0
  161.4840  207.5840  153.5800 C   0  0  0  0  0  0  0  0  0  0  0  0
  162.0390  210.4300  147.8900 O   0  0  0  0  0  1  0  0  0  0  0  0
  160.9660  204.2300  152.1170 C   0  0  0  0  0  3  0  0  0  0  0  0
  161.2120  205.1780  146.6330 O   0  0  0  0  0  1  0  0  0  0  0  0
  161.6960  208.8670  153.1910 N   0  0  0  0  0  0  0  0  0  0  0  0
  161.3360  206.5740  152.6140 C   0  0  0  0  0  0  0  0  0  0  0  0
  161.4070  207.2690  154.9740 N   0  0  0  0  0  2  0  0  0  0  0  0
  161.7300  208.6890  149.5310 C   0  0  0  0  0  3  0  0  0  0  0  0
  160.9340  203.6600  148.4830 C   0  0  0  0  0  3  0  0  0  0  0  0
  161.7760  209.2250  151.8880 C   0  0  0  0  0  0  0  0  0  0  0  0
  161.9980  210.5690  151.5690 C   0  0  0  0  0  3  0  0  0  0  0  0
  161.1160  205.2580  153.0360 C   0  0  0  0  0  3  0  0  0  0  0  0
  161.0310  204.4950  150.7550 C   0  0  0  0  0  0  0  0  0  0  0  0
  160.8750  203.4340  149.8580 C   0  0  0  0  0  3  0  0  0  0  0  0
  161.2230  207.7260  157.2590 O   0  0  0  0  0  1  0  0  0  0  0  0
  161.5750  208.2680  156.0210 C   0  0  2  0  0  3  0  0  0  0  0  0
  159.2450  211.4310  154.3910 C   0  0  0  0  0  0  0  0  0  0  0  0
  159.2900  209.3130  155.6810 C   0  0  0  0  0  2  0  0  0  0  0  0
  162.5600  210.9210  155.7370 O   0  0  0  0  0  0  0  0  0  0  0  0
  158.5320  212.3400  153.8920 O   0  0  0  0  0  0  0  0  0  0  0  0
  158.7330  210.0230  154.4480 C   0  0  0  0  0  2  0  0  0  0  0  0
  161.3500  210.7060  155.4580 C   0  0  0  0  0  0  0  0  0  0  0  0
  160.7480  209.4330  155.7330 N   0  0  0  0  0  0  0  0  0  0  0  0
  160.5680  211.7310  154.8450 N   0  0  0  0  0  2  0  0  0  0  0  0
  1 15  2  0  0  0  0
  1  6  1  0  0  0  0
  2 13  1  0  0  0  0
  3 20  1  0  0  0  0
  3  2  2  0  0  0  0
  4 16  1  0  0  0  0
  4  7  2  0  0  0  0
  5  2  1  0  0  0  0
  5 17  2  0  0  0  0
  6 18  2  0  0  0  0
  7  3  1  0  0  0  0
  8 14  1  0  0  0  0
  9  1  1  0  0  0  0
 10 19  1  0  0  0  0
 11  4  1  0  0  0  0
 12  8  2  0  0  0  0
 13 19  2  0  0  0  0
 13  8  1  0  0  0  0
 14 23  1  0  0  0  0
 15  5  1  0  0  0  0
 16 21  2  0  0  0  0
 17 12  1  0  0  0  0
 18 17  1  0  0  0  0
 20 10  2  0  0  0  0
 21 20  1  0  0  0  0
 23 22  1  1  0  0  0
 24 28  1  0  0  0  0
 24 31  1  0  0  0  0
 25 30  1  0  0  0  0
 27 24  2  0  0  0  0
 28 25  1  0  0  0  0
 29 30  1  0  0  0  0
 29 26  2  0  0  0  0
 30 23  1  0  0  0  0
 31 29  1  0  0  0  0
M  END
>  <MODEL>
8

>  <REMARK>
 VINA RESULT:      -9.0      3.339      6.039
  Name = 
  2 active torsions:
  status: ('A' for Active; 'I' for Inactive)
    1  A    between atoms: C_5  and  N_16
    2  A    between atoms: C_5  and  N_30
                            x       y       z     vdW  Elec       q    Type
                         _______ _______ _______ _____ _____    ______ ____

>  <TORSDO>
F 2

$$$$
=
 OpenBabel11122413183D

 31 35  0  0  1  0  0  0  0  0999 V2000
  161.3060  205.2950  148.7810 C   0  0  0  0  0  0  0  0  0  0  0  0
  161.5070  208.3930  150.9180 C   0  0  0  0  0  0  0  0  0  0  0  0
  161.3170  207.9740  152.2750 C   0  0  0  0  0  0  0  0  0  0  0  0
  160.9210  206.2510  153.9660 C   0  0  0  0  0  0  0  0  0  0  0  0
  161.5010  207.5120  149.7910 C   0  0  0  0  0  0  0  0  0  0  0  0
  161.5030  205.8400  147.5130 C   0  0  0  0  0  3  0  0  0  0  0  0
  161.1030  206.6300  152.6340 C   0  0  0  0  0  3  0  0  0  0  0  0
  161.9080  210.2490  149.3590 C   0  0  0  0  0  0  0  0  0  0  0  0
  161.1100  203.9280  148.9260 O   0  0  0  0  0  1  0  0  0  0  0  0
  161.5480  210.2810  153.0370 C   0  0  0  0  0  3  0  0  0  0  0  0
  160.7120  204.9170  154.2840 O   0  0  0  0  0  1  0  0  0  0  0  0
  161.8930  209.3760  148.3200 N   0  0  0  0  0  0  0  0  0  0  0  0
  161.7160  209.7820  150.6700 C   0  0  0  0  0  0  0  0  0  0  0  0
  162.1150  211.6430  149.1100 N   0  0  0  0  0  2  0  0  0  0  0  0
  161.3060  206.1240  149.9040 C   0  0  0  0  0  3  0  0  0  0  0  0
  160.9480  207.2130  154.9740 C   0  0  0  0  0  3  0  0  0  0  0  0
  161.6990  208.0470  148.4930 C   0  0  0  0  0  0  0  0  0  0  0  0
  161.6990  207.2130  147.3710 C   0  0  0  0  0  3  0  0  0  0  0  0
  161.7330  210.6980  151.7270 C   0  0  0  0  0  3  0  0  0  0  0  0
  161.3410  208.9370  153.3190 C   0  0  0  0  0  0  0  0  0  0  0  0
  161.1590  208.5530  154.6510 C   0  0  0  0  0  3  0  0  0  0  0  0
  163.5260  212.9270  147.7600 O   0  0  0  0  0  1  0  0  0  0  0  0
  162.3440  212.1840  147.7770 C   0  0  2  0  0  3  0  0  0  0  0  0
  158.6250  213.9350  146.6810 C   0  0  0  0  0  0  0  0  0  0  0  0
  160.3970  213.6860  148.3980 C   0  0  0  0  0  2  0  0  0  0  0  0
  161.6870  212.8550  145.0930 O   0  0  0  0  0  0  0  0  0  0  0  0
  157.5100  214.4390  146.3920 O   0  0  0  0  0  0  0  0  0  0  0  0
  158.9110  213.5080  148.0900 C   0  0  0  0  0  2  0  0  0  0  0  0
  160.8770  213.1850  146.0000 C   0  0  0  0  0  0  0  0  0  0  0  0
  161.2190  213.0240  147.3830 N   0  0  0  0  0  0  0  0  0  0  0  0
  159.5940  213.7090  145.6550 N   0  0  0  0  0  2  0  0  0  0  0  0
  1  9  1  0  0  0  0
  1 15  1  0  0  0  0
  2  3  1  0  0  0  0
  3  7  2  0  0  0  0
  3 20  1  0  0  0  0
  4 11  1  0  0  0  0
  4 16  2  0  0  0  0
  5 15  2  0  0  0  0
  5  2  1  0  0  0  0
  6  1  2  0  0  0  0
  7  4  1  0  0  0  0
  8 13  1  0  0  0  0
 10 20  1  0  0  0  0
 12 17  1  0  0  0  0
 12  8  2  0  0  0  0
 13  2  2  0  0  0  0
 13 19  1  0  0  0  0
 14  8  1  0  0  0  0
 17  5  1  0  0  0  0
 18  6  1  0  0  0  0
 18 17  2  0  0  0  0
 19 10  2  0  0  0  0
 20 21  2  0  0  0  0
 21 16  1  0  0  0  0
 23 22  1  1  0  0  0
 23 14  1  0  0  0  0
 24 28  1  0  0  0  0
 26 29  2  0  0  0  0
 27 24  2  0  0  0  0
 28 25  1  0  0  0  0
 29 30  1  0  0  0  0
 30 23  1  0  0  0  0
 30 25  1  0  0  0  0
 31 29  1  0  0  0  0
 31 24  1  0  0  0  0
M  END
>  <MODEL>
9

>  <REMARK>
 VINA RESULT:      -8.8      1.848      4.972
  Name = 
  2 active torsions:
  status: ('A' for Active; 'I' for Inactive)
    1  A    between atoms: C_5  and  N_16
    2  A    between atoms: C_5  and  N_30
                            x       y       z     vdW  Elec       q    Type
                         _______ _______ _______ _____ _____    ______ ____

>  <TORSDO>
F 2

$$$$
