=
 OpenBabel11122414063D

 28 31  0  0  1  0  0  0  0  0999 V2000
  158.2210  211.9190  153.6370 C   0  0  0  0  0  0  0  0  0  0  0  0
  160.2680  209.4920  151.3840 O   0  0  0  0  0  0  0  0  0  0  0  0
  159.1390  214.0390  152.0570 C   0  0  0  0  0  3  0  0  0  0  0  0
  157.7770  210.8640  154.4350 O   0  0  0  0  0  0  0  0  0  0  0  0
  162.4870  209.9620  152.3510 O   0  0  0  0  0  0  0  0  0  0  0  0
  161.1660  209.2760  152.5680 S   0  0  0  0  0  0  0  0  0  0  0  0
  161.2340  207.0240  153.9690 C   0  0  0  0  0  0  0  0  0  0  0  0
  160.3950  209.8650  153.9970 N   0  0  1  0  0  0  0  0  0  0  0  0
  157.0040  213.2100  156.3170 O   0  0  0  0  0  1  0  0  0  0  0  0
  160.6990  211.4940  155.7310 C   0  0  2  0  0  3  0  0  0  0  0  0
  160.7420  207.7780  155.1900 C   0  0  0  0  0  2  0  0  0  0  0  0
  161.4150  207.5880  152.8170 N   0  0  0  0  0  0  0  0  0  0  0  0
  157.1690  211.8480  156.5790 C   0  0  2  0  0  3  0  0  0  0  0  0
  159.6030  212.1290  153.4780 C   0  0  0  0  0  0  0  0  0  0  0  0
  161.4380  205.6880  154.0820 F   0  0  0  0  0  0  0  0  0  0  0  0
  158.5980  211.5350  157.0370 C   0  0  0  0  0  2  0  0  0  0  0  0
  160.0530  213.1930  152.6890 C   0  0  0  0  0  3  0  0  0  0  0  0
  157.3070  212.7780  153.0100 C   0  0  0  0  0  3  0  0  0  0  0  0
  157.7670  213.8340  152.2190 C   0  0  0  0  0  3  0  0  0  0  0  0
  156.7250  211.0080  155.3800 C   0  0  0  0  0  2  0  0  0  0  0  0
  160.8410  210.0830  156.3170 C   0  0  1  0  0  3  0  0  0  0  0  0
  159.5940  212.3100  156.2830 N   0  0  0  0  0  0  0  0  0  0  0  0
  161.1150  209.2490  155.0890 C   0  0  2  0  0  3  0  0  0  0  0  0
  160.6230  211.2880  154.2020 C   0  0  2  0  0  3  0  0  0  0  0  0
  160.0610  214.4310  156.5150 C   0  0  0  0  0  1  0  0  0  0  0  0
  160.1480  213.1900  157.1520 O   0  0  0  0  0  0  0  0  0  0  0  0
  162.0300  210.0130  157.2610 C   0  0  0  0  0  2  0  0  0  0  0  0
  163.2180  210.7500  156.6720 C   0  0  0  0  0  1  0  0  0  0  0  0
  1  4  1  0  0  0  0
  2  6  2  0  0  0  0
  3 19  2  0  0  0  0
  3 17  1  0  0  0  0
  4 20  1  0  0  0  0
  5  6  2  0  0  0  0
  6 12  1  0  0  0  0
  7 15  1  0  0  0  0
  7 11  1  0  0  0  0
  8  6  1  6  0  0  0
  8 24  1  0  0  0  0
  8 23  1  0  0  0  0
 10 22  1  1  0  0  0
 10 21  1  0  0  0  0
 12  7  2  0  0  0  0
 13  9  1  6  0  0  0
 13 16  1  0  0  0  0
 14  1  1  0  0  0  0
 17 14  2  0  0  0  0
 18  1  2  0  0  0  0
 19 18  1  0  0  0  0
 20 13  1  0  0  0  0
 21 27  1  1  0  0  0
 22 16  1  0  0  0  0
 22 26  1  0  0  0  0
 23 11  1  1  0  0  0
 23 21  1  0  0  0  0
 24 14  1  1  0  0  0
 24 10  1  0  0  0  0
 25 26  1  0  0  0  0
 28 27  1  0  0  0  0
M  END
>  <MODEL>
1

>  <REMARK>
 VINA RESULT:      -4.5      0.000      0.000
  Name = 
  2 active torsions:
  status: ('A' for Active; 'I' for Inactive)
    1  A    between atoms: C_5  and  C_24
    2  A    between atoms: O_17  and  N_25
                            x       y       z     vdW  Elec       q    Type
                         _______ _______ _______ _____ _____    ______ ____

>  <TORSDO>
F 2

$$$$
=
 OpenBabel11122414063D

 28 31  0  0  1  0  0  0  0  0999 V2000
  161.3770  211.2160  139.2140 C   0  0  0  0  0  0  0  0  0  0  0  0
  163.0720  212.1330  142.5960 O   0  0  0  0  0  0  0  0  0  0  0  0
  163.3860  212.6570  137.9020 C   0  0  0  0  0  3  0  0  0  0  0  0
  160.3650  210.5110  139.8680 O   0  0  0  0  0  0  0  0  0  0  0  0
  162.2510  214.4530  142.7390 O   0  0  0  0  0  0  0  0  0  0  0  0
  161.8780  213.0020  142.8690 S   0  0  0  0  0  0  0  0  0  0  0  0
  160.0240  212.4270  144.6770 C   0  0  0  0  0  0  0  0  0  0  0  0
  160.6030  212.5960  141.7760 N   0  0  1  0  0  0  0  0  0  0  0  0
  159.0270  210.7320  137.0740 O   0  0  0  0  0  1  0  0  0  0  0  0
  159.2650  213.5730  140.0420 C   0  0  2  0  0  3  0  0  0  0  0  0
  158.9900  212.3210  143.5720 C   0  0  0  0  0  2  0  0  0  0  0  0
  161.2730  212.6900  144.4520 N   0  0  0  0  0  0  0  0  0  0  0  0
  158.4780  210.4510  138.3280 C   0  0  2  0  0  3  0  0  0  0  0  0
  161.5910  212.5690  139.5300 C   0  0  0  0  0  0  0  0  0  0  0  0
  159.6270  212.1790  145.9500 F   0  0  0  0  0  0  0  0  0  0  0  0
  157.9770  211.7260  139.0180 C   0  0  0  0  0  2  0  0  0  0  0  0
  162.5950  213.2830  138.8680 C   0  0  0  0  0  3  0  0  0  0  0  0
  162.1650  210.5940  138.2350 C   0  0  0  0  0  3  0  0  0  0  0  0
  163.1710  211.3130  137.5840 C   0  0  0  0  0  3  0  0  0  0  0  0
  159.4630  209.6520  139.1830 C   0  0  0  0  0  2  0  0  0  0  0  0
  158.3890  213.2820  141.2680 C   0  0  1  0  0  3  0  0  0  0  0  0
  158.8910  212.8570  138.8020 N   0  0  0  0  0  0  0  0  0  0  0  0
  159.4100  213.1570  142.3730 C   0  0  2  0  0  3  0  0  0  0  0  0
  160.7120  213.3050  140.5100 C   0  0  2  0  0  3  0  0  0  0  0  0
  159.2350  214.3310  137.2270 C   0  0  0  0  0  1  0  0  0  0  0  0
  158.2380  213.7450  138.0130 O   0  0  0  0  0  0  0  0  0  0  0  0
  157.4640  214.4530  141.5550 C   0  0  0  0  0  2  0  0  0  0  0  0
  156.1680  214.3070  140.7830 C   0  0  0  0  0  1  0  0  0  0  0  0
  1 14  1  0  0  0  0
  1  4  1  0  0  0  0
  2  6  2  0  0  0  0
  3 17  1  0  0  0  0
  5  6  2  0  0  0  0
  6 12  1  0  0  0  0
  7 15  1  0  0  0  0
  8 23  1  0  0  0  0
  8  6  1  1  0  0  0
 10 22  1  6  0  0  0
 10 24  1  0  0  0  0
 10 21  1  0  0  0  0
 11  7  1  0  0  0  0
 12  7  2  0  0  0  0
 13  9  1  6  0  0  0
 13 16  1  0  0  0  0
 13 20  1  0  0  0  0
 17 14  2  0  0  0  0
 18  1  2  0  0  0  0
 19  3  2  0  0  0  0
 19 18  1  0  0  0  0
 20  4  1  0  0  0  0
 21 27  1  1  0  0  0
 21 23  1  0  0  0  0
 22 16  1  0  0  0  0
 23 11  1  1  0  0  0
 24 14  1  6  0  0  0
 24  8  1  0  0  0  0
 25 26  1  0  0  0  0
 26 22  1  0  0  0  0
 28 27  1  0  0  0  0
M  END
>  <MODEL>
2

>  <REMARK>
 VINA RESULT:      -2.8     12.369     15.043
  Name = 
  2 active torsions:
  status: ('A' for Active; 'I' for Inactive)
    1  A    between atoms: C_5  and  C_24
    2  A    between atoms: O_17  and  N_25
                            x       y       z     vdW  Elec       q    Type
                         _______ _______ _______ _____ _____    ______ ____

>  <TORSDO>
F 2

$$$$
=
 OpenBabel11122414063D

 28 31  0  0  1  0  0  0  0  0999 V2000
  158.9510  213.6820  141.2470 C   0  0  0  0  0  0  0  0  0  0  0  0
  162.8030  214.1930  141.4730 O   0  0  0  0  0  0  0  0  0  0  0  0
  158.9950  212.7480  143.8850 C   0  0  0  0  0  3  0  0  0  0  0  0
  158.9300  214.1320  139.9250 O   0  0  0  0  0  0  0  0  0  0  0  0
  163.4500  211.8300  141.1960 O   0  0  0  0  0  0  0  0  0  0  0  0
  162.9320  213.0580  140.4980 S   0  0  0  0  0  0  0  0  0  0  0  0
  163.6740  213.3680  137.9710 C   0  0  0  0  0  0  0  0  0  0  0  0
  161.4000  212.7470  139.7640 N   0  0  1  0  0  0  0  0  0  0  0  0
  156.1080  212.8380  140.0060 O   0  0  0  0  0  1  0  0  0  0  0  0
  159.7650  211.0040  139.5520 C   0  0  2  0  0  3  0  0  0  0  0  0
  162.3170  212.8620  137.5170 C   0  0  0  0  0  2  0  0  0  0  0  0
  163.9980  213.5000  139.2180 N   0  0  0  0  0  0  0  0  0  0  0  0
  156.9160  213.1950  138.9240 C   0  0  2  0  0  3  0  0  0  0  0  0
  159.7690  212.5920  141.5920 C   0  0  0  0  0  0  0  0  0  0  0  0
  164.5630  213.7510  137.0200 F   0  0  0  0  0  0  0  0  0  0  0  0
  157.7880  212.0200  138.4650 C   0  0  0  0  0  2  0  0  0  0  0  0
  159.7840  212.1290  142.9120 C   0  0  0  0  0  3  0  0  0  0  0  0
  158.1520  214.2920  142.2240 C   0  0  0  0  0  3  0  0  0  0  0  0
  158.1780  213.8280  143.5410 C   0  0  0  0  0  3  0  0  0  0  0  0
  157.7250  214.4530  139.2440 C   0  0  0  0  0  2  0  0  0  0  0  0
  160.4330  211.2540  138.1930 C   0  0  1  0  0  3  0  0  0  0  0  0
  158.3050  211.2480  139.6040 N   0  0  0  0  0  0  0  0  0  0  0  0
  161.7050  211.9670  138.5840 C   0  0  2  0  0  3  0  0  0  0  0  0
  160.5770  211.8470  140.5590 C   0  0  2  0  0  3  0  0  0  0  0  0
  157.2020  209.9220  138.2640 C   0  0  0  0  0  1  0  0  0  0  0  0
  157.7000  210.0350  139.5650 O   0  0  0  0  0  0  0  0  0  0  0  0
  160.7710  209.9370  137.5140 C   0  0  0  0  0  2  0  0  0  0  0  0
  160.9590  208.8420  138.5450 C   0  0  0  0  0  1  0  0  0  0  0  0
  1 14  2  0  0  0  0
  1 18  1  0  0  0  0
  4  1  1  0  0  0  0
  6  5  2  0  0  0  0
  6  2  2  0  0  0  0
  7 12  2  0  0  0  0
  8  6  1  1  0  0  0
  8 24  1  0  0  0  0
 10 22  1  6  0  0  0
 10 24  1  0  0  0  0
 11  7  1  0  0  0  0
 12  6  1  0  0  0  0
 13 20  1  0  0  0  0
 13  9  1  1  0  0  0
 14 17  1  0  0  0  0
 15  7  1  0  0  0  0
 16 13  1  0  0  0  0
 16 22  1  0  0  0  0
 17  3  2  0  0  0  0
 18 19  2  0  0  0  0
 19  3  1  0  0  0  0
 20  4  1  0  0  0  0
 21 27  1  1  0  0  0
 21 23  1  0  0  0  0
 21 10  1  0  0  0  0
 23 11  1  6  0  0  0
 23  8  1  0  0  0  0
 24 14  1  1  0  0  0
 25 26  1  0  0  0  0
 26 22  1  0  0  0  0
 27 28  1  0  0  0  0
M  END
>  <MODEL>
3

>  <REMARK>
 VINA RESULT:      -2.7     13.015     15.472
  Name = 
  2 active torsions:
  status: ('A' for Active; 'I' for Inactive)
    1  A    between atoms: C_5  and  C_24
    2  A    between atoms: O_17  and  N_25
                            x       y       z     vdW  Elec       q    Type
                         _______ _______ _______ _____ _____    ______ ____

>  <TORSDO>
F 2

$$$$
=
 OpenBabel11122414063D

 28 31  0  0  1  0  0  0  0  0999 V2000
  161.5600  208.9360  155.5010 C   0  0  0  0  0  0  0  0  0  0  0  0
  162.2710  206.7820  152.3370 O   0  0  0  0  0  0  0  0  0  0  0  0
  160.0350  206.8170  156.5090 C   0  0  0  0  0  3  0  0  0  0  0  0
  162.3070  210.0000  154.9910 O   0  0  0  0  0  0  0  0  0  0  0  0
  160.0920  207.1160  151.2340 O   0  0  0  0  0  0  0  0  0  0  0  0
  161.4100  207.7520  151.5800 S   0  0  0  0  0  0  0  0  0  0  0  0
  162.3600  209.5020  149.8280 C   0  0  0  0  0  0  0  0  0  0  0  0
  161.1750  209.1790  152.5240 N   0  0  1  0  0  0  0  0  0  0  0  0
  160.8380  211.5270  157.2610 O   0  0  0  0  0  1  0  0  0  0  0  0
  159.4230  210.4580  153.5470 C   0  0  2  0  0  3  0  0  0  0  0  0
  161.8810  210.6370  150.7130 C   0  0  0  0  0  2  0  0  0  0  0  0
  162.2150  208.2530  150.1400 N   0  0  0  0  0  0  0  0  0  0  0  0
  161.4960  211.9990  156.1230 C   0  0  2  0  0  3  0  0  0  0  0  0
  160.4790  208.4320  154.7550 C   0  0  0  0  0  0  0  0  0  0  0  0
  163.0170  209.8180  148.6840 F   0  0  0  0  0  0  0  0  0  0  0  0
  160.5260  212.1730  154.9470 C   0  0  0  0  0  2  0  0  0  0  0  0
  159.7200  207.3750  155.2680 C   0  0  0  0  0  3  0  0  0  0  0  0
  161.8660  208.3810  156.7520 C   0  0  0  0  0  3  0  0  0  0  0  0
  161.1060  207.3210  157.2520 C   0  0  0  0  0  3  0  0  0  0  0  0
  162.6960  211.1130  155.7850 C   0  0  0  0  0  2  0  0  0  0  0  0
  160.0320  211.2540  152.3840 C   0  0  1  0  0  3  0  0  0  0  0  0
  159.5450  211.0800  154.8840 N   0  0  0  0  0  0  0  0  0  0  0  0
  160.7200  210.1770  151.5800 C   0  0  2  0  0  3  0  0  0  0  0  0
  160.0580  209.0540  153.4480 C   0  0  2  0  0  3  0  0  0  0  0  0
  157.6530  210.6120  155.8700 C   0  0  0  0  0  1  0  0  0  0  0  0
  158.3370  211.6180  155.1820 O   0  0  0  0  0  0  0  0  0  0  0  0
  158.9400  211.9000  151.5480 C   0  0  0  0  0  2  0  0  0  0  0  0
  159.1550  213.3990  151.4630 C   0  0  0  0  0  1  0  0  0  0  0  0
  1 18  1  0  0  0  0
  3 19  1  0  0  0  0
  4  1  1  0  0  0  0
  4 20  1  0  0  0  0
  5  6  2  0  0  0  0
  6  2  2  0  0  0  0
  7 12  2  0  0  0  0
  7 11  1  0  0  0  0
  8  6  1  6  0  0  0
  8 24  1  0  0  0  0
 10 22  1  1  0  0  0
 12  6  1  0  0  0  0
 13  9  1  1  0  0  0
 14 17  1  0  0  0  0
 14  1  2  0  0  0  0
 15  7  1  0  0  0  0
 16 13  1  0  0  0  0
 17  3  2  0  0  0  0
 18 19  2  0  0  0  0
 20 13  1  0  0  0  0
 21 27  1  6  0  0  0
 21 10  1  0  0  0  0
 22 16  1  0  0  0  0
 22 26  1  0  0  0  0
 23 11  1  1  0  0  0
 23 21  1  0  0  0  0
 23  8  1  0  0  0  0
 24 10  1  0  0  0  0
 24 14  1  1  0  0  0
 26 25  1  0  0  0  0
 28 27  1  0  0  0  0
M  END
>  <MODEL>
4

>  <REMARK>
 VINA RESULT:      -2.1      2.472      5.031
  Name = 
  2 active torsions:
  status: ('A' for Active; 'I' for Inactive)
    1  A    between atoms: C_5  and  C_24
    2  A    between atoms: O_17  and  N_25
                            x       y       z     vdW  Elec       q    Type
                         _______ _______ _______ _____ _____    ______ ____

>  <TORSDO>
F 2

$$$$
