=
 OpenBabel11122412473D

 32 37  0  0  1  0  0  0  0  0999 V2000
  161.9460  207.9020  150.8290 C   0  0  1  0  0  3  0  0  0  0  0  0
  160.4080  208.0120  155.5170 C   0  0  0  0  0  3  0  0  0  0  0  0
  159.9280  209.3060  155.3450 C   0  0  0  0  0  3  0  0  0  0  0  0
  161.9500  210.0730  149.5910 C   0  0  0  0  0  0  0  0  0  0  0  0
  161.5760  211.4760  149.5220 C   0  0  0  0  0  0  0  0  0  0  0  0
  161.5440  205.6490  149.9180 N   0  0  0  0  0  0  0  0  0  0  0  0
  162.1800  205.8790  152.3070 C   0  0  0  0  0  2  0  0  0  0  0  0
  160.6970  213.3690  150.0700 C   0  0  0  0  0  0  0  0  0  0  0  0
  161.0410  207.3610  154.4580 C   0  0  0  0  0  3  0  0  0  0  0  0
  161.8030  207.3240  152.2030 C   0  0  0  0  0  0  0  0  0  0  0  0
  161.2100  207.9910  153.2120 C   0  0  0  0  0  0  0  0  0  0  0  0
  160.8720  209.9660  151.8600 C   0  0  0  0  0  0  0  0  0  0  0  0
  161.3300  213.5220  148.8880 N   0  0  0  0  0  0  0  0  0  0  0  0
  161.3820  205.0720  151.2740 C   0  0  2  0  0  3  0  0  0  0  0  0
  161.8720  212.3570  148.5480 N   0  0  0  0  0  0  0  0  0  0  0  0
  160.0850  209.9500  154.1190 C   0  0  0  0  0  3  0  0  0  0  0  0
  160.7260  209.3150  153.0370 C   0  0  0  0  0  0  0  0  0  0  0  0
  160.2980  211.3710  151.6980 C   0  0  0  0  0  3  0  0  0  0  0  0
  161.1040  207.0520  149.8830 C   0  0  0  0  0  2  0  0  0  0  0  0
  162.6090  209.5410  148.6560 O   0  0  0  0  0  0  0  0  0  0  0  0
  159.9530  214.4530  150.7680 C   0  0  0  0  0  1  0  0  0  0  0  0
  161.5600  209.3150  150.7550 N   0  0  0  0  0  0  0  0  0  0  0  0
  160.8480  212.0720  150.5010 C   0  0  0  0  0  0  0  0  0  0  0  0
  161.1410  202.9000  152.2670 O   0  0  0  0  0  0  0  0  0  0  0  0
  161.8800  203.6300  151.3170 C   0  0  1  0  0  3  0  0  0  0  0  0
  160.7920  202.7080  150.9190 C   0  0  1  0  0  3  0  0  0  0  0  0
  161.3380  201.5040  150.4700 O   0  0  0  0  0  0  0  0  0  0  0  0
  160.4670  201.0690  149.4690 C   0  0  2  0  0  3  0  0  0  0  0  0
  161.2080  201.0000  148.1490 C   0  0  0  0  0  1  0  0  0  0  0  0
  159.4020  201.9630  149.3560 O   0  0  0  0  0  1  0  0  0  0  0  0
  161.5320  204.6090  147.6370 C   0  0  0  0  0  1  0  0  0  0  0  0
  160.7570  204.9050  148.9220 C   0  0  0  0  0  2  0  0  0  0  0  0
  1 19  1  6  0  0  0
  1 10  1  0  0  0  0
  3  2  1  0  0  0  0
  4 22  1  0  0  0  0
  5  4  1  0  0  0  0
  5 23  1  0  0  0  0
  6 14  1  0  0  0  0
  8 23  1  0  0  0  0
  8 21  1  0  0  0  0
  9  2  2  0  0  0  0
 10  7  1  0  0  0  0
 10 11  2  0  0  0  0
 11  9  1  0  0  0  0
 12 17  2  0  0  0  0
 13  8  2  0  0  0  0
 14 25  1  0  0  0  0
 14  7  1  1  0  0  0
 15 13  1  0  0  0  0
 15  5  2  0  0  0  0
 16  3  2  0  0  0  0
 17 11  1  0  0  0  0
 17 16  1  0  0  0  0
 18 12  1  0  0  0  0
 19  6  1  0  0  0  0
 20  4  2  0  0  0  0
 22  1  1  0  0  0  0
 22 12  1  0  0  0  0
 23 18  2  0  0  0  0
 25 24  1  1  0  0  0
 26 27  1  6  0  0  0
 26 25  1  0  0  0  0
 26 24  1  0  0  0  0
 28 29  1  6  0  0  0
 28 27  1  0  0  0  0
 30 28  1  0  0  0  0
 31 32  1  0  0  0  0
 32  6  1  0  0  0  0
M  END
>  <MODEL>
1

>  <REMARK>
 VINA RESULT:      -8.2      0.000      0.000
  Name = 
  4 active torsions:
  status: ('A' for Active; 'I' for Inactive)
    1  A    between atoms: N_7  and  C_19
    2  A    between atoms: C_10  and  C_17
    3  A    between atoms: C_20  and  O_29
    4  A    between atoms: O_29  and  C_30
                            x       y       z     vdW  Elec       q    Type
                         _______ _______ _______ _____ _____    ______ ____

>  <TORSDO>
F 4

$$$$
=
 OpenBabel11122412473D

 32 37  0  0  1  0  0  0  0  0999 V2000
  161.6420  206.1870  152.4160 C   0  0  1  0  0  3  0  0  0  0  0  0
  162.0230  209.6840  148.9540 C   0  0  0  0  0  3  0  0  0  0  0  0
  161.6420  208.7750  147.9720 C   0  0  0  0  0  3  0  0  0  0  0  0
  161.3850  203.8330  151.6190 C   0  0  0  0  0  0  0  0  0  0  0  0
  161.1520  202.8970  150.5310 C   0  0  0  0  0  0  0  0  0  0  0  0
  160.7050  207.1960  154.4580 N   0  0  0  0  0  0  0  0  0  0  0  0
  162.2220  208.5550  153.0380 C   0  0  0  0  0  2  0  0  0  0  0  0
  160.7380  202.1590  148.5460 C   0  0  0  0  0  0  0  0  0  0  0  0
  162.1390  209.2650  150.2790 C   0  0  0  0  0  3  0  0  0  0  0  0
  161.9770  207.5680  151.9410 C   0  0  0  0  0  0  0  0  0  0  0  0
  161.8810  207.9320  150.6470 C   0  0  0  0  0  0  0  0  0  0  0  0
  161.2480  205.7070  149.9470 C   0  0  0  0  0  0  0  0  0  0  0  0
  160.8830  201.1000  149.3700 N   0  0  0  0  0  0  0  0  0  0  0  0
  161.0170  208.5670  153.9870 C   0  0  2  0  0  3  0  0  0  0  0  0
  161.1390  201.5520  150.5930 N   0  0  0  0  0  2  0  0  0  0  0  0
  161.3830  207.4490  148.3140 C   0  0  0  0  0  3  0  0  0  0  0  0
  161.4980  207.0010  149.6440 C   0  0  0  0  0  0  0  0  0  0  0  0
  160.7950  204.7480  148.8490 C   0  0  0  0  0  2  0  0  0  0  0  0
  160.4240  206.2980  153.3280 C   0  0  0  0  0  2  0  0  0  0  0  0
  161.5840  203.4120  152.7910 O   0  0  0  0  0  0  0  0  0  0  0  0
  160.4240  202.0530  147.0940 C   0  0  0  0  0  1  0  0  0  0  0  0
  161.3960  205.2440  151.3200 N   0  0  0  0  0  0  0  0  0  0  0  0
  160.9130  203.3190  149.2620 C   0  0  0  0  0  0  0  0  0  0  0  0
  161.8460  210.7120  154.6780 O   0  0  0  0  0  0  0  0  0  0  0  0
  161.3500  209.4850  155.1600 C   0  0  1  0  0  3  0  0  0  0  0  0
  160.5070  210.7010  155.1060 C   0  0  1  0  0  3  0  0  0  0  0  0
  160.4260  211.2720  156.3770 O   0  0  0  0  0  0  0  0  0  0  0  0
  159.3390  212.1460  156.3070 C   0  0  2  0  0  3  0  0  0  0  0  0
  158.1580  211.4350  155.6780 C   0  0  0  0  0  1  0  0  0  0  0  0
  159.6800  213.2530  155.5290 O   0  0  0  0  0  1  0  0  0  0  0  0
  159.8870  207.0180  156.8200 C   0  0  0  0  0  1  0  0  0  0  0  0
  159.5300  207.1890  155.3430 C   0  0  0  0  0  2  0  0  0  0  0  0
  1 19  1  1  0  0  0
  2  9  2  0  0  0  0
  3 16  2  0  0  0  0
  3  2  1  0  0  0  0
  4 20  2  0  0  0  0
  5 15  1  0  0  0  0
  5  4  1  0  0  0  0
  6 32  1  0  0  0  0
  8 23  1  0  0  0  0
  8 13  2  0  0  0  0
  9 11  1  0  0  0  0
 10  1  1  0  0  0  0
 10  7  1  0  0  0  0
 11 10  2  0  0  0  0
 12 22  1  0  0  0  0
 13 15  1  0  0  0  0
 14  7  1  6  0  0  0
 14  6  1  0  0  0  0
 14 25  1  0  0  0  0
 16 17  1  0  0  0  0
 17 12  2  0  0  0  0
 17 11  1  0  0  0  0
 18 23  1  0  0  0  0
 18 12  1  0  0  0  0
 19  6  1  0  0  0  0
 21  8  1  0  0  0  0
 22  4  1  0  0  0  0
 22  1  1  0  0  0  0
 23  5  2  0  0  0  0
 24 26  1  0  0  0  0
 25 24  1  6  0  0  0
 26 25  1  0  0  0  0
 26 27  1  1  0  0  0
 28 29  1  6  0  0  0
 28 27  1  0  0  0  0
 30 28  1  0  0  0  0
 32 31  1  0  0  0  0
M  END
>  <MODEL>
2

>  <REMARK>
 VINA RESULT:      -7.5      3.109      8.216
  Name = 
  4 active torsions:
  status: ('A' for Active; 'I' for Inactive)
    1  A    between atoms: N_7  and  C_19
    2  A    between atoms: C_10  and  C_17
    3  A    between atoms: C_20  and  O_29
    4  A    between atoms: O_29  and  C_30
                            x       y       z     vdW  Elec       q    Type
                         _______ _______ _______ _____ _____    ______ ____

>  <TORSDO>
F 4

$$$$
=
 OpenBabel11122412473D

 32 37  0  0  1  0  0  0  0  0999 V2000
  161.5240  208.2980  151.6860 C   0  0  1  0  0  3  0  0  0  0  0  0
  160.1430  207.3630  156.3310 C   0  0  0  0  0  3  0  0  0  0  0  0
  159.5040  208.5970  156.4060 C   0  0  0  0  0  3  0  0  0  0  0  0
  161.2230  210.6390  150.8680 C   0  0  0  0  0  0  0  0  0  0  0  0
  160.6800  211.9740  151.0620 C   0  0  0  0  0  0  0  0  0  0  0  0
  161.3670  206.2140  150.3800 N   0  0  0  0  0  0  0  0  0  0  0  0
  162.0510  206.0860  152.7640 C   0  0  0  0  0  2  0  0  0  0  0  0
  159.5980  213.6110  151.9600 C   0  0  0  0  0  0  0  0  0  0  0  0
  160.8140  206.9990  155.1640 C   0  0  0  0  0  3  0  0  0  0  0  0
  161.4990  207.4660  152.9320 C   0  0  0  0  0  0  0  0  0  0  0  0
  160.8640  207.8610  154.0530 C   0  0  0  0  0  0  0  0  0  0  0  0
  160.2430  209.9900  153.0910 C   0  0  0  0  0  0  0  0  0  0  0  0
  160.1660  214.0530  150.8180 N   0  0  0  0  0  0  0  0  0  0  0  0
  161.3220  205.3860  151.6100 C   0  0  2  0  0  3  0  0  0  0  0  0
  160.8330  213.0470  150.2640 N   0  0  0  0  0  0  0  0  0  0  0  0
  159.5410  209.4660  155.3170 C   0  0  0  0  0  3  0  0  0  0  0  0
  160.2170  209.1240  154.1300 C   0  0  0  0  0  0  0  0  0  0  0  0
  159.4980  211.3180  153.1970 C   0  0  0  0  0  3  0  0  0  0  0  0
  160.7600  207.5350  150.6090 C   0  0  0  0  0  2  0  0  0  0  0  0
  161.9100  210.3730  149.8450 O   0  0  0  0  0  0  0  0  0  0  0  0
  158.7510  214.4490  152.8530 C   0  0  0  0  0  1  0  0  0  0  0  0
  160.9680  209.6410  151.8780 N   0  0  0  0  0  0  0  0  0  0  0  0
  159.9180  212.2870  152.1430 C   0  0  0  0  0  0  0  0  0  0  0  0
  161.5830  203.1260  152.3770 O   0  0  0  0  0  0  0  0  0  0  0  0
  161.9920  204.0340  151.3810 C   0  0  1  0  0  3  0  0  0  0  0  0
  160.9650  202.9990  151.1200 C   0  0  1  0  0  3  0  0  0  0  0  0
  161.5420  201.9300  150.4310 O   0  0  0  0  0  0  0  0  0  0  0  0
  160.6600  201.6660  149.3820 C   0  0  2  0  0  3  0  0  0  0  0  0
  161.2440  200.5900  148.4880 C   0  0  0  0  0  1  0  0  0  0  0  0
  160.4590  202.8280  148.6360 O   0  0  0  0  0  1  0  0  0  0  0  0
  160.8220  206.2880  147.9360 C   0  0  0  0  0  1  0  0  0  0  0  0
  160.6420  205.5700  149.2740 C   0  0  0  0  0  2  0  0  0  0  0  0
  1 19  1  6  0  0  0
  1 22  1  0  0  0  0
  1 10  1  0  0  0  0
  2  3  1  0  0  0  0
  4  5  1  0  0  0  0
  4 22  1  0  0  0  0
  5 23  1  0  0  0  0
  6 19  1  0  0  0  0
  6 14  1  0  0  0  0
  7 10  1  0  0  0  0
  8 23  1  0  0  0  0
  8 21  1  0  0  0  0
  9  2  2  0  0  0  0
 10 11  2  0  0  0  0
 11 17  1  0  0  0  0
 11  9  1  0  0  0  0
 12 18  1  0  0  0  0
 12 17  2  0  0  0  0
 13  8  2  0  0  0  0
 14  7  1  1  0  0  0
 15 13  1  0  0  0  0
 15  5  2  0  0  0  0
 16  3  2  0  0  0  0
 17 16  1  0  0  0  0
 20  4  2  0  0  0  0
 22 12  1  0  0  0  0
 23 18  2  0  0  0  0
 25 14  1  0  0  0  0
 25 24  1  1  0  0  0
 26 27  1  6  0  0  0
 26 25  1  0  0  0  0
 26 24  1  0  0  0  0
 28 29  1  6  0  0  0
 28 27  1  0  0  0  0
 30 28  1  0  0  0  0
 31 32  1  0  0  0  0
 32  6  1  0  0  0  0
M  END
>  <MODEL>
3

>  <REMARK>
 VINA RESULT:      -6.9      1.153      1.353
  Name = 
  4 active torsions:
  status: ('A' for Active; 'I' for Inactive)
    1  A    between atoms: N_7  and  C_19
    2  A    between atoms: C_10  and  C_17
    3  A    between atoms: C_20  and  O_29
    4  A    between atoms: O_29  and  C_30
                            x       y       z     vdW  Elec       q    Type
                         _______ _______ _______ _____ _____    ______ ____

>  <TORSDO>
F 4

$$$$
=
 OpenBabel11122412473D

 32 37  0  0  1  0  0  0  0  0999 V2000
  161.7950  206.8450  152.1890 C   0  0  1  0  0  3  0  0  0  0  0  0
  162.2640  210.9110  149.4320 C   0  0  0  0  0  3  0  0  0  0  0  0
  161.9210  210.1950  148.2900 C   0  0  0  0  0  3  0  0  0  0  0  0
  161.5810  204.6740  150.9720 C   0  0  0  0  0  0  0  0  0  0  0  0
  161.3890  203.9500  149.7260 C   0  0  0  0  0  0  0  0  0  0  0  0
  160.7860  207.4670  154.3490 N   0  0  0  0  0  0  0  0  0  0  0  0
  162.3390  209.0620  153.2490 C   0  0  0  0  0  2  0  0  0  0  0  0
  161.0440  203.5830  147.6270 C   0  0  0  0  0  0  0  0  0  0  0  0
  162.3400  210.2590  150.6630 C   0  0  0  0  0  3  0  0  0  0  0  0
  162.1360  208.2890  151.9830 C   0  0  0  0  0  0  0  0  0  0  0  0
  162.0790  208.8810  150.7750 C   0  0  0  0  0  0  0  0  0  0  0  0
  161.4840  206.8190  149.6640 C   0  0  0  0  0  0  0  0  0  0  0  0
  161.1710  202.3930  148.2510 N   0  0  0  0  0  0  0  0  0  0  0  0
  161.1040  208.9010  154.1440 C   0  0  2  0  0  3  0  0  0  0  0  0
  161.3830  202.6160  149.5430 N   0  0  0  0  0  2  0  0  0  0  0  0
  161.6600  208.8280  148.3780 C   0  0  0  0  0  3  0  0  0  0  0  0
  161.7360  208.1470  149.6080 C   0  0  0  0  0  0  0  0  0  0  0  0
  161.0740  206.0750  148.3950 C   0  0  0  0  0  2  0  0  0  0  0  0
  160.5480  206.7880  153.0660 C   0  0  0  0  0  2  0  0  0  0  0  0
  161.7450  204.0480  152.0540 O   0  0  0  0  0  0  0  0  0  0  0  0
  160.7780  203.7410  146.1710 C   0  0  0  0  0  1  0  0  0  0  0  0
  161.5920  206.1160  150.9340 N   0  0  0  0  0  0  0  0  0  0  0  0
  161.1890  204.5950  148.5470 C   0  0  0  0  0  0  0  0  0  0  0  0
  162.2130  210.7150  155.2580 O   0  0  0  0  0  0  0  0  0  0  0  0
  161.3920  209.5920  155.4740 C   0  0  1  0  0  3  0  0  0  0  0  0
  160.8450  210.9670  155.4590 C   0  0  1  0  0  3  0  0  0  0  0  0
  160.6460  211.4070  156.7690 O   0  0  0  0  0  0  0  0  0  0  0  0
  159.5860  212.3110  156.6840 C   0  0  2  0  0  3  0  0  0  0  0  0
  158.3860  211.6270  156.0600 C   0  0  0  0  0  1  0  0  0  0  0  0
  159.9610  213.3980  155.8930 O   0  0  0  0  0  1  0  0  0  0  0  0
  159.8950  206.8930  156.6200 C   0  0  0  0  0  1  0  0  0  0  0  0
  159.5830  207.2980  155.1790 C   0  0  0  0  0  2  0  0  0  0  0  0
  1 19  1  1  0  0  0
  2  9  2  0  0  0  0
  3 16  2  0  0  0  0
  3  2  1  0  0  0  0
  4 20  2  0  0  0  0
  5  4  1  0  0  0  0
  6 32  1  0  0  0  0
  8 13  2  0  0  0  0
  8 23  1  0  0  0  0
  9 11  1  0  0  0  0
 10  1  1  0  0  0  0
 10  7  1  0  0  0  0
 11 10  2  0  0  0  0
 12 22  1  0  0  0  0
 13 15  1  0  0  0  0
 14  7  1  6  0  0  0
 14  6  1  0  0  0  0
 14 25  1  0  0  0  0
 15  5  1  0  0  0  0
 16 17  1  0  0  0  0
 17 12  2  0  0  0  0
 17 11  1  0  0  0  0
 18 23  1  0  0  0  0
 18 12  1  0  0  0  0
 19  6  1  0  0  0  0
 21  8  1  0  0  0  0
 22  4  1  0  0  0  0
 22  1  1  0  0  0  0
 23  5  2  0  0  0  0
 24 26  1  0  0  0  0
 25 24  1  6  0  0  0
 26 25  1  0  0  0  0
 26 27  1  1  0  0  0
 28 29  1  6  0  0  0
 28 27  1  0  0  0  0
 30 28  1  0  0  0  0
 32 31  1  0  0  0  0
M  END
>  <MODEL>
4

>  <REMARK>
 VINA RESULT:      -6.7      3.012      7.896
  Name = 
  4 active torsions:
  status: ('A' for Active; 'I' for Inactive)
    1  A    between atoms: N_7  and  C_19
    2  A    between atoms: C_10  and  C_17
    3  A    between atoms: C_20  and  O_29
    4  A    between atoms: O_29  and  C_30
                            x       y       z     vdW  Elec       q    Type
                         _______ _______ _______ _____ _____    ______ ____

>  <TORSDO>
F 4

$$$$
=
 OpenBabel11122412473D

 32 37  0  0  1  0  0  0  0  0999 V2000
  161.3500  211.0990  151.7540 C   0  0  1  0  0  3  0  0  0  0  0  0
  162.0010  207.0440  149.0170 C   0  0  0  0  0  3  0  0  0  0  0  0
  161.5580  206.2460  150.0660 C   0  0  0  0  0  3  0  0  0  0  0  0
  160.9240  210.7580  154.1930 C   0  0  0  0  0  0  0  0  0  0  0  0
  160.6260  209.8630  155.2990 C   0  0  0  0  0  0  0  0  0  0  0  0
  160.4830  212.8960  150.3100 N   0  0  0  0  0  0  0  0  0  0  0  0
  162.1020  211.2710  149.3590 C   0  0  0  0  0  2  0  0  0  0  0  0
  160.1650  208.0470  156.3700 C   0  0  0  0  0  0  0  0  0  0  0  0
  162.0810  208.4260  149.1830 C   0  0  0  0  0  3  0  0  0  0  0  0
  161.7880  210.3770  150.5170 C   0  0  0  0  0  0  0  0  0  0  0  0
  161.7240  209.0360  150.4000 C   0  0  0  0  0  0  0  0  0  0  0  0
  160.9310  208.7600  152.6660 C   0  0  0  0  0  0  0  0  0  0  0  0
  160.2300  209.0600  157.2600 N   0  0  0  0  0  0  0  0  0  0  0  0
  160.8970  212.1790  149.0800 C   0  0  2  0  0  3  0  0  0  0  0  0
  160.5130  210.1790  156.6030 N   0  0  0  0  0  2  0  0  0  0  0  0
  161.2000  206.8280  151.2810 C   0  0  0  0  0  3  0  0  0  0  0  0
  161.2770  208.2210  151.4750 C   0  0  0  0  0  0  0  0  0  0  0  0
  160.4130  207.8550  153.7810 C   0  0  0  0  0  2  0  0  0  0  0  0
  160.1410  211.9510  151.3850 C   0  0  0  0  0  2  0  0  0  0  0  0
  161.0860  211.9920  154.3960 O   0  0  0  0  0  0  0  0  0  0  0  0
  159.8510  206.6360  156.7280 C   0  0  0  0  0  1  0  0  0  0  0  0
  161.0400  210.1970  152.8680 N   0  0  0  0  0  0  0  0  0  0  0  0
  160.4240  208.5330  155.1100 C   0  0  0  0  0  0  0  0  0  0  0  0
  162.0770  212.5050  147.0150 O   0  0  0  0  0  0  0  0  0  0  0  0
  161.2920  213.1620  147.9820 C   0  0  1  0  0  3  0  0  0  0  0  0
  160.7280  212.7250  146.6850 C   0  0  1  0  0  3  0  0  0  0  0  0
  160.6390  213.8180  145.8200 O   0  0  0  0  0  0  0  0  0  0  0  0
  159.9850  213.3260  144.6900 C   0  0  2  0  0  3  0  0  0  0  0  0
  158.7710  212.5250  145.1160 C   0  0  0  0  0  1  0  0  0  0  0  0
  160.8520  212.5030  143.9690 O   0  0  0  0  0  1  0  0  0  0  0  0
  158.0820  213.3320  150.8820 C   0  0  0  0  0  1  0  0  0  0  0  0
  159.3070  213.7450  150.0650 C   0  0  0  0  0  2  0  0  0  0  0  0
  1 19  1  6  0  0  0
  1 22  1  0  0  0  0
  2  9  2  0  0  0  0
  2  3  1  0  0  0  0
  3 16  2  0  0  0  0
  4 20  2  0  0  0  0
  4  5  1  0  0  0  0
  5 15  1  0  0  0  0
  6 19  1  0  0  0  0
  7 10  1  0  0  0  0
  8 21  1  0  0  0  0
  8 13  2  0  0  0  0
  9 11  1  0  0  0  0
 10  1  1  0  0  0  0
 11 10  2  0  0  0  0
 11 17  1  0  0  0  0
 12 22  1  0  0  0  0
 12 18  1  0  0  0  0
 14  7  1  1  0  0  0
 14  6  1  0  0  0  0
 15 13  1  0  0  0  0
 16 17  1  0  0  0  0
 17 12  2  0  0  0  0
 18 23  1  0  0  0  0
 22  4  1  0  0  0  0
 23  5  2  0  0  0  0
 23  8  1  0  0  0  0
 25 24  1  6  0  0  0
 25 14  1  0  0  0  0
 26 27  1  6  0  0  0
 26 24  1  0  0  0  0
 26 25  1  0  0  0  0
 28 29  1  1  0  0  0
 28 27  1  0  0  0  0
 30 28  1  0  0  0  0
 32  6  1  0  0  0  0
 32 31  1  0  0  0  0
M  END
>  <MODEL>
5

>  <REMARK>
 VINA RESULT:      -6.5      3.984      7.888
  Name = 
  4 active torsions:
  status: ('A' for Active; 'I' for Inactive)
    1  A    between atoms: N_7  and  C_19
    2  A    between atoms: C_10  and  C_17
    3  A    between atoms: C_20  and  O_29
    4  A    between atoms: O_29  and  C_30
                            x       y       z     vdW  Elec       q    Type
                         _______ _______ _______ _____ _____    ______ ____

>  <TORSDO>
F 4

$$$$
=
 OpenBabel11122412473D

 32 37  0  0  1  0  0  0  0  0999 V2000
  161.2600  212.4840  149.6050 C   0  0  1  0  0  3  0  0  0  0  0  0
  156.5760  213.7700  150.4740 C   0  0  0  0  0  3  0  0  0  0  0  0
  156.3500  213.9280  149.1100 C   0  0  0  0  0  3  0  0  0  0  0  0
  162.1240  212.8600  147.2910 C   0  0  0  0  0  0  0  0  0  0  0  0
  161.8720  213.1970  145.8990 C   0  0  0  0  0  0  0  0  0  0  0  0
  161.8930  210.6950  151.1770 N   0  0  0  0  0  0  0  0  0  0  0  0
  160.3350  212.4700  151.9460 C   0  0  0  0  0  2  0  0  0  0  0  0
  160.7950  213.7010  144.0990 C   0  0  0  0  0  0  0  0  0  0  0  0
  157.8410  213.4010  150.9290 C   0  0  0  0  0  3  0  0  0  0  0  0
  160.1070  212.8060  150.5050 C   0  0  0  0  0  0  0  0  0  0  0  0
  158.9040  213.1870  150.0330 C   0  0  0  0  0  0  0  0  0  0  0  0
  159.6690  213.1660  147.7400 C   0  0  0  0  0  0  0  0  0  0  0  0
  162.1100  213.6380  143.8030 N   0  0  0  0  0  0  0  0  0  0  0  0
  160.7420  210.9950  152.0630 C   0  0  2  0  0  3  0  0  0  0  0  0
  162.7750  213.3280  144.9100 N   0  0  0  0  0  0  0  0  0  0  0  0
  157.3890  213.7210  148.2040 C   0  0  0  0  0  3  0  0  0  0  0  0
  158.6770  213.3530  148.6400 C   0  0  0  0  0  0  0  0  0  0  0  0
  159.3720  213.3100  146.2490 C   0  0  0  0  0  3  0  0  0  0  0  0
  161.5740  211.0010  149.7730 C   0  0  0  0  0  2  0  0  0  0  0  0
  163.2980  212.6280  147.6890 O   0  0  0  0  0  0  0  0  0  0  0  0
  159.7270  214.0060  143.1070 C   0  0  0  0  0  1  0  0  0  0  0  0
  161.0040  212.8140  148.2000 N   0  0  0  0  0  0  0  0  0  0  0  0
  160.6170  213.4310  145.4350 C   0  0  0  0  0  0  0  0  0  0  0  0
  159.9100  210.6180  154.2830 O   0  0  0  0  0  0  0  0  0  0  0  0
  161.0910  210.7180  153.5220 C   0  0  1  0  0  3  0  0  0  0  0  0
  160.5360  209.4080  153.9350 C   0  0  1  0  0  3  0  0  0  0  0  0
  161.2460  208.9240  155.0360 O   0  0  0  0  0  0  0  0  0  0  0  0
  160.9140  207.5700  155.1070 C   0  0  2  0  0  3  0  0  0  0  0  0
  160.8310  206.9960  153.7070 C   0  0  0  0  0  1  0  0  0  0  0  0
  159.6790  207.4250  155.7400 O   0  0  0  0  0  1  0  0  0  0  0  0
  162.0120  208.5090  149.9570 C   0  0  0  0  0  1  0  0  0  0  0  0
  162.2720  209.2760  151.2540 C   0  0  0  0  0  2  0  0  0  0  0  0
  1 19  1  6  0  0  0
  1 10  1  0  0  0  0
  2  9  2  0  0  0  0
  3  2  1  0  0  0  0
  4 20  2  0  0  0  0
  4 22  1  0  0  0  0
  5  4  1  0  0  0  0
  6 32  1  0  0  0  0
  6 14  1  0  0  0  0
  8 23  1  0  0  0  0
 10  7  1  0  0  0  0
 11 10  2  0  0  0  0
 11  9  1  0  0  0  0
 12 22  1  0  0  0  0
 12 17  2  0  0  0  0
 13  8  2  0  0  0  0
 13 15  1  0  0  0  0
 14  7  1  1  0  0  0
 14 25  1  0  0  0  0
 15  5  2  0  0  0  0
 16 17  1  0  0  0  0
 16  3  2  0  0  0  0
 17 11  1  0  0  0  0
 18 12  1  0  0  0  0
 19  6  1  0  0  0  0
 21  8  1  0  0  0  0
 22  1  1  0  0  0  0
 23  5  1  0  0  0  0
 23 18  2  0  0  0  0
 25 26  1  0  0  0  0
 25 24  1  1  0  0  0
 26 24  1  0  0  0  0
 26 27  1  1  0  0  0
 27 28  1  0  0  0  0
 28 29  1  6  0  0  0
 28 30  1  0  0  0  0
 31 32  1  0  0  0  0
M  END
>  <MODEL>
6

>  <REMARK>
 VINA RESULT:      -6.2      3.724      6.436
  Name = 
  4 active torsions:
  status: ('A' for Active; 'I' for Inactive)
    1  A    between atoms: N_7  and  C_19
    2  A    between atoms: C_10  and  C_17
    3  A    between atoms: C_20  and  O_29
    4  A    between atoms: O_29  and  C_30
                            x       y       z     vdW  Elec       q    Type
                         _______ _______ _______ _____ _____    ______ ____

>  <TORSDO>
F 4

$$$$
=
 OpenBabel11122412473D

 32 37  0  0  1  0  0  0  0  0999 V2000
  160.8300  207.0410  149.0430 C   0  0  1  0  0  3  0  0  0  0  0  0
  161.2060  204.2360  153.0860 C   0  0  0  0  0  3  0  0  0  0  0  0
  161.3970  203.1040  152.3020 C   0  0  0  0  0  3  0  0  0  0  0  0
  160.5990  205.8490  146.8600 C   0  0  0  0  0  0  0  0  0  0  0  0
  160.6420  204.6120  146.0970 C   0  0  0  0  0  0  0  0  0  0  0  0
  161.9400  209.1980  149.4720 N   0  0  0  0  0  0  0  0  0  0  0  0
  160.7470  208.0730  151.3370 C   0  0  0  0  0  2  0  0  0  0  0  0
  160.9100  202.5190  145.6430 C   0  0  0  0  0  0  0  0  0  0  0  0
  160.9960  205.4740  152.4790 C   0  0  0  0  0  3  0  0  0  0  0  0
  160.7910  206.8170  150.5240 C   0  0  0  0  0  0  0  0  0  0  0  0
  160.9700  205.6020  151.0770 C   0  0  0  0  0  0  0  0  0  0  0  0
  161.1340  204.5170  148.9240 C   0  0  0  0  0  0  0  0  0  0  0  0
  160.5420  203.1560  144.5110 N   0  0  0  0  0  0  0  0  0  0  0  0
  161.9220  208.9750  150.9380 C   0  0  2  0  0  3  0  0  0  0  0  0
  160.3760  204.4450  144.7880 N   0  0  0  0  0  0  0  0  0  0  0  0
  161.3750  203.2080  150.9120 C   0  0  0  0  0  3  0  0  0  0  0  0
  161.1590  204.4460  150.2750 C   0  0  0  0  0  0  0  0  0  0  0  0
  161.3870  203.2590  148.0970 C   0  0  0  0  0  3  0  0  0  0  0  0
  162.0370  207.9240  148.7440 C   0  0  0  0  0  2  0  0  0  0  0  0
  160.3090  206.9380  146.2930 O   0  0  0  0  0  0  0  0  0  0  0  0
  161.2050  201.0620  145.7260 C   0  0  0  0  0  1  0  0  0  0  0  0
  160.8830  205.7950  148.2730 N   0  0  0  0  0  0  0  0  0  0  0  0
  160.9720  203.4270  146.6730 C   0  0  0  0  0  0  0  0  0  0  0  0
  160.4260  210.5090  152.0210 O   0  0  0  0  0  0  0  0  0  0  0  0
  161.7780  210.2960  151.6890 C   0  0  1  0  0  3  0  0  0  0  0  0
  161.2610  210.0480  153.0540 C   0  0  1  0  0  3  0  0  0  0  0  0
  161.5980  211.1190  153.8850 O   0  0  0  0  0  0  0  0  0  0  0  0
  161.4010  210.6400  155.1810 C   0  0  2  0  0  3  0  0  0  0  0  0
  162.7070  210.7030  155.9480 C   0  0  0  0  0  1  0  0  0  0  0  0
  160.9600  209.3170  155.1280 O   0  0  0  0  0  1  0  0  0  0  0  0
  162.6650  211.3540  148.4190 C   0  0  0  0  0  1  0  0  0  0  0  0
  163.0820  210.0350  149.0720 C   0  0  0  0  0  2  0  0  0  0  0  0
  1 19  1  1  0  0  0
  1 10  1  0  0  0  0
  3  2  1  0  0  0  0
  4 22  1  0  0  0  0
  5 23  1  0  0  0  0
  5  4  1  0  0  0  0
  6 14  1  0  0  0  0
  8 21  1  0  0  0  0
  8 23  1  0  0  0  0
  9  2  2  0  0  0  0
 10 11  2  0  0  0  0
 10  7  1  0  0  0  0
 11  9  1  0  0  0  0
 12 17  2  0  0  0  0
 13 15  1  0  0  0  0
 13  8  2  0  0  0  0
 14  7  1  6  0  0  0
 14 25  1  0  0  0  0
 15  5  2  0  0  0  0
 16  3  2  0  0  0  0
 17 16  1  0  0  0  0
 17 11  1  0  0  0  0
 18 12  1  0  0  0  0
 19  6  1  0  0  0  0
 20  4  2  0  0  0  0
 22 12  1  0  0  0  0
 22  1  1  0  0  0  0
 23 18  2  0  0  0  0
 24 26  1  0  0  0  0
 25 24  1  6  0  0  0
 25 26  1  0  0  0  0
 26 27  1  1  0  0  0
 27 28  1  0  0  0  0
 28 29  1  1  0  0  0
 30 28  1  0  0  0  0
 31 32  1  0  0  0  0
 32  6  1  0  0  0  0
M  END
>  <MODEL>
7

>  <REMARK>
 VINA RESULT:      -6.1      2.953      7.550
  Name = 
  4 active torsions:
  status: ('A' for Active; 'I' for Inactive)
    1  A    between atoms: N_7  and  C_19
    2  A    between atoms: C_10  and  C_17
    3  A    between atoms: C_20  and  O_29
    4  A    between atoms: O_29  and  C_30
                            x       y       z     vdW  Elec       q    Type
                         _______ _______ _______ _____ _____    ______ ____

>  <TORSDO>
F 4

$$$$
=
 OpenBabel11122412473D

 32 37  0  0  1  0  0  0  0  0999 V2000
  160.7230  206.9030  151.9790 C   0  0  1  0  0  3  0  0  0  0  0  0
  162.1390  210.2590  148.6490 C   0  0  0  0  0  3  0  0  0  0  0  0
  162.6090  211.0880  149.6620 C   0  0  0  0  0  3  0  0  0  0  0  0
  160.7270  207.6170  154.3730 C   0  0  0  0  0  0  0  0  0  0  0  0
  161.0870  208.5930  155.3880 C   0  0  0  0  0  0  0  0  0  0  0  0
  161.1740  204.6550  151.0760 N   0  0  0  0  0  0  0  0  0  0  0  0
  160.4740  206.4540  149.5150 C   0  0  0  0  0  2  0  0  0  0  0  0
  161.9300  210.3630  156.2900 C   0  0  0  0  0  0  0  0  0  0  0  0
  161.5400  209.0410  148.9710 C   0  0  0  0  0  3  0  0  0  0  0  0
  160.8370  207.4370  150.5840 C   0  0  0  0  0  0  0  0  0  0  0  0
  161.3960  208.6310  150.3100 C   0  0  0  0  0  0  0  0  0  0  0  0
  161.7470  209.1340  152.6470 C   0  0  0  0  0  0  0  0  0  0  0  0
  161.3270  209.6410  157.2570 N   0  0  0  0  0  0  0  0  0  0  0  0
  161.3070  205.1790  149.6950 C   0  0  2  0  0  3  0  0  0  0  0  0
  160.8070  208.5500  156.7040 N   0  0  0  0  0  2  0  0  0  0  0  0
  162.4760  210.7030  150.9940 C   0  0  0  0  0  3  0  0  0  0  0  0
  161.8700  209.4800  151.3450 C   0  0  0  0  0  0  0  0  0  0  0  0
  162.3100  210.0530  153.7290 C   0  0  0  0  0  2  0  0  0  0  0  0
  161.5990  205.6570  152.0660 C   0  0  0  0  0  2  0  0  0  0  0  0
  160.0980  206.5700  154.6890 O   0  0  0  0  0  0  0  0  0  0  0  0
  162.6440  211.6480  156.5270 C   0  0  0  0  0  1  0  0  0  0  0  0
  161.0950  207.8830  153.0040 N   0  0  0  0  0  0  0  0  0  0  0  0
  161.7830  209.7190  155.0840 C   0  0  0  0  0  0  0  0  0  0  0  0
  160.3810  204.8120  147.5110 O   0  0  0  0  0  0  0  0  0  0  0  0
  160.8250  204.1530  148.6740 C   0  0  1  0  0  3  0  0  0  0  0  0
  161.6580  204.2260  147.4520 C   0  0  1  0  0  3  0  0  0  0  0  0
  161.5780  203.0180  146.7570 O   0  0  0  0  0  0  0  0  0  0  0  0
  161.6290  203.3780  145.4090 C   0  0  2  0  0  3  0  0  0  0  0  0
  162.0610  204.8250  145.2880 C   0  0  0  0  0  1  0  0  0  0  0  0
  160.3660  203.2220  144.8350 O   0  0  0  0  0  1  0  0  0  0  0  0
  161.1850  202.2350  151.7260 C   0  0  0  0  0  1  0  0  0  0  0  0
  161.9950  203.4500  151.2730 C   0  0  0  0  0  2  0  0  0  0  0  0
  1 19  1  6  0  0  0
  1 22  1  0  0  0  0
  2  9  2  0  0  0  0
  2  3  1  0  0  0  0
  3 16  2  0  0  0  0
  4 20  2  0  0  0  0
  4  5  1  0  0  0  0
  5 15  1  0  0  0  0
  6 32  1  0  0  0  0
  6 19  1  0  0  0  0
  7 10  1  0  0  0  0
  8 21  1  0  0  0  0
  8 13  2  0  0  0  0
  9 11  1  0  0  0  0
 10  1  1  0  0  0  0
 11 10  2  0  0  0  0
 11 17  1  0  0  0  0
 12 22  1  0  0  0  0
 12 18  1  0  0  0  0
 14  7  1  1  0  0  0
 14  6  1  0  0  0  0
 15 13  1  0  0  0  0
 16 17  1  0  0  0  0
 17 12  2  0  0  0  0
 18 23  1  0  0  0  0
 22  4  1  0  0  0  0
 23  5  2  0  0  0  0
 23  8  1  0  0  0  0
 25 24  1  6  0  0  0
 25 14  1  0  0  0  0
 26 27  1  6  0  0  0
 26 24  1  0  0  0  0
 26 25  1  0  0  0  0
 28 29  1  1  0  0  0
 28 27  1  0  0  0  0
 30 28  1  0  0  0  0
 32 31  1  0  0  0  0
M  END
>  <MODEL>
8

>  <REMARK>
 VINA RESULT:      -5.5      2.812      4.983
  Name = 
  4 active torsions:
  status: ('A' for Active; 'I' for Inactive)
    1  A    between atoms: N_7  and  C_19
    2  A    between atoms: C_10  and  C_17
    3  A    between atoms: C_20  and  O_29
    4  A    between atoms: O_29  and  C_30
                            x       y       z     vdW  Elec       q    Type
                         _______ _______ _______ _____ _____    ______ ____

>  <TORSDO>
F 4

$$$$
