=
 OpenBabel11122414113D

 28 32  0  0  1  0  0  0  0  0999 V2000
  160.8430  208.8480  155.7820 C   0  0  0  0  0  0  0  0  0  0  0  0
  159.0190  212.4170  157.1830 O   0  0  0  0  0  0  0  0  0  0  0  0
  162.3180  210.7450  151.0050 O   0  0  0  0  0  0  0  0  0  0  0  0
  162.6870  210.5430  157.0440 C   0  0  0  0  0  3  0  0  0  0  0  0
  160.2640  211.7430  151.5680 N   0  0  0  0  0  0  0  0  0  0  0  0
  159.9270  207.8900  155.0790 C   0  0  0  0  0  2  0  0  0  0  0  0
  160.0470  214.4340  156.2220 O   0  0  0  0  0  0  0  0  0  0  0  0
  159.1150  213.2850  155.9600 S   0  0  0  0  0  0  0  0  0  0  0  0
  156.8820  213.4250  154.3980 C   0  0  0  0  0  0  0  0  0  0  0  0
  159.7170  212.3560  154.5620 C   0  0  2  0  0  3  0  0  0  0  0  0
  162.1020  206.5910  152.4280 O   0  0  0  0  0  0  0  0  0  0  0  0
  159.5920  210.3530  153.2680 C   0  0  1  0  0  3  0  0  0  0  0  0
  157.5060  212.8140  153.4370 N   0  0  0  0  0  0  0  0  0  0  0  0
  157.5570  213.8910  155.5610 N   0  0  0  0  0  2  0  0  0  0  0  0
  161.2020  207.3110  152.9320 C   0  0  0  0  0  0  0  0  0  0  0  0
  160.7650  210.2460  155.5720 C   0  0  0  0  0  0  0  0  0  0  0  0
  161.2660  210.7650  151.6970 C   0  0  0  0  0  0  0  0  0  0  0  0
  155.4080  213.5900  154.3100 C   0  0  0  0  0  1  0  0  0  0  0  0
  160.6430  208.4330  152.1130 C   0  0  0  0  0  2  0  0  0  0  0  0
  161.7040  211.0760  156.2090 C   0  0  0  0  0  3  0  0  0  0  0  0
  161.8280  208.3250  156.6310 C   0  0  0  0  0  3  0  0  0  0  0  0
  162.7440  209.1680  157.2600 C   0  0  0  0  0  3  0  0  0  0  0  0
  160.7050  206.9900  154.2370 N   0  0  0  0  0  2  0  0  0  0  0  0
  159.1670  211.4800  152.4010 N   0  0  1  0  0  0  0  0  0  0  0  0
  160.9270  209.7880  152.7370 C   0  0  2  0  0  3  0  0  0  0  0  0
  158.9560  212.6370  153.2730 C   0  0  2  0  0  3  0  0  0  0  0  0
  160.1990  212.6840  150.4600 C   0  0  0  0  0  1  0  0  0  0  0  0
  159.6570  210.8530  154.7180 C   0  0  1  0  0  3  0  0  0  0  0  0
  1 21  1  0  0  0  0
  3 17  2  0  0  0  0
  4 22  1  0  0  0  0
  5 17  1  0  0  0  0
  5 24  1  0  0  0  0
  6  1  1  0  0  0  0
  8  7  2  0  0  0  0
  8  2  2  0  0  0  0
  9 14  1  0  0  0  0
 10 28  1  0  0  0  0
 10  8  1  1  0  0  0
 11 15  2  0  0  0  0
 12 28  1  0  0  0  0
 13  9  2  0  0  0  0
 14  8  1  0  0  0  0
 15 23  1  0  0  0  0
 16  1  2  0  0  0  0
 16 20  1  0  0  0  0
 17 25  1  0  0  0  0
 18  9  1  0  0  0  0
 19 25  1  0  0  0  0
 19 15  1  0  0  0  0
 20  4  2  0  0  0  0
 21 22  2  0  0  0  0
 23  6  1  0  0  0  0
 24 12  1  0  0  0  0
 24 26  1  0  0  0  0
 25 12  1  0  0  0  0
 26 13  1  0  0  0  0
 26 10  1  0  0  0  0
 27  5  1  0  0  0  0
 28 16  1  0  0  0  0
M  END
>  <MODEL>
1

>  <REMARK>
 VINA RESULT:      -5.6      0.000      0.000
  Name = 
  0 active torsions:
  status: ('A' for Active; 'I' for Inactive)
                            x       y       z     vdW  Elec       q    Type
                         _______ _______ _______ _____ _____    ______ ____

>  <TORSDO>
F 0

$$$$
=
 OpenBabel11122414113D

 28 32  0  0  1  0  0  0  0  0999 V2000
  158.1660  211.9720  153.1120 C   0  0  0  0  0  0  0  0  0  0  0  0
  160.5290  209.2860  150.8250 O   0  0  0  0  0  0  0  0  0  0  0  0
  161.5280  212.3810  157.2500 O   0  0  0  0  0  0  0  0  0  0  0  0
  159.9950  213.3220  151.4690 C   0  0  0  0  0  3  0  0  0  0  0  0
  161.6620  210.1790  156.4330 N   0  0  0  0  0  0  0  0  0  0  0  0
  157.1690  211.3300  154.0300 C   0  0  0  0  0  2  0  0  0  0  0  0
  162.9360  209.5690  151.2410 O   0  0  0  0  0  0  0  0  0  0  0  0
  161.6520  209.0080  151.7840 S   0  0  0  0  0  0  0  0  0  0  0  0
  161.4580  206.7090  153.2400 C   0  0  0  0  0  0  0  0  0  0  0  0
  161.3280  209.7380  153.3780 C   0  0  2  0  0  3  0  0  0  0  0  0
  157.3030  213.5540  156.9440 O   0  0  0  0  0  0  0  0  0  0  0  0
  159.7630  210.1100  155.1440 C   0  0  1  0  0  3  0  0  0  0  0  0
  161.3260  207.4020  154.3300 N   0  0  0  0  0  0  0  0  0  0  0  0
  161.8170  207.3110  152.0010 N   0  0  0  0  0  2  0  0  0  0  0  0
  157.5590  212.5260  156.2640 C   0  0  0  0  0  0  0  0  0  0  0  0
  159.4750  211.4570  152.9540 C   0  0  0  0  0  0  0  0  0  0  0  0
  161.0480  211.4360  156.5680 C   0  0  0  0  0  0  0  0  0  0  0  0
  161.1680  205.2520  153.2710 C   0  0  0  0  0  1  0  0  0  0  0  0
  158.6110  211.5850  156.7630 C   0  0  0  0  0  2  0  0  0  0  0  0
  160.3780  212.1540  152.1320 C   0  0  0  0  0  3  0  0  0  0  0  0
  157.7900  213.1390  152.4330 C   0  0  0  0  0  3  0  0  0  0  0  0
  158.6980  213.8100  151.6150 C   0  0  0  0  0  3  0  0  0  0  0  0
  156.7910  212.2660  155.0820 N   0  0  0  0  0  2  0  0  0  0  0  0
  160.8750  209.2890  155.6880 N   0  0  1  0  0  0  0  0  0  0  0  0
  159.7920  211.5010  155.8120 C   0  0  2  0  0  3  0  0  0  0  0  0
  161.6590  208.8170  154.5460 C   0  0  2  0  0  3  0  0  0  0  0  0
  162.7740  209.7360  157.2610 C   0  0  0  0  0  1  0  0  0  0  0  0
  159.8910  210.1480  153.6140 C   0  0  1  0  0  3  0  0  0  0  0  0
  1  6  1  0  0  0  0
  2  8  2  0  0  0  0
  4 22  2  0  0  0  0
  4 20  1  0  0  0  0
  5 17  1  0  0  0  0
  5 27  1  0  0  0  0
  6 23  1  0  0  0  0
  7  8  2  0  0  0  0
  8 14  1  0  0  0  0
  9 18  1  0  0  0  0
  9 13  2  0  0  0  0
 10  8  1  6  0  0  0
 10 28  1  0  0  0  0
 10 26  1  0  0  0  0
 12 24  1  0  0  0  0
 12 25  1  0  0  0  0
 13 26  1  0  0  0  0
 14  9  1  0  0  0  0
 15 19  1  0  0  0  0
 15 11  2  0  0  0  0
 16  1  1  0  0  0  0
 16 28  1  0  0  0  0
 17  3  2  0  0  0  0
 20 16  2  0  0  0  0
 21  1  2  0  0  0  0
 22 21  1  0  0  0  0
 23 15  1  0  0  0  0
 24  5  1  0  0  0  0
 25 17  1  0  0  0  0
 25 19  1  0  0  0  0
 26 24  1  0  0  0  0
 28 12  1  0  0  0  0
M  END
>  <MODEL>
2

>  <REMARK>
 VINA RESULT:      -4.6      2.307      6.380
  Name = 
  0 active torsions:
  status: ('A' for Active; 'I' for Inactive)
                            x       y       z     vdW  Elec       q    Type
                         _______ _______ _______ _____ _____    ______ ____

>  <TORSDO>
F 0

$$$$
=
 OpenBabel11122414113D

 28 32  0  0  1  0  0  0  0  0999 V2000
  161.6630  209.4470  154.8920 C   0  0  0  0  0  0  0  0  0  0  0  0
  162.7770  208.2270  150.9800 O   0  0  0  0  0  0  0  0  0  0  0  0
  157.1860  212.0110  153.4880 O   0  0  0  0  0  0  0  0  0  0  0  0
  160.5010  206.9940  154.1870 C   0  0  0  0  0  3  0  0  0  0  0  0
  158.7600  212.3240  151.7680 N   0  0  0  0  0  0  0  0  0  0  0  0
  162.2320  210.7590  155.3430 C   0  0  0  0  0  2  0  0  0  0  0  0
  160.8310  207.8990  149.5130 O   0  0  0  0  0  0  0  0  0  0  0  0
  161.7270  208.9190  150.1570 S   0  0  0  0  0  0  0  0  0  0  0  0
  162.4520  211.2890  149.0150 C   0  0  0  0  0  0  0  0  0  0  0  0
  160.7370  210.0060  151.1660 C   0  0  2  0  0  3  0  0  0  0  0  0
  159.4370  212.1600  157.2610 O   0  0  0  0  0  0  0  0  0  0  0  0
  160.6800  211.6910  152.8570 C   0  0  1  0  0  3  0  0  0  0  0  0
  161.6050  211.9200  149.7700 N   0  0  0  0  0  0  0  0  0  0  0  0
  162.4820  209.8680  148.9400 N   0  0  0  0  0  2  0  0  0  0  0  0
  160.1920  212.0080  156.2650 C   0  0  0  0  0  0  0  0  0  0  0  0
  161.1770  209.2570  153.5770 C   0  0  0  0  0  0  0  0  0  0  0  0
  158.3770  211.9850  153.0780 C   0  0  0  0  0  0  0  0  0  0  0  0
  163.4600  212.0690  148.2520 C   0  0  0  0  0  1  0  0  0  0  0  0
  159.7940  212.6370  154.9660 C   0  0  0  0  0  2  0  0  0  0  0  0
  160.5910  208.0210  153.2470 C   0  0  0  0  0  3  0  0  0  0  0  0
  161.5770  208.4040  155.8250 C   0  0  0  0  0  3  0  0  0  0  0  0
  161.0000  207.1830  155.4740 C   0  0  0  0  0  3  0  0  0  0  0  0
  161.4260  211.2990  156.4320 N   0  0  0  0  0  2  0  0  0  0  0  0
  160.1520  212.2890  151.6040 N   0  0  1  0  0  0  0  0  0  0  0  0
  159.5360  211.5970  153.8890 C   0  0  2  0  0  3  0  0  0  0  0  0
  160.4700  211.3600  150.5190 C   0  0  2  0  0  3  0  0  0  0  0  0
  157.8760  212.9840  150.8190 C   0  0  0  0  0  1  0  0  0  0  0  0
  161.3270  210.3420  152.5170 C   0  0  1  0  0  3  0  0  0  0  0  0
  1  6  1  0  0  0  0
  1 21  1  0  0  0  0
  4 22  1  0  0  0  0
  5 17  1  0  0  0  0
  6 23  1  0  0  0  0
  7  8  2  0  0  0  0
  8  2  2  0  0  0  0
  9 13  2  0  0  0  0
 10  8  1  6  0  0  0
 10 28  1  0  0  0  0
 12 25  1  0  0  0  0
 13 26  1  0  0  0  0
 14  9  1  0  0  0  0
 14  8  1  0  0  0  0
 15 23  1  0  0  0  0
 15 11  2  0  0  0  0
 16  1  2  0  0  0  0
 17  3  2  0  0  0  0
 17 25  1  0  0  0  0
 18  9  1  0  0  0  0
 19 15  1  0  0  0  0
 20 16  1  0  0  0  0
 20  4  2  0  0  0  0
 22 21  2  0  0  0  0
 24  5  1  0  0  0  0
 24 12  1  0  0  0  0
 25 19  1  0  0  0  0
 26 10  1  0  0  0  0
 26 24  1  0  0  0  0
 27  5  1  0  0  0  0
 28 12  1  0  0  0  0
 28 16  1  0  0  0  0
M  END
>  <MODEL>
3

>  <REMARK>
 VINA RESULT:      -3.2      2.595      5.437
  Name = 
  0 active torsions:
  status: ('A' for Active; 'I' for Inactive)
                            x       y       z     vdW  Elec       q    Type
                         _______ _______ _______ _____ _____    ______ ____

>  <TORSDO>
F 0

$$$$
