=
 OpenBabel11122412383D

 30 35  0  0  1  0  0  0  0  0999 V2000
  161.2130  209.6030  151.4850 C   0  0  0  0  0  0  0  0  0  0  0  0
  161.4450  207.2180  150.4810 C   0  0  0  0  0  0  0  0  0  0  0  0
  160.3510  207.5460  155.5400 S   0  0  0  0  0  0  0  0  0  0  0  0
  160.5060  210.2960  152.5950 C   0  0  0  0  0  0  0  0  0  0  0  0
  161.5920  210.3180  150.4260 C   0  0  0  0  0  3  0  0  0  0  0  0
  160.1360  213.8040  150.9750 C   0  0  0  0  0  1  0  0  0  0  0  0
  157.9530  211.4890  153.7360 C   0  0  1  0  0  3  0  0  0  0  0  0
  160.5000  212.3640  151.1850 C   0  0  0  0  0  0  0  0  0  0  0  0
  158.2970  210.5190  154.8710 C   0  0  2  0  0  3  0  0  0  0  0  0
  160.0530  209.2210  156.0850 C   0  0  0  0  0  0  0  0  0  0  0  0
  161.2360  211.7390  150.2540 C   0  0  0  0  0  0  0  0  0  0  0  0
  160.0560  211.6640  152.3720 N   0  0  0  0  0  0  0  0  0  0  0  0
  161.5320  205.8970  150.6830 C   0  0  0  0  0  3  0  0  0  0  0  0
  157.6990  211.1330  156.1210 C   0  0  0  0  0  2  0  0  0  0  0  0
  156.8120  212.3600  154.2400 C   0  0  0  0  0  2  0  0  0  0  0  0
  161.2680  207.7530  148.8170 Cl  0  0  0  0  0  0  0  0  0  0  0  0
  160.7810  208.2480  153.9490 C   0  0  0  0  0  0  0  0  0  0  0  0
  161.7070  205.3270  152.0340 C   0  0  0  0  0  3  0  0  0  0  0  0
  161.7120  208.1780  151.6370 C   0  0  2  0  0  3  0  0  0  0  0  0
  160.3600  209.6440  153.7710 C   0  0  0  0  0  0  0  0  0  0  0  0
  160.1480  209.5330  157.2610 O   0  0  0  0  0  0  0  0  0  0  0  0
  159.7950  210.2430  155.0210 C   0  0  1  0  0  3  0  0  0  0  0  0
  156.4780  211.8830  155.6400 C   0  0  0  0  0  2  0  0  0  0  0  0
  159.8390  213.1570  154.3450 C   0  0  0  0  0  1  0  0  0  0  0  0
  161.6090  206.0980  153.1180 C   0  0  0  0  0  3  0  0  0  0  0  0
  161.3530  207.5410  152.9650 C   0  0  0  0  0  0  0  0  0  0  0  0
  159.1160  212.3710  153.2540 C   0  0  2  0  0  3  0  0  0  0  0  0
  161.6590  212.4360  149.1160 O   0  0  0  0  0  0  0  0  0  0  0  0
  160.5120  212.2410  147.0210 C   0  0  0  0  0  1  0  0  0  0  0  0
  161.7250  211.8360  147.8300 C   0  0  0  0  0  2  0  0  0  0  0  0
  1 19  1  0  0  0  0
  1  4  1  0  0  0  0
  2 13  2  0  0  0  0
  3 10  1  0  0  0  0
  4 20  2  0  0  0  0
  5  1  2  0  0  0  0
  6  8  1  0  0  0  0
  7 15  1  1  0  0  0
  7  9  1  0  0  0  0
  8 12  1  0  0  0  0
  9 22  1  0  0  0  0
  9 14  1  1  0  0  0
 10 21  2  0  0  0  0
 11  5  1  0  0  0  0
 11  8  2  0  0  0  0
 12  4  1  0  0  0  0
 12 27  1  0  0  0  0
 13 18  1  0  0  0  0
 15 23  1  0  0  0  0
 16  2  1  0  0  0  0
 17  3  1  0  0  0  0
 18 25  2  0  0  0  0
 19  2  1  6  0  0  0
 19 26  1  0  0  0  0
 20 17  1  0  0  0  0
 22 20  1  6  0  0  0
 22 10  1  0  0  0  0
 23 14  1  0  0  0  0
 26 25  1  0  0  0  0
 26 17  2  0  0  0  0
 27  7  1  0  0  0  0
 27 24  1  1  0  0  0
 28 11  1  0  0  0  0
 29 30  1  0  0  0  0
 30 28  1  0  0  0  0
M  END
>  <MODEL>
1

>  <REMARK>
 VINA RESULT:      -6.7      0.000      0.000
  Name = 
  2 active torsions:
  status: ('A' for Active; 'I' for Inactive)
    1  A    between atoms: C_11  and  O_28
    2  A    between atoms: O_28  and  C_30
                            x       y       z     vdW  Elec       q    Type
                         _______ _______ _______ _____ _____    ______ ____

>  <TORSDO>
F 2

$$$$
=
 OpenBabel11122412383D

 30 35  0  0  1  0  0  0  0  0999 V2000
  161.5320  208.2740  150.5930 C   0  0  0  0  0  0  0  0  0  0  0  0
  161.1630  205.9850  149.4220 C   0  0  0  0  0  0  0  0  0  0  0  0
  160.9070  206.0470  154.6010 S   0  0  0  0  0  0  0  0  0  0  0  0
  161.1400  208.9790  151.8420 C   0  0  0  0  0  0  0  0  0  0  0  0
  161.8800  209.0030  149.5320 C   0  0  0  0  0  3  0  0  0  0  0  0
  161.1990  212.6280  150.5180 C   0  0  0  0  0  1  0  0  0  0  0  0
  159.0510  210.4960  153.4490 C   0  0  1  0  0  3  0  0  0  0  0  0
  161.3140  211.1330  150.5800 C   0  0  0  0  0  0  0  0  0  0  0  0
  159.3700  209.3830  154.4530 C   0  0  2  0  0  3  0  0  0  0  0  0
  161.0110  207.6940  155.2880 C   0  0  0  0  0  0  0  0  0  0  0  0
  161.7740  210.4740  149.5050 C   0  0  0  0  0  0  0  0  0  0  0  0
  160.9260  210.4190  151.7780 N   0  0  0  0  0  0  0  0  0  0  0  0
  161.0300  204.6560  149.5260 C   0  0  0  0  0  3  0  0  0  0  0  0
  159.0880  209.9790  155.8180 C   0  0  0  0  0  2  0  0  0  0  0  0
  158.1800  211.5050  154.1820 C   0  0  0  0  0  2  0  0  0  0  0  0
  160.8470  206.6890  147.8430 Cl  0  0  0  0  0  0  0  0  0  0  0  0
  161.2220  206.8020  153.0070 C   0  0  0  0  0  0  0  0  0  0  0  0
  161.2920  203.9470  150.7940 C   0  0  0  0  0  3  0  0  0  0  0  0
  161.7730  206.7770  150.5760 C   0  0  2  0  0  3  0  0  0  0  0  0
  161.0480  208.2610  152.9850 C   0  0  0  0  0  0  0  0  0  0  0  0
  161.3350  207.8780  156.4490 O   0  0  0  0  0  0  0  0  0  0  0  0
  160.7960  208.8360  154.3430 C   0  0  1  0  0  3  0  0  0  0  0  0
  157.9730  210.9720  155.5860 C   0  0  0  0  0  2  0  0  0  0  0  0
  161.2850  211.7450  153.8460 C   0  0  0  0  0  1  0  0  0  0  0  0
  161.5010  204.6230  151.9250 C   0  0  0  0  0  3  0  0  0  0  0  0
  161.5000  206.0960  151.9030 C   0  0  0  0  0  0  0  0  0  0  0  0
  160.2750  211.1990  152.8410 C   0  0  2  0  0  3  0  0  0  0  0  0
  162.1480  211.1850  148.3590 O   0  0  0  0  0  0  0  0  0  0  0  0
  161.8090  212.9490  146.7730 C   0  0  0  0  0  1  0  0  0  0  0  0
  161.2000  211.7470  147.4640 C   0  0  0  0  0  2  0  0  0  0  0  0
  1  4  1  0  0  0  0
  2 13  2  0  0  0  0
  3 10  1  0  0  0  0
  4 20  2  0  0  0  0
  5  1  2  0  0  0  0
  6  8  1  0  0  0  0
  7 15  1  1  0  0  0
  7  9  1  0  0  0  0
  8 12  1  0  0  0  0
  9 14  1  1  0  0  0
 10 21  2  0  0  0  0
 11  5  1  0  0  0  0
 11  8  2  0  0  0  0
 12  4  1  0  0  0  0
 12 27  1  0  0  0  0
 13 18  1  0  0  0  0
 15 23  1  0  0  0  0
 16  2  1  0  0  0  0
 17  3  1  0  0  0  0
 18 25  2  0  0  0  0
 19  2  1  6  0  0  0
 19  1  1  0  0  0  0
 19 26  1  0  0  0  0
 20 17  1  0  0  0  0
 22 20  1  6  0  0  0
 22  9  1  0  0  0  0
 22 10  1  0  0  0  0
 23 14  1  0  0  0  0
 26 25  1  0  0  0  0
 26 17  2  0  0  0  0
 27  7  1  0  0  0  0
 27 24  1  1  0  0  0
 28 11  1  0  0  0  0
 29 30  1  0  0  0  0
 30 28  1  0  0  0  0
M  END
>  <MODEL>
2

>  <REMARK>
 VINA RESULT:      -5.5      1.279      1.712
  Name = 
  2 active torsions:
  status: ('A' for Active; 'I' for Inactive)
    1  A    between atoms: C_11  and  O_28
    2  A    between atoms: O_28  and  C_30
                            x       y       z     vdW  Elec       q    Type
                         _______ _______ _______ _____ _____    ______ ____

>  <TORSDO>
F 2

$$$$
=
 OpenBabel11122412383D

 30 35  0  0  1  0  0  0  0  0999 V2000
  161.1110  210.2760  151.5420 C   0  0  0  0  0  0  0  0  0  0  0  0
  161.4370  207.7120  151.2760 C   0  0  0  0  0  0  0  0  0  0  0  0
  159.9830  209.4260  155.9500 S   0  0  0  0  0  0  0  0  0  0  0  0
  160.3210  211.2340  152.3610 C   0  0  0  0  0  0  0  0  0  0  0  0
  161.5580  210.6730  150.3510 C   0  0  0  0  0  3  0  0  0  0  0  0
  160.0330  214.1270  149.7890 C   0  0  0  0  0  1  0  0  0  0  0  0
  157.6810  212.6260  152.9450 C   0  0  1  0  0  3  0  0  0  0  0  0
  160.3950  212.8170  150.4240 C   0  0  0  0  0  0  0  0  0  0  0  0
  157.9530  212.0270  154.3290 C   0  0  2  0  0  3  0  0  0  0  0  0
  159.6300  211.1790  155.9750 C   0  0  0  0  0  0  0  0  0  0  0  0
  161.2010  211.9750  149.7580 C   0  0  0  0  0  0  0  0  0  0  0  0
  159.8740  212.4690  151.7290 N   0  0  0  0  0  0  0  0  0  0  0  0
  161.5220  206.5050  151.8500 C   0  0  0  0  0  3  0  0  0  0  0  0
  157.2610  212.9520  155.3110 C   0  0  0  0  0  2  0  0  0  0  0  0
  156.4990  213.5690  153.1040 C   0  0  0  0  0  2  0  0  0  0  0  0
  161.3740  207.7490  149.5200 Cl  0  0  0  0  0  0  0  0  0  0  0  0
  160.5180  209.6620  154.2560 C   0  0  0  0  0  0  0  0  0  0  0  0
  161.6060  206.3470  153.3160 C   0  0  0  0  0  3  0  0  0  0  0  0
  161.6110  208.9680  152.1260 C   0  0  2  0  0  3  0  0  0  0  0  0
  160.0970  210.9380  153.6610 C   0  0  0  0  0  0  0  0  0  0  0  0
  159.6390  211.8130  157.0170 O   0  0  0  0  0  0  0  0  0  0  0  0
  159.4400  211.8490  154.6490 C   0  0  1  0  0  3  0  0  0  0  0  0
  156.0710  213.4990  154.5570 C   0  0  0  0  0  2  0  0  0  0  0  0
  159.5030  214.4520  153.1760 C   0  0  0  0  0  1  0  0  0  0  0  0
  161.4230  207.3900  154.1270 C   0  0  0  0  0  3  0  0  0  0  0  0
  161.1660  208.7220  153.5540 C   0  0  0  0  0  0  0  0  0  0  0  0
  158.8670  213.3690  152.3090 C   0  0  2  0  0  3  0  0  0  0  0  0
  161.6970  212.3340  148.4990 O   0  0  0  0  0  0  0  0  0  0  0  0
  163.0920  214.1850  147.8910 C   0  0  0  0  0  1  0  0  0  0  0  0
  163.0460  212.7250  148.2910 C   0  0  0  0  0  2  0  0  0  0  0  0
  1 19  1  0  0  0  0
  1  4  1  0  0  0  0
  2 13  2  0  0  0  0
  3 10  1  0  0  0  0
  4 20  2  0  0  0  0
  5  1  2  0  0  0  0
  6  8  1  0  0  0  0
  7 15  1  1  0  0  0
  7  9  1  0  0  0  0
  8 12  1  0  0  0  0
  9 22  1  0  0  0  0
  9 14  1  1  0  0  0
 10 21  2  0  0  0  0
 11  5  1  0  0  0  0
 11  8  2  0  0  0  0
 12 27  1  0  0  0  0
 12  4  1  0  0  0  0
 13 18  1  0  0  0  0
 15 23  1  0  0  0  0
 16  2  1  0  0  0  0
 17  3  1  0  0  0  0
 18 25  2  0  0  0  0
 19  2  1  6  0  0  0
 19 26  1  0  0  0  0
 20 17  1  0  0  0  0
 22 20  1  6  0  0  0
 22 10  1  0  0  0  0
 23 14  1  0  0  0  0
 26 25  1  0  0  0  0
 26 17  2  0  0  0  0
 27  7  1  0  0  0  0
 27 24  1  1  0  0  0
 28 11  1  0  0  0  0
 29 30  1  0  0  0  0
 30 28  1  0  0  0  0
M  END
>  <MODEL>
3

>  <REMARK>
 VINA RESULT:      -5.4      1.321      1.546
  Name = 
  2 active torsions:
  status: ('A' for Active; 'I' for Inactive)
    1  A    between atoms: C_11  and  O_28
    2  A    between atoms: O_28  and  C_30
                            x       y       z     vdW  Elec       q    Type
                         _______ _______ _______ _____ _____    ______ ____

>  <TORSDO>
F 2

$$$$
=
 OpenBabel11122412383D

 30 35  0  0  1  0  0  0  0  0999 V2000
  160.4600  210.1930  153.0270 C   0  0  0  0  0  0  0  0  0  0  0  0
  159.0210  212.3490  152.8700 C   0  0  0  0  0  0  0  0  0  0  0  0
  161.6400  210.9520  148.6170 S   0  0  0  0  0  0  0  0  0  0  0  0
  160.9760  209.1120  152.1440 C   0  0  0  0  0  0  0  0  0  0  0  0
  160.3250  209.9400  154.3300 C   0  0  0  0  0  3  0  0  0  0  0  0
  161.1080  206.2260  154.7360 C   0  0  0  0  0  1  0  0  0  0  0  0
  160.4890  206.5500  150.5820 C   0  0  1  0  0  3  0  0  0  0  0  0
  160.9050  207.5790  154.1210 C   0  0  0  0  0  0  0  0  0  0  0  0
  161.0480  207.4220  149.4520 C   0  0  2  0  0  3  0  0  0  0  0  0
  162.4600  209.3730  148.7870 C   0  0  0  0  0  0  0  0  0  0  0  0
  160.5500  208.6040  154.9110 C   0  0  0  0  0  0  0  0  0  0  0  0
  161.0840  207.7690  152.6970 N   0  0  0  0  0  0  0  0  0  0  0  0
  158.6780  213.4460  152.1820 C   0  0  0  0  0  3  0  0  0  0  0  0
  161.6920  206.4550  148.4780 C   0  0  0  0  0  2  0  0  0  0  0  0
  160.4040  205.1330  150.0350 C   0  0  0  0  0  2  0  0  0  0  0  0
  158.0630  211.9780  154.2950 Cl  0  0  0  0  0  0  0  0  0  0  0  0
  161.1960  210.7920  150.3460 C   0  0  0  0  0  0  0  0  0  0  0  0
  159.4220  213.8750  150.9810 C   0  0  0  0  0  3  0  0  0  0  0  0
  160.3160  211.6170  152.5270 C   0  0  0  0  0  0  0  0  0  0  0  0
  161.3640  209.4370  150.8900 C   0  0  0  0  0  0  0  0  0  0  0  0
  163.3940  209.0620  148.0660 O   0  0  0  0  0  0  0  0  0  0  0  0
  162.0230  208.5030  149.9250 C   0  0  1  0  0  3  0  0  0  0  0  0
  160.8810  205.1860  148.5970 C   0  0  0  0  0  2  0  0  0  0  0  0
  162.7910  206.2440  151.7310 C   0  0  0  0  0  1  0  0  0  0  0  0
  160.3540  213.0900  150.4390 C   0  0  0  0  0  2  0  0  0  0  0  0
  160.6660  211.7920  151.0630 C   0  0  0  0  0  0  0  0  0  0  0  0
  161.3060  206.5640  151.8840 C   0  0  2  0  0  3  0  0  0  0  0  0
  160.3860  208.3990  156.2860 O   0  0  0  0  0  0  0  0  0  0  0  0
  162.4250  209.2320  157.2320 C   0  0  0  0  0  1  0  0  0  0  0  0
  160.9120  209.2880  157.2610 C   0  0  0  0  0  2  0  0  0  0  0  0
  1  5  2  0  0  0  0
  2 16  1  0  0  0  0
  3 10  1  0  0  0  0
  3 17  1  0  0  0  0
  4 12  1  0  0  0  0
  4  1  1  0  0  0  0
  5 11  1  0  0  0  0
  7 15  1  6  0  0  0
  7 27  1  0  0  0  0
  8  6  1  0  0  0  0
  8 11  2  0  0  0  0
  9 14  1  6  0  0  0
  9 22  1  0  0  0  0
  9  7  1  0  0  0  0
 11 28  1  0  0  0  0
 12  8  1  0  0  0  0
 13  2  1  0  0  0  0
 14 23  1  0  0  0  0
 17 20  1  0  0  0  0
 17 26  2  0  0  0  0
 18 13  2  0  0  0  0
 19  2  2  0  0  0  0
 19  1  1  0  0  0  0
 20  4  2  0  0  0  0
 21 10  2  0  0  0  0
 22 10  1  6  0  0  0
 22 20  1  0  0  0  0
 23 15  1  0  0  0  0
 25 18  1  0  0  0  0
 25 26  1  0  0  0  0
 26 19  1  0  0  0  0
 27 24  1  6  0  0  0
 27 12  1  0  0  0  0
 28 30  1  0  0  0  0
 29 30  1  0  0  0  0
M  END
>  <MODEL>
4

>  <REMARK>
 VINA RESULT:      -5.3      2.788      7.203
  Name = 
  2 active torsions:
  status: ('A' for Active; 'I' for Inactive)
    1  A    between atoms: C_11  and  O_28
    2  A    between atoms: O_28  and  C_30
                            x       y       z     vdW  Elec       q    Type
                         _______ _______ _______ _____ _____    ______ ____

>  <TORSDO>
F 2

$$$$
=
 OpenBabel11122412383D

 30 35  0  0  1  0  0  0  0  0999 V2000
  161.4710  210.4700  150.3270 C   0  0  0  0  0  0  0  0  0  0  0  0
  162.2430  212.2870  148.6380 C   0  0  0  0  0  0  0  0  0  0  0  0
  159.2330  213.8490  152.5620 S   0  0  0  0  0  0  0  0  0  0  0  0
  161.0740  210.3530  151.7560 C   0  0  0  0  0  0  0  0  0  0  0  0
  161.9360  209.3870  149.7030 C   0  0  0  0  0  3  0  0  0  0  0  0
  162.2340  206.7060  152.4040 C   0  0  0  0  0  1  0  0  0  0  0  0
  161.8590  210.2240  154.6900 C   0  0  1  0  0  3  0  0  0  0  0  0
  161.9490  208.0080  151.7170 C   0  0  0  0  0  0  0  0  0  0  0  0
  160.8710  211.3930  154.7530 C   0  0  2  0  0  3  0  0  0  0  0  0
  158.9000  212.5530  153.7470 C   0  0  0  0  0  0  0  0  0  0  0  0
  162.1890  208.1130  150.4000 C   0  0  0  0  0  0  0  0  0  0  0  0
  161.4320  209.1330  152.4670 N   0  0  0  0  0  0  0  0  0  0  0  0
  162.1420  213.5430  148.1850 C   0  0  0  0  0  3  0  0  0  0  0  0
  160.3050  211.3680  156.1590 C   0  0  0  0  0  2  0  0  0  0  0  0
  162.1870  209.8550  156.1290 C   0  0  0  0  0  2  0  0  0  0  0  0
  163.5430  211.3090  147.9720 Cl  0  0  0  0  0  0  0  0  0  0  0  0
  160.0580  212.5970  151.5800 C   0  0  0  0  0  0  0  0  0  0  0  0
  161.0770  214.4530  148.6520 C   0  0  0  0  0  3  0  0  0  0  0  0
  161.1370  211.7080  149.5160 C   0  0  2  0  0  3  0  0  0  0  0  0
  160.3600  211.3590  152.3100 C   0  0  0  0  0  0  0  0  0  0  0  0
  157.9460  212.6170  154.5060 O   0  0  0  0  0  0  0  0  0  0  0  0
  159.7740  211.3390  153.6860 C   0  0  1  0  0  3  0  0  0  0  0  0
  161.4200  210.8150  157.0160 C   0  0  0  0  0  2  0  0  0  0  0  0
  160.0080  208.4380  154.3800 C   0  0  0  0  0  1  0  0  0  0  0  0
  160.2840  214.1120  149.6680 C   0  0  0  0  0  3  0  0  0  0  0  0
  160.4530  212.7990  150.3150 C   0  0  0  0  0  0  0  0  0  0  0  0
  161.3590  208.9850  153.9290 C   0  0  2  0  0  3  0  0  0  0  0  0
  162.6850  207.0110  149.6930 O   0  0  0  0  0  0  0  0  0  0  0  0
  160.7630  205.9410  148.7430 C   0  0  0  0  0  1  0  0  0  0  0  0
  162.1150  206.5650  148.4720 C   0  0  0  0  0  2  0  0  0  0  0  0
  1  4  1  0  0  0  0
  3 10  1  0  0  0  0
  4 20  2  0  0  0  0
  4 12  1  0  0  0  0
  5  1  2  0  0  0  0
  5 11  1  0  0  0  0
  7  9  1  0  0  0  0
  7 15  1  1  0  0  0
  8  6  1  0  0  0  0
  8 12  1  0  0  0  0
  9 14  1  1  0  0  0
 10 21  2  0  0  0  0
 11  8  2  0  0  0  0
 12 27  1  0  0  0  0
 13  2  2  0  0  0  0
 13 18  1  0  0  0  0
 14 23  1  0  0  0  0
 15 23  1  0  0  0  0
 16  2  1  0  0  0  0
 17 20  1  0  0  0  0
 17  3  1  0  0  0  0
 18 25  2  0  0  0  0
 19  2  1  1  0  0  0
 19 26  1  0  0  0  0
 19  1  1  0  0  0  0
 22 20  1  6  0  0  0
 22 10  1  0  0  0  0
 22  9  1  0  0  0  0
 25 26  1  0  0  0  0
 26 17  2  0  0  0  0
 27 24  1  6  0  0  0
 27  7  1  0  0  0  0
 28 11  1  0  0  0  0
 30 29  1  0  0  0  0
 30 28  1  0  0  0  0
M  END
>  <MODEL>
5

>  <REMARK>
 VINA RESULT:      -5.0      2.512      5.185
  Name = 
  2 active torsions:
  status: ('A' for Active; 'I' for Inactive)
    1  A    between atoms: C_11  and  O_28
    2  A    between atoms: O_28  and  C_30
                            x       y       z     vdW  Elec       q    Type
                         _______ _______ _______ _____ _____    ______ ____

>  <TORSDO>
F 2

$$$$
