=
 OpenBabel11122412473D

 32 37  0  0  1  0  0  0  0  0999 V2000
  159.1160  209.1230  155.6160 C   0  0  0  0  0  2  0  0  0  0  0  0
  161.6940  206.0690  152.3900 C   0  0  1  0  0  3  0  0  0  0  0  0
  161.8870  209.3730  148.6760 C   0  0  0  0  0  3  0  0  0  0  0  0
  161.9130  208.3200  147.7640 C   0  0  0  0  0  3  0  0  0  0  0  0
  161.2650  203.6290  151.8130 C   0  0  2  0  0  3  0  0  0  0  0  0
  161.0240  202.7000  150.6710 C   0  0  0  0  0  0  0  0  0  0  0  0
  161.3170  207.1190  154.6310 C   0  0  1  0  0  3  0  0  0  0  0  0
  162.0920  208.4990  152.8660 C   0  0  0  0  0  2  0  0  0  0  0  0
  160.7550  201.9220  148.5670 C   0  0  0  0  0  0  0  0  0  0  0  0
  161.5560  209.5010  154.9180 C   0  0  0  0  0  2  0  0  0  0  0  0
  161.8380  209.0870  150.0390 C   0  0  0  0  0  3  0  0  0  0  0  0
  161.7650  207.4540  151.8940 N   0  0  0  0  0  0  0  0  0  0  0  0
  161.8090  207.7580  150.4860 C   0  0  0  0  0  0  0  0  0  0  0  0
  161.8440  205.2920  149.9790 C   0  0  2  0  0  3  0  0  0  0  0  0
  161.2580  200.9610  149.2710 N   0  0  0  0  0  0  0  0  0  0  0  0
  159.1520  207.6210  155.9450 C   0  0  0  0  0  2  0  0  0  0  0  0
  161.1670  208.4370  153.9930 N   0  0  2  0  0  0  0  0  0  0  0  0
  161.4570  201.4530  150.5910 C   0  0  0  0  0  3  0  0  0  0  0  0
  160.5550  206.9990  155.9600 C   0  0  0  0  0  2  0  0  0  0  0  0
  160.4340  209.8540  155.9120 C   0  0  1  0  0  3  0  0  0  0  0  0
  161.8820  207.0360  148.2050 N   0  0  0  0  0  0  0  0  0  0  0  0
  161.8100  206.7270  149.5310 C   0  0  0  0  0  0  0  0  0  0  0  0
  161.3590  204.3360  148.8600 C   0  0  0  0  0  2  0  0  0  0  0  0
  160.8530  206.0310  153.6690 C   0  0  0  0  0  2  0  0  0  0  0  0
  160.3430  203.3500  152.8230 O   0  0  0  0  0  1  0  0  0  0  0  0
  160.3960  201.7540  147.1320 C   0  0  0  0  0  1  0  0  0  0  0  0
  161.1260  205.0950  151.3390 C   0  0  2  0  0  3  0  0  0  0  0  0
  160.5120  203.1620  149.3570 C   0  0  2  0  0  3  0  0  0  0  0  0
  160.2180  211.2930  155.8960 N   0  0  0  0  0  2  0  0  0  0  0  0
  159.6270  211.9850  154.7930 C   0  0  0  0  0  0  0  0  0  0  0  0
  159.1410  211.2520  153.5900 C   0  0  0  0  0  1  0  0  0  0  0  0
  159.5060  213.2370  154.8410 O   0  0  0  0  0  0  0  0  0  0  0  0
  1 20  1  0  0  0  0
  1 16  1  0  0  0  0
  2 24  1  1  0  0  0
  3 11  1  0  0  0  0
  4 21  1  0  0  0  0
  4  3  2  0  0  0  0
  5 25  1  1  0  0  0
  6  5  1  0  0  0  0
  7 24  1  6  0  0  0
  7 19  1  0  0  0  0
  9 15  2  0  0  0  0
  9 28  1  0  0  0  0
 10 20  1  0  0  0  0
 11 13  2  0  0  0  0
 12  2  1  0  0  0  0
 12  8  1  0  0  0  0
 13 12  1  0  0  0  0
 14 23  1  6  0  0  0
 14 27  1  0  0  0  0
 15 18  1  0  0  0  0
 16 19  1  0  0  0  0
 17  8  1  6  0  0  0
 17  7  1  0  0  0  0
 17 10  1  0  0  0  0
 18  6  2  0  0  0  0
 20 29  1  6  0  0  0
 21 22  2  0  0  0  0
 22 14  1  0  0  0  0
 22 13  1  0  0  0  0
 23 28  1  0  0  0  0
 26  9  1  0  0  0  0
 27  5  1  0  0  0  0
 27  2  1  0  0  0  0
 28  6  1  0  0  0  0
 30 32  2  0  0  0  0
 30 29  1  0  0  0  0
 31 30  1  0  0  0  0
M  END
>  <MODEL>
1

>  <REMARK>
 VINA RESULT:      -8.8      0.000      0.000
  Name = 
  1 active torsions:
  status: ('A' for Active; 'I' for Inactive)
    1  A    between atoms: C_20  and  N_29
                            x       y       z     vdW  Elec       q    Type
                         _______ _______ _______ _____ _____    ______ ____

>  <TORSDO>
F 1

$$$$
=
 OpenBabel11122412473D

 32 37  0  0  1  0  0  0  0  0999 V2000
  159.2790  209.0380  155.8670 C   0  0  0  0  0  2  0  0  0  0  0  0
  161.8590  207.4170  151.7330 C   0  0  1  0  0  3  0  0  0  0  0  0
  161.9920  211.8590  149.4970 C   0  0  0  0  0  3  0  0  0  0  0  0
  162.0200  211.2170  148.2610 C   0  0  0  0  0  3  0  0  0  0  0  0
  161.4480  205.3560  150.2980 C   0  0  2  0  0  3  0  0  0  0  0  0
  161.2060  204.9110  148.8960 C   0  0  0  0  0  0  0  0  0  0  0  0
  161.4900  207.5630  154.2050 C   0  0  1  0  0  3  0  0  0  0  0  0
  162.2380  209.5050  153.0690 C   0  0  0  0  0  2  0  0  0  0  0  0
  160.9280  204.9600  146.6540 C   0  0  0  0  0  0  0  0  0  0  0  0
  161.7090  209.6740  155.3490 C   0  0  0  0  0  2  0  0  0  0  0  0
  161.9560  211.0910  150.6590 C   0  0  0  0  0  3  0  0  0  0  0  0
  161.9130  208.8890  151.7820 N   0  0  0  0  0  0  0  0  0  0  0  0
  161.9430  209.6900  150.5840 C   0  0  0  0  0  0  0  0  0  0  0  0
  161.9970  207.5850  149.2050 C   0  0  2  0  0  3  0  0  0  0  0  0
  161.4460  203.8130  146.9530 N   0  0  0  0  0  0  0  0  0  0  0  0
  159.3310  207.5210  155.6190 C   0  0  0  0  0  2  0  0  0  0  0  0
  161.3230  209.0220  154.0970 N   0  0  2  0  0  0  0  0  0  0  0  0
  161.6510  203.7860  148.3600 C   0  0  0  0  0  3  0  0  0  0  0  0
  160.7400  206.9530  155.3990 C   0  0  0  0  0  2  0  0  0  0  0  0
  160.5920  209.6240  156.4060 C   0  0  1  0  0  3  0  0  0  0  0  0
  162.0050  209.8600  148.1980 N   0  0  0  0  0  0  0  0  0  0  0  0
  161.9470  209.0840  149.3170 C   0  0  0  0  0  0  0  0  0  0  0  0
  161.5120  207.1030  147.8140 C   0  0  0  0  0  2  0  0  0  0  0  0
  161.0280  206.9010  152.9120 C   0  0  0  0  0  2  0  0  0  0  0  0
  160.5370  204.7140  151.1380 O   0  0  0  0  0  1  0  0  0  0  0  0
  160.5600  205.3280  145.2600 C   0  0  0  0  0  1  0  0  0  0  0  0
  161.2920  206.8920  150.3990 C   0  0  2  0  0  3  0  0  0  0  0  0
  160.6800  205.8190  147.8470 C   0  0  2  0  0  3  0  0  0  0  0  0
  160.3620  210.9640  156.9230 N   0  0  0  0  0  2  0  0  0  0  0  0
  159.9600  212.0630  156.1010 C   0  0  0  0  0  0  0  0  0  0  0  0
  159.6990  211.8850  154.6440 C   0  0  0  0  0  1  0  0  0  0  0  0
  159.8160  213.2020  156.6170 O   0  0  0  0  0  0  0  0  0  0  0  0
  1 20  1  0  0  0  0
  2 12  1  0  0  0  0
  2 24  1  1  0  0  0
  3 11  1  0  0  0  0
  4  3  2  0  0  0  0
  5 27  1  0  0  0  0
  5 25  1  1  0  0  0
  6  5  1  0  0  0  0
  7 24  1  6  0  0  0
  7 19  1  0  0  0  0
  9 15  2  0  0  0  0
  9 28  1  0  0  0  0
 10 20  1  0  0  0  0
 12  8  1  0  0  0  0
 13 11  2  0  0  0  0
 13 12  1  0  0  0  0
 14 23  1  6  0  0  0
 14 22  1  0  0  0  0
 14 27  1  0  0  0  0
 15 18  1  0  0  0  0
 16  1  1  0  0  0  0
 17  8  1  6  0  0  0
 17  7  1  0  0  0  0
 17 10  1  0  0  0  0
 18  6  2  0  0  0  0
 19 16  1  0  0  0  0
 20 29  1  6  0  0  0
 21  4  1  0  0  0  0
 21 22  2  0  0  0  0
 22 13  1  0  0  0  0
 23 28  1  0  0  0  0
 26  9  1  0  0  0  0
 27  2  1  0  0  0  0
 28  6  1  0  0  0  0
 30 32  2  0  0  0  0
 30 29  1  0  0  0  0
 31 30  1  0  0  0  0
M  END
>  <MODEL>
2

>  <REMARK>
 VINA RESULT:      -8.7      1.619      2.191
  Name = 
  1 active torsions:
  status: ('A' for Active; 'I' for Inactive)
    1  A    between atoms: C_20  and  N_29
                            x       y       z     vdW  Elec       q    Type
                         _______ _______ _______ _____ _____    ______ ____

>  <TORSDO>
F 1

$$$$
=
 OpenBabel11122412473D

 32 37  0  0  1  0  0  0  0  0999 V2000
  159.3700  212.9530  147.3320 C   0  0  0  0  0  2  0  0  0  0  0  0
  161.7230  210.3900  151.1100 C   0  0  1  0  0  3  0  0  0  0  0  0
  161.0590  205.8880  149.1010 C   0  0  0  0  0  3  0  0  0  0  0  0
  161.0500  205.3370  150.3800 C   0  0  0  0  0  3  0  0  0  0  0  0
  161.4450  210.6410  153.6260 C   0  0  2  0  0  3  0  0  0  0  0  0
  161.1280  209.8830  154.8710 C   0  0  0  0  0  0  0  0  0  0  0  0
  161.5810  212.2500  149.4410 C   0  0  1  0  0  3  0  0  0  0  0  0
  161.9560  210.0520  148.6360 C   0  0  0  0  0  2  0  0  0  0  0  0
  160.6280  208.1800  156.2690 C   0  0  0  0  0  0  0  0  0  0  0  0
  161.6350  211.7760  147.0770 C   0  0  0  0  0  2  0  0  0  0  0  0
  161.2370  207.2620  148.9560 C   0  0  0  0  0  3  0  0  0  0  0  0
  161.5900  209.5020  149.9420 N   0  0  0  0  0  0  0  0  0  0  0  0
  161.3990  208.0800  150.0840 C   0  0  0  0  0  0  0  0  0  0  0  0
  161.5910  208.3280  152.5820 C   0  0  2  0  0  3  0  0  0  0  0  0
  161.3170  209.0410  156.9430 N   0  0  0  0  0  0  0  0  0  0  0  0
  159.5940  213.7000  148.6570 C   0  0  0  0  0  2  0  0  0  0  0  0
  161.2160  211.2850  148.3900 N   0  0  2  0  0  0  0  0  0  0  0  0
  161.6600  210.1040  156.0610 C   0  0  0  0  0  3  0  0  0  0  0  0
  161.0360  213.6630  149.1810 C   0  0  0  0  0  2  0  0  0  0  0  0
  160.6420  212.7930  146.4870 C   0  0  1  0  0  3  0  0  0  0  0  0
  161.2050  206.1370  151.4680 N   0  0  0  0  0  0  0  0  0  0  0  0
  161.3580  207.4870  151.3570 C   0  0  0  0  0  0  0  0  0  0  0  0
  161.0400  207.6390  153.8560 C   0  0  0  0  0  2  0  0  0  0  0  0
  161.0850  211.7460  150.7910 C   0  0  0  0  0  2  0  0  0  0  0  0
  160.7120  211.8280  153.6230 O   0  0  0  0  0  1  0  0  0  0  0  0
  160.0810  206.9400  156.8850 C   0  0  0  0  0  1  0  0  0  0  0  0
  161.1020  209.7860  152.3840 C   0  0  2  0  0  3  0  0  0  0  0  0
  160.3890  208.5960  154.8580 C   0  0  2  0  0  3  0  0  0  0  0  0
  160.2920  212.3900  145.1340 N   0  0  0  0  0  2  0  0  0  0  0  0
  161.1190  212.6540  143.9980 C   0  0  0  0  0  0  0  0  0  0  0  0
  162.4410  213.3280  144.1430 C   0  0  0  0  0  1  0  0  0  0  0  0
  160.7300  212.3040  142.8540 O   0  0  0  0  0  0  0  0  0  0  0  0
  1 16  1  0  0  0  0
  2 24  1  6  0  0  0
  2 27  1  0  0  0  0
  3  4  1  0  0  0  0
  4 21  2  0  0  0  0
  5 25  1  6  0  0  0
  5  6  1  0  0  0  0
  6 18  2  0  0  0  0
  7 19  1  6  0  0  0
  7 24  1  0  0  0  0
  8 12  1  0  0  0  0
  9 26  1  0  0  0  0
  9 15  2  0  0  0  0
 11  3  2  0  0  0  0
 11 13  1  0  0  0  0
 12 13  1  0  0  0  0
 12  2  1  0  0  0  0
 13 22  2  0  0  0  0
 14 23  1  1  0  0  0
 16 19  1  0  0  0  0
 17 10  1  6  0  0  0
 17  8  1  0  0  0  0
 17  7  1  0  0  0  0
 18 15  1  0  0  0  0
 20 29  1  6  0  0  0
 20 10  1  0  0  0  0
 20  1  1  0  0  0  0
 22 21  1  0  0  0  0
 22 14  1  0  0  0  0
 23 28  1  0  0  0  0
 27 14  1  0  0  0  0
 27  5  1  0  0  0  0
 28  6  1  0  0  0  0
 28  9  1  0  0  0  0
 30 31  1  0  0  0  0
 30 29  1  0  0  0  0
 32 30  2  0  0  0  0
M  END
>  <MODEL>
3

>  <REMARK>
 VINA RESULT:      -8.2      3.654      7.761
  Name = 
  1 active torsions:
  status: ('A' for Active; 'I' for Inactive)
    1  A    between atoms: C_20  and  N_29
                            x       y       z     vdW  Elec       q    Type
                         _______ _______ _______ _____ _____    ______ ____

>  <TORSDO>
F 1

$$$$
