=
 OpenBabel11122413393D

 37 43  0  0  1  0  0  0  0  0999 V2000
  161.7240  210.2380  155.1840 O   0  0  0  0  0  0  0  0  0  0  0  0
  161.8300  206.6360  151.4720 C   0  0  0  0  0  0  0  0  0  0  0  0
  161.4410  210.9450  151.4720 C   0  0  1  0  0  3  0  0  0  0  0  0
  161.6910  210.3470  156.5870 C   0  0  2  0  0  3  0  0  0  0  0  0
  157.9700  211.4090  153.3330 C   0  0  0  0  0  2  0  0  0  0  0  0
  161.7340  208.7980  150.1550 C   0  0  1  0  0  3  0  0  0  0  0  0
  160.4550  211.0200  152.6400 C   0  0  1  0  0  3  0  0  0  0  0  0
  159.7980  212.0790  156.5860 C   0  0  2  0  0  3  0  0  0  0  0  0
  161.9820  209.5200  151.4850 C   0  0  2  0  0  3  0  0  0  0  0  0
  159.0690  211.6210  152.2760 C   0  0  2  0  0  3  0  0  0  0  0  0
  162.3390  209.5640  149.0680 N   0  0  0  0  0  2  0  0  0  0  0  0
  161.2490  211.7600  156.9770 C   0  0  0  0  0  2  0  0  0  0  0  0
  161.4600  208.7990  152.6650 N   0  0  2  0  0  0  0  0  0  0  0  0
  163.0270  206.2030  152.2960 C   0  0  0  0  0  1  0  0  0  0  0  0
  160.4860  212.8180  149.9830 C   0  0  0  0  0  2  0  0  0  0  0  0
  161.7170  210.8930  148.9190 C   0  0  0  0  0  2  0  0  0  0  0  0
  160.8850  207.4840  152.3410 C   0  0  0  0  0  2  0  0  0  0  0  0
  159.5130  211.5580  155.2420 N   0  0  2  0  0  0  0  0  0  0  0  0
  158.2600  212.0670  154.6880 C   0  0  0  0  0  2  0  0  0  0  0  0
  160.8340  211.3300  150.1040 C   0  0  1  0  0  3  0  0  0  0  0  0
  160.3880  209.6100  153.2350 C   0  0  1  0  0  3  0  0  0  0  0  0
  162.3240  207.3970  150.2320 C   0  0  0  0  0  2  0  0  0  0  0  0
  159.1700  213.1080  151.8750 C   0  0  1  0  0  3  0  0  0  0  0  0
  161.0850  205.3990  151.0170 C   0  0  0  0  0  1  0  0  0  0  0  0
  159.3700  210.2090  155.3620 O   0  0  0  0  0  0  0  0  0  0  0  0
  159.6340  213.5920  156.6580 C   0  0  0  0  0  1  0  0  0  0  0  0
  160.5140  209.6280  154.7680 C   0  0  2  0  0  3  0  0  0  0  0  0
  160.3830  213.4650  151.2350 O   0  0  0  0  0  0  0  0  0  0  0  0
  156.8590  213.9240  151.9070 C   0  0  0  0  0  3  0  0  0  0  0  0
  157.9500  213.6500  151.1840 C   0  0  0  0  0  0  0  0  0  0  0  0
  157.9870  214.0080  149.7170 C   0  0  0  0  0  2  0  0  0  0  0  0
  156.5920  214.4480  147.6940 C   0  0  0  0  0  1  0  0  0  0  0  0
  155.5320  214.4530  149.9290 C   0  0  0  0  0  3  0  0  0  0  0  0
  156.6060  213.8340  149.0770 C   0  0  2  0  0  3  0  0  0  0  0  0
  155.6430  214.4530  151.2610 C   0  0  0  0  0  3  0  0  0  0  0  0
  163.8620  211.3000  157.1250 N   0  0  0  0  0  1  0  0  0  0  0  0
  163.0730  210.0800  157.1510 C   0  0  0  0  0  2  0  0  0  0  0  0
  1  4  1  0  0  0  0
  2 14  1  0  0  0  0
  2 17  1  0  0  0  0
  3  9  1  0  0  0  0
  3  7  1  0  0  0  0
  4 12  1  0  0  0  0
  4 37  1  0  0  0  0
  5 19  1  0  0  0  0
  6 22  1  0  0  0  0
  6  9  1  0  0  0  0
  7 21  1  0  0  0  0
  8 26  1  0  0  0  0
  8 12  1  0  0  0  0
  9 13  1  0  0  0  0
 10  7  1  0  0  0  0
 10  5  1  0  0  0  0
 11  6  1  0  0  0  0
 13 21  1  0  0  0  0
 15 20  1  0  0  0  0
 15 28  1  0  0  0  0
 16 11  1  0  0  0  0
 16 20  1  0  0  0  0
 17 13  1  0  0  0  0
 18 25  1  0  0  0  0
 18  8  1  0  0  0  0
 19 18  1  0  0  0  0
 20  3  1  0  0  0  0
 21 27  1  0  0  0  0
 22  2  1  0  0  0  0
 23 10  1  0  0  0  0
 24  2  1  0  0  0  0
 27  1  1  0  0  0  0
 27 25  1  0  0  0  0
 28 23  1  0  0  0  0
 30 23  1  0  0  0  0
 30 29  2  0  0  0  0
 31 30  1  0  0  0  0
 32 34  1  0  0  0  0
 33 35  2  0  0  0  0
 34 31  1  0  0  0  0
 34 33  1  0  0  0  0
 35 29  1  0  0  0  0
 36 37  1  0  0  0  0
M  END
>  <MODEL>
1

>  <REMARK>
 VINA RESULT:      -6.6      0.000      0.000
  Name = 
  2 active torsions:
  status: ('A' for Active; 'I' for Inactive)
    1  A    between atoms: C_4  and  C_37
    2  A    between atoms: C_23  and  C_30
                            x       y       z     vdW  Elec       q    Type
                         _______ _______ _______ _____ _____    ______ ____

>  <TORSDO>
F 2

$$$$
