=
 OpenBabel11122414023D

 28 32  0  0  1  0  0  0  0  0999 V2000
  161.0780  208.0470  155.2510 C   0  0  0  0  0  0  0  0  0  0  0  0
  158.1050  211.5280  154.8310 O   0  0  0  0  0  0  0  0  0  0  0  0
  162.9280  208.0410  149.5500 O   0  0  0  0  0  0  0  0  0  0  0  0
  162.5500  209.9250  156.7200 C   0  0  0  0  0  3  0  0  0  0  0  0
  161.3840  209.8470  149.9190 C   0  0  1  0  0  3  0  0  0  0  0  0
  160.4560  206.9560  154.4560 C   0  0  0  0  0  2  0  0  0  0  0  0
  160.3220  212.4270  155.4200 O   0  0  0  0  0  0  0  0  0  0  0  0
  159.4000  212.0670  154.2920 S   0  0  0  0  0  0  0  0  0  0  0  0
  158.5970  213.1850  151.9200 C   0  0  1  0  0  3  0  0  0  0  0  0
  160.1130  210.9200  153.1670 C   0  0  0  0  0  0  0  0  0  0  0  0
  162.5450  205.1410  151.9520 O   0  0  0  0  0  1  0  0  0  0  0  0
  161.0930  209.2740  152.2080 C   0  0  0  0  0  0  0  0  0  0  0  0
  159.5500  212.3420  151.1980 N   0  0  0  0  0  2  0  0  0  0  0  0
  159.0970  213.5410  153.3230 C   0  0  0  0  0  2  0  0  0  0  0  0
  161.3820  205.7250  152.4540 C   0  0  2  0  0  3  0  0  0  0  0  0
  161.2980  209.3360  154.7130 C   0  0  0  0  0  0  0  0  0  0  0  0
  162.1710  208.6160  150.3160 C   0  0  0  0  0  0  0  0  0  0  0  0
  158.3460  214.4530  151.1310 C   0  0  0  0  0  1  0  0  0  0  0  0
  160.9850  206.9190  151.5910 C   0  0  0  0  0  2  0  0  0  0  0  0
  162.0570  210.2510  155.4570 C   0  0  0  0  0  3  0  0  0  0  0  0
  161.5720  207.7290  156.5250 C   0  0  0  0  0  3  0  0  0  0  0  0
  162.2960  208.6660  157.2610 C   0  0  0  0  0  3  0  0  0  0  0  0
  161.5820  206.0850  153.9160 C   0  0  0  0  0  2  0  0  0  0  0  0
  160.7430  210.1260  151.2220 C   0  0  0  0  0  0  0  0  0  0  0  0
  161.9100  208.1290  151.7260 C   0  0  2  0  0  3  0  0  0  0  0  0
  160.0870  211.1690  151.8120 C   0  0  0  0  0  0  0  0  0  0  0  0
  162.3360  210.9740  149.5550 C   0  0  0  0  0  1  0  0  0  0  0  0
  160.7590  209.7470  153.4380 N   0  0  0  0  0  0  0  0  0  0  0  0
  1 21  1  0  0  0  0
  3 17  2  0  0  0  0
  4 22  1  0  0  0  0
  5 27  1  1  0  0  0
  5 17  1  0  0  0  0
  5 24  1  0  0  0  0
  6  1  1  0  0  0  0
  8  2  2  0  0  0  0
  8  7  2  0  0  0  0
  9 18  1  6  0  0  0
  9 14  1  0  0  0  0
 10 28  1  0  0  0  0
 10  8  1  0  0  0  0
 12 28  1  0  0  0  0
 13 26  1  0  0  0  0
 13  9  1  0  0  0  0
 14  8  1  0  0  0  0
 15 11  1  6  0  0  0
 15 23  1  0  0  0  0
 16  1  2  0  0  0  0
 16 20  1  0  0  0  0
 17 25  1  0  0  0  0
 19 15  1  0  0  0  0
 20  4  2  0  0  0  0
 21 22  2  0  0  0  0
 23  6  1  0  0  0  0
 24 26  1  0  0  0  0
 24 12  2  0  0  0  0
 25 19  1  6  0  0  0
 25 12  1  0  0  0  0
 26 10  2  0  0  0  0
 28 16  1  0  0  0  0
M  END
>  <MODEL>
1

>  <REMARK>
 VINA RESULT:      -5.3      0.000      0.000
  Name = 
  0 active torsions:
  status: ('A' for Active; 'I' for Inactive)
                            x       y       z     vdW  Elec       q    Type
                         _______ _______ _______ _____ _____    ______ ____

>  <TORSDO>
F 0

$$$$
=
 OpenBabel11122414023D

 28 32  0  0  1  0  0  0  0  0999 V2000
  160.8850  208.2380  155.0830 C   0  0  0  0  0  0  0  0  0  0  0  0
  156.9490  210.4990  155.8100 O   0  0  0  0  0  0  0  0  0  0  0  0
  162.2030  210.8330  149.8440 O   0  0  0  0  0  0  0  0  0  0  0  0
  161.8030  209.8430  157.1900 C   0  0  0  0  0  3  0  0  0  0  0  0
  160.2030  211.7990  150.7680 C   0  0  1  0  0  3  0  0  0  0  0  0
  160.5770  207.3600  153.9250 C   0  0  0  0  0  2  0  0  0  0  0  0
  158.8110  211.7910  156.7770 O   0  0  0  0  0  0  0  0  0  0  0  0
  157.9650  211.5770  155.5560 S   0  0  0  0  0  0  0  0  0  0  0  0
  156.6730  213.1400  153.7090 C   0  0  1  0  0  3  0  0  0  0  0  0
  158.9130  211.1920  154.1270 C   0  0  0  0  0  0  0  0  0  0  0  0
  162.9310  207.3130  151.0290 O   0  0  0  0  0  1  0  0  0  0  0  0
  160.2820  210.3950  152.6850 C   0  0  0  0  0  0  0  0  0  0  0  0
  157.7840  212.9570  152.7750 N   0  0  0  0  0  2  0  0  0  0  0  0
  157.1420  213.1180  155.1670 C   0  0  0  0  0  2  0  0  0  0  0  0
  161.6870  207.2790  151.6560 C   0  0  2  0  0  3  0  0  0  0  0  0
  160.6490  209.6320  155.0530 C   0  0  0  0  0  0  0  0  0  0  0  0
  161.3640  210.8270  150.7320 C   0  0  0  0  0  0  0  0  0  0  0  0
  155.9790  214.4530  153.4170 C   0  0  0  0  0  1  0  0  0  0  0  0
  160.8700  208.5060  151.2610 C   0  0  0  0  0  2  0  0  0  0  0  0
  161.1380  210.4180  156.1070 C   0  0  0  0  0  3  0  0  0  0  0  0
  161.5500  207.6670  156.1790 C   0  0  0  0  0  3  0  0  0  0  0  0
  161.9980  208.4640  157.2320 C   0  0  0  0  0  3  0  0  0  0  0  0
  161.8740  207.1440  153.1580 C   0  0  0  0  0  2  0  0  0  0  0  0
  159.6090  211.3810  152.0560 C   0  0  0  0  0  0  0  0  0  0  0  0
  161.3780  209.8180  151.8610 C   0  0  2  0  0  3  0  0  0  0  0  0
  158.7070  211.8810  152.9510 C   0  0  0  0  0  0  0  0  0  0  0  0
  160.7240  213.2230  150.8730 C   0  0  0  0  0  1  0  0  0  0  0  0
  159.9130  210.2710  153.9880 N   0  0  0  0  0  0  0  0  0  0  0  0
  1 21  1  0  0  0  0
  3 17  2  0  0  0  0
  4 22  1  0  0  0  0
  5 27  1  1  0  0  0
  5 24  1  0  0  0  0
  6  1  1  0  0  0  0
  8  2  2  0  0  0  0
  8  7  2  0  0  0  0
  9 18  1  6  0  0  0
  9 14  1  0  0  0  0
 10  8  1  0  0  0  0
 12 28  1  0  0  0  0
 13 26  1  0  0  0  0
 13  9  1  0  0  0  0
 14  8  1  0  0  0  0
 15 11  1  6  0  0  0
 15 23  1  0  0  0  0
 16  1  2  0  0  0  0
 16 20  1  0  0  0  0
 17  5  1  0  0  0  0
 17 25  1  0  0  0  0
 19 15  1  0  0  0  0
 20  4  2  0  0  0  0
 21 22  2  0  0  0  0
 23  6  1  0  0  0  0
 24 12  2  0  0  0  0
 24 26  1  0  0  0  0
 25 19  1  6  0  0  0
 25 12  1  0  0  0  0
 26 10  2  0  0  0  0
 28 10  1  0  0  0  0
 28 16  1  0  0  0  0
M  END
>  <MODEL>
2

>  <REMARK>
 VINA RESULT:      -4.5      1.650      1.940
  Name = 
  0 active torsions:
  status: ('A' for Active; 'I' for Inactive)
                            x       y       z     vdW  Elec       q    Type
                         _______ _______ _______ _____ _____    ______ ____

>  <TORSDO>
F 0

$$$$
=
 OpenBabel11122414023D

 28 32  0  0  1  0  0  0  0  0999 V2000
  161.1300  209.8080  155.1440 C   0  0  0  0  0  0  0  0  0  0  0  0
  163.5940  210.5650  151.3380 O   0  0  0  0  0  0  0  0  0  0  0  0
  156.7520  213.7110  153.9080 O   0  0  0  0  0  0  0  0  0  0  0  0
  160.5890  207.3560  153.9000 C   0  0  0  0  0  3  0  0  0  0  0  0
  158.3160  213.6140  152.0830 C   0  0  1  0  0  3  0  0  0  0  0  0
  161.2690  211.0740  155.9100 C   0  0  0  0  0  2  0  0  0  0  0  0
  161.9560  208.7780  150.8960 O   0  0  0  0  0  0  0  0  0  0  0  0
  162.2100  210.2560  150.8390 S   0  0  0  0  0  0  0  0  0  0  0  0
  161.7860  212.2990  149.0590 C   0  0  1  0  0  3  0  0  0  0  0  0
  161.0200  211.1880  151.7360 C   0  0  0  0  0  0  0  0  0  0  0  0
  158.1950  212.7040  157.2590 O   0  0  0  0  0  1  0  0  0  0  0  0
  159.6680  211.9980  153.1870 C   0  0  0  0  0  0  0  0  0  0  0  0
  160.5870  212.6950  149.7980 N   0  0  0  0  0  2  0  0  0  0  0  0
  162.0340  210.7890  149.1400 C   0  0  0  0  0  2  0  0  0  0  0  0
  159.4660  212.6640  156.6870 C   0  0  2  0  0  3  0  0  0  0  0  0
  160.7020  209.7890  153.7970 C   0  0  0  0  0  0  0  0  0  0  0  0
  157.7970  213.2620  153.4610 C   0  0  0  0  0  0  0  0  0  0  0  0
  161.6480  212.7160  147.6110 C   0  0  0  0  0  1  0  0  0  0  0  0
  159.4190  213.2340  155.2720 C   0  0  0  0  0  2  0  0  0  0  0  0
  160.4150  208.5510  153.2020 C   0  0  0  0  0  3  0  0  0  0  0  0
  161.3080  208.6010  155.8370 C   0  0  0  0  0  3  0  0  0  0  0  0
  161.0490  207.3800  155.2150 C   0  0  0  0  0  3  0  0  0  0  0  0
  160.0060  211.2450  156.7430 C   0  0  0  0  0  2  0  0  0  0  0  0
  159.5120  212.7450  152.0730 C   0  0  0  0  0  0  0  0  0  0  0  0
  158.6980  212.3430  154.2600 C   0  0  2  0  0  3  0  0  0  0  0  0
  160.3920  212.2620  151.1450 C   0  0  0  0  0  0  0  0  0  0  0  0
  157.3280  213.1510  151.0250 C   0  0  0  0  0  1  0  0  0  0  0  0
  160.5640  210.9910  153.0090 N   0  0  0  0  0  0  0  0  0  0  0  0
  1 21  1  0  0  0  0
  1  6  1  0  0  0  0
  4 22  1  0  0  0  0
  5 27  1  6  0  0  0
  5 17  1  0  0  0  0
  6 23  1  0  0  0  0
  8  7  2  0  0  0  0
  8  2  2  0  0  0  0
  8 10  1  0  0  0  0
  9 18  1  6  0  0  0
  9 14  1  0  0  0  0
  9 13  1  0  0  0  0
 10 28  1  0  0  0  0
 12 25  1  0  0  0  0
 13 26  1  0  0  0  0
 14  8  1  0  0  0  0
 15 23  1  0  0  0  0
 15 11  1  6  0  0  0
 16  1  2  0  0  0  0
 17  3  2  0  0  0  0
 17 25  1  0  0  0  0
 19 15  1  0  0  0  0
 20 16  1  0  0  0  0
 20  4  2  0  0  0  0
 22 21  2  0  0  0  0
 24  5  1  0  0  0  0
 24 12  2  0  0  0  0
 25 19  1  1  0  0  0
 26 10  2  0  0  0  0
 26 24  1  0  0  0  0
 28 12  1  0  0  0  0
 28 16  1  0  0  0  0
M  END
>  <MODEL>
3

>  <REMARK>
 VINA RESULT:      -4.2      1.964      5.260
  Name = 
  0 active torsions:
  status: ('A' for Active; 'I' for Inactive)
                            x       y       z     vdW  Elec       q    Type
                         _______ _______ _______ _____ _____    ______ ____

>  <TORSDO>
F 0

$$$$
=
 OpenBabel11122414023D

 28 32  0  0  1  0  0  0  0  0999 V2000
  161.6120  205.8870  152.1180 C   0  0  0  0  0  0  0  0  0  0  0  0
  163.5960  208.4090  148.8270 O   0  0  0  0  0  0  0  0  0  0  0  0
  159.0010  210.4530  154.9920 O   0  0  0  0  0  0  0  0  0  0  0  0
  159.9740  205.0370  150.0090 C   0  0  0  0  0  3  0  0  0  0  0  0
  160.1180  211.2480  153.0160 C   0  0  1  0  0  3  0  0  0  0  0  0
  162.3480  206.2750  153.3490 C   0  0  0  0  0  2  0  0  0  0  0  0
  161.3420  207.7480  148.0860 O   0  0  0  0  0  0  0  0  0  0  0  0
  162.1470  208.8040  148.7850 S   0  0  0  0  0  0  0  0  0  0  0  0
  162.3110  211.5420  148.7710 C   0  0  1  0  0  3  0  0  0  0  0  0
  161.5650  209.1440  150.4080 C   0  0  0  0  0  0  0  0  0  0  0  0
  160.3970  207.2230  156.3860 O   0  0  0  0  0  1  0  0  0  0  0  0
  160.8670  209.0670  152.4320 C   0  0  0  0  0  0  0  0  0  0  0  0
  161.4860  211.5990  149.9790 N   0  0  0  0  0  2  0  0  0  0  0  0
  161.9530  210.3410  147.8890 C   0  0  0  0  0  2  0  0  0  0  0  0
  161.4520  207.3000  155.4770 C   0  0  2  0  0  3  0  0  0  0  0  0
  161.0210  206.8470  151.2630 C   0  0  0  0  0  0  0  0  0  0  0  0
  159.7070  210.1990  154.0280 C   0  0  0  0  0  0  0  0  0  0  0  0
  162.1410  212.8220  147.9820 C   0  0  0  0  0  1  0  0  0  0  0  0
  161.4300  208.6500  154.7660 C   0  0  0  0  0  2  0  0  0  0  0  0
  160.1860  206.3980  150.2290 C   0  0  0  0  0  3  0  0  0  0  0  0
  161.3980  204.5210  151.8860 C   0  0  0  0  0  3  0  0  0  0  0  0
  160.5910  204.0970  150.8310 C   0  0  0  0  0  3  0  0  0  0  0  0
  161.3900  206.1200  154.5220 C   0  0  0  0  0  2  0  0  0  0  0  0
  160.8590  210.3710  152.0840 C   0  0  0  0  0  0  0  0  0  0  0  0
  160.2780  208.8190  153.7750 C   0  0  2  0  0  3  0  0  0  0  0  0
  161.3330  210.4430  150.8040 C   0  0  0  0  0  0  0  0  0  0  0  0
  158.8860  211.8140  152.3290 C   0  0  0  0  0  1  0  0  0  0  0  0
  161.2570  208.2640  151.4070 N   0  0  0  0  0  0  0  0  0  0  0  0
  1  6  1  0  0  0  0
  4 20  2  0  0  0  0
  4 22  1  0  0  0  0
  5 27  1  6  0  0  0
  5 17  1  0  0  0  0
  6 23  1  0  0  0  0
  7  8  2  0  0  0  0
  8  2  2  0  0  0  0
  8 10  1  0  0  0  0
  9 18  1  6  0  0  0
  9 13  1  0  0  0  0
 10 26  2  0  0  0  0
 10 28  1  0  0  0  0
 12 25  1  0  0  0  0
 13 26  1  0  0  0  0
 14  9  1  0  0  0  0
 14  8  1  0  0  0  0
 15 11  1  1  0  0  0
 16 28  1  0  0  0  0
 16  1  2  0  0  0  0
 17  3  2  0  0  0  0
 19 15  1  0  0  0  0
 20 16  1  0  0  0  0
 21  1  1  0  0  0  0
 22 21  2  0  0  0  0
 23 15  1  0  0  0  0
 24 12  2  0  0  0  0
 24  5  1  0  0  0  0
 25 17  1  0  0  0  0
 25 19  1  1  0  0  0
 26 24  1  0  0  0  0
 28 12  1  0  0  0  0
M  END
>  <MODEL>
4

>  <REMARK>
 VINA RESULT:      -4.1      2.187      5.197
  Name = 
  0 active torsions:
  status: ('A' for Active; 'I' for Inactive)
                            x       y       z     vdW  Elec       q    Type
                         _______ _______ _______ _____ _____    ______ ____

>  <TORSDO>
F 0

$$$$
=
 OpenBabel11122414023D

 28 32  0  0  1  0  0  0  0  0999 V2000
  159.4970  213.5680  151.2020 C   0  0  0  0  0  0  0  0  0  0  0  0
  160.4570  212.9210  155.6510 O   0  0  0  0  0  0  0  0  0  0  0  0
  161.9270  208.4560  149.2320 O   0  0  0  0  0  0  0  0  0  0  0  0
  156.8670  213.0990  152.0490 C   0  0  0  0  0  3  0  0  0  0  0  0
  162.0490  208.5610  151.6310 C   0  0  1  0  0  3  0  0  0  0  0  0
  160.8310  213.7790  150.5820 C   0  0  0  0  0  2  0  0  0  0  0  0
  158.2600  211.9260  155.1480 O   0  0  0  0  0  0  0  0  0  0  0  0
  159.7370  211.6710  155.2330 S   0  0  0  0  0  0  0  0  0  0  0  0
  161.3820  209.7150  156.2290 C   0  0  1  0  0  3  0  0  0  0  0  0
  160.4100  211.0560  153.7300 C   0  0  0  0  0  0  0  0  0  0  0  0
  161.7200  211.8280  147.5270 O   0  0  0  0  0  1  0  0  0  0  0  0
  160.9860  210.6860  151.6990 C   0  0  0  0  0  0  0  0  0  0  0  0
  161.5230  209.1490  154.8870 N   0  0  0  0  0  2  0  0  0  0  0  0
  160.0120  210.3710  156.4310 C   0  0  0  0  0  2  0  0  0  0  0  0
  161.9580  212.4490  148.7520 C   0  0  2  0  0  3  0  0  0  0  0  0
  159.2150  212.4440  152.0120 C   0  0  0  0  0  0  0  0  0  0  0  0
  161.7260  209.0960  150.2520 C   0  0  0  0  0  0  0  0  0  0  0  0
  161.5830  208.6270  157.2610 C   0  0  0  0  0  1  0  0  0  0  0  0
  162.3340  211.4070  149.8010 C   0  0  0  0  0  2  0  0  0  0  0  0
  157.8870  212.2170  152.4050 C   0  0  0  0  0  3  0  0  0  0  0  0
  158.4660  214.4530  150.8540 C   0  0  0  0  0  3  0  0  0  0  0  0
  157.1590  214.2260  151.2840 C   0  0  0  0  0  3  0  0  0  0  0  0
  160.7500  213.2830  149.1450 C   0  0  0  0  0  2  0  0  0  0  0  0
  161.5350  209.6940  152.4300 C   0  0  0  0  0  0  0  0  0  0  0  0
  161.1760  210.5070  150.2360 C   0  0  2  0  0  3  0  0  0  0  0  0
  161.2060  209.9310  153.7350 C   0  0  0  0  0  0  0  0  0  0  0  0
  161.2250  207.3140  151.9080 C   0  0  0  0  0  1  0  0  0  0  0  0
  160.2410  211.5330  152.4600 N   0  0  0  0  0  0  0  0  0  0  0  0
  1 16  1  0  0  0  0
  3 17  2  0  0  0  0
  4 20  1  0  0  0  0
  5 27  1  1  0  0  0
  5 24  1  0  0  0  0
  6  1  1  0  0  0  0
  7  8  2  0  0  0  0
  8  2  2  0  0  0  0
  8 14  1  0  0  0  0
  9 14  1  0  0  0  0
  9 18  1  1  0  0  0
 10 26  2  0  0  0  0
 10  8  1  0  0  0  0
 12 24  2  0  0  0  0
 12 28  1  0  0  0  0
 13  9  1  0  0  0  0
 15 11  1  6  0  0  0
 15 23  1  0  0  0  0
 15 19  1  0  0  0  0
 16 20  2  0  0  0  0
 16 28  1  0  0  0  0
 17  5  1  0  0  0  0
 21  1  2  0  0  0  0
 21 22  1  0  0  0  0
 22  4  2  0  0  0  0
 23  6  1  0  0  0  0
 24 26  1  0  0  0  0
 25 19  1  1  0  0  0
 25 17  1  0  0  0  0
 25 12  1  0  0  0  0
 26 13  1  0  0  0  0
 28 10  1  0  0  0  0
M  END
>  <MODEL>
5

>  <REMARK>
 VINA RESULT:      -3.9      1.545      5.560
  Name = 
  0 active torsions:
  status: ('A' for Active; 'I' for Inactive)
                            x       y       z     vdW  Elec       q    Type
                         _______ _______ _______ _____ _____    ______ ____

>  <TORSDO>
F 0

$$$$
=
 OpenBabel11122414023D

 28 32  0  0  1  0  0  0  0  0999 V2000
  160.8380  212.2350  149.0740 C   0  0  0  0  0  0  0  0  0  0  0  0
  160.7700  207.7230  148.2020 O   0  0  0  0  0  0  0  0  0  0  0  0
  160.4940  211.7820  155.0400 O   0  0  0  0  0  0  0  0  0  0  0  0
  163.5110  212.0090  148.2610 C   0  0  0  0  0  3  0  0  0  0  0  0
  160.6290  209.5950  154.0490 C   0  0  1  0  0  3  0  0  0  0  0  0
  159.4710  212.5160  149.5830 C   0  0  0  0  0  2  0  0  0  0  0  0
  163.1030  208.4470  148.5160 O   0  0  0  0  0  0  0  0  0  0  0  0
  161.8820  207.9000  149.1960 S   0  0  0  0  0  0  0  0  0  0  0  0
  161.3140  205.9430  151.0310 C   0  0  1  0  0  3  0  0  0  0  0  0
  161.3430  208.8990  150.5380 C   0  0  0  0  0  0  0  0  0  0  0  0
  159.0960  214.4530  152.7510 O   0  0  0  0  0  1  0  0  0  0  0  0
  160.7300  210.4820  151.8450 C   0  0  0  0  0  0  0  0  0  0  0  0
  161.2560  206.9500  152.0900 N   0  0  0  0  0  2  0  0  0  0  0  0
  162.3090  206.3250  149.9310 C   0  0  0  0  0  2  0  0  0  0  0  0
  158.7750  213.4680  151.8180 C   0  0  2  0  0  3  0  0  0  0  0  0
  161.6510  211.2170  149.6240 C   0  0  0  0  0  0  0  0  0  0  0  0
  160.5370  211.1060  154.0230 C   0  0  0  0  0  0  0  0  0  0  0  0
  161.7010  204.6060  151.6260 C   0  0  0  0  0  1  0  0  0  0  0  0
  158.9880  212.0850  152.4250 C   0  0  0  0  0  2  0  0  0  0  0  0
  162.9920  211.1380  149.2190 C   0  0  0  0  0  3  0  0  0  0  0  0
  161.3660  213.1030  148.1060 C   0  0  0  0  0  3  0  0  0  0  0  0
  162.6940  212.9850  147.6940 C   0  0  0  0  0  3  0  0  0  0  0  0
  159.5740  213.6920  150.5450 C   0  0  0  0  0  2  0  0  0  0  0  0
  160.7260  209.3580  152.5920 C   0  0  0  0  0  0  0  0  0  0  0  0
  160.4550  211.7100  152.6370 C   0  0  2  0  0  3  0  0  0  0  0  0
  161.0850  208.3310  151.7660 C   0  0  0  0  0  0  0  0  0  0  0  0
  161.9180  209.1680  154.7320 C   0  0  0  0  0  1  0  0  0  0  0  0
  161.1490  210.2520  150.5720 N   0  0  0  0  0  0  0  0  0  0  0  0
  1  6  1  0  0  0  0
  1 16  1  0  0  0  0
  2  8  2  0  0  0  0
  4 20  1  0  0  0  0
  5 27  1  1  0  0  0
  6 23  1  0  0  0  0
  7  8  2  0  0  0  0
  8 14  1  0  0  0  0
  8 10  1  0  0  0  0
  9 18  1  1  0  0  0
  9 13  1  0  0  0  0
 10 28  1  0  0  0  0
 10 26  2  0  0  0  0
 12 24  2  0  0  0  0
 12 25  1  0  0  0  0
 14  9  1  0  0  0  0
 15 19  1  0  0  0  0
 15 11  1  1  0  0  0
 16 28  1  0  0  0  0
 17  5  1  0  0  0  0
 17  3  2  0  0  0  0
 20 16  2  0  0  0  0
 21  1  2  0  0  0  0
 22 21  1  0  0  0  0
 22  4  2  0  0  0  0
 23 15  1  0  0  0  0
 24  5  1  0  0  0  0
 25 19  1  6  0  0  0
 25 17  1  0  0  0  0
 26 13  1  0  0  0  0
 26 24  1  0  0  0  0
 28 12  1  0  0  0  0
M  END
>  <MODEL>
6

>  <REMARK>
 VINA RESULT:      -2.7      2.281      7.001
  Name = 
  0 active torsions:
  status: ('A' for Active; 'I' for Inactive)
                            x       y       z     vdW  Elec       q    Type
                         _______ _______ _______ _____ _____    ______ ____

>  <TORSDO>
F 0

$$$$
