=
 OpenBabel11122413063D

 31 35  0  0  1  0  0  0  0  0999 V2000
  160.5930  207.5360  155.3640 C   0  0  0  0  0  0  0  0  0  0  0  0
  161.7130  208.0300  151.8060 N   0  0  0  0  0  0  0  0  0  0  0  0
  161.4050  206.8380  151.0500 C   0  0  0  0  0  0  0  0  0  0  0  0
  159.5500  212.6920  151.1020 O   0  0  0  0  0  0  0  0  0  0  0  0
  160.5180  212.6060  150.2970 C   0  0  0  0  0  0  0  0  0  0  0  0
  160.8620  204.4720  150.8990 C   0  0  0  0  0  0  0  0  0  0  0  0
  161.1720  208.2610  153.1220 C   0  0  0  0  0  0  0  0  0  0  0  0
  160.0720  208.8040  155.6430 C   0  0  0  0  0  3  0  0  0  0  0  0
  161.1670  205.6000  151.6680 C   0  0  0  0  0  3  0  0  0  0  0  0
  161.3600  210.4190  151.2940 C   0  0  0  0  0  0  0  0  0  0  0  0
  160.5650  206.5710  156.3130 F   0  0  0  0  0  0  0  0  0  0  0  0
  161.5420  208.2540  149.0180 C   0  0  0  0  0  2  0  0  0  0  0  0
  160.6100  203.1670  151.5640 C   0  0  0  0  0  1  0  0  0  0  0  0
  160.6840  210.5560  152.4010 N   0  0  0  0  0  0  0  0  0  0  0  0
  162.2630  209.2190  151.1190 C   0  0  2  0  0  3  0  0  0  0  0  0
  161.3930  211.4740  150.3230 N   0  0  0  0  0  2  0  0  0  0  0  0
  161.1400  207.2630  154.1070 C   0  0  0  0  0  3  0  0  0  0  0  0
  160.7880  204.5730  149.5070 C   0  0  0  0  0  3  0  0  0  0  0  0
  160.6580  209.5380  153.4110 C   0  0  0  0  0  0  0  0  0  0  0  0
  160.1030  209.8050  154.6660 C   0  0  0  0  0  3  0  0  0  0  0  0
  162.6140  208.9670  149.7110 N   0  0  0  0  0  2  0  0  0  0  0  0
  161.3380  206.9240  149.6540 C   0  0  0  0  0  0  0  0  0  0  0  0
  161.0220  205.8020  148.8830 C   0  0  0  0  0  3  0  0  0  0  0  0
  159.2150  213.1050  146.7790 C   0  0  1  0  0  3  0  0  0  0  0  0
  159.4430  214.4220  148.9070 C   0  0  0  0  0  2  0  0  0  0  0  0
  162.5540  212.3940  148.2880 O   0  0  0  0  0  1  0  0  0  0  0  0
  158.3460  212.3220  146.0220 O   0  0  0  0  0  1  0  0  0  0  0  0
  158.5040  213.5770  148.0440 C   0  0  0  0  0  2  0  0  0  0  0  0
  161.4090  213.1310  147.9750 C   0  0  2  0  0  3  0  0  0  0  0  0
  160.7310  213.6630  149.2480 C   0  0  2  0  0  3  0  0  0  0  0  0
  160.4520  212.2860  147.1370 C   0  0  0  0  0  2  0  0  0  0  0  0
  1  8  1  0  0  0  0
  1 11  1  0  0  0  0
  2  7  1  0  0  0  0
  3  9  1  0  0  0  0
  3  2  1  0  0  0  0
  5 16  1  0  0  0  0
  5  4  2  0  0  0  0
  6 13  1  0  0  0  0
  6  9  2  0  0  0  0
  7 19  2  0  0  0  0
  7 17  1  0  0  0  0
 10 14  2  0  0  0  0
 12 22  1  0  0  0  0
 12 21  1  0  0  0  0
 14 19  1  0  0  0  0
 15 21  1  6  0  0  0
 15 10  1  0  0  0  0
 15  2  1  0  0  0  0
 16 10  1  0  0  0  0
 17  1  2  0  0  0  0
 18  6  1  0  0  0  0
 19 20  1  0  0  0  0
 20  8  2  0  0  0  0
 22  3  2  0  0  0  0
 23 18  2  0  0  0  0
 23 22  1  0  0  0  0
 24 27  1  1  0  0  0
 24 31  1  0  0  0  0
 24 28  1  0  0  0  0
 25 30  1  0  0  0  0
 28 25  1  0  0  0  0
 29 26  1  1  0  0  0
 29 30  1  0  0  0  0
 30  5  1  1  0  0  0
 31 29  1  0  0  0  0
M  END
>  <MODEL>
1

>  <REMARK>
 VINA RESULT:      -9.6      0.000      0.000
  Name = 
  1 active torsions:
  status: ('A' for Active; 'I' for Inactive)
    1  A    between atoms: C_5  and  C_30
                            x       y       z     vdW  Elec       q    Type
                         _______ _______ _______ _____ _____    ______ ____

>  <TORSDO>
F 1

$$$$
=
 OpenBabel11122413063D

 31 35  0  0  1  0  0  0  0  0999 V2000
  161.0960  202.1430  150.7510 C   0  0  0  0  0  0  0  0  0  0  0  0
  161.9570  205.5420  149.3840 N   0  0  0  0  0  0  0  0  0  0  0  0
  161.5110  205.6190  148.0110 C   0  0  0  0  0  0  0  0  0  0  0  0
  160.0570  208.3140  153.3350 O   0  0  0  0  0  0  0  0  0  0  0  0
  160.9490  209.0160  152.7840 C   0  0  0  0  0  0  0  0  0  0  0  0
  160.8030  204.5930  145.9230 C   0  0  0  0  0  0  0  0  0  0  0  0
  161.5400  204.4780  150.2630 C   0  0  0  0  0  0  0  0  0  0  0  0
  160.6840  202.4890  152.0430 C   0  0  0  0  0  3  0  0  0  0  0  0
  161.2420  204.4730  147.2460 C   0  0  0  0  0  3  0  0  0  0  0  0
  161.7230  207.1240  151.2630 C   0  0  0  0  0  0  0  0  0  0  0  0
  161.0810  200.8470  150.3600 F   0  0  0  0  0  0  0  0  0  0  0  0
  161.5770  208.0850  148.2710 C   0  0  0  0  0  2  0  0  0  0  0  0
  160.5200  203.3740  145.1220 C   0  0  0  0  0  1  0  0  0  0  0  0
  161.1480  206.1940  151.9750 N   0  0  0  0  0  0  0  0  0  0  0  0
  162.5270  206.7360  150.0440 C   0  0  2  0  0  3  0  0  0  0  0  0
  161.7470  208.4830  151.7210 N   0  0  0  0  0  2  0  0  0  0  0  0
  161.5210  203.1350  149.8620 C   0  0  0  0  0  3  0  0  0  0  0  0
  160.6240  205.8580  145.3570 C   0  0  0  0  0  3  0  0  0  0  0  0
  161.1360  204.8190  151.5670 C   0  0  0  0  0  0  0  0  0  0  0  0
  160.7020  203.8260  152.4500 C   0  0  0  0  0  3  0  0  0  0  0  0
  162.7470  207.8630  149.1200 N   0  0  0  0  0  2  0  0  0  0  0  0
  161.3380  206.8810  147.4290 C   0  0  0  0  0  0  0  0  0  0  0  0
  160.8880  207.0050  146.1130 C   0  0  0  0  0  3  0  0  0  0  0  0
  160.2430  210.9640  155.9510 C   0  0  1  0  0  3  0  0  0  0  0  0
  162.1420  210.6040  154.3450 C   0  0  0  0  0  2  0  0  0  0  0  0
  158.9040  211.0020  152.4670 O   0  0  0  0  0  1  0  0  0  0  0  0
  159.6910  210.5470  157.1600 O   0  0  0  0  0  1  0  0  0  0  0  0
  161.5250  210.1810  155.6790 C   0  0  0  0  0  2  0  0  0  0  0  0
  159.8310  211.1850  153.4950 C   0  0  2  0  0  3  0  0  0  0  0  0
  161.1470  210.4510  153.1890 C   0  0  2  0  0  3  0  0  0  0  0  0
  159.2340  210.7390  154.8290 C   0  0  0  0  0  2  0  0  0  0  0  0
  1  8  1  0  0  0  0
  2 15  1  0  0  0  0
  2  7  1  0  0  0  0
  3  2  1  0  0  0  0
  5  4  2  0  0  0  0
  6  9  1  0  0  0  0
  7 19  2  0  0  0  0
  8 20  2  0  0  0  0
  9  3  2  0  0  0  0
 10 16  1  0  0  0  0
 10 14  2  0  0  0  0
 11  1  1  0  0  0  0
 12 21  1  0  0  0  0
 13  6  1  0  0  0  0
 15 21  1  6  0  0  0
 15 10  1  0  0  0  0
 16  5  1  0  0  0  0
 17  7  1  0  0  0  0
 17  1  2  0  0  0  0
 18  6  2  0  0  0  0
 18 23  1  0  0  0  0
 19 14  1  0  0  0  0
 19 20  1  0  0  0  0
 22  3  1  0  0  0  0
 22 12  1  0  0  0  0
 23 22  2  0  0  0  0
 24 27  1  1  0  0  0
 25 28  1  0  0  0  0
 28 24  1  0  0  0  0
 29 26  1  6  0  0  0
 29 31  1  0  0  0  0
 30  5  1  1  0  0  0
 30 29  1  0  0  0  0
 30 25  1  0  0  0  0
 31 24  1  0  0  0  0
M  END
>  <MODEL>
2

>  <REMARK>
 VINA RESULT:      -8.1      3.541      5.799
  Name = 
  1 active torsions:
  status: ('A' for Active; 'I' for Inactive)
    1  A    between atoms: C_5  and  C_30
                            x       y       z     vdW  Elec       q    Type
                         _______ _______ _______ _____ _____    ______ ____

>  <TORSDO>
F 1

$$$$
=
 OpenBabel11122413063D

 31 35  0  0  1  0  0  0  0  0999 V2000
  161.1480  205.5080  153.6010 C   0  0  0  0  0  0  0  0  0  0  0  0
  161.9700  207.5510  150.5500 N   0  0  0  0  0  0  0  0  0  0  0  0
  161.6820  206.7670  149.3710 C   0  0  0  0  0  0  0  0  0  0  0  0
  159.4760  211.8660  151.9870 O   0  0  0  0  0  0  0  0  0  0  0  0
  160.3850  212.2130  151.1840 C   0  0  0  0  0  0  0  0  0  0  0  0
  161.2770  204.6470  148.2490 C   0  0  0  0  0  0  0  0  0  0  0  0
  161.5140  207.1570  151.8600 C   0  0  0  0  0  0  0  0  0  0  0  0
  160.5710  206.4890  154.4140 C   0  0  0  0  0  3  0  0  0  0  0  0
  161.5670  205.3680  149.4130 C   0  0  0  0  0  3  0  0  0  0  0  0
  161.4330  209.8920  151.1190 C   0  0  0  0  0  0  0  0  0  0  0  0
  161.2510  204.2340  154.0490 F   0  0  0  0  0  0  0  0  0  0  0  0
  161.5800  208.9130  148.1320 C   0  0  0  0  0  2  0  0  0  0  0  0
  161.1570  203.1670  148.3040 C   0  0  0  0  0  1  0  0  0  0  0  0
  160.8320  209.4900  152.2060 N   0  0  0  0  0  0  0  0  0  0  0  0
  162.3930  208.9620  150.4140 C   0  0  2  0  0  3  0  0  0  0  0  0
  161.3280  211.2560  150.6900 N   0  0  0  0  0  2  0  0  0  0  0  0
  161.6170  205.8390  152.3270 C   0  0  0  0  0  3  0  0  0  0  0  0
  161.0950  205.3190  147.0370 C   0  0  0  0  0  3  0  0  0  0  0  0
  160.9440  208.1430  152.6850 C   0  0  0  0  0  0  0  0  0  0  0  0
  160.4680  207.8070  153.9560 C   0  0  0  0  0  3  0  0  0  0  0  0
  162.6550  209.3590  149.0190 N   0  0  0  0  0  2  0  0  0  0  0  0
  161.5070  207.4270  148.1490 C   0  0  0  0  0  0  0  0  0  0  0  0
  161.2060  206.7120  146.9870 C   0  0  0  0  0  3  0  0  0  0  0  0
  158.3120  214.2230  148.7370 C   0  0  1  0  0  3  0  0  0  0  0  0
  159.2220  214.4530  151.0680 C   0  0  0  0  0  2  0  0  0  0  0  0
  161.8120  212.9280  148.8010 O   0  0  0  0  0  1  0  0  0  0  0  0
  157.1930  213.8560  147.9920 O   0  0  0  0  0  1  0  0  0  0  0  0
  158.0020  214.0780  150.2240 C   0  0  0  0  0  2  0  0  0  0  0  0
  160.7230  213.7220  149.1670 C   0  0  2  0  0  3  0  0  0  0  0  0
  160.4540  213.6270  150.6780 C   0  0  2  0  0  3  0  0  0  0  0  0
  159.4910  213.3360  148.3490 C   0  0  0  0  0  2  0  0  0  0  0  0
  1 11  1  0  0  0  0
  1  8  1  0  0  0  0
  2  7  1  0  0  0  0
  3  9  1  0  0  0  0
  3  2  1  0  0  0  0
  5  4  2  0  0  0  0
  6 13  1  0  0  0  0
  6  9  2  0  0  0  0
  7 17  1  0  0  0  0
  7 19  2  0  0  0  0
 10 14  2  0  0  0  0
 12 22  1  0  0  0  0
 12 21  1  0  0  0  0
 14 19  1  0  0  0  0
 15 21  1  6  0  0  0
 15  2  1  0  0  0  0
 15 10  1  0  0  0  0
 16 10  1  0  0  0  0
 16  5  1  0  0  0  0
 17  1  2  0  0  0  0
 18  6  1  0  0  0  0
 19 20  1  0  0  0  0
 20  8  2  0  0  0  0
 22  3  2  0  0  0  0
 23 18  2  0  0  0  0
 23 22  1  0  0  0  0
 24 27  1  6  0  0  0
 24 28  1  0  0  0  0
 28 25  1  0  0  0  0
 29 26  1  6  0  0  0
 29 30  1  0  0  0  0
 30 25  1  0  0  0  0
 30  5  1  6  0  0  0
 31 24  1  0  0  0  0
 31 29  1  0  0  0  0
M  END
>  <MODEL>
3

>  <REMARK>
 VINA RESULT:      -7.2      1.491      1.985
  Name = 
  1 active torsions:
  status: ('A' for Active; 'I' for Inactive)
    1  A    between atoms: C_5  and  C_30
                            x       y       z     vdW  Elec       q    Type
                         _______ _______ _______ _____ _____    ______ ____

>  <TORSDO>
F 1

$$$$
=
 OpenBabel11122413063D

 31 35  0  0  1  0  0  0  0  0999 V2000
  161.3800  203.2640  151.9450 C   0  0  0  0  0  0  0  0  0  0  0  0
  162.0630  206.4970  150.1450 N   0  0  0  0  0  0  0  0  0  0  0  0
  161.7330  206.3330  148.7480 C   0  0  0  0  0  0  0  0  0  0  0  0
  159.5990  209.6130  153.4810 O   0  0  0  0  0  0  0  0  0  0  0  0
  160.4720  210.3110  152.8970 C   0  0  0  0  0  0  0  0  0  0  0  0
  161.2980  204.9530  146.7930 C   0  0  0  0  0  0  0  0  0  0  0  0
  161.6640  205.5360  151.1430 C   0  0  0  0  0  0  0  0  0  0  0  0
  160.8300  203.7510  153.1360 C   0  0  0  0  0  3  0  0  0  0  0  0
  161.6300  205.0680  148.1470 C   0  0  0  0  0  3  0  0  0  0  0  0
  161.5330  208.3040  151.7410 C   0  0  0  0  0  0  0  0  0  0  0  0
  161.5100  201.9300  151.7550 F   0  0  0  0  0  0  0  0  0  0  0  0
  161.5660  208.8050  148.6350 C   0  0  0  0  0  2  0  0  0  0  0  0
  161.1910  203.6090  146.1680 C   0  0  0  0  0  1  0  0  0  0  0  0
  160.9800  207.4340  152.5420 N   0  0  0  0  0  0  0  0  0  0  0  0
  162.4700  207.8240  150.6570 C   0  0  2  0  0  3  0  0  0  0  0  0
  161.4010  209.7110  151.9890 N   0  0  0  0  0  2  0  0  0  0  0  0
  161.7950  204.1540  150.9500 C   0  0  0  0  0  3  0  0  0  0  0  0
  161.0620  206.0990  146.0310 C   0  0  0  0  0  3  0  0  0  0  0  0
  161.1210  206.0210  152.3470 C   0  0  0  0  0  0  0  0  0  0  0  0
  160.6980  205.1280  153.3360 C   0  0  0  0  0  3  0  0  0  0  0  0
  162.6720  208.8220  149.5910 N   0  0  0  0  0  2  0  0  0  0  0  0
  161.5040  207.4750  147.9710 C   0  0  0  0  0  0  0  0  0  0  0  0
  161.1610  207.3630  146.6210 C   0  0  0  0  0  3  0  0  0  0  0  0
  157.8360  212.9250  153.6360 C   0  0  1  0  0  3  0  0  0  0  0  0
  160.0860  212.2200  154.5060 C   0  0  0  0  0  2  0  0  0  0  0  0
  160.0650  212.1600  150.7420 O   0  0  0  0  0  1  0  0  0  0  0  0
  156.4620  212.7890  153.8180 O   0  0  0  0  0  1  0  0  0  0  0  0
  158.5720  212.1080  154.6950 C   0  0  0  0  0  2  0  0  0  0  0  0
  159.7180  212.5780  152.0280 C   0  0  2  0  0  3  0  0  0  0  0  0
  160.5110  211.8020  153.0930 C   0  0  2  0  0  3  0  0  0  0  0  0
  158.2110  212.4440  152.2380 C   0  0  0  0  0  2  0  0  0  0  0  0
  1  8  1  0  0  0  0
  2 15  1  0  0  0  0
  2  7  1  0  0  0  0
  3  2  1  0  0  0  0
  5  4  2  0  0  0  0
  6  9  2  0  0  0  0
  7 19  2  0  0  0  0
  8 20  2  0  0  0  0
  9  3  1  0  0  0  0
 10 16  1  0  0  0  0
 10 14  2  0  0  0  0
 11  1  1  0  0  0  0
 12 21  1  0  0  0  0
 13  6  1  0  0  0  0
 15 21  1  6  0  0  0
 15 10  1  0  0  0  0
 16  5  1  0  0  0  0
 17  7  1  0  0  0  0
 17  1  2  0  0  0  0
 18 23  2  0  0  0  0
 18  6  1  0  0  0  0
 19 14  1  0  0  0  0
 19 20  1  0  0  0  0
 22 12  1  0  0  0  0
 22  3  2  0  0  0  0
 23 22  1  0  0  0  0
 24 27  1  1  0  0  0
 24 28  1  0  0  0  0
 25 28  1  0  0  0  0
 29 26  1  6  0  0  0
 29 31  1  0  0  0  0
 29 30  1  0  0  0  0
 30  5  1  1  0  0  0
 30 25  1  0  0  0  0
 31 24  1  0  0  0  0
M  END
>  <MODEL>
4

>  <REMARK>
 VINA RESULT:      -6.6      2.800      4.398
  Name = 
  1 active torsions:
  status: ('A' for Active; 'I' for Inactive)
    1  A    between atoms: C_5  and  C_30
                            x       y       z     vdW  Elec       q    Type
                         _______ _______ _______ _____ _____    ______ ____

>  <TORSDO>
F 1

$$$$
