=
 OpenBabel11122414113D

 28 32  0  0  1  0  0  0  0  0999 V2000
  159.0690  213.1670  141.5350 C   0  0  0  0  0  0  0  0  0  0  0  0
  161.6210  214.4520  140.1500 O   0  0  0  0  0  0  0  0  0  0  0  0
  159.4010  208.8290  137.4800 O   0  0  0  0  0  0  0  0  0  0  0  0
  159.7960  212.2990  144.1020 C   0  0  0  0  0  3  0  0  0  0  0  0
  161.5100  209.9720  137.6810 C   0  0  1  0  0  3  0  0  0  0  0  0
  158.5130  213.5790  140.2170 C   0  0  0  0  0  2  0  0  0  0  0  0
  162.8840  214.0330  142.2090 O   0  0  0  0  0  0  0  0  0  0  0  0
  162.7280  213.6430  140.7660 S   0  0  0  0  0  0  0  0  0  0  0  0
  164.1060  213.2680  138.6550 C   0  0  1  0  0  3  0  0  0  0  0  0
  162.3900  211.8730  140.6570 C   0  0  2  0  0  3  0  0  0  0  0  0
  156.2930  210.8370  139.3760 O   0  0  0  0  0  0  0  0  0  0  0  0
  160.5300  211.7690  139.0840 C   0  0  1  0  0  3  0  0  0  0  0  0
  164.2020  211.8300  138.8880 N   0  0  0  0  0  2  0  0  0  0  0  0
  164.1970  213.9750  139.9210 N   0  0  0  0  0  2  0  0  0  0  0  0
  157.2300  211.6590  139.2030 C   0  0  0  0  0  0  0  0  0  0  0  0
  160.0720  212.1730  141.6810 C   0  0  0  0  0  0  0  0  0  0  0  0
  160.0670  209.8010  137.9280 C   0  0  0  0  0  0  0  0  0  0  0  0
  165.2400  213.7070  137.7550 C   0  0  0  0  0  1  0  0  0  0  0  0
  158.2280  211.4100  138.1250 C   0  0  0  0  0  2  0  0  0  0  0  0
  160.4120  211.7520  142.9760 C   0  0  0  0  0  3  0  0  0  0  0  0
  158.4590  213.7090  142.6740 C   0  0  0  0  0  3  0  0  0  0  0  0
  158.8240  213.2850  143.9510 C   0  0  0  0  0  3  0  0  0  0  0  0
  157.2790  212.8440  139.9920 N   0  0  0  0  0  2  0  0  0  0  0  0
  161.8030  211.3460  138.3190 C   0  0  1  0  0  3  0  0  0  0  0  0
  159.4730  210.8650  138.6480 N   0  0  0  0  0  0  0  0  0  0  0  0
  162.9250  211.2830  139.3580 C   0  0  2  0  0  3  0  0  0  0  0  0
  162.2110  208.9290  138.2950 O   0  0  0  0  0  1  0  0  0  0  0  0
  160.8950  211.5670  140.5600 C   0  0  2  0  0  3  0  0  0  0  0  0
  1 16  2  0  0  0  0
  1 21  1  0  0  0  0
  2  8  2  0  0  0  0
  3 17  2  0  0  0  0
  5 17  1  0  0  0  0
  5 27  1  1  0  0  0
  5 24  1  0  0  0  0
  6  1  1  0  0  0  0
  8  7  2  0  0  0  0
  9 18  1  6  0  0  0
  9 13  1  0  0  0  0
  9 14  1  0  0  0  0
 10  8  1  6  0  0  0
 12 25  1  6  0  0  0
 12 28  1  0  0  0  0
 13 26  1  0  0  0  0
 14  8  1  0  0  0  0
 15 11  2  0  0  0  0
 15 23  1  0  0  0  0
 16 20  1  0  0  0  0
 17 25  1  0  0  0  0
 19 25  1  0  0  0  0
 19 15  1  0  0  0  0
 20  4  2  0  0  0  0
 21 22  2  0  0  0  0
 22  4  1  0  0  0  0
 23  6  1  0  0  0  0
 24 12  1  0  0  0  0
 24 26  1  0  0  0  0
 26 10  1  0  0  0  0
 28 10  1  0  0  0  0
 28 16  1  0  0  0  0
M  END
>  <MODEL>
1

>  <REMARK>
 VINA RESULT:      -5.3      0.000      0.000
  Name = 
  0 active torsions:
  status: ('A' for Active; 'I' for Inactive)
                            x       y       z     vdW  Elec       q    Type
                         _______ _______ _______ _____ _____    ______ ____

>  <TORSDO>
F 0

$$$$
=
 OpenBabel11122414113D

 28 32  0  0  1  0  0  0  0  0999 V2000
  160.9580  209.0160  155.2580 C   0  0  0  0  0  0  0  0  0  0  0  0
  158.0710  210.3280  155.4120 O   0  0  0  0  0  0  0  0  0  0  0  0
  161.4790  211.4710  149.8660 O   0  0  0  0  0  0  0  0  0  0  0  0
  162.5980  210.2550  157.1680 C   0  0  0  0  0  3  0  0  0  0  0  0
  159.7790  212.5910  151.1520 C   0  0  1  0  0  3  0  0  0  0  0  0
  160.2290  208.2470  154.2120 C   0  0  0  0  0  2  0  0  0  0  0  0
  158.8640  211.7300  157.2600 O   0  0  0  0  0  0  0  0  0  0  0  0
  158.4080  211.7330  155.8280 S   0  0  0  0  0  0  0  0  0  0  0  0
  156.8170  212.9560  154.2580 C   0  0  1  0  0  3  0  0  0  0  0  0
  159.7060  212.4340  154.7880 C   0  0  2  0  0  3  0  0  0  0  0  0
  162.7060  207.8910  151.5870 O   0  0  0  0  0  0  0  0  0  0  0  0
  159.8270  210.8590  152.9300 C   0  0  1  0  0  3  0  0  0  0  0  0
  157.8660  213.8530  153.7800 N   0  0  0  0  0  2  0  0  0  0  0  0
  156.9950  212.7120  155.6800 N   0  0  0  0  0  2  0  0  0  0  0  0
  161.5950  208.1970  152.0930 C   0  0  0  0  0  0  0  0  0  0  0  0
  161.2120  210.4090  155.1660 C   0  0  0  0  0  0  0  0  0  0  0  0
  160.7430  211.5060  150.8890 C   0  0  0  0  0  0  0  0  0  0  0  0
  155.4660  213.5970  154.0250 C   0  0  0  0  0  1  0  0  0  0  0  0
  160.6760  209.0980  151.3420 C   0  0  0  0  0  2  0  0  0  0  0  0
  162.0420  211.0030  156.1300 C   0  0  0  0  0  3  0  0  0  0  0  0
  161.5220  208.2770  156.3060 C   0  0  0  0  0  3  0  0  0  0  0  0
  162.3310  208.8910  157.2610 C   0  0  0  0  0  3  0  0  0  0  0  0
  161.2080  207.6230  153.3380 N   0  0  0  0  0  2  0  0  0  0  0  0
  159.0610  212.1030  152.4290 C   0  0  1  0  0  3  0  0  0  0  0  0
  160.7170  210.4640  151.8460 N   0  0  0  0  0  0  0  0  0  0  0  0
  159.1230  213.1290  153.5640 C   0  0  2  0  0  3  0  0  0  0  0  0
  160.4730  213.7890  151.3450 O   0  0  0  0  0  1  0  0  0  0  0  0
  160.5960  211.3620  154.1580 C   0  0  2  0  0  3  0  0  0  0  0  0
  1 21  1  0  0  0  0
  2  8  2  0  0  0  0
  3 17  2  0  0  0  0
  4 22  1  0  0  0  0
  5 27  1  1  0  0  0
  5 24  1  0  0  0  0
  6  1  1  0  0  0  0
  8  7  2  0  0  0  0
  9 18  1  1  0  0  0
  9 14  1  0  0  0  0
 10  8  1  1  0  0  0
 11 15  2  0  0  0  0
 12 25  1  6  0  0  0
 12 28  1  0  0  0  0
 13  9  1  0  0  0  0
 14  8  1  0  0  0  0
 15 23  1  0  0  0  0
 16  1  2  0  0  0  0
 16 20  1  0  0  0  0
 17  5  1  0  0  0  0
 17 25  1  0  0  0  0
 19 25  1  0  0  0  0
 19 15  1  0  0  0  0
 20  4  2  0  0  0  0
 21 22  2  0  0  0  0
 23  6  1  0  0  0  0
 24 12  1  0  0  0  0
 24 26  1  0  0  0  0
 26 13  1  0  0  0  0
 26 10  1  0  0  0  0
 28 10  1  0  0  0  0
 28 16  1  0  0  0  0
M  END
>  <MODEL>
2

>  <REMARK>
 VINA RESULT:      -4.1     11.664     14.778
  Name = 
  0 active torsions:
  status: ('A' for Active; 'I' for Inactive)
                            x       y       z     vdW  Elec       q    Type
                         _______ _______ _______ _____ _____    ______ ____

>  <TORSDO>
F 0

$$$$
=
 OpenBabel11122414113D

 28 32  0  0  1  0  0  0  0  0999 V2000
  157.7700  213.2560  153.5720 C   0  0  0  0  0  0  0  0  0  0  0  0
  160.0800  213.0350  155.7380 O   0  0  0  0  0  0  0  0  0  0  0  0
  161.3330  210.2510  149.8770 O   0  0  0  0  0  0  0  0  0  0  0  0
  155.5860  211.7260  154.4440 C   0  0  0  0  0  3  0  0  0  0  0  0
  161.9990  209.9150  152.1660 C   0  0  1  0  0  3  0  0  0  0  0  0
  158.8220  214.1210  152.9700 C   0  0  0  0  0  2  0  0  0  0  0  0
  158.5970  211.6360  157.1000 O   0  0  0  0  0  0  0  0  0  0  0  0
  159.8500  211.6480  156.2720 S   0  0  0  0  0  0  0  0  0  0  0  0
  162.2840  210.8950  156.3510 C   0  0  1  0  0  3  0  0  0  0  0  0
  159.6970  210.4460  154.9350 C   0  0  2  0  0  3  0  0  0  0  0  0
  158.5910  213.3460  149.4340 O   0  0  0  0  0  0  0  0  0  0  0  0
  160.4730  211.6920  152.9880 C   0  0  1  0  0  3  0  0  0  0  0  0
  161.9950  209.6510  155.6430 N   0  0  0  0  0  2  0  0  0  0  0  0
  161.1940  211.2030  157.2610 N   0  0  0  0  0  2  0  0  0  0  0  0
  159.1540  213.4910  150.5510 C   0  0  0  0  0  0  0  0  0  0  0  0
  157.9250  211.8590  153.7620 C   0  0  0  0  0  0  0  0  0  0  0  0
  161.2320  210.5720  151.0920 C   0  0  0  0  0  0  0  0  0  0  0  0
  163.5650  210.7360  157.1400 C   0  0  0  0  0  1  0  0  0  0  0  0
  160.4990  212.8900  150.7720 C   0  0  0  0  0  2  0  0  0  0  0  0
  156.8150  211.1150  154.1920 C   0  0  0  0  0  3  0  0  0  0  0  0
  156.5310  213.8580  153.8290 C   0  0  0  0  0  3  0  0  0  0  0  0
  155.4460  213.1010  154.2700 C   0  0  0  0  0  3  0  0  0  0  0  0
  158.5280  214.2830  151.5560 N   0  0  0  0  0  2  0  0  0  0  0  0
  161.6150  210.7420  153.4110 C   0  0  1  0  0  3  0  0  0  0  0  0
  160.4260  211.6490  151.5320 N   0  0  0  0  0  0  0  0  0  0  0  0
  161.0530  209.8750  154.5410 C   0  0  2  0  0  3  0  0  0  0  0  0
  161.6060  208.5770  152.2620 O   0  0  0  0  0  1  0  0  0  0  0  0
  159.2210  211.0800  153.6270 C   0  0  2  0  0  3  0  0  0  0  0  0
  1 16  2  0  0  0  0
  1 21  1  0  0  0  0
  2  8  2  0  0  0  0
  3 17  2  0  0  0  0
  5 27  1  1  0  0  0
  5 24  1  0  0  0  0
  6  1  1  0  0  0  0
  8  7  2  0  0  0  0
  8 14  1  0  0  0  0
  9 18  1  1  0  0  0
  9 14  1  0  0  0  0
 10  8  1  1  0  0  0
 11 15  2  0  0  0  0
 12 25  1  6  0  0  0
 12 24  1  0  0  0  0
 12 28  1  0  0  0  0
 13  9  1  0  0  0  0
 15 19  1  0  0  0  0
 15 23  1  0  0  0  0
 16 20  1  0  0  0  0
 17 25  1  0  0  0  0
 17  5  1  0  0  0  0
 19 25  1  0  0  0  0
 20  4  2  0  0  0  0
 21 22  2  0  0  0  0
 22  4  1  0  0  0  0
 23  6  1  0  0  0  0
 24 26  1  0  0  0  0
 26 10  1  0  0  0  0
 26 13  1  0  0  0  0
 28 16  1  0  0  0  0
 28 10  1  0  0  0  0
M  END
>  <MODEL>
3

>  <REMARK>
 VINA RESULT:      -4.0     11.390     14.065
  Name = 
  0 active torsions:
  status: ('A' for Active; 'I' for Inactive)
                            x       y       z     vdW  Elec       q    Type
                         _______ _______ _______ _____ _____    ______ ____

>  <TORSDO>
F 0

$$$$
=
 OpenBabel11122414113D

 28 32  0  0  1  0  0  0  0  0999 V2000
  161.0810  208.6760  155.1750 C   0  0  0  0  0  0  0  0  0  0  0  0
  158.4600  210.4390  154.8680 O   0  0  0  0  0  0  0  0  0  0  0  0
  162.2330  209.8960  149.4700 O   0  0  0  0  0  0  0  0  0  0  0  0
  162.8320  209.9880  156.9320 C   0  0  0  0  0  3  0  0  0  0  0  0
  160.7010  211.5070  150.3940 C   0  0  1  0  0  3  0  0  0  0  0  0
  160.2730  207.8420  154.2440 C   0  0  0  0  0  2  0  0  0  0  0  0
  159.4070  212.0340  156.4720 O   0  0  0  0  0  0  0  0  0  0  0  0
  159.0170  211.8260  155.0360 S   0  0  0  0  0  0  0  0  0  0  0  0
  157.7240  212.9530  153.1510 C   0  0  1  0  0  3  0  0  0  0  0  0
  160.4560  212.0880  153.9790 C   0  0  2  0  0  3  0  0  0  0  0  0
  162.7560  206.5780  151.9200 O   0  0  0  0  0  0  0  0  0  0  0  0
  160.3790  210.1780  152.4660 C   0  0  1  0  0  3  0  0  0  0  0  0
  158.9300  213.5570  152.5900 N   0  0  0  0  0  2  0  0  0  0  0  0
  157.8000  212.9700  154.6020 N   0  0  0  0  0  2  0  0  0  0  0  0
  161.6940  207.1530  152.2770 C   0  0  0  0  0  0  0  0  0  0  0  0
  161.5750  209.9630  154.8410 C   0  0  0  0  0  0  0  0  0  0  0  0
  161.4730  210.2510  150.4110 C   0  0  0  0  0  0  0  0  0  0  0  0
  156.5140  213.7440  152.7030 C   0  0  0  0  0  1  0  0  0  0  0  0
  160.9750  208.0230  151.3050 C   0  0  0  0  0  2  0  0  0  0  0  0
  162.4550  210.5950  155.7340 C   0  0  0  0  0  3  0  0  0  0  0  0
  161.4670  208.0780  156.3820 C   0  0  0  0  0  3  0  0  0  0  0  0
  162.3310  208.7310  157.2610 C   0  0  0  0  0  3  0  0  0  0  0  0
  161.1650  206.9080  153.5770 N   0  0  0  0  0  2  0  0  0  0  0  0
  159.8600  211.4050  151.6840 C   0  0  1  0  0  3  0  0  0  0  0  0
  161.2300  209.4370  151.5440 N   0  0  0  0  0  0  0  0  0  0  0  0
  160.0510  212.6110  152.6060 C   0  0  2  0  0  3  0  0  0  0  0  0
  161.5830  212.5920  150.4070 O   0  0  0  0  0  1  0  0  0  0  0  0
  161.1730  210.7840  153.6290 C   0  0  2  0  0  3  0  0  0  0  0  0
  1 21  1  0  0  0  0
  2  8  2  0  0  0  0
  3 17  2  0  0  0  0
  4 22  1  0  0  0  0
  5 27  1  1  0  0  0
  5 17  1  0  0  0  0
  5 24  1  0  0  0  0
  6  1  1  0  0  0  0
  8  7  2  0  0  0  0
  9 18  1  1  0  0  0
  9 14  1  0  0  0  0
 10  8  1  1  0  0  0
 11 15  2  0  0  0  0
 12 25  1  6  0  0  0
 12 28  1  0  0  0  0
 13 26  1  0  0  0  0
 13  9  1  0  0  0  0
 14  8  1  0  0  0  0
 15 23  1  0  0  0  0
 16  1  2  0  0  0  0
 16 20  1  0  0  0  0
 17 25  1  0  0  0  0
 19 25  1  0  0  0  0
 19 15  1  0  0  0  0
 20  4  2  0  0  0  0
 21 22  2  0  0  0  0
 23  6  1  0  0  0  0
 24 12  1  0  0  0  0
 24 26  1  0  0  0  0
 26 10  1  0  0  0  0
 28 10  1  0  0  0  0
 28 16  1  0  0  0  0
M  END
>  <MODEL>
4

>  <REMARK>
 VINA RESULT:      -3.3     11.325     14.249
  Name = 
  0 active torsions:
  status: ('A' for Active; 'I' for Inactive)
                            x       y       z     vdW  Elec       q    Type
                         _______ _______ _______ _____ _____    ______ ____

>  <TORSDO>
F 0

$$$$
