=
 OpenBabel11122412513D

 32 37  0  0  1  0  0  0  0  0999 V2000
  161.5430  207.9540  150.5520 C   0  0  0  0  0  2  0  0  0  0  0  0
  161.4930  212.6500  147.5560 C   0  0  1  0  0  3  0  0  0  0  0  0
  157.1750  213.2890  150.0910 C   0  0  0  0  0  2  0  0  0  0  0  0
  156.5180  213.8520  148.8350 C   0  0  0  0  0  2  0  0  0  0  0  0
  161.5450  212.8190  145.0160 C   0  0  1  0  0  3  0  0  0  0  0  0
  160.7420  213.2710  143.8310 C   0  0  0  0  0  0  0  0  0  0  0  0
  162.1920  210.5930  148.6930 N   0  0  1  0  0  0  0  0  0  0  0  0
  161.4900  212.5120  150.0590 C   0  0  0  0  0  2  0  0  0  0  0  0
  158.9600  213.8820  142.5960 C   0  0  0  0  0  0  0  0  0  0  0  0
  162.0500  210.3510  151.1630 C   0  0  0  0  0  2  0  0  0  0  0  0
  158.6720  213.5770  150.0760 C   0  0  0  0  0  2  0  0  0  0  0  0
  160.8370  213.1800  148.8420 C   0  0  2  0  0  3  0  0  0  0  0  0
  159.3160  212.9580  148.8320 C   0  0  2  0  0  3  0  0  0  0  0  0
  159.3100  213.0000  146.2930 C   0  0  1  0  0  3  0  0  0  0  0  0
  160.1390  214.4530  142.0580 N   0  0  0  0  0  2  0  0  0  0  0  0
  161.1970  208.3030  149.1110 C   0  0  0  0  0  2  0  0  0  0  0  0
  161.4630  210.9910  149.9130 C   0  0  2  0  0  3  0  0  0  0  0  0
  161.1840  214.0490  142.8920 N   0  0  0  0  0  0  0  0  0  0  0  0
  162.3250  209.1380  148.5030 C   0  0  0  0  0  2  0  0  0  0  0  0
  161.2440  209.1070  151.5110 C   0  0  2  0  0  3  0  0  0  0  0  0
  157.1620  213.2470  147.5910 C   0  0  0  0  0  2  0  0  0  0  0  0
  158.6630  213.5510  147.5700 C   0  0  1  0  0  3  0  0  0  0  0  0
  158.6690  213.6460  145.0540 C   0  0  0  0  0  2  0  0  0  0  0  0
  161.4750  211.1150  147.5310 C   0  0  0  0  0  2  0  0  0  0  0  0
  162.9720  213.3510  144.9710 C   0  0  0  0  0  1  0  0  0  0  0  0
  157.8170  214.0490  142.0980 O   0  0  0  0  0  0  0  0  0  0  0  0
  160.8370  213.2660  146.3120 C   0  0  1  0  0  3  0  0  0  0  0  0
  159.2660  213.0500  143.7860 C   0  0  2  0  0  3  0  0  0  0  0  0
  161.5550  208.7050  152.8740 N   0  0  0  0  0  2  0  0  0  0  0  0
  160.8570  209.2240  154.0090 C   0  0  0  0  0  0  0  0  0  0  0  0
  159.9480  210.0850  153.8660 O   0  0  0  0  0  0  0  0  0  0  0  0
  161.2130  208.7490  155.3710 C   0  0  0  0  0  1  0  0  0  0  0  0
  1 20  1  0  0  0  0
  2 24  1  6  0  0  0
  2 12  1  0  0  0  0
  4  3  1  0  0  0  0
  5 25  1  6  0  0  0
  5 27  1  0  0  0  0
  6  5  1  0  0  0  0
  7 24  1  6  0  0  0
  7 17  1  0  0  0  0
  9 28  1  0  0  0  0
 10 20  1  0  0  0  0
 11  3  1  0  0  0  0
 12  8  1  1  0  0  0
 13 12  1  0  0  0  0
 13 11  1  1  0  0  0
 14 23  1  6  0  0  0
 14 27  1  0  0  0  0
 14 22  1  0  0  0  0
 15  9  1  0  0  0  0
 15 18  1  0  0  0  0
 16  1  1  0  0  0  0
 17  8  1  1  0  0  0
 17 10  1  0  0  0  0
 18  6  2  0  0  0  0
 19  7  1  0  0  0  0
 19 16  1  0  0  0  0
 20 29  1  1  0  0  0
 21  4  1  0  0  0  0
 22 21  1  6  0  0  0
 22 13  1  0  0  0  0
 26  9  2  0  0  0  0
 27  2  1  0  0  0  0
 28  6  1  0  0  0  0
 28 23  1  0  0  0  0
 29 30  1  0  0  0  0
 30 32  1  0  0  0  0
 31 30  2  0  0  0  0
M  END
>  <MODEL>
1

>  <REMARK>
 VINA RESULT:      -4.8      0.000      0.000
  Name = 
  1 active torsions:
  status: ('A' for Active; 'I' for Inactive)
    1  A    between atoms: C_20  and  N_29
                            x       y       z     vdW  Elec       q    Type
                         _______ _______ _______ _____ _____    ______ ____

>  <TORSDO>
F 1

$$$$
=
 OpenBabel11122412513D

 32 37  0  0  1  0  0  0  0  0999 V2000
  156.8540  213.5760  147.7180 C   0  0  0  0  0  2  0  0  0  0  0  0
  160.1590  212.5980  152.0940 C   0  0  1  0  0  3  0  0  0  0  0  0
  162.1200  209.2510  148.8640 C   0  0  0  0  0  2  0  0  0  0  0  0
  162.2690  208.2410  149.9980 C   0  0  0  0  0  2  0  0  0  0  0  0
  159.4100  211.8750  154.4180 C   0  0  1  0  0  3  0  0  0  0  0  0
  159.4970  210.7490  155.4060 C   0  0  0  0  0  0  0  0  0  0  0  0
  158.5750  213.6180  150.5240 N   0  0  1  0  0  0  0  0  0  0  0  0
  160.9180  213.3560  149.8280 C   0  0  0  0  0  2  0  0  0  0  0  0
  159.8200  208.6740  156.2190 C   0  0  0  0  0  0  0  0  0  0  0  0
  159.2420  214.2340  148.2090 C   0  0  0  0  0  2  0  0  0  0  0  0
  162.2190  210.6710  149.4090 C   0  0  0  0  0  2  0  0  0  0  0  0
  161.1780  212.3610  150.9670 C   0  0  2  0  0  3  0  0  0  0  0  0
  161.1340  210.9090  150.4620 C   0  0  2  0  0  3  0  0  0  0  0  0
  160.2730  210.1330  152.7220 C   0  0  1  0  0  3  0  0  0  0  0  0
  160.0320  209.6310  157.2410 N   0  0  0  0  0  2  0  0  0  0  0  0
  156.7050  212.8070  149.0240 C   0  0  0  0  0  2  0  0  0  0  0  0
  159.4560  213.2920  149.3860 C   0  0  2  0  0  3  0  0  0  0  0  0
  159.8380  210.8820  156.6500 N   0  0  0  0  0  0  0  0  0  0  0  0
  157.1410  213.6940  150.1910 C   0  0  0  0  0  2  0  0  0  0  0  0
  158.2970  213.5770  147.2130 C   0  0  2  0  0  3  0  0  0  0  0  0
  161.1960  208.4800  151.0570 C   0  0  0  0  0  2  0  0  0  0  0  0
  161.3080  209.9020  151.6130 C   0  0  1  0  0  3  0  0  0  0  0  0
  160.5040  209.1440  153.8750 C   0  0  0  0  0  2  0  0  0  0  0  0
  158.7260  212.5800  151.5420 C   0  0  0  0  0  2  0  0  0  0  0  0
  159.7330  213.2200  155.0590 C   0  0  0  0  0  1  0  0  0  0  0  0
  159.9240  207.4320  156.3970 O   0  0  0  0  0  0  0  0  0  0  0  0
  160.3610  211.5930  153.2370 C   0  0  1  0  0  3  0  0  0  0  0  0
  159.4360  209.3300  154.9450 C   0  0  2  0  0  3  0  0  0  0  0  0
  158.3720  214.2890  145.9450 N   0  0  0  0  0  2  0  0  0  0  0  0
  158.7110  213.6410  144.7170 C   0  0  0  0  0  0  0  0  0  0  0  0
  158.9860  212.4110  144.6930 O   0  0  0  0  0  0  0  0  0  0  0  0
  158.7460  214.4270  143.4570 C   0  0  0  0  0  1  0  0  0  0  0  0
  1 16  1  0  0  0  0
  2 24  1  6  0  0  0
  2 27  1  0  0  0  0
  3 11  1  0  0  0  0
  3  4  1  0  0  0  0
  4 21  1  0  0  0  0
  5 25  1  1  0  0  0
  5  6  1  0  0  0  0
  6 18  2  0  0  0  0
  7 19  1  6  0  0  0
  7 24  1  0  0  0  0
  9 26  2  0  0  0  0
  9 15  1  0  0  0  0
 12  8  1  6  0  0  0
 12  2  1  0  0  0  0
 13 11  1  6  0  0  0
 13 12  1  0  0  0  0
 13 22  1  0  0  0  0
 14 27  1  0  0  0  0
 14 23  1  1  0  0  0
 16 19  1  0  0  0  0
 17 10  1  6  0  0  0
 17  8  1  0  0  0  0
 17  7  1  0  0  0  0
 18 15  1  0  0  0  0
 20 29  1  6  0  0  0
 20  1  1  0  0  0  0
 20 10  1  0  0  0  0
 22 21  1  6  0  0  0
 22 14  1  0  0  0  0
 23 28  1  0  0  0  0
 27  5  1  0  0  0  0
 28  6  1  0  0  0  0
 28  9  1  0  0  0  0
 30 29  1  0  0  0  0
 31 30  2  0  0  0  0
 32 30  1  0  0  0  0
M  END
>  <MODEL>
2

>  <REMARK>
 VINA RESULT:      -4.7      2.368      9.065
  Name = 
  1 active torsions:
  status: ('A' for Active; 'I' for Inactive)
    1  A    between atoms: C_20  and  N_29
                            x       y       z     vdW  Elec       q    Type
                         _______ _______ _______ _____ _____    ______ ____

>  <TORSDO>
F 1

$$$$
=
 OpenBabel11122412513D

 32 37  0  0  1  0  0  0  0  0999 V2000
  158.8420  213.4930  148.3210 C   0  0  0  0  0  2  0  0  0  0  0  0
  161.9350  210.7090  152.0240 C   0  0  1  0  0  3  0  0  0  0  0  0
  161.1990  207.0060  148.6740 C   0  0  0  0  0  2  0  0  0  0  0  0
  161.0180  206.0090  149.8140 C   0  0  0  0  0  2  0  0  0  0  0  0
  161.3890  210.3600  154.4870 C   0  0  1  0  0  3  0  0  0  0  0  0
  161.0690  209.3030  155.5020 C   0  0  0  0  0  0  0  0  0  0  0  0
  160.8420  212.4860  150.7350 N   0  0  1  0  0  0  0  0  0  0  0  0
  162.5200  211.0800  149.6150 C   0  0  0  0  0  2  0  0  0  0  0  0
  160.4170  207.3230  156.3560 C   0  0  0  0  0  0  0  0  0  0  0  0
  161.2660  212.7860  148.3030 C   0  0  0  0  0  2  0  0  0  0  0  0
  162.1250  208.1370  149.1070 C   0  0  0  0  0  2  0  0  0  0  0  0
  162.4410  210.0370  150.7380 C   0  0  2  0  0  3  0  0  0  0  0  0
  161.5510  208.8490  150.3350 C   0  0  2  0  0  3  0  0  0  0  0  0
  160.8720  208.5160  152.7590 C   0  0  1  0  0  3  0  0  0  0  0  0
  161.2900  207.9750  157.2610 N   0  0  0  0  0  2  0  0  0  0  0  0
  158.5730  212.8460  149.6730 C   0  0  0  0  0  2  0  0  0  0  0  0
  161.1850  211.8100  149.4680 C   0  0  2  0  0  3  0  0  0  0  0  0
  161.6640  209.1730  156.6480 N   0  0  0  0  0  0  0  0  0  0  0  0
  159.6240  213.3140  150.6810 C   0  0  0  0  0  2  0  0  0  0  0  0
  159.9450  212.7700  147.5470 C   0  0  2  0  0  3  0  0  0  0  0  0
  160.4560  206.7140  151.0440 C   0  0  0  0  0  2  0  0  0  0  0  0
  161.3970  207.8390  151.4860 C   0  0  1  0  0  3  0  0  0  0  0  0
  160.7740  207.4910  153.9000 C   0  0  0  0  0  2  0  0  0  0  0  0
  160.6270  211.4680  151.7620 C   0  0  0  0  0  2  0  0  0  0  0  0
  162.4810  211.3050  154.9750 C   0  0  0  0  0  1  0  0  0  0  0  0
  159.8930  206.2020  156.5810 O   0  0  0  0  0  0  0  0  0  0  0  0
  161.8030  209.6870  153.1620 C   0  0  1  0  0  3  0  0  0  0  0  0
  160.1900  208.1490  155.1440 C   0  0  2  0  0  3  0  0  0  0  0  0
  160.1310  213.4040  146.2510 N   0  0  0  0  0  2  0  0  0  0  0  0
  159.3270  213.0830  145.1130 C   0  0  0  0  0  0  0  0  0  0  0  0
  158.4270  212.2040  145.1900 O   0  0  0  0  0  0  0  0  0  0  0  0
  159.5590  213.7880  143.8270 C   0  0  0  0  0  1  0  0  0  0  0  0
  1 16  1  0  0  0  0
  2 24  1  6  0  0  0
  2 27  1  0  0  0  0
  3 11  1  0  0  0  0
  3  4  1  0  0  0  0
  4 21  1  0  0  0  0
  5 25  1  1  0  0  0
  5  6  1  0  0  0  0
  6 18  2  0  0  0  0
  7 19  1  6  0  0  0
  7 24  1  0  0  0  0
  9 26  2  0  0  0  0
  9 15  1  0  0  0  0
 12  8  1  6  0  0  0
 12  2  1  0  0  0  0
 13 11  1  6  0  0  0
 13 12  1  0  0  0  0
 13 22  1  0  0  0  0
 14 27  1  0  0  0  0
 14 23  1  1  0  0  0
 16 19  1  0  0  0  0
 17 10  1  6  0  0  0
 17  8  1  0  0  0  0
 17  7  1  0  0  0  0
 18 15  1  0  0  0  0
 20 29  1  6  0  0  0
 20 10  1  0  0  0  0
 20  1  1  0  0  0  0
 22 21  1  6  0  0  0
 22 14  1  0  0  0  0
 23 28  1  0  0  0  0
 27  5  1  0  0  0  0
 28  6  1  0  0  0  0
 28  9  1  0  0  0  0
 30 31  2  0  0  0  0
 30 29  1  0  0  0  0
 32 30  1  0  0  0  0
M  END
>  <MODEL>
3

>  <REMARK>
 VINA RESULT:      -4.1      2.135      9.192
  Name = 
  1 active torsions:
  status: ('A' for Active; 'I' for Inactive)
    1  A    between atoms: C_20  and  N_29
                            x       y       z     vdW  Elec       q    Type
                         _______ _______ _______ _____ _____    ______ ____

>  <TORSDO>
F 1

$$$$
=
 OpenBabel11122412513D

 32 37  0  0  1  0  0  0  0  0999 V2000
  160.5480  208.9630  152.9600 C   0  0  0  0  0  2  0  0  0  0  0  0
  161.1820  213.1900  149.3880 C   0  0  1  0  0  3  0  0  0  0  0  0
  156.2080  213.5580  150.1650 C   0  0  0  0  0  2  0  0  0  0  0  0
  155.9980  213.8630  148.6850 C   0  0  0  0  0  2  0  0  0  0  0  0
  162.1210  213.0410  147.0250 C   0  0  1  0  0  3  0  0  0  0  0  0
  161.7580  213.2270  145.5810 C   0  0  0  0  0  0  0  0  0  0  0  0
  161.5970  211.4080  151.0200 N   0  0  1  0  0  0  0  0  0  0  0  0
  160.3010  213.3730  151.7280 C   0  0  0  0  0  2  0  0  0  0  0  0
  160.4890  213.4300  143.7320 C   0  0  0  0  0  0  0  0  0  0  0  0
  160.6060  211.4650  153.2990 C   0  0  0  0  0  2  0  0  0  0  0  0
  157.5840  214.0410  150.6100 C   0  0  0  0  0  2  0  0  0  0  0  0
  160.0710  213.7860  150.2680 C   0  0  2  0  0  3  0  0  0  0  0  0
  158.6770  213.3620  149.7800 C   0  0  2  0  0  3  0  0  0  0  0  0
  159.5710  213.0790  147.4200 C   0  0  1  0  0  3  0  0  0  0  0  0
  161.7310  214.0820  143.5380 N   0  0  0  0  0  2  0  0  0  0  0  0
  160.7100  209.0770  151.4500 C   0  0  0  0  0  2  0  0  0  0  0  0
  160.4520  211.8550  151.8360 C   0  0  2  0  0  3  0  0  0  0  0  0
  162.4410  213.9310  144.7320 N   0  0  0  0  0  0  0  0  0  0  0  0
  161.9080  209.9710  151.1310 C   0  0  0  0  0  2  0  0  0  0  0  0
  159.8340  210.1780  153.5540 C   0  0  2  0  0  3  0  0  0  0  0  0
  157.0900  213.1980  147.8520 C   0  0  0  0  0  2  0  0  0  0  0  0
  158.4700  213.6970  148.2920 C   0  0  1  0  0  3  0  0  0  0  0  0
  159.3620  213.4710  145.9480 C   0  0  0  0  0  2  0  0  0  0  0  0
  161.3010  211.6770  149.6140 C   0  0  0  0  0  2  0  0  0  0  0  0
  163.4220  213.7500  147.3800 C   0  0  0  0  0  1  0  0  0  0  0  0
  159.5870  213.3770  142.8550 O   0  0  0  0  0  0  0  0  0  0  0  0
  160.9640  213.5490  147.9110 C   0  0  1  0  0  3  0  0  0  0  0  0
  160.4180  212.8040  145.0760 C   0  0  2  0  0  3  0  0  0  0  0  0
  159.6710  209.9970  154.9890 N   0  0  0  0  0  2  0  0  0  0  0  0
  160.6390  209.3220  155.7960 C   0  0  0  0  0  0  0  0  0  0  0  0
  161.6760  208.8290  155.2780 O   0  0  0  0  0  0  0  0  0  0  0  0
  160.4160  209.1960  157.2590 C   0  0  0  0  0  1  0  0  0  0  0  0
  1 20  1  0  0  0  0
  2 24  1  6  0  0  0
  2 12  1  0  0  0  0
  3 11  1  0  0  0  0
  4  3  1  0  0  0  0
  5 25  1  1  0  0  0
  5 27  1  0  0  0  0
  6  5  1  0  0  0  0
  7 24  1  6  0  0  0
  7 19  1  0  0  0  0
  7 17  1  0  0  0  0
  9 28  1  0  0  0  0
 10 20  1  0  0  0  0
 12  8  1  1  0  0  0
 13 12  1  0  0  0  0
 13 11  1  1  0  0  0
 14 23  1  6  0  0  0
 14 27  1  0  0  0  0
 14 22  1  0  0  0  0
 15  9  1  0  0  0  0
 15 18  1  0  0  0  0
 16  1  1  0  0  0  0
 17  8  1  1  0  0  0
 17 10  1  0  0  0  0
 18  6  2  0  0  0  0
 19 16  1  0  0  0  0
 20 29  1  1  0  0  0
 21  4  1  0  0  0  0
 22 21  1  6  0  0  0
 22 13  1  0  0  0  0
 26  9  2  0  0  0  0
 27  2  1  0  0  0  0
 28  6  1  0  0  0  0
 28 23  1  0  0  0  0
 29 30  1  0  0  0  0
 30 32  1  0  0  0  0
 31 30  2  0  0  0  0
M  END
>  <MODEL>
4

>  <REMARK>
 VINA RESULT:      -3.5      1.516      2.056
  Name = 
  1 active torsions:
  status: ('A' for Active; 'I' for Inactive)
    1  A    between atoms: C_20  and  N_29
                            x       y       z     vdW  Elec       q    Type
                         _______ _______ _______ _____ _____    ______ ____

>  <TORSDO>
F 1

$$$$
=
 OpenBabel11122412513D

 32 37  0  0  1  0  0  0  0  0999 V2000
  160.9550  206.6220  152.0060 C   0  0  0  0  0  2  0  0  0  0  0  0
  162.0130  211.6100  149.7620 C   0  0  1  0  0  3  0  0  0  0  0  0
  157.7070  212.7200  152.1520 C   0  0  0  0  0  2  0  0  0  0  0  0
  157.2660  213.5710  150.9650 C   0  0  0  0  0  2  0  0  0  0  0  0
  162.2910  212.1200  147.2830 C   0  0  1  0  0  3  0  0  0  0  0  0
  161.6810  212.8820  146.1430 C   0  0  0  0  0  0  0  0  0  0  0  0
  162.2260  209.3170  150.6050 N   0  0  1  0  0  0  0  0  0  0  0  0
  161.7910  211.1250  152.2120 C   0  0  0  0  0  2  0  0  0  0  0  0
  160.1450  213.9970  144.9300 C   0  0  0  0  0  0  0  0  0  0  0  0
  161.8510  208.7640  152.9990 C   0  0  0  0  0  2  0  0  0  0  0  0
  159.2290  212.7090  152.2530 C   0  0  0  0  0  2  0  0  0  0  0  0
  161.3700  212.0730  151.0800 C   0  0  2  0  0  3  0  0  0  0  0  0
  159.8390  212.1560  150.9620 C   0  0  2  0  0  3  0  0  0  0  0  0
  160.0380  212.5540  148.4620 C   0  0  1  0  0  3  0  0  0  0  0  0
  161.4470  214.3960  144.5440 N   0  0  0  0  0  2  0  0  0  0  0  0
  160.7920  207.2310  150.6200 C   0  0  0  0  0  2  0  0  0  0  0  0
  161.4920  209.6750  151.8340 C   0  0  2  0  0  3  0  0  0  0  0  0
  162.3320  213.6820  145.3560 N   0  0  0  0  0  0  0  0  0  0  0  0
  162.1000  207.9050  150.2020 C   0  0  0  0  0  2  0  0  0  0  0  0
  160.8040  207.6650  153.1130 C   0  0  2  0  0  3  0  0  0  0  0  0
  157.8800  213.0330  149.6760 C   0  0  0  0  0  2  0  0  0  0  0  0
  159.4090  213.0370  149.7750 C   0  0  1  0  0  3  0  0  0  0  0  0
  159.6260  213.4810  147.3070 C   0  0  0  0  0  2  0  0  0  0  0  0
  161.7110  210.1270  149.5020 C   0  0  0  0  0  2  0  0  0  0  0  0
  163.7920  212.3620  147.3900 C   0  0  0  0  0  1  0  0  0  0  0  0
  159.0950  214.4530  144.4090 O   0  0  0  0  0  0  0  0  0  0  0  0
  161.5810  212.5110  148.5960 C   0  0  1  0  0  3  0  0  0  0  0  0
  160.1970  212.9630  145.9930 C   0  0  2  0  0  3  0  0  0  0  0  0
  160.9270  207.0230  154.4130 N   0  0  0  0  0  2  0  0  0  0  0  0
  160.3080  207.5430  155.5920 C   0  0  0  0  0  0  0  0  0  0  0  0
  159.6410  208.6110  155.5500 O   0  0  0  0  0  0  0  0  0  0  0  0
  160.4580  206.8190  156.8810 C   0  0  0  0  0  1  0  0  0  0  0  0
  1 20  1  0  0  0  0
  2 24  1  6  0  0  0
  2 12  1  0  0  0  0
  3 11  1  0  0  0  0
  4  3  1  0  0  0  0
  5 25  1  1  0  0  0
  5 27  1  0  0  0  0
  6  5  1  0  0  0  0
  7 24  1  6  0  0  0
  7 17  1  0  0  0  0
  9 28  1  0  0  0  0
 10 20  1  0  0  0  0
 12  8  1  1  0  0  0
 13 12  1  0  0  0  0
 13 11  1  1  0  0  0
 14 23  1  6  0  0  0
 14 27  1  0  0  0  0
 14 22  1  0  0  0  0
 15  9  1  0  0  0  0
 15 18  1  0  0  0  0
 16  1  1  0  0  0  0
 17  8  1  1  0  0  0
 17 10  1  0  0  0  0
 18  6  2  0  0  0  0
 19  7  1  0  0  0  0
 19 16  1  0  0  0  0
 20 29  1  1  0  0  0
 21  4  1  0  0  0  0
 22 21  1  6  0  0  0
 22 13  1  0  0  0  0
 26  9  2  0  0  0  0
 27  2  1  0  0  0  0
 28  6  1  0  0  0  0
 28 23  1  0  0  0  0
 29 30  1  0  0  0  0
 30 32  1  0  0  0  0
 31 30  2  0  0  0  0
M  END
>  <MODEL>
5

>  <REMARK>
 VINA RESULT:      -2.8      1.663      2.410
  Name = 
  1 active torsions:
  status: ('A' for Active; 'I' for Inactive)
    1  A    between atoms: C_20  and  N_29
                            x       y       z     vdW  Elec       q    Type
                         _______ _______ _______ _____ _____    ______ ____

>  <TORSDO>
F 1

$$$$
