=
 OpenBabel11122413513D

 37 42  0  0  1  0  0  0  0  0999 V2000
  160.1170  200.5560  147.1880 O   0  0  0  0  0  0  0  0  0  0  0  0
  160.8090  207.6410  155.3560 C   0  0  0  0  0  0  0  0  0  0  0  0
  161.8360  207.8670  151.2990 C   0  0  0  0  0  0  0  0  0  0  0  0
  161.1630  200.6320  147.8850 C   0  0  0  0  0  0  0  0  0  0  0  0
  159.6070  205.6630  149.7640 C   0  0  0  0  0  2  0  0  0  0  0  0
  161.4330  209.1020  153.3310 C   0  0  0  0  0  0  0  0  0  0  0  0
  161.8650  206.4290  150.9060 C   0  0  2  0  0  3  0  0  0  0  0  0
  160.1880  202.4280  149.4080 C   0  0  0  0  0  0  0  0  0  0  0  0
  161.6840  207.9170  152.6510 C   0  0  0  0  0  0  0  0  0  0  0  0
  161.0810  206.0680  149.6240 C   0  0  2  0  0  3  0  0  0  0  0  0
  161.4850  210.3000  152.6030 C   0  0  0  0  0  3  0  0  0  0  0  0
  161.2450  201.5580  148.9780 N   0  0  0  0  0  2  0  0  0  0  0  0
  161.6250  206.5680  153.2260 C   0  0  1  0  0  3  0  0  0  0  0  0
  159.6670  207.6350  156.3500 C   0  0  0  0  0  1  0  0  0  0  0  0
  162.1300  209.0900  149.0530 C   0  0  0  0  0  2  0  0  0  0  0  0
  161.7570  210.2720  151.2180 C   0  0  0  0  0  3  0  0  0  0  0  0
  160.5380  206.5470  154.2990 C   0  0  0  0  0  2  0  0  0  0  0  0
  160.4350  203.4110  150.4260 N   0  0  0  0  0  0  0  0  0  0  0  0
  159.4130  204.4360  150.6690 C   0  0  0  0  0  2  0  0  0  0  0  0
  161.9340  209.0500  150.5420 C   0  0  0  0  0  0  0  0  0  0  0  0
  161.3190  205.7110  152.0790 N   0  0  2  0  0  0  0  0  0  0  0  0
  160.9140  209.0610  154.7450 C   0  0  0  0  0  2  0  0  0  0  0  0
  161.3990  206.8190  148.3260 C   0  0  1  0  0  3  0  0  0  0  0  0
  162.0900  207.3300  156.1120 C   0  0  0  0  0  1  0  0  0  0  0  0
  161.7890  203.4870  151.0090 C   0  0  0  0  0  2  0  0  0  0  0  0
  159.0410  202.3340  148.8910 O   0  0  0  0  0  0  0  0  0  0  0  0
  161.9430  204.4000  152.2460 C   0  0  0  0  0  2  0  0  0  0  0  0
  162.5830  207.7720  148.4400 C   0  0  0  0  0  2  0  0  0  0  0  0
  162.1470  204.5820  147.4890 C   0  0  0  0  0  3  0  0  0  0  0  0
  161.6160  205.8470  147.2090 C   0  0  0  0  0  0  0  0  0  0  0  0
  161.2850  206.1820  145.8850 C   0  0  0  0  0  3  0  0  0  0  0  0
  161.1510  205.6230  143.4530 C   0  0  0  0  0  1  0  0  0  0  0  0
  162.0310  204.0030  145.1390 C   0  0  0  0  0  3  0  0  0  0  0  0
  161.4970  205.2640  144.8540 C   0  0  0  0  0  0  0  0  0  0  0  0
  162.3530  203.6610  146.4560 C   0  0  0  0  0  3  0  0  0  0  0  0
  162.1870  198.8560  146.5250 C   0  0  0  0  0  1  0  0  0  0  0  0
  162.2470  199.8090  147.5750 O   0  0  0  0  0  0  0  0  0  0  0  0
  1  4  2  0  0  0  0
  2 24  1  0  0  0  0
  2 14  1  0  0  0  0
  3  9  1  0  0  0  0
  4 12  1  0  0  0  0
  5 19  1  0  0  0  0
  6 22  1  0  0  0  0
  7  3  1  1  0  0  0
  7 21  1  0  0  0  0
  8 18  1  0  0  0  0
  9 13  1  0  0  0  0
  9  6  2  0  0  0  0
 10  5  1  1  0  0  0
 10  7  1  0  0  0  0
 11  6  1  0  0  0  0
 12  8  1  0  0  0  0
 13 17  1  1  0  0  0
 15 20  1  0  0  0  0
 16 11  2  0  0  0  0
 17  2  1  0  0  0  0
 18 19  1  0  0  0  0
 18 25  1  0  0  0  0
 20 16  1  0  0  0  0
 20  3  2  0  0  0  0
 21 27  1  1  0  0  0
 21 13  1  0  0  0  0
 22  2  1  0  0  0  0
 23 30  1  6  0  0  0
 23 28  1  0  0  0  0
 23 10  1  0  0  0  0
 25 27  1  0  0  0  0
 26  8  2  0  0  0  0
 28 15  1  0  0  0  0
 30 29  1  0  0  0  0
 31 30  2  0  0  0  0
 32 34  1  0  0  0  0
 33 35  1  0  0  0  0
 34 33  2  0  0  0  0
 34 31  1  0  0  0  0
 35 29  2  0  0  0  0
 36 37  1  0  0  0  0
 37  4  1  0  0  0  0
M  END
>  <MODEL>
1

>  <REMARK>
 VINA RESULT:      -4.0      0.000      0.000
  Name = 
  2 active torsions:
  status: ('A' for Active; 'I' for Inactive)
    1  A    between atoms: C_4  and  O_37
    2  A    between atoms: C_23  and  C_30
                            x       y       z     vdW  Elec       q    Type
                         _______ _______ _______ _____ _____    ______ ____

>  <TORSDO>
F 2

$$$$
=
 OpenBabel11122413513D

 37 42  0  0  1  0  0  0  0  0999 V2000
  161.4200  208.4310  156.5040 O   0  0  0  0  0  0  0  0  0  0  0  0
  161.1640  201.4740  148.2020 C   0  0  0  0  0  0  0  0  0  0  0  0
  161.3180  205.6580  148.4050 C   0  0  0  0  0  0  0  0  0  0  0  0
  160.3230  208.0810  155.9940 C   0  0  0  0  0  0  0  0  0  0  0  0
  162.9740  206.2730  151.4150 C   0  0  0  0  0  2  0  0  0  0  0  0
  161.5970  203.7120  147.0070 C   0  0  0  0  0  0  0  0  0  0  0  0
  160.9010  205.9150  149.8130 C   0  0  2  0  0  3  0  0  0  0  0  0
  161.4380  206.5010  154.3340 C   0  0  0  0  0  0  0  0  0  0  0  0
  161.1370  204.3300  148.1620 C   0  0  0  0  0  0  0  0  0  0  0  0
  161.8090  206.8740  150.6160 C   0  0  2  0  0  3  0  0  0  0  0  0
  162.1380  204.5250  145.9990 C   0  0  0  0  0  3  0  0  0  0  0  0
  160.2910  207.1450  154.9060 N   0  0  0  0  0  2  0  0  0  0  0  0
  160.5890  203.6480  149.3410 C   0  0  1  0  0  3  0  0  0  0  0  0
  161.9510  200.1920  148.3740 C   0  0  0  0  0  1  0  0  0  0  0  0
  162.0250  207.9880  147.5720 C   0  0  0  0  0  2  0  0  0  0  0  0
  162.2260  205.9200  146.1900 C   0  0  0  0  0  3  0  0  0  0  0  0
  161.3020  202.3050  149.4970 C   0  0  0  0  0  2  0  0  0  0  0  0
  161.2940  205.6900  153.1560 N   0  0  0  0  0  0  0  0  0  0  0  0
  162.5090  205.2470  152.4610 C   0  0  0  0  0  2  0  0  0  0  0  0
  161.8190  206.5100  147.4020 C   0  0  0  0  0  0  0  0  0  0  0  0
  160.8620  204.5760  150.4410 N   0  0  2  0  0  0  0  0  0  0  0  0
  161.7030  202.2100  146.9500 C   0  0  0  0  0  2  0  0  0  0  0  0
  162.0990  208.2680  150.0490 C   0  0  1  0  0  3  0  0  0  0  0  0
  159.7090  201.1030  147.9720 C   0  0  0  0  0  1  0  0  0  0  0  0
  159.9470  205.5380  152.5730 C   0  0  0  0  0  2  0  0  0  0  0  0
  162.5760  206.6490  154.8590 O   0  0  0  0  0  0  0  0  0  0  0  0
  159.8090  204.4860  151.4510 C   0  0  0  0  0  2  0  0  0  0  0  0
  161.3190  208.5900  148.7790 C   0  0  0  0  0  2  0  0  0  0  0  0
  162.3380  209.1180  152.3910 C   0  0  0  0  0  3  0  0  0  0  0  0
  161.8490  209.3110  151.0930 C   0  0  0  0  0  0  0  0  0  0  0  0
  161.1420  210.4860  150.7860 C   0  0  0  0  0  3  0  0  0  0  0  0
  160.1630  212.6870  151.4480 C   0  0  0  0  0  1  0  0  0  0  0  0
  161.4020  211.2480  153.0690 C   0  0  0  0  0  3  0  0  0  0  0  0
  160.9150  211.4480  151.7730 C   0  0  0  0  0  0  0  0  0  0  0  0
  162.1160  210.0850  153.3770 C   0  0  0  0  0  3  0  0  0  0  0  0
  158.7550  209.9630  156.2250 C   0  0  0  0  0  1  0  0  0  0  0  0
  159.1380  208.6230  156.4930 O   0  0  0  0  0  0  0  0  0  0  0  0
  2 14  1  0  0  0  0
  2 17  1  0  0  0  0
  4 37  1  0  0  0  0
  4  1  2  0  0  0  0
  5 19  1  0  0  0  0
  6  9  2  0  0  0  0
  7  3  1  6  0  0  0
  7 21  1  0  0  0  0
  7 10  1  0  0  0  0
  8 26  2  0  0  0  0
  8 12  1  0  0  0  0
  9  3  1  0  0  0  0
  9 13  1  0  0  0  0
 10  5  1  6  0  0  0
 11 16  2  0  0  0  0
 11  6  1  0  0  0  0
 12  4  1  0  0  0  0
 13 17  1  1  0  0  0
 13 21  1  0  0  0  0
 15 28  1  0  0  0  0
 16 20  1  0  0  0  0
 18  8  1  0  0  0  0
 19 18  1  0  0  0  0
 20 15  1  0  0  0  0
 20  3  2  0  0  0  0
 21 27  1  1  0  0  0
 22  6  1  0  0  0  0
 22  2  1  0  0  0  0
 23 10  1  0  0  0  0
 23 30  1  1  0  0  0
 24  2  1  0  0  0  0
 25 18  1  0  0  0  0
 27 25  1  0  0  0  0
 28 23  1  0  0  0  0
 29 35  1  0  0  0  0
 30 29  2  0  0  0  0
 31 30  1  0  0  0  0
 31 34  2  0  0  0  0
 32 34  1  0  0  0  0
 33 35  2  0  0  0  0
 34 33  1  0  0  0  0
 36 37  1  0  0  0  0
M  END
>  <MODEL>
2

>  <REMARK>
 VINA RESULT:      -1.8      3.005      7.703
  Name = 
  2 active torsions:
  status: ('A' for Active; 'I' for Inactive)
    1  A    between atoms: C_4  and  O_37
    2  A    between atoms: C_23  and  C_30
                            x       y       z     vdW  Elec       q    Type
                         _______ _______ _______ _____ _____    ______ ____

>  <TORSDO>
F 2

$$$$
=
 OpenBabel11122413513D

 37 42  0  0  1  0  0  0  0  0999 V2000
  161.5040  212.6960  146.3800 O   0  0  0  0  0  0  0  0  0  0  0  0
  157.5070  213.1260  156.4410 C   0  0  0  0  0  0  0  0  0  0  0  0
  159.3930  210.0860  154.2560 C   0  0  0  0  0  0  0  0  0  0  0  0
  160.3120  212.3610  146.6120 C   0  0  0  0  0  0  0  0  0  0  0  0
  161.4700  211.8260  152.0550 C   0  0  0  0  0  2  0  0  0  0  0  0
  158.6930  210.8410  156.4370 C   0  0  0  0  0  0  0  0  0  0  0  0
  159.2750  210.5910  152.8580 C   0  0  2  0  0  3  0  0  0  0  0  0
  160.4910  212.9170  149.0920 C   0  0  0  0  0  0  0  0  0  0  0  0
  158.6560  210.9100  155.0500 C   0  0  0  0  0  0  0  0  0  0  0  0
  160.5780  210.5770  152.0270 C   0  0  2  0  0  3  0  0  0  0  0  0
  159.4080  209.7850  157.0220 C   0  0  0  0  0  3  0  0  0  0  0  0
  159.7800  212.4360  147.9420 N   0  0  0  0  0  2  0  0  0  0  0  0
  158.0060  211.9640  154.2600 C   0  0  1  0  0  3  0  0  0  0  0  0
  157.7090  214.4250  157.1900 C   0  0  0  0  0  1  0  0  0  0  0  0
  160.9030  208.0180  154.0020 C   0  0  0  0  0  2  0  0  0  0  0  0
  160.0840  208.8540  156.2060 C   0  0  0  0  0  3  0  0  0  0  0  0
  158.1150  213.2800  155.0280 C   0  0  0  0  0  2  0  0  0  0  0  0
  159.8990  212.8130  150.3980 N   0  0  0  0  0  0  0  0  0  0  0  0
  160.7400  213.0870  151.5690 C   0  0  0  0  0  2  0  0  0  0  0  0
  160.0890  208.9920  154.8050 C   0  0  0  0  0  0  0  0  0  0  0  0
  158.7540  211.9680  153.0020 N   0  0  2  0  0  0  0  0  0  0  0  0
  158.1630  211.9860  157.2610 C   0  0  0  0  0  2  0  0  0  0  0  0
  161.3540  209.2620  151.8890 C   0  0  1  0  0  3  0  0  0  0  0  0
  156.0130  212.8690  156.3410 C   0  0  0  0  0  1  0  0  0  0  0  0
  158.5550  212.2150  150.5100 C   0  0  0  0  0  2  0  0  0  0  0  0
  161.6380  213.4260  148.9620 O   0  0  0  0  0  0  0  0  0  0  0  0
  157.8740  212.3290  151.8920 C   0  0  0  0  0  2  0  0  0  0  0  0
  160.6440  208.0610  152.5030 C   0  0  0  0  0  2  0  0  0  0  0  0
  162.1240  210.0510  149.6410 C   0  0  0  0  0  3  0  0  0  0  0  0
  161.6710  209.0010  150.4490 C   0  0  0  0  0  0  0  0  0  0  0  0
  161.5310  207.7150  149.9010 C   0  0  0  0  0  3  0  0  0  0  0  0
  161.6760  206.1290  147.9750 C   0  0  0  0  0  1  0  0  0  0  0  0
  162.2780  208.5430  147.7510 C   0  0  0  0  0  3  0  0  0  0  0  0
  161.8290  207.4890  148.5550 C   0  0  0  0  0  0  0  0  0  0  0  0
  162.4280  209.8220  148.2950 C   0  0  0  0  0  3  0  0  0  0  0  0
  159.8350  212.1880  144.2040 C   0  0  0  0  0  1  0  0  0  0  0  0
  159.5180  211.9050  145.5590 O   0  0  0  0  0  0  0  0  0  0  0  0
  1  4  2  0  0  0  0
  2 14  1  0  0  0  0
  2 22  1  0  0  0  0
  3 20  2  0  0  0  0
  3  9  1  0  0  0  0
  4 12  1  0  0  0  0
  6 11  1  0  0  0  0
  6 22  1  0  0  0  0
  7 21  1  0  0  0  0
  7  3  1  1  0  0  0
  8 18  1  0  0  0  0
  9  6  2  0  0  0  0
 10  5  1  1  0  0  0
 10  7  1  0  0  0  0
 12  8  1  0  0  0  0
 13 17  1  1  0  0  0
 13  9  1  0  0  0  0
 15 20  1  0  0  0  0
 16 11  2  0  0  0  0
 17  2  1  0  0  0  0
 18 25  1  0  0  0  0
 18 19  1  0  0  0  0
 19  5  1  0  0  0  0
 20 16  1  0  0  0  0
 21 27  1  6  0  0  0
 21 13  1  0  0  0  0
 23 30  1  6  0  0  0
 23 10  1  0  0  0  0
 23 28  1  0  0  0  0
 24  2  1  0  0  0  0
 25 27  1  0  0  0  0
 26  8  2  0  0  0  0
 28 15  1  0  0  0  0
 29 30  1  0  0  0  0
 31 30  2  0  0  0  0
 32 34  1  0  0  0  0
 33 35  1  0  0  0  0
 33 34  2  0  0  0  0
 34 31  1  0  0  0  0
 35 29  2  0  0  0  0
 36 37  1  0  0  0  0
 37  4  1  0  0  0  0
M  END
>  <MODEL>
3

>  <REMARK>
 VINA RESULT:      -1.2      4.919      7.611
  Name = 
  2 active torsions:
  status: ('A' for Active; 'I' for Inactive)
    1  A    between atoms: C_4  and  O_37
    2  A    between atoms: C_23  and  C_30
                            x       y       z     vdW  Elec       q    Type
                         _______ _______ _______ _____ _____    ______ ____

>  <TORSDO>
F 2

$$$$
