=
 OpenBabel11122412323D

 30 35  0  0  1  0  0  0  0  0999 V2000
  160.5550  210.8230  151.5370 C   0  0  1  0  0  3  0  0  0  0  0  0
  161.9560  208.8500  150.7650 C   0  0  0  0  0  0  0  0  0  0  0  0
  160.2340  209.2040  155.5410 C   0  0  0  0  0  2  0  0  0  0  0  0
  159.9880  211.6210  152.7430 C   0  0  1  0  0  3  0  0  0  0  0  0
  161.0950  211.7540  150.5520 N   0  0  0  0  0  2  0  0  0  0  0  0
  158.5550  214.3750  150.7410 O   0  0  0  0  0  0  0  0  0  0  0  0
  157.0920  212.5810  154.0830 C   0  0  1  0  0  3  0  0  0  0  0  0
  159.2440  213.3660  151.0570 C   0  0  0  0  0  0  0  0  0  0  0  0
  157.5400  211.3860  154.9420 C   0  0  2  0  0  3  0  0  0  0  0  0
  159.3310  210.2840  156.1210 C   0  0  1  0  0  3  0  0  0  0  0  0
  160.4060  212.9690  150.2340 C   0  0  0  0  0  0  0  0  0  0  0  0
  158.8340  212.5020  152.2300 C   0  0  2  0  0  3  0  0  0  0  0  0
  161.8720  207.4260  150.9060 N   0  0  0  0  0  0  0  0  0  0  0  0
  156.8820  211.6770  156.2700 C   0  0  0  0  0  2  0  0  0  0  0  0
  156.3420  213.4820  154.8610 O   0  0  0  0  0  0  0  0  0  0  0  0
  162.3650  209.3360  149.6780 O   0  0  0  0  0  0  0  0  0  0  0  0
  160.7220  209.8500  154.2810 C   0  0  2  0  0  3  0  0  0  0  0  0
  161.4930  206.8600  152.0100 C   0  0  0  0  0  3  0  0  0  0  0  0
  161.6160  209.7640  151.9200 C   0  0  2  0  0  3  0  0  0  0  0  0
  159.5300  210.6420  153.8400 C   0  0  1  0  0  3  0  0  0  0  0  0
  160.0450  210.9870  157.2600 C   0  0  0  0  0  1  0  0  0  0  0  0
  159.0080  211.2640  155.0620 N   0  0  1  0  0  0  0  0  0  0  0  0
  155.8570  212.7300  155.9400 C   0  0  0  0  0  2  0  0  0  0  0  0
  158.8560  214.2960  153.9190 C   0  0  0  0  0  2  0  0  0  0  0  0
  161.1150  207.6600  153.1830 C   0  0  0  0  0  3  0  0  0  0  0  0
  161.1760  208.9950  153.1480 C   0  0  0  0  0  0  0  0  0  0  0  0
  158.1990  213.2810  153.3460 C   0  0  0  0  0  0  0  0  0  0  0  0
  160.8250  213.7440  149.2340 C   0  0  0  0  0  3  0  0  0  0  0  0
  161.5250  212.7590  147.0980 C   0  0  0  0  0  1  0  0  0  0  0  0
  162.0020  213.3920  148.3880 C   0  0  0  0  0  2  0  0  0  0  0  0
  1  5  1  6  0  0  0
  1 19  1  0  0  0  0
  1  4  1  0  0  0  0
  2 13  1  0  0  0  0
  2 19  1  0  0  0  0
  3 10  1  0  0  0  0
  4 20  1  0  0  0  0
  6  8  2  0  0  0  0
  7 15  1  0  0  0  0
  7  9  1  0  0  0  0
  8 12  1  0  0  0  0
  9 22  1  0  0  0  0
  9 14  1  0  0  0  0
 10 21  1  0  0  0  0
 11  5  1  0  0  0  0
 11  8  1  0  0  0  0
 12  4  1  0  0  0  0
 12 27  1  0  0  0  0
 13 18  2  0  0  0  0
 15 23  1  0  0  0  0
 16  2  2  0  0  0  0
 17  3  1  0  0  0  0
 18 25  1  0  0  0  0
 19 26  1  0  0  0  0
 20 17  1  0  0  0  0
 20 22  1  0  0  0  0
 22 10  1  0  0  0  0
 23 14  1  0  0  0  0
 26 25  2  0  0  0  0
 26 17  1  0  0  0  0
 27 24  2  0  0  0  0
 27  7  1  0  0  0  0
 28 11  2  0  0  0  0
 29 30  1  0  0  0  0
 30 28  1  0  0  0  0
M  END
>  <MODEL>
1

>  <REMARK>
 VINA RESULT:      -6.3      0.000      0.000
  Name = 
  1 active torsions:
  status: ('A' for Active; 'I' for Inactive)
    1  A    between atoms: C_28  and  C_30
                            x       y       z     vdW  Elec       q    Type
                         _______ _______ _______ _____ _____    ______ ____

>  <TORSDO>
F 1

$$$$
=
 OpenBabel11122412323D

 30 35  0  0  1  0  0  0  0  0999 V2000
  161.1270  210.6860  151.6030 C   0  0  1  0  0  3  0  0  0  0  0  0
  161.8800  211.0840  149.2100 C   0  0  0  0  0  0  0  0  0  0  0  0
  158.8360  214.3620  151.6360 C   0  0  0  0  0  2  0  0  0  0  0  0
  160.1270  211.0650  152.7300 C   0  0  1  0  0  3  0  0  0  0  0  0
  161.2510  209.2350  151.5350 N   0  0  0  0  0  2  0  0  0  0  0  0
  161.2220  208.4570  155.1060 O   0  0  0  0  0  0  0  0  0  0  0  0
  160.0590  212.2850  155.8310 C   0  0  1  0  0  3  0  0  0  0  0  0
  161.0680  209.0990  154.0300 C   0  0  0  0  0  0  0  0  0  0  0  0
  159.6740  213.4760  154.9370 C   0  0  2  0  0  3  0  0  0  0  0  0
  158.3650  214.2910  153.0830 C   0  0  1  0  0  3  0  0  0  0  0  0
  161.3210  208.4470  152.7290 C   0  0  0  0  0  0  0  0  0  0  0  0
  160.7070  210.5690  154.0670 C   0  0  2  0  0  3  0  0  0  0  0  0
  162.4000  212.2020  148.4800 N   0  0  0  0  0  0  0  0  0  0  0  0
  158.8320  214.3190  155.8650 C   0  0  0  0  0  2  0  0  0  0  0  0
  159.4360  212.4020  157.0870 O   0  0  0  0  0  0  0  0  0  0  0  0
  162.3310  209.9330  148.9710 O   0  0  0  0  0  0  0  0  0  0  0  0
  159.3170  212.9650  151.3970 C   0  0  2  0  0  3  0  0  0  0  0  0
  161.9560  213.4090  148.6520 C   0  0  0  0  0  3  0  0  0  0  0  0
  160.7650  211.2650  150.2150 C   0  0  2  0  0  3  0  0  0  0  0  0
  159.8960  212.5880  152.7250 C   0  0  1  0  0  3  0  0  0  0  0  0
  156.8510  214.2160  153.1220 C   0  0  0  0  0  1  0  0  0  0  0  0
  158.9360  213.0840  153.7170 N   0  0  1  0  0  0  0  0  0  0  0  0
  159.1390  213.7630  157.2310 C   0  0  0  0  0  2  0  0  0  0  0  0
  158.6410  210.3170  155.3860 C   0  0  0  0  0  2  0  0  0  0  0  0
  160.8910  213.6960  149.6230 C   0  0  0  0  0  3  0  0  0  0  0  0
  160.3380  212.7120  150.3400 C   0  0  0  0  0  0  0  0  0  0  0  0
  159.8180  210.9320  155.2220 C   0  0  0  0  0  0  0  0  0  0  0  0
  161.5800  207.1410  152.6650 C   0  0  0  0  0  3  0  0  0  0  0  0
  161.2150  205.0520  151.4290 C   0  0  0  0  0  1  0  0  0  0  0  0
  161.8260  206.4360  151.3730 C   0  0  0  0  0  2  0  0  0  0  0  0
  1  5  1  6  0  0  0
  1  4  1  0  0  0  0
  2 19  1  0  0  0  0
  3 10  1  0  0  0  0
  4 12  1  0  0  0  0
  5 11  1  0  0  0  0
  7 15  1  0  0  0  0
  8 12  1  0  0  0  0
  8  6  2  0  0  0  0
  9  7  1  0  0  0  0
  9 14  1  0  0  0  0
 10 21  1  0  0  0  0
 10 22  1  0  0  0  0
 11  8  1  0  0  0  0
 12 27  1  0  0  0  0
 13 18  2  0  0  0  0
 13  2  1  0  0  0  0
 14 23  1  0  0  0  0
 15 23  1  0  0  0  0
 16  2  2  0  0  0  0
 17  3  1  0  0  0  0
 17 20  1  0  0  0  0
 18 25  1  0  0  0  0
 19 26  1  0  0  0  0
 19  1  1  0  0  0  0
 20  4  1  0  0  0  0
 20 22  1  0  0  0  0
 22  9  1  0  0  0  0
 25 26  2  0  0  0  0
 26 17  1  0  0  0  0
 27 24  2  0  0  0  0
 27  7  1  0  0  0  0
 28 11  2  0  0  0  0
 30 29  1  0  0  0  0
 30 28  1  0  0  0  0
M  END
>  <MODEL>
2

>  <REMARK>
 VINA RESULT:      -5.3      1.973      4.923
  Name = 
  1 active torsions:
  status: ('A' for Active; 'I' for Inactive)
    1  A    between atoms: C_28  and  C_30
                            x       y       z     vdW  Elec       q    Type
                         _______ _______ _______ _____ _____    ______ ____

>  <TORSDO>
F 1

$$$$
=
 OpenBabel11122412323D

 30 35  0  0  1  0  0  0  0  0999 V2000
  160.7770  209.5310  152.9870 C   0  0  1  0  0  3  0  0  0  0  0  0
  160.3780  212.0390  153.0260 C   0  0  0  0  0  0  0  0  0  0  0  0
  161.9390  209.6440  148.8160 C   0  0  0  0  0  2  0  0  0  0  0  0
  161.4220  208.3300  152.2420 C   0  0  1  0  0  3  0  0  0  0  0  0
  161.0670  209.4280  154.4120 N   0  0  0  0  0  2  0  0  0  0  0  0
  160.6770  205.8190  154.8470 O   0  0  0  0  0  0  0  0  0  0  0  0
  160.6090  205.4370  150.8000 C   0  0  1  0  0  3  0  0  0  0  0  0
  160.8380  206.9360  154.2800 C   0  0  0  0  0  0  0  0  0  0  0  0
  160.8070  206.4130  149.6280 C   0  0  2  0  0  3  0  0  0  0  0  0
  162.1500  208.1470  148.6270 C   0  0  1  0  0  3  0  0  0  0  0  0
  161.0040  208.1640  155.0850 C   0  0  0  0  0  0  0  0  0  0  0  0
  160.7730  207.0380  152.7710 C   0  0  2  0  0  3  0  0  0  0  0  0
  159.7110  212.9760  152.1700 N   0  0  0  0  0  0  0  0  0  0  0  0
  161.2100  205.4890  148.5030 C   0  0  0  0  0  2  0  0  0  0  0  0
  160.9450  204.1300  150.4040 O   0  0  0  0  0  0  0  0  0  0  0  0
  160.3060  212.1890  154.2740 O   0  0  0  0  0  0  0  0  0  0  0  0
  161.9070  209.7670  150.3070 C   0  0  2  0  0  3  0  0  0  0  0  0
  159.7720  212.9000  150.8770 C   0  0  0  0  0  3  0  0  0  0  0  0
  161.2070  210.9160  152.4460 C   0  0  2  0  0  3  0  0  0  0  0  0
  161.2270  208.4990  150.7240 C   0  0  1  0  0  3  0  0  0  0  0  0
  163.5960  207.8790  148.2560 C   0  0  0  0  0  1  0  0  0  0  0  0
  161.8260  207.4510  149.8900 N   0  0  1  0  0  0  0  0  0  0  0  0
  160.8310  204.1230  149.0070 C   0  0  0  0  0  2  0  0  0  0  0  0
  162.5640  205.4120  152.3030 C   0  0  0  0  0  2  0  0  0  0  0  0
  160.5310  211.8300  150.2140 C   0  0  0  0  0  3  0  0  0  0  0  0
  161.1960  210.9190  150.9320 C   0  0  0  0  0  0  0  0  0  0  0  0
  161.3120  205.8240  152.0720 C   0  0  0  0  0  0  0  0  0  0  0  0
  161.1260  208.0950  156.4100 C   0  0  0  0  0  3  0  0  0  0  0  0
  162.7730  209.7030  157.2610 C   0  0  0  0  0  1  0  0  0  0  0  0
  161.3120  209.3060  157.2610 C   0  0  0  0  0  2  0  0  0  0  0  0
  1  5  1  1  0  0  0
  2 16  2  0  0  0  0
  3 17  1  0  0  0  0
  4 12  1  0  0  0  0
  4  1  1  0  0  0  0
  5 11  1  0  0  0  0
  7 27  1  0  0  0  0
  8  6  2  0  0  0  0
  8 11  1  0  0  0  0
  9 22  1  0  0  0  0
  9  7  1  0  0  0  0
 10  3  1  0  0  0  0
 10 22  1  0  0  0  0
 11 28  2  0  0  0  0
 12  8  1  0  0  0  0
 13  2  1  0  0  0  0
 14 23  1  0  0  0  0
 14  9  1  0  0  0  0
 15  7  1  0  0  0  0
 17 20  1  0  0  0  0
 17 26  1  0  0  0  0
 18 13  2  0  0  0  0
 19  1  1  0  0  0  0
 19  2  1  0  0  0  0
 20  4  1  0  0  0  0
 21 10  1  0  0  0  0
 22 20  1  0  0  0  0
 23 15  1  0  0  0  0
 25 18  1  0  0  0  0
 25 26  2  0  0  0  0
 26 19  1  0  0  0  0
 27 24  2  0  0  0  0
 27 12  1  0  0  0  0
 28 30  1  0  0  0  0
 29 30  1  0  0  0  0
M  END
>  <MODEL>
3

>  <REMARK>
 VINA RESULT:      -5.1      2.743      7.579
  Name = 
  1 active torsions:
  status: ('A' for Active; 'I' for Inactive)
    1  A    between atoms: C_28  and  C_30
                            x       y       z     vdW  Elec       q    Type
                         _______ _______ _______ _____ _____    ______ ____

>  <TORSDO>
F 1

$$$$
=
 OpenBabel11122412323D

 30 35  0  0  1  0  0  0  0  0999 V2000
  161.5950  208.1190  150.8050 C   0  0  1  0  0  3  0  0  0  0  0  0
  162.0670  208.9530  148.4530 C   0  0  0  0  0  0  0  0  0  0  0  0
  160.4560  212.0820  152.1290 C   0  0  0  0  0  2  0  0  0  0  0  0
  160.9190  208.4050  152.1740 C   0  0  1  0  0  3  0  0  0  0  0  0
  161.2960  206.7510  150.3950 N   0  0  0  0  0  2  0  0  0  0  0  0
  161.5780  205.0760  153.6310 O   0  0  0  0  0  0  0  0  0  0  0  0
  161.6540  208.7320  155.4080 C   0  0  1  0  0  3  0  0  0  0  0  0
  161.4530  206.0000  152.7800 C   0  0  0  0  0  0  0  0  0  0  0  0
  161.4900  210.1750  154.8990 C   0  0  2  0  0  3  0  0  0  0  0  0
  160.2030  211.7390  153.5920 C   0  0  1  0  0  3  0  0  0  0  0  0
  161.3180  205.6780  151.3450 C   0  0  0  0  0  0  0  0  0  0  0  0
  161.5280  207.4480  153.2150 C   0  0  2  0  0  3  0  0  0  0  0  0
  162.7650  210.0730  147.8920 N   0  0  0  0  0  0  0  0  0  0  0  0
  161.0660  210.9120  156.1480 C   0  0  0  0  0  2  0  0  0  0  0  0
  161.2820  208.6510  156.7620 O   0  0  0  0  0  0  0  0  0  0  0  0
  162.1370  207.8360  147.8770 O   0  0  0  0  0  0  0  0  0  0  0  0
  160.4860  210.7270  151.4930 C   0  0  2  0  0  3  0  0  0  0  0  0
  162.7080  211.2590  148.4140 C   0  0  0  0  0  3  0  0  0  0  0  0
  161.2080  209.1160  149.6860 C   0  0  2  0  0  3  0  0  0  0  0  0
  161.1260  209.8840  152.5520 C   0  0  1  0  0  3  0  0  0  0  0  0
  158.7520  212.0130  153.9350 C   0  0  0  0  0  1  0  0  0  0  0  0
  160.5000  210.3070  153.8100 N   0  0  1  0  0  0  0  0  0  0  0  0
  161.4020  209.9550  157.2610 C   0  0  0  0  0  2  0  0  0  0  0  0
  159.6920  207.3440  154.8550 C   0  0  0  0  0  2  0  0  0  0  0  0
  161.9210  211.5160  149.6290 C   0  0  0  0  0  3  0  0  0  0  0  0
  161.2270  210.5350  150.2130 C   0  0  0  0  0  0  0  0  0  0  0  0
  160.9570  207.6870  154.5830 C   0  0  0  0  0  0  0  0  0  0  0  0
  161.1880  204.4150  150.9420 C   0  0  0  0  0  3  0  0  0  0  0  0
  160.8270  202.5490  149.3890 C   0  0  0  0  0  1  0  0  0  0  0  0
  161.0340  204.0440  149.5050 C   0  0  0  0  0  2  0  0  0  0  0  0
  1  5  1  6  0  0  0
  1  4  1  0  0  0  0
  2 19  1  0  0  0  0
  3 10  1  0  0  0  0
  4 20  1  0  0  0  0
  4 12  1  0  0  0  0
  5 11  1  0  0  0  0
  7 15  1  0  0  0  0
  8 12  1  0  0  0  0
  8  6  2  0  0  0  0
  9  7  1  0  0  0  0
  9 14  1  0  0  0  0
 10 22  1  0  0  0  0
 10 21  1  0  0  0  0
 11  8  1  0  0  0  0
 12 27  1  0  0  0  0
 13 18  2  0  0  0  0
 13  2  1  0  0  0  0
 14 23  1  0  0  0  0
 15 23  1  0  0  0  0
 16  2  2  0  0  0  0
 17  3  1  0  0  0  0
 17 20  1  0  0  0  0
 18 25  1  0  0  0  0
 19 26  1  0  0  0  0
 19  1  1  0  0  0  0
 20 22  1  0  0  0  0
 22  9  1  0  0  0  0
 25 26  2  0  0  0  0
 26 17  1  0  0  0  0
 27 24  2  0  0  0  0
 27  7  1  0  0  0  0
 28 11  2  0  0  0  0
 29 30  1  0  0  0  0
 30 28  1  0  0  0  0
M  END
>  <MODEL>
4

>  <REMARK>
 VINA RESULT:      -5.1      2.698      5.808
  Name = 
  1 active torsions:
  status: ('A' for Active; 'I' for Inactive)
    1  A    between atoms: C_28  and  C_30
                            x       y       z     vdW  Elec       q    Type
                         _______ _______ _______ _____ _____    ______ ____

>  <TORSDO>
F 1

$$$$
=
 OpenBabel11122412323D

 30 35  0  0  1  0  0  0  0  0999 V2000
  161.4490  210.4780  150.6160 C   0  0  1  0  0  3  0  0  0  0  0  0
  161.4370  212.2310  148.7780 C   0  0  0  0  0  0  0  0  0  0  0  0
  159.0530  212.9860  153.2100 C   0  0  0  0  0  2  0  0  0  0  0  0
  160.8060  209.9780  151.9390 C   0  0  1  0  0  3  0  0  0  0  0  0
  161.6350  209.3490  149.7120 N   0  0  0  0  0  2  0  0  0  0  0  0
  162.7090  206.8180  152.1200 O   0  0  0  0  0  0  0  0  0  0  0  0
  161.5830  209.3280  155.1140 C   0  0  1  0  0  3  0  0  0  0  0  0
  162.2050  207.8800  151.6600 C   0  0  0  0  0  0  0  0  0  0  0  0
  160.8800  210.6950  155.1590 C   0  0  2  0  0  3  0  0  0  0  0  0
  159.0360  212.0610  154.4210 C   0  0  1  0  0  3  0  0  0  0  0  0
  162.1020  208.0860  150.2010 C   0  0  0  0  0  0  0  0  0  0  0  0
  161.7840  208.9900  152.6000 C   0  0  2  0  0  3  0  0  0  0  0  0
  161.6490  213.6480  148.7220 N   0  0  0  0  0  0  0  0  0  0  0  0
  160.3010  210.7160  156.5540 C   0  0  0  0  0  2  0  0  0  0  0  0
  161.3530  208.6260  156.3110 O   0  0  0  0  0  0  0  0  0  0  0  0
  161.8650  211.5090  147.8400 O   0  0  0  0  0  0  0  0  0  0  0  0
  159.5250  212.0680  152.1260 C   0  0  2  0  0  3  0  0  0  0  0  0
  161.2040  214.4520  149.6370 C   0  0  0  0  0  3  0  0  0  0  0  0
  160.6590  211.6090  149.9150 C   0  0  2  0  0  3  0  0  0  0  0  0
  160.4920  211.1820  152.8470 C   0  0  1  0  0  3  0  0  0  0  0  0
  157.6070  211.6530  154.7280 C   0  0  0  0  0  1  0  0  0  0  0  0
  159.8400  210.8580  154.1210 N   0  0  1  0  0  0  0  0  0  0  0  0
  161.0300  209.6040  157.2610 C   0  0  0  0  0  2  0  0  0  0  0  0
  160.2180  207.6410  153.9420 C   0  0  0  0  0  2  0  0  0  0  0  0
  160.4580  213.9450  150.7970 C   0  0  0  0  0  3  0  0  0  0  0  0
  160.2010  212.6400  150.9260 C   0  0  0  0  0  0  0  0  0  0  0  0
  161.2550  208.4860  153.9120 C   0  0  0  0  0  0  0  0  0  0  0  0
  162.4080  207.1030  149.3540 C   0  0  0  0  0  3  0  0  0  0  0  0
  161.1780  206.3930  147.3530 C   0  0  0  0  0  1  0  0  0  0  0  0
  162.3040  207.2600  147.8740 C   0  0  0  0  0  2  0  0  0  0  0  0
  1  5  1  6  0  0  0
  1  4  1  0  0  0  0
  2 19  1  0  0  0  0
  3 10  1  0  0  0  0
  4 12  1  0  0  0  0
  4 20  1  0  0  0  0
  5 11  1  0  0  0  0
  7  9  1  0  0  0  0
  7 15  1  0  0  0  0
  8  6  2  0  0  0  0
  8 12  1  0  0  0  0
  9 14  1  0  0  0  0
 10 21  1  0  0  0  0
 11  8  1  0  0  0  0
 12 27  1  0  0  0  0
 13  2  1  0  0  0  0
 13 18  2  0  0  0  0
 14 23  1  0  0  0  0
 15 23  1  0  0  0  0
 16  2  2  0  0  0  0
 17 20  1  0  0  0  0
 17  3  1  0  0  0  0
 18 25  1  0  0  0  0
 19  1  1  0  0  0  0
 19 26  1  0  0  0  0
 20 22  1  0  0  0  0
 22 10  1  0  0  0  0
 22  9  1  0  0  0  0
 25 26  2  0  0  0  0
 26 17  1  0  0  0  0
 27 24  2  0  0  0  0
 27  7  1  0  0  0  0
 28 11  2  0  0  0  0
 29 30  1  0  0  0  0
 30 28  1  0  0  0  0
M  END
>  <MODEL>
5

>  <REMARK>
 VINA RESULT:      -5.0      2.167      5.113
  Name = 
  1 active torsions:
  status: ('A' for Active; 'I' for Inactive)
    1  A    between atoms: C_28  and  C_30
                            x       y       z     vdW  Elec       q    Type
                         _______ _______ _______ _____ _____    ______ ____

>  <TORSDO>
F 1

$$$$
=
 OpenBabel11122412323D

 30 35  0  0  1  0  0  0  0  0999 V2000
  161.4570  207.6090  151.2200 C   0  0  1  0  0  3  0  0  0  0  0  0
  161.7030  210.1210  150.9310 C   0  0  0  0  0  0  0  0  0  0  0  0
  162.7060  206.8800  147.1380 C   0  0  0  0  0  2  0  0  0  0  0  0
  161.7950  206.1990  150.6640 C   0  0  1  0  0  3  0  0  0  0  0  0
  161.6780  207.6270  152.6620 N   0  0  0  0  0  2  0  0  0  0  0  0
  160.3800  204.3170  153.5110 O   0  0  0  0  0  0  0  0  0  0  0  0
  160.3110  203.4330  149.5430 C   0  0  1  0  0  3  0  0  0  0  0  0
  160.8310  205.2740  152.8220 C   0  0  0  0  0  0  0  0  0  0  0  0
  160.7760  204.1660  148.2730 C   0  0  2  0  0  3  0  0  0  0  0  0
  162.5360  205.3670  147.1440 C   0  0  1  0  0  3  0  0  0  0  0  0
  161.2830  206.5180  153.4790 C   0  0  0  0  0  0  0  0  0  0  0  0
  160.8290  205.1890  151.3100 C   0  0  2  0  0  3  0  0  0  0  0  0
  161.3140  211.0730  149.9320 N   0  0  0  0  0  0  0  0  0  0  0  0
  160.9590  203.0320  147.2930 C   0  0  0  0  0  2  0  0  0  0  0  0
  160.3160  202.0430  149.3280 O   0  0  0  0  0  0  0  0  0  0  0  0
  161.6430  210.4480  152.1450 O   0  0  0  0  0  0  0  0  0  0  0  0
  162.6710  207.2030  148.5990 C   0  0  2  0  0  3  0  0  0  0  0  0
  161.3840  210.8140  148.6630 C   0  0  0  0  0  3  0  0  0  0  0  0
  162.2350  208.7610  150.5400 C   0  0  2  0  0  3  0  0  0  0  0  0
  161.6840  206.2090  149.1280 C   0  0  1  0  0  3  0  0  0  0  0  0
  163.8760  204.7030  146.8900 C   0  0  0  0  0  1  0  0  0  0  0  0
  162.0190  204.9450  148.4630 N   0  0  1  0  0  0  0  0  0  0  0  0
  160.2360  201.8800  147.9390 C   0  0  0  0  0  2  0  0  0  0  0  0
  162.1620  203.1230  151.1440 C   0  0  0  0  0  2  0  0  0  0  0  0
  161.8630  209.5120  148.1790 C   0  0  0  0  0  3  0  0  0  0  0  0
  162.2600  208.5680  149.0380 C   0  0  0  0  0  0  0  0  0  0  0  0
  161.0600  203.7980  150.7950 C   0  0  0  0  0  0  0  0  0  0  0  0
  161.3530  206.5970  154.8070 C   0  0  0  0  0  3  0  0  0  0  0  0
  160.6210  208.5980  156.0240 C   0  0  0  0  0  1  0  0  0  0  0  0
  161.8190  207.8250  155.5130 C   0  0  0  0  0  2  0  0  0  0  0  0
  1  5  1  1  0  0  0
  2 16  2  0  0  0  0
  3 10  1  0  0  0  0
  3 17  1  0  0  0  0
  4  1  1  0  0  0  0
  4 12  1  0  0  0  0
  5 11  1  0  0  0  0
  7 27  1  0  0  0  0
  8 11  1  0  0  0  0
  8  6  2  0  0  0  0
  9 22  1  0  0  0  0
  9  7  1  0  0  0  0
 10 22  1  0  0  0  0
 11 28  2  0  0  0  0
 12  8  1  0  0  0  0
 13  2  1  0  0  0  0
 14 23  1  0  0  0  0
 14  9  1  0  0  0  0
 15  7  1  0  0  0  0
 17 26  1  0  0  0  0
 17 20  1  0  0  0  0
 18 13  2  0  0  0  0
 19  2  1  0  0  0  0
 19  1  1  0  0  0  0
 20  4  1  0  0  0  0
 21 10  1  0  0  0  0
 22 20  1  0  0  0  0
 23 15  1  0  0  0  0
 25 18  1  0  0  0  0
 25 26  2  0  0  0  0
 26 19  1  0  0  0  0
 27 24  2  0  0  0  0
 27 12  1  0  0  0  0
 28 30  1  0  0  0  0
 30 29  1  0  0  0  0
M  END
>  <MODEL>
6

>  <REMARK>
 VINA RESULT:      -4.1      3.685      8.735
  Name = 
  1 active torsions:
  status: ('A' for Active; 'I' for Inactive)
    1  A    between atoms: C_28  and  C_30
                            x       y       z     vdW  Elec       q    Type
                         _______ _______ _______ _____ _____    ______ ____

>  <TORSDO>
F 1

$$$$
=
 OpenBabel11122412323D

 30 35  0  0  1  0  0  0  0  0999 V2000
  159.3280  211.9690  153.9610 C   0  0  1  0  0  3  0  0  0  0  0  0
  160.2580  210.9220  156.0800 C   0  0  0  0  0  0  0  0  0  0  0  0
  162.4280  210.1550  151.5410 C   0  0  0  0  0  2  0  0  0  0  0  0
  159.3110  211.9620  152.4080 C   0  0  1  0  0  3  0  0  0  0  0  0
  157.9610  212.0670  154.4590 N   0  0  0  0  0  2  0  0  0  0  0  0
  156.6070  214.4520  152.0430 O   0  0  0  0  0  0  0  0  0  0  0  0
  159.9590  213.9340  149.8010 C   0  0  1  0  0  3  0  0  0  0  0  0
  157.3770  213.5980  152.5630 C   0  0  0  0  0  0  0  0  0  0  0  0
  161.1840  213.0090  149.9020 C   0  0  2  0  0  3  0  0  0  0  0  0
  162.0260  210.7710  150.2070 C   0  0  1  0  0  3  0  0  0  0  0  0
  157.0130  212.9430  153.8370 C   0  0  0  0  0  0  0  0  0  0  0  0
  158.7210  213.3020  151.9320 C   0  0  2  0  0  3  0  0  0  0  0  0
  161.5630  210.7820  156.6580 N   0  0  0  0  0  0  0  0  0  0  0  0
  161.6800  212.9720  148.4760 C   0  0  0  0  0  2  0  0  0  0  0  0
  159.7410  214.3030  148.4610 O   0  0  0  0  0  0  0  0  0  0  0  0
  159.2740  211.1390  156.8340 O   0  0  0  0  0  0  0  0  0  0  0  0
  161.2110  210.4030  152.3770 C   0  0  2  0  0  3  0  0  0  0  0  0
  162.6140  210.5230  155.9430 C   0  0  0  0  0  3  0  0  0  0  0  0
  160.0480  210.7540  154.5920 C   0  0  2  0  0  3  0  0  0  0  0  0
  160.7380  211.7330  151.8770 C   0  0  1  0  0  3  0  0  0  0  0  0
  161.6510  209.6710  149.2310 C   0  0  0  0  0  1  0  0  0  0  0  0
  160.8650  211.6610  150.4170 N   0  0  1  0  0  0  0  0  0  0  0  0
  160.9750  214.1300  147.8200 C   0  0  0  0  0  2  0  0  0  0  0  0
  157.8540  212.6510  149.7200 C   0  0  0  0  0  2  0  0  0  0  0  0
  162.5210  210.3680  154.4840 C   0  0  0  0  0  3  0  0  0  0  0  0
  161.3430  210.4680  153.8610 C   0  0  0  0  0  0  0  0  0  0  0  0
  158.7060  213.3970  150.4340 C   0  0  0  0  0  0  0  0  0  0  0  0
  155.8120  213.1380  154.3810 C   0  0  0  0  0  3  0  0  0  0  0  0
  155.3660  213.5170  156.7640 C   0  0  0  0  0  1  0  0  0  0  0  0
  155.3950  212.4860  155.6550 C   0  0  0  0  0  2  0  0  0  0  0  0
  1  5  1  1  0  0  0
  1 19  1  0  0  0  0
  2 13  1  0  0  0  0
  2 16  2  0  0  0  0
  3 17  1  0  0  0  0
  4  1  1  0  0  0  0
  6  8  2  0  0  0  0
  7  9  1  0  0  0  0
  7 27  1  0  0  0  0
  8 11  1  0  0  0  0
  9 22  1  0  0  0  0
 10 22  1  0  0  0  0
 10  3  1  0  0  0  0
 11 28  2  0  0  0  0
 11  5  1  0  0  0  0
 12  4  1  0  0  0  0
 12  8  1  0  0  0  0
 14  9  1  0  0  0  0
 15  7  1  0  0  0  0
 17 26  1  0  0  0  0
 18 13  2  0  0  0  0
 19  2  1  0  0  0  0
 20 17  1  0  0  0  0
 20  4  1  0  0  0  0
 21 10  1  0  0  0  0
 22 20  1  0  0  0  0
 23 15  1  0  0  0  0
 23 14  1  0  0  0  0
 24 27  2  0  0  0  0
 25 18  1  0  0  0  0
 26 25  2  0  0  0  0
 26 19  1  0  0  0  0
 27 12  1  0  0  0  0
 28 30  1  0  0  0  0
 30 29  1  0  0  0  0
M  END
>  <MODEL>
7

>  <REMARK>
 VINA RESULT:      -3.5      2.027      5.922
  Name = 
  1 active torsions:
  status: ('A' for Active; 'I' for Inactive)
    1  A    between atoms: C_28  and  C_30
                            x       y       z     vdW  Elec       q    Type
                         _______ _______ _______ _____ _____    ______ ____

>  <TORSDO>
F 1

$$$$
