=
 OpenBabel11122412313D

 30 35  0  0  1  0  0  0  0  0999 V2000
  161.1860  206.3050  150.3490 C   0  0  0  0  0  0  0  0  0  0  0  0
  161.0700  203.7440  150.2770 C   0  0  0  0  0  0  0  0  0  0  0  0
  160.6480  206.3280  154.5150 N   0  0  0  0  0  2  0  0  0  0  0  0
  161.1990  207.5160  151.0970 C   0  0  0  0  0  0  0  0  0  0  0  0
  161.2330  206.3930  148.8490 C   0  0  0  0  0  2  0  0  0  0  0  0
  162.0730  209.8260  148.4060 O   0  0  0  0  0  0  0  0  0  0  0  0
  160.4610  210.3890  151.9960 C   0  0  1  0  0  3  0  0  0  0  0  0
  161.9110  208.7480  149.0420 C   0  0  0  0  0  0  0  0  0  0  0  0
  160.5210  209.7330  153.3150 C   0  0  0  0  0  0  0  0  0  0  0  0
  160.6460  207.7480  154.8510 C   0  0  1  0  0  3  0  0  0  0  0  0
  162.2260  207.4420  148.3800 C   0  0  2  0  0  3  0  0  0  0  0  0
  161.5100  208.7710  150.4260 N   0  0  0  0  0  0  0  0  0  0  0  0
  161.1140  202.4890  151.0350 C   0  0  0  0  0  3  0  0  0  0  0  0
  160.2650  210.7130  154.3670 C   0  0  0  0  0  2  0  0  0  0  0  0
  160.4020  211.7760  152.2250 O   0  0  0  0  0  0  0  0  0  0  0  0
  161.0970  203.6840  149.0200 O   0  0  0  0  0  0  0  0  0  0  0  0
  160.8460  206.2060  153.1110 C   0  0  0  0  0  0  0  0  0  0  0  0
  160.9630  202.4750  152.3570 C   0  0  0  0  0  3  0  0  0  0  0  0
  161.0350  205.0440  151.0030 C   0  0  0  0  0  0  0  0  0  0  0  0
  160.9620  207.4200  152.4850 C   0  0  0  0  0  0  0  0  0  0  0  0
  161.8600  208.0610  155.7100 C   0  0  0  0  0  1  0  0  0  0  0  0
  160.7610  208.4360  153.5190 C   0  0  0  0  0  0  0  0  0  0  0  0
  159.9590  211.9550  153.5550 C   0  0  0  0  0  2  0  0  0  0  0  0
  163.0150  210.1560  151.8200 C   0  0  0  0  0  1  0  0  0  0  0  0
  160.6650  203.7130  153.1570 C   0  0  0  0  0  2  0  0  0  0  0  0
  160.8900  205.0040  152.4100 C   0  0  0  0  0  0  0  0  0  0  0  0
  161.6630  210.0520  151.1210 C   0  0  2  0  0  3  0  0  0  0  0  0
  162.1620  207.5700  146.9670 O   0  0  0  0  0  0  0  0  0  0  0  0
  162.4850  205.6210  145.6940 C   0  0  0  0  0  2  0  0  0  0  0  0
  161.6630  206.5370  146.1820 C   0  0  0  0  0  3  0  0  0  0  0  0
  1 19  2  0  0  0  0
  1  4  1  0  0  0  0
  2 19  1  0  0  0  0
  2 13  1  0  0  0  0
  3 10  1  0  0  0  0
  4 20  2  0  0  0  0
  5  1  1  0  0  0  0
  6  8  2  0  0  0  0
  7 15  1  1  0  0  0
  7  9  1  0  0  0  0
  8 12  1  0  0  0  0
  9 22  2  0  0  0  0
  9 14  1  0  0  0  0
 10 21  1  1  0  0  0
 11 28  1  6  0  0  0
 11  5  1  0  0  0  0
 11  8  1  0  0  0  0
 12  4  1  0  0  0  0
 12 27  1  0  0  0  0
 13 18  2  0  0  0  0
 15 23  1  0  0  0  0
 16  2  2  0  0  0  0
 17  3  1  0  0  0  0
 18 25  1  0  0  0  0
 19 26  1  0  0  0  0
 20 17  1  0  0  0  0
 20 22  1  0  0  0  0
 22 10  1  0  0  0  0
 23 14  1  0  0  0  0
 26 17  2  0  0  0  0
 26 25  1  0  0  0  0
 27 24  1  1  0  0  0
 27  7  1  0  0  0  0
 29 30  2  0  0  0  0
 30 28  1  0  0  0  0
M  END
>  <MODEL>
1

>  <REMARK>
 VINA RESULT:      -7.6      0.000      0.000
  Name = 
  2 active torsions:
  status: ('A' for Active; 'I' for Inactive)
    1  A    between atoms: C_11  and  O_28
    2  A    between atoms: O_28  and  C_30
                            x       y       z     vdW  Elec       q    Type
                         _______ _______ _______ _____ _____    ______ ____

>  <TORSDO>
F 2

$$$$
=
 OpenBabel11122412313D

 30 35  0  0  1  0  0  0  0  0999 V2000
  161.2330  207.7770  151.4220 C   0  0  0  0  0  0  0  0  0  0  0  0
  161.5470  210.2820  150.9680 C   0  0  0  0  0  0  0  0  0  0  0  0
  161.9130  206.8400  147.3850 N   0  0  0  0  0  2  0  0  0  0  0  0
  161.2490  206.4300  150.9620 C   0  0  0  0  0  0  0  0  0  0  0  0
  160.8320  208.0370  152.8480 C   0  0  0  0  0  2  0  0  0  0  0  0
  160.9020  204.7330  154.1770 O   0  0  0  0  0  0  0  0  0  0  0  0
  160.3120  203.5230  150.4360 C   0  0  1  0  0  3  0  0  0  0  0  0
  161.1180  205.6440  153.3300 C   0  0  0  0  0  0  0  0  0  0  0  0
  160.8600  203.8430  149.1060 C   0  0  0  0  0  0  0  0  0  0  0  0
  161.7620  205.3890  147.3410 C   0  0  1  0  0  3  0  0  0  0  0  0
  161.4520  207.0270  153.7970 C   0  0  2  0  0  3  0  0  0  0  0  0
  161.1330  205.3410  151.9220 N   0  0  0  0  0  0  0  0  0  0  0  0
  162.0230  211.3120  150.0390 C   0  0  0  0  0  3  0  0  0  0  0  0
  160.7500  202.6770  148.2320 C   0  0  0  0  0  2  0  0  0  0  0  0
  160.0820  202.1350  150.4680 O   0  0  0  0  0  0  0  0  0  0  0  0
  161.2230  210.6300  152.1330 O   0  0  0  0  0  0  0  0  0  0  0  0
  161.7200  207.2640  148.7300 C   0  0  0  0  0  0  0  0  0  0  0  0
  162.2610  211.0330  148.7600 C   0  0  0  0  0  3  0  0  0  0  0  0
  161.4970  208.8590  150.5280 C   0  0  0  0  0  0  0  0  0  0  0  0
  161.4390  206.2250  149.5790 C   0  0  0  0  0  0  0  0  0  0  0  0
  163.0970  204.7560  146.9870 C   0  0  0  0  0  1  0  0  0  0  0  0
  161.3700  205.0230  148.7460 C   0  0  0  0  0  0  0  0  0  0  0  0
  160.0140  201.6990  149.1250 C   0  0  0  0  0  2  0  0  0  0  0  0
  162.7090  203.5160  151.3650 C   0  0  0  0  0  1  0  0  0  0  0  0
  161.9950  209.6820  148.1570 C   0  0  0  0  0  2  0  0  0  0  0  0
  161.7690  208.5840  149.1670 C   0  0  0  0  0  0  0  0  0  0  0  0
  161.2530  203.9240  151.5670 C   0  0  2  0  0  3  0  0  0  0  0  0
  160.9660  207.2400  155.1150 O   0  0  0  0  0  0  0  0  0  0  0  0
  161.9560  208.7190  156.6500 C   0  0  0  0  0  2  0  0  0  0  0  0
  161.0520  208.4940  155.7090 C   0  0  0  0  0  3  0  0  0  0  0  0
  1  5  1  0  0  0  0
  2 16  2  0  0  0  0
  3 17  1  0  0  0  0
  4  1  1  0  0  0  0
  4 12  1  0  0  0  0
  5 11  1  0  0  0  0
  7  9  1  6  0  0  0
  7 15  1  0  0  0  0
  7 27  1  0  0  0  0
  8 11  1  0  0  0  0
  8  6  2  0  0  0  0
 10 21  1  1  0  0  0
 10  3  1  0  0  0  0
 10 22  1  0  0  0  0
 11 28  1  1  0  0  0
 12  8  1  0  0  0  0
 13  2  1  0  0  0  0
 14  9  1  0  0  0  0
 14 23  1  0  0  0  0
 17 26  2  0  0  0  0
 17 20  1  0  0  0  0
 18 13  2  0  0  0  0
 19  2  1  0  0  0  0
 19  1  2  0  0  0  0
 20  4  2  0  0  0  0
 22  9  2  0  0  0  0
 22 20  1  0  0  0  0
 23 15  1  0  0  0  0
 25 18  1  0  0  0  0
 25 26  1  0  0  0  0
 26 19  1  0  0  0  0
 27 24  1  6  0  0  0
 27 12  1  0  0  0  0
 28 30  1  0  0  0  0
 30 29  2  0  0  0  0
M  END
>  <MODEL>
2

>  <REMARK>
 VINA RESULT:      -7.1      2.089      7.299
  Name = 
  2 active torsions:
  status: ('A' for Active; 'I' for Inactive)
    1  A    between atoms: C_11  and  O_28
    2  A    between atoms: O_28  and  C_30
                            x       y       z     vdW  Elec       q    Type
                         _______ _______ _______ _____ _____    ______ ____

>  <TORSDO>
F 2

$$$$
=
 OpenBabel11122412313D

 30 35  0  0  1  0  0  0  0  0999 V2000
  161.6730  208.3590  151.4020 C   0  0  0  0  0  0  0  0  0  0  0  0
  161.3980  208.7760  153.9180 C   0  0  0  0  0  0  0  0  0  0  0  0
  160.9270  204.2540  151.8820 N   0  0  0  0  0  2  0  0  0  0  0  0
  161.6270  207.4740  150.2880 C   0  0  0  0  0  0  0  0  0  0  0  0
  162.0960  209.7820  151.1640 C   0  0  0  0  0  2  0  0  0  0  0  0
  161.9830  209.9280  147.6060 O   0  0  0  0  0  0  0  0  0  0  0  0
  162.5050  205.9880  147.7130 C   0  0  1  0  0  3  0  0  0  0  0  0
  161.7730  209.4390  148.7510 C   0  0  0  0  0  0  0  0  0  0  0  0
  161.9470  204.8520  148.4680 C   0  0  0  0  0  0  0  0  0  0  0  0
  161.0510  203.7230  150.5270 C   0  0  1  0  0  3  0  0  0  0  0  0
  161.4690  210.3480  149.9020 C   0  0  2  0  0  3  0  0  0  0  0  0
  161.7360  208.0110  148.9390 N   0  0  0  0  0  0  0  0  0  0  0  0
  160.9290  208.2540  155.2060 C   0  0  0  0  0  3  0  0  0  0  0  0
  162.0250  203.6360  147.6610 C   0  0  0  0  0  2  0  0  0  0  0  0
  162.7110  205.5490  146.3920 O   0  0  0  0  0  0  0  0  0  0  0  0
  161.7430  209.9840  153.8510 O   0  0  0  0  0  0  0  0  0  0  0  0
  161.1440  205.6590  151.8280 C   0  0  0  0  0  0  0  0  0  0  0  0
  160.6710  206.9600  155.3750 C   0  0  0  0  0  3  0  0  0  0  0  0
  161.4180  207.8840  152.7240 C   0  0  0  0  0  0  0  0  0  0  0  0
  161.4160  206.1050  150.5610 C   0  0  0  0  0  0  0  0  0  0  0  0
  159.7010  203.2010  150.0670 C   0  0  0  0  0  1  0  0  0  0  0  0
  161.4540  204.9170  149.7060 C   0  0  0  0  0  0  0  0  0  0  0  0
  162.7550  204.1370  146.4310 C   0  0  0  0  0  2  0  0  0  0  0  0
  160.1200  206.9030  147.4260 C   0  0  0  0  0  1  0  0  0  0  0  0
  160.9050  205.9350  154.3010 C   0  0  0  0  0  2  0  0  0  0  0  0
  161.1240  206.5140  152.9260 C   0  0  0  0  0  0  0  0  0  0  0  0
  161.5860  207.2040  147.7240 C   0  0  2  0  0  3  0  0  0  0  0  0
  161.9760  211.6530  149.6550 O   0  0  0  0  0  0  0  0  0  0  0  0
  161.5370  213.4810  148.2440 C   0  0  0  0  0  2  0  0  0  0  0  0
  161.1370  212.6680  149.2090 C   0  0  0  0  0  3  0  0  0  0  0  0
  1 19  1  0  0  0  0
  2 13  1  0  0  0  0
  4 20  1  0  0  0  0
  4  1  2  0  0  0  0
  5  1  1  0  0  0  0
  6  8  2  0  0  0  0
  7 15  1  6  0  0  0
  7 27  1  0  0  0  0
  7  9  1  0  0  0  0
  8 12  1  0  0  0  0
  8 11  1  0  0  0  0
  9 22  2  0  0  0  0
 10 21  1  6  0  0  0
 10  3  1  0  0  0  0
 11 28  1  6  0  0  0
 11  5  1  0  0  0  0
 12  4  1  0  0  0  0
 13 18  2  0  0  0  0
 14  9  1  0  0  0  0
 15 23  1  0  0  0  0
 16  2  2  0  0  0  0
 17  3  1  0  0  0  0
 17 26  1  0  0  0  0
 19 26  2  0  0  0  0
 19  2  1  0  0  0  0
 20 17  2  0  0  0  0
 22 10  1  0  0  0  0
 22 20  1  0  0  0  0
 23 14  1  0  0  0  0
 25 18  1  0  0  0  0
 26 25  1  0  0  0  0
 27 24  1  1  0  0  0
 27 12  1  0  0  0  0
 29 30  2  0  0  0  0
 30 28  1  0  0  0  0
M  END
>  <MODEL>
3

>  <REMARK>
 VINA RESULT:      -6.1      1.800      5.682
  Name = 
  2 active torsions:
  status: ('A' for Active; 'I' for Inactive)
    1  A    between atoms: C_11  and  O_28
    2  A    between atoms: O_28  and  C_30
                            x       y       z     vdW  Elec       q    Type
                         _______ _______ _______ _____ _____    ______ ____

>  <TORSDO>
F 2

$$$$
=
 OpenBabel11122412313D

 30 35  0  0  1  0  0  0  0  0999 V2000
  161.1630  207.5250  151.1710 C   0  0  0  0  0  0  0  0  0  0  0  0
  161.3710  205.1900  150.1310 C   0  0  0  0  0  0  0  0  0  0  0  0
  160.6030  205.8970  155.0020 N   0  0  0  0  0  2  0  0  0  0  0  0
  161.0190  208.3530  152.3200 C   0  0  0  0  0  0  0  0  0  0  0  0
  161.2060  208.1830  149.8200 C   0  0  0  0  0  2  0  0  0  0  0  0
  161.6100  211.5980  150.7510 O   0  0  0  0  0  0  0  0  0  0  0  0
  159.9200  210.5620  154.1970 C   0  0  1  0  0  3  0  0  0  0  0  0
  161.5820  210.3480  150.9230 C   0  0  0  0  0  0  0  0  0  0  0  0
  160.0550  209.4640  155.1710 C   0  0  0  0  0  0  0  0  0  0  0  0
  160.4220  207.0720  155.8490 C   0  0  1  0  0  3  0  0  0  0  0  0
  162.0620  209.4380  149.8350 C   0  0  2  0  0  3  0  0  0  0  0  0
  161.1740  209.7960  152.1900 N   0  0  0  0  0  0  0  0  0  0  0  0
  161.5680  203.7550  150.3610 C   0  0  0  0  0  3  0  0  0  0  0  0
  159.6730  209.9330  156.5010 C   0  0  0  0  0  2  0  0  0  0  0  0
  159.6870  211.7410  154.9290 O   0  0  0  0  0  0  0  0  0  0  0  0
  161.4110  205.6170  148.9480 O   0  0  0  0  0  0  0  0  0  0  0  0
  160.8230  206.3430  153.6690 C   0  0  0  0  0  0  0  0  0  0  0  0
  161.4120  203.2210  151.5700 C   0  0  0  0  0  3  0  0  0  0  0  0
  161.1680  206.1020  151.2920 C   0  0  0  0  0  0  0  0  0  0  0  0
  160.7890  207.7090  153.5540 C   0  0  0  0  0  0  0  0  0  0  0  0
  161.5810  207.1700  156.8260 C   0  0  0  0  0  1  0  0  0  0  0  0
  160.4560  208.2240  154.8830 C   0  0  0  0  0  0  0  0  0  0  0  0
  159.2170  211.3470  156.2020 C   0  0  0  0  0  2  0  0  0  0  0  0
  162.4840  210.7080  154.0820 C   0  0  0  0  0  1  0  0  0  0  0  0
  160.9570  204.0180  152.7610 C   0  0  0  0  0  2  0  0  0  0  0  0
  161.0220  205.5130  152.5700 C   0  0  0  0  0  0  0  0  0  0  0  0
  161.1600  210.7240  153.3240 C   0  0  2  0  0  3  0  0  0  0  0  0
  161.9900  210.0870  148.5730 O   0  0  0  0  0  0  0  0  0  0  0  0
  162.1840  212.2040  147.5710 C   0  0  0  0  0  2  0  0  0  0  0  0
  162.7040  211.2550  148.3340 C   0  0  0  0  0  3  0  0  0  0  0  0
  1 19  2  0  0  0  0
  1  4  1  0  0  0  0
  2 13  1  0  0  0  0
  2 19  1  0  0  0  0
  3 10  1  0  0  0  0
  4 20  2  0  0  0  0
  5 11  1  0  0  0  0
  5  1  1  0  0  0  0
  6  8  2  0  0  0  0
  7 15  1  1  0  0  0
  7  9  1  0  0  0  0
  8 12  1  0  0  0  0
  9 14  1  0  0  0  0
 10 21  1  1  0  0  0
 11 28  1  6  0  0  0
 11  8  1  0  0  0  0
 12  4  1  0  0  0  0
 12 27  1  0  0  0  0
 13 18  2  0  0  0  0
 15 23  1  0  0  0  0
 16  2  2  0  0  0  0
 17  3  1  0  0  0  0
 18 25  1  0  0  0  0
 19 26  1  0  0  0  0
 20 17  1  0  0  0  0
 20 22  1  0  0  0  0
 22  9  2  0  0  0  0
 22 10  1  0  0  0  0
 23 14  1  0  0  0  0
 26 25  1  0  0  0  0
 26 17  2  0  0  0  0
 27 24  1  1  0  0  0
 27  7  1  0  0  0  0
 29 30  2  0  0  0  0
 30 28  1  0  0  0  0
M  END
>  <MODEL>
4

>  <REMARK>
 VINA RESULT:      -5.8      1.676      2.439
  Name = 
  2 active torsions:
  status: ('A' for Active; 'I' for Inactive)
    1  A    between atoms: C_11  and  O_28
    2  A    between atoms: O_28  and  C_30
                            x       y       z     vdW  Elec       q    Type
                         _______ _______ _______ _____ _____    ______ ____

>  <TORSDO>
F 2

$$$$
=
 OpenBabel11122412313D

 30 35  0  0  1  0  0  0  0  0999 V2000
  161.2850  210.8260  150.7800 C   0  0  0  0  0  0  0  0  0  0  0  0
  160.8290  212.4860  148.8800 C   0  0  0  0  0  0  0  0  0  0  0  0
  159.3620  213.3100  153.5690 N   0  0  0  0  0  2  0  0  0  0  0  0
  161.1300  210.4400  152.1420 C   0  0  0  0  0  0  0  0  0  0  0  0
  162.1160  209.9530  149.8820 C   0  0  0  0  0  2  0  0  0  0  0  0
  162.4900  207.0570  151.9230 O   0  0  0  0  0  0  0  0  0  0  0  0
  161.8670  209.4960  155.0010 C   0  0  1  0  0  3  0  0  0  0  0  0
  162.0110  208.1710  151.5730 C   0  0  0  0  0  0  0  0  0  0  0  0
  160.9230  210.5760  155.3400 C   0  0  0  0  0  0  0  0  0  0  0  0
  159.4990  212.5820  154.8260 C   0  0  1  0  0  3  0  0  0  0  0  0
  161.8350  208.4790  150.1180 C   0  0  2  0  0  3  0  0  0  0  0  0
  161.5510  209.1110  152.5640 N   0  0  0  0  0  0  0  0  0  0  0  0
  160.0770  213.6620  148.4280 C   0  0  0  0  0  3  0  0  0  0  0  0
  160.7560  210.6490  156.7900 C   0  0  0  0  0  2  0  0  0  0  0  0
  162.1030  208.7640  156.1800 O   0  0  0  0  0  0  0  0  0  0  0  0
  161.5040  211.8470  148.0320 O   0  0  0  0  0  0  0  0  0  0  0  0
  159.9700  212.5360  152.5410 C   0  0  0  0  0  0  0  0  0  0  0  0
  159.4470  214.4530  149.2930 C   0  0  0  0  0  3  0  0  0  0  0  0
  160.7450  212.0600  150.3040 C   0  0  0  0  0  0  0  0  0  0  0  0
  160.5110  211.3660  153.0080 C   0  0  0  0  0  0  0  0  0  0  0  0
  158.1240  212.1540  155.3110 C   0  0  0  0  0  1  0  0  0  0  0  0
  160.3190  211.3760  154.4590 C   0  0  0  0  0  0  0  0  0  0  0  0
  161.7440  209.6000  157.2600 C   0  0  0  0  0  2  0  0  0  0  0  0
  159.8900  208.1180  154.1060 C   0  0  0  0  0  1  0  0  0  0  0  0
  159.5140  214.2520  150.7810 C   0  0  0  0  0  2  0  0  0  0  0  0
  160.0550  212.9080  151.2030 C   0  0  0  0  0  0  0  0  0  0  0  0
  161.3320  208.5740  153.9100 C   0  0  2  0  0  3  0  0  0  0  0  0
  162.7140  207.6880  149.3300 O   0  0  0  0  0  0  0  0  0  0  0  0
  161.0220  206.5870  148.1270 C   0  0  0  0  0  2  0  0  0  0  0  0
  162.2600  207.0530  148.1800 C   0  0  0  0  0  3  0  0  0  0  0  0
  1  4  1  0  0  0  0
  2 19  1  0  0  0  0
  3 10  1  0  0  0  0
  4 12  1  0  0  0  0
  4 20  2  0  0  0  0
  5 11  1  0  0  0  0
  5  1  1  0  0  0  0
  7  9  1  1  0  0  0
  7 15  1  0  0  0  0
  8  6  2  0  0  0  0
  8 12  1  0  0  0  0
  9 14  1  0  0  0  0
 10 21  1  6  0  0  0
 11 28  1  6  0  0  0
 11  8  1  0  0  0  0
 12 27  1  0  0  0  0
 13  2  1  0  0  0  0
 13 18  2  0  0  0  0
 14 23  1  0  0  0  0
 15 23  1  0  0  0  0
 16  2  2  0  0  0  0
 17 20  1  0  0  0  0
 17  3  1  0  0  0  0
 18 25  1  0  0  0  0
 19  1  2  0  0  0  0
 19 26  1  0  0  0  0
 20 22  1  0  0  0  0
 22 10  1  0  0  0  0
 22  9  2  0  0  0  0
 25 26  1  0  0  0  0
 26 17  2  0  0  0  0
 27 24  1  1  0  0  0
 27  7  1  0  0  0  0
 29 30  2  0  0  0  0
 30 28  1  0  0  0  0
M  END
>  <MODEL>
5

>  <REMARK>
 VINA RESULT:      -5.3      2.725      5.896
  Name = 
  2 active torsions:
  status: ('A' for Active; 'I' for Inactive)
    1  A    between atoms: C_11  and  O_28
    2  A    between atoms: O_28  and  C_30
                            x       y       z     vdW  Elec       q    Type
                         _______ _______ _______ _____ _____    ______ ____

>  <TORSDO>
F 2

$$$$
=
 OpenBabel11122412313D

 30 35  0  0  1  0  0  0  0  0999 V2000
  161.1490  210.8800  151.2590 C   0  0  0  0  0  0  0  0  0  0  0  0
  161.6170  211.3900  148.7900 C   0  0  0  0  0  0  0  0  0  0  0  0
  158.9860  214.4530  151.7070 N   0  0  0  0  0  2  0  0  0  0  0  0
  160.5190  211.2220  152.4890 C   0  0  0  0  0  0  0  0  0  0  0  0
  162.0290  209.6620  151.2240 C   0  0  0  0  0  2  0  0  0  0  0  0
  161.2050  208.1500  154.3430 O   0  0  0  0  0  0  0  0  0  0  0  0
  160.1600  211.8040  155.5130 C   0  0  1  0  0  3  0  0  0  0  0  0
  161.0770  208.9540  153.3770 C   0  0  0  0  0  0  0  0  0  0  0  0
  159.3830  212.9270  154.9580 C   0  0  0  0  0  0  0  0  0  0  0  0
  158.5940  214.4410  153.1130 C   0  0  1  0  0  3  0  0  0  0  0  0
  161.4130  208.5040  151.9890 C   0  0  2  0  0  3  0  0  0  0  0  0
  160.5290  210.2690  153.5910 N   0  0  0  0  0  0  0  0  0  0  0  0
  161.2780  212.2010  147.6160 C   0  0  0  0  0  3  0  0  0  0  0  0
  158.8030  213.7120  156.0450 C   0  0  0  0  0  2  0  0  0  0  0  0
  159.8830  211.7480  156.8910 O   0  0  0  0  0  0  0  0  0  0  0  0
  162.3820  210.4020  148.6330 O   0  0  0  0  0  0  0  0  0  0  0  0
  159.7170  213.2610  151.4410 C   0  0  0  0  0  0  0  0  0  0  0  0
  160.5790  213.3270  147.7330 C   0  0  0  0  0  3  0  0  0  0  0  0
  161.0260  211.7260  150.1150 C   0  0  0  0  0  0  0  0  0  0  0  0
  159.8560  212.4660  152.5500 C   0  0  0  0  0  0  0  0  0  0  0  0
  157.0820  214.3340  153.2110 C   0  0  0  0  0  1  0  0  0  0  0  0
  159.2400  213.1970  153.6590 C   0  0  0  0  0  0  0  0  0  0  0  0
  159.3810  213.0160  157.2610 C   0  0  0  0  0  2  0  0  0  0  0  0
  158.3200  210.2000  154.7060 C   0  0  0  0  0  1  0  0  0  0  0  0
  160.1530  213.8890  149.0610 C   0  0  0  0  0  2  0  0  0  0  0  0
  160.2730  212.9200  150.2120 C   0  0  0  0  0  0  0  0  0  0  0  0
  159.8140  210.4730  154.8530 C   0  0  2  0  0  3  0  0  0  0  0  0
  162.3200  207.4110  152.0240 O   0  0  0  0  0  0  0  0  0  0  0  0
  161.1290  205.9800  150.5900 C   0  0  0  0  0  2  0  0  0  0  0  0
  161.9120  206.1370  151.6460 C   0  0  0  0  0  3  0  0  0  0  0  0
  1  4  1  0  0  0  0
  2 19  1  0  0  0  0
  3 10  1  0  0  0  0
  4 20  2  0  0  0  0
  4 12  1  0  0  0  0
  5  1  1  0  0  0  0
  5 11  1  0  0  0  0
  7  9  1  6  0  0  0
  7 15  1  0  0  0  0
  8 12  1  0  0  0  0
  8  6  2  0  0  0  0
  9 14  1  0  0  0  0
 10 21  1  6  0  0  0
 10 22  1  0  0  0  0
 11 28  1  1  0  0  0
 11  8  1  0  0  0  0
 12 27  1  0  0  0  0
 13 18  2  0  0  0  0
 13  2  1  0  0  0  0
 14 23  1  0  0  0  0
 15 23  1  0  0  0  0
 16  2  2  0  0  0  0
 17  3  1  0  0  0  0
 17 20  1  0  0  0  0
 18 25  1  0  0  0  0
 19 26  1  0  0  0  0
 19  1  2  0  0  0  0
 20 22  1  0  0  0  0
 22  9  2  0  0  0  0
 25 26  1  0  0  0  0
 26 17  2  0  0  0  0
 27 24  1  6  0  0  0
 27  7  1  0  0  0  0
 29 30  2  0  0  0  0
 30 28  1  0  0  0  0
M  END
>  <MODEL>
6

>  <REMARK>
 VINA RESULT:      -5.2      2.983      6.430
  Name = 
  2 active torsions:
  status: ('A' for Active; 'I' for Inactive)
    1  A    between atoms: C_11  and  O_28
    2  A    between atoms: O_28  and  C_30
                            x       y       z     vdW  Elec       q    Type
                         _______ _______ _______ _____ _____    ______ ____

>  <TORSDO>
F 2

$$$$
=
 OpenBabel11122412313D

 30 35  0  0  1  0  0  0  0  0999 V2000
  160.9550  209.2280  151.6410 C   0  0  0  0  0  0  0  0  0  0  0  0
  161.0760  211.6690  150.8650 C   0  0  0  0  0  0  0  0  0  0  0  0
  162.0100  207.8390  147.8200 N   0  0  0  0  0  2  0  0  0  0  0  0
  161.1250  207.8410  151.3720 C   0  0  0  0  0  0  0  0  0  0  0  0
  160.4290  209.6330  152.9900 C   0  0  0  0  0  2  0  0  0  0  0  0
  160.6980  206.5550  154.7650 O   0  0  0  0  0  0  0  0  0  0  0  0
  160.4940  204.8110  151.1980 C   0  0  1  0  0  3  0  0  0  0  0  0
  160.8930  207.3640  153.8140 C   0  0  0  0  0  0  0  0  0  0  0  0
  161.1060  205.0050  149.8710 C   0  0  0  0  0  0  0  0  0  0  0  0
  161.9930  206.3870  147.9680 C   0  0  1  0  0  3  0  0  0  0  0  0
  161.0660  208.8220  154.1050 C   0  0  2  0  0  3  0  0  0  0  0  0
  161.0370  206.8810  152.4650 N   0  0  0  0  0  0  0  0  0  0  0  0
  161.5240  212.6100  149.8330 C   0  0  0  0  0  3  0  0  0  0  0  0
  161.1660  203.7290  149.1620 C   0  0  0  0  0  2  0  0  0  0  0  0
  160.3870  203.4230  151.4070 O   0  0  0  0  0  0  0  0  0  0  0  0
  160.6380  212.1350  151.9490 O   0  0  0  0  0  0  0  0  0  0  0  0
  161.6820  208.4150  149.0790 C   0  0  0  0  0  0  0  0  0  0  0  0
  161.8790  212.1900  148.6210 C   0  0  0  0  0  3  0  0  0  0  0  0
  161.1850  210.2030  150.6230 C   0  0  0  0  0  0  0  0  0  0  0  0
  161.4340  207.4740  150.0450 C   0  0  0  0  0  0  0  0  0  0  0  0
  163.4020  205.8480  147.7860 C   0  0  0  0  0  1  0  0  0  0  0  0
  161.5340  206.1720  149.3840 C   0  0  0  0  0  0  0  0  0  0  0  0
  160.4560  202.8100  150.1360 C   0  0  0  0  0  2  0  0  0  0  0  0
  162.8070  205.1630  152.2620 C   0  0  0  0  0  1  0  0  0  0  0  0
  161.7800  210.7520  148.1950 C   0  0  0  0  0  2  0  0  0  0  0  0
  161.5800  209.7800  149.3320 C   0  0  0  0  0  0  0  0  0  0  0  0
  161.3100  205.4490  152.3170 C   0  0  2  0  0  3  0  0  0  0  0  0
  160.4680  209.1590  155.3490 O   0  0  0  0  0  0  0  0  0  0  0  0
  162.3300  209.2940  156.7760 C   0  0  0  0  0  2  0  0  0  0  0  0
  161.1970  209.8150  156.3340 C   0  0  0  0  0  3  0  0  0  0  0  0
  1  5  1  0  0  0  0
  2 16  2  0  0  0  0
  3 10  1  0  0  0  0
  3 17  1  0  0  0  0
  4  1  1  0  0  0  0
  4 12  1  0  0  0  0
  5 11  1  0  0  0  0
  7  9  1  6  0  0  0
  7 15  1  0  0  0  0
  7 27  1  0  0  0  0
  8 11  1  0  0  0  0
  8  6  2  0  0  0  0
 10 21  1  1  0  0  0
 10 22  1  0  0  0  0
 11 28  1  1  0  0  0
 12  8  1  0  0  0  0
 13  2  1  0  0  0  0
 14  9  1  0  0  0  0
 14 23  1  0  0  0  0
 17 26  2  0  0  0  0
 17 20  1  0  0  0  0
 18 13  2  0  0  0  0
 19  2  1  0  0  0  0
 19  1  2  0  0  0  0
 20  4  2  0  0  0  0
 22  9  2  0  0  0  0
 22 20  1  0  0  0  0
 23 15  1  0  0  0  0
 25 18  1  0  0  0  0
 25 26  1  0  0  0  0
 26 19  1  0  0  0  0
 27 24  1  6  0  0  0
 27 12  1  0  0  0  0
 28 30  1  0  0  0  0
 30 29  2  0  0  0  0
M  END
>  <MODEL>
7

>  <REMARK>
 VINA RESULT:      -5.2      2.060      7.204
  Name = 
  2 active torsions:
  status: ('A' for Active; 'I' for Inactive)
    1  A    between atoms: C_11  and  O_28
    2  A    between atoms: O_28  and  C_30
                            x       y       z     vdW  Elec       q    Type
                         _______ _______ _______ _____ _____    ______ ____

>  <TORSDO>
F 2

$$$$
=
 OpenBabel11122412313D

 30 35  0  0  1  0  0  0  0  0999 V2000
  161.0240  204.8850  149.0430 C   0  0  0  0  0  0  0  0  0  0  0  0
  160.8300  202.3590  148.6440 C   0  0  0  0  0  0  0  0  0  0  0  0
  160.8330  204.3600  153.2060 N   0  0  0  0  0  2  0  0  0  0  0  0
  161.1340  205.9850  149.9400 C   0  0  0  0  0  0  0  0  0  0  0  0
  160.9490  205.1730  147.5690 C   0  0  0  0  0  2  0  0  0  0  0  0
  161.8480  208.6190  147.5120 O   0  0  0  0  0  0  0  0  0  0  0  0
  160.5550  208.7250  151.2700 C   0  0  1  0  0  3  0  0  0  0  0  0
  161.7080  207.4680  148.0120 C   0  0  0  0  0  0  0  0  0  0  0  0
  160.7050  207.8970  152.4800 C   0  0  0  0  0  0  0  0  0  0  0  0
  160.9000  205.7220  153.7260 C   0  0  1  0  0  3  0  0  0  0  0  0
  161.9300  206.2570  147.1600 C   0  0  2  0  0  3  0  0  0  0  0  0
  161.4240  207.3130  149.4160 N   0  0  0  0  0  0  0  0  0  0  0  0
  160.9000  201.0140  149.2240 C   0  0  0  0  0  3  0  0  0  0  0  0
  160.5650  208.7320  153.6710 C   0  0  0  0  0  2  0  0  0  0  0  0
  160.5550  210.0700  151.6840 O   0  0  0  0  0  0  0  0  0  0  0  0
  160.7510  202.4680  147.3920 O   0  0  0  0  0  0  0  0  0  0  0  0
  160.9110  204.4240  151.7860 C   0  0  0  0  0  0  0  0  0  0  0  0
  160.8580  200.8260  150.5400 C   0  0  0  0  0  3  0  0  0  0  0  0
  160.8920  203.5510  149.5350 C   0  0  0  0  0  0  0  0  0  0  0  0
  161.0090  205.7080  151.3180 C   0  0  0  0  0  0  0  0  0  0  0  0
  162.1880  205.8960  154.5110 C   0  0  0  0  0  1  0  0  0  0  0  0
  160.9240  206.5800  152.4910 C   0  0  0  0  0  0  0  0  0  0  0  0
  160.2280  210.0760  153.0590 C   0  0  0  0  0  2  0  0  0  0  0  0
  163.0780  208.4730  150.8470 C   0  0  0  0  0  1  0  0  0  0  0  0
  160.6630  201.9500  151.5190 C   0  0  0  0  0  2  0  0  0  0  0  0
  160.8620  203.3260  150.9320 C   0  0  0  0  0  0  0  0  0  0  0  0
  161.6700  208.4870  150.2580 C   0  0  2  0  0  3  0  0  0  0  0  0
  161.7530  206.5740  145.7860 O   0  0  0  0  0  0  0  0  0  0  0  0
  161.2110  205.2780  143.9020 C   0  0  0  0  0  2  0  0  0  0  0  0
  160.8250  205.8880  145.0120 C   0  0  0  0  0  3  0  0  0  0  0  0
  1 19  2  0  0  0  0
  1  4  1  0  0  0  0
  2 13  1  0  0  0  0
  2 19  1  0  0  0  0
  3 10  1  0  0  0  0
  4 20  2  0  0  0  0
  5  1  1  0  0  0  0
  6  8  2  0  0  0  0
  7 15  1  1  0  0  0
  7  9  1  0  0  0  0
  8 12  1  0  0  0  0
  9 22  2  0  0  0  0
  9 14  1  0  0  0  0
 10 21  1  6  0  0  0
 11 28  1  6  0  0  0
 11  5  1  0  0  0  0
 11  8  1  0  0  0  0
 12  4  1  0  0  0  0
 12 27  1  0  0  0  0
 13 18  2  0  0  0  0
 15 23  1  0  0  0  0
 16  2  2  0  0  0  0
 17  3  1  0  0  0  0
 18 25  1  0  0  0  0
 19 26  1  0  0  0  0
 20 17  1  0  0  0  0
 20 22  1  0  0  0  0
 22 10  1  0  0  0  0
 23 14  1  0  0  0  0
 26 25  1  0  0  0  0
 26 17  2  0  0  0  0
 27 24  1  1  0  0  0
 27  7  1  0  0  0  0
 29 30  2  0  0  0  0
 30 28  1  0  0  0  0
M  END
>  <MODEL>
8

>  <REMARK>
 VINA RESULT:      -5.0      1.467      2.037
  Name = 
  2 active torsions:
  status: ('A' for Active; 'I' for Inactive)
    1  A    between atoms: C_11  and  O_28
    2  A    between atoms: O_28  and  C_30
                            x       y       z     vdW  Elec       q    Type
                         _______ _______ _______ _____ _____    ______ ____

>  <TORSDO>
F 2

$$$$
