=
 OpenBabel11122413123D

 31 35  0  0  1  0  0  0  0  0999 V2000
  162.4670  211.4830  148.7820 C   0  0  0  0  0  0  0  0  0  0  0  0
  161.5850  210.3190  152.2990 C   0  0  2  0  0  3  0  0  0  0  0  0
  160.2860  211.0000  152.7100 C   0  0  0  0  0  0  0  0  0  0  0  0
  158.6300  212.7580  152.4130 C   0  0  0  0  0  0  0  0  0  0  0  0
  161.8000  210.3210  150.8030 C   0  0  0  0  0  0  0  0  0  0  0  0
  162.1620  210.3480  148.0250 C   0  0  0  0  0  3  0  0  0  0  0  0
  159.8060  212.1190  152.0110 C   0  0  0  0  0  3  0  0  0  0  0  0
  160.7510  207.9530  152.0540 C   0  0  2  0  0  3  0  0  0  0  0  0
  163.0680  212.9240  147.9940 Cl  0  0  0  0  0  0  0  0  0  0  0  0
  160.0700  209.4460  154.6090 N   0  0  0  0  0  2  0  0  0  0  0  0
  158.0380  214.1400  151.5180 Cl  0  0  0  0  0  0  0  0  0  0  0  0
  161.0670  208.0010  150.6620 O   0  0  0  0  0  0  0  0  0  0  0  0
  161.6850  208.8790  152.8470 C   0  0  2  0  0  3  0  0  0  0  0  0
  162.2880  211.4700  150.1680 C   0  0  0  0  0  3  0  0  0  0  0  0
  157.9280  212.2920  153.5270 C   0  0  0  0  0  3  0  0  0  0  0  0
  161.5020  209.1750  150.0390 C   0  0  0  0  0  0  0  0  0  0  0  0
  161.6840  209.1950  148.6530 C   0  0  0  0  0  3  0  0  0  0  0  0
  161.3780  208.8580  154.3450 C   0  0  0  0  0  2  0  0  0  0  0  0
  159.5900  210.5620  153.8560 C   0  0  0  0  0  0  0  0  0  0  0  0
  158.4080  211.1960  154.2480 C   0  0  0  0  0  3  0  0  0  0  0  0
  160.8520  206.6360  152.5180 O   0  0  0  0  0  0  0  0  0  0  0  0
  163.0800  205.7890  152.6960 C   0  0  0  0  0  1  0  0  0  0  0  0
  161.9000  206.0680  151.7830 C   0  0  1  0  0  3  0  0  0  0  0  0
  160.6660  202.4160  149.8700 C   0  0  0  0  0  0  0  0  0  0  0  0
  161.2390  203.6660  151.8620 C   0  0  0  0  0  3  0  0  0  0  0  0
  161.4680  205.8540  148.9230 F   0  0  0  0  0  0  0  0  0  0  0  0
  160.2520  201.1440  149.2240 C   0  0  0  0  0  1  0  0  0  0  0  0
  160.8460  202.4700  151.2540 C   0  0  0  0  0  3  0  0  0  0  0  0
  161.2660  204.7580  149.6960 C   0  0  0  0  0  0  0  0  0  0  0  0
  161.4530  204.8140  151.0900 C   0  0  0  0  0  0  0  0  0  0  0  0
  160.8750  203.5590  149.0930 C   0  0  0  0  0  3  0  0  0  0  0  0
  1 14  1  0  0  0  0
  2  5  1  6  0  0  0
  2  3  1  0  0  0  0
  2 13  1  0  0  0  0
  3 19  1  0  0  0  0
  4 15  2  0  0  0  0
  6 17  1  0  0  0  0
  6  1  2  0  0  0  0
  7  4  1  0  0  0  0
  7  3  2  0  0  0  0
  8 21  1  1  0  0  0
  8 13  1  0  0  0  0
  9  1  1  0  0  0  0
 11  4  1  0  0  0  0
 12  8  1  0  0  0  0
 13 18  1  1  0  0  0
 14  5  2  0  0  0  0
 15 20  1  0  0  0  0
 16 12  1  0  0  0  0
 16  5  1  0  0  0  0
 17 16  2  0  0  0  0
 18 10  1  0  0  0  0
 19 20  2  0  0  0  0
 19 10  1  0  0  0  0
 23 21  1  0  0  0  0
 23 22  1  1  0  0  0
 24 28  1  0  0  0  0
 26 29  1  0  0  0  0
 27 24  1  0  0  0  0
 28 25  2  0  0  0  0
 29 30  2  0  0  0  0
 30 23  1  0  0  0  0
 30 25  1  0  0  0  0
 31 29  1  0  0  0  0
 31 24  2  0  0  0  0
M  END
>  <MODEL>
1

>  <REMARK>
 VINA RESULT:      -7.2      0.000      0.000
  Name = 
  3 active torsions:
  status: ('A' for Active; 'I' for Inactive)
    1  A    between atoms: C_5  and  O_16
    2  A    between atoms: C_5  and  C_30
    3  A    between atoms: C_10  and  O_16
                            x       y       z     vdW  Elec       q    Type
                         _______ _______ _______ _____ _____    ______ ____

>  <TORSDO>
F 3

$$$$
=
 OpenBabel11122413123D

 31 35  0  0  1  0  0  0  0  0999 V2000
  162.2920  209.6450  148.7740 C   0  0  0  0  0  0  0  0  0  0  0  0
  162.0470  207.4410  151.8700 C   0  0  2  0  0  3  0  0  0  0  0  0
  161.1720  208.1570  152.8910 C   0  0  0  0  0  0  0  0  0  0  0  0
  160.1150  210.1840  153.7240 C   0  0  0  0  0  0  0  0  0  0  0  0
  161.8540  207.9630  150.4650 C   0  0  0  0  0  0  0  0  0  0  0  0
  161.4690  208.9610  147.8760 C   0  0  0  0  0  3  0  0  0  0  0  0
  160.8920  209.5260  152.7670 C   0  0  0  0  0  3  0  0  0  0  0  0
  160.4980  205.5520  151.2510 C   0  0  2  0  0  3  0  0  0  0  0  0
  163.0760  211.1300  148.2850 Cl  0  0  0  0  0  0  0  0  0  0  0  0
  160.9960  206.0780  154.2010 N   0  0  0  0  0  2  0  0  0  0  0  0
  159.7610  211.8870  153.5420 Cl  0  0  0  0  0  0  0  0  0  0  0  0
  160.4380  206.0560  149.9170 O   0  0  0  0  0  0  0  0  0  0  0  0
  161.8420  205.9110  151.9000 C   0  0  2  0  0  3  0  0  0  0  0  0
  162.4850  209.1480  150.0660 C   0  0  0  0  0  3  0  0  0  0  0  0
  159.6210  209.4800  154.8240 C   0  0  0  0  0  3  0  0  0  0  0  0
  161.0320  207.2700  149.5540 C   0  0  0  0  0  0  0  0  0  0  0  0
  160.8430  207.7730  148.2640 C   0  0  0  0  0  3  0  0  0  0  0  0
  161.9460  205.3890  153.3340 C   0  0  0  0  0  2  0  0  0  0  0  0
  160.7010  207.4650  154.0260 C   0  0  0  0  0  0  0  0  0  0  0  0
  159.9130  208.1230  154.9760 C   0  0  0  0  0  3  0  0  0  0  0  0
  160.3090  204.1650  151.2420 O   0  0  0  0  0  0  0  0  0  0  0  0
  162.0600  202.5640  151.5310 C   0  0  0  0  0  1  0  0  0  0  0  0
  161.4630  203.6420  150.6450 C   0  0  1  0  0  3  0  0  0  0  0  0
  160.6040  202.0030  146.7610 C   0  0  0  0  0  0  0  0  0  0  0  0
  160.4220  201.9220  149.1720 C   0  0  0  0  0  3  0  0  0  0  0  0
  162.3470  204.8850  148.1790 F   0  0  0  0  0  0  0  0  0  0  0  0
  160.3100  201.4170  145.4280 C   0  0  0  0  0  1  0  0  0  0  0  0
  160.1430  201.3720  147.9180 C   0  0  0  0  0  3  0  0  0  0  0  0
  161.6240  203.7410  148.1080 C   0  0  0  0  0  0  0  0  0  0  0  0
  161.1640  203.1040  149.2770 C   0  0  0  0  0  0  0  0  0  0  0  0
  161.3430  203.1860  146.8560 C   0  0  0  0  0  3  0  0  0  0  0  0
  1 14  1  0  0  0  0
  2  5  1  6  0  0  0
  2 13  1  0  0  0  0
  2  3  1  0  0  0  0
  3 19  1  0  0  0  0
  4 15  2  0  0  0  0
  6 17  1  0  0  0  0
  6  1  2  0  0  0  0
  7  3  2  0  0  0  0
  7  4  1  0  0  0  0
  8 21  1  6  0  0  0
  8 13  1  0  0  0  0
  9  1  1  0  0  0  0
 11  4  1  0  0  0  0
 12  8  1  0  0  0  0
 13 18  1  1  0  0  0
 14  5  2  0  0  0  0
 15 20  1  0  0  0  0
 16 12  1  0  0  0  0
 16  5  1  0  0  0  0
 17 16  2  0  0  0  0
 18 10  1  0  0  0  0
 19 10  1  0  0  0  0
 19 20  2  0  0  0  0
 23 21  1  0  0  0  0
 23 22  1  1  0  0  0
 24 31  2  0  0  0  0
 24 28  1  0  0  0  0
 25 30  1  0  0  0  0
 27 24  1  0  0  0  0
 28 25  2  0  0  0  0
 29 26  1  0  0  0  0
 29 30  2  0  0  0  0
 30 23  1  0  0  0  0
 31 29  1  0  0  0  0
M  END
>  <MODEL>
2

>  <REMARK>
 VINA RESULT:      -6.3      1.838      2.852
  Name = 
  3 active torsions:
  status: ('A' for Active; 'I' for Inactive)
    1  A    between atoms: C_5  and  O_16
    2  A    between atoms: C_5  and  C_30
    3  A    between atoms: C_10  and  O_16
                            x       y       z     vdW  Elec       q    Type
                         _______ _______ _______ _____ _____    ______ ____

>  <TORSDO>
F 3

$$$$
=
 OpenBabel11122413123D

 31 35  0  0  1  0  0  0  0  0999 V2000
  161.4060  207.5760  151.7770 C   0  0  0  0  0  0  0  0  0  0  0  0
  159.5460  210.5950  153.1670 C   0  0  2  0  0  3  0  0  0  0  0  0
  160.1680  210.9560  154.5090 C   0  0  0  0  0  0  0  0  0  0  0  0
  161.5370  210.3730  156.4350 C   0  0  0  0  0  0  0  0  0  0  0  0
  160.4530  209.7410  152.3110 C   0  0  0  0  0  0  0  0  0  0  0  0
  162.1640  208.1580  150.7570 C   0  0  0  0  0  3  0  0  0  0  0  0
  160.9950  210.0470  155.1890 C   0  0  0  0  0  3  0  0  0  0  0  0
  160.3230  212.5700  151.8070 C   0  0  2  0  0  3  0  0  0  0  0  0
  161.5300  205.8600  152.0900 Cl  0  0  0  0  0  0  0  0  0  0  0  0
  158.9860  213.1170  154.4790 N   0  0  0  0  0  2  0  0  0  0  0  0
  162.5800  209.2340  157.2580 Cl  0  0  0  0  0  0  0  0  0  0  0  0
  161.0850  211.6860  150.9840 O   0  0  0  0  0  0  0  0  0  0  0  0
  159.0960  211.8450  152.3800 C   0  0  2  0  0  3  0  0  0  0  0  0
  160.5520  208.3650  152.5520 C   0  0  0  0  0  3  0  0  0  0  0  0
  161.2470  211.6070  157.0210 C   0  0  0  0  0  3  0  0  0  0  0  0
  161.2110  210.3240  151.2760 C   0  0  0  0  0  0  0  0  0  0  0  0
  162.0650  209.5290  150.5050 C   0  0  0  0  0  3  0  0  0  0  0  0
  158.2530  212.7590  153.2700 C   0  0  0  0  0  2  0  0  0  0  0  0
  159.8510  212.1830  155.1280 C   0  0  0  0  0  0  0  0  0  0  0  0
  160.4050  212.5100  156.3690 C   0  0  0  0  0  3  0  0  0  0  0  0
  159.9320  213.6890  151.0640 O   0  0  0  0  0  0  0  0  0  0  0  0
  157.9350  213.7780  149.7530 C   0  0  0  0  0  1  0  0  0  0  0  0
  159.3160  213.1720  149.9170 C   0  0  1  0  0  3  0  0  0  0  0  0
  161.7570  213.9710  146.4640 C   0  0  0  0  0  0  0  0  0  0  0  0
  161.3250  214.1780  148.8370 C   0  0  0  0  0  3  0  0  0  0  0  0
  158.6650  212.1950  147.2660 F   0  0  0  0  0  0  0  0  0  0  0  0
  162.6040  214.2670  145.2800 C   0  0  0  0  0  1  0  0  0  0  0  0
  162.1230  214.4530  147.7230 C   0  0  0  0  0  3  0  0  0  0  0  0
  159.7920  212.9300  147.4290 C   0  0  0  0  0  0  0  0  0  0  0  0
  160.1560  213.4190  148.6990 C   0  0  0  0  0  0  0  0  0  0  0  0
  160.5940  213.2100  146.3180 C   0  0  0  0  0  3  0  0  0  0  0  0
  1  9  1  0  0  0  0
  1 14  1  0  0  0  0
  2  5  1  6  0  0  0
  2  3  1  0  0  0  0
  3 19  2  0  0  0  0
  3  7  1  0  0  0  0
  4 15  1  0  0  0  0
  4 11  1  0  0  0  0
  5 14  2  0  0  0  0
  6  1  2  0  0  0  0
  7  4  2  0  0  0  0
  8 21  1  6  0  0  0
  8 13  1  0  0  0  0
 10 19  1  0  0  0  0
 12 16  1  0  0  0  0
 12  8  1  0  0  0  0
 13  2  1  0  0  0  0
 13 18  1  1  0  0  0
 16  5  1  0  0  0  0
 17  6  1  0  0  0  0
 17 16  2  0  0  0  0
 18 10  1  0  0  0  0
 19 20  1  0  0  0  0
 20 15  2  0  0  0  0
 23 22  1  6  0  0  0
 23 21  1  0  0  0  0
 24 28  1  0  0  0  0
 26 29  1  0  0  0  0
 27 24  1  0  0  0  0
 28 25  2  0  0  0  0
 29 30  2  0  0  0  0
 30 25  1  0  0  0  0
 30 23  1  0  0  0  0
 31 24  2  0  0  0  0
 31 29  1  0  0  0  0
M  END
>  <MODEL>
3

>  <REMARK>
 VINA RESULT:      -6.1      3.865      7.036
  Name = 
  3 active torsions:
  status: ('A' for Active; 'I' for Inactive)
    1  A    between atoms: C_5  and  O_16
    2  A    between atoms: C_5  and  C_30
    3  A    between atoms: C_10  and  O_16
                            x       y       z     vdW  Elec       q    Type
                         _______ _______ _______ _____ _____    ______ ____

>  <TORSDO>
F 3

$$$$
=
 OpenBabel11122413123D

 31 35  0  0  1  0  0  0  0  0999 V2000
  160.8660  209.3640  154.8360 C   0  0  0  0  0  0  0  0  0  0  0  0
  162.1070  210.0540  151.3030 C   0  0  2  0  0  3  0  0  0  0  0  0
  161.6840  208.8890  150.4180 C   0  0  0  0  0  0  0  0  0  0  0  0
  160.9160  206.5950  150.1610 C   0  0  0  0  0  0  0  0  0  0  0  0
  161.3060  210.1400  152.5810 C   0  0  0  0  0  0  0  0  0  0  0  0
  159.7990  210.2620  154.9400 C   0  0  0  0  0  3  0  0  0  0  0  0
  161.2720  207.6700  150.9790 C   0  0  0  0  0  3  0  0  0  0  0  0
  160.5940  211.8450  150.3770 C   0  0  2  0  0  3  0  0  0  0  0  0
  161.2560  208.3110  156.1770 Cl  0  0  0  0  0  0  0  0  0  0  0  0
  162.2330  210.2090  148.4120 N   0  0  0  0  0  2  0  0  0  0  0  0
  160.3860  205.0900  150.8790 Cl  0  0  0  0  0  0  0  0  0  0  0  0
  159.9440  211.9320  151.6460 O   0  0  0  0  0  0  0  0  0  0  0  0
  162.0540  211.4030  150.5520 C   0  0  2  0  0  3  0  0  0  0  0  0
  161.6180  209.3040  153.6600 C   0  0  0  0  0  3  0  0  0  0  0  0
  160.9820  206.7220  148.7720 C   0  0  0  0  0  3  0  0  0  0  0  0
  160.2360  211.0500  152.6920 C   0  0  0  0  0  0  0  0  0  0  0  0
  159.4870  211.1060  153.8710 C   0  0  0  0  0  3  0  0  0  0  0  0
  162.7860  211.2960  149.2140 C   0  0  0  0  0  2  0  0  0  0  0  0
  161.7850  208.9940  149.0150 C   0  0  0  0  0  0  0  0  0  0  0  0
  161.4160  207.9200  148.2000 C   0  0  0  0  0  3  0  0  0  0  0  0
  160.5270  213.0810  149.7260 O   0  0  0  0  0  0  0  0  0  0  0  0
  158.5630  214.4350  149.5680 C   0  0  0  0  0  1  0  0  0  0  0  0
  159.2420  213.1360  149.1730 C   0  0  1  0  0  3  0  0  0  0  0  0
  159.4590  212.8020  144.8880 C   0  0  0  0  0  0  0  0  0  0  0  0
  160.4950  213.2810  147.0230 C   0  0  0  0  0  3  0  0  0  0  0  0
  156.9890  212.3210  147.5380 F   0  0  0  0  0  0  0  0  0  0  0  0
  159.5480  212.7040  143.4080 C   0  0  0  0  0  1  0  0  0  0  0  0
  160.5780  213.1850  145.6310 C   0  0  0  0  0  3  0  0  0  0  0  0
  158.1670  212.6030  146.9280 C   0  0  0  0  0  0  0  0  0  0  0  0
  159.2920  212.9930  147.6800 C   0  0  0  0  0  0  0  0  0  0  0  0
  158.2560  212.5100  145.5360 C   0  0  0  0  0  3  0  0  0  0  0  0
  1  6  1  0  0  0  0
  1  9  1  0  0  0  0
  2  3  1  6  0  0  0
  2  5  1  0  0  0  0
  3  7  1  0  0  0  0
  4 11  1  0  0  0  0
  4  7  2  0  0  0  0
  5 16  2  0  0  0  0
  5 14  1  0  0  0  0
  8 21  1  1  0  0  0
  8 13  1  0  0  0  0
  8 12  1  0  0  0  0
 10 19  1  0  0  0  0
 10 18  1  0  0  0  0
 12 16  1  0  0  0  0
 13 18  1  6  0  0  0
 13  2  1  0  0  0  0
 14  1  2  0  0  0  0
 15  4  1  0  0  0  0
 16 17  1  0  0  0  0
 17  6  2  0  0  0  0
 19  3  2  0  0  0  0
 20 15  2  0  0  0  0
 20 19  1  0  0  0  0
 23 22  1  6  0  0  0
 23 21  1  0  0  0  0
 24 31  2  0  0  0  0
 24 28  1  0  0  0  0
 25 30  1  0  0  0  0
 27 24  1  0  0  0  0
 28 25  2  0  0  0  0
 29 26  1  0  0  0  0
 29 30  2  0  0  0  0
 30 23  1  0  0  0  0
 31 29  1  0  0  0  0
M  END
>  <MODEL>
4

>  <REMARK>
 VINA RESULT:      -5.9      3.937      7.648
  Name = 
  3 active torsions:
  status: ('A' for Active; 'I' for Inactive)
    1  A    between atoms: C_5  and  O_16
    2  A    between atoms: C_5  and  C_30
    3  A    between atoms: C_10  and  O_16
                            x       y       z     vdW  Elec       q    Type
                         _______ _______ _______ _____ _____    ______ ____

>  <TORSDO>
F 3

$$$$
=
 OpenBabel11122413123D

 31 35  0  0  1  0  0  0  0  0999 V2000
  160.7270  208.2510  156.0040 C   0  0  0  0  0  0  0  0  0  0  0  0
  161.9070  209.2950  152.5370 C   0  0  2  0  0  3  0  0  0  0  0  0
  161.5050  208.2040  151.5530 C   0  0  0  0  0  0  0  0  0  0  0  0
  160.7940  205.9230  151.0940 C   0  0  0  0  0  0  0  0  0  0  0  0
  161.1190  209.2410  153.8250 C   0  0  0  0  0  0  0  0  0  0  0  0
  159.6390  209.1050  156.2000 C   0  0  0  0  0  3  0  0  0  0  0  0
  161.1310  206.9290  152.0030 C   0  0  0  0  0  3  0  0  0  0  0  0
  160.3360  211.1210  151.7940 C   0  0  2  0  0  3  0  0  0  0  0  0
  161.1610  207.0900  157.2380 Cl  0  0  0  0  0  0  0  0  0  0  0  0
  161.9940  209.7180  149.6720 N   0  0  0  0  0  2  0  0  0  0  0  0
  160.3120  204.3450  151.6750 Cl  0  0  0  0  0  0  0  0  0  0  0  0
  159.6990  211.0730  153.0720 O   0  0  0  0  0  0  0  0  0  0  0  0
  161.8090  210.7040  151.9140 C   0  0  2  0  0  3  0  0  0  0  0  0
  161.4660  208.3180  154.8200 C   0  0  0  0  0  3  0  0  0  0  0  0
  160.8390  206.1790  149.7220 C   0  0  0  0  0  3  0  0  0  0  0  0
  160.0270  210.1080  154.0290 C   0  0  0  0  0  0  0  0  0  0  0  0
  159.2910  210.0350  155.2160 C   0  0  0  0  0  3  0  0  0  0  0  0
  162.5280  210.7410  150.5650 C   0  0  0  0  0  2  0  0  0  0  0  0
  161.5850  208.4400  150.1640 C   0  0  0  0  0  0  0  0  0  0  0  0
  161.2350  207.4360  149.2580 C   0  0  0  0  0  3  0  0  0  0  0  0
  160.2300  212.4090  151.2600 O   0  0  0  0  0  0  0  0  0  0  0  0
  158.7670  213.8490  152.4860 C   0  0  0  0  0  1  0  0  0  0  0  0
  158.8860  212.7670  151.4290 C   0  0  1  0  0  3  0  0  0  0  0  0
  157.0650  214.0250  147.7390 C   0  0  0  0  0  0  0  0  0  0  0  0
  156.9200  213.5380  150.1050 C   0  0  0  0  0  3  0  0  0  0  0  0
  160.3610  213.0070  148.9430 F   0  0  0  0  0  0  0  0  0  0  0  0
  156.4170  214.4480  146.4700 C   0  0  0  0  0  1  0  0  0  0  0  0
  156.3120  213.9400  148.9120 C   0  0  0  0  0  3  0  0  0  0  0  0
  159.0400  213.3110  148.9480 C   0  0  0  0  0  0  0  0  0  0  0  0
  158.2830  213.2200  150.1310 C   0  0  0  0  0  0  0  0  0  0  0  0
  158.4270  213.7120  147.7570 C   0  0  0  0  0  3  0  0  0  0  0  0
  1  6  1  0  0  0  0
  1  9  1  0  0  0  0
  2  3  1  6  0  0  0
  2  5  1  0  0  0  0
  3  7  1  0  0  0  0
  4 11  1  0  0  0  0
  4  7  2  0  0  0  0
  5 16  2  0  0  0  0
  5 14  1  0  0  0  0
  8 21  1  1  0  0  0
  8 13  1  0  0  0  0
  8 12  1  0  0  0  0
 10 19  1  0  0  0  0
 10 18  1  0  0  0  0
 12 16  1  0  0  0  0
 13 18  1  6  0  0  0
 13  2  1  0  0  0  0
 14  1  2  0  0  0  0
 15  4  1  0  0  0  0
 16 17  1  0  0  0  0
 17  6  2  0  0  0  0
 19  3  2  0  0  0  0
 20 15  2  0  0  0  0
 20 19  1  0  0  0  0
 21 23  1  0  0  0  0
 23 22  1  1  0  0  0
 24 31  2  0  0  0  0
 24 28  1  0  0  0  0
 25 30  1  0  0  0  0
 26 29  1  0  0  0  0
 27 24  1  0  0  0  0
 28 25  2  0  0  0  0
 29 30  2  0  0  0  0
 30 23  1  0  0  0  0
 31 29  1  0  0  0  0
M  END
>  <MODEL>
5

>  <REMARK>
 VINA RESULT:      -5.6      3.892      7.835
  Name = 
  3 active torsions:
  status: ('A' for Active; 'I' for Inactive)
    1  A    between atoms: C_5  and  O_16
    2  A    between atoms: C_5  and  C_30
    3  A    between atoms: C_10  and  O_16
                            x       y       z     vdW  Elec       q    Type
                         _______ _______ _______ _____ _____    ______ ____

>  <TORSDO>
F 3

$$$$
=
 OpenBabel11122413123D

 31 35  0  0  1  0  0  0  0  0999 V2000
  161.0570  201.5530  150.1970 C   0  0  0  0  0  0  0  0  0  0  0  0
  162.0620  204.5910  148.1340 C   0  0  2  0  0  3  0  0  0  0  0  0
  161.4230  204.4600  146.7580 C   0  0  0  0  0  0  0  0  0  0  0  0
  160.3550  203.1090  145.0380 C   0  0  0  0  0  0  0  0  0  0  0  0
  161.3920  203.7260  149.1760 C   0  0  0  0  0  0  0  0  0  0  0  0
  160.1240  202.1070  151.0780 C   0  0  0  0  0  3  0  0  0  0  0  0
  160.9120  203.2300  146.3140 C   0  0  0  0  0  3  0  0  0  0  0  0
  160.7090  206.5170  149.0360 C   0  0  2  0  0  3  0  0  0  0  0  0
  161.4280  199.8450  150.2770 Cl  0  0  0  0  0  0  0  0  0  0  0  0
  161.9540  206.8170  146.2820 N   0  0  0  0  0  2  0  0  0  0  0  0
  159.7060  201.5720  144.5110 Cl  0  0  0  0  0  0  0  0  0  0  0  0
  160.1880  205.6570  150.0500 O   0  0  0  0  0  0  0  0  0  0  0  0
  162.1120  206.0580  148.6130 C   0  0  2  0  0  3  0  0  0  0  0  0
  161.6910  202.3600  149.2490 C   0  0  0  0  0  3  0  0  0  0  0  0
  160.3150  204.2150  144.1870 C   0  0  0  0  0  3  0  0  0  0  0  0
  160.4580  204.2840  150.0710 C   0  0  0  0  0  0  0  0  0  0  0  0
  159.8270  203.4710  151.0170 C   0  0  0  0  0  3  0  0  0  0  0  0
  162.7060  206.9530  147.5260 C   0  0  0  0  0  2  0  0  0  0  0  0
  161.4120  205.5600  145.8750 C   0  0  0  0  0  0  0  0  0  0  0  0
  160.8430  205.4380  144.6040 C   0  0  0  0  0  3  0  0  0  0  0  0
  160.7410  207.8350  149.5030 O   0  0  0  0  0  0  0  0  0  0  0  0
  162.5790  209.2360  150.1140 C   0  0  0  0  0  1  0  0  0  0  0  0
  161.8750  207.9070  150.3210 C   0  0  1  0  0  3  0  0  0  0  0  0
  160.8310  207.4600  154.4710 C   0  0  0  0  0  0  0  0  0  0  0  0
  160.7580  208.7090  152.4000 C   0  0  0  0  0  3  0  0  0  0  0  0
  162.6540  205.6050  151.9040 F   0  0  0  0  0  0  0  0  0  0  0  0
  160.4730  207.3270  155.9070 C   0  0  0  0  0  1  0  0  0  0  0  0
  160.4190  208.5820  153.7500 C   0  0  0  0  0  3  0  0  0  0  0  0
  161.9220  206.5820  152.4930 C   0  0  0  0  0  0  0  0  0  0  0  0
  161.5110  207.7150  151.7640 C   0  0  0  0  0  0  0  0  0  0  0  0
  161.5800  206.4610  153.8430 C   0  0  0  0  0  3  0  0  0  0  0  0
  1  9  1  0  0  0  0
  1  6  1  0  0  0  0
  2  3  1  6  0  0  0
  2 13  1  0  0  0  0
  2  5  1  0  0  0  0
  4  7  2  0  0  0  0
  5 14  1  0  0  0  0
  5 16  2  0  0  0  0
  7  3  1  0  0  0  0
  8 21  1  1  0  0  0
  8 12  1  0  0  0  0
 10 18  1  0  0  0  0
 11  4  1  0  0  0  0
 12 16  1  0  0  0  0
 13 18  1  6  0  0  0
 13  8  1  0  0  0  0
 14  1  2  0  0  0  0
 15 20  2  0  0  0  0
 15  4  1  0  0  0  0
 16 17  1  0  0  0  0
 17  6  2  0  0  0  0
 19 10  1  0  0  0  0
 19  3  2  0  0  0  0
 20 19  1  0  0  0  0
 21 23  1  0  0  0  0
 23 22  1  1  0  0  0
 23 30  1  0  0  0  0
 24 27  1  0  0  0  0
 25 28  1  0  0  0  0
 26 29  1  0  0  0  0
 28 24  2  0  0  0  0
 29 31  2  0  0  0  0
 30 25  2  0  0  0  0
 30 29  1  0  0  0  0
 31 24  1  0  0  0  0
M  END
>  <MODEL>
6

>  <REMARK>
 VINA RESULT:      -5.1      4.323      8.067
  Name = 
  3 active torsions:
  status: ('A' for Active; 'I' for Inactive)
    1  A    between atoms: C_5  and  O_16
    2  A    between atoms: C_5  and  C_30
    3  A    between atoms: C_10  and  O_16
                            x       y       z     vdW  Elec       q    Type
                         _______ _______ _______ _____ _____    ______ ____

>  <TORSDO>
F 3

$$$$
=
 OpenBabel11122413123D

 31 35  0  0  1  0  0  0  0  0999 V2000
  161.2340  201.1300  149.0230 C   0  0  0  0  0  0  0  0  0  0  0  0
  162.0850  204.7300  148.1240 C   0  0  2  0  0  3  0  0  0  0  0  0
  161.3110  205.0980  146.8650 C   0  0  0  0  0  0  0  0  0  0  0  0
  160.0560  204.4480  144.8840 C   0  0  0  0  0  0  0  0  0  0  0  0
  161.5050  203.5320  148.8390 C   0  0  0  0  0  0  0  0  0  0  0  0
  160.4010  201.3050  150.1320 C   0  0  0  0  0  3  0  0  0  0  0  0
  160.7380  204.1050  146.0550 C   0  0  0  0  0  3  0  0  0  0  0  0
  160.8600  206.1670  149.7950 C   0  0  2  0  0  3  0  0  0  0  0  0
  161.5810  199.5180  148.4370 Cl  0  0  0  0  0  0  0  0  0  0  0  0
  161.8350  207.4760  147.2340 N   0  0  0  0  0  2  0  0  0  0  0  0
  159.3320  203.1970  143.8980 Cl  0  0  0  0  0  0  0  0  0  0  0  0
  160.4260  204.9860  150.4700 O   0  0  0  0  0  0  0  0  0  0  0  0
  162.2070  205.9210  149.0990 C   0  0  2  0  0  3  0  0  0  0  0  0
  161.7850  202.2390  148.3780 C   0  0  0  0  0  3  0  0  0  0  0  0
  159.9520  205.7870  144.5030 C   0  0  0  0  0  3  0  0  0  0  0  0
  160.6730  203.7060  149.9620 C   0  0  0  0  0  0  0  0  0  0  0  0
  160.1240  202.5910  150.6030 C   0  0  0  0  0  3  0  0  0  0  0  0
  162.7070  207.1640  148.3610 C   0  0  0  0  0  2  0  0  0  0  0  0
  161.2340  206.4450  146.4500 C   0  0  0  0  0  0  0  0  0  0  0  0
  160.5410  206.7840  145.2850 C   0  0  0  0  0  3  0  0  0  0  0  0
  160.9610  207.2240  150.7060 O   0  0  0  0  0  0  0  0  0  0  0  0
  162.6870  206.2020  152.0060 C   0  0  0  0  0  1  0  0  0  0  0  0
  161.2300  206.6200  151.9400 C   0  0  1  0  0  3  0  0  0  0  0  0
  160.2990  209.3360  155.1460 C   0  0  0  0  0  0  0  0  0  0  0  0
  160.7620  208.9090  152.8090 C   0  0  0  0  0  3  0  0  0  0  0  0
  160.8300  205.7500  154.6780 F   0  0  0  0  0  0  0  0  0  0  0  0
  159.9910  210.2890  156.2430 C   0  0  0  0  0  1  0  0  0  0  0  0
  160.4680  209.8040  153.8410 C   0  0  0  0  0  3  0  0  0  0  0  0
  160.7110  207.0700  154.3910 C   0  0  0  0  0  0  0  0  0  0  0  0
  160.8870  207.5400  153.0750 C   0  0  0  0  0  0  0  0  0  0  0  0
  160.4200  207.9710  155.4190 C   0  0  0  0  0  3  0  0  0  0  0  0
  1  6  1  0  0  0  0
  2  3  1  6  0  0  0
  2  5  1  0  0  0  0
  2 13  1  0  0  0  0
  4  7  1  0  0  0  0
  5 16  2  0  0  0  0
  6 17  2  0  0  0  0
  7  3  2  0  0  0  0
  8 12  1  0  0  0  0
  8 21  1  1  0  0  0
  9  1  1  0  0  0  0
 10 18  1  0  0  0  0
 11  4  1  0  0  0  0
 13 18  1  6  0  0  0
 13  8  1  0  0  0  0
 14  5  1  0  0  0  0
 14  1  2  0  0  0  0
 15  4  2  0  0  0  0
 15 20  1  0  0  0  0
 16 12  1  0  0  0  0
 16 17  1  0  0  0  0
 19  3  1  0  0  0  0
 19 10  1  0  0  0  0
 20 19  2  0  0  0  0
 21 23  1  0  0  0  0
 23 22  1  6  0  0  0
 23 30  1  0  0  0  0
 24 31  1  0  0  0  0
 24 27  1  0  0  0  0
 25 30  2  0  0  0  0
 25 28  1  0  0  0  0
 28 24  2  0  0  0  0
 29 26  1  0  0  0  0
 29 31  2  0  0  0  0
 30 29  1  0  0  0  0
M  END
>  <MODEL>
7

>  <REMARK>
 VINA RESULT:      -4.8      4.189      8.055
  Name = 
  3 active torsions:
  status: ('A' for Active; 'I' for Inactive)
    1  A    between atoms: C_5  and  O_16
    2  A    between atoms: C_5  and  C_30
    3  A    between atoms: C_10  and  O_16
                            x       y       z     vdW  Elec       q    Type
                         _______ _______ _______ _____ _____    ______ ____

>  <TORSDO>
F 3

$$$$
=
 OpenBabel11122413123D

 31 35  0  0  1  0  0  0  0  0999 V2000
  160.9730  205.2130  145.7270 C   0  0  0  0  0  0  0  0  0  0  0  0
  160.5350  206.1860  149.3830 C   0  0  2  0  0  3  0  0  0  0  0  0
  160.8100  204.9540  150.2350 C   0  0  0  0  0  0  0  0  0  0  0  0
  161.0460  202.5420  150.4590 C   0  0  0  0  0  0  0  0  0  0  0  0
  161.1100  206.0750  147.9900 C   0  0  0  0  0  0  0  0  0  0  0  0
  162.1890  205.8280  145.4160 C   0  0  0  0  0  3  0  0  0  0  0  0
  160.8240  203.6710  149.6650 C   0  0  0  0  0  3  0  0  0  0  0  0
  162.5610  207.5610  149.9790 C   0  0  2  0  0  3  0  0  0  0  0  0
  160.1270  204.2830  144.5110 Cl  0  0  0  0  0  0  0  0  0  0  0  0
  160.9310  206.3700  152.2470 N   0  0  0  0  0  2  0  0  0  0  0  0
  161.0780  200.9530  149.7270 Cl  0  0  0  0  0  0  0  0  0  0  0  0
  162.9930  207.4880  148.6190 O   0  0  0  0  0  0  0  0  0  0  0  0
  161.0290  207.4820  150.0590 C   0  0  2  0  0  3  0  0  0  0  0  0
  160.4340  205.3370  147.0100 C   0  0  0  0  0  3  0  0  0  0  0  0
  161.2440  202.6840  151.8340 C   0  0  0  0  0  3  0  0  0  0  0  0
  162.3310  206.7010  147.6710 C   0  0  0  0  0  0  0  0  0  0  0  0
  162.8650  206.5740  146.3850 C   0  0  0  0  0  3  0  0  0  0  0  0
  160.5260  207.5560  151.5010 C   0  0  0  0  0  2  0  0  0  0  0  0
  160.9720  205.0820  151.6310 C   0  0  0  0  0  0  0  0  0  0  0  0
  161.2060  203.9510  152.4190 C   0  0  0  0  0  3  0  0  0  0  0  0
  163.0250  208.7460  150.5600 O   0  0  0  0  0  0  0  0  0  0  0  0
  161.7810  209.9350  152.2190 C   0  0  0  0  0  1  0  0  0  0  0  0
  161.8810  209.5290  150.7600 C   0  0  1  0  0  3  0  0  0  0  0  0
  162.0170  212.9700  148.1790 C   0  0  0  0  0  0  0  0  0  0  0  0
  162.7060  210.7160  148.7290 C   0  0  0  0  0  3  0  0  0  0  0  0
  160.3420  211.9360  151.2590 F   0  0  0  0  0  0  0  0  0  0  0  0
  162.0850  214.1540  147.2850 C   0  0  0  0  0  1  0  0  0  0  0  0
  162.7670  211.8290  147.8860 C   0  0  0  0  0  3  0  0  0  0  0  0
  161.1350  211.8870  150.1600 C   0  0  0  0  0  0  0  0  0  0  0  0
  161.8940  210.7370  149.8690 C   0  0  0  0  0  0  0  0  0  0  0  0
  161.2010  212.9980  149.3140 C   0  0  0  0  0  3  0  0  0  0  0  0
  1 14  1  0  0  0  0
  2  5  1  6  0  0  0
  2 13  1  0  0  0  0
  2  3  1  0  0  0  0
  3 19  1  0  0  0  0
  4 15  2  0  0  0  0
  6  1  2  0  0  0  0
  6 17  1  0  0  0  0
  7  3  2  0  0  0  0
  7  4  1  0  0  0  0
  8 13  1  0  0  0  0
  8 21  1  6  0  0  0
  9  1  1  0  0  0  0
 11  4  1  0  0  0  0
 12  8  1  0  0  0  0
 13 18  1  1  0  0  0
 14  5  2  0  0  0  0
 15 20  1  0  0  0  0
 16  5  1  0  0  0  0
 16 12  1  0  0  0  0
 17 16  2  0  0  0  0
 18 10  1  0  0  0  0
 19 10  1  0  0  0  0
 19 20  2  0  0  0  0
 21 23  1  0  0  0  0
 23 22  1  1  0  0  0
 24 31  1  0  0  0  0
 25 30  2  0  0  0  0
 27 24  1  0  0  0  0
 28 24  2  0  0  0  0
 28 25  1  0  0  0  0
 29 26  1  0  0  0  0
 30 29  1  0  0  0  0
 30 23  1  0  0  0  0
 31 29  2  0  0  0  0
M  END
>  <MODEL>
8

>  <REMARK>
 VINA RESULT:      -4.8      3.685      7.419
  Name = 
  3 active torsions:
  status: ('A' for Active; 'I' for Inactive)
    1  A    between atoms: C_5  and  O_16
    2  A    between atoms: C_5  and  C_30
    3  A    between atoms: C_10  and  O_16
                            x       y       z     vdW  Elec       q    Type
                         _______ _______ _______ _____ _____    ______ ____

>  <TORSDO>
F 3

$$$$
=
 OpenBabel11122413123D

 31 35  0  0  1  0  0  0  0  0999 V2000
  160.8310  206.2940  146.4750 C   0  0  0  0  0  0  0  0  0  0  0  0
  160.2920  204.8090  149.9400 C   0  0  2  0  0  3  0  0  0  0  0  0
  160.7290  203.3500  149.9010 C   0  0  0  0  0  0  0  0  0  0  0  0
  161.2750  201.3350  148.6520 C   0  0  0  0  0  0  0  0  0  0  0  0
  160.8690  205.6230  148.8050 C   0  0  0  0  0  0  0  0  0  0  0  0
  161.9560  207.0970  146.6850 C   0  0  0  0  0  3  0  0  0  0  0  0
  160.9050  202.6820  148.6800 C   0  0  0  0  0  3  0  0  0  0  0  0
  162.1270  205.7510  151.3880 C   0  0  2  0  0  3  0  0  0  0  0  0
  160.1060  206.2030  144.8860 Cl  0  0  0  0  0  0  0  0  0  0  0  0
  160.6770  203.2670  152.3630 N   0  0  0  0  0  2  0  0  0  0  0  0
  161.5070  200.5240  147.1190 Cl  0  0  0  0  0  0  0  0  0  0  0  0
  162.5570  206.5600  150.2920 O   0  0  0  0  0  0  0  0  0  0  0  0
  160.6190  205.4780  151.2920 C   0  0  2  0  0  3  0  0  0  0  0  0
  160.2880  205.5600  147.5320 C   0  0  0  0  0  3  0  0  0  0  0  0
  161.4600  200.6380  149.8470 C   0  0  0  0  0  3  0  0  0  0  0  0
  161.9970  206.4400  149.0160 C   0  0  0  0  0  0  0  0  0  0  0  0
  162.5360  207.1730  147.9540 C   0  0  0  0  0  3  0  0  0  0  0  0
  160.1180  204.6120  152.4490 C   0  0  0  0  0  2  0  0  0  0  0  0
  160.8810  202.6260  151.1030 C   0  0  0  0  0  0  0  0  0  0  0  0
  161.2630  201.2820  151.0710 C   0  0  0  0  0  3  0  0  0  0  0  0
  162.4380  206.3860  152.5960 O   0  0  0  0  0  0  0  0  0  0  0  0
  161.1810  205.8820  154.5650 C   0  0  0  0  0  1  0  0  0  0  0  0
  161.2060  206.5970  153.2270 C   0  0  1  0  0  3  0  0  0  0  0  0
  160.3790  210.7790  153.8140 C   0  0  0  0  0  0  0  0  0  0  0  0
  160.8430  208.5750  154.7000 C   0  0  0  0  0  3  0  0  0  0  0  0
  160.8280  208.4530  151.0310 F   0  0  0  0  0  0  0  0  0  0  0  0
  160.0810  212.2180  154.0340 C   0  0  0  0  0  1  0  0  0  0  0  0
  160.5670  209.9290  154.9060 C   0  0  0  0  0  3  0  0  0  0  0  0
  160.7490  208.9230  152.3000 C   0  0  0  0  0  0  0  0  0  0  0  0
  160.9340  208.0630  153.4000 C   0  0  0  0  0  0  0  0  0  0  0  0
  160.4710  210.2760  152.5130 C   0  0  0  0  0  3  0  0  0  0  0  0
  1  6  2  0  0  0  0
  1 14  1  0  0  0  0
  2  5  1  6  0  0  0
  2 13  1  0  0  0  0
  3  2  1  0  0  0  0
  3 19  1  0  0  0  0
  4  7  1  0  0  0  0
  4 15  2  0  0  0  0
  5 16  1  0  0  0  0
  6 17  1  0  0  0  0
  7  3  2  0  0  0  0
  8 21  1  1  0  0  0
  9  1  1  0  0  0  0
 10 18  1  0  0  0  0
 11  4  1  0  0  0  0
 12  8  1  0  0  0  0
 13  8  1  0  0  0  0
 13 18  1  1  0  0  0
 14  5  2  0  0  0  0
 15 20  1  0  0  0  0
 16 12  1  0  0  0  0
 17 16  2  0  0  0  0
 19 10  1  0  0  0  0
 20 19  2  0  0  0  0
 21 23  1  0  0  0  0
 23 30  1  0  0  0  0
 23 22  1  1  0  0  0
 24 27  1  0  0  0  0
 24 28  1  0  0  0  0
 25 28  2  0  0  0  0
 26 29  1  0  0  0  0
 29 31  1  0  0  0  0
 29 30  2  0  0  0  0
 30 25  1  0  0  0  0
 31 24  2  0  0  0  0
M  END
>  <MODEL>
9

>  <REMARK>
 VINA RESULT:      -4.7      3.372      7.340
  Name = 
  3 active torsions:
  status: ('A' for Active; 'I' for Inactive)
    1  A    between atoms: C_5  and  O_16
    2  A    between atoms: C_5  and  C_30
    3  A    between atoms: C_10  and  O_16
                            x       y       z     vdW  Elec       q    Type
                         _______ _______ _______ _____ _____    ______ ____

>  <TORSDO>
F 3

$$$$
