=
 OpenBabel11122412393D

 30 35  0  0  1  0  0  0  0  0999 V2000
  161.5920  204.4430  147.9220 C   0  0  0  0  0  0  0  0  0  0  0  0
  161.6100  202.3110  146.5160 C   0  0  0  0  0  0  0  0  0  0  0  0
  160.6750  202.3590  151.3430 N   0  0  0  0  0  2  0  0  0  0  0  0
  161.4750  205.0850  149.1840 C   0  0  0  0  0  0  0  0  0  0  0  0
  161.8620  205.2390  146.7630 N   0  0  0  0  0  2  0  0  0  0  0  0
  162.3760  208.4720  148.1730 O   0  0  0  0  0  0  0  0  0  0  0  0
  160.9100  207.1800  151.4500 C   0  0  1  0  0  3  0  0  0  0  0  0
  161.9980  207.2720  148.0970 C   0  0  0  0  0  0  0  0  0  0  0  0
  160.5760  205.9140  152.2260 C   0  0  2  0  0  3  0  0  0  0  0  0
  160.5920  203.4240  152.1700 C   0  0  0  0  0  0  0  0  0  0  0  0
  161.7000  206.6880  146.7500 C   0  0  2  0  0  3  0  0  0  0  0  0
  161.8220  206.4830  149.2880 N   0  0  0  0  0  0  0  0  0  0  0  0
  161.1340  200.8920  146.3810 C   0  0  0  0  0  2  0  0  0  0  0  0
  161.2650  206.0670  153.5670 C   0  0  0  0  0  2  0  0  0  0  0  0
  161.1140  208.2560  152.5050 C   0  0  0  0  0  2  0  0  0  0  0  0
  162.1050  202.8780  145.5070 O   0  0  0  0  0  0  0  0  0  0  0  0
  161.0050  202.9240  150.1700 C   0  0  0  0  0  0  0  0  0  0  0  0
  161.0660  200.1650  147.6960 C   0  0  0  0  0  3  0  0  0  0  0  0
  161.4540  203.0310  147.8070 C   0  0  0  0  0  0  0  0  0  0  0  0
  161.1290  204.2850  150.2950 C   0  0  0  0  0  0  0  0  0  0  0  0
  160.2440  203.3060  153.3760 O   0  0  0  0  0  0  0  0  0  0  0  0
  160.8710  204.6190  151.5860 N   0  0  0  0  0  0  0  0  0  0  0  0
  161.2390  207.5540  153.8500 C   0  0  0  0  0  2  0  0  0  0  0  0
  163.3850  206.4800  151.2040 C   0  0  0  0  0  1  0  0  0  0  0  0
  161.0440  200.7980  148.8690 C   0  0  0  0  0  3  0  0  0  0  0  0
  161.1600  202.2650  148.9530 C   0  0  0  0  0  0  0  0  0  0  0  0
  162.1460  207.1020  150.5640 C   0  0  2  0  0  3  0  0  0  0  0  0
  160.3020  207.0730  146.2710 C   0  0  0  0  0  2  0  0  0  0  0  0
  160.9170  205.9450  144.3250 C   0  0  0  0  0  1  0  0  0  0  0  0
  159.8200  206.1560  145.2500 N   0  0  0  0  0  2  0  0  0  0  0  0
  1  4  1  0  0  0  0
  2 19  1  0  0  0  0
  3 10  1  0  0  0  0
  4 12  1  0  0  0  0
  4 20  2  0  0  0  0
  5  1  1  0  0  0  0
  7  9  1  0  0  0  0
  7 15  1  1  0  0  0
  8  6  2  0  0  0  0
  8 12  1  0  0  0  0
  9 14  1  1  0  0  0
 10 21  2  0  0  0  0
 11 28  1  1  0  0  0
 11  5  1  0  0  0  0
 11  8  1  0  0  0  0
 12 27  1  0  0  0  0
 13  2  1  0  0  0  0
 13 18  1  0  0  0  0
 14 23  1  0  0  0  0
 15 23  1  0  0  0  0
 16  2  2  0  0  0  0
 17 20  1  0  0  0  0
 17  3  1  0  0  0  0
 18 25  2  0  0  0  0
 19  1  2  0  0  0  0
 19 26  1  0  0  0  0
 20 22  1  0  0  0  0
 22 10  1  0  0  0  0
 22  9  1  0  0  0  0
 25 26  1  0  0  0  0
 26 17  2  0  0  0  0
 27 24  1  1  0  0  0
 27  7  1  0  0  0  0
 29 30  1  0  0  0  0
 30 28  1  0  0  0  0
M  END
>  <MODEL>
1

>  <REMARK>
 VINA RESULT:      -5.5      0.000      0.000
  Name = 
  2 active torsions:
  status: ('A' for Active; 'I' for Inactive)
    1  A    between atoms: C_11  and  C_28
    2  A    between atoms: C_28  and  N_30
                            x       y       z     vdW  Elec       q    Type
                         _______ _______ _______ _____ _____    ______ ____

>  <TORSDO>
F 2

$$$$
=
 OpenBabel11122412393D

 30 35  0  0  1  0  0  0  0  0999 V2000
  160.3910  212.2650  151.6400 C   0  0  0  0  0  0  0  0  0  0  0  0
  160.9750  213.2920  149.3760 C   0  0  0  0  0  0  0  0  0  0  0  0
  162.2180  208.7140  150.6710 N   0  0  0  0  0  2  0  0  0  0  0  0
  160.4730  211.1880  152.5610 C   0  0  0  0  0  0  0  0  0  0  0  0
  159.6940  213.4550  152.0270 N   0  0  0  0  0  2  0  0  0  0  0  0
  158.9150  212.7940  155.4420 O   0  0  0  0  0  0  0  0  0  0  0  0
  159.8530  209.1430  154.8580 C   0  0  1  0  0  3  0  0  0  0  0  0
  159.2470  212.5620  154.2480 C   0  0  0  0  0  0  0  0  0  0  0  0
  160.5990  208.2060  153.9190 C   0  0  2  0  0  3  0  0  0  0  0  0
  161.9220  208.0570  151.8130 C   0  0  0  0  0  0  0  0  0  0  0  0
  158.7920  213.4990  153.1720 C   0  0  2  0  0  3  0  0  0  0  0  0
  160.0230  211.3960  153.9180 N   0  0  0  0  0  0  0  0  0  0  0  0
  161.3280  213.0410  147.9360 C   0  0  0  0  0  2  0  0  0  0  0  0
  161.5710  207.4420  154.7950 C   0  0  0  0  0  2  0  0  0  0  0  0
  159.8560  208.4430  156.2090 C   0  0  0  0  0  2  0  0  0  0  0  0
  160.6280  214.4530  149.7160 O   0  0  0  0  0  0  0  0  0  0  0  0
  161.6830  209.9280  150.8840 C   0  0  0  0  0  0  0  0  0  0  0  0
  162.2010  211.8310  147.7460 C   0  0  0  0  0  3  0  0  0  0  0  0
  160.9980  212.1750  150.3560 C   0  0  0  0  0  0  0  0  0  0  0  0
  161.0970  209.9990  152.1230 C   0  0  0  0  0  0  0  0  0  0  0  0
  162.2170  206.8430  151.9800 O   0  0  0  0  0  0  0  0  0  0  0  0
  161.2500  208.7970  152.7360 N   0  0  0  0  0  0  0  0  0  0  0  0
  160.8700  207.3110  156.1310 C   0  0  0  0  0  2  0  0  0  0  0  0
  161.9610  210.5910  155.2270 C   0  0  0  0  0  1  0  0  0  0  0  0
  162.3220  210.8770  148.6690 C   0  0  0  0  0  3  0  0  0  0  0  0
  161.6560  210.9870  149.9800 C   0  0  0  0  0  0  0  0  0  0  0  0
  160.4500  210.5350  155.0100 C   0  0  2  0  0  3  0  0  0  0  0  0
  157.3560  213.2040  152.7440 C   0  0  0  0  0  2  0  0  0  0  0  0
  155.5870  213.3490  154.2560 C   0  0  0  0  0  1  0  0  0  0  0  0
  156.4180  214.1300  153.3600 N   0  0  0  0  0  2  0  0  0  0  0  0
  1  5  1  0  0  0  0
  1  4  1  0  0  0  0
  2 16  2  0  0  0  0
  2 19  1  0  0  0  0
  3 17  1  0  0  0  0
  3 10  1  0  0  0  0
  4 12  1  0  0  0  0
  5 11  1  0  0  0  0
  7 27  1  0  0  0  0
  7 15  1  1  0  0  0
  8  6  2  0  0  0  0
  9 14  1  1  0  0  0
  9  7  1  0  0  0  0
 10 21  2  0  0  0  0
 10 22  1  0  0  0  0
 11 28  1  6  0  0  0
 11  8  1  0  0  0  0
 12  8  1  0  0  0  0
 12 27  1  0  0  0  0
 13  2  1  0  0  0  0
 14 23  1  0  0  0  0
 17 20  1  0  0  0  0
 18 13  1  0  0  0  0
 18 25  2  0  0  0  0
 19  1  2  0  0  0  0
 20  4  2  0  0  0  0
 20 22  1  0  0  0  0
 22  9  1  0  0  0  0
 23 15  1  0  0  0  0
 25 26  1  0  0  0  0
 26 19  1  0  0  0  0
 26 17  2  0  0  0  0
 27 24  1  6  0  0  0
 28 30  1  0  0  0  0
 30 29  1  0  0  0  0
M  END
>  <MODEL>
2

>  <REMARK>
 VINA RESULT:      -5.5      5.294      8.344
  Name = 
  2 active torsions:
  status: ('A' for Active; 'I' for Inactive)
    1  A    between atoms: C_11  and  C_28
    2  A    between atoms: C_28  and  N_30
                            x       y       z     vdW  Elec       q    Type
                         _______ _______ _______ _____ _____    ______ ____

>  <TORSDO>
F 2

$$$$
=
 OpenBabel11122412393D

 30 35  0  0  1  0  0  0  0  0999 V2000
  161.2990  208.7080  151.7170 C   0  0  0  0  0  0  0  0  0  0  0  0
  161.0050  207.7440  154.0640 C   0  0  0  0  0  0  0  0  0  0  0  0
  159.9540  212.4050  152.9020 N   0  0  0  0  0  2  0  0  0  0  0  0
  161.2540  209.8120  150.8240 C   0  0  0  0  0  0  0  0  0  0  0  0
  161.7300  207.4350  151.2210 N   0  0  0  0  0  2  0  0  0  0  0  0
  162.7300  208.2220  147.8920 O   0  0  0  0  0  0  0  0  0  0  0  0
  160.9790  211.5920  148.2550 C   0  0  1  0  0  3  0  0  0  0  0  0
  162.1610  208.3560  149.0090 C   0  0  0  0  0  0  0  0  0  0  0  0
  160.4190  212.5760  149.2710 C   0  0  2  0  0  3  0  0  0  0  0  0
  160.0250  213.0040  151.6940 C   0  0  0  0  0  0  0  0  0  0  0  0
  161.8090  207.1330  149.7970 C   0  0  2  0  0  3  0  0  0  0  0  0
  161.8240  209.6650  149.5050 N   0  0  0  0  0  0  0  0  0  0  0  0
  160.3050  207.8570  155.3890 C   0  0  0  0  0  2  0  0  0  0  0  0
  161.0850  213.9020  148.9620 C   0  0  0  0  0  2  0  0  0  0  0  0
  161.3280  212.4300  147.0340 C   0  0  0  0  0  2  0  0  0  0  0  0
  161.6140  206.6760  153.7950 O   0  0  0  0  0  0  0  0  0  0  0  0
  160.4060  211.1670  152.6430 C   0  0  0  0  0  0  0  0  0  0  0  0
  160.0800  209.2810  155.8170 C   0  0  0  0  0  3  0  0  0  0  0  0
  160.9330  208.8590  153.0830 C   0  0  0  0  0  0  0  0  0  0  0  0
  160.7490  211.0340  151.3210 C   0  0  0  0  0  0  0  0  0  0  0  0
  159.6280  214.1860  151.5110 O   0  0  0  0  0  0  0  0  0  0  0  0
  160.5130  212.2170  150.6980 N   0  0  0  0  0  0  0  0  0  0  0  0
  161.2970  213.8890  147.4630 C   0  0  0  0  0  2  0  0  0  0  0  0
  163.3100  211.6360  149.3690 C   0  0  0  0  0  1  0  0  0  0  0  0
  160.1300  210.3070  154.9660 C   0  0  0  0  0  3  0  0  0  0  0  0
  160.4840  210.1120  153.5480 C   0  0  0  0  0  0  0  0  0  0  0  0
  162.2100  210.8140  148.7020 C   0  0  2  0  0  3  0  0  0  0  0  0
  160.5080  206.5050  149.3020 C   0  0  0  0  0  2  0  0  0  0  0  0
  161.0790  204.2490  149.1430 C   0  0  0  0  0  1  0  0  0  0  0  0
  160.7640  205.4280  148.3580 N   0  0  0  0  0  2  0  0  0  0  0  0
  1 19  1  0  0  0  0
  2 13  1  0  0  0  0
  4 20  1  0  0  0  0
  4  1  2  0  0  0  0
  5  1  1  0  0  0  0
  6  8  2  0  0  0  0
  7 15  1  6  0  0  0
  7 27  1  0  0  0  0
  7  9  1  0  0  0  0
  8 12  1  0  0  0  0
  8 11  1  0  0  0  0
  9 14  1  1  0  0  0
  9 22  1  0  0  0  0
 10  3  1  0  0  0  0
 11 28  1  6  0  0  0
 11  5  1  0  0  0  0
 12  4  1  0  0  0  0
 13 18  1  0  0  0  0
 15 23  1  0  0  0  0
 16  2  2  0  0  0  0
 17  3  1  0  0  0  0
 17 26  1  0  0  0  0
 19 26  2  0  0  0  0
 19  2  1  0  0  0  0
 20 17  2  0  0  0  0
 21 10  2  0  0  0  0
 22 20  1  0  0  0  0
 22 10  1  0  0  0  0
 23 14  1  0  0  0  0
 25 18  2  0  0  0  0
 26 25  1  0  0  0  0
 27 24  1  1  0  0  0
 27 12  1  0  0  0  0
 30 29  1  0  0  0  0
 30 28  1  0  0  0  0
M  END
>  <MODEL>
3

>  <REMARK>
 VINA RESULT:      -4.8      3.898      7.560
  Name = 
  2 active torsions:
  status: ('A' for Active; 'I' for Inactive)
    1  A    between atoms: C_11  and  C_28
    2  A    between atoms: C_28  and  N_30
                            x       y       z     vdW  Elec       q    Type
                         _______ _______ _______ _____ _____    ______ ____

>  <TORSDO>
F 2

$$$$
=
 OpenBabel11122412393D

 30 35  0  0  1  0  0  0  0  0999 V2000
  160.9000  208.6430  153.4990 C   0  0  0  0  0  0  0  0  0  0  0  0
  161.9620  207.0590  151.8000 C   0  0  0  0  0  0  0  0  0  0  0  0
  160.6450  211.6760  150.7390 N   0  0  0  0  0  2  0  0  0  0  0  0
  160.3100  209.8950  153.8130 C   0  0  0  0  0  0  0  0  0  0  0  0
  161.0030  207.6490  154.5260 N   0  0  0  0  0  2  0  0  0  0  0  0
  159.2380  209.1700  157.2230 O   0  0  0  0  0  0  0  0  0  0  0  0
  159.3550  212.4750  155.3220 C   0  0  1  0  0  3  0  0  0  0  0  0
  159.8600  209.0810  156.1310 C   0  0  0  0  0  0  0  0  0  0  0  0
  159.5780  213.0890  153.9470 C   0  0  2  0  0  3  0  0  0  0  0  0
  160.1250  212.6100  151.5640 C   0  0  0  0  0  0  0  0  0  0  0  0
  160.8370  207.9630  155.9410 C   0  0  2  0  0  3  0  0  0  0  0  0
  159.6600  210.0580  155.0930 N   0  0  0  0  0  0  0  0  0  0  0  0
  162.7430  206.9280  150.5230 C   0  0  0  0  0  2  0  0  0  0  0  0
  158.3550  213.9430  153.6810 C   0  0  0  0  0  2  0  0  0  0  0  0
  158.4810  213.4720  156.0690 C   0  0  0  0  0  2  0  0  0  0  0  0
  161.8520  206.0490  152.5440 O   0  0  0  0  0  0  0  0  0  0  0  0
  160.7520  210.6020  151.5400 C   0  0  0  0  0  0  0  0  0  0  0  0
  162.3810  207.9710  149.5010 C   0  0  0  0  0  3  0  0  0  0  0  0
  161.3760  208.3690  152.1860 C   0  0  0  0  0  0  0  0  0  0  0  0
  160.2950  210.8830  152.8030 C   0  0  0  0  0  0  0  0  0  0  0  0
  159.9240  213.7950  151.1870 O   0  0  0  0  0  0  0  0  0  0  0  0
  159.8810  212.1760  152.8300 N   0  0  0  0  0  0  0  0  0  0  0  0
  157.9330  214.4530  155.0430 C   0  0  0  0  0  2  0  0  0  0  0  0
  157.4550  210.9650  154.4350 C   0  0  0  0  0  1  0  0  0  0  0  0
  161.7480  209.1010  149.8180 C   0  0  0  0  0  3  0  0  0  0  0  0
  161.2930  209.3670  151.1950 C   0  0  0  0  0  0  0  0  0  0  0  0
  158.6830  211.1090  155.3310 C   0  0  2  0  0  3  0  0  0  0  0  0
  162.1840  208.2810  156.5860 C   0  0  0  0  0  2  0  0  0  0  0  0
  163.0550  210.4440  156.5220 C   0  0  0  0  0  1  0  0  0  0  0  0
  162.1590  209.5720  157.2570 N   0  0  0  0  0  2  0  0  0  0  0  0
  1  4  1  0  0  0  0
  1  5  1  0  0  0  0
  2 19  1  0  0  0  0
  2 16  2  0  0  0  0
  3 17  1  0  0  0  0
  3 10  1  0  0  0  0
  4 12  1  0  0  0  0
  5 11  1  0  0  0  0
  7 27  1  0  0  0  0
  7 15  1  1  0  0  0
  8  6  2  0  0  0  0
  9 14  1  6  0  0  0
  9  7  1  0  0  0  0
 10 22  1  0  0  0  0
 11  8  1  0  0  0  0
 11 28  1  6  0  0  0
 12 27  1  0  0  0  0
 12  8  1  0  0  0  0
 13  2  1  0  0  0  0
 14 23  1  0  0  0  0
 17 20  1  0  0  0  0
 18 25  2  0  0  0  0
 18 13  1  0  0  0  0
 19  1  2  0  0  0  0
 20 22  1  0  0  0  0
 20  4  2  0  0  0  0
 21 10  2  0  0  0  0
 22  9  1  0  0  0  0
 23 15  1  0  0  0  0
 25 26  1  0  0  0  0
 26 17  2  0  0  0  0
 26 19  1  0  0  0  0
 27 24  1  6  0  0  0
 28 30  1  0  0  0  0
 29 30  1  0  0  0  0
M  END
>  <MODEL>
4

>  <REMARK>
 VINA RESULT:      -4.6      4.778      8.504
  Name = 
  2 active torsions:
  status: ('A' for Active; 'I' for Inactive)
    1  A    between atoms: C_11  and  C_28
    2  A    between atoms: C_28  and  N_30
                            x       y       z     vdW  Elec       q    Type
                         _______ _______ _______ _____ _____    ______ ____

>  <TORSDO>
F 2

$$$$
=
 OpenBabel11122412393D

 30 35  0  0  1  0  0  0  0  0999 V2000
  161.3870  204.6330  148.7490 C   0  0  0  0  0  0  0  0  0  0  0  0
  161.2430  202.1450  148.1880 C   0  0  0  0  0  0  0  0  0  0  0  0
  160.7010  203.9270  152.7390 N   0  0  0  0  0  2  0  0  0  0  0  0
  161.3860  205.6810  149.7070 C   0  0  0  0  0  0  0  0  0  0  0  0
  161.5800  204.9580  147.3680 N   0  0  0  0  0  2  0  0  0  0  0  0
  162.2790  208.4500  147.5080 O   0  0  0  0  0  0  0  0  0  0  0  0
  161.0530  208.4620  151.1210 C   0  0  1  0  0  3  0  0  0  0  0  0
  161.8690  207.3200  147.8860 C   0  0  0  0  0  0  0  0  0  0  0  0
  160.7530  207.5670  152.3140 C   0  0  2  0  0  3  0  0  0  0  0  0
  160.7080  205.2170  153.1400 C   0  0  0  0  0  0  0  0  0  0  0  0
  161.4500  206.3180  146.8560 C   0  0  2  0  0  3  0  0  0  0  0  0
  161.7710  207.0080  149.2880 N   0  0  0  0  0  0  0  0  0  0  0  0
  160.7260  200.7940  148.5950 C   0  0  0  0  0  2  0  0  0  0  0  0
  161.5510  208.1460  153.4660 C   0  0  0  0  0  2  0  0  0  0  0  0
  161.3650  209.8280  151.7120 C   0  0  0  0  0  2  0  0  0  0  0  0
  161.6680  202.2980  147.0130 O   0  0  0  0  0  0  0  0  0  0  0  0
  160.9480  204.0280  151.4220 C   0  0  0  0  0  0  0  0  0  0  0  0
  160.7480  200.5780  150.0830 C   0  0  0  0  0  3  0  0  0  0  0  0
  161.2070  203.2790  149.1490 C   0  0  0  0  0  0  0  0  0  0  0  0
  161.1120  205.3390  151.0500 C   0  0  0  0  0  0  0  0  0  0  0  0
  160.4560  205.5460  154.3300 O   0  0  0  0  0  0  0  0  0  0  0  0
  160.9660  206.1170  152.1540 N   0  0  0  0  0  0  0  0  0  0  0  0
  161.5810  209.6370  153.2060 C   0  0  0  0  0  2  0  0  0  0  0  0
  163.4830  207.5990  150.9720 C   0  0  0  0  0  1  0  0  0  0  0  0
  160.8340  201.5830  150.9560 C   0  0  0  0  0  3  0  0  0  0  0  0
  160.9900  202.9780  150.5090 C   0  0  0  0  0  0  0  0  0  0  0  0
  162.2110  208.0180  150.2390 C   0  0  2  0  0  3  0  0  0  0  0  0
  160.0270  206.5790  146.3670 C   0  0  0  0  0  2  0  0  0  0  0  0
  160.9740  205.7550  144.4010 C   0  0  0  0  0  1  0  0  0  0  0  0
  159.7370  205.8280  145.1550 N   0  0  0  0  0  2  0  0  0  0  0  0
  1 19  2  0  0  0  0
  1  4  1  0  0  0  0
  2 13  1  0  0  0  0
  2 19  1  0  0  0  0
  3 10  1  0  0  0  0
  4 20  2  0  0  0  0
  5  1  1  0  0  0  0
  6  8  2  0  0  0  0
  7 15  1  1  0  0  0
  7  9  1  0  0  0  0
  8 12  1  0  0  0  0
  9 14  1  1  0  0  0
 10 21  2  0  0  0  0
 11 28  1  1  0  0  0
 11  5  1  0  0  0  0
 11  8  1  0  0  0  0
 12  4  1  0  0  0  0
 12 27  1  0  0  0  0
 13 18  1  0  0  0  0
 15 23  1  0  0  0  0
 16  2  2  0  0  0  0
 17  3  1  0  0  0  0
 18 25  2  0  0  0  0
 19 26  1  0  0  0  0
 20 17  1  0  0  0  0
 20 22  1  0  0  0  0
 22  9  1  0  0  0  0
 22 10  1  0  0  0  0
 23 14  1  0  0  0  0
 26 25  1  0  0  0  0
 26 17  2  0  0  0  0
 27 24  1  1  0  0  0
 27  7  1  0  0  0  0
 29 30  1  0  0  0  0
 30 28  1  0  0  0  0
M  END
>  <MODEL>
5

>  <REMARK>
 VINA RESULT:      -4.6      1.134      1.538
  Name = 
  2 active torsions:
  status: ('A' for Active; 'I' for Inactive)
    1  A    between atoms: C_11  and  C_28
    2  A    between atoms: C_28  and  N_30
                            x       y       z     vdW  Elec       q    Type
                         _______ _______ _______ _____ _____    ______ ____

>  <TORSDO>
F 2

$$$$
=
 OpenBabel11122412393D

 30 35  0  0  1  0  0  0  0  0999 V2000
  160.7940  211.0390  153.1660 C   0  0  0  0  0  0  0  0  0  0  0  0
  161.1230  210.3820  155.6130 C   0  0  0  0  0  0  0  0  0  0  0  0
  157.2950  213.0210  154.0110 N   0  0  0  0  0  2  0  0  0  0  0  0
  160.0630  211.7310  152.1650 C   0  0  0  0  0  0  0  0  0  0  0  0
  161.9780  210.3250  152.7910 N   0  0  0  0  0  2  0  0  0  0  0  0
  162.3320  211.2110  149.3570 O   0  0  0  0  0  0  0  0  0  0  0  0
  158.7770  212.5930  149.4360 C   0  0  1  0  0  3  0  0  0  0  0  0
  161.7750  211.0550  150.4760 C   0  0  0  0  0  0  0  0  0  0  0  0
  157.6670  213.0630  150.3660 C   0  0  2  0  0  3  0  0  0  0  0  0
  156.9970  213.3810  152.7440 C   0  0  0  0  0  0  0  0  0  0  0  0
  162.2910  209.9990  151.4040 C   0  0  2  0  0  3  0  0  0  0  0  0
  160.6370  211.8570  150.8450 N   0  0  0  0  0  0  0  0  0  0  0  0
  160.4730  210.1470  156.9480 C   0  0  0  0  0  2  0  0  0  0  0  0
  157.3000  214.4530  149.8890 C   0  0  0  0  0  2  0  0  0  0  0  0
  158.5290  213.3130  148.1190 C   0  0  0  0  0  2  0  0  0  0  0  0
  162.2960  209.9640  155.4320 O   0  0  0  0  0  0  0  0  0  0  0  0
  158.4630  212.3730  153.8650 C   0  0  0  0  0  0  0  0  0  0  0  0
  159.3470  211.1020  157.2320 C   0  0  0  0  0  3  0  0  0  0  0  0
  160.3680  211.0560  154.5240 C   0  0  0  0  0  0  0  0  0  0  0  0
  158.8580  212.3590  152.5510 C   0  0  0  0  0  0  0  0  0  0  0  0
  155.9250  213.9770  152.4540 O   0  0  0  0  0  0  0  0  0  0  0  0
  157.9220  213.0130  151.8170 N   0  0  0  0  0  0  0  0  0  0  0  0
  157.5240  214.4220  148.3920 C   0  0  0  0  0  2  0  0  0  0  0  0
  160.4500  214.2880  150.4360 C   0  0  0  0  0  1  0  0  0  0  0  0
  158.7370  211.8030  156.2760 C   0  0  0  0  0  3  0  0  0  0  0  0
  159.1850  211.7400  154.8730 C   0  0  0  0  0  0  0  0  0  0  0  0
  160.1960  212.8780  149.9080 C   0  0  2  0  0  3  0  0  0  0  0  0
  161.7510  208.6190  151.0360 C   0  0  0  0  0  2  0  0  0  0  0  0
  161.2150  206.4890  151.8200 C   0  0  0  0  0  1  0  0  0  0  0  0
  161.3400  207.8780  152.2190 N   0  0  0  0  0  2  0  0  0  0  0  0
  1 19  1  0  0  0  0
  2 13  1  0  0  0  0
  4 20  1  0  0  0  0
  4  1  2  0  0  0  0
  5  1  1  0  0  0  0
  6  8  2  0  0  0  0
  7 15  1  6  0  0  0
  7 27  1  0  0  0  0
  7  9  1  0  0  0  0
  8 12  1  0  0  0  0
  8 11  1  0  0  0  0
  9 14  1  6  0  0  0
  9 22  1  0  0  0  0
 10  3  1  0  0  0  0
 11 28  1  6  0  0  0
 11  5  1  0  0  0  0
 12  4  1  0  0  0  0
 13 18  1  0  0  0  0
 15 23  1  0  0  0  0
 16  2  2  0  0  0  0
 17  3  1  0  0  0  0
 17 26  1  0  0  0  0
 19 26  2  0  0  0  0
 19  2  1  0  0  0  0
 20 17  2  0  0  0  0
 21 10  2  0  0  0  0
 22 20  1  0  0  0  0
 22 10  1  0  0  0  0
 23 14  1  0  0  0  0
 25 18  2  0  0  0  0
 26 25  1  0  0  0  0
 27 24  1  1  0  0  0
 27 12  1  0  0  0  0
 28 30  1  0  0  0  0
 29 30  1  0  0  0  0
M  END
>  <MODEL>
6

>  <REMARK>
 VINA RESULT:      -3.8      5.600      9.385
  Name = 
  2 active torsions:
  status: ('A' for Active; 'I' for Inactive)
    1  A    between atoms: C_11  and  C_28
    2  A    between atoms: C_28  and  N_30
                            x       y       z     vdW  Elec       q    Type
                         _______ _______ _______ _____ _____    ______ ____

>  <TORSDO>
F 2

$$$$
=
 OpenBabel11122412393D

 30 35  0  0  1  0  0  0  0  0999 V2000
  161.4160  203.8190  148.2320 C   0  0  0  0  0  0  0  0  0  0  0  0
  161.0510  201.3680  148.8510 C   0  0  0  0  0  0  0  0  0  0  0  0
  160.8970  205.0360  152.1220 N   0  0  0  0  0  2  0  0  0  0  0  0
  161.5480  205.1790  148.6160 C   0  0  0  0  0  0  0  0  0  0  0  0
  161.5590  203.4730  146.8490 N   0  0  0  0  0  2  0  0  0  0  0  0
  162.5310  206.5780  145.3940 O   0  0  0  0  0  0  0  0  0  0  0  0
  161.5080  208.3160  148.6330 C   0  0  1  0  0  3  0  0  0  0  0  0
  162.0560  205.7790  146.2460 C   0  0  0  0  0  0  0  0  0  0  0  0
  161.2060  208.0800  150.1060 C   0  0  2  0  0  3  0  0  0  0  0  0
  161.0260  206.3620  151.9000 C   0  0  0  0  0  0  0  0  0  0  0  0
  161.5060  204.4660  145.7820 C   0  0  2  0  0  3  0  0  0  0  0  0
  162.0110  206.1370  147.6400 N   0  0  0  0  0  0  0  0  0  0  0  0
  160.4540  200.3950  149.8290 C   0  0  0  0  0  2  0  0  0  0  0  0
  162.1070  209.0350  150.8620 C   0  0  0  0  0  2  0  0  0  0  0  0
  161.9560  209.7670  148.5420 C   0  0  0  0  0  2  0  0  0  0  0  0
  161.4220  200.9390  147.7270 O   0  0  0  0  0  0  0  0  0  0  0  0
  161.0790  204.5150  150.8970 C   0  0  0  0  0  0  0  0  0  0  0  0
  160.5410  200.8660  151.2550 C   0  0  0  0  0  3  0  0  0  0  0  0
  161.1550  202.8090  149.2000 C   0  0  0  0  0  0  0  0  0  0  0  0
  161.3230  205.5000  149.9730 C   0  0  0  0  0  0  0  0  0  0  0  0
  160.8650  207.2100  152.8190 O   0  0  0  0  0  0  0  0  0  0  0  0
  161.2980  206.6980  150.6110 N   0  0  0  0  0  0  0  0  0  0  0  0
  162.2380  210.2440  149.9600 C   0  0  0  0  0  2  0  0  0  0  0  0
  163.8530  207.2550  148.8540 C   0  0  0  0  0  1  0  0  0  0  0  0
  160.7510  202.1410  151.5820 C   0  0  0  0  0  3  0  0  0  0  0  0
  160.9900  203.1690  150.5530 C   0  0  0  0  0  0  0  0  0  0  0  0
  162.5790  207.4190  148.0280 C   0  0  2  0  0  3  0  0  0  0  0  0
  160.0830  204.6130  145.2490 C   0  0  0  0  0  2  0  0  0  0  0  0
  159.7060  202.3780  144.6990 C   0  0  0  0  0  1  0  0  0  0  0  0
  159.8370  203.7080  144.1360 N   0  0  0  0  0  2  0  0  0  0  0  0
  1  4  2  0  0  0  0
  1 19  1  0  0  0  0
  2 19  1  0  0  0  0
  2 13  1  0  0  0  0
  4 20  1  0  0  0  0
  5  1  1  0  0  0  0
  6  8  2  0  0  0  0
  7 15  1  1  0  0  0
  7  9  1  0  0  0  0
  8 12  1  0  0  0  0
  9 22  1  0  0  0  0
  9 14  1  1  0  0  0
 10  3  1  0  0  0  0
 10 21  2  0  0  0  0
 11 28  1  1  0  0  0
 11  8  1  0  0  0  0
 11  5  1  0  0  0  0
 12 27  1  0  0  0  0
 12  4  1  0  0  0  0
 13 18  1  0  0  0  0
 15 23  1  0  0  0  0
 16  2  2  0  0  0  0
 17  3  1  0  0  0  0
 18 25  2  0  0  0  0
 19 26  2  0  0  0  0
 20 22  1  0  0  0  0
 20 17  2  0  0  0  0
 22 10  1  0  0  0  0
 23 14  1  0  0  0  0
 26 17  1  0  0  0  0
 26 25  1  0  0  0  0
 27  7  1  0  0  0  0
 27 24  1  1  0  0  0
 30 29  1  0  0  0  0
 30 28  1  0  0  0  0
M  END
>  <MODEL>
7

>  <REMARK>
 VINA RESULT:      -3.7      1.899      2.881
  Name = 
  2 active torsions:
  status: ('A' for Active; 'I' for Inactive)
    1  A    between atoms: C_11  and  C_28
    2  A    between atoms: C_28  and  N_30
                            x       y       z     vdW  Elec       q    Type
                         _______ _______ _______ _____ _____    ______ ____

>  <TORSDO>
F 2

$$$$
=
 OpenBabel11122412393D

 30 35  0  0  1  0  0  0  0  0999 V2000
  161.1920  208.8850  151.5770 C   0  0  0  0  0  0  0  0  0  0  0  0
  160.8440  209.8580  153.9120 C   0  0  0  0  0  0  0  0  0  0  0  0
  161.2670  205.0400  153.0260 N   0  0  0  0  0  2  0  0  0  0  0  0
  161.3200  207.7610  150.7180 C   0  0  0  0  0  0  0  0  0  0  0  0
  161.2270  210.1990  151.0080 N   0  0  0  0  0  2  0  0  0  0  0  0
  161.3050  209.5030  147.5130 O   0  0  0  0  0  0  0  0  0  0  0  0
  162.1030  205.8660  148.3430 C   0  0  1  0  0  3  0  0  0  0  0  0
  161.4120  209.2990  148.7520 C   0  0  0  0  0  0  0  0  0  0  0  0
  162.0650  204.8280  149.4560 C   0  0  2  0  0  3  0  0  0  0  0  0
  161.5010  204.4220  151.8480 C   0  0  0  0  0  0  0  0  0  0  0  0
  161.7080  210.4560  149.6550 C   0  0  2  0  0  3  0  0  0  0  0  0
  161.2850  207.9690  149.2890 N   0  0  0  0  0  0  0  0  0  0  0  0
  161.0030  209.6570  155.3930 C   0  0  0  0  0  2  0  0  0  0  0  0
  161.2950  203.6530  148.8880 C   0  0  0  0  0  2  0  0  0  0  0  0
  162.0370  205.0690  147.0490 C   0  0  0  0  0  2  0  0  0  0  0  0
  160.5940  211.0160  153.4860 O   0  0  0  0  0  0  0  0  0  0  0  0
  161.1930  206.3330  152.6690 C   0  0  0  0  0  0  0  0  0  0  0  0
  160.7720  208.2340  155.8230 C   0  0  0  0  0  3  0  0  0  0  0  0
  161.0240  208.7150  152.9800 C   0  0  0  0  0  0  0  0  0  0  0  0
  161.3640  206.4820  151.3160 C   0  0  0  0  0  0  0  0  0  0  0  0
  161.6890  203.1780  151.7730 O   0  0  0  0  0  0  0  0  0  0  0  0
  161.5570  205.2530  150.7730 N   0  0  0  0  0  0  0  0  0  0  0  0
  161.6230  203.6500  147.4100 C   0  0  0  0  0  2  0  0  0  0  0  0
  159.5730  206.3340  148.5770 C   0  0  0  0  0  1  0  0  0  0  0  0
  160.8150  207.2080  154.9720 C   0  0  0  0  0  3  0  0  0  0  0  0
  161.0210  207.4160  153.5270 C   0  0  0  0  0  0  0  0  0  0  0  0
  160.9780  206.8910  148.3620 C   0  0  2  0  0  3  0  0  0  0  0  0
  163.1980  210.7900  149.6650 C   0  0  0  0  0  2  0  0  0  0  0  0
  162.3860  212.5910  148.4270 C   0  0  0  0  0  1  0  0  0  0  0  0
  163.5380  211.7300  148.6080 N   0  0  0  0  0  2  0  0  0  0  0  0
  1 19  1  0  0  0  0
  2 13  1  0  0  0  0
  4 20  1  0  0  0  0
  4  1  2  0  0  0  0
  5  1  1  0  0  0  0
  6  8  2  0  0  0  0
  7 15  1  6  0  0  0
  7 27  1  0  0  0  0
  7  9  1  0  0  0  0
  8 12  1  0  0  0  0
  8 11  1  0  0  0  0
  9 14  1  6  0  0  0
  9 22  1  0  0  0  0
 10  3  1  0  0  0  0
 11 28  1  1  0  0  0
 11  5  1  0  0  0  0
 12  4  1  0  0  0  0
 13 18  1  0  0  0  0
 15 23  1  0  0  0  0
 16  2  2  0  0  0  0
 17  3  1  0  0  0  0
 17 26  1  0  0  0  0
 19 26  2  0  0  0  0
 19  2  1  0  0  0  0
 20 17  2  0  0  0  0
 21 10  2  0  0  0  0
 22 20  1  0  0  0  0
 22 10  1  0  0  0  0
 23 14  1  0  0  0  0
 25 18  2  0  0  0  0
 26 25  1  0  0  0  0
 27 24  1  1  0  0  0
 27 12  1  0  0  0  0
 29 30  1  0  0  0  0
 30 28  1  0  0  0  0
M  END
>  <MODEL>
8

>  <REMARK>
 VINA RESULT:      -3.4      2.565      6.350
  Name = 
  2 active torsions:
  status: ('A' for Active; 'I' for Inactive)
    1  A    between atoms: C_11  and  C_28
    2  A    between atoms: C_28  and  N_30
                            x       y       z     vdW  Elec       q    Type
                         _______ _______ _______ _____ _____    ______ ____

>  <TORSDO>
F 2

$$$$
=
 OpenBabel11122412393D

 30 35  0  0  1  0  0  0  0  0999 V2000
  161.5120  208.6260  151.6570 C   0  0  0  0  0  0  0  0  0  0  0  0
  161.9540  210.9740  150.7530 C   0  0  0  0  0  0  0  0  0  0  0  0
  161.3890  207.0280  147.8730 N   0  0  0  0  0  2  0  0  0  0  0  0
  161.3320  207.2350  151.4350 C   0  0  0  0  0  0  0  0  0  0  0  0
  161.4920  209.1210  153.0010 N   0  0  0  0  0  2  0  0  0  0  0  0
  161.2940  206.1150  154.9060 O   0  0  0  0  0  0  0  0  0  0  0  0
  160.4340  204.2400  151.6970 C   0  0  1  0  0  3  0  0  0  0  0  0
  161.2190  206.8760  153.9040 C   0  0  0  0  0  0  0  0  0  0  0  0
  160.4800  204.3290  150.1780 C   0  0  2  0  0  3  0  0  0  0  0  0
  161.1060  205.7590  148.2370 C   0  0  0  0  0  0  0  0  0  0  0  0
  160.9770  208.3380  154.1180 C   0  0  2  0  0  3  0  0  0  0  0  0
  161.3300  206.3430  152.5710 N   0  0  0  0  0  0  0  0  0  0  0  0
  161.8340  211.9130  149.5860 C   0  0  0  0  0  2  0  0  0  0  0  0
  161.2050  203.0790  149.7210 C   0  0  0  0  0  2  0  0  0  0  0  0
  160.4420  202.7520  152.0130 C   0  0  0  0  0  2  0  0  0  0  0  0
  162.2180  211.4530  151.8860 O   0  0  0  0  0  0  0  0  0  0  0  0
  161.4830  207.6590  149.0560 C   0  0  0  0  0  0  0  0  0  0  0  0
  162.0430  211.2350  148.2600 C   0  0  0  0  0  3  0  0  0  0  0  0
  161.7180  209.5180  150.5670 C   0  0  0  0  0  0  0  0  0  0  0  0
  161.2760  206.7880  150.0960 C   0  0  0  0  0  0  0  0  0  0  0  0
  160.8860  204.8550  147.3870 O   0  0  0  0  0  0  0  0  0  0  0  0
  161.0380  205.5550  149.5790 N   0  0  0  0  0  0  0  0  0  0  0  0
  160.8330  202.0200  150.7370 C   0  0  0  0  0  2  0  0  0  0  0  0
  162.9810  204.6350  151.8830 C   0  0  0  0  0  1  0  0  0  0  0  0
  161.9500  209.9140  148.1030 C   0  0  0  0  0  3  0  0  0  0  0  0
  161.7070  209.0190  149.2490 C   0  0  0  0  0  0  0  0  0  0  0  0
  161.5840  204.9170  152.4300 C   0  0  2  0  0  3  0  0  0  0  0  0
  159.4960  208.6320  154.3480 C   0  0  0  0  0  2  0  0  0  0  0  0
  160.1600  209.3270  156.4730 C   0  0  0  0  0  1  0  0  0  0  0  0
  159.3110  209.6720  155.3490 N   0  0  0  0  0  2  0  0  0  0  0  0
  1  5  1  0  0  0  0
  2 16  2  0  0  0  0
  3 10  1  0  0  0  0
  3 17  1  0  0  0  0
  4  1  1  0  0  0  0
  4 12  1  0  0  0  0
  5 11  1  0  0  0  0
  7 15  1  6  0  0  0
  7 27  1  0  0  0  0
  8 11  1  0  0  0  0
  8  6  2  0  0  0  0
  9 14  1  1  0  0  0
  9  7  1  0  0  0  0
 10 22  1  0  0  0  0
 11 28  1  6  0  0  0
 12  8  1  0  0  0  0
 13  2  1  0  0  0  0
 14 23  1  0  0  0  0
 17 26  2  0  0  0  0
 17 20  1  0  0  0  0
 18 13  1  0  0  0  0
 19  2  1  0  0  0  0
 19  1  2  0  0  0  0
 20  4  2  0  0  0  0
 21 10  2  0  0  0  0
 22 20  1  0  0  0  0
 22  9  1  0  0  0  0
 23 15  1  0  0  0  0
 25 18  2  0  0  0  0
 25 26  1  0  0  0  0
 26 19  1  0  0  0  0
 27 24  1  6  0  0  0
 27 12  1  0  0  0  0
 28 30  1  0  0  0  0
 30 29  1  0  0  0  0
M  END
>  <MODEL>
9

>  <REMARK>
 VINA RESULT:      -3.4      2.658      7.046
  Name = 
  2 active torsions:
  status: ('A' for Active; 'I' for Inactive)
    1  A    between atoms: C_11  and  C_28
    2  A    between atoms: C_28  and  N_30
                            x       y       z     vdW  Elec       q    Type
                         _______ _______ _______ _____ _____    ______ ____

>  <TORSDO>
F 2

$$$$
