=
 OpenBabel11122413323D

 37 43  0  0  1  0  0  0  0  0999 V2000
  161.0830  207.1640  152.0550 C   0  0  0  0  0  2  0  0  0  0  0  0
  160.2260  207.6360  156.3330 C   0  0  0  0  0  0  0  0  0  0  0  0
  160.1460  211.3610  154.3070 C   0  0  2  0  0  3  0  0  0  0  0  0
  161.4800  206.6190  150.6740 C   0  0  2  0  0  3  0  0  0  0  0  0
  161.3110  211.5780  151.0210 O   0  0  0  0  0  0  0  0  0  0  0  0
  159.4760  210.0690  156.2570 C   0  0  2  0  0  3  0  0  0  0  0  0
  160.2940  210.8440  153.0760 C   0  0  0  0  0  0  0  0  0  0  0  0
  162.1800  208.2720  149.3170 C   0  0  2  0  0  3  0  0  0  0  0  0
  160.6150  210.3860  155.3220 C   0  0  1  0  0  3  0  0  0  0  0  0
  160.0890  211.4620  151.7080 C   0  0  1  0  0  3  0  0  0  0  0  0
  159.1200  211.3540  156.9980 C   0  0  0  0  0  2  0  0  0  0  0  0
  161.0580  207.4880  149.6490 O   0  0  0  0  0  0  0  0  0  0  0  0
  160.9180  209.1960  154.5100 C   0  0  1  0  0  3  0  0  0  0  0  0
  158.9390  207.0570  155.7700 C   0  0  0  0  0  1  0  0  0  0  0  0
  158.8880  213.5370  153.7820 C   0  0  0  0  0  2  0  0  0  0  0  0
  158.6250  212.4150  155.9880 C   0  0  0  0  0  2  0  0  0  0  0  0
  161.2210  207.8900  155.1740 C   0  0  0  0  0  2  0  0  0  0  0  0
  162.3260  209.5040  150.2400 C   0  0  1  0  0  3  0  0  0  0  0  0
  161.2570  210.5990  150.0130 C   0  0  0  0  0  2  0  0  0  0  0  0
  159.6000  212.6790  154.8160 C   0  0  1  0  0  3  0  0  0  0  0  0
  160.7700  209.4710  153.2220 C   0  0  0  0  0  0  0  0  0  0  0  0
  159.9060  208.9090  157.1630 C   0  0  0  0  0  2  0  0  0  0  0  0
  159.2500  212.7410  151.6580 C   0  0  1  0  0  3  0  0  0  0  0  0
  160.8350  206.6050  157.2610 C   0  0  0  0  0  1  0  0  0  0  0  0
  162.4760  209.1190  151.5930 O   0  0  0  0  0  0  0  0  0  0  0  0
  162.1010  208.6690  147.9810 O   0  0  0  0  0  1  0  0  0  0  0  0
  161.2230  208.6770  152.0480 C   0  0  1  0  0  3  0  0  0  0  0  0
  159.7190  213.7310  152.6100 N   0  0  0  0  0  2  0  0  0  0  0  0
  160.2650  213.8840  149.6800 C   0  0  0  0  0  3  0  0  0  0  0  0
  159.1360  213.3130  150.2770 C   0  0  0  0  0  0  0  0  0  0  0  0
  157.9100  213.3250  149.5930 C   0  0  0  0  0  3  0  0  0  0  0  0
  156.5790  213.8980  147.6280 N   0  0  0  0  0  1  0  0  0  0  0  0
  158.9550  214.4530  147.7240 C   0  0  0  0  0  3  0  0  0  0  0  0
  157.8220  213.8910  148.3190 C   0  0  0  0  0  0  0  0  0  0  0  0
  160.1760  214.4510  148.4060 C   0  0  0  0  0  3  0  0  0  0  0  0
  160.8270  204.9520  149.0950 O   0  0  0  0  0  1  0  0  0  0  0  0
  160.8760  205.2440  150.4590 C   0  0  0  0  0  2  0  0  0  0  0  0
  2 22  1  0  0  0  0
  2 24  1  0  0  0  0
  3  7  1  1  0  0  0
  3 20  1  0  0  0  0
  3  9  1  0  0  0  0
  4 37  1  6  0  0  0
  4  1  1  0  0  0  0
  5 10  1  0  0  0  0
  6 11  1  1  0  0  0
  6 22  1  0  0  0  0
  7 21  2  0  0  0  0
  8 26  1  6  0  0  0
  8 12  1  0  0  0  0
  8 18  1  0  0  0  0
  9  6  1  0  0  0  0
 10  7  1  0  0  0  0
 12  4  1  0  0  0  0
 13 17  1  0  0  0  0
 13  9  1  0  0  0  0
 14  2  1  0  0  0  0
 15 20  1  0  0  0  0
 16 11  1  0  0  0  0
 17  2  1  0  0  0  0
 18 25  1  0  0  0  0
 19 18  1  0  0  0  0
 19  5  1  0  0  0  0
 20 16  1  0  0  0  0
 21 13  1  0  0  0  0
 23 10  1  0  0  0  0
 23 28  1  0  0  0  0
 25 27  1  0  0  0  0
 27  1  1  0  0  0  0
 27 21  1  0  0  0  0
 28 15  1  0  0  0  0
 29 30  1  0  0  0  0
 30 23  1  0  0  0  0
 31 30  2  0  0  0  0
 32 34  1  0  0  0  0
 33 34  2  0  0  0  0
 33 35  1  0  0  0  0
 34 31  1  0  0  0  0
 35 29  2  0  0  0  0
 36 37  1  0  0  0  0
M  END
>  <MODEL>
1

>  <REMARK>
 VINA RESULT:      -6.5      0.000      0.000
  Name = 
  2 active torsions:
  status: ('A' for Active; 'I' for Inactive)
    1  A    between atoms: C_4  and  C_37
    2  A    between atoms: C_23  and  C_30
                            x       y       z     vdW  Elec       q    Type
                         _______ _______ _______ _____ _____    ______ ____

>  <TORSDO>
F 2

$$$$
=
 OpenBabel11122413323D

 37 43  0  0  1  0  0  0  0  0999 V2000
  161.0740  207.0920  152.0480 C   0  0  0  0  0  2  0  0  0  0  0  0
  160.2390  207.6130  156.3250 C   0  0  0  0  0  0  0  0  0  0  0  0
  160.1560  211.3160  154.2570 C   0  0  2  0  0  3  0  0  0  0  0  0
  161.4630  206.5310  150.6710 C   0  0  2  0  0  3  0  0  0  0  0  0
  161.3050  211.4930  150.9630 O   0  0  0  0  0  0  0  0  0  0  0  0
  159.4930  210.0470  156.2240 C   0  0  2  0  0  3  0  0  0  0  0  0
  160.2970  210.7850  153.0310 C   0  0  0  0  0  0  0  0  0  0  0  0
  162.1600  208.1670  149.2920 C   0  0  2  0  0  3  0  0  0  0  0  0
  160.6280  210.3510  155.2800 C   0  0  1  0  0  3  0  0  0  0  0  0
  160.0860  211.3870  151.6570 C   0  0  1  0  0  3  0  0  0  0  0  0
  159.1430  211.3420  156.9520 C   0  0  0  0  0  2  0  0  0  0  0  0
  161.0380  207.3880  149.6380 O   0  0  0  0  0  0  0  0  0  0  0  0
  160.9240  209.1520  154.4800 C   0  0  1  0  0  3  0  0  0  0  0  0
  158.9480  207.0310  155.7740 C   0  0  0  0  0  1  0  0  0  0  0  0
  158.9000  213.4880  153.7130 C   0  0  0  0  0  2  0  0  0  0  0  0
  158.6450  212.3920  155.9330 C   0  0  0  0  0  2  0  0  0  0  0  0
  161.2280  207.8530  155.1570 C   0  0  0  0  0  2  0  0  0  0  0  0
  162.3130  209.4090  150.2000 C   0  0  1  0  0  3  0  0  0  0  0  0
  161.2450  210.5030  149.9660 C   0  0  0  0  0  2  0  0  0  0  0  0
  159.6150  212.6400  154.7530 C   0  0  1  0  0  3  0  0  0  0  0  0
  160.7710  209.4120  153.1900 C   0  0  0  0  0  0  0  0  0  0  0  0
  159.9260  208.8970  157.1410 C   0  0  0  0  0  2  0  0  0  0  0  0
  159.2490  212.6670  151.5970 C   0  0  1  0  0  3  0  0  0  0  0  0
  160.8510  206.5930  157.2610 C   0  0  0  0  0  1  0  0  0  0  0  0
  162.4690  209.0380  151.5570 O   0  0  0  0  0  0  0  0  0  0  0  0
  162.0750  208.5480  147.9520 O   0  0  0  0  0  1  0  0  0  0  0  0
  161.2170  208.6050  152.0230 C   0  0  1  0  0  3  0  0  0  0  0  0
  159.7250  213.6670  152.5350 N   0  0  0  0  0  2  0  0  0  0  0  0
  157.8630  213.3370  149.6270 C   0  0  0  0  0  3  0  0  0  0  0  0
  159.1300  213.2240  150.2100 C   0  0  0  0  0  0  0  0  0  0  0  0
  160.2670  213.5910  149.4730 C   0  0  0  0  0  3  0  0  0  0  0  0
  161.2870  214.4530  147.4290 N   0  0  0  0  0  1  0  0  0  0  0  0
  158.8630  214.1960  147.5960 C   0  0  0  0  0  3  0  0  0  0  0  0
  160.1320  214.0790  148.1700 C   0  0  0  0  0  0  0  0  0  0  0  0
  157.7290  213.8240  148.3240 C   0  0  0  0  0  3  0  0  0  0  0  0
  160.8270  204.8340  149.1160 O   0  0  0  0  0  1  0  0  0  0  0  0
  160.8550  205.1540  150.4750 C   0  0  0  0  0  2  0  0  0  0  0  0
  2 22  1  0  0  0  0
  2 24  1  0  0  0  0
  3  7  1  1  0  0  0
  3 20  1  0  0  0  0
  3  9  1  0  0  0  0
  4 37  1  6  0  0  0
  4  1  1  0  0  0  0
  5 10  1  0  0  0  0
  6 11  1  1  0  0  0
  6 22  1  0  0  0  0
  7 21  2  0  0  0  0
  8 26  1  6  0  0  0
  8 12  1  0  0  0  0
  8 18  1  0  0  0  0
  9  6  1  0  0  0  0
 10  7  1  0  0  0  0
 12  4  1  0  0  0  0
 13 17  1  0  0  0  0
 13  9  1  0  0  0  0
 14  2  1  0  0  0  0
 15 20  1  0  0  0  0
 16 11  1  0  0  0  0
 17  2  1  0  0  0  0
 18 25  1  0  0  0  0
 19 18  1  0  0  0  0
 19  5  1  0  0  0  0
 20 16  1  0  0  0  0
 21 13  1  0  0  0  0
 23 10  1  0  0  0  0
 23 28  1  0  0  0  0
 25 27  1  0  0  0  0
 27  1  1  0  0  0  0
 27 21  1  0  0  0  0
 28 15  1  0  0  0  0
 29 30  1  0  0  0  0
 30 23  1  0  0  0  0
 31 30  2  0  0  0  0
 32 34  1  0  0  0  0
 33 34  2  0  0  0  0
 33 35  1  0  0  0  0
 34 31  1  0  0  0  0
 35 29  2  0  0  0  0
 36 37  1  0  0  0  0
M  END
>  <MODEL>
2

>  <REMARK>
 VINA RESULT:      -6.4      0.791      1.119
  Name = 
  2 active torsions:
  status: ('A' for Active; 'I' for Inactive)
    1  A    between atoms: C_4  and  C_37
    2  A    between atoms: C_23  and  C_30
                            x       y       z     vdW  Elec       q    Type
                         _______ _______ _______ _____ _____    ______ ____

>  <TORSDO>
F 2

$$$$
=
 OpenBabel11122413323D

 37 43  0  0  1  0  0  0  0  0999 V2000
  161.1430  210.3060  147.4960 C   0  0  0  0  0  2  0  0  0  0  0  0
  161.6890  205.9650  147.1470 C   0  0  0  0  0  0  0  0  0  0  0  0
  161.7410  207.2230  151.1980 C   0  0  2  0  0  3  0  0  0  0  0  0
  161.0030  211.8090  147.2130 C   0  0  2  0  0  3  0  0  0  0  0  0
  161.9080  210.6270  151.9590 O   0  0  0  0  0  0  0  0  0  0  0  0
  161.4360  205.3980  149.6180 C   0  0  2  0  0  3  0  0  0  0  0  0
  161.4180  208.5010  150.9430 C   0  0  0  0  0  0  0  0  0  0  0  0
  161.5800  213.0340  149.0110 C   0  0  2  0  0  3  0  0  0  0  0  0
  162.2890  206.5880  149.9740 C   0  0  1  0  0  3  0  0  0  0  0  0
  160.9440  209.6090  151.8610 C   0  0  1  0  0  3  0  0  0  0  0  0
  161.5700  204.3830  150.7500 C   0  0  0  0  0  2  0  0  0  0  0  0
  160.4760  212.4860  148.3300 O   0  0  0  0  0  0  0  0  0  0  0  0
  162.1030  207.6360  148.9570 C   0  0  1  0  0  3  0  0  0  0  0  0
  160.2070  206.1640  146.8800 C   0  0  0  0  0  1  0  0  0  0  0  0
  160.8310  206.9490  153.5830 C   0  0  0  0  0  2  0  0  0  0  0  0
  161.0150  204.9900  152.0590 C   0  0  0  0  0  2  0  0  0  0  0  0
  162.3290  207.3280  147.5110 C   0  0  0  0  0  2  0  0  0  0  0  0
  162.2270  212.0220  149.9850 C   0  0  1  0  0  3  0  0  0  0  0  0
  161.3720  211.7080  151.2350 C   0  0  0  0  0  2  0  0  0  0  0  0
  161.6350  206.3580  152.4360 C   0  0  1  0  0  3  0  0  0  0  0  0
  161.6400  208.7420  149.5190 C   0  0  0  0  0  0  0  0  0  0  0  0
  161.8800  204.8820  148.2440 C   0  0  0  0  0  2  0  0  0  0  0  0
  160.3910  209.1740  153.2210 C   0  0  1  0  0  3  0  0  0  0  0  0
  162.3320  205.4660  145.8710 C   0  0  0  0  0  1  0  0  0  0  0  0
  162.6900  210.8730  149.3010 O   0  0  0  0  0  0  0  0  0  0  0  0
  161.1910  214.1880  149.6920 O   0  0  0  0  0  1  0  0  0  0  0  0
  161.5650  210.1130  148.9430 C   0  0  1  0  0  3  0  0  0  0  0  0
  161.3020  208.2800  153.9130 N   0  0  0  0  0  2  0  0  0  0  0  0
  160.7600  210.6410  155.2120 C   0  0  0  0  0  3  0  0  0  0  0  0
  159.9900  210.3310  154.0860 C   0  0  0  0  0  0  0  0  0  0  0  0
  158.8330  211.0780  153.8110 C   0  0  0  0  0  3  0  0  0  0  0  0
  157.2930  212.8900  154.3660 N   0  0  0  0  0  1  0  0  0  0  0  0
  159.2410  212.4420  155.7690 C   0  0  0  0  0  3  0  0  0  0  0  0
  158.4630  212.1330  154.6500 C   0  0  0  0  0  0  0  0  0  0  0  0
  160.3890  211.6950  156.0510 C   0  0  0  0  0  3  0  0  0  0  0  0
  158.8880  212.5790  146.4160 O   0  0  0  0  0  1  0  0  0  0  0  0
  160.1080  212.0350  146.0080 C   0  0  0  0  0  2  0  0  0  0  0  0
  1 27  1  0  0  0  0
  2 17  1  0  0  0  0
  2 22  1  0  0  0  0
  3  7  1  6  0  0  0
  3 20  1  0  0  0  0
  4 37  1  6  0  0  0
  4  1  1  0  0  0  0
  4 12  1  0  0  0  0
  6 22  1  6  0  0  0
  6  9  1  0  0  0  0
  6 11  1  0  0  0  0
  7 10  1  0  0  0  0
  8 26  1  1  0  0  0
  8 18  1  0  0  0  0
  9  3  1  0  0  0  0
 10  5  1  0  0  0  0
 10 23  1  0  0  0  0
 11 16  1  0  0  0  0
 12  8  1  0  0  0  0
 13 21  1  0  0  0  0
 13  9  1  0  0  0  0
 14  2  1  0  0  0  0
 15 28  1  0  0  0  0
 16 20  1  0  0  0  0
 17 13  1  0  0  0  0
 18 19  1  0  0  0  0
 19  5  1  0  0  0  0
 20 15  1  0  0  0  0
 21  7  2  0  0  0  0
 23 28  1  0  0  0  0
 23 30  1  0  0  0  0
 24  2  1  0  0  0  0
 25 18  1  0  0  0  0
 27 25  1  0  0  0  0
 27 21  1  0  0  0  0
 29 35  1  0  0  0  0
 30 29  2  0  0  0  0
 31 30  1  0  0  0  0
 31 34  2  0  0  0  0
 32 34  1  0  0  0  0
 33 35  2  0  0  0  0
 34 33  1  0  0  0  0
 37 36  1  0  0  0  0
M  END
>  <MODEL>
3

>  <REMARK>
 VINA RESULT:      -5.8      2.577      6.632
  Name = 
  2 active torsions:
  status: ('A' for Active; 'I' for Inactive)
    1  A    between atoms: C_4  and  C_37
    2  A    between atoms: C_23  and  C_30
                            x       y       z     vdW  Elec       q    Type
                         _______ _______ _______ _____ _____    ______ ____

>  <TORSDO>
F 2

$$$$
=
 OpenBabel11122413323D

 37 43  0  0  1  0  0  0  0  0999 V2000
  161.1780  209.5090  147.4850 C   0  0  0  0  0  2  0  0  0  0  0  0
  161.1960  205.4510  145.8140 C   0  0  0  0  0  0  0  0  0  0  0  0
  161.6940  205.4050  150.0260 C   0  0  2  0  0  3  0  0  0  0  0  0
  161.1910  211.0340  147.6750 C   0  0  2  0  0  3  0  0  0  0  0  0
  162.3060  208.3880  151.7360 O   0  0  0  0  0  0  0  0  0  0  0  0
  161.0650  204.1820  148.0190 C   0  0  2  0  0  3  0  0  0  0  0  0
  161.5010  206.7230  150.1950 C   0  0  0  0  0  0  0  0  0  0  0  0
  162.0370  211.5970  149.6830 C   0  0  2  0  0  3  0  0  0  0  0  0
  162.0730  205.1290  148.6190 C   0  0  1  0  0  3  0  0  0  0  0  0
  161.2260  207.5350  151.4450 C   0  0  1  0  0  3  0  0  0  0  0  0
  161.1650  202.8630  148.7800 C   0  0  0  0  0  2  0  0  0  0  0  0
  160.8290  211.3810  148.9910 O   0  0  0  0  0  0  0  0  0  0  0  0
  161.9320  206.4480  147.9820 C   0  0  1  0  0  3  0  0  0  0  0  0
  159.7300  205.8490  145.7750 C   0  0  0  0  0  1  0  0  0  0  0  0
  160.9390  204.4980  152.3060 C   0  0  0  0  0  2  0  0  0  0  0  0
  160.7830  203.0880  150.2610 C   0  0  0  0  0  2  0  0  0  0  0  0
  162.0130  206.5770  146.4940 C   0  0  0  0  0  2  0  0  0  0  0  0
  162.6340  210.2850  150.2410 C   0  0  1  0  0  3  0  0  0  0  0  0
  161.8450  209.6800  151.4250 C   0  0  0  0  0  2  0  0  0  0  0  0
  161.5820  204.2170  150.9570 C   0  0  1  0  0  3  0  0  0  0  0  0
  161.6420  207.3670  148.8910 C   0  0  0  0  0  0  0  0  0  0  0  0
  161.3430  204.0720  146.5150 C   0  0  0  0  0  2  0  0  0  0  0  0
  160.7310  206.7570  152.6660 C   0  0  1  0  0  3  0  0  0  0  0  0
  161.6800  205.3110  144.3860 C   0  0  0  0  0  1  0  0  0  0  0  0
  162.9110  209.3630  149.2030 O   0  0  0  0  0  0  0  0  0  0  0  0
  161.8340  212.5180  150.7110 O   0  0  0  0  0  1  0  0  0  0  0  0
  161.6820  208.8480  148.7570 C   0  0  1  0  0  3  0  0  0  0  0  0
  161.5830  205.6190  152.9620 N   0  0  0  0  0  2  0  0  0  0  0  0
  160.4550  207.0310  155.1360 C   0  0  0  0  0  3  0  0  0  0  0  0
  160.5310  207.6250  153.8720 C   0  0  0  0  0  0  0  0  0  0  0  0
  160.3740  209.0150  153.7490 C   0  0  0  0  0  3  0  0  0  0  0  0
  160.0030  211.2080  154.7570 N   0  0  0  0  0  1  0  0  0  0  0  0
  160.0910  209.2010  156.1460 C   0  0  0  0  0  3  0  0  0  0  0  0
  160.1570  209.7990  154.8850 C   0  0  0  0  0  0  0  0  0  0  0  0
  160.2380  207.8160  156.2710 C   0  0  0  0  0  3  0  0  0  0  0  0
  160.7930  212.8830  146.2180 O   0  0  0  0  0  1  0  0  0  0  0  0
  160.2400  211.6930  146.6920 C   0  0  0  0  0  2  0  0  0  0  0  0
  1  4  1  0  0  0  0
  1 27  1  0  0  0  0
  2 17  1  0  0  0  0
  2 22  1  0  0  0  0
  3  7  1  6  0  0  0
  3 20  1  0  0  0  0
  4 37  1  6  0  0  0
  4 12  1  0  0  0  0
  6 22  1  6  0  0  0
  6  9  1  0  0  0  0
  6 11  1  0  0  0  0
  7 10  1  0  0  0  0
  8 18  1  0  0  0  0
  8 26  1  1  0  0  0
  9  3  1  0  0  0  0
 10  5  1  0  0  0  0
 10 23  1  0  0  0  0
 11 16  1  0  0  0  0
 12  8  1  0  0  0  0
 13  9  1  0  0  0  0
 13 21  1  0  0  0  0
 14  2  1  0  0  0  0
 15 28  1  0  0  0  0
 16 20  1  0  0  0  0
 17 13  1  0  0  0  0
 18 19  1  0  0  0  0
 19  5  1  0  0  0  0
 20 15  1  0  0  0  0
 21  7  2  0  0  0  0
 23 28  1  0  0  0  0
 23 30  1  0  0  0  0
 24  2  1  0  0  0  0
 25 18  1  0  0  0  0
 27 21  1  0  0  0  0
 27 25  1  0  0  0  0
 29 35  1  0  0  0  0
 30 29  2  0  0  0  0
 31 30  1  0  0  0  0
 31 34  2  0  0  0  0
 32 34  1  0  0  0  0
 33 35  2  0  0  0  0
 34 33  1  0  0  0  0
 36 37  1  0  0  0  0
M  END
>  <MODEL>
4

>  <REMARK>
 VINA RESULT:      -3.9      2.804      7.856
  Name = 
  2 active torsions:
  status: ('A' for Active; 'I' for Inactive)
    1  A    between atoms: C_4  and  C_37
    2  A    between atoms: C_23  and  C_30
                            x       y       z     vdW  Elec       q    Type
                         _______ _______ _______ _____ _____    ______ ____

>  <TORSDO>
F 2

$$$$
