=
 OpenBabel11122414043D

 28 31  0  0  1  0  0  0  0  0999 V2000
  161.0950  208.3000  155.3810 C   0  0  0  0  0  0  0  0  0  0  0  0
  158.5120  210.9560  155.6860 O   0  0  0  0  0  0  0  0  0  0  0  0
  162.6040  210.2920  156.6460 C   0  0  0  0  0  3  0  0  0  0  0  0
  160.4120  207.1760  154.6610 C   0  0  0  0  0  2  0  0  0  0  0  0
  160.1590  212.6660  155.0040 O   0  0  0  0  0  0  0  0  0  0  0  0
  159.0420  211.7730  154.5420 S   0  0  0  0  0  0  0  0  0  0  0  0
  158.2030  213.3470  152.4730 C   0  0  2  0  0  3  0  0  0  0  0  0
  159.5350  210.7520  153.2310 N   0  0  1  0  0  0  0  0  0  0  0  0
  161.8120  205.3410  151.5820 C   0  0  0  0  0  1  0  0  0  0  0  0
  161.5970  209.9030  152.2450 C   0  0  2  0  0  3  0  0  0  0  0  0
  158.7740  212.2910  151.5120 C   0  0  0  0  0  2  0  0  0  0  0  0
  157.7460  212.7700  153.8240 C   0  0  0  0  0  2  0  0  0  0  0  0
  160.8920  206.2760  152.3430 C   0  0  2  0  0  3  0  0  0  0  0  0
  161.2330  209.5680  154.7790 C   0  0  0  0  0  0  0  0  0  0  0  0
  157.0440  214.0600  151.8110 C   0  0  0  0  0  1  0  0  0  0  0  0
  160.7210  207.5910  151.5720 C   0  0  0  0  0  2  0  0  0  0  0  0
  162.0160  210.5460  155.4050 C   0  0  0  0  0  3  0  0  0  0  0  0
  161.6920  208.0510  156.6220 C   0  0  0  0  0  3  0  0  0  0  0  0
  162.4340  209.0490  157.2590 C   0  0  0  0  0  3  0  0  0  0  0  0
  161.4180  206.4640  153.7660 C   0  0  0  0  0  2  0  0  0  0  0  0
  160.8630  210.7970  151.2540 C   0  0  1  0  0  3  0  0  0  0  0  0
  161.9440  208.5090  151.6890 C   0  0  1  0  0  3  0  0  0  0  0  0
  159.9810  211.6290  152.1670 C   0  0  2  0  0  3  0  0  0  0  0  0
  160.6360  209.8010  153.4200 C   0  0  1  0  0  3  0  0  0  0  0  0
  161.7140  208.0620  149.5330 C   0  0  0  0  0  1  0  0  0  0  0  0
  162.6040  208.6030  150.4620 O   0  0  0  0  0  0  0  0  0  0  0  0
  161.8630  211.6780  150.5240 C   0  0  0  0  0  2  0  0  0  0  0  0
  161.5570  211.7080  149.0390 C   0  0  0  0  0  1  0  0  0  0  0  0
  1 18  1  0  0  0  0
  3 19  1  0  0  0  0
  4  1  1  0  0  0  0
  6  5  2  0  0  0  0
  6  2  2  0  0  0  0
  7 15  1  6  0  0  0
  7 12  1  0  0  0  0
  8 24  1  0  0  0  0
  8  6  1  1  0  0  0
  9 13  1  0  0  0  0
 10 24  1  0  0  0  0
 11 23  1  0  0  0  0
 11  7  1  0  0  0  0
 12  6  1  0  0  0  0
 13 20  1  0  0  0  0
 14  1  2  0  0  0  0
 14 17  1  0  0  0  0
 16 22  1  0  0  0  0
 16 13  1  0  0  0  0
 17  3  2  0  0  0  0
 18 19  2  0  0  0  0
 20  4  1  0  0  0  0
 21 23  1  0  0  0  0
 21 10  1  0  0  0  0
 22 10  1  0  0  0  0
 23  8  1  0  0  0  0
 24 14  1  0  0  0  0
 25 26  1  0  0  0  0
 26 22  1  0  0  0  0
 27 21  1  0  0  0  0
 28 27  1  0  0  0  0
M  END
>  <MODEL>
1

>  <REMARK>
 VINA RESULT:      -6.3      0.000      0.000
  Name = 
  2 active torsions:
  status: ('A' for Active; 'I' for Inactive)
    1  A    between atoms: C_5  and  C_24
    2  A    between atoms: O_17  and  C_25
                            x       y       z     vdW  Elec       q    Type
                         _______ _______ _______ _____ _____    ______ ____

>  <TORSDO>
F 2

$$$$
=
 OpenBabel11122414043D

 28 31  0  0  1  0  0  0  0  0999 V2000
  158.4220  213.7230  142.1280 C   0  0  0  0  0  0  0  0  0  0  0  0
  162.0410  214.4530  141.6940 O   0  0  0  0  0  0  0  0  0  0  0  0
  159.4730  212.2100  144.2390 C   0  0  0  0  0  3  0  0  0  0  0  0
  157.7420  214.4490  141.0060 C   0  0  0  0  0  2  0  0  0  0  0  0
  162.5910  212.0790  142.1030 O   0  0  0  0  0  0  0  0  0  0  0  0
  162.3560  213.1310  141.0540 S   0  0  0  0  0  0  0  0  0  0  0  0
  163.9280  212.0150  139.1190 C   0  0  2  0  0  3  0  0  0  0  0  0
  161.1050  212.6670  139.9470 N   0  0  1  0  0  0  0  0  0  0  0  0
  155.1620  212.9030  138.6080 C   0  0  0  0  0  1  0  0  0  0  0  0
  159.2290  211.1130  139.8500 C   0  0  2  0  0  3  0  0  0  0  0  0
  162.6420  211.6720  138.3500 C   0  0  0  0  0  2  0  0  0  0  0  0
  163.8010  213.2600  140.0130 C   0  0  0  0  0  2  0  0  0  0  0  0
  156.5040  213.4690  139.0260 C   0  0  2  0  0  3  0  0  0  0  0  0
  159.3760  212.7160  141.8680 C   0  0  0  0  0  0  0  0  0  0  0  0
  165.0660  212.2110  138.1400 C   0  0  0  0  0  1  0  0  0  0  0  0
  157.6390  212.5890  138.4870 C   0  0  0  0  0  2  0  0  0  0  0  0
  159.8700  211.9450  142.9270 C   0  0  0  0  0  3  0  0  0  0  0  0
  158.0240  213.9780  143.4450 C   0  0  0  0  0  3  0  0  0  0  0  0
  158.5580  213.2330  144.4990 C   0  0  0  0  0  3  0  0  0  0  0  0
  156.5330  213.6460  140.5440 C   0  0  0  0  0  2  0  0  0  0  0  0
  160.2710  210.7530  138.7980 C   0  0  1  0  0  3  0  0  0  0  0  0
  157.8080  211.2890  139.2830 C   0  0  1  0  0  3  0  0  0  0  0  0
  161.5220  211.4140  139.3510 C   0  0  2  0  0  3  0  0  0  0  0  0
  159.7480  212.4130  140.4440 C   0  0  1  0  0  3  0  0  0  0  0  0
  156.4160  209.5680  139.2370 C   0  0  0  0  0  1  0  0  0  0  0  0
  157.4310  210.1900  138.5080 O   0  0  0  0  0  0  0  0  0  0  0  0
  160.4410  209.2440  138.7420 C   0  0  0  0  0  2  0  0  0  0  0  0
  160.3850  208.7580  137.3070 C   0  0  0  0  0  1  0  0  0  0  0  0
  1 18  1  0  0  0  0
  3 19  1  0  0  0  0
  4  1  1  0  0  0  0
  6  2  2  0  0  0  0
  6  5  2  0  0  0  0
  7 15  1  6  0  0  0
  7 12  1  0  0  0  0
  8 24  1  0  0  0  0
  8  6  1  1  0  0  0
  9 13  1  0  0  0  0
 10 24  1  0  0  0  0
 11  7  1  0  0  0  0
 11 23  1  0  0  0  0
 12  6  1  0  0  0  0
 13 20  1  0  0  0  0
 14  1  2  0  0  0  0
 14 17  1  0  0  0  0
 16 13  1  0  0  0  0
 16 22  1  0  0  0  0
 17  3  2  0  0  0  0
 18 19  2  0  0  0  0
 20  4  1  0  0  0  0
 21 23  1  0  0  0  0
 21 10  1  0  0  0  0
 22 10  1  0  0  0  0
 23  8  1  0  0  0  0
 24 14  1  0  0  0  0
 26 25  1  0  0  0  0
 26 22  1  0  0  0  0
 27 21  1  0  0  0  0
 28 27  1  0  0  0  0
M  END
>  <MODEL>
2

>  <REMARK>
 VINA RESULT:      -3.5     10.437     13.958
  Name = 
  2 active torsions:
  status: ('A' for Active; 'I' for Inactive)
    1  A    between atoms: C_5  and  C_24
    2  A    between atoms: O_17  and  C_25
                            x       y       z     vdW  Elec       q    Type
                         _______ _______ _______ _____ _____    ______ ____

>  <TORSDO>
F 2

$$$$
