=
 OpenBabel11122413523D

 37 43  0  0  1  0  0  0  0  0999 V2000
  161.5580  205.9290  146.6160 C   0  0  0  0  0  0  0  0  0  0  0  0
  161.0780  205.8510  150.7340 C   0  0  0  0  0  0  0  0  0  0  0  0
  160.5360  209.0220  152.1400 O   0  0  0  0  0  0  0  0  0  0  0  0
  160.8930  204.6100  148.6820 C   0  0  0  0  0  0  0  0  0  0  0  0
  161.6450  207.2080  151.0130 C   0  0  2  0  0  3  0  0  0  0  0  0
  160.8470  205.8010  149.3920 C   0  0  0  0  0  0  0  0  0  0  0  0
  161.3050  207.8650  152.3520 C   0  0  2  0  0  3  0  0  0  0  0  0
  160.9520  203.4070  149.3860 C   0  0  0  0  0  3  0  0  0  0  0  0
  160.9460  207.1230  148.7610 C   0  0  2  0  0  3  0  0  0  0  0  0
  160.3780  206.4360  145.8040 C   0  0  0  0  0  1  0  0  0  0  0  0
  161.2570  204.5750  152.9850 C   0  0  0  0  0  2  0  0  0  0  0  0
  161.0440  203.4330  150.7910 C   0  0  0  0  0  3  0  0  0  0  0  0
  161.9980  207.0080  147.6410 C   0  0  0  0  0  2  0  0  0  0  0  0
  162.7580  209.8950  151.8460 O   0  0  0  0  0  0  0  0  0  0  0  0
  161.3810  210.1630  152.0560 C   0  0  1  0  0  3  0  0  0  0  0  0
  161.1690  204.6540  151.4830 C   0  0  0  0  0  0  0  0  0  0  0  0
  161.2170  208.0580  149.8800 N   0  0  2  0  0  0  0  0  0  0  0  0
  161.1870  204.6680  147.2800 N   0  0  0  0  0  2  0  0  0  0  0  0
  160.7740  206.9780  153.4750 C   0  0  1  0  0  3  0  0  0  0  0  0
  162.7120  205.6660  145.6680 C   0  0  0  0  0  1  0  0  0  0  0  0
  162.0430  210.3190  150.7130 C   0  0  2  0  0  3  0  0  0  0  0  0
  162.1270  209.2010  149.6310 C   0  0  2  0  0  3  0  0  0  0  0  0
  161.7490  205.8330  153.6890 C   0  0  0  0  0  2  0  0  0  0  0  0
  160.1570  207.1300  155.8330 C   0  0  0  0  0  3  0  0  0  0  0  0
  160.6420  207.7560  154.7500 C   0  0  0  0  0  0  0  0  0  0  0  0
  161.2360  209.1420  154.8670 C   0  0  0  0  0  2  0  0  0  0  0  0
  160.8960  211.5150  156.1350 S   0  0  0  0  0  0  0  0  0  0  0  0
  160.2380  209.1430  157.2230 C   0  0  0  0  0  3  0  0  0  0  0  0
  160.6980  209.8960  156.0430 C   0  0  0  0  0  0  0  0  0  0  0  0
  160.0030  207.8280  157.1250 C   0  0  0  0  0  3  0  0  0  0  0  0
  161.8130  209.8730  148.2640 C   0  0  0  0  0  2  0  0  0  0  0  0
  161.8370  211.3530  148.2740 N   0  0  0  0  0  0  0  0  0  0  0  0
  163.0290  212.9330  147.0180 O   0  0  0  0  0  1  0  0  0  0  0  0
  163.1610  211.8390  147.8770 C   0  0  0  0  0  2  0  0  0  0  0  0
  160.8090  211.8820  147.3670 C   0  0  0  0  0  2  0  0  0  0  0  0
  159.9610  212.9520  148.0460 C   0  0  0  0  0  2  0  0  0  0  0  0
  160.3840  213.1280  149.3620 O   0  0  0  0  0  1  0  0  0  0  0  0
  1 18  1  0  0  0  0
  1 13  1  0  0  0  0
  2 16  1  0  0  0  0
  4  8  2  0  0  0  0
  4  6  1  0  0  0  0
  5  2  1  6  0  0  0
  5  7  1  0  0  0  0
  6  2  2  0  0  0  0
  7  3  1  6  0  0  0
  7 19  1  0  0  0  0
  8 12  1  0  0  0  0
  9 13  1  6  0  0  0
  9  6  1  0  0  0  0
  9 17  1  0  0  0  0
 10  1  1  0  0  0  0
 11 23  1  0  0  0  0
 12 16  2  0  0  0  0
 15 14  1  1  0  0  0
 15  3  1  0  0  0  0
 16 11  1  0  0  0  0
 17  5  1  0  0  0  0
 18  4  1  0  0  0  0
 19 23  1  0  0  0  0
 19 25  1  0  0  0  0
 20  1  1  0  0  0  0
 21 14  1  0  0  0  0
 21 15  1  0  0  0  0
 22 17  1  0  0  0  0
 22 21  1  0  0  0  0
 24 30  1  0  0  0  0
 25 26  1  0  0  0  0
 25 24  2  0  0  0  0
 26 29  1  0  0  0  0
 29 27  2  0  0  0  0
 29 28  1  0  0  0  0
 30 28  2  0  0  0  0
 31 32  1  0  0  0  0
 31 22  1  0  0  0  0
 33 34  1  0  0  0  0
 34 32  1  0  0  0  0
 35 36  1  0  0  0  0
 35 32  1  0  0  0  0
 36 37  1  0  0  0  0
M  END
>  <MODEL>
1

>  <REMARK>
 VINA RESULT:     -10.6      0.000      0.000
  Name = 
  6 active torsions:
  status: ('A' for Active; 'I' for Inactive)
    1  A    between atoms: C_1  and  N_4
    2  A    between atoms: C_1  and  C_27
    3  A    between atoms: N_4  and  C_12
    4  A    between atoms: N_4  and  C_37
    5  A    between atoms: C_8  and  C_12
    6  A    between atoms: C_23  and  C_30
                            x       y       z     vdW  Elec       q    Type
                         _______ _______ _______ _____ _____    ______ ____

>  <TORSDO>
F 6

$$$$
