=
 OpenBabel11122414143D

 28 32  0  0  1  0  0  0  0  0999 V2000
  161.8670  210.3570  137.8150 C   0  0  0  0  0  0  0  0  0  0  0  0
  159.3260  212.2770  137.5540 O   0  0  0  0  0  1  0  0  0  0  0  0
  162.4400  213.0900  143.3950 C   0  0  0  0  0  2  0  0  0  0  0  0
  161.2000  207.6980  138.4100 C   0  0  0  0  0  3  0  0  0  0  0  0
  160.4210  213.5480  142.0770 C   0  0  0  0  0  0  0  0  0  0  0  0
  162.4180  212.0030  137.3820 S   0  0  0  0  0  0  0  0  0  0  0  0
  158.0870  210.2570  137.6100 C   0  0  0  0  0  1  0  0  0  0  0  0
  158.3820  211.5720  138.3040 C   0  0  1  0  0  0  0  0  0  0  0  0
  157.3450  213.6520  139.0150 N   0  0  0  0  0  0  0  0  0  0  0  0
  158.8900  211.2870  139.7500 C   0  0  2  0  0  3  0  0  0  0  0  0
  164.8830  213.9480  138.8350 O   0  0  0  0  0  0  0  0  0  0  0  0
  160.9890  212.4930  140.0750 C   0  0  1  0  0  3  0  0  0  0  0  0
  157.4640  213.3590  140.4370 C   0  0  0  0  0  2  0  0  0  0  0  0
  157.0960  212.3870  138.3370 C   0  0  0  0  0  2  0  0  0  0  0  0
  164.0430  213.1020  139.2370 C   0  0  0  0  0  0  0  0  0  0  0  0
  161.0450  210.0730  138.9370 C   0  0  0  0  0  0  0  0  0  0  0  0
  161.7840  213.1260  142.2420 C   0  0  0  0  0  0  0  0  0  0  0  0
  156.1460  214.4530  138.8560 C   0  0  0  0  0  1  0  0  0  0  0  0
  163.2630  213.3870  140.4000 N   0  0  0  0  0  2  0  0  0  0  0  0
  160.7290  208.7360  139.2160 C   0  0  0  0  0  3  0  0  0  0  0  0
  162.3290  209.3080  137.0110 C   0  0  0  0  0  3  0  0  0  0  0  0
  161.9970  207.9850  137.3040 C   0  0  0  0  0  3  0  0  0  0  0  0
  163.8590  211.8420  138.4710 C   0  0  0  0  0  2  0  0  0  0  0  0
  159.9240  213.1770  140.8070 N   0  0  0  0  0  0  0  0  0  0  0  0
  162.2540  212.5020  140.9750 C   0  0  2  0  0  3  0  0  0  0  0  0
  158.6650  212.4520  140.7270 C   0  0  2  0  0  3  0  0  0  0  0  0
  159.7150  214.0930  142.9690 O   0  0  0  0  0  0  0  0  0  0  0  0
  160.4120  211.0950  139.8570 C   0  0  2  0  0  3  0  0  0  0  0  0
  1 16  1  0  0  0  0
  2  8  1  0  0  0  0
  4 20  1  0  0  0  0
  5 17  1  0  0  0  0
  5 27  2  0  0  0  0
  6  1  1  0  0  0  0
  6 23  1  0  0  0  0
  8  7  1  6  0  0  0
  8 14  1  0  0  0  0
  8 10  1  0  0  0  0
  9 13  1  0  0  0  0
 10 28  1  0  0  0  0
 10 26  1  0  0  0  0
 11 15  2  0  0  0  0
 12 24  1  0  0  0  0
 12 25  1  0  0  0  0
 13 26  1  0  0  0  0
 14  9  1  0  0  0  0
 15 19  1  0  0  0  0
 16 20  2  0  0  0  0
 16 28  1  0  0  0  0
 17  3  2  0  0  0  0
 18  9  1  0  0  0  0
 19 25  1  0  0  0  0
 21 22  1  0  0  0  0
 21  1  2  0  0  0  0
 22  4  2  0  0  0  0
 23 15  1  0  0  0  0
 24  5  1  0  0  0  0
 25 17  1  0  0  0  0
 26 24  1  0  0  0  0
 28 12  1  0  0  0  0
M  END
>  <MODEL>
1

>  <REMARK>
 VINA RESULT:      -5.0      0.000      0.000
  Name = 
  0 active torsions:
  status: ('A' for Active; 'I' for Inactive)
                            x       y       z     vdW  Elec       q    Type
                         _______ _______ _______ _____ _____    ______ ____

>  <TORSDO>
F 0

$$$$
=
 OpenBabel11122414143D

 28 32  0  0  1  0  0  0  0  0999 V2000
  161.2050  209.0320  155.3580 C   0  0  0  0  0  0  0  0  0  0  0  0
  158.3550  210.4540  155.1090 O   0  0  0  0  0  1  0  0  0  0  0  0
  162.1370  211.5550  149.7270 C   0  0  0  0  0  2  0  0  0  0  0  0
  162.9920  210.3990  157.0340 C   0  0  0  0  0  3  0  0  0  0  0  0
  160.1170  212.1930  150.9680 C   0  0  0  0  0  0  0  0  0  0  0  0
  160.1450  208.0410  154.3120 S   0  0  0  0  0  0  0  0  0  0  0  0
  159.1340  211.8050  156.8940 C   0  0  0  0  0  1  0  0  0  0  0  0
  158.6830  211.7690  155.4460 C   0  0  1  0  0  0  0  0  0  0  0  0
  156.9780  212.6180  153.9370 N   0  0  0  0  0  0  0  0  0  0  0  0
  159.8200  212.3310  154.5410 C   0  0  2  0  0  3  0  0  0  0  0  0
  160.7730  206.7050  151.1830 O   0  0  0  0  0  0  0  0  0  0  0  0
  160.2550  210.7110  152.7650 C   0  0  1  0  0  3  0  0  0  0  0  0
  157.8990  213.4630  153.1890 C   0  0  0  0  0  2  0  0  0  0  0  0
  157.4260  212.6190  155.3230 C   0  0  0  0  0  2  0  0  0  0  0  0
  161.0990  207.7510  151.8020 C   0  0  0  0  0  0  0  0  0  0  0  0
  161.4730  210.4070  155.1270 C   0  0  0  0  0  0  0  0  0  0  0  0
  161.2290  211.3340  150.6690 C   0  0  0  0  0  0  0  0  0  0  0  0
  155.6910  213.2850  153.9140 C   0  0  0  0  0  1  0  0  0  0  0  0
  161.0060  209.0150  151.1420 N   0  0  0  0  0  2  0  0  0  0  0  0
  162.3720  211.0670  155.9760 C   0  0  0  0  0  3  0  0  0  0  0  0
  161.8290  208.3750  156.4250 C   0  0  0  0  0  3  0  0  0  0  0  0
  162.7160  209.0520  157.2600 C   0  0  0  0  0  3  0  0  0  0  0  0
  161.5380  207.6480  153.2180 C   0  0  0  0  0  2  0  0  0  0  0  0
  159.5300  211.8510  152.2080 N   0  0  0  0  0  0  0  0  0  0  0  0
  161.3460  210.3040  151.7380 C   0  0  2  0  0  3  0  0  0  0  0  0
  159.3220  212.8950  153.2000 C   0  0  2  0  0  3  0  0  0  0  0  0
  159.7580  213.1830  150.2760 O   0  0  0  0  0  0  0  0  0  0  0  0
  160.8290  211.2730  154.0650 C   0  0  2  0  0  3  0  0  0  0  0  0
  1 21  1  0  0  0  0
  2  8  1  0  0  0  0
  3 17  2  0  0  0  0
  4 22  1  0  0  0  0
  5 24  1  0  0  0  0
  6  1  1  0  0  0  0
  8  7  1  1  0  0  0
  9 14  1  0  0  0  0
 10  8  1  0  0  0  0
 11 15  2  0  0  0  0
 12 28  1  0  0  0  0
 13 26  1  0  0  0  0
 13  9  1  0  0  0  0
 14  8  1  0  0  0  0
 15 23  1  0  0  0  0
 16  1  2  0  0  0  0
 16 20  1  0  0  0  0
 17  5  1  0  0  0  0
 17 25  1  0  0  0  0
 18  9  1  0  0  0  0
 19 25  1  0  0  0  0
 19 15  1  0  0  0  0
 20  4  2  0  0  0  0
 21 22  2  0  0  0  0
 23  6  1  0  0  0  0
 24 12  1  0  0  0  0
 24 26  1  0  0  0  0
 25 12  1  0  0  0  0
 26 10  1  0  0  0  0
 27  5  2  0  0  0  0
 28 10  1  0  0  0  0
 28 16  1  0  0  0  0
M  END
>  <MODEL>
2

>  <REMARK>
 VINA RESULT:      -4.3     11.759     14.924
  Name = 
  0 active torsions:
  status: ('A' for Active; 'I' for Inactive)
                            x       y       z     vdW  Elec       q    Type
                         _______ _______ _______ _____ _____    ______ ____

>  <TORSDO>
F 0

$$$$
=
 OpenBabel11122414143D

 28 32  0  0  1  0  0  0  0  0999 V2000
  158.3810  213.3350  139.8580 C   0  0  0  0  0  0  0  0  0  0  0  0
  159.3060  210.2840  139.6480 O   0  0  0  0  0  1  0  0  0  0  0  0
  164.5120  214.4530  139.5360 C   0  0  0  0  0  2  0  0  0  0  0  0
  157.3620  214.3610  137.4540 C   0  0  0  0  0  3  0  0  0  0  0  0
  163.7250  212.1570  139.1620 C   0  0  0  0  0  0  0  0  0  0  0  0
  158.9570  212.7860  141.4600 S   0  0  0  0  0  0  0  0  0  0  0  0
  158.2190  210.3440  137.5430 C   0  0  0  0  0  1  0  0  0  0  0  0
  159.5360  210.1700  138.2750 C   0  0  1  0  0  0  0  0  0  0  0  0
  161.3240  208.5740  138.6720 N   0  0  0  0  0  0  0  0  0  0  0  0
  160.5500  211.2390  137.7680 C   0  0  2  0  0  3  0  0  0  0  0  0
  161.2180  214.2780  143.6130 O   0  0  0  0  0  0  0  0  0  0  0  0
  161.4700  212.4020  139.7090 C   0  0  1  0  0  3  0  0  0  0  0  0
  162.3210  209.3330  137.9310 C   0  0  0  0  0  2  0  0  0  0  0  0
  160.0490  208.7650  137.9940 C   0  0  0  0  0  2  0  0  0  0  0  0
  161.0790  214.1890  142.3650 C   0  0  0  0  0  0  0  0  0  0  0  0
  159.1530  213.2420  138.6710 C   0  0  0  0  0  0  0  0  0  0  0  0
  163.5970  213.4990  139.6600 C   0  0  0  0  0  0  0  0  0  0  0  0
  161.6720  207.1740  138.5220 C   0  0  0  0  0  1  0  0  0  0  0  0
  162.2090  213.8580  141.5560 N   0  0  0  0  0  2  0  0  0  0  0  0
  158.6240  213.7650  137.4830 C   0  0  0  0  0  3  0  0  0  0  0  0
  157.1140  213.9300  139.8160 C   0  0  0  0  0  3  0  0  0  0  0  0
  156.6050  214.4390  138.6210 C   0  0  0  0  0  3  0  0  0  0  0  0
  159.7340  214.3960  141.7690 C   0  0  0  0  0  2  0  0  0  0  0  0
  162.4790  211.4900  139.1720 N   0  0  0  0  0  0  0  0  0  0  0  0
  162.1930  213.7190  140.1020 C   0  0  2  0  0  3  0  0  0  0  0  0
  162.0210  210.8350  137.9570 C   0  0  2  0  0  3  0  0  0  0  0  0
  164.7810  211.6560  138.6880 O   0  0  0  0  0  0  0  0  0  0  0  0
  160.5030  212.5690  138.5390 C   0  0  2  0  0  3  0  0  0  0  0  0
  1  6  1  0  0  0  0
  3 17  2  0  0  0  0
  4 20  2  0  0  0  0
  4 22  1  0  0  0  0
  5 24  1  0  0  0  0
  5 17  1  0  0  0  0
  6 23  1  0  0  0  0
  8  7  1  6  0  0  0
  8  2  1  0  0  0  0
 10 26  1  0  0  0  0
 10  8  1  0  0  0  0
 10 28  1  0  0  0  0
 12 25  1  0  0  0  0
 13 26  1  0  0  0  0
 13  9  1  0  0  0  0
 14  8  1  0  0  0  0
 14  9  1  0  0  0  0
 15 11  2  0  0  0  0
 16  1  2  0  0  0  0
 17 25  1  0  0  0  0
 18  9  1  0  0  0  0
 19 15  1  0  0  0  0
 20 16  1  0  0  0  0
 21  1  1  0  0  0  0
 22 21  2  0  0  0  0
 23 15  1  0  0  0  0
 24 12  1  0  0  0  0
 25 19  1  0  0  0  0
 26 24  1  0  0  0  0
 27  5  2  0  0  0  0
 28 16  1  0  0  0  0
 28 12  1  0  0  0  0
M  END
>  <MODEL>
3

>  <REMARK>
 VINA RESULT:      -4.1      2.066      5.131
  Name = 
  0 active torsions:
  status: ('A' for Active; 'I' for Inactive)
                            x       y       z     vdW  Elec       q    Type
                         _______ _______ _______ _____ _____    ______ ____

>  <TORSDO>
F 0

$$$$
=
 OpenBabel11122414143D

 28 32  0  0  1  0  0  0  0  0999 V2000
  161.0750  209.7840  156.1550 C   0  0  0  0  0  0  0  0  0  0  0  0
  162.4580  210.3000  153.3210 O   0  0  0  0  0  1  0  0  0  0  0  0
  156.8090  213.7850  153.9800 C   0  0  0  0  0  2  0  0  0  0  0  0
  159.7160  207.3340  156.3040 C   0  0  0  0  0  3  0  0  0  0  0  0
  158.5520  212.9920  152.4430 C   0  0  0  0  0  0  0  0  0  0  0  0
  161.9500  211.3430  156.2050 S   0  0  0  0  0  0  0  0  0  0  0  0
  161.9240  208.0280  152.9090 C   0  0  0  0  0  1  0  0  0  0  0  0
  161.6950  209.4690  152.4980 C   0  0  1  0  0  0  0  0  0  0  0  0
  161.9650  211.0090  150.6370 N   0  0  0  0  0  0  0  0  0  0  0  0
  160.1740  209.7960  152.5970 C   0  0  2  0  0  3  0  0  0  0  0  0
  160.8460  214.4480  157.2600 O   0  0  0  0  0  0  0  0  0  0  0  0
  159.9140  211.8240  153.9350 C   0  0  1  0  0  3  0  0  0  0  0  0
  160.5350  211.1570  150.4030 C   0  0  0  0  0  2  0  0  0  0  0  0
  162.1890  209.6350  151.0670 C   0  0  0  0  0  2  0  0  0  0  0  0
  160.3340  213.4530  156.6860 C   0  0  0  0  0  0  0  0  0  0  0  0
  160.0970  209.4620  155.1780 C   0  0  0  0  0  0  0  0  0  0  0  0
  158.0000  213.2500  153.7450 C   0  0  0  0  0  0  0  0  0  0  0  0
  162.6140  211.1530  149.3470 C   0  0  0  0  0  1  0  0  0  0  0  0
  159.5110  213.6540  155.5350 N   0  0  0  0  0  2  0  0  0  0  0  0
  159.4290  208.2340  155.2760 C   0  0  0  0  0  3  0  0  0  0  0  0
  161.3590  208.8700  157.1780 C   0  0  0  0  0  3  0  0  0  0  0  0
  160.6860  207.6520  157.2530 C   0  0  0  0  0  3  0  0  0  0  0  0
  160.6280  212.0900  157.1980 C   0  0  0  0  0  2  0  0  0  0  0  0
  159.6790  212.1430  152.5270 N   0  0  0  0  0  0  0  0  0  0  0  0
  158.8570  212.5950  154.7710 C   0  0  2  0  0  3  0  0  0  0  0  0
  159.7290  210.9540  151.6900 C   0  0  2  0  0  3  0  0  0  0  0  0
  158.0550  213.3850  151.3530 O   0  0  0  0  0  0  0  0  0  0  0  0
  159.7290  210.3070  153.9770 C   0  0  2  0  0  3  0  0  0  0  0  0
  1  6  1  0  0  0  0
  1 21  1  0  0  0  0
  4 22  1  0  0  0  0
  5 24  1  0  0  0  0
  5 17  1  0  0  0  0
  6 23  1  0  0  0  0
  8 10  1  0  0  0  0
  8  7  1  1  0  0  0
  8  2  1  0  0  0  0
  9 14  1  0  0  0  0
 10 28  1  0  0  0  0
 12 28  1  0  0  0  0
 12 25  1  0  0  0  0
 13  9  1  0  0  0  0
 13 26  1  0  0  0  0
 14  8  1  0  0  0  0
 15 23  1  0  0  0  0
 15 11  2  0  0  0  0
 16 20  1  0  0  0  0
 16  1  2  0  0  0  0
 17  3  2  0  0  0  0
 17 25  1  0  0  0  0
 18  9  1  0  0  0  0
 19 15  1  0  0  0  0
 20  4  2  0  0  0  0
 21 22  2  0  0  0  0
 24 12  1  0  0  0  0
 25 19  1  0  0  0  0
 26 24  1  0  0  0  0
 26 10  1  0  0  0  0
 27  5  2  0  0  0  0
 28 16  1  0  0  0  0
M  END
>  <MODEL>
4

>  <REMARK>
 VINA RESULT:      -2.0     12.050     15.233
  Name = 
  0 active torsions:
  status: ('A' for Active; 'I' for Inactive)
                            x       y       z     vdW  Elec       q    Type
                         _______ _______ _______ _____ _____    ______ ____

>  <TORSDO>
F 0

$$$$
