=
 OpenBabel11122412563D

 32 37  0  0  1  0  0  0  0  0999 V2000
  161.1970  208.3050  157.0180 C   0  0  0  0  0  2  0  0  0  0  0  0
  160.8600  206.0190  151.9150 C   0  0  1  0  0  3  0  0  0  0  0  0
  162.5740  208.6240  148.2810 C   0  0  0  0  0  2  0  0  0  0  0  0
  162.2010  207.4460  147.3770 C   0  0  0  0  0  2  0  0  0  0  0  0
  161.0490  203.4860  151.3480 C   0  0  0  0  0  0  0  0  0  0  0  0
  161.0570  202.4500  150.3250 C   0  0  0  0  0  0  0  0  0  0  0  0
  160.6170  206.7760  154.2280 C   0  0  0  0  0  0  0  0  0  0  0  0
  160.8270  208.3940  152.4340 C   0  0  0  0  0  3  0  0  0  0  0  0
  160.9990  201.6230  148.2850 N   0  0  0  0  0  0  0  0  0  0  0  0
  160.6560  209.2800  154.7380 C   0  0  0  0  0  2  0  0  0  0  0  0
  162.4770  208.2330  149.7570 C   0  0  0  0  0  2  0  0  0  0  0  0
  160.9080  207.3600  151.4960 C   0  0  0  0  0  0  0  0  0  0  0  0
  161.0700  207.7160  150.0530 C   0  0  0  0  0  0  0  0  0  0  0  0
  160.8530  205.2170  149.5800 C   0  0  0  0  0  0  0  0  0  0  0  0
  161.1170  200.5920  149.1480 C   0  0  0  0  0  3  0  0  0  0  0  0
  160.0820  207.3160  156.6810 C   0  0  0  0  0  2  0  0  0  0  0  0
  160.6870  208.1190  153.7960 C   0  0  0  0  0  0  0  0  0  0  0  0
  161.1600  201.0760  150.4560 C   0  0  0  0  0  3  0  0  0  0  0  0
  160.4710  206.4070  155.6090 N   0  0  0  0  0  2  0  0  0  0  0  0
  161.7160  209.0990  155.8180 C   0  0  1  0  0  3  0  0  0  0  0  0
  160.8080  206.9290  147.7340 C   0  0  0  0  0  2  0  0  0  0  0  0
  160.7700  206.5970  149.1560 N   0  0  0  0  0  0  0  0  0  0  0  0
  160.8370  204.1460  148.4890 C   0  0  0  0  0  2  0  0  0  0  0  0
  160.7110  205.7510  153.2850 C   0  0  0  0  0  3  0  0  0  0  0  0
  161.1690  203.1620  152.5590 O   0  0  0  0  0  0  0  0  0  0  0  0
  160.9240  201.5110  146.8390 C   0  0  0  0  0  1  0  0  0  0  0  0
  160.9220  204.9140  150.9110 C   0  0  0  0  0  0  0  0  0  0  0  0
  160.9640  202.7500  149.0070 C   0  0  0  0  0  0  0  0  0  0  0  0
  162.1940  210.3970  156.2670 N   0  0  0  0  0  2  0  0  0  0  0  0
  161.0490  211.2950  156.2980 C   0  0  0  0  0  3  0  0  0  0  0  0
  161.3170  212.4350  157.2610 C   0  0  0  0  0  1  0  0  0  0  0  0
  160.8140  211.8560  154.9120 C   0  0  0  0  0  1  0  0  0  0  0  0
  2 24  1  6  0  0  0
  3 11  1  0  0  0  0
  4 21  1  0  0  0  0
  4  3  1  0  0  0  0
  5 25  2  0  0  0  0
  6 18  1  0  0  0  0
  6  5  1  0  0  0  0
  7 19  1  0  0  0  0
  8 17  2  0  0  0  0
  9 28  1  0  0  0  0
  9 15  1  0  0  0  0
 10 20  1  0  0  0  0
 11 13  1  0  0  0  0
 12  2  1  0  0  0  0
 12  8  1  0  0  0  0
 13 12  2  0  0  0  0
 14 27  2  0  0  0  0
 15 18  2  0  0  0  0
 16  1  1  0  0  0  0
 17  7  1  0  0  0  0
 17 10  1  0  0  0  0
 19 16  1  0  0  0  0
 20 29  1  1  0  0  0
 20  1  1  0  0  0  0
 21 22  1  0  0  0  0
 22 14  1  0  0  0  0
 22 13  1  0  0  0  0
 23 28  1  0  0  0  0
 23 14  1  0  0  0  0
 24  7  2  0  0  0  0
 26  9  1  0  0  0  0
 27  5  1  0  0  0  0
 27  2  1  0  0  0  0
 28  6  2  0  0  0  0
 29 30  1  0  0  0  0
 30 31  1  0  0  0  0
 32 30  1  0  0  0  0
M  END
>  <MODEL>
1

>  <REMARK>
 VINA RESULT:      -9.3      0.000      0.000
  Name = 
  2 active torsions:
  status: ('A' for Active; 'I' for Inactive)
    1  A    between atoms: C_20  and  N_29
    2  A    between atoms: N_29  and  C_30
                            x       y       z     vdW  Elec       q    Type
                         _______ _______ _______ _____ _____    ______ ____

>  <TORSDO>
F 2

$$$$
=
 OpenBabel11122412563D

 32 37  0  0  1  0  0  0  0  0999 V2000
  161.3570  212.2030  149.7420 C   0  0  0  0  0  2  0  0  0  0  0  0
  161.5640  206.6360  149.1540 C   0  0  1  0  0  3  0  0  0  0  0  0
  160.4540  204.0300  153.0150 C   0  0  0  0  0  2  0  0  0  0  0  0
  160.6780  202.7960  152.1370 C   0  0  0  0  0  2  0  0  0  0  0  0
  161.0020  205.2950  146.9960 C   0  0  0  0  0  0  0  0  0  0  0  0
  160.8770  203.9970  146.3500 C   0  0  0  0  0  0  0  0  0  0  0  0
  161.8170  209.0690  149.0940 C   0  0  0  0  0  0  0  0  0  0  0  0
  161.9480  207.8840  151.2060 C   0  0  0  0  0  3  0  0  0  0  0  0
  160.8990  201.7990  146.2090 N   0  0  0  0  0  0  0  0  0  0  0  0
  162.1510  210.3480  151.2820 C   0  0  0  0  0  2  0  0  0  0  0  0
  160.4190  205.3040  152.1690 C   0  0  0  0  0  2  0  0  0  0  0  0
  161.7480  206.6660  150.5480 C   0  0  0  0  0  0  0  0  0  0  0  0
  161.7120  205.4120  151.3610 C   0  0  0  0  0  0  0  0  0  0  0  0
  161.5520  204.1680  149.1380 C   0  0  0  0  0  0  0  0  0  0  0  0
  160.5780  202.2910  144.9940 C   0  0  0  0  0  3  0  0  0  0  0  0
  162.3160  211.5620  148.7400 C   0  0  0  0  0  2  0  0  0  0  0  0
  161.9800  209.0860  150.4980 C   0  0  0  0  0  0  0  0  0  0  0  0
  160.5520  203.6850  145.0410 C   0  0  0  0  0  3  0  0  0  0  0  0
  161.8380  210.2590  148.2910 N   0  0  0  0  0  2  0  0  0  0  0  0
  161.0260  211.3220  150.9480 C   0  0  1  0  0  3  0  0  0  0  0  0
  161.9530  202.9610  151.3110 C   0  0  0  0  0  2  0  0  0  0  0  0
  161.8710  204.2040  150.5470 N   0  0  0  0  0  0  0  0  0  0  0  0
  161.4490  202.7930  148.4770 C   0  0  0  0  0  2  0  0  0  0  0  0
  161.6050  207.8490  148.4490 C   0  0  0  0  0  3  0  0  0  0  0  0
  160.7770  206.3420  146.3320 O   0  0  0  0  0  0  0  0  0  0  0  0
  161.0220  200.3920  146.5470 C   0  0  0  0  0  1  0  0  0  0  0  0
  161.3740  205.3340  148.4470 C   0  0  0  0  0  0  0  0  0  0  0  0
  161.0780  202.8420  147.0300 C   0  0  0  0  0  0  0  0  0  0  0  0
  160.7400  212.1630  152.0980 N   0  0  0  0  0  2  0  0  0  0  0  0
  160.0370  211.3440  153.0730 C   0  0  0  0  0  3  0  0  0  0  0  0
  160.3930  211.7960  154.4760 C   0  0  0  0  0  1  0  0  0  0  0  0
  158.5440  211.4860  152.8660 C   0  0  0  0  0  1  0  0  0  0  0  0
  1 20  1  0  0  0  0
  2 24  1  6  0  0  0
  2 12  1  0  0  0  0
  4  3  1  0  0  0  0
  5 27  1  0  0  0  0
  6  5  1  0  0  0  0
  6 28  2  0  0  0  0
  7 17  1  0  0  0  0
  9 26  1  0  0  0  0
  9 28  1  0  0  0  0
 11  3  1  0  0  0  0
 12  8  1  0  0  0  0
 12 13  2  0  0  0  0
 13 11  1  0  0  0  0
 14 22  1  0  0  0  0
 15 18  2  0  0  0  0
 15  9  1  0  0  0  0
 16  1  1  0  0  0  0
 17  8  2  0  0  0  0
 17 10  1  0  0  0  0
 18  6  1  0  0  0  0
 19 16  1  0  0  0  0
 19  7  1  0  0  0  0
 20 10  1  0  0  0  0
 20 29  1  1  0  0  0
 21  4  1  0  0  0  0
 22 21  1  0  0  0  0
 22 13  1  0  0  0  0
 23 14  1  0  0  0  0
 24  7  2  0  0  0  0
 25  5  2  0  0  0  0
 27 14  2  0  0  0  0
 27  2  1  0  0  0  0
 28 23  1  0  0  0  0
 29 30  1  0  0  0  0
 30 31  1  0  0  0  0
 32 30  1  0  0  0  0
M  END
>  <MODEL>
2

>  <REMARK>
 VINA RESULT:      -8.1      2.742      4.796
  Name = 
  2 active torsions:
  status: ('A' for Active; 'I' for Inactive)
    1  A    between atoms: C_20  and  N_29
    2  A    between atoms: N_29  and  C_30
                            x       y       z     vdW  Elec       q    Type
                         _______ _______ _______ _____ _____    ______ ____

>  <TORSDO>
F 2

$$$$
=
 OpenBabel11122412563D

 32 37  0  0  1  0  0  0  0  0999 V2000
  161.1740  213.3910  147.7070 C   0  0  0  0  0  2  0  0  0  0  0  0
  161.5770  208.2280  149.8460 C   0  0  1  0  0  3  0  0  0  0  0  0
  160.4660  207.7330  154.4770 C   0  0  0  0  0  2  0  0  0  0  0  0
  160.7500  206.2400  154.2940 C   0  0  0  0  0  2  0  0  0  0  0  0
  161.1100  206.0000  148.5850 C   0  0  0  0  0  0  0  0  0  0  0  0
  161.0430  204.5470  148.6360 C   0  0  0  0  0  0  0  0  0  0  0  0
  161.7510  210.3470  148.6340 C   0  0  0  0  0  0  0  0  0  0  0  0
  161.8740  210.3160  151.0560 C   0  0  0  0  0  3  0  0  0  0  0  0
  161.1390  202.5500  149.5590 N   0  0  0  0  0  0  0  0  0  0  0  0
  161.9930  212.5250  149.9490 C   0  0  0  0  0  2  0  0  0  0  0  0
  160.4090  208.4480  153.1260 C   0  0  0  0  0  2  0  0  0  0  0  0
  161.7290  208.9260  151.0570 C   0  0  0  0  0  0  0  0  0  0  0  0
  161.7150  208.2100  152.3690 C   0  0  0  0  0  0  0  0  0  0  0  0
  161.6470  206.0520  151.0080 C   0  0  0  0  0  0  0  0  0  0  0  0
  160.8310  202.3910  148.2550 C   0  0  0  0  0  3  0  0  0  0  0  0
  162.1770  212.3880  147.1360 C   0  0  0  0  0  2  0  0  0  0  0  0
  161.8820  211.0370  149.8610 C   0  0  0  0  0  0  0  0  0  0  0  0
  160.7580  203.6370  147.6320 C   0  0  0  0  0  3  0  0  0  0  0  0
  161.7520  211.0110  147.3610 N   0  0  0  0  0  2  0  0  0  0  0  0
  160.8450  213.1770  149.1860 C   0  0  1  0  0  3  0  0  0  0  0  0
  162.0380  206.0420  153.4950 C   0  0  0  0  0  2  0  0  0  0  0  0
  161.9330  206.7670  152.2310 N   0  0  0  0  0  0  0  0  0  0  0  0
  161.6040  204.5250  151.0820 C   0  0  0  0  0  2  0  0  0  0  0  0
  161.5950  208.9590  148.6470 C   0  0  0  0  0  3  0  0  0  0  0  0
  160.8660  206.5950  147.5020 O   0  0  0  0  0  0  0  0  0  0  0  0
  161.3010  201.4800  150.5280 C   0  0  0  0  0  1  0  0  0  0  0  0
  161.4470  206.7400  149.8430 C   0  0  0  0  0  0  0  0  0  0  0  0
  161.2660  203.8640  149.7850 C   0  0  0  0  0  0  0  0  0  0  0  0
  160.5060  214.4530  149.7950 N   0  0  0  0  0  2  0  0  0  0  0  0
  159.2100  214.2970  150.4370 C   0  0  0  0  0  3  0  0  0  0  0  0
  158.2200  213.6950  149.4590 C   0  0  0  0  0  1  0  0  0  0  0  0
  159.3490  213.3800  151.6340 C   0  0  0  0  0  1  0  0  0  0  0  0
  1 20  1  0  0  0  0
  2 24  1  6  0  0  0
  2 12  1  0  0  0  0
  4  3  1  0  0  0  0
  5  6  1  0  0  0  0
  5 27  1  0  0  0  0
  6 28  2  0  0  0  0
  7 24  2  0  0  0  0
  7 17  1  0  0  0  0
  8 12  1  0  0  0  0
  9 28  1  0  0  0  0
  9 26  1  0  0  0  0
 11  3  1  0  0  0  0
 12 13  2  0  0  0  0
 13 11  1  0  0  0  0
 14 23  1  0  0  0  0
 14 22  1  0  0  0  0
 15  9  1  0  0  0  0
 16 19  1  0  0  0  0
 16  1  1  0  0  0  0
 17 10  1  0  0  0  0
 17  8  2  0  0  0  0
 18 15  2  0  0  0  0
 18  6  1  0  0  0  0
 19  7  1  0  0  0  0
 20 29  1  1  0  0  0
 20 10  1  0  0  0  0
 21  4  1  0  0  0  0
 22 13  1  0  0  0  0
 22 21  1  0  0  0  0
 25  5  2  0  0  0  0
 27  2  1  0  0  0  0
 27 14  2  0  0  0  0
 28 23  1  0  0  0  0
 29 30  1  0  0  0  0
 30 32  1  0  0  0  0
 31 30  1  0  0  0  0
M  END
>  <MODEL>
3

>  <REMARK>
 VINA RESULT:      -7.4      3.255      5.628
  Name = 
  2 active torsions:
  status: ('A' for Active; 'I' for Inactive)
    1  A    between atoms: C_20  and  N_29
    2  A    between atoms: N_29  and  C_30
                            x       y       z     vdW  Elec       q    Type
                         _______ _______ _______ _____ _____    ______ ____

>  <TORSDO>
F 2

$$$$
=
 OpenBabel11122412563D

 32 37  0  0  1  0  0  0  0  0999 V2000
  160.5720  210.9360  154.0570 C   0  0  0  0  0  2  0  0  0  0  0  0
  161.2520  206.5680  150.6160 C   0  0  1  0  0  3  0  0  0  0  0  0
  160.1050  202.2610  152.3660 C   0  0  0  0  0  2  0  0  0  0  0  0
  160.4810  201.7010  150.9920 C   0  0  0  0  0  2  0  0  0  0  0  0
  160.9370  206.5810  148.0320 C   0  0  0  0  0  0  0  0  0  0  0  0
  160.9560  205.8300  146.7850 C   0  0  0  0  0  0  0  0  0  0  0  0
  161.3170  208.6580  151.8860 C   0  0  0  0  0  0  0  0  0  0  0  0
  161.4050  206.5280  153.0420 C   0  0  0  0  0  3  0  0  0  0  0  0
  161.1590  204.0550  145.4980 N   0  0  0  0  0  0  0  0  0  0  0  0
  161.4090  208.5700  154.4390 C   0  0  0  0  0  2  0  0  0  0  0  0
  160.0250  203.7880  152.3300 C   0  0  0  0  0  2  0  0  0  0  0  0
  161.3440  205.8500  151.8210 C   0  0  0  0  0  0  0  0  0  0  0  0
  161.3540  204.3550  151.8320 C   0  0  0  0  0  0  0  0  0  0  0  0
  161.4350  204.4970  149.2850 C   0  0  0  0  0  0  0  0  0  0  0  0
  160.8790  205.1120  144.7070 C   0  0  0  0  0  3  0  0  0  0  0  0
  161.6410  210.9650  152.9640 C   0  0  0  0  0  2  0  0  0  0  0  0
  161.3880  207.9230  153.0900 C   0  0  0  0  0  0  0  0  0  0  0  0
  160.7410  206.2600  145.4870 C   0  0  0  0  0  3  0  0  0  0  0  0
  161.2960  210.0940  151.8470 N   0  0  0  0  0  2  0  0  0  0  0  0
  160.2350  209.5340  154.5680 C   0  0  1  0  0  3  0  0  0  0  0  0
  161.7890  202.3240  150.5080 C   0  0  0  0  0  2  0  0  0  0  0  0
  161.6600  203.7800  150.5200 N   0  0  0  0  0  0  0  0  0  0  0  0
  161.4830  203.6900  147.9870 C   0  0  0  0  0  2  0  0  0  0  0  0
  161.2430  207.9710  150.6720 C   0  0  0  0  0  3  0  0  0  0  0  0
  160.6730  207.8120  148.0100 O   0  0  0  0  0  0  0  0  0  0  0  0
  161.3700  202.6910  145.0440 C   0  0  0  0  0  1  0  0  0  0  0  0
  161.2110  205.8450  149.3090 C   0  0  0  0  0  0  0  0  0  0  0  0
  161.2030  204.4980  146.7610 C   0  0  0  0  0  0  0  0  0  0  0  0
  159.8110  209.6160  155.9570 N   0  0  0  0  0  2  0  0  0  0  0  0
  159.9100  211.0090  156.3610 C   0  0  0  0  0  3  0  0  0  0  0  0
  158.6580  211.4160  157.1140 C   0  0  0  0  0  1  0  0  0  0  0  0
  161.1140  211.1880  157.2610 C   0  0  0  0  0  1  0  0  0  0  0  0
  1 20  1  0  0  0  0
  2 24  1  6  0  0  0
  2 12  1  0  0  0  0
  4  3  1  0  0  0  0
  5 27  1  0  0  0  0
  6  5  1  0  0  0  0
  7 17  1  0  0  0  0
  8 17  2  0  0  0  0
  9 28  1  0  0  0  0
 10 20  1  0  0  0  0
 11  3  1  0  0  0  0
 12 13  2  0  0  0  0
 12  8  1  0  0  0  0
 13 11  1  0  0  0  0
 14 27  2  0  0  0  0
 14 22  1  0  0  0  0
 15 18  2  0  0  0  0
 15  9  1  0  0  0  0
 16  1  1  0  0  0  0
 17 10  1  0  0  0  0
 18  6  1  0  0  0  0
 19  7  1  0  0  0  0
 19 16  1  0  0  0  0
 20 29  1  1  0  0  0
 21 22  1  0  0  0  0
 21  4  1  0  0  0  0
 22 13  1  0  0  0  0
 23 14  1  0  0  0  0
 24  7  2  0  0  0  0
 25  5  2  0  0  0  0
 26  9  1  0  0  0  0
 27  2  1  0  0  0  0
 28  6  2  0  0  0  0
 28 23  1  0  0  0  0
 29 30  1  0  0  0  0
 30 31  1  0  0  0  0
 30 32  1  0  0  0  0
M  END
>  <MODEL>
4

>  <REMARK>
 VINA RESULT:      -6.7      2.191      4.121
  Name = 
  2 active torsions:
  status: ('A' for Active; 'I' for Inactive)
    1  A    between atoms: C_20  and  N_29
    2  A    between atoms: N_29  and  C_30
                            x       y       z     vdW  Elec       q    Type
                         _______ _______ _______ _____ _____    ______ ____

>  <TORSDO>
F 2

$$$$
=
 OpenBabel11122412563D

 32 37  0  0  1  0  0  0  0  0999 V2000
  160.8080  202.1690  146.9360 C   0  0  0  0  0  2  0  0  0  0  0  0
  161.6050  206.5610  150.3200 C   0  0  0  0  0  0  0  0  0  0  0  0
  161.6040  210.8840  148.2600 C   0  0  0  0  0  2  0  0  0  0  0  0
  161.8090  211.4560  149.6650 C   0  0  0  0  0  2  0  0  0  0  0  0
  160.8120  206.7640  152.7910 C   0  0  0  0  0  0  0  0  0  0  0  0
  160.7320  207.5770  153.9960 C   0  0  0  0  0  0  0  0  0  0  0  0
  161.5290  204.4160  149.1460 C   0  0  0  0  0  0  0  0  0  0  0  0
  162.2170  206.4230  147.9710 C   0  0  0  0  0  2  0  0  0  0  0  0
  161.0060  209.3670  155.2480 N   0  0  0  0  0  0  0  0  0  0  0  0
  162.1140  204.3280  146.6590 C   0  0  0  0  0  2  0  0  0  0  0  0
  161.2440  209.3980  148.3210 C   0  0  0  0  0  2  0  0  0  0  0  0
  162.0500  207.1770  149.1370 C   0  0  0  0  0  0  0  0  0  0  0  0
  162.3310  208.6440  149.0860 C   0  0  0  0  0  0  0  0  0  0  0  0
  161.9050  208.6490  151.6020 C   0  0  0  0  0  0  0  0  0  0  0  0
  160.3970  208.4250  155.9980 C   0  0  0  0  0  3  0  0  0  0  0  0
  161.6290  202.0250  148.2170 C   0  0  0  0  0  2  0  0  0  0  0  0
  161.9570  205.0520  147.9590 C   0  0  0  0  0  0  0  0  0  0  0  0
  160.2030  207.2710  155.2380 C   0  0  0  0  0  3  0  0  0  0  0  0
  161.2430  203.0110  149.2200 N   0  0  0  0  0  2  0  0  0  0  0  0
  160.8310  203.5730  146.3290 C   0  0  1  0  0  3  0  0  0  0  0  0
  162.8690  210.6490  150.4130 C   0  0  0  0  0  2  0  0  0  0  0  0
  162.4840  209.2390  150.4160 N   0  0  0  0  0  0  0  0  0  0  0  0
  161.8520  209.5150  152.8610 C   0  0  0  0  0  2  0  0  0  0  0  0
  161.3540  205.1800  150.3020 C   0  0  0  0  0  3  0  0  0  0  0  0
  160.3320  205.6000  152.7950 O   0  0  0  0  0  0  0  0  0  0  0  0
  161.3700  210.7000  155.6970 C   0  0  0  0  0  1  0  0  0  0  0  0
  161.4500  207.3600  151.5730 C   0  0  0  0  0  0  0  0  0  0  0  0
  161.2060  208.8460  154.0310 C   0  0  0  0  0  0  0  0  0  0  0  0
  160.6680  203.4790  144.8870 N   0  0  0  0  0  2  0  0  0  0  0  0
  160.3290  204.8070  144.4000 C   0  0  0  0  0  3  0  0  0  0  0  0
  159.7250  205.6270  145.5240 C   0  0  0  0  0  1  0  0  0  0  0  0
  161.5810  205.4940  143.8990 C   0  0  0  0  0  1  0  0  0  0  0  0
  1 16  1  0  0  0  0
  2 27  1  0  0  0  0
  3 11  1  0  0  0  0
  3  4  1  0  0  0  0
  4 21  1  0  0  0  0
  5 25  2  0  0  0  0
  5  6  1  0  0  0  0
  6 28  2  0  0  0  0
  6 18  1  0  0  0  0
  7 19  1  0  0  0  0
  7 24  1  0  0  0  0
  8 12  1  0  0  0  0
  9 26  1  0  0  0  0
  9 15  1  0  0  0  0
 10 17  1  0  0  0  0
 11 13  1  0  0  0  0
 12  2  1  0  0  0  0
 13 12  2  0  0  0  0
 13 22  1  0  0  0  0
 14 23  1  0  0  0  0
 16 19  1  0  0  0  0
 17  8  1  0  0  0  0
 17  7  2  0  0  0  0
 18 15  2  0  0  0  0
 20 29  1  6  0  0  0
 20 10  1  0  0  0  0
 20  1  1  0  0  0  0
 21 22  1  0  0  0  0
 22 14  1  0  0  0  0
 23 28  1  0  0  0  0
 24  2  2  0  0  0  0
 27 14  2  0  0  0  0
 27  5  1  0  0  0  0
 28  9  1  0  0  0  0
 30 29  1  0  0  0  0
 30 31  1  0  0  0  0
 32 30  1  0  0  0  0
M  END
>  <MODEL>
5

>  <REMARK>
 VINA RESULT:      -6.4      2.069      8.010
  Name = 
  2 active torsions:
  status: ('A' for Active; 'I' for Inactive)
    1  A    between atoms: C_20  and  N_29
    2  A    between atoms: N_29  and  C_30
                            x       y       z     vdW  Elec       q    Type
                         _______ _______ _______ _____ _____    ______ ____

>  <TORSDO>
F 2

$$$$
=
 OpenBabel11122412563D

 32 37  0  0  1  0  0  0  0  0999 V2000
  160.0360  201.3280  149.9850 C   0  0  0  0  0  2  0  0  0  0  0  0
  161.3040  206.3680  152.0780 C   0  0  0  0  0  0  0  0  0  0  0  0
  161.5810  209.9810  148.9490 C   0  0  0  0  0  2  0  0  0  0  0  0
  161.8810  210.8810  150.1500 C   0  0  0  0  0  2  0  0  0  0  0  0
  160.6170  207.2790  154.4170 C   0  0  0  0  0  0  0  0  0  0  0  0
  160.6450  208.3830  155.3650 C   0  0  0  0  0  0  0  0  0  0  0  0
  161.0140  204.0050  151.5140 C   0  0  0  0  0  0  0  0  0  0  0  0
  161.8200  205.5650  149.8420 C   0  0  0  0  0  2  0  0  0  0  0  0
  161.1060  210.4090  156.0960 N   0  0  0  0  0  0  0  0  0  0  0  0
  161.5020  203.2170  149.1320 C   0  0  0  0  0  2  0  0  0  0  0  0
  161.1040  208.6010  149.4050 C   0  0  0  0  0  2  0  0  0  0  0  0
  161.7560  206.6100  150.7690 C   0  0  0  0  0  0  0  0  0  0  0  0
  162.1530  207.9820  150.3280 C   0  0  0  0  0  0  0  0  0  0  0  0
  161.8170  208.6840  152.7590 C   0  0  0  0  0  0  0  0  0  0  0  0
  160.4500  209.7530  157.0760 C   0  0  0  0  0  3  0  0  0  0  0  0
  160.8870  201.4540  151.2480 C   0  0  0  0  0  2  0  0  0  0  0  0
  161.4500  204.2670  150.1960 C   0  0  0  0  0  0  0  0  0  0  0  0
  160.1370  208.4620  156.6500 C   0  0  0  0  0  3  0  0  0  0  0  0
  160.6180  202.6980  151.9600 N   0  0  0  0  0  2  0  0  0  0  0  0
  160.1520  202.5170  149.0280 C   0  0  1  0  0  3  0  0  0  0  0  0
  162.8970  210.2100  151.0720 C   0  0  0  0  0  2  0  0  0  0  0  0
  162.4000  208.8890  151.4520 N   0  0  0  0  0  0  0  0  0  0  0  0
  161.8790  209.8510  153.7450 C   0  0  0  0  0  2  0  0  0  0  0  0
  160.9420  205.0570  152.4290 C   0  0  0  0  0  3  0  0  0  0  0  0
  160.0450  206.2030  154.7350 O   0  0  0  0  0  0  0  0  0  0  0  0
  161.5930  211.7750  156.1720 C   0  0  0  0  0  1  0  0  0  0  0  0
  161.2580  207.4770  153.0770 C   0  0  0  0  0  0  0  0  0  0  0  0
  161.2210  209.5710  155.0580 C   0  0  0  0  0  0  0  0  0  0  0  0
  159.9320  202.0630  147.6650 N   0  0  0  0  0  2  0  0  0  0  0  0
  161.2360  201.9220  147.0370 C   0  0  0  0  0  3  0  0  0  0  0  0
  161.5810  200.4530  146.8930 C   0  0  0  0  0  1  0  0  0  0  0  0
  161.2060  202.5640  145.6660 C   0  0  0  0  0  1  0  0  0  0  0  0
  1 16  1  0  0  0  0
  2 24  2  0  0  0  0
  2 27  1  0  0  0  0
  3 11  1  0  0  0  0
  3  4  1  0  0  0  0
  4 21  1  0  0  0  0
  5 25  2  0  0  0  0
  5  6  1  0  0  0  0
  6 18  1  0  0  0  0
  7 19  1  0  0  0  0
  7 24  1  0  0  0  0
  8 17  1  0  0  0  0
  8 12  1  0  0  0  0
  9 26  1  0  0  0  0
  9 15  1  0  0  0  0
 10 17  1  0  0  0  0
 11 13  1  0  0  0  0
 12  2  1  0  0  0  0
 13 12  2  0  0  0  0
 13 22  1  0  0  0  0
 14 27  2  0  0  0  0
 14 23  1  0  0  0  0
 16 19  1  0  0  0  0
 17  7  2  0  0  0  0
 18 15  2  0  0  0  0
 20 29  1  6  0  0  0
 20 10  1  0  0  0  0
 20  1  1  0  0  0  0
 21 22  1  0  0  0  0
 22 14  1  0  0  0  0
 23 28  1  0  0  0  0
 27  5  1  0  0  0  0
 28  6  2  0  0  0  0
 28  9  1  0  0  0  0
 30 29  1  0  0  0  0
 31 30  1  0  0  0  0
 32 30  1  0  0  0  0
M  END
>  <MODEL>
6

>  <REMARK>
 VINA RESULT:      -6.3      1.679      8.056
  Name = 
  2 active torsions:
  status: ('A' for Active; 'I' for Inactive)
    1  A    between atoms: C_20  and  N_29
    2  A    between atoms: N_29  and  C_30
                            x       y       z     vdW  Elec       q    Type
                         _______ _______ _______ _____ _____    ______ ____

>  <TORSDO>
F 2

$$$$
