=
 OpenBabel11122414393D

 34 42  0  0  1  0  0  0  0  0999 V2000
  161.4570  207.2170  148.6540 C   0  0  2  0  0  3  0  0  0  0  0  0
  161.7900  209.5190  149.2430 O   0  0  0  0  0  0  0  0  0  0  0  0
  161.2030  200.6760  149.8470 C   0  0  2  0  0  3  0  0  0  0  0  0
  160.8960  204.8690  148.2030 C   0  0  1  0  0  3  0  0  0  0  0  0
  161.3940  203.2140  150.1440 C   0  0  2  0  0  3  0  0  0  0  0  0
  161.4150  201.7060  151.9970 O   0  0  0  0  0  1  0  0  0  0  0  0
  162.3490  200.8830  149.0500 O   0  0  0  0  0  0  0  0  0  0  0  0
  160.8160  202.2680  147.7760 C   0  0  1  0  0  3  0  0  0  0  0  0
  162.3450  207.9350  150.9440 C   0  0  2  0  0  3  0  0  0  0  0  0
  160.9000  208.7230  153.7260 C   0  0  0  0  0  2  0  0  0  0  0  0
  160.9690  204.3590  150.9460 N   0  0  0  0  0  2  0  0  0  0  0  0
  159.6950  202.8160  148.4320 O   0  0  0  0  0  0  0  0  0  0  0  0
  161.4520  206.7540  151.3870 C   0  0  1  0  0  3  0  0  0  0  0  0
  162.1150  210.2320  150.4060 C   0  0  0  0  0  2  0  0  0  0  0  0
  160.9370  203.4260  148.7010 C   0  0  2  0  0  0  0  0  0  0  0  0
  161.1160  200.8670  148.3610 C   0  0  2  0  0  3  0  0  0  0  0  0
  160.7440  209.3860  152.3590 C   0  0  2  0  0  3  0  0  0  0  0  0
  161.8080  205.7800  149.0350 C   0  0  2  0  0  3  0  0  0  0  0  0
  160.8820  201.9000  150.7230 C   0  0  2  0  0  3  0  0  0  0  0  0
  161.8050  205.5070  150.5670 C   0  0  2  0  0  3  0  0  0  0  0  0
  160.8150  206.2710  146.4320 C   0  0  0  0  0  2  0  0  0  0  0  0
  160.5910  207.2350  153.6720 C   0  0  0  0  0  2  0  0  0  0  0  0
  161.2410  204.9880  146.8430 O   0  0  0  0  0  0  0  0  0  0  0  0
  161.6360  206.4750  152.8710 C   0  0  0  0  0  2  0  0  0  0  0  0
  162.0750  209.2860  151.5910 C   0  0  1  0  0  3  0  0  0  0  0  0
  161.6180  207.3770  147.1420 C   0  0  0  0  0  2  0  0  0  0  0  0
  162.3000  208.2250  149.4360 C   0  0  1  0  0  3  0  0  0  0  0  0
  160.3770  210.7680  152.5500 N   0  0  0  0  0  0  0  0  0  0  0  0
  159.3560  211.0840  153.2640 C   0  0  0  0  0  3  0  0  0  0  0  0
  157.0000  213.8720  153.1690 C   0  0  0  0  0  2  0  0  0  0  0  0
  159.1460  213.3240  152.1930 C   0  0  0  0  0  2  0  0  0  0  0  0
  158.9660  212.5150  153.4670 C   0  0  0  0  0  3  0  0  0  0  0  0
  157.8060  213.9670  151.8930 C   0  0  0  0  0  2  0  0  0  0  0  0
  157.5080  212.6320  153.8670 C   0  0  0  0  0  2  0  0  0  0  0  0
  1 26  1  6  0  0  0
  1 18  1  0  0  0  0
  1 27  1  0  0  0  0
  2 27  1  0  0  0  0
  2 14  1  0  0  0  0
  3  7  1  6  0  0  0
  3 19  1  0  0  0  0
  4 23  1  6  0  0  0
  4 15  1  0  0  0  0
  4 18  1  0  0  0  0
  5 19  1  0  0  0  0
  5 11  1  1  0  0  0
  8 16  1  0  0  0  0
  8 12  1  1  0  0  0
  8 15  1  0  0  0  0
  9 13  1  0  0  0  0
  9 25  1  0  0  0  0
 12 15  1  0  0  0  0
 13 24  1  0  0  0  0
 14 25  1  0  0  0  0
 15  5  1  0  0  0  0
 16  7  1  0  0  0  0
 16  3  1  0  0  0  0
 17 28  1  0  0  0  0
 17 10  1  0  0  0  0
 18 20  1  0  0  0  0
 19  6  1  0  0  0  0
 20 11  1  0  0  0  0
 20 13  1  0  0  0  0
 21 23  1  0  0  0  0
 21 26  1  0  0  0  0
 22 10  1  0  0  0  0
 24 22  1  0  0  0  0
 25 17  1  0  0  0  0
 27  9  1  0  0  0  0
 28 29  2  0  0  0  0
 29 32  1  0  0  0  0
 30 34  1  0  0  0  0
 31 32  1  0  0  0  0
 32 34  1  0  0  0  0
 33 31  1  0  0  0  0
 33 30  1  0  0  0  0
M  END
>  <MODEL>
1

>  <REMARK>
 VINA RESULT:      -7.6      0.000      0.000
  Name = 
  2 active torsions:
  status: ('A' for Active; 'I' for Inactive)
    1  A    between atoms: C_17  and  N_28
    2  A    between atoms: C_29  and  C_32
                            x       y       z     vdW  Elec       q    Type
                         _______ _______ _______ _____ _____    ______ ____

>  <TORSDO>
F 2

$$$$
=
 OpenBabel11122414393D

 34 42  0  0  1  0  0  0  0  0999 V2000
  161.6880  209.3990  151.0500 C   0  0  2  0  0  3  0  0  0  0  0  0
  161.8130  210.8550  152.9540 O   0  0  0  0  0  0  0  0  0  0  0  0
  161.3750  203.4940  148.0030 C   0  0  2  0  0  3  0  0  0  0  0  0
  161.3110  207.8500  149.1830 C   0  0  1  0  0  3  0  0  0  0  0  0
  161.4180  205.3260  149.7930 C   0  0  2  0  0  3  0  0  0  0  0  0
  161.0750  203.0240  150.3300 O   0  0  0  0  0  1  0  0  0  0  0  0
  162.6610  204.0050  147.7300 O   0  0  0  0  0  0  0  0  0  0  0  0
  161.4060  206.0310  147.2750 C   0  0  1  0  0  3  0  0  0  0  0  0
  162.0270  208.5240  153.4310 C   0  0  2  0  0  3  0  0  0  0  0  0
  159.9800  207.6680  155.7830 C   0  0  0  0  0  2  0  0  0  0  0  0
  160.7930  205.8140  151.0200 N   0  0  0  0  0  2  0  0  0  0  0  0
  160.1520  206.2040  147.8950 O   0  0  0  0  0  0  0  0  0  0  0  0
  161.0950  207.4150  152.8930 C   0  0  1  0  0  3  0  0  0  0  0  0
  161.8520  210.7030  154.3470 C   0  0  0  0  0  2  0  0  0  0  0  0
  161.2850  206.3970  148.7110 C   0  0  2  0  0  0  0  0  0  0  0  0
  161.6120  204.5340  146.9470 C   0  0  2  0  0  3  0  0  0  0  0  0
  160.1100  209.0220  155.0890 C   0  0  2  0  0  3  0  0  0  0  0  0
  161.9890  207.9880  150.5530 C   0  0  2  0  0  3  0  0  0  0  0  0
  160.8310  203.9900  149.3540 C   0  0  2  0  0  3  0  0  0  0  0  0
  161.6570  206.8640  151.5770 C   0  0  2  0  0  3  0  0  0  0  0  0
  161.5810  210.0250  148.6340 C   0  0  0  0  0  2  0  0  0  0  0  0
  159.7360  206.5430  154.7870 C   0  0  0  0  0  2  0  0  0  0  0  0
  161.9440  208.7110  148.2660 O   0  0  0  0  0  0  0  0  0  0  0  0
  160.9540  206.2950  153.9130 C   0  0  0  0  0  2  0  0  0  0  0  0
  161.5800  209.2510  154.6910 C   0  0  1  0  0  3  0  0  0  0  0  0
  162.1730  210.4030  150.0050 C   0  0  0  0  0  2  0  0  0  0  0  0
  162.3070  209.6510  152.4260 C   0  0  1  0  0  3  0  0  0  0  0  0
  159.6680  210.0540  155.9950 N   0  0  0  0  0  0  0  0  0  0  0  0
  158.5820  210.7020  155.7730 C   0  0  0  0  0  3  0  0  0  0  0  0
  156.3100  213.3650  156.8130 C   0  0  0  0  0  2  0  0  0  0  0  0
  158.6660  213.1350  156.3070 C   0  0  0  0  0  2  0  0  0  0  0  0
  158.1150  211.7760  156.7070 C   0  0  0  0  0  3  0  0  0  0  0  0
  157.4720  214.0540  156.1340 C   0  0  0  0  0  2  0  0  0  0  0  0
  156.6020  211.8880  156.6970 C   0  0  0  0  0  2  0  0  0  0  0  0
  1 26  1  6  0  0  0
  1 27  1  0  0  0  0
  2 14  1  0  0  0  0
  3  7  1  1  0  0  0
  3 19  1  0  0  0  0
  4 23  1  6  0  0  0
  4 18  1  0  0  0  0
  5 11  1  1  0  0  0
  8 12  1  6  0  0  0
  8 15  1  0  0  0  0
  9 25  1  0  0  0  0
 11 20  1  0  0  0  0
 12 15  1  0  0  0  0
 13  9  1  0  0  0  0
 13 24  1  0  0  0  0
 14 25  1  0  0  0  0
 15  4  1  0  0  0  0
 15  5  1  0  0  0  0
 16  8  1  0  0  0  0
 16  7  1  0  0  0  0
 16  3  1  0  0  0  0
 17 10  1  0  0  0  0
 17 28  1  0  0  0  0
 18  1  1  0  0  0  0
 18 20  1  0  0  0  0
 19  5  1  0  0  0  0
 19  6  1  0  0  0  0
 20 13  1  0  0  0  0
 21 26  1  0  0  0  0
 22 10  1  0  0  0  0
 23 21  1  0  0  0  0
 24 22  1  0  0  0  0
 25 17  1  0  0  0  0
 27  2  1  0  0  0  0
 27  9  1  0  0  0  0
 29 28  2  0  0  0  0
 29 32  1  0  0  0  0
 31 32  1  0  0  0  0
 33 31  1  0  0  0  0
 33 30  1  0  0  0  0
 34 32  1  0  0  0  0
 34 30  1  0  0  0  0
M  END
>  <MODEL>
2

>  <REMARK>
 VINA RESULT:      -7.5      2.099      3.192
  Name = 
  2 active torsions:
  status: ('A' for Active; 'I' for Inactive)
    1  A    between atoms: C_17  and  N_28
    2  A    between atoms: C_29  and  C_32
                            x       y       z     vdW  Elec       q    Type
                         _______ _______ _______ _____ _____    ______ ____

>  <TORSDO>
F 2

$$$$
=
 OpenBabel11122414393D

 34 42  0  0  1  0  0  0  0  0999 V2000
  160.6800  207.2390  154.0420 C   0  0  2  0  0  3  0  0  0  0  0  0
  161.7360  205.3270  153.0480 O   0  0  0  0  0  0  0  0  0  0  0  0
  159.0380  213.6730  154.4500 C   0  0  2  0  0  3  0  0  0  0  0  0
  159.4340  209.1950  154.8490 C   0  0  1  0  0  3  0  0  0  0  0  0
  159.9500  211.4260  153.6220 C   0  0  2  0  0  3  0  0  0  0  0  0
  160.0380  213.4090  152.2910 O   0  0  0  0  0  1  0  0  0  0  0  0
  159.9630  213.4410  155.4900 O   0  0  0  0  0  0  0  0  0  0  0  0
  158.5770  211.4810  155.8460 C   0  0  1  0  0  3  0  0  0  0  0  0
  162.2650  207.4290  152.0420 C   0  0  2  0  0  3  0  0  0  0  0  0
  161.8130  207.2880  148.8440 C   0  0  0  0  0  2  0  0  0  0  0  0
  160.0520  210.5260  152.4760 N   0  0  0  0  0  2  0  0  0  0  0  0
  157.8360  210.9690  154.7610 O   0  0  0  0  0  0  0  0  0  0  0  0
  161.2350  208.5100  151.6420 C   0  0  1  0  0  3  0  0  0  0  0  0
  162.5150  205.0760  151.9090 C   0  0  0  0  0  2  0  0  0  0  0  0
  159.2200  210.7040  154.7540 C   0  0  2  0  0  0  0  0  0  0  0  0
  158.6370  213.0230  155.7410 C   0  0  2  0  0  3  0  0  0  0  0  0
  161.5000  206.2220  149.8910 C   0  0  2  0  0  3  0  0  0  0  0  0
  160.7290  208.7620  154.1490 C   0  0  2  0  0  3  0  0  0  0  0  0
  159.2740  212.7410  153.2490 C   0  0  2  0  0  3  0  0  0  0  0  0
  161.0360  209.4870  152.8070 C   0  0  2  0  0  3  0  0  0  0  0  0
  159.2830  207.3260  156.1120 C   0  0  0  0  0  2  0  0  0  0  0  0
  161.1250  208.6080  149.1580 C   0  0  0  0  0  2  0  0  0  0  0  0
  159.4480  208.7280  156.1780 O   0  0  0  0  0  0  0  0  0  0  0  0
  161.7030  209.2590  150.4030 C   0  0  0  0  0  2  0  0  0  0  0  0
  162.5250  206.3170  151.0370 C   0  0  1  0  0  3  0  0  0  0  0  0
  160.4960  206.6540  155.4430 C   0  0  0  0  0  2  0  0  0  0  0  0
  161.9240  206.6880  153.3430 C   0  0  1  0  0  3  0  0  0  0  0  0
  161.5650  204.9230  149.2670 N   0  0  0  0  0  0  0  0  0  0  0  0
  161.8930  204.8040  148.0300 C   0  0  0  0  0  3  0  0  0  0  0  0
  160.6760  202.2090  145.7680 C   0  0  0  0  0  2  0  0  0  0  0  0
  161.1430  202.4300  148.1320 C   0  0  0  0  0  2  0  0  0  0  0  0
  161.9620  203.4600  147.3730 C   0  0  0  0  0  3  0  0  0  0  0  0
  160.1610  201.8370  147.1400 C   0  0  0  0  0  2  0  0  0  0  0  0
  161.4110  203.5150  145.9610 C   0  0  0  0  0  2  0  0  0  0  0  0
  1 18  1  0  0  0  0
  1 26  1  1  0  0  0
  2 27  1  0  0  0  0
  3  7  1  1  0  0  0
  3 16  1  0  0  0  0
  4 23  1  1  0  0  0
  5 11  1  6  0  0  0
  5 15  1  0  0  0  0
  6 19  1  0  0  0  0
  7 16  1  0  0  0  0
  8 12  1  6  0  0  0
  9 27  1  0  0  0  0
 10 22  1  0  0  0  0
 10 17  1  0  0  0  0
 11 20  1  0  0  0  0
 13  9  1  0  0  0  0
 13 20  1  0  0  0  0
 14  2  1  0  0  0  0
 15 12  1  0  0  0  0
 15  4  1  0  0  0  0
 15  8  1  0  0  0  0
 16  8  1  0  0  0  0
 17 25  1  0  0  0  0
 18  4  1  0  0  0  0
 19  5  1  0  0  0  0
 19  3  1  0  0  0  0
 20 18  1  0  0  0  0
 21 23  1  0  0  0  0
 22 24  1  0  0  0  0
 24 13  1  0  0  0  0
 25 14  1  0  0  0  0
 25  9  1  0  0  0  0
 26 21  1  0  0  0  0
 27  1  1  0  0  0  0
 28 17  1  0  0  0  0
 29 28  2  0  0  0  0
 30 34  1  0  0  0  0
 30 33  1  0  0  0  0
 32 29  1  0  0  0  0
 32 31  1  0  0  0  0
 33 31  1  0  0  0  0
 34 32  1  0  0  0  0
M  END
>  <MODEL>
3

>  <REMARK>
 VINA RESULT:      -6.9      2.782      9.201
  Name = 
  2 active torsions:
  status: ('A' for Active; 'I' for Inactive)
    1  A    between atoms: C_17  and  N_28
    2  A    between atoms: C_29  and  C_32
                            x       y       z     vdW  Elec       q    Type
                         _______ _______ _______ _____ _____    ______ ____

>  <TORSDO>
F 2

$$$$
=
 OpenBabel11122414393D

 34 42  0  0  1  0  0  0  0  0999 V2000
  161.6580  209.1200  150.7460 C   0  0  2  0  0  3  0  0  0  0  0  0
  161.9570  210.1530  148.6010 O   0  0  0  0  0  0  0  0  0  0  0  0
  160.3080  209.0610  157.2610 C   0  0  2  0  0  3  0  0  0  0  0  0
  161.0920  208.1200  152.9170 C   0  0  1  0  0  3  0  0  0  0  0  0
  160.6150  209.8120  154.8300 C   0  0  2  0  0  3  0  0  0  0  0  0
  159.7530  211.2670  156.5170 O   0  0  0  0  0  1  0  0  0  0  0  0
  161.6900  208.8000  157.1470 O   0  0  0  0  0  0  0  0  0  0  0  0
  160.9310  207.2830  155.4120 C   0  0  1  0  0  3  0  0  0  0  0  0
  161.6350  211.6590  150.4280 C   0  0  2  0  0  3  0  0  0  0  0  0
  159.2920  213.7770  149.7360 C   0  0  0  0  0  2  0  0  0  0  0  0
  160.0240  210.5670  153.7280 N   0  0  0  0  0  2  0  0  0  0  0  0
  159.7010  207.5450  154.7730 O   0  0  0  0  0  0  0  0  0  0  0  0
  160.5270  211.5360  151.4990 C   0  0  1  0  0  3  0  0  0  0  0  0
  161.8650  211.4510  148.0780 C   0  0  0  0  0  2  0  0  0  0  0  0
  160.7890  208.3570  154.3950 C   0  0  2  0  0  0  0  0  0  0  0  0
  160.8350  207.7040  156.8970 C   0  0  2  0  0  3  0  0  0  0  0  0
  159.7560  212.5780  148.9120 C   0  0  2  0  0  3  0  0  0  0  0  0
  161.6860  209.3690  152.2530 C   0  0  2  0  0  3  0  0  0  0  0  0
  159.7890  209.9350  156.1050 C   0  0  2  0  0  3  0  0  0  0  0  0
  161.0500  210.7210  152.6880 C   0  0  2  0  0  3  0  0  0  0  0  0
  161.8570  206.7000  151.3340 C   0  0  0  0  0  2  0  0  0  0  0  0
  158.8850  213.3720  151.1450 C   0  0  0  0  0  2  0  0  0  0  0  0
  161.9560  207.0290  152.7040 O   0  0  0  0  0  0  0  0  0  0  0  0
  160.0800  212.9150  151.9640 C   0  0  0  0  0  2  0  0  0  0  0  0
  161.2660  212.3640  149.1300 C   0  0  1  0  0  3  0  0  0  0  0  0
  162.4190  207.8280  150.4480 C   0  0  0  0  0  2  0  0  0  0  0  0
  162.2180  210.3140  149.9720 C   0  0  1  0  0  3  0  0  0  0  0  0
  159.4820  212.8360  147.5190 N   0  0  0  0  0  0  0  0  0  0  0  0
  159.7510  213.9790  146.9970 C   0  0  0  0  0  3  0  0  0  0  0  0
  159.2890  212.9920  143.5120 C   0  0  0  0  0  2  0  0  0  0  0  0
  160.7550  214.4530  144.7670 C   0  0  0  0  0  2  0  0  0  0  0  0
  159.4690  214.2560  145.5530 C   0  0  0  0  0  3  0  0  0  0  0  0
  160.7240  213.4560  143.6250 C   0  0  0  0  0  2  0  0  0  0  0  0
  158.7270  213.1010  144.9100 C   0  0  0  0  0  2  0  0  0  0  0  0
  1 26  1  1  0  0  0
  1 18  1  0  0  0  0
  2 27  1  0  0  0  0
  3  7  1  6  0  0  0
  4 23  1  1  0  0  0
  4 15  1  0  0  0  0
  5 11  1  6  0  0  0
  5 19  1  0  0  0  0
  8 12  1  6  0  0  0
  8 16  1  0  0  0  0
  9 13  1  0  0  0  0
 10 22  1  0  0  0  0
 13 24  1  0  0  0  0
 13 20  1  0  0  0  0
 14  2  1  0  0  0  0
 14 25  1  0  0  0  0
 15 12  1  0  0  0  0
 15  5  1  0  0  0  0
 15  8  1  0  0  0  0
 16  7  1  0  0  0  0
 16  3  1  0  0  0  0
 17 25  1  0  0  0  0
 17 10  1  0  0  0  0
 18 20  1  0  0  0  0
 18  4  1  0  0  0  0
 19  6  1  0  0  0  0
 19  3  1  0  0  0  0
 20 11  1  0  0  0  0
 21 23  1  0  0  0  0
 22 24  1  0  0  0  0
 25  9  1  0  0  0  0
 26 21  1  0  0  0  0
 27  9  1  0  0  0  0
 27  1  1  0  0  0  0
 28 17  1  0  0  0  0
 29 28  2  0  0  0  0
 30 33  1  0  0  0  0
 30 34  1  0  0  0  0
 31 32  1  0  0  0  0
 32 29  1  0  0  0  0
 33 31  1  0  0  0  0
 34 32  1  0  0  0  0
M  END
>  <MODEL>
4

>  <REMARK>
 VINA RESULT:      -5.7      4.080      7.194
  Name = 
  2 active torsions:
  status: ('A' for Active; 'I' for Inactive)
    1  A    between atoms: C_17  and  N_28
    2  A    between atoms: C_29  and  C_32
                            x       y       z     vdW  Elec       q    Type
                         _______ _______ _______ _____ _____    ______ ____

>  <TORSDO>
F 2

$$$$
=
 OpenBabel11122414393D

 34 42  0  0  1  0  0  0  0  0999 V2000
  161.5950  208.2290  150.2410 C   0  0  2  0  0  3  0  0  0  0  0  0
  161.3130  206.9220  148.2480 O   0  0  0  0  0  0  0  0  0  0  0  0
  160.9930  209.4920  156.7450 C   0  0  2  0  0  3  0  0  0  0  0  0
  162.0570  209.3800  152.3600 C   0  0  1  0  0  3  0  0  0  0  0  0
  160.9420  208.3330  154.4610 C   0  0  2  0  0  3  0  0  0  0  0  0
  160.3220  207.2100  156.4760 O   0  0  0  0  0  1  0  0  0  0  0  0
  160.1120  210.3800  156.0930 O   0  0  0  0  0  0  0  0  0  0  0  0
  162.0290  210.7030  154.6410 C   0  0  1  0  0  3  0  0  0  0  0  0
  160.2100  206.0780  150.1930 C   0  0  2  0  0  3  0  0  0  0  0  0
  160.9510  202.9630  150.6410 C   0  0  0  0  0  2  0  0  0  0  0  0
  161.2390  207.0970  153.7400 N   0  0  0  0  0  2  0  0  0  0  0  0
  162.9860  209.6720  154.5430 O   0  0  0  0  0  0  0  0  0  0  0  0
  160.8580  205.9210  151.5870 C   0  0  1  0  0  3  0  0  0  0  0  0
  160.7590  205.6750  147.9230 C   0  0  0  0  0  2  0  0  0  0  0  0
  161.7710  209.4660  153.8580 C   0  0  2  0  0  0  0  0  0  0  0  0
  161.4750  210.7500  156.0840 C   0  0  2  0  0  3  0  0  0  0  0  0
  161.5070  203.9270  149.5940 C   0  0  2  0  0  3  0  0  0  0  0  0
  161.0400  208.4840  151.6400 C   0  0  2  0  0  3  0  0  0  0  0  0
  161.1780  208.1820  155.9590 C   0  0  2  0  0  3  0  0  0  0  0  0
  160.6270  207.1950  152.4080 C   0  0  2  0  0  3  0  0  0  0  0  0
  162.7060  210.4540  150.4800 C   0  0  0  0  0  2  0  0  0  0  0  0
  161.1390  203.4930  152.0540 C   0  0  0  0  0  2  0  0  0  0  0  0
  162.0850  210.6420  151.7350 O   0  0  0  0  0  0  0  0  0  0  0  0
  160.2760  204.7170  152.3130 C   0  0  0  0  0  2  0  0  0  0  0  0
  160.4150  204.9390  149.2040 C   0  0  1  0  0  3  0  0  0  0  0  0
  161.8420  209.5740  149.5580 C   0  0  0  0  0  2  0  0  0  0  0  0
  160.6640  207.3280  149.4270 C   0  0  1  0  0  3  0  0  0  0  0  0
  161.9250  203.1690  148.4400 N   0  0  0  0  0  0  0  0  0  0  0  0
  161.0910  202.4310  147.8010 C   0  0  0  0  0  3  0  0  0  0  0  0
  160.4560  200.3250  144.8860 C   0  0  0  0  0  2  0  0  0  0  0  0
  161.7150  200.1740  146.9480 C   0  0  0  0  0  2  0  0  0  0  0  0
  161.5150  201.6400  146.6010 C   0  0  0  0  0  3  0  0  0  0  0  0
  160.8310  199.3800  146.0060 C   0  0  0  0  0  2  0  0  0  0  0  0
  160.4650  201.7010  145.5080 C   0  0  0  0  0  2  0  0  0  0  0  0
  1 26  1  6  0  0  0
  1 18  1  0  0  0  0
  2 27  1  0  0  0  0
  3  7  1  6  0  0  0
  4 23  1  6  0  0  0
  4 15  1  0  0  0  0
  5 11  1  6  0  0  0
  5 19  1  0  0  0  0
  8 12  1  1  0  0  0
  8 16  1  0  0  0  0
  9 13  1  0  0  0  0
 10 22  1  0  0  0  0
 13 24  1  0  0  0  0
 13 20  1  0  0  0  0
 14  2  1  0  0  0  0
 14 25  1  0  0  0  0
 15  5  1  0  0  0  0
 15 12  1  0  0  0  0
 15  8  1  0  0  0  0
 16  7  1  0  0  0  0
 16  3  1  0  0  0  0
 17 10  1  0  0  0  0
 18  4  1  0  0  0  0
 18 20  1  0  0  0  0
 19  6  1  0  0  0  0
 19  3  1  0  0  0  0
 20 11  1  0  0  0  0
 21 23  1  0  0  0  0
 22 24  1  0  0  0  0
 25 17  1  0  0  0  0
 25  9  1  0  0  0  0
 26 21  1  0  0  0  0
 27  9  1  0  0  0  0
 27  1  1  0  0  0  0
 28 17  1  0  0  0  0
 29 28  2  0  0  0  0
 30 34  1  0  0  0  0
 30 33  1  0  0  0  0
 32 31  1  0  0  0  0
 32 29  1  0  0  0  0
 33 31  1  0  0  0  0
 34 32  1  0  0  0  0
M  END
>  <MODEL>
5

>  <REMARK>
 VINA RESULT:      -5.4      3.035      8.605
  Name = 
  2 active torsions:
  status: ('A' for Active; 'I' for Inactive)
    1  A    between atoms: C_17  and  N_28
    2  A    between atoms: C_29  and  C_32
                            x       y       z     vdW  Elec       q    Type
                         _______ _______ _______ _____ _____    ______ ____

>  <TORSDO>
F 2

$$$$
=
 OpenBabel11122414393D

 34 42  0  0  1  0  0  0  0  0999 V2000
  161.1650  210.5400  150.9290 C   0  0  2  0  0  3  0  0  0  0  0  0
  161.9620  210.8280  148.6840 O   0  0  0  0  0  0  0  0  0  0  0  0
  158.2930  212.5190  156.5950 C   0  0  2  0  0  3  0  0  0  0  0  0
  160.1010  210.2680  153.1260 C   0  0  1  0  0  3  0  0  0  0  0  0
  159.1690  212.4490  154.1880 C   0  0  2  0  0  3  0  0  0  0  0  0
  157.9180  214.2980  155.0380 O   0  0  0  0  0  1  0  0  0  0  0  0
  159.6630  212.3570  156.8890 O   0  0  0  0  0  0  0  0  0  0  0  0
  159.3510  210.2910  155.6540 C   0  0  1  0  0  3  0  0  0  0  0  0
  161.2030  212.8190  149.7650 C   0  0  2  0  0  3  0  0  0  0  0  0
  159.0820  214.3760  147.8870 C   0  0  0  0  0  2  0  0  0  0  0  0
  158.8550  212.7420  152.7920 N   0  0  0  0  0  2  0  0  0  0  0  0
  158.3090  210.2200  154.7060 O   0  0  0  0  0  0  0  0  0  0  0  0
  159.8720  212.9610  150.5380 C   0  0  1  0  0  3  0  0  0  0  0  0
  161.9910  211.8670  147.7430 C   0  0  0  0  0  2  0  0  0  0  0  0
  159.4510  210.9530  154.3260 C   0  0  2  0  0  0  0  0  0  0  0  0
  158.9000  211.1700  156.8440 C   0  0  2  0  0  3  0  0  0  0  0  0
  159.7370  213.0170  147.6480 C   0  0  2  0  0  3  0  0  0  0  0  0
  160.8290  211.2750  152.2250 C   0  0  2  0  0  3  0  0  0  0  0  0
  158.0610  212.9140  155.1250 C   0  0  2  0  0  3  0  0  0  0  0  0
  160.0990  212.6340  152.0180 C   0  0  2  0  0  3  0  0  0  0  0  0
  161.2320  208.4770  152.3370 C   0  0  0  0  0  2  0  0  0  0  0  0
  158.3510  214.4250  149.2200 C   0  0  0  0  0  2  0  0  0  0  0  0
  160.9970  209.2480  153.4970 O   0  0  0  0  0  0  0  0  0  0  0  0
  159.3180  214.3700  150.3910 C   0  0  0  0  0  2  0  0  0  0  0  0
  161.1510  213.0210  148.2580 C   0  0  1  0  0  3  0  0  0  0  0  0
  161.9820  209.2940  151.2680 C   0  0  0  0  0  2  0  0  0  0  0  0
  161.8870  211.4550  149.9390 C   0  0  1  0  0  3  0  0  0  0  0  0
  159.8030  212.7760  146.2280 N   0  0  0  0  0  0  0  0  0  0  0  0
  160.0760  213.7290  145.4110 C   0  0  0  0  0  3  0  0  0  0  0  0
  160.8090  211.7000  142.4650 C   0  0  0  0  0  2  0  0  0  0  0  0
  161.5230  213.8220  143.3840 C   0  0  0  0  0  2  0  0  0  0  0  0
  160.1460  213.4880  143.9340 C   0  0  0  0  0  3  0  0  0  0  0  0
  162.0230  212.5780  142.6750 C   0  0  0  0  0  2  0  0  0  0  0  0
  159.8770  212.0320  143.6060 C   0  0  0  0  0  2  0  0  0  0  0  0
  1 26  1  1  0  0  0
  1 18  1  0  0  0  0
  2 27  1  0  0  0  0
  3 16  1  0  0  0  0
  3  7  1  6  0  0  0
  4 23  1  1  0  0  0
  4 15  1  0  0  0  0
  5 11  1  6  0  0  0
  5 15  1  0  0  0  0
  5 19  1  0  0  0  0
  6 19  1  0  0  0  0
  8 12  1  6  0  0  0
  8 16  1  0  0  0  0
  9 27  1  0  0  0  0
  9 13  1  0  0  0  0
 10 22  1  0  0  0  0
 13 20  1  0  0  0  0
 14 25  1  0  0  0  0
 14  2  1  0  0  0  0
 15 12  1  0  0  0  0
 15  8  1  0  0  0  0
 16  7  1  0  0  0  0
 17 10  1  0  0  0  0
 17 25  1  0  0  0  0
 18  4  1  0  0  0  0
 19  3  1  0  0  0  0
 20 18  1  0  0  0  0
 20 11  1  0  0  0  0
 21 23  1  0  0  0  0
 22 24  1  0  0  0  0
 24 13  1  0  0  0  0
 25  9  1  0  0  0  0
 26 21  1  0  0  0  0
 27  1  1  0  0  0  0
 28 17  1  0  0  0  0
 29 28  2  0  0  0  0
 30 33  1  0  0  0  0
 30 34  1  0  0  0  0
 31 32  1  0  0  0  0
 32 29  1  0  0  0  0
 33 31  1  0  0  0  0
 34 32  1  0  0  0  0
M  END
>  <MODEL>
6

>  <REMARK>
 VINA RESULT:      -5.3      4.931      8.928
  Name = 
  2 active torsions:
  status: ('A' for Active; 'I' for Inactive)
    1  A    between atoms: C_17  and  N_28
    2  A    between atoms: C_29  and  C_32
                            x       y       z     vdW  Elec       q    Type
                         _______ _______ _______ _____ _____    ______ ____

>  <TORSDO>
F 2

$$$$
=
 OpenBabel11122414393D

 34 42  0  0  1  0  0  0  0  0999 V2000
  161.1470  204.9360  151.3450 C   0  0  2  0  0  3  0  0  0  0  0  0
  160.9840  206.4230  153.2220 O   0  0  0  0  0  0  0  0  0  0  0  0
  161.1070  203.3860  144.8750 C   0  0  2  0  0  3  0  0  0  0  0  0
  161.5440  203.5390  149.3650 C   0  0  1  0  0  3  0  0  0  0  0  0
  161.0800  204.6890  147.0820 C   0  0  2  0  0  3  0  0  0  0  0  0
  161.0940  205.7780  144.9550 O   0  0  0  0  0  1  0  0  0  0  0  0
  159.9250  202.8360  145.4150 O   0  0  0  0  0  0  0  0  0  0  0  0
  161.4480  202.1020  147.1560 C   0  0  1  0  0  3  0  0  0  0  0  0
  160.4510  207.3870  151.1010 C   0  0  2  0  0  3  0  0  0  0  0  0
  162.1170  210.1230  150.6620 C   0  0  0  0  0  2  0  0  0  0  0  0
  161.6200  205.8440  147.7950 N   0  0  0  0  0  2  0  0  0  0  0  0
  162.6390  202.8270  147.3640 O   0  0  0  0  0  0  0  0  0  0  0  0
  161.3030  207.2450  149.8190 C   0  0  1  0  0  3  0  0  0  0  0  0
  160.7750  207.7960  153.4130 C   0  0  0  0  0  2  0  0  0  0  0  0
  161.4540  203.4190  147.8450 C   0  0  2  0  0  0  0  0  0  0  0  0
  161.1080  202.0990  145.6470 C   0  0  2  0  0  3  0  0  0  0  0  0
  162.2210  209.1270  151.8160 C   0  0  2  0  0  3  0  0  0  0  0  0
  160.7410  204.7380  149.8870 C   0  0  2  0  0  3  0  0  0  0  0  0
  161.5530  204.6490  145.6330 C   0  0  2  0  0  3  0  0  0  0  0  0
  160.8280  206.0270  149.0190 C   0  0  2  0  0  3  0  0  0  0  0  0
  161.5890  202.4770  151.3600 C   0  0  0  0  0  2  0  0  0  0  0  0
  162.3360  209.4520  149.3150 C   0  0  0  0  0  2  0  0  0  0  0  0
  161.1190  202.3730  150.0310 O   0  0  0  0  0  0  0  0  0  0  0  0
  161.2000  208.5030  148.9700 C   0  0  0  0  0  2  0  0  0  0  0  0
  160.8390  208.4960  152.0690 C   0  0  1  0  0  3  0  0  0  0  0  0
  160.8980  203.6340  152.1050 C   0  0  0  0  0  2  0  0  0  0  0  0
  160.4150  206.1230  151.9730 C   0  0  1  0  0  3  0  0  0  0  0  0
  162.6770  209.8240  152.9940 N   0  0  0  0  0  0  0  0  0  0  0  0
  161.8460  210.4400  153.7560 C   0  0  0  0  0  3  0  0  0  0  0  0
  162.9870  210.6040  157.2210 C   0  0  0  0  0  2  0  0  0  0  0  0
  161.1500  211.4800  155.9110 C   0  0  0  0  0  2  0  0  0  0  0  0
  162.3100  211.1670  154.9800 C   0  0  0  0  0  3  0  0  0  0  0  0
  161.5010  210.8840  157.2600 C   0  0  0  0  0  2  0  0  0  0  0  0
  163.3010  210.3320  155.7690 C   0  0  0  0  0  2  0  0  0  0  0  0
  1 27  1  0  0  0  0
  1 26  1  1  0  0  0
  2 14  1  0  0  0  0
  3  7  1  1  0  0  0
  3 19  1  0  0  0  0
  3 16  1  0  0  0  0
  4 18  1  0  0  0  0
  4 23  1  1  0  0  0
  5 11  1  1  0  0  0
  5 15  1  0  0  0  0
  6 19  1  0  0  0  0
  7 16  1  0  0  0  0
  8 12  1  6  0  0  0
  8 15  1  0  0  0  0
  9 27  1  0  0  0  0
  9 25  1  0  0  0  0
 10 17  1  0  0  0  0
 11 20  1  0  0  0  0
 12 15  1  0  0  0  0
 13  9  1  0  0  0  0
 15  4  1  0  0  0  0
 16  8  1  0  0  0  0
 17 25  1  0  0  0  0
 17 28  1  0  0  0  0
 18  1  1  0  0  0  0
 19  5  1  0  0  0  0
 20 13  1  0  0  0  0
 20 18  1  0  0  0  0
 21 26  1  0  0  0  0
 22 10  1  0  0  0  0
 23 21  1  0  0  0  0
 24 22  1  0  0  0  0
 24 13  1  0  0  0  0
 25 14  1  0  0  0  0
 27  2  1  0  0  0  0
 28 29  2  0  0  0  0
 29 32  1  0  0  0  0
 30 33  1  0  0  0  0
 31 33  1  0  0  0  0
 32 34  1  0  0  0  0
 32 31  1  0  0  0  0
 34 30  1  0  0  0  0
M  END
>  <MODEL>
7

>  <REMARK>
 VINA RESULT:      -4.7      2.524      4.383
  Name = 
  2 active torsions:
  status: ('A' for Active; 'I' for Inactive)
    1  A    between atoms: C_17  and  N_28
    2  A    between atoms: C_29  and  C_32
                            x       y       z     vdW  Elec       q    Type
                         _______ _______ _______ _____ _____    ______ ____

>  <TORSDO>
F 2

$$$$
