=
 OpenBabel11122413223D

 31 35  0  0  1  0  0  0  0  0999 V2000
  160.5630  207.5310  155.2700 C   0  0  0  0  0  0  0  0  0  0  0  0
  161.6370  208.0040  151.6920 N   0  0  0  0  0  0  0  0  0  0  0  0
  161.3500  206.7870  150.9580 C   0  0  0  0  0  0  0  0  0  0  0  0
  159.8330  212.9190  151.2280 O   0  0  0  0  0  0  0  0  0  0  0  0
  160.5930  212.6640  150.2560 C   0  0  0  0  0  0  0  0  0  0  0  0
  160.8360  204.4090  150.8860 C   0  0  0  0  0  0  0  0  0  0  0  0
  161.1200  208.2430  153.0180 C   0  0  0  0  0  0  0  0  0  0  0  0
  160.0550  208.8040  155.5510 C   0  0  0  0  0  3  0  0  0  0  0  0
  161.1130  205.5690  151.6150 C   0  0  0  0  0  3  0  0  0  0  0  0
  161.3230  210.3980  151.1920 C   0  0  0  0  0  0  0  0  0  0  0  0
  160.5350  206.5670  156.2210 F   0  0  0  0  0  0  0  0  0  0  0  0
  161.5120  208.1080  148.8310 C   0  0  0  0  0  2  0  0  0  0  0  0
  160.5880  203.1280  151.5970 C   0  0  0  0  0  1  0  0  0  0  0  0
  160.6560  210.5440  152.3030 N   0  0  0  0  0  0  0  0  0  0  0  0
  162.2050  209.1830  151.0040 C   0  0  2  0  0  3  0  0  0  0  0  0
  161.3420  211.4420  150.2110 N   0  0  0  0  0  2  0  0  0  0  0  0
  161.0920  207.2490  154.0070 C   0  0  0  0  0  3  0  0  0  0  0  0
  160.7900  204.4540  149.4910 C   0  0  0  0  0  3  0  0  0  0  0  0
  160.6260  209.5260  153.3120 C   0  0  0  0  0  0  0  0  0  0  0  0
  160.0860  209.8000  154.5720 C   0  0  0  0  0  3  0  0  0  0  0  0
  162.5850  208.9200  149.5400 C   0  0  0  0  0  2  0  0  0  0  0  0
  161.3130  206.8180  149.5510 C   0  0  0  0  0  0  0  0  0  0  0  0
  161.0230  205.6590  148.8250 C   0  0  0  0  0  3  0  0  0  0  0  0
  158.7150  213.0550  147.0020 C   0  0  1  0  0  3  0  0  0  0  0  0
  159.3880  214.4530  148.9780 C   0  0  0  0  0  2  0  0  0  0  0  0
  162.3710  212.2120  147.8830 C   0  0  0  0  0  1  0  0  0  0  0  0
  157.6030  212.2090  146.4200 C   0  0  0  0  0  1  0  0  0  0  0  0
  158.2740  213.6120  148.3540 C   0  0  0  0  0  2  0  0  0  0  0  0
  161.0960  213.0310  147.7760 C   0  0  2  0  0  3  0  0  0  0  0  0
  160.6840  213.6500  149.1250 C   0  0  2  0  0  3  0  0  0  0  0  0
  159.9700  212.2010  147.1600 C   0  0  0  0  0  2  0  0  0  0  0  0
  1  8  1  0  0  0  0
  1 11  1  0  0  0  0
  2  7  1  0  0  0  0
  3  9  1  0  0  0  0
  3  2  1  0  0  0  0
  5  4  2  0  0  0  0
  6 13  1  0  0  0  0
  6  9  2  0  0  0  0
  7 19  2  0  0  0  0
  7 17  1  0  0  0  0
 10 14  2  0  0  0  0
 12 21  1  0  0  0  0
 12 22  1  0  0  0  0
 14 19  1  0  0  0  0
 15 21  1  6  0  0  0
 15 10  1  0  0  0  0
 15  2  1  0  0  0  0
 16  5  1  0  0  0  0
 16 10  1  0  0  0  0
 17  1  2  0  0  0  0
 18  6  1  0  0  0  0
 19 20  1  0  0  0  0
 20  8  2  0  0  0  0
 22  3  2  0  0  0  0
 23 18  2  0  0  0  0
 23 22  1  0  0  0  0
 24 27  1  1  0  0  0
 24 31  1  0  0  0  0
 24 28  1  0  0  0  0
 25 30  1  0  0  0  0
 28 25  1  0  0  0  0
 29 26  1  1  0  0  0
 29 30  1  0  0  0  0
 30  5  1  1  0  0  0
 31 29  1  0  0  0  0
M  END
>  <MODEL>
1

>  <REMARK>
 VINA RESULT:      -9.6      0.000      0.000
  Name = 
  1 active torsions:
  status: ('A' for Active; 'I' for Inactive)
    1  A    between atoms: C_5  and  C_30
                            x       y       z     vdW  Elec       q    Type
                         _______ _______ _______ _____ _____    ______ ____

>  <TORSDO>
F 1

$$$$
=
 OpenBabel11122413223D

 31 35  0  0  1  0  0  0  0  0999 V2000
  161.0560  202.1570  150.8300 C   0  0  0  0  0  0  0  0  0  0  0  0
  161.9290  205.6110  149.6100 N   0  0  0  0  0  0  0  0  0  0  0  0
  161.5180  205.7300  148.2240 C   0  0  0  0  0  0  0  0  0  0  0  0
  160.4180  208.1270  153.9710 O   0  0  0  0  0  0  0  0  0  0  0  0
  161.0970  208.9100  153.2560 C   0  0  0  0  0  0  0  0  0  0  0  0
  160.8490  204.7400  146.1040 C   0  0  0  0  0  0  0  0  0  0  0  0
  161.5130  204.5090  150.4440 C   0  0  0  0  0  0  0  0  0  0  0  0
  160.6500  202.4470  152.1370 C   0  0  0  0  0  3  0  0  0  0  0  0
  161.2450  204.6000  147.4370 C   0  0  0  0  0  3  0  0  0  0  0  0
  161.7380  207.0990  151.5670 C   0  0  0  0  0  0  0  0  0  0  0  0
  161.0260  200.8800  150.3800 F   0  0  0  0  0  0  0  0  0  0  0  0
  161.6290  208.2240  148.4720 C   0  0  0  0  0  2  0  0  0  0  0  0
  160.5640  203.5330  145.2850 C   0  0  0  0  0  1  0  0  0  0  0  0
  161.1540  206.1450  152.2370 N   0  0  0  0  0  0  0  0  0  0  0  0
  162.5270  206.7620  150.3210 C   0  0  2  0  0  3  0  0  0  0  0  0
  161.7620  208.4380  152.0760 N   0  0  0  0  0  2  0  0  0  0  0  0
  161.4840  203.1840  149.9840 C   0  0  0  0  0  3  0  0  0  0  0  0
  160.7170  206.0110  145.5430 C   0  0  0  0  0  3  0  0  0  0  0  0
  161.1230  204.7920  151.7640 C   0  0  0  0  0  0  0  0  0  0  0  0
  160.6820  203.7640  152.6030 C   0  0  0  0  0  3  0  0  0  0  0  0
  162.7940  207.9730  149.4160 C   0  0  0  0  0  2  0  0  0  0  0  0
  161.3930  207.0070  147.6450 C   0  0  0  0  0  0  0  0  0  0  0  0
  160.9850  207.1440  146.3150 C   0  0  0  0  0  3  0  0  0  0  0  0
  158.5310  211.4400  154.3890 C   0  0  1  0  0  3  0  0  0  0  0  0
  160.7780  210.5740  155.1050 C   0  0  0  0  0  2  0  0  0  0  0  0
  160.7500  211.1170  151.2540 C   0  0  0  0  0  1  0  0  0  0  0  0
  157.0380  211.2820  154.5820 C   0  0  0  0  0  1  0  0  0  0  0  0
  159.2650  210.4540  155.2950 C   0  0  0  0  0  2  0  0  0  0  0  0
  160.3910  211.3080  152.7180 C   0  0  2  0  0  3  0  0  0  0  0  0
  161.1790  210.3610  153.6410 C   0  0  2  0  0  3  0  0  0  0  0  0
  158.8820  211.1840  152.9260 C   0  0  0  0  0  2  0  0  0  0  0  0
  1  8  1  0  0  0  0
  2 15  1  0  0  0  0
  2  7  1  0  0  0  0
  3  2  1  0  0  0  0
  5  4  2  0  0  0  0
  6  9  1  0  0  0  0
  7 19  2  0  0  0  0
  8 20  2  0  0  0  0
  9  3  2  0  0  0  0
 10 16  1  0  0  0  0
 10 14  2  0  0  0  0
 11  1  1  0  0  0  0
 12 21  1  0  0  0  0
 13  6  1  0  0  0  0
 15 21  1  6  0  0  0
 15 10  1  0  0  0  0
 16  5  1  0  0  0  0
 17  7  1  0  0  0  0
 17  1  2  0  0  0  0
 18  6  2  0  0  0  0
 18 23  1  0  0  0  0
 19 14  1  0  0  0  0
 19 20  1  0  0  0  0
 22  3  1  0  0  0  0
 22 12  1  0  0  0  0
 23 22  2  0  0  0  0
 24 27  1  6  0  0  0
 24 28  1  0  0  0  0
 25 28  1  0  0  0  0
 29 26  1  6  0  0  0
 29 31  1  0  0  0  0
 29 30  1  0  0  0  0
 30  5  1  6  0  0  0
 30 25  1  0  0  0  0
 31 24  1  0  0  0  0
M  END
>  <MODEL>
2

>  <REMARK>
 VINA RESULT:      -7.7      3.153      5.302
  Name = 
  1 active torsions:
  status: ('A' for Active; 'I' for Inactive)
    1  A    between atoms: C_5  and  C_30
                            x       y       z     vdW  Elec       q    Type
                         _______ _______ _______ _____ _____    ______ ____

>  <TORSDO>
F 1

$$$$
=
 OpenBabel11122413223D

 31 35  0  0  1  0  0  0  0  0999 V2000
  161.1610  202.1380  150.7020 C   0  0  0  0  0  0  0  0  0  0  0  0
  161.9510  205.5540  149.3270 N   0  0  0  0  0  0  0  0  0  0  0  0
  161.4920  205.6170  147.9530 C   0  0  0  0  0  0  0  0  0  0  0  0
  160.5600  208.2130  153.6420 O   0  0  0  0  0  0  0  0  0  0  0  0
  161.2040  208.9770  152.8750 C   0  0  0  0  0  0  0  0  0  0  0  0
  160.7630  204.5410  145.8950 C   0  0  0  0  0  0  0  0  0  0  0  0
  161.5770  204.4800  150.2140 C   0  0  0  0  0  0  0  0  0  0  0  0
  160.7970  202.4730  152.0110 C   0  0  0  0  0  3  0  0  0  0  0  0
  161.2050  204.4560  147.2180 C   0  0  0  0  0  3  0  0  0  0  0  0
  161.8090  207.1110  151.2330 C   0  0  0  0  0  0  0  0  0  0  0  0
  161.1320  200.8450  150.3010 F   0  0  0  0  0  0  0  0  0  0  0  0
  161.5810  208.1200  148.1050 C   0  0  0  0  0  2  0  0  0  0  0  0
  160.4650  203.3020  145.1310 C   0  0  0  0  0  1  0  0  0  0  0  0
  161.2600  206.1770  151.9570 N   0  0  0  0  0  0  0  0  0  0  0  0
  162.5590  206.7360  149.9740 C   0  0  2  0  0  3  0  0  0  0  0  0
  161.8340  208.4690  151.6920 N   0  0  0  0  0  2  0  0  0  0  0  0
  161.5480  203.1380  149.8050 C   0  0  0  0  0  3  0  0  0  0  0  0
  160.5960  205.7900  145.2930 C   0  0  0  0  0  3  0  0  0  0  0  0
  161.2290  204.8060  151.5360 C   0  0  0  0  0  0  0  0  0  0  0  0
  160.8290  203.8060  152.4270 C   0  0  0  0  0  3  0  0  0  0  0  0
  162.7810  207.9170  149.0170 C   0  0  0  0  0  2  0  0  0  0  0  0
  161.3320  206.8700  147.3310 C   0  0  0  0  0  0  0  0  0  0  0  0
  160.8760  206.9540  146.0120 C   0  0  0  0  0  3  0  0  0  0  0  0
  160.3100  210.9960  155.9400 C   0  0  1  0  0  3  0  0  0  0  0  0
  162.2460  210.7030  154.3660 C   0  0  0  0  0  2  0  0  0  0  0  0
  158.9280  210.8570  152.3460 C   0  0  0  0  0  1  0  0  0  0  0  0
  159.7230  210.5420  157.2590 C   0  0  0  0  0  1  0  0  0  0  0  0
  161.6390  210.2810  155.7050 C   0  0  0  0  0  2  0  0  0  0  0  0
  159.9180  211.1060  153.4700 C   0  0  2  0  0  3  0  0  0  0  0  0
  161.2820  210.4420  153.2040 C   0  0  2  0  0  3  0  0  0  0  0  0
  159.3280  210.6820  154.8150 C   0  0  0  0  0  2  0  0  0  0  0  0
  1  8  1  0  0  0  0
  2 15  1  0  0  0  0
  2  7  1  0  0  0  0
  3  2  1  0  0  0  0
  5  4  2  0  0  0  0
  6  9  1  0  0  0  0
  7 19  2  0  0  0  0
  8 20  2  0  0  0  0
  9  3  2  0  0  0  0
 10 16  1  0  0  0  0
 10 14  2  0  0  0  0
 11  1  1  0  0  0  0
 12 21  1  0  0  0  0
 13  6  1  0  0  0  0
 15 21  1  6  0  0  0
 15 10  1  0  0  0  0
 16  5  1  0  0  0  0
 17  7  1  0  0  0  0
 17  1  2  0  0  0  0
 18  6  2  0  0  0  0
 18 23  1  0  0  0  0
 19 14  1  0  0  0  0
 19 20  1  0  0  0  0
 22  3  1  0  0  0  0
 22 12  1  0  0  0  0
 23 22  2  0  0  0  0
 24 27  1  1  0  0  0
 25 28  1  0  0  0  0
 28 24  1  0  0  0  0
 29 26  1  6  0  0  0
 29 31  1  0  0  0  0
 30  5  1  1  0  0  0
 30 29  1  0  0  0  0
 30 25  1  0  0  0  0
 31 24  1  0  0  0  0
M  END
>  <MODEL>
3

>  <REMARK>
 VINA RESULT:      -7.6      3.416      5.787
  Name = 
  1 active torsions:
  status: ('A' for Active; 'I' for Inactive)
    1  A    between atoms: C_5  and  C_30
                            x       y       z     vdW  Elec       q    Type
                         _______ _______ _______ _____ _____    ______ ____

>  <TORSDO>
F 1

$$$$
=
 OpenBabel11122413223D

 31 35  0  0  1  0  0  0  0  0999 V2000
  161.1120  205.4600  153.4960 C   0  0  0  0  0  0  0  0  0  0  0  0
  161.8620  207.5190  150.4340 N   0  0  0  0  0  0  0  0  0  0  0  0
  161.5820  206.7180  149.2580 C   0  0  0  0  0  0  0  0  0  0  0  0
  159.7610  211.9820  152.2520 O   0  0  0  0  0  0  0  0  0  0  0  0
  160.4510  212.2360  151.2300 C   0  0  0  0  0  0  0  0  0  0  0  0
  161.1930  204.5710  148.1810 C   0  0  0  0  0  0  0  0  0  0  0  0
  161.4430  207.1180  151.7550 C   0  0  0  0  0  0  0  0  0  0  0  0
  160.5610  206.4390  154.3290 C   0  0  0  0  0  3  0  0  0  0  0  0
  161.4650  205.3220  149.3280 C   0  0  0  0  0  3  0  0  0  0  0  0
  161.3780  209.8590  151.0450 C   0  0  0  0  0  0  0  0  0  0  0  0
  161.2150  204.1810  153.9310 F   0  0  0  0  0  0  0  0  0  0  0  0
  161.4960  208.8370  147.9150 C   0  0  0  0  0  2  0  0  0  0  0  0
  161.0740  203.0920  148.2740 C   0  0  0  0  0  1  0  0  0  0  0  0
  160.7980  209.4540  152.1400 N   0  0  0  0  0  0  0  0  0  0  0  0
  162.3070  208.9230  150.3020 C   0  0  2  0  0  3  0  0  0  0  0  0
  161.2600  211.2220  150.6180 N   0  0  0  0  0  2  0  0  0  0  0  0
  161.5500  205.7970  152.2120 C   0  0  0  0  0  3  0  0  0  0  0  0
  161.0300  205.2090  146.9500 C   0  0  0  0  0  3  0  0  0  0  0  0
  160.9060  208.1020  152.6040 C   0  0  0  0  0  0  0  0  0  0  0  0
  160.4570  207.7590  153.8830 C   0  0  0  0  0  3  0  0  0  0  0  0
  162.5780  209.3500  148.8520 C   0  0  0  0  0  2  0  0  0  0  0  0
  161.4270  207.3500  148.0090 C   0  0  0  0  0  0  0  0  0  0  0  0
  161.1420  206.5980  146.8660 C   0  0  0  0  0  3  0  0  0  0  0  0
  157.8310  214.1050  149.2540 C   0  0  1  0  0  3  0  0  0  0  0  0
  159.2810  214.4530  151.2760 C   0  0  0  0  0  2  0  0  0  0  0  0
  161.3670  212.8150  148.4330 C   0  0  0  0  0  1  0  0  0  0  0  0
  156.4640  213.6510  148.7890 C   0  0  0  0  0  1  0  0  0  0  0  0
  157.9010  214.0210  150.7770 C   0  0  0  0  0  2  0  0  0  0  0  0
  160.2870  213.6460  149.1030 C   0  0  2  0  0  3  0  0  0  0  0  0
  160.3960  213.6170  150.6390 C   0  0  2  0  0  3  0  0  0  0  0  0
  158.9000  213.2210  148.6200 C   0  0  0  0  0  2  0  0  0  0  0  0
  1 11  1  0  0  0  0
  1  8  1  0  0  0  0
  2  7  1  0  0  0  0
  3  9  1  0  0  0  0
  3  2  1  0  0  0  0
  5  4  2  0  0  0  0
  6 13  1  0  0  0  0
  6  9  2  0  0  0  0
  7 17  1  0  0  0  0
  7 19  2  0  0  0  0
 10 14  2  0  0  0  0
 12 22  1  0  0  0  0
 12 21  1  0  0  0  0
 14 19  1  0  0  0  0
 15 21  1  6  0  0  0
 15  2  1  0  0  0  0
 15 10  1  0  0  0  0
 16 10  1  0  0  0  0
 16  5  1  0  0  0  0
 17  1  2  0  0  0  0
 18  6  1  0  0  0  0
 19 20  1  0  0  0  0
 20  8  2  0  0  0  0
 22  3  2  0  0  0  0
 23 18  2  0  0  0  0
 23 22  1  0  0  0  0
 24 27  1  6  0  0  0
 24 28  1  0  0  0  0
 28 25  1  0  0  0  0
 29 26  1  6  0  0  0
 29 30  1  0  0  0  0
 30  5  1  1  0  0  0
 30 25  1  0  0  0  0
 31 29  1  0  0  0  0
 31 24  1  0  0  0  0
M  END
>  <MODEL>
4

>  <REMARK>
 VINA RESULT:      -7.1      1.491      2.063
  Name = 
  1 active torsions:
  status: ('A' for Active; 'I' for Inactive)
    1  A    between atoms: C_5  and  C_30
                            x       y       z     vdW  Elec       q    Type
                         _______ _______ _______ _____ _____    ______ ____

>  <TORSDO>
F 1

$$$$
