=
 OpenBabel11122413043D

 32 36  0  0  1  0  0  0  0  0999 V2000
  160.5600  209.9490  152.4990 C   0  0  1  0  0  3  0  0  0  0  0  0
  160.4440  208.7300  157.2600 C   0  0  0  0  0  3  0  0  0  0  0  0
  160.4600  207.3810  156.9030 C   0  0  0  0  0  3  0  0  0  0  0  0
  161.1640  208.2110  150.7010 C   0  0  2  0  0  3  0  0  0  0  0  0
  161.9510  206.9210  150.4320 C   0  0  2  0  0  3  0  0  0  0  0  0
  159.8600  212.1440  151.9180 C   0  0  2  0  0  3  0  0  0  0  0  0
  160.4870  211.7020  154.2780 O   0  0  0  0  0  0  0  0  0  0  0  0
  161.0240  204.8750  150.9990 C   0  0  0  0  0  0  0  0  0  0  0  0
  160.5940  209.7130  156.2820 C   0  0  0  0  0  3  0  0  0  0  0  0
  160.9780  210.4180  153.8950 C   0  0  1  0  0  3  0  0  0  0  0  0
  160.7510  209.3570  154.9350 C   0  0  0  0  0  0  0  0  0  0  0  0
  160.9140  207.5680  153.1200 C   0  0  2  0  0  3  0  0  0  0  0  0
  160.7910  204.9710  149.6130 N   0  0  0  0  0  0  0  0  0  0  0  0
  159.4640  212.1860  153.4180 C   0  0  2  0  0  3  0  0  0  0  0  0
  161.3950  206.2240  149.1700 C   0  0  0  0  0  3  0  0  0  0  0  0
  160.6390  207.0140  155.5670 C   0  0  0  0  0  3  0  0  0  0  0  0
  160.8180  207.9900  154.5750 C   0  0  0  0  0  0  0  0  0  0  0  0
  161.8010  206.3440  152.9200 C   0  0  0  0  0  2  0  0  0  0  0  0
  160.7920  211.0570  151.5870 N   0  0  0  0  0  2  0  0  0  0  0  0
  161.5960  209.1860  149.7980 O   0  0  0  0  0  1  0  0  0  0  0  0
  160.6040  203.9200  151.7050 O   0  0  0  0  0  0  0  0  0  0  0  0
  161.3600  208.6900  152.1550 C   0  0  2  0  0  3  0  0  0  0  0  0
  161.7490  205.9660  151.5160 N   0  0  0  0  0  0  0  0  0  0  0  0
  157.8820  211.4140  155.1920 C   0  0  0  0  0  1  0  0  0  0  0  0
  158.1260  211.4900  153.6940 C   0  0  1  0  0  3  0  0  0  0  0  0
  157.0760  212.1870  153.0890 O   0  0  0  0  0  0  0  0  0  0  0  0
  156.9880  213.3900  153.7950 C   0  0  0  0  0  2  0  0  0  0  0  0
  155.5620  213.7930  153.9360 C   0  0  0  0  0  0  0  0  0  0  0  0
  154.7910  213.7410  152.9430 O   0  0  0  0  0  0  0  0  0  0  0  0
  155.0750  214.1960  155.1710 O   0  0  0  0  0  1  0  0  0  0  0  0
  159.4560  214.4260  151.3560 O   0  0  0  0  0  1  0  0  0  0  0  0
  160.4640  213.4750  151.5150 C   0  0  0  0  0  2  0  0  0  0  0  0
  1 19  1  6  0  0  0
  1 10  1  0  0  0  0
  3  2  1  0  0  0  0
  4 20  1  6  0  0  0
  4 22  1  0  0  0  0
  5 15  1  6  0  0  0
  5  4  1  0  0  0  0
  5 23  1  0  0  0  0
  6 32  1  1  0  0  0
  6 14  1  0  0  0  0
  8 23  1  0  0  0  0
  8 21  2  0  0  0  0
  9  2  2  0  0  0  0
 10  7  1  1  0  0  0
 10 11  1  0  0  0  0
 11  9  1  0  0  0  0
 12 18  1  1  0  0  0
 12 17  1  0  0  0  0
 13  8  1  0  0  0  0
 14 25  1  6  0  0  0
 14  7  1  0  0  0  0
 15 13  2  0  0  0  0
 16  3  2  0  0  0  0
 17 11  2  0  0  0  0
 17 16  1  0  0  0  0
 19  6  1  0  0  0  0
 22  1  1  0  0  0  0
 22 12  1  0  0  0  0
 23 18  1  0  0  0  0
 25 24  1  0  0  0  0
 26 25  1  0  0  0  0
 26 27  1  0  0  0  0
 27 28  1  0  0  0  0
 28 30  1  0  0  0  0
 29 28  2  0  0  0  0
 31 32  1  0  0  0  0
M  END
>  <MODEL>
1

>  <REMARK>
 VINA RESULT:      -6.6      0.000      0.000
  Name = 
  5 active torsions:
  status: ('A' for Active; 'I' for Inactive)
    1  A    between atoms: CA_7  and  C_19
    2  A    between atoms: C_10  and  C_17
    3  A    between atoms: C_10  and  O_20
    4  A    between atoms: O_20  and  C_29
    5  A    between atoms: C_29  and  C_30
                            x       y       z     vdW  Elec       q    Type
                         _______ _______ _______ _____ _____    ______ ____

>  <TORSDO>
F 5

$$$$
=
 OpenBabel11122413043D

 32 36  0  0  1  0  0  0  0  0999 V2000
  160.7790  209.5340  151.9950 C   0  0  1  0  0  3  0  0  0  0  0  0
  162.5620  211.9990  148.1330 C   0  0  0  0  0  3  0  0  0  0  0  0
  161.6050  212.9940  148.3420 C   0  0  0  0  0  3  0  0  0  0  0  0
  159.1900  210.6670  153.6720 C   0  0  2  0  0  3  0  0  0  0  0  0
  158.7920  212.0130  154.2940 C   0  0  2  0  0  3  0  0  0  0  0  0
  161.2950  207.2190  152.1440 C   0  0  2  0  0  3  0  0  0  0  0  0
  162.6950  208.6370  150.6650 O   0  0  0  0  0  0  0  0  0  0  0  0
  157.3490  213.4200  153.1530 C   0  0  0  0  0  0  0  0  0  0  0  0
  162.6940  210.9540  149.0480 C   0  0  0  0  0  3  0  0  0  0  0  0
  162.0550  209.7990  151.1920 C   0  0  1  0  0  3  0  0  0  0  0  0
  161.8640  210.8900  150.1760 C   0  0  0  0  0  0  0  0  0  0  0  0
  159.9640  211.8470  151.5890 C   0  0  2  0  0  3  0  0  0  0  0  0
  156.5160  212.7860  154.0960 N   0  0  0  0  0  0  0  0  0  0  0  0
  161.8780  207.4750  150.7290 C   0  0  2  0  0  3  0  0  0  0  0  0
  157.3710  211.9100  154.8920 C   0  0  0  0  0  3  0  0  0  0  0  0
  160.7880  212.9520  149.4740 C   0  0  0  0  0  3  0  0  0  0  0  0
  160.9280  211.9230  150.4180 C   0  0  0  0  0  0  0  0  0  0  0  0
  159.7030  213.2080  152.2240 C   0  0  0  0  0  2  0  0  0  0  0  0
  161.0690  208.4480  152.9170 N   0  0  0  0  0  2  0  0  0  0  0  0
  159.5320  209.7890  154.7030 O   0  0  0  0  0  1  0  0  0  0  0  0
  156.9190  214.2240  152.2850 O   0  0  0  0  0  0  0  0  0  0  0  0
  160.3660  210.8350  152.6860 C   0  0  2  0  0  3  0  0  0  0  0  0
  158.7010  213.0430  153.2650 N   0  0  0  0  0  0  0  0  0  0  0  0
  161.4370  207.7390  148.2830 C   0  0  0  0  0  1  0  0  0  0  0  0
  160.7990  207.4890  149.6390 C   0  0  1  0  0  3  0  0  0  0  0  0
  160.1140  206.2720  149.6110 O   0  0  0  0  0  0  0  0  0  0  0  0
  160.8360  205.4730  148.7190 C   0  0  0  0  0  2  0  0  0  0  0  0
  161.0200  204.1110  149.2920 C   0  0  0  0  0  0  0  0  0  0  0  0
  160.9330  203.9330  150.5350 O   0  0  0  0  0  1  0  0  0  0  0  0
  161.2550  203.0320  148.4520 O   0  0  0  0  0  0  0  0  0  0  0  0
  161.4660  205.3350  153.5960 O   0  0  0  0  0  1  0  0  0  0  0  0
  162.2170  206.2930  152.9130 C   0  0  0  0  0  2  0  0  0  0  0  0
  1 22  1  0  0  0  0
  1 19  1  1  0  0  0
  2  3  2  0  0  0  0
  2  9  1  0  0  0  0
  3 16  1  0  0  0  0
  4  5  1  0  0  0  0
  4 20  1  1  0  0  0
  5 15  1  6  0  0  0
  6 32  1  1  0  0  0
  6 19  1  0  0  0  0
  7 14  1  0  0  0  0
  7 10  1  0  0  0  0
  8 23  1  0  0  0  0
  8 13  1  0  0  0  0
  9 11  2  0  0  0  0
 10 11  1  6  0  0  0
 10  1  1  0  0  0  0
 11 17  1  0  0  0  0
 12 18  1  1  0  0  0
 12 22  1  0  0  0  0
 13 15  2  0  0  0  0
 14 25  1  6  0  0  0
 14  6  1  0  0  0  0
 16 17  2  0  0  0  0
 17 12  1  0  0  0  0
 18 23  1  0  0  0  0
 21  8  2  0  0  0  0
 22  4  1  0  0  0  0
 23  5  1  0  0  0  0
 24 25  1  0  0  0  0
 26 25  1  0  0  0  0
 27 28  1  0  0  0  0
 27 26  1  0  0  0  0
 28 29  1  0  0  0  0
 30 28  2  0  0  0  0
 32 31  1  0  0  0  0
M  END
>  <MODEL>
2

>  <REMARK>
 VINA RESULT:      -6.4      2.293      7.999
  Name = 
  5 active torsions:
  status: ('A' for Active; 'I' for Inactive)
    1  A    between atoms: CA_7  and  C_19
    2  A    between atoms: C_10  and  C_17
    3  A    between atoms: C_10  and  O_20
    4  A    between atoms: O_20  and  C_29
    5  A    between atoms: C_29  and  C_30
                            x       y       z     vdW  Elec       q    Type
                         _______ _______ _______ _____ _____    ______ ____

>  <TORSDO>
F 5

$$$$
=
 OpenBabel11122413043D

 32 36  0  0  1  0  0  0  0  0999 V2000
  160.9330  209.9100  151.5770 C   0  0  1  0  0  3  0  0  0  0  0  0
  160.7050  208.7830  156.3570 C   0  0  0  0  0  3  0  0  0  0  0  0
  160.6320  207.4300  156.0220 C   0  0  0  0  0  3  0  0  0  0  0  0
  161.4280  208.1050  149.8120 C   0  0  2  0  0  3  0  0  0  0  0  0
  162.1270  206.7590  149.5710 C   0  0  2  0  0  3  0  0  0  0  0  0
  160.3880  212.1380  150.9540 C   0  0  2  0  0  3  0  0  0  0  0  0
  160.9690  211.6940  153.3260 O   0  0  0  0  0  0  0  0  0  0  0  0
  161.0600  204.7910  150.1650 C   0  0  0  0  0  0  0  0  0  0  0  0
  160.9280  209.7370  155.3630 C   0  0  0  0  0  3  0  0  0  0  0  0
  161.3730  210.3730  152.9680 C   0  0  1  0  0  3  0  0  0  0  0  0
  161.0690  209.3480  154.0240 C   0  0  0  0  0  0  0  0  0  0  0  0
  161.1210  207.5220  152.2400 C   0  0  2  0  0  3  0  0  0  0  0  0
  160.8420  204.8790  148.7760 N   0  0  0  0  0  0  0  0  0  0  0  0
  159.9870  212.2320  152.4500 C   0  0  2  0  0  3  0  0  0  0  0  0
  161.5330  206.0810  148.3160 C   0  0  0  0  0  3  0  0  0  0  0  0
  160.7930  207.0290  154.6930 C   0  0  0  0  0  3  0  0  0  0  0  0
  161.0450  207.9740  153.6870 C   0  0  0  0  0  0  0  0  0  0  0  0
  161.9230  206.2370  152.0670 C   0  0  0  0  0  2  0  0  0  0  0  0
  161.2450  210.9840  150.6480 N   0  0  0  0  0  2  0  0  0  0  0  0
  161.9310  209.0320  148.8960 O   0  0  0  0  0  1  0  0  0  0  0  0
  160.5710  203.8800  150.8830 O   0  0  0  0  0  0  0  0  0  0  0  0
  161.6470  208.5940  151.2590 C   0  0  2  0  0  3  0  0  0  0  0  0
  161.8540  205.8390  150.6690 N   0  0  0  0  0  0  0  0  0  0  0  0
  158.3900  211.4940  154.2270 C   0  0  0  0  0  1  0  0  0  0  0  0
  158.6020  211.6340  152.7290 C   0  0  1  0  0  3  0  0  0  0  0  0
  157.5990  212.4460  152.1930 O   0  0  0  0  0  0  0  0  0  0  0  0
  157.0430  213.1040  153.2940 C   0  0  0  0  0  2  0  0  0  0  0  0
  155.9840  214.0470  152.8400 C   0  0  0  0  0  0  0  0  0  0  0  0
  155.9700  214.4530  151.6490 O   0  0  0  0  0  0  0  0  0  0  0  0
  154.9930  214.4530  153.7230 O   0  0  0  0  0  1  0  0  0  0  0  0
  160.7140  213.7530  149.2310 O   0  0  0  0  0  1  0  0  0  0  0  0
  161.0840  213.4180  150.5330 C   0  0  0  0  0  2  0  0  0  0  0  0
  1 19  1  6  0  0  0
  1 10  1  0  0  0  0
  3  2  1  0  0  0  0
  4 20  1  6  0  0  0
  4 22  1  0  0  0  0
  5 15  1  6  0  0  0
  5  4  1  0  0  0  0
  5 23  1  0  0  0  0
  6 32  1  1  0  0  0
  6 14  1  0  0  0  0
  8 23  1  0  0  0  0
  8 21  2  0  0  0  0
  9  2  2  0  0  0  0
 10  7  1  1  0  0  0
 10 11  1  0  0  0  0
 11  9  1  0  0  0  0
 12 18  1  1  0  0  0
 12 17  1  0  0  0  0
 13  8  1  0  0  0  0
 14 25  1  6  0  0  0
 14  7  1  0  0  0  0
 15 13  2  0  0  0  0
 16  3  2  0  0  0  0
 17 11  2  0  0  0  0
 17 16  1  0  0  0  0
 19  6  1  0  0  0  0
 22  1  1  0  0  0  0
 22 12  1  0  0  0  0
 23 18  1  0  0  0  0
 25 24  1  0  0  0  0
 26 25  1  0  0  0  0
 26 27  1  0  0  0  0
 28 27  1  0  0  0  0
 28 30  1  0  0  0  0
 29 28  2  0  0  0  0
 31 32  1  0  0  0  0
M  END
>  <MODEL>
3

>  <REMARK>
 VINA RESULT:      -5.7      1.048      1.111
  Name = 
  5 active torsions:
  status: ('A' for Active; 'I' for Inactive)
    1  A    between atoms: CA_7  and  C_19
    2  A    between atoms: C_10  and  C_17
    3  A    between atoms: C_10  and  O_20
    4  A    between atoms: O_20  and  C_29
    5  A    between atoms: C_29  and  C_30
                            x       y       z     vdW  Elec       q    Type
                         _______ _______ _______ _____ _____    ______ ____

>  <TORSDO>
F 5

$$$$
=
 OpenBabel11122413043D

 32 36  0  0  1  0  0  0  0  0999 V2000
  160.1450  211.7880  151.9380 C   0  0  1  0  0  3  0  0  0  0  0  0
  161.4620  212.2840  147.2270 C   0  0  0  0  0  3  0  0  0  0  0  0
  160.2090  212.8320  146.9470 C   0  0  0  0  0  3  0  0  0  0  0  0
  158.0730  212.9960  152.8690 C   0  0  2  0  0  3  0  0  0  0  0  0
  157.1730  214.2280  152.7030 C   0  0  2  0  0  3  0  0  0  0  0  0
  161.3850  210.2520  153.2610 C   0  0  2  0  0  3  0  0  0  0  0  0
  162.4000  211.0590  151.1450 O   0  0  0  0  0  0  0  0  0  0  0  0
  155.4940  214.2140  151.1070 C   0  0  0  0  0  0  0  0  0  0  0  0
  161.8230  212.0030  148.5460 C   0  0  0  0  0  3  0  0  0  0  0  0
  161.3480  212.0150  151.0180 C   0  0  1  0  0  3  0  0  0  0  0  0
  160.9290  212.2580  149.5950 C   0  0  0  0  0  0  0  0  0  0  0  0
  158.6590  213.0830  150.4230 C   0  0  2  0  0  3  0  0  0  0  0  0
  154.8120  213.9290  152.3060 N   0  0  0  0  0  0  0  0  0  0  0  0
  162.0200  209.9080  151.8870 C   0  0  2  0  0  3  0  0  0  0  0  0
  155.8060  213.9690  153.3760 C   0  0  0  0  0  3  0  0  0  0  0  0
  159.3200  213.1110  147.9880 C   0  0  0  0  0  3  0  0  0  0  0  0
  159.6780  212.8600  149.3210 C   0  0  0  0  0  0  0  0  0  0  0  0
  157.8790  214.3810  150.2490 C   0  0  0  0  0  2  0  0  0  0  0  0
  160.6660  211.5340  153.2710 N   0  0  0  0  0  2  0  0  0  0  0  0
  158.5590  212.9790  154.1780 O   0  0  0  0  0  1  0  0  0  0  0  0
  154.9310  214.2300  149.9810 O   0  0  0  0  0  0  0  0  0  0  0  0
  159.2370  213.0170  151.8550 C   0  0  2  0  0  3  0  0  0  0  0  0
  156.8690  214.4520  151.2940 N   0  0  0  0  0  0  0  0  0  0  0  0
  161.8760  208.5700  149.7810 C   0  0  0  0  0  1  0  0  0  0  0  0
  161.1430  208.9690  151.0510 C   0  0  1  0  0  3  0  0  0  0  0  0
  160.8200  207.8200  151.7790 O   0  0  0  0  0  0  0  0  0  0  0  0
  161.7020  206.8400  151.3140 C   0  0  0  0  0  2  0  0  0  0  0  0
  161.3150  205.5090  151.8580 C   0  0  0  0  0  0  0  0  0  0  0  0
  161.2620  204.5080  151.0960 O   0  0  0  0  0  0  0  0  0  0  0  0
  161.0440  205.3660  153.2110 O   0  0  0  0  0  1  0  0  0  0  0  0
  161.8960  210.5640  155.5690 O   0  0  0  0  0  1  0  0  0  0  0  0
  162.4610  210.2620  154.3300 C   0  0  0  0  0  2  0  0  0  0  0  0
  1 19  1  1  0  0  0
  2  9  1  0  0  0  0
  3  2  2  0  0  0  0
  3 16  1  0  0  0  0
  4 20  1  1  0  0  0
  5  4  1  0  0  0  0
  5 15  1  1  0  0  0
  6 19  1  0  0  0  0
  6 32  1  1  0  0  0
  7 14  1  0  0  0  0
  8 23  1  0  0  0  0
  8 13  1  0  0  0  0
  9 11  2  0  0  0  0
 10 11  1  6  0  0  0
 10  7  1  0  0  0  0
 10  1  1  0  0  0  0
 12 18  1  6  0  0  0
 12 22  1  0  0  0  0
 13 15  2  0  0  0  0
 14 25  1  6  0  0  0
 14  6  1  0  0  0  0
 16 17  2  0  0  0  0
 17 11  1  0  0  0  0
 17 12  1  0  0  0  0
 18 23  1  0  0  0  0
 21  8  2  0  0  0  0
 22  1  1  0  0  0  0
 22  4  1  0  0  0  0
 23  5  1  0  0  0  0
 24 25  1  0  0  0  0
 25 26  1  0  0  0  0
 27 26  1  0  0  0  0
 27 28  1  0  0  0  0
 28 30  1  0  0  0  0
 29 28  2  0  0  0  0
 32 31  1  0  0  0  0
M  END
>  <MODEL>
4

>  <REMARK>
 VINA RESULT:      -4.1      2.790      8.000
  Name = 
  5 active torsions:
  status: ('A' for Active; 'I' for Inactive)
    1  A    between atoms: CA_7  and  C_19
    2  A    between atoms: C_10  and  C_17
    3  A    between atoms: C_10  and  O_20
    4  A    between atoms: O_20  and  C_29
    5  A    between atoms: C_29  and  C_30
                            x       y       z     vdW  Elec       q    Type
                         _______ _______ _______ _____ _____    ______ ____

>  <TORSDO>
F 5

$$$$
