=
 OpenBabel11122414413D

 34 37  0  0  1  0  0  0  0  0999 V2000
  161.0350  207.9980  152.8920 C   0  0  2  0  0  3  0  0  0  0  0  0
  161.9820  205.7750  152.9020 O   0  0  0  0  0  0  0  0  0  0  0  0
  160.1280  210.3360  152.8020 C   0  0  0  0  0  2  0  0  0  0  0  0
  162.2450  207.0040  150.8580 C   0  0  2  0  0  3  0  0  0  0  0  0
  161.5760  205.7370  148.2060 C   0  0  0  0  0  2  0  0  0  0  0  0
  161.3740  208.0600  150.1290 C   0  0  1  0  0  3  0  0  0  0  0  0
  161.3980  205.0290  151.8700 C   0  0  0  0  0  2  0  0  0  0  0  0
  160.9490  205.3500  149.4630 N   0  0  0  0  0  0  0  0  0  0  0  0
  161.2570  209.4140  152.3520 C   0  0  2  0  0  3  0  0  0  0  0  0
  161.4030  209.4430  150.8210 C   0  0  1  0  0  3  0  0  0  0  0  0
  159.8620  208.9550  154.8820 C   0  0  0  0  0  2  0  0  0  0  0  0
  161.0980  207.1200  147.8040 C   0  0  0  0  0  2  0  0  0  0  0  0
  160.0600  210.3660  154.3270 C   0  0  0  0  0  2  0  0  0  0  0  0
  161.7630  208.1870  148.6570 C   0  0  0  0  0  2  0  0  0  0  0  0
  161.9270  205.5450  150.5440 C   0  0  1  0  0  3  0  0  0  0  0  0
  160.9920  208.0380  154.4180 C   0  0  0  0  0  2  0  0  0  0  0  0
  162.1530  207.0740  152.3920 C   0  0  1  0  0  3  0  0  0  0  0  0
  162.4330  210.3080  150.3820 O   0  0  0  0  0  0  0  0  0  0  0  0
  161.8540  211.4700  149.8440 C   0  0  0  0  0  2  0  0  0  0  0  0
  163.3300  212.3260  148.1710 O   0  0  0  0  0  1  0  0  0  0  0  0
  162.1700  211.5710  148.3640 C   0  0  2  0  0  3  0  0  0  0  0  0
  160.9930  212.1940  147.6180 C   0  0  1  0  0  3  0  0  0  0  0  0
  160.2970  213.0750  148.4490 O   0  0  0  0  0  1  0  0  0  0  0  0
  161.4610  212.9310  146.3720 C   0  0  0  0  0  2  0  0  0  0  0  0
  160.3260  213.2490  145.5210 N   0  0  0  0  0  2  0  0  0  0  0  0
  159.7980  212.0710  145.1100 O   0  0  0  0  0  0  0  0  0  0  0  0
  160.0100  212.0540  143.7310 C   0  0  0  0  0  1  0  0  0  0  0  0
  160.6820  203.9230  149.3260 C   0  0  0  0  0  2  0  0  0  0  0  0
  161.5290  203.3480  148.2060 C   0  0  0  0  0  2  0  0  0  0  0  0
  161.1690  201.8880  147.9660 C   0  0  1  0  0  3  0  0  0  0  0  0
  160.8490  200.7710  150.0810 O   0  0  0  0  0  1  0  0  0  0  0  0
  160.1840  201.3600  149.0040 C   0  0  0  0  0  2  0  0  0  0  0  0
  160.6260  201.5440  146.2480 S   0  0  0  0  0  0  0  0  0  0  0  0
  161.1760  203.1280  145.5370 C   0  0  0  0  0  1  0  0  0  0  0  0
  1 16  1  1  0  0  0
  3 13  1  0  0  0  0
  4 17  1  0  0  0  0
  5  8  1  0  0  0  0
  6 10  1  0  0  0  0
  6  4  1  0  0  0  0
  7  2  1  0  0  0  0
  8 15  1  0  0  0  0
  9  3  1  0  0  0  0
  9  1  1  0  0  0  0
 10  9  1  0  0  0  0
 12  5  1  0  0  0  0
 12 14  1  0  0  0  0
 13 11  1  0  0  0  0
 14  6  1  0  0  0  0
 15  4  1  0  0  0  0
 15  7  1  0  0  0  0
 16 11  1  0  0  0  0
 17  1  1  0  0  0  0
 17  2  1  0  0  0  0
 18 10  1  0  0  0  0
 19 18  1  0  0  0  0
 20 21  1  0  0  0  0
 21 19  1  0  0  0  0
 22 21  1  0  0  0  0
 22 23  1  0  0  0  0
 24 22  1  0  0  0  0
 25 24  1  0  0  0  0
 26 25  1  0  0  0  0
 27 26  1  0  0  0  0
 28  8  1  0  0  0  0
 29 28  1  0  0  0  0
 30 29  1  0  0  0  0
 30 32  1  0  0  0  0
 32 31  1  0  0  0  0
 33 30  1  0  0  0  0
 34 33  1  0  0  0  0
M  END
>  <MODEL>
1

>  <REMARK>
 VINA RESULT:      -7.1      0.000      0.000
  Name = 
  12 active torsions:
  status: ('A' for Active; 'I' for Inactive)
    1  A    between atoms: C_3  and  C_16
    2  A    between atoms: C_3  and  C_19
    3  A    between atoms: C_5  and  O_11
    4  A    between atoms: C_5  and  C_19
    5  A    between atoms: N_8  and  O_12
    6  A    between atoms: N_8  and  C_16
    7  A    between atoms: O_11  and  C_20
    8  A    between atoms: N_17  and  C_28
    9  A    between atoms: C_28  and  C_29
   10  A    between atoms: C_29  and  C_32
   11  A    between atoms: S_31  and  C_32
   12  A    between atoms: C_32  and  C_34
                            x       y       z     vdW  Elec       q    Type
                         _______ _______ _______ _____ _____    ______ ____

>  <TORSDO>
F 12

$$$$
=
 OpenBabel11122414413D

 34 37  0  0  1  0  0  0  0  0999 V2000
  161.0360  208.0240  152.9950 C   0  0  2  0  0  3  0  0  0  0  0  0
  162.0270  205.8200  153.0070 O   0  0  0  0  0  0  0  0  0  0  0  0
  160.0830  210.3430  152.9020 C   0  0  0  0  0  2  0  0  0  0  0  0
  162.2450  207.0430  150.9550 C   0  0  2  0  0  3  0  0  0  0  0  0
  161.5750  205.7490  148.3160 C   0  0  0  0  0  2  0  0  0  0  0  0
  161.3470  208.0770  150.2280 C   0  0  1  0  0  3  0  0  0  0  0  0
  161.4470  205.0570  151.9850 C   0  0  0  0  0  2  0  0  0  0  0  0
  160.9690  205.3560  149.5810 N   0  0  0  0  0  0  0  0  0  0  0  0
  161.2250  209.4410  152.4460 C   0  0  2  0  0  3  0  0  0  0  0  0
  161.3550  209.4650  150.9130 C   0  0  1  0  0  3  0  0  0  0  0  0
  159.8640  208.9690  154.9920 C   0  0  0  0  0  2  0  0  0  0  0  0
  161.0670  207.1200  147.9110 C   0  0  0  0  0  2  0  0  0  0  0  0
  160.0290  210.3800  154.4280 C   0  0  0  0  0  2  0  0  0  0  0  0
  161.7190  208.2040  148.7520 C   0  0  0  0  0  2  0  0  0  0  0  0
  161.9530  205.5760  150.6520 C   0  0  1  0  0  3  0  0  0  0  0  0
  161.0070  208.0720  154.5210 C   0  0  0  0  0  2  0  0  0  0  0  0
  162.1670  207.1190  152.4890 C   0  0  1  0  0  3  0  0  0  0  0  0
  162.3640  210.3480  150.4590 O   0  0  0  0  0  0  0  0  0  0  0  0
  161.7590  211.5190  149.9720 C   0  0  0  0  0  2  0  0  0  0  0  0
  163.3870  212.0260  148.2980 O   0  0  0  0  0  1  0  0  0  0  0  0
  162.0480  211.6750  148.4910 C   0  0  2  0  0  3  0  0  0  0  0  0
  161.1240  212.7300  147.8860 C   0  0  1  0  0  3  0  0  0  0  0  0
  160.2400  212.1420  146.9780 O   0  0  0  0  0  1  0  0  0  0  0  0
  160.3380  213.4550  148.9680 C   0  0  0  0  0  2  0  0  0  0  0  0
  159.1040  213.9920  148.4150 N   0  0  0  0  0  2  0  0  0  0  0  0
  158.2260  214.0990  149.4410 O   0  0  0  0  0  0  0  0  0  0  0  0
  157.2570  213.1310  149.1740 C   0  0  0  0  0  1  0  0  0  0  0  0
  160.7280  203.9240  149.4540 C   0  0  0  0  0  2  0  0  0  0  0  0
  161.3910  203.4030  148.1930 C   0  0  0  0  0  2  0  0  0  0  0  0
  161.1600  201.9040  148.0530 C   0  0  1  0  0  3  0  0  0  0  0  0
  160.8740  200.6630  150.1030 O   0  0  0  0  0  1  0  0  0  0  0  0
  160.1960  201.3690  149.1080 C   0  0  0  0  0  2  0  0  0  0  0  0
  160.6900  201.3940  146.3550 S   0  0  0  0  0  0  0  0  0  0  0  0
  161.0930  202.9750  145.5460 C   0  0  0  0  0  1  0  0  0  0  0  0
  1 16  1  1  0  0  0
  3 13  1  0  0  0  0
  4 17  1  0  0  0  0
  5  8  1  0  0  0  0
  6 10  1  0  0  0  0
  6  4  1  0  0  0  0
  7  2  1  0  0  0  0
  8 15  1  0  0  0  0
  9  3  1  0  0  0  0
  9  1  1  0  0  0  0
 10  9  1  0  0  0  0
 12  5  1  0  0  0  0
 12 14  1  0  0  0  0
 13 11  1  0  0  0  0
 14  6  1  0  0  0  0
 15  4  1  0  0  0  0
 15  7  1  0  0  0  0
 16 11  1  0  0  0  0
 17  1  1  0  0  0  0
 17  2  1  0  0  0  0
 18 10  1  0  0  0  0
 19 18  1  0  0  0  0
 20 21  1  0  0  0  0
 21 19  1  0  0  0  0
 22 21  1  0  0  0  0
 22 24  1  0  0  0  0
 23 22  1  0  0  0  0
 25 24  1  0  0  0  0
 25 26  1  0  0  0  0
 27 26  1  0  0  0  0
 28  8  1  0  0  0  0
 29 28  1  0  0  0  0
 30 29  1  0  0  0  0
 30 32  1  0  0  0  0
 32 31  1  0  0  0  0
 33 30  1  0  0  0  0
 34 33  1  0  0  0  0
M  END
>  <MODEL>
2

>  <REMARK>
 VINA RESULT:      -6.9      1.109      1.594
  Name = 
  12 active torsions:
  status: ('A' for Active; 'I' for Inactive)
    1  A    between atoms: C_3  and  C_16
    2  A    between atoms: C_3  and  C_19
    3  A    between atoms: C_5  and  O_11
    4  A    between atoms: C_5  and  C_19
    5  A    between atoms: N_8  and  O_12
    6  A    between atoms: N_8  and  C_16
    7  A    between atoms: O_11  and  C_20
    8  A    between atoms: N_17  and  C_28
    9  A    between atoms: C_28  and  C_29
   10  A    between atoms: C_29  and  C_32
   11  A    between atoms: S_31  and  C_32
   12  A    between atoms: C_32  and  C_34
                            x       y       z     vdW  Elec       q    Type
                         _______ _______ _______ _____ _____    ______ ____

>  <TORSDO>
F 12

$$$$
=
 OpenBabel11122414413D

 34 37  0  0  1  0  0  0  0  0999 V2000
  161.4370  207.7800  149.8910 C   0  0  2  0  0  3  0  0  0  0  0  0
  162.4280  209.8110  150.7480 O   0  0  0  0  0  0  0  0  0  0  0  0
  160.4570  205.6150  149.0870 C   0  0  0  0  0  2  0  0  0  0  0  0
  162.0410  208.0830  152.3670 C   0  0  2  0  0  3  0  0  0  0  0  0
  160.6800  208.7050  154.9830 C   0  0  0  0  0  2  0  0  0  0  0  0
  160.9580  206.9830  152.5160 C   0  0  1  0  0  3  0  0  0  0  0  0
  161.5980  210.3330  151.7480 C   0  0  0  0  0  2  0  0  0  0  0  0
  160.4600  209.4670  153.7610 N   0  0  0  0  0  0  0  0  0  0  0  0
  161.4400  206.2580  150.0590 C   0  0  2  0  0  3  0  0  0  0  0  0
  161.1350  205.8260  151.5040 C   0  0  1  0  0  3  0  0  0  0  0  0
  160.8570  207.4980  147.4750 C   0  0  0  0  0  2  0  0  0  0  0  0
  160.0560  207.3290  154.8460 C   0  0  0  0  0  2  0  0  0  0  0  0
  160.8330  205.9800  147.6530 C   0  0  0  0  0  2  0  0  0  0  0  0
  160.8990  206.4440  153.9440 C   0  0  0  0  0  2  0  0  0  0  0  0
  161.7010  209.4420  152.9720 C   0  0  1  0  0  3  0  0  0  0  0  0
  161.8370  208.1320  148.4590 C   0  0  0  0  0  2  0  0  0  0  0  0
  162.3950  208.4140  150.9070 C   0  0  1  0  0  3  0  0  0  0  0  0
  161.9610  204.7660  151.9480 O   0  0  0  0  0  0  0  0  0  0  0  0
  161.9830  203.7620  150.9660 C   0  0  0  0  0  2  0  0  0  0  0  0
  160.5360  202.4290  152.3220 O   0  0  0  0  0  1  0  0  0  0  0  0
  160.7090  202.9410  151.0330 C   0  0  2  0  0  3  0  0  0  0  0  0
  160.7590  201.8110  150.0070 C   0  0  1  0  0  3  0  0  0  0  0  0
  159.4710  201.3520  149.7210 O   0  0  0  0  0  1  0  0  0  0  0  0
  161.4350  202.2670  148.7230 C   0  0  0  0  0  2  0  0  0  0  0  0
  160.9460  201.4880  147.5960 N   0  0  0  0  0  2  0  0  0  0  0  0
  161.0300  202.2810  146.5020 O   0  0  0  0  0  0  0  0  0  0  0  0
  160.3630  201.5710  145.5020 C   0  0  0  0  0  1  0  0  0  0  0  0
  160.2170  210.8330  154.2080 C   0  0  0  0  0  2  0  0  0  0  0  0
  158.7480  211.0080  154.5470 C   0  0  0  0  0  2  0  0  0  0  0  0
  158.2350  212.3360  154.0080 C   0  0  1  0  0  3  0  0  0  0  0  0
  159.2150  213.6500  152.2370 O   0  0  0  0  0  1  0  0  0  0  0  0
  158.4910  212.4880  152.5120 C   0  0  0  0  0  2  0  0  0  0  0  0
  156.4890  212.6790  154.4570 S   0  0  0  0  0  0  0  0  0  0  0  0
  156.1610  211.0740  155.2510 C   0  0  0  0  0  1  0  0  0  0  0  0
  1 16  1  6  0  0  0
  1  9  1  0  0  0  0
  1 17  1  0  0  0  0
  2 17  1  0  0  0  0
  2  7  1  0  0  0  0
  3  9  1  0  0  0  0
  4  6  1  0  0  0  0
  4 15  1  0  0  0  0
  6 14  1  0  0  0  0
  7 15  1  0  0  0  0
  8 28  1  0  0  0  0
  8  5  1  0  0  0  0
  9 10  1  0  0  0  0
 10 18  1  0  0  0  0
 10  6  1  0  0  0  0
 11 13  1  0  0  0  0
 11 16  1  0  0  0  0
 12  5  1  0  0  0  0
 13  3  1  0  0  0  0
 14 12  1  0  0  0  0
 15  8  1  0  0  0  0
 17  4  1  0  0  0  0
 19 21  1  0  0  0  0
 19 18  1  0  0  0  0
 21 20  1  0  0  0  0
 22 21  1  0  0  0  0
 23 22  1  0  0  0  0
 24 22  1  0  0  0  0
 25 24  1  0  0  0  0
 26 25  1  0  0  0  0
 27 26  1  0  0  0  0
 28 29  1  0  0  0  0
 30 33  1  0  0  0  0
 30 29  1  0  0  0  0
 31 32  1  0  0  0  0
 32 30  1  0  0  0  0
 33 34  1  0  0  0  0
M  END
>  <MODEL>
3

>  <REMARK>
 VINA RESULT:      -6.2      3.868      8.671
  Name = 
  12 active torsions:
  status: ('A' for Active; 'I' for Inactive)
    1  A    between atoms: C_3  and  C_16
    2  A    between atoms: C_3  and  C_19
    3  A    between atoms: C_5  and  O_11
    4  A    between atoms: C_5  and  C_19
    5  A    between atoms: N_8  and  O_12
    6  A    between atoms: N_8  and  C_16
    7  A    between atoms: O_11  and  C_20
    8  A    between atoms: N_17  and  C_28
    9  A    between atoms: C_28  and  C_29
   10  A    between atoms: C_29  and  C_32
   11  A    between atoms: S_31  and  C_32
   12  A    between atoms: C_32  and  C_34
                            x       y       z     vdW  Elec       q    Type
                         _______ _______ _______ _____ _____    ______ ____

>  <TORSDO>
F 12

$$$$
=
 OpenBabel11122414413D

 34 37  0  0  1  0  0  0  0  0999 V2000
  160.7480  206.9960  153.8860 C   0  0  2  0  0  3  0  0  0  0  0  0
  161.7360  204.8670  153.3130 O   0  0  0  0  0  0  0  0  0  0  0  0
  159.8040  209.2590  154.4190 C   0  0  0  0  0  2  0  0  0  0  0  0
  162.0890  206.6330  151.7280 C   0  0  2  0  0  3  0  0  0  0  0  0
  161.5930  206.1820  148.7890 C   0  0  0  0  0  2  0  0  0  0  0  0
  161.2400  207.8520  151.2820 C   0  0  1  0  0  3  0  0  0  0  0  0
  161.2250  204.4490  152.0780 C   0  0  0  0  0  2  0  0  0  0  0  0
  160.9050  205.4480  149.8430 N   0  0  0  0  0  0  0  0  0  0  0  0
  160.9730  208.5090  153.7910 C   0  0  2  0  0  3  0  0  0  0  0  0
  161.2030  208.9780  152.3440 C   0  0  1  0  0  3  0  0  0  0  0  0
  159.4490  207.3370  155.9950 C   0  0  0  0  0  2  0  0  0  0  0  0
  161.1120  207.6210  148.7740 C   0  0  0  0  0  2  0  0  0  0  0  0
  159.6500  208.8480  155.8820 C   0  0  0  0  0  2  0  0  0  0  0  0
  161.7080  208.3990  149.9350 C   0  0  0  0  0  2  0  0  0  0  0  0
  161.8170  205.3250  150.9900 C   0  0  1  0  0  3  0  0  0  0  0  0
  160.6200  206.5960  155.3550 C   0  0  0  0  0  2  0  0  0  0  0  0
  161.9100  206.2580  153.2090 C   0  0  1  0  0  3  0  0  0  0  0  0
  162.2400  209.9350  152.2330 O   0  0  0  0  0  0  0  0  0  0  0  0
  161.7280  211.2020  152.5620 C   0  0  0  0  0  2  0  0  0  0  0  0
  161.0940  211.9110  150.3700 O   0  0  0  0  0  1  0  0  0  0  0  0
  160.5900  211.5610  151.6250 C   0  0  2  0  0  3  0  0  0  0  0  0
  159.7690  212.7070  152.2130 C   0  0  1  0  0  3  0  0  0  0  0  0
  159.5660  213.7050  151.2570 O   0  0  0  0  0  1  0  0  0  0  0  0
  158.4260  212.2110  152.7270 C   0  0  0  0  0  2  0  0  0  0  0  0
  157.5660  213.3390  153.0500 N   0  0  0  0  0  2  0  0  0  0  0  0
  157.2960  213.2620  154.3750 O   0  0  0  0  0  0  0  0  0  0  0  0
  156.0250  212.6890  154.4410 C   0  0  0  0  0  1  0  0  0  0  0  0
  160.6720  204.1200  149.2860 C   0  0  0  0  0  2  0  0  0  0  0  0
  161.3880  203.9910  147.9550 C   0  0  0  0  0  2  0  0  0  0  0  0
  161.3960  202.5390  147.4960 C   0  0  1  0  0  3  0  0  0  0  0  0
  161.2760  200.3550  148.5150 O   0  0  0  0  0  1  0  0  0  0  0  0
  160.6860  201.6190  148.4850 C   0  0  0  0  0  2  0  0  0  0  0  0
  160.7980  202.3130  145.7770 S   0  0  0  0  0  0  0  0  0  0  0  0
  161.2250  203.9820  145.1890 C   0  0  0  0  0  1  0  0  0  0  0  0
  1 16  1  1  0  0  0
  3 13  1  0  0  0  0
  4 17  1  0  0  0  0
  5  8  1  0  0  0  0
  6  4  1  0  0  0  0
  6 10  1  0  0  0  0
  7  2  1  0  0  0  0
  8 15  1  0  0  0  0
  9  1  1  0  0  0  0
  9  3  1  0  0  0  0
 10  9  1  0  0  0  0
 12  5  1  0  0  0  0
 12 14  1  0  0  0  0
 13 11  1  0  0  0  0
 14  6  1  0  0  0  0
 15  4  1  0  0  0  0
 15  7  1  0  0  0  0
 16 11  1  0  0  0  0
 17  2  1  0  0  0  0
 17  1  1  0  0  0  0
 18 10  1  0  0  0  0
 18 19  1  0  0  0  0
 20 21  1  0  0  0  0
 21 22  1  0  0  0  0
 21 19  1  0  0  0  0
 22 24  1  0  0  0  0
 23 22  1  0  0  0  0
 24 25  1  0  0  0  0
 25 26  1  0  0  0  0
 26 27  1  0  0  0  0
 28  8  1  0  0  0  0
 29 28  1  0  0  0  0
 30 29  1  0  0  0  0
 30 32  1  0  0  0  0
 32 31  1  0  0  0  0
 33 30  1  0  0  0  0
 34 33  1  0  0  0  0
M  END
>  <MODEL>
4

>  <REMARK>
 VINA RESULT:      -6.0      2.682      3.612
  Name = 
  12 active torsions:
  status: ('A' for Active; 'I' for Inactive)
    1  A    between atoms: C_3  and  C_16
    2  A    between atoms: C_3  and  C_19
    3  A    between atoms: C_5  and  O_11
    4  A    between atoms: C_5  and  C_19
    5  A    between atoms: N_8  and  O_12
    6  A    between atoms: N_8  and  C_16
    7  A    between atoms: O_11  and  C_20
    8  A    between atoms: N_17  and  C_28
    9  A    between atoms: C_28  and  C_29
   10  A    between atoms: C_29  and  C_32
   11  A    between atoms: S_31  and  C_32
   12  A    between atoms: C_32  and  C_34
                            x       y       z     vdW  Elec       q    Type
                         _______ _______ _______ _____ _____    ______ ____

>  <TORSDO>
F 12

$$$$
=
 OpenBabel11122414413D

 34 37  0  0  1  0  0  0  0  0999 V2000
  161.5470  207.8960  149.6800 C   0  0  2  0  0  3  0  0  0  0  0  0
  160.5430  206.7710  147.7910 O   0  0  0  0  0  0  0  0  0  0  0  0
  162.5160  209.0070  151.7100 C   0  0  0  0  0  2  0  0  0  0  0  0
  160.4240  205.5970  149.8790 C   0  0  2  0  0  3  0  0  0  0  0  0
  161.2050  202.6900  150.0540 C   0  0  0  0  0  2  0  0  0  0  0  0
  161.3610  205.5160  151.1130 C   0  0  1  0  0  3  0  0  0  0  0  0
  161.1640  205.5260  147.6230 C   0  0  0  0  0  2  0  0  0  0  0  0
  161.7520  203.6120  149.0670 N   0  0  0  0  0  0  0  0  0  0  0  0
  161.3910  208.1210  151.1870 C   0  0  2  0  0  3  0  0  0  0  0  0
  161.3290  206.8010  151.9740 C   0  0  1  0  0  3  0  0  0  0  0  0
  162.6330  210.1390  149.4710 C   0  0  0  0  0  2  0  0  0  0  0  0
  161.7380  203.0420  151.4300 C   0  0  0  0  0  2  0  0  0  0  0  0
  162.5010  210.3480  150.9800 C   0  0  0  0  0  2  0  0  0  0  0  0
  161.0550  204.2880  151.9690 C   0  0  0  0  0  2  0  0  0  0  0  0
  160.7210  204.6120  148.7510 C   0  0  1  0  0  3  0  0  0  0  0  0
  161.5070  209.2430  148.9600 C   0  0  0  0  0  2  0  0  0  0  0  0
  160.4340  206.9660  149.1790 C   0  0  1  0  0  3  0  0  0  0  0  0
  160.3470  206.8120  152.9930 O   0  0  0  0  0  0  0  0  0  0  0  0
  160.9810  206.9760  154.2360 C   0  0  0  0  0  2  0  0  0  0  0  0
  161.8590  209.0210  155.1060 O   0  0  0  0  0  1  0  0  0  0  0  0
  160.6720  208.3490  154.8010 C   0  0  2  0  0  3  0  0  0  0  0  0
  159.7930  208.2200  156.0420 C   0  0  1  0  0  3  0  0  0  0  0  0
  160.0040  206.9880  156.6660 O   0  0  0  0  0  1  0  0  0  0  0  0
  160.0680  209.3450  157.0290 C   0  0  0  0  0  2  0  0  0  0  0  0
  159.3730  210.5540  156.6170 N   0  0  0  0  0  2  0  0  0  0  0  0
  160.2960  211.5430  156.5670 O   0  0  0  0  0  0  0  0  0  0  0  0
  160.0740  212.1670  155.3380 C   0  0  0  0  0  1  0  0  0  0  0  0
  161.9900  202.7950  147.8820 C   0  0  0  0  0  2  0  0  0  0  0  0
  160.7700  201.9400  147.5960 C   0  0  0  0  0  2  0  0  0  0  0  0
  160.3480  202.0910  146.1400 C   0  0  1  0  0  3  0  0  0  0  0  0
  160.4570  203.9200  144.5700 O   0  0  0  0  0  1  0  0  0  0  0  0
  161.2240  203.0870  145.3870 C   0  0  0  0  0  2  0  0  0  0  0  0
  160.1890  200.4910  145.2570 S   0  0  0  0  0  0  0  0  0  0  0  0
  161.3660  199.5660  146.2930 C   0  0  0  0  0  1  0  0  0  0  0  0
  1 16  1  6  0  0  0
  1  9  1  0  0  0  0
  2 17  1  0  0  0  0
  4  6  1  0  0  0  0
  5 12  1  0  0  0  0
  6 14  1  0  0  0  0
  6 10  1  0  0  0  0
  7  2  1  0  0  0  0
  7 15  1  0  0  0  0
  8  5  1  0  0  0  0
  9  3  1  0  0  0  0
  9 10  1  0  0  0  0
 10 18  1  0  0  0  0
 11 13  1  0  0  0  0
 12 14  1  0  0  0  0
 13  3  1  0  0  0  0
 15  8  1  0  0  0  0
 15  4  1  0  0  0  0
 16 11  1  0  0  0  0
 17  1  1  0  0  0  0
 17  4  1  0  0  0  0
 18 19  1  0  0  0  0
 19 21  1  0  0  0  0
 21 20  1  0  0  0  0
 21 22  1  0  0  0  0
 22 23  1  0  0  0  0
 22 24  1  0  0  0  0
 25 24  1  0  0  0  0
 26 25  1  0  0  0  0
 27 26  1  0  0  0  0
 28  8  1  0  0  0  0
 29 28  1  0  0  0  0
 30 29  1  0  0  0  0
 31 32  1  0  0  0  0
 32 30  1  0  0  0  0
 33 30  1  0  0  0  0
 33 34  1  0  0  0  0
M  END
>  <MODEL>
5

>  <REMARK>
 VINA RESULT:      -5.1      3.436      6.074
  Name = 
  12 active torsions:
  status: ('A' for Active; 'I' for Inactive)
    1  A    between atoms: C_3  and  C_16
    2  A    between atoms: C_3  and  C_19
    3  A    between atoms: C_5  and  O_11
    4  A    between atoms: C_5  and  C_19
    5  A    between atoms: N_8  and  O_12
    6  A    between atoms: N_8  and  C_16
    7  A    between atoms: O_11  and  C_20
    8  A    between atoms: N_17  and  C_28
    9  A    between atoms: C_28  and  C_29
   10  A    between atoms: C_29  and  C_32
   11  A    between atoms: S_31  and  C_32
   12  A    between atoms: C_32  and  C_34
                            x       y       z     vdW  Elec       q    Type
                         _______ _______ _______ _____ _____    ______ ____

>  <TORSDO>
F 12

$$$$
=
 OpenBabel11122414413D

 34 37  0  0  1  0  0  0  0  0999 V2000
  161.5800  207.8030  149.5360 C   0  0  2  0  0  3  0  0  0  0  0  0
  160.6280  206.5590  147.6960 O   0  0  0  0  0  0  0  0  0  0  0  0
  162.4940  209.0430  151.5160 C   0  0  0  0  0  2  0  0  0  0  0  0
  160.4550  205.5180  149.8510 C   0  0  2  0  0  3  0  0  0  0  0  0
  161.2320  202.6300  150.2300 C   0  0  0  0  0  2  0  0  0  0  0  0
  161.3580  205.5180  151.1120 C   0  0  1  0  0  3  0  0  0  0  0  0
  161.2540  205.3070  147.6240 C   0  0  0  0  0  2  0  0  0  0  0  0
  161.8040  203.4890  149.2010 N   0  0  0  0  0  0  0  0  0  0  0  0
  161.3840  208.1230  151.0210 C   0  0  2  0  0  3  0  0  0  0  0  0
  161.3030  206.8550  151.8890 C   0  0  1  0  0  3  0  0  0  0  0  0
  162.6690  210.0310  149.2150 C   0  0  0  0  0  2  0  0  0  0  0  0
  161.7290  203.0700  151.5950 C   0  0  0  0  0  2  0  0  0  0  0  0
  162.4980  210.3350  150.7030 C   0  0  0  0  0  2  0  0  0  0  0  0
  161.0310  204.3460  152.0350 C   0  0  0  0  0  2  0  0  0  0  0  0
  160.7820  204.4650  148.7950 C   0  0  1  0  0  3  0  0  0  0  0  0
  161.5580  209.1010  148.7310 C   0  0  0  0  0  2  0  0  0  0  0  0
  160.4820  206.8400  149.0660 C   0  0  1  0  0  3  0  0  0  0  0  0
  160.2940  206.9280  152.8780 O   0  0  0  0  0  0  0  0  0  0  0  0
  160.8990  207.1100  154.1340 C   0  0  0  0  0  2  0  0  0  0  0  0
  161.9020  209.1090  154.9750 O   0  0  0  0  0  1  0  0  0  0  0  0
  160.6810  208.5320  154.6150 C   0  0  2  0  0  3  0  0  0  0  0  0
  159.7120  208.5430  155.7950 C   0  0  1  0  0  3  0  0  0  0  0  0
  159.7060  207.3020  156.4360 O   0  0  0  0  0  1  0  0  0  0  0  0
  160.0770  209.6310  156.7930 C   0  0  0  0  0  2  0  0  0  0  0  0
  159.3470  210.8530  156.4910 N   0  0  0  0  0  2  0  0  0  0  0  0
  158.2630  210.4960  155.7620 O   0  0  0  0  0  0  0  0  0  0  0  0
  157.4970  211.6600  155.6810 C   0  0  0  0  0  1  0  0  0  0  0  0
  162.0750  202.6000  148.0770 C   0  0  0  0  0  2  0  0  0  0  0  0
  160.8540  201.7450  147.7950 C   0  0  0  0  0  2  0  0  0  0  0  0
  161.0400  200.9670  146.4990 C   0  0  1  0  0  3  0  0  0  0  0  0
  161.2110  198.7570  145.5460 O   0  0  0  0  0  1  0  0  0  0  0  0
  161.2060  199.4710  146.7450 C   0  0  0  0  0  2  0  0  0  0  0  0
  159.7570  201.3300  145.2400 S   0  0  0  0  0  0  0  0  0  0  0  0
  160.2910  203.0340  144.8870 C   0  0  0  0  0  1  0  0  0  0  0  0
  1 16  1  6  0  0  0
  1  9  1  0  0  0  0
  2 17  1  0  0  0  0
  4  6  1  0  0  0  0
  5 12  1  0  0  0  0
  6 10  1  0  0  0  0
  6 14  1  0  0  0  0
  7  2  1  0  0  0  0
  7 15  1  0  0  0  0
  8  5  1  0  0  0  0
  9  3  1  0  0  0  0
  9 10  1  0  0  0  0
 10 18  1  0  0  0  0
 11 13  1  0  0  0  0
 12 14  1  0  0  0  0
 13  3  1  0  0  0  0
 15  8  1  0  0  0  0
 15  4  1  0  0  0  0
 16 11  1  0  0  0  0
 17  1  1  0  0  0  0
 17  4  1  0  0  0  0
 18 19  1  0  0  0  0
 19 21  1  0  0  0  0
 21 20  1  0  0  0  0
 21 22  1  0  0  0  0
 22 23  1  0  0  0  0
 22 24  1  0  0  0  0
 25 24  1  0  0  0  0
 26 25  1  0  0  0  0
 27 26  1  0  0  0  0
 28  8  1  0  0  0  0
 29 28  1  0  0  0  0
 30 32  1  0  0  0  0
 30 29  1  0  0  0  0
 31 32  1  0  0  0  0
 33 30  1  0  0  0  0
 34 33  1  0  0  0  0
M  END
>  <MODEL>
6

>  <REMARK>
 VINA RESULT:      -5.0      3.393      5.933
  Name = 
  12 active torsions:
  status: ('A' for Active; 'I' for Inactive)
    1  A    between atoms: C_3  and  C_16
    2  A    between atoms: C_3  and  C_19
    3  A    between atoms: C_5  and  O_11
    4  A    between atoms: C_5  and  C_19
    5  A    between atoms: N_8  and  O_12
    6  A    between atoms: N_8  and  C_16
    7  A    between atoms: O_11  and  C_20
    8  A    between atoms: N_17  and  C_28
    9  A    between atoms: C_28  and  C_29
   10  A    between atoms: C_29  and  C_32
   11  A    between atoms: S_31  and  C_32
   12  A    between atoms: C_32  and  C_34
                            x       y       z     vdW  Elec       q    Type
                         _______ _______ _______ _____ _____    ______ ____

>  <TORSDO>
F 12

$$$$
=
 OpenBabel11122414413D

 34 37  0  0  1  0  0  0  0  0999 V2000
  161.3980  207.7020  150.1990 C   0  0  2  0  0  3  0  0  0  0  0  0
  162.1330  209.7660  151.2180 O   0  0  0  0  0  0  0  0  0  0  0  0
  160.6860  205.5020  149.2250 C   0  0  0  0  0  2  0  0  0  0  0  0
  161.8780  207.9060  152.7120 C   0  0  2  0  0  3  0  0  0  0  0  0
  160.3660  208.2120  155.3020 C   0  0  0  0  0  2  0  0  0  0  0  0
  160.9150  206.6920  152.7490 C   0  0  1  0  0  3  0  0  0  0  0  0
  161.2170  210.1320  152.2120 C   0  0  0  0  0  2  0  0  0  0  0  0
  160.1080  209.0230  154.1190 N   0  0  0  0  0  0  0  0  0  0  0  0
  161.5590  206.1810  150.2750 C   0  0  2  0  0  3  0  0  0  0  0  0
  161.2520  205.6270  151.6770 C   0  0  1  0  0  3  0  0  0  0  0  0
  160.9370  207.5170  147.7480 C   0  0  0  0  0  2  0  0  0  0  0  0
  159.8990  206.7900  155.0550 C   0  0  0  0  0  2  0  0  0  0  0  0
  161.0710  205.9960  147.8330 C   0  0  0  0  0  2  0  0  0  0  0  0
  160.8640  206.0590  154.1380 C   0  0  0  0  0  2  0  0  0  0  0  0
  161.3720  209.1800  153.3840 C   0  0  1  0  0  3  0  0  0  0  0  0
  161.8080  208.1860  148.8100 C   0  0  0  0  0  2  0  0  0  0  0  0
  162.2460  208.3670  151.2910 C   0  0  1  0  0  3  0  0  0  0  0  0
  162.1710  204.6340  152.0910 O   0  0  0  0  0  0  0  0  0  0  0  0
  162.1490  203.5770  151.1650 C   0  0  0  0  0  2  0  0  0  0  0  0
  160.2530  202.8450  152.4230 O   0  0  0  0  0  1  0  0  0  0  0  0
  160.7690  202.9480  151.1280 C   0  0  2  0  0  3  0  0  0  0  0  0
  160.8380  201.5730  150.4670 C   0  0  1  0  0  3  0  0  0  0  0  0
  159.5790  200.9670  150.4620 O   0  0  0  0  0  1  0  0  0  0  0  0
  161.3590  201.6770  149.0410 C   0  0  0  0  0  2  0  0  0  0  0  0
  160.2530  201.8670  148.1160 N   0  0  0  0  0  2  0  0  0  0  0  0
  160.7090  201.5430  146.8830 O   0  0  0  0  0  0  0  0  0  0  0  0
  161.2060  200.2460  147.0230 C   0  0  0  0  0  1  0  0  0  0  0  0
  159.7030  210.3250  154.6370 C   0  0  0  0  0  2  0  0  0  0  0  0
  160.2610  210.5160  156.0350 C   0  0  0  0  0  2  0  0  0  0  0  0
  160.9710  211.8590  156.1440 C   0  0  1  0  0  3  0  0  0  0  0  0
  159.4610  213.5690  155.3570 O   0  0  0  0  0  1  0  0  0  0  0  0
  160.0120  212.9890  156.5010 C   0  0  0  0  0  2  0  0  0  0  0  0
  162.4440  211.8190  157.2360 S   0  0  0  0  0  0  0  0  0  0  0  0
  162.9590  210.1220  156.8260 C   0  0  0  0  0  1  0  0  0  0  0  0
  1 16  1  6  0  0  0
  1  9  1  0  0  0  0
  1 17  1  0  0  0  0
  2 17  1  0  0  0  0
  2  7  1  0  0  0  0
  3  9  1  0  0  0  0
  4  6  1  0  0  0  0
  4 15  1  0  0  0  0
  6 14  1  0  0  0  0
  7 15  1  0  0  0  0
  8 28  1  0  0  0  0
  8  5  1  0  0  0  0
  9 10  1  0  0  0  0
 10 18  1  0  0  0  0
 10  6  1  0  0  0  0
 11 13  1  0  0  0  0
 11 16  1  0  0  0  0
 12  5  1  0  0  0  0
 13  3  1  0  0  0  0
 14 12  1  0  0  0  0
 15  8  1  0  0  0  0
 17  4  1  0  0  0  0
 19 18  1  0  0  0  0
 21 19  1  0  0  0  0
 21 20  1  0  0  0  0
 22 21  1  0  0  0  0
 23 22  1  0  0  0  0
 24 22  1  0  0  0  0
 25 24  1  0  0  0  0
 26 27  1  0  0  0  0
 26 25  1  0  0  0  0
 28 29  1  0  0  0  0
 29 30  1  0  0  0  0
 30 32  1  0  0  0  0
 30 33  1  0  0  0  0
 31 32  1  0  0  0  0
 34 33  1  0  0  0  0
M  END
>  <MODEL>
7

>  <REMARK>
 VINA RESULT:      -4.7      4.069      8.982
  Name = 
  12 active torsions:
  status: ('A' for Active; 'I' for Inactive)
    1  A    between atoms: C_3  and  C_16
    2  A    between atoms: C_3  and  C_19
    3  A    between atoms: C_5  and  O_11
    4  A    between atoms: C_5  and  C_19
    5  A    between atoms: N_8  and  O_12
    6  A    between atoms: N_8  and  C_16
    7  A    between atoms: O_11  and  C_20
    8  A    between atoms: N_17  and  C_28
    9  A    between atoms: C_28  and  C_29
   10  A    between atoms: C_29  and  C_32
   11  A    between atoms: S_31  and  C_32
   12  A    between atoms: C_32  and  C_34
                            x       y       z     vdW  Elec       q    Type
                         _______ _______ _______ _____ _____    ______ ____

>  <TORSDO>
F 12

$$$$
=
 OpenBabel11122414413D

 34 37  0  0  1  0  0  0  0  0999 V2000
  160.8900  209.5390  154.5450 C   0  0  2  0  0  3  0  0  0  0  0  0
  159.8930  211.2260  153.1310 O   0  0  0  0  0  0  0  0  0  0  0  0
  161.8830  207.7070  155.9430 C   0  0  0  0  0  2  0  0  0  0  0  0
  160.4680  209.1670  152.0410 C   0  0  2  0  0  3  0  0  0  0  0  0
  162.0040  209.1780  149.4470 C   0  0  0  0  0  2  0  0  0  0  0  0
  161.5990  208.1280  152.2520 C   0  0  1  0  0  3  0  0  0  0  0  0
  160.7790  211.5210  152.0860 C   0  0  0  0  0  2  0  0  0  0  0  0
  162.1010  210.2370  150.4440 N   0  0  0  0  0  0  0  0  0  0  0  0
  160.9550  208.0260  154.7750 C   0  0  2  0  0  3  0  0  0  0  0  0
  161.3870  207.2580  153.5140 C   0  0  1  0  0  3  0  0  0  0  0  0
  161.2910  209.9130  156.9850 C   0  0  0  0  0  2  0  0  0  0  0  0
  162.6660  207.9190  149.9750 C   0  0  0  0  0  2  0  0  0  0  0  0
  161.3840  208.4030  157.2060 C   0  0  0  0  0  2  0  0  0  0  0  0
  161.7880  207.2470  151.0180 C   0  0  0  0  0  2  0  0  0  0  0  0
  160.8040  210.3440  151.1290 C   0  0  1  0  0  3  0  0  0  0  0  0
  160.3670  210.2210  155.8080 C   0  0  0  0  0  2  0  0  0  0  0  0
  159.9900  209.8390  153.3390 C   0  0  1  0  0  3  0  0  0  0  0  0
  160.6380  206.0760  153.3040 O   0  0  0  0  0  0  0  0  0  0  0  0
  161.4800  205.0930  152.7560 C   0  0  0  0  0  2  0  0  0  0  0  0
  160.4700  202.9280  152.7540 O   0  0  0  0  0  1  0  0  0  0  0  0
  160.6590  204.0780  151.9830 C   0  0  2  0  0  3  0  0  0  0  0  0
  161.3530  203.7360  150.6670 C   0  0  1  0  0  3  0  0  0  0  0  0
  161.1810  202.3840  150.3590 O   0  0  0  0  0  1  0  0  0  0  0  0
  160.8190  204.5900  149.5270 C   0  0  0  0  0  2  0  0  0  0  0  0
  161.3650  204.1330  148.2590 N   0  0  0  0  0  2  0  0  0  0  0  0
  161.9390  205.2070  147.6670 O   0  0  0  0  0  0  0  0  0  0  0  0
  160.8900  206.1100  147.4870 C   0  0  0  0  0  1  0  0  0  0  0  0
  162.3270  211.4550  149.6760 C   0  0  0  0  0  2  0  0  0  0  0  0
  161.7400  211.3020  148.2860 C   0  0  0  0  0  2  0  0  0  0  0  0
  161.3090  212.6570  147.7400 C   0  0  1  0  0  3  0  0  0  0  0  0
  163.0760  214.2940  147.8920 O   0  0  0  0  0  1  0  0  0  0  0  0
  162.4510  213.3840  147.0370 C   0  0  0  0  0  2  0  0  0  0  0  0
  159.7920  212.5800  146.7120 S   0  0  0  0  0  0  0  0  0  0  0  0
  159.9030  214.2740  146.0540 C   0  0  0  0  0  1  0  0  0  0  0  0
  1  9  1  0  0  0  0
  1 16  1  1  0  0  0
  2 17  1  0  0  0  0
  3 13  1  0  0  0  0
  4  6  1  0  0  0  0
  4 17  1  0  0  0  0
  5 12  1  0  0  0  0
  5  8  1  0  0  0  0
  6 10  1  0  0  0  0
  7  2  1  0  0  0  0
  8 15  1  0  0  0  0
  9  3  1  0  0  0  0
 10  9  1  0  0  0  0
 11 13  1  0  0  0  0
 12 14  1  0  0  0  0
 14  6  1  0  0  0  0
 15  4  1  0  0  0  0
 15  7  1  0  0  0  0
 16 11  1  0  0  0  0
 17  1  1  0  0  0  0
 18 10  1  0  0  0  0
 19 18  1  0  0  0  0
 21 20  1  0  0  0  0
 21 19  1  0  0  0  0
 22 21  1  0  0  0  0
 23 22  1  0  0  0  0
 24 22  1  0  0  0  0
 25 24  1  0  0  0  0
 26 25  1  0  0  0  0
 27 26  1  0  0  0  0
 28  8  1  0  0  0  0
 29 28  1  0  0  0  0
 30 29  1  0  0  0  0
 32 30  1  0  0  0  0
 32 31  1  0  0  0  0
 33 30  1  0  0  0  0
 34 33  1  0  0  0  0
M  END
>  <MODEL>
8

>  <REMARK>
 VINA RESULT:      -4.6      2.900      7.351
  Name = 
  12 active torsions:
  status: ('A' for Active; 'I' for Inactive)
    1  A    between atoms: C_3  and  C_16
    2  A    between atoms: C_3  and  C_19
    3  A    between atoms: C_5  and  O_11
    4  A    between atoms: C_5  and  C_19
    5  A    between atoms: N_8  and  O_12
    6  A    between atoms: N_8  and  C_16
    7  A    between atoms: O_11  and  C_20
    8  A    between atoms: N_17  and  C_28
    9  A    between atoms: C_28  and  C_29
   10  A    between atoms: C_29  and  C_32
   11  A    between atoms: S_31  and  C_32
   12  A    between atoms: C_32  and  C_34
                            x       y       z     vdW  Elec       q    Type
                         _______ _______ _______ _____ _____    ______ ____

>  <TORSDO>
F 12

$$$$
=
 OpenBabel11122414413D

 34 37  0  0  1  0  0  0  0  0999 V2000
  161.5530  206.3150  150.2490 C   0  0  2  0  0  3  0  0  0  0  0  0
  163.0090  207.7030  148.9100 O   0  0  0  0  0  0  0  0  0  0  0  0
  160.0820  204.9250  151.7320 C   0  0  0  0  0  2  0  0  0  0  0  0
  162.3320  208.6370  151.0140 C   0  0  2  0  0  3  0  0  0  0  0  0
  161.2730  211.4550  151.1750 C   0  0  0  0  0  2  0  0  0  0  0  0
  161.0410  208.5230  151.8670 C   0  0  1  0  0  3  0  0  0  0  0  0
  162.3650  208.9210  148.6560 C   0  0  0  0  0  2  0  0  0  0  0  0
  161.1650  210.6220  149.9840 N   0  0  0  0  0  0  0  0  0  0  0  0
  161.2290  205.9290  151.6950 C   0  0  2  0  0  3  0  0  0  0  0  0
  160.9090  207.1510  152.5720 C   0  0  1  0  0  3  0  0  0  0  0  0
  160.8060  204.0510  149.4920 C   0  0  0  0  0  2  0  0  0  0  0  0
  160.3550  210.9180  152.2570 C   0  0  0  0  0  2  0  0  0  0  0  0
  160.4570  203.6790  150.9330 C   0  0  0  0  0  2  0  0  0  0  0  0
  160.9370  209.6600  152.8800 C   0  0  0  0  0  2  0  0  0  0  0  0
  162.3300  209.7250  149.9430 C   0  0  1  0  0  3  0  0  0  0  0  0
  161.9490  205.0630  149.4670 C   0  0  0  0  0  2  0  0  0  0  0  0
  162.6770  207.3590  150.2320 C   0  0  1  0  0  3  0  0  0  0  0  0
  161.5020  207.0810  153.8550 O   0  0  0  0  0  0  0  0  0  0  0  0
  160.4940  207.1790  154.8290 C   0  0  0  0  0  2  0  0  0  0  0  0
  160.5400  206.5780  157.1410 O   0  0  0  0  0  1  0  0  0  0  0  0
  161.1120  207.4290  156.1920 C   0  0  2  0  0  3  0  0  0  0  0  0
  160.9190  208.8900  156.5940 C   0  0  1  0  0  3  0  0  0  0  0  0
  161.9700  209.6730  156.1110 O   0  0  0  0  0  1  0  0  0  0  0  0
  159.5970  209.4320  156.0720 C   0  0  0  0  0  2  0  0  0  0  0  0
  159.4020  210.8000  156.5280 N   0  0  0  0  0  2  0  0  0  0  0  0
  159.0180  211.5240  155.4500 O   0  0  0  0  0  0  0  0  0  0  0  0
  159.7070  212.7310  155.5760 C   0  0  0  0  0  1  0  0  0  0  0  0
  161.2520  211.5530  148.8660 C   0  0  0  0  0  2  0  0  0  0  0  0
  160.8440  212.9410  149.3210 C   0  0  0  0  0  2  0  0  0  0  0  0
  159.9610  213.6050  148.2730 C   0  0  1  0  0  3  0  0  0  0  0  0
  160.4770  213.7830  145.9220 O   0  0  0  0  0  1  0  0  0  0  0  0
  160.0490  212.9060  146.9200 C   0  0  0  0  0  2  0  0  0  0  0  0
  158.2290  213.8460  148.8240 S   0  0  0  0  0  0  0  0  0  0  0  0
  157.4530  212.8670  147.5000 C   0  0  0  0  0  1  0  0  0  0  0  0
  1 16  1  6  0  0  0
  1  9  1  0  0  0  0
  2 17  1  0  0  0  0
  4  6  1  0  0  0  0
  5 12  1  0  0  0  0
  6 10  1  0  0  0  0
  6 14  1  0  0  0  0
  7  2  1  0  0  0  0
  7 15  1  0  0  0  0
  8  5  1  0  0  0  0
  9  3  1  0  0  0  0
  9 10  1  0  0  0  0
 10 18  1  0  0  0  0
 11 13  1  0  0  0  0
 12 14  1  0  0  0  0
 13  3  1  0  0  0  0
 15  8  1  0  0  0  0
 15  4  1  0  0  0  0
 16 11  1  0  0  0  0
 17  1  1  0  0  0  0
 17  4  1  0  0  0  0
 18 19  1  0  0  0  0
 19 21  1  0  0  0  0
 21 22  1  0  0  0  0
 21 20  1  0  0  0  0
 23 22  1  0  0  0  0
 24 25  1  0  0  0  0
 24 22  1  0  0  0  0
 26 27  1  0  0  0  0
 26 25  1  0  0  0  0
 28 29  1  0  0  0  0
 28  8  1  0  0  0  0
 30 33  1  0  0  0  0
 30 29  1  0  0  0  0
 31 32  1  0  0  0  0
 32 30  1  0  0  0  0
 34 33  1  0  0  0  0
M  END
>  <MODEL>
9

>  <REMARK>
 VINA RESULT:      -4.5      3.567      8.081
  Name = 
  12 active torsions:
  status: ('A' for Active; 'I' for Inactive)
    1  A    between atoms: C_3  and  C_16
    2  A    between atoms: C_3  and  C_19
    3  A    between atoms: C_5  and  O_11
    4  A    between atoms: C_5  and  C_19
    5  A    between atoms: N_8  and  O_12
    6  A    between atoms: N_8  and  C_16
    7  A    between atoms: O_11  and  C_20
    8  A    between atoms: N_17  and  C_28
    9  A    between atoms: C_28  and  C_29
   10  A    between atoms: C_29  and  C_32
   11  A    between atoms: S_31  and  C_32
   12  A    between atoms: C_32  and  C_34
                            x       y       z     vdW  Elec       q    Type
                         _______ _______ _______ _____ _____    ______ ____

>  <TORSDO>
F 12

$$$$
