=
 OpenBabel11122413373D

 37 42  0  0  1  0  0  0  0  0999 V2000
  158.9370  212.2200  155.9610 C   0  0  0  0  0  0  0  0  0  0  0  0
  157.8360  213.0490  152.0160 C   0  0  0  0  0  0  0  0  0  0  0  0
  160.2300  214.4450  150.6480 C   0  0  0  0  0  1  0  0  0  0  0  0
  157.4080  213.4620  154.3320 C   0  0  0  0  0  0  0  0  0  0  0  0
  158.8620  212.3620  151.1740 C   0  0  1  0  0  3  0  0  0  0  0  0
  158.1300  212.8570  153.3220 C   0  0  0  0  0  0  0  0  0  0  0  0
  159.4480  213.2690  150.0780 C   0  0  1  0  0  3  0  0  0  0  0  0
  156.3500  214.2540  153.9870 N   0  0  0  0  0  0  0  0  0  0  0  0
  159.3010  212.1140  153.5240 N   0  0  0  0  0  0  0  0  0  0  0  0
  158.2020  210.8960  156.0830 C   0  0  0  0  0  1  0  0  0  0  0  0
  156.4800  214.1860  150.2010 C   0  0  0  0  0  2  0  0  0  0  0  0
  156.0070  214.4530  152.6730 C   0  0  0  0  0  3  0  0  0  0  0  0
  159.9740  212.1300  154.8180 C   0  0  0  0  0  2  0  0  0  0  0  0
  156.7500  213.8470  151.6390 C   0  0  0  0  0  0  0  0  0  0  0  0
  159.9160  211.8820  152.2140 C   0  0  1  0  0  3  0  0  0  0  0  0
  157.9100  213.3630  155.7490 C   0  0  0  0  0  2  0  0  0  0  0  0
  158.3890  213.7900  149.0850 C   0  0  2  0  0  3  0  0  0  0  0  0
  159.6730  212.4730  157.2590 C   0  0  0  0  0  1  0  0  0  0  0  0
  157.1030  213.2740  149.3340 O   0  0  0  0  0  0  0  0  0  0  0  0
  161.0220  210.0270  150.9980 C   0  0  0  0  0  3  0  0  0  0  0  0
  161.3580  208.5750  150.8080 C   0  0  2  0  0  3  0  0  0  0  0  0
  162.1600  208.6340  153.3000 C   0  0  2  0  0  3  0  0  0  0  0  0
  162.2720  208.0010  151.9040 C   0  0  0  0  0  2  0  0  0  0  0  0
  160.7310  208.7480  153.8700 C   0  0  1  0  0  3  0  0  0  0  0  0
  160.7610  209.3660  155.1210 O   0  0  0  0  0  1  0  0  0  0  0  0
  159.6760  209.4280  152.9800 C   0  0  0  0  0  2  0  0  0  0  0  0
  162.8310  209.8590  153.3440 O   0  0  0  0  0  1  0  0  0  0  0  0
  160.2390  210.4310  152.0130 C   0  0  0  0  0  0  0  0  0  0  0  0
  162.1570  209.6050  149.1030 O   0  0  0  0  0  1  0  0  0  0  0  0
  161.9510  208.3880  149.5600 O   0  0  0  0  0  0  0  0  0  0  0  0
  157.9770  212.7490  146.8280 C   0  0  0  0  0  3  0  0  0  0  0  0
  158.8030  213.4970  147.6800 C   0  0  0  0  0  0  0  0  0  0  0  0
  160.0400  213.9580  147.2170 C   0  0  0  0  0  3  0  0  0  0  0  0
  161.6470  214.1280  145.4640 F   0  0  0  0  0  0  0  0  0  0  0  0
  159.6220  212.9350  145.0620 C   0  0  0  0  0  3  0  0  0  0  0  0
  160.4490  213.6790  145.9100 C   0  0  0  0  0  0  0  0  0  0  0  0
  158.3870  212.4690  145.5210 C   0  0  0  0  0  3  0  0  0  0  0  0
  1 10  1  0  0  0  0
  1 18  1  0  0  0  0
  2  6  1  0  0  0  0
  4 16  1  0  0  0  0
  5  2  1  1  0  0  0
  5 15  1  0  0  0  0
  6  9  1  0  0  0  0
  6  4  2  0  0  0  0
  7  3  1  1  0  0  0
  7  5  1  0  0  0  0
  8  4  1  0  0  0  0
  9 13  1  0  0  0  0
 11 14  1  0  0  0  0
 12  8  2  0  0  0  0
 13  1  1  0  0  0  0
 14  2  2  0  0  0  0
 14 12  1  0  0  0  0
 15 28  1  6  0  0  0
 15  9  1  0  0  0  0
 16  1  1  0  0  0  0
 17 32  1  6  0  0  0
 17 19  1  0  0  0  0
 17  7  1  0  0  0  0
 19 11  1  0  0  0  0
 20 28  2  0  0  0  0
 21 30  1  6  0  0  0
 21 20  1  0  0  0  0
 21 23  1  0  0  0  0
 22 27  1  6  0  0  0
 22 24  1  0  0  0  0
 23 22  1  0  0  0  0
 24 25  1  1  0  0  0
 26 24  1  0  0  0  0
 28 26  1  0  0  0  0
 29 30  1  0  0  0  0
 31 32  1  0  0  0  0
 33 32  2  0  0  0  0
 34 36  1  0  0  0  0
 35 37  1  0  0  0  0
 35 36  2  0  0  0  0
 36 33  1  0  0  0  0
 37 31  2  0  0  0  0
M  END
>  <MODEL>
1

>  <REMARK>
 VINA RESULT:      -3.8      0.000      0.000
  Name = 
  3 active torsions:
  status: ('A' for Active; 'I' for Inactive)
    1  A    between atoms: C_4  and  O_37
    2  A    between atoms: C_21  and  C_27
    3  A    between atoms: C_23  and  C_30
                            x       y       z     vdW  Elec       q    Type
                         _______ _______ _______ _____ _____    ______ ____

>  <TORSDO>
F 3

$$$$
=
 OpenBabel11122413373D

 37 42  0  0  1  0  0  0  0  0999 V2000
  160.4280  207.6320  156.0920 C   0  0  0  0  0  0  0  0  0  0  0  0
  160.1660  210.5270  153.0910 C   0  0  0  0  0  0  0  0  0  0  0  0
  163.0130  210.9820  151.9760 C   0  0  0  0  0  1  0  0  0  0  0  0
  159.8850  210.0350  155.4140 C   0  0  0  0  0  0  0  0  0  0  0  0
  160.7240  209.8710  151.8680 C   0  0  1  0  0  3  0  0  0  0  0  0
  160.2370  209.6650  154.1300 C   0  0  0  0  0  0  0  0  0  0  0  0
  161.7650  210.7390  151.1400 C   0  0  1  0  0  3  0  0  0  0  0  0
  159.4260  211.3040  155.6190 N   0  0  0  0  0  0  0  0  0  0  0  0
  160.8250  208.4380  153.7950 N   0  0  0  0  0  0  0  0  0  0  0  0
  159.0990  206.9510  155.8080 C   0  0  0  0  0  1  0  0  0  0  0  0
  159.7260  212.8480  152.1710 C   0  0  0  0  0  2  0  0  0  0  0  0
  159.3180  212.2000  154.5830 C   0  0  0  0  0  3  0  0  0  0  0  0
  161.3280  207.5490  154.8370 C   0  0  0  0  0  2  0  0  0  0  0  0
  159.6890  211.8300  153.2750 C   0  0  0  0  0  0  0  0  0  0  0  0
  161.3020  208.5320  152.4130 C   0  0  1  0  0  3  0  0  0  0  0  0
  160.1730  209.0910  156.5510 C   0  0  0  0  0  2  0  0  0  0  0  0
  161.2000  212.0910  150.6550 C   0  0  2  0  0  3  0  0  0  0  0  0
  161.1080  206.8860  157.2200 C   0  0  0  0  0  1  0  0  0  0  0  0
  159.8240  212.2340  150.9110 O   0  0  0  0  0  0  0  0  0  0  0  0
  161.0380  207.3240  150.2650 C   0  0  0  0  0  3  0  0  0  0  0  0
  160.5720  206.1540  149.4460 C   0  0  2  0  0  3  0  0  0  0  0  0
  161.8810  204.6760  151.1660 C   0  0  2  0  0  3  0  0  0  0  0  0
  161.3290  204.8480  149.7420 C   0  0  0  0  0  2  0  0  0  0  0  0
  160.8740  204.9220  152.3080 C   0  0  1  0  0  3  0  0  0  0  0  0
  161.5030  204.7670  153.5430 O   0  0  0  0  0  1  0  0  0  0  0  0
  160.1000  206.2510  152.2820 C   0  0  0  0  0  2  0  0  0  0  0  0
  163.0490  205.4240  151.3390 O   0  0  0  0  0  1  0  0  0  0  0  0
  160.8230  207.3730  151.5900 C   0  0  0  0  0  0  0  0  0  0  0  0
  161.9570  206.6850  147.8950 O   0  0  0  0  0  1  0  0  0  0  0  0
  160.6750  206.4570  148.0890 O   0  0  0  0  0  0  0  0  0  0  0  0
  162.7770  212.1200  148.6910 C   0  0  0  0  0  3  0  0  0  0  0  0
  161.4800  212.2810  149.2010 C   0  0  0  0  0  0  0  0  0  0  0  0
  160.4380  212.6440  148.3410 C   0  0  0  0  0  3  0  0  0  0  0  0
  159.6760  213.1920  146.1490 F   0  0  0  0  0  0  0  0  0  0  0  0
  161.9810  212.6770  146.4740 C   0  0  0  0  0  3  0  0  0  0  0  0
  160.6870  212.8410  146.9790 C   0  0  0  0  0  0  0  0  0  0  0  0
  163.0260  212.3180  147.3290 C   0  0  0  0  0  3  0  0  0  0  0  0
  1 16  1  0  0  0  0
  1 18  1  0  0  0  0
  2 14  2  0  0  0  0
  2  6  1  0  0  0  0
  4  8  1  0  0  0  0
  4 16  1  0  0  0  0
  5 15  1  0  0  0  0
  5  2  1  1  0  0  0
  6  4  2  0  0  0  0
  7  5  1  0  0  0  0
  7  3  1  1  0  0  0
  9  6  1  0  0  0  0
  9 13  1  0  0  0  0
 10  1  1  0  0  0  0
 11 14  1  0  0  0  0
 12  8  2  0  0  0  0
 13  1  1  0  0  0  0
 14 12  1  0  0  0  0
 15 28  1  6  0  0  0
 15  9  1  0  0  0  0
 17 32  1  6  0  0  0
 17 19  1  0  0  0  0
 17  7  1  0  0  0  0
 19 11  1  0  0  0  0
 20 28  2  0  0  0  0
 21 30  1  6  0  0  0
 21 23  1  0  0  0  0
 21 20  1  0  0  0  0
 22 27  1  1  0  0  0
 22 24  1  0  0  0  0
 23 22  1  0  0  0  0
 24 25  1  1  0  0  0
 26 24  1  0  0  0  0
 28 26  1  0  0  0  0
 29 30  1  0  0  0  0
 31 32  1  0  0  0  0
 33 32  2  0  0  0  0
 34 36  1  0  0  0  0
 35 36  2  0  0  0  0
 35 37  1  0  0  0  0
 36 33  1  0  0  0  0
 37 31  2  0  0  0  0
M  END
>  <MODEL>
2

>  <REMARK>
 VINA RESULT:      -3.2      2.585      3.935
  Name = 
  3 active torsions:
  status: ('A' for Active; 'I' for Inactive)
    1  A    between atoms: C_4  and  O_37
    2  A    between atoms: C_21  and  C_27
    3  A    between atoms: C_23  and  C_30
                            x       y       z     vdW  Elec       q    Type
                         _______ _______ _______ _____ _____    ______ ____

>  <TORSDO>
F 3

$$$$
=
 OpenBabel11122413373D

 37 42  0  0  1  0  0  0  0  0999 V2000
  161.8940  213.3470  147.7530 C   0  0  0  0  0  0  0  0  0  0  0  0
  161.2400  210.1970  150.4180 C   0  0  0  0  0  0  0  0  0  0  0  0
  162.8990  210.7630  152.9640 C   0  0  0  0  0  1  0  0  0  0  0  0
  162.1040  210.8580  148.2890 C   0  0  0  0  0  0  0  0  0  0  0  0
  160.7130  210.8410  151.6600 C   0  0  1  0  0  3  0  0  0  0  0  0
  161.5100  211.1520  149.5000 C   0  0  0  0  0  0  0  0  0  0  0  0
  161.4300  210.3670  152.9370 C   0  0  1  0  0  3  0  0  0  0  0  0
  162.3970  209.5530  148.0120 N   0  0  0  0  0  0  0  0  0  0  0  0
  161.2570  212.4520  149.9610 N   0  0  0  0  0  0  0  0  0  0  0  0
  160.4900  213.3940  147.1750 C   0  0  0  0  0  1  0  0  0  0  0  0
  161.3600  207.7880  151.2010 C   0  0  0  0  0  2  0  0  0  0  0  0
  162.1170  208.5530  148.9100 C   0  0  0  0  0  3  0  0  0  0  0  0
  161.8330  213.6050  149.2760 C   0  0  0  0  0  2  0  0  0  0  0  0
  161.5220  208.8520  150.1530 C   0  0  0  0  0  0  0  0  0  0  0  0
  160.8890  212.3620  151.3760 C   0  0  1  0  0  3  0  0  0  0  0  0
  162.5530  211.9880  147.4010 C   0  0  0  0  0  2  0  0  0  0  0  0
  161.3020  208.8490  153.1800 C   0  0  2  0  0  3  0  0  0  0  0  0
  162.7050  214.4530  147.1120 C   0  0  0  0  0  1  0  0  0  0  0  0
  160.4930  208.2060  152.2240 O   0  0  0  0  0  0  0  0  0  0  0  0
  158.5180  212.9120  150.9070 C   0  0  0  0  0  3  0  0  0  0  0  0
  157.2400  213.6450  151.2010 C   0  0  2  0  0  3  0  0  0  0  0  0
  157.4950  212.7200  153.6370 C   0  0  2  0  0  3  0  0  0  0  0  0
  156.5680  213.2200  152.5170 C   0  0  0  0  0  2  0  0  0  0  0  0
  158.6880  213.6370  153.9760 C   0  0  1  0  0  3  0  0  0  0  0  0
  159.4660  213.0590  154.9790 O   0  0  0  0  0  1  0  0  0  0  0  0
  159.5880  214.0730  152.8070 C   0  0  0  0  0  2  0  0  0  0  0  0
  157.9060  211.4070  153.3910 O   0  0  0  0  0  1  0  0  0  0  0  0
  159.6160  213.1060  151.6570 C   0  0  0  0  0  0  0  0  0  0  0  0
  157.0990  213.1170  149.1250 O   0  0  0  0  0  1  0  0  0  0  0  0
  156.3460  213.4760  150.1440 O   0  0  0  0  0  0  0  0  0  0  0  0
  160.8840  207.3060  155.1270 C   0  0  0  0  0  3  0  0  0  0  0  0
  160.7890  208.5840  154.5570 C   0  0  0  0  0  0  0  0  0  0  0  0
  160.1880  209.6210  155.2790 C   0  0  0  0  0  3  0  0  0  0  0  0
  159.1080  210.3910  157.2610 F   0  0  0  0  0  0  0  0  0  0  0  0
  159.7870  208.1100  157.1290 C   0  0  0  0  0  3  0  0  0  0  0  0
  159.6880  209.3850  156.5640 C   0  0  0  0  0  0  0  0  0  0  0  0
  160.3830  207.0700  156.4110 C   0  0  0  0  0  3  0  0  0  0  0  0
  1 13  1  0  0  0  0
  4  6  1  0  0  0  0
  5  2  1  6  0  0  0
  5  7  1  0  0  0  0
  6  9  1  0  0  0  0
  6  2  2  0  0  0  0
  7  3  1  6  0  0  0
  7 17  1  0  0  0  0
  8  4  2  0  0  0  0
  8 12  1  0  0  0  0
  9 15  1  0  0  0  0
 10  1  1  0  0  0  0
 11 19  1  0  0  0  0
 12 14  2  0  0  0  0
 13  9  1  0  0  0  0
 14  2  1  0  0  0  0
 14 11  1  0  0  0  0
 15 28  1  6  0  0  0
 15  5  1  0  0  0  0
 16  1  1  0  0  0  0
 16  4  1  0  0  0  0
 17 32  1  1  0  0  0
 18  1  1  0  0  0  0
 19 17  1  0  0  0  0
 20 21  1  0  0  0  0
 20 28  2  0  0  0  0
 21 30  1  6  0  0  0
 21 23  1  0  0  0  0
 22 27  1  6  0  0  0
 22 24  1  0  0  0  0
 23 22  1  0  0  0  0
 24 25  1  1  0  0  0
 26 24  1  0  0  0  0
 28 26  1  0  0  0  0
 29 30  1  0  0  0  0
 31 37  1  0  0  0  0
 32 31  2  0  0  0  0
 32 33  1  0  0  0  0
 33 36  2  0  0  0  0
 36 35  1  0  0  0  0
 36 34  1  0  0  0  0
 37 35  2  0  0  0  0
M  END
>  <MODEL>
3

>  <REMARK>
 VINA RESULT:      -2.6      3.127      7.751
  Name = 
  3 active torsions:
  status: ('A' for Active; 'I' for Inactive)
    1  A    between atoms: C_4  and  O_37
    2  A    between atoms: C_21  and  C_27
    3  A    between atoms: C_23  and  C_30
                            x       y       z     vdW  Elec       q    Type
                         _______ _______ _______ _____ _____    ______ ____

>  <TORSDO>
F 3

$$$$
=
 OpenBabel11122413373D

 37 42  0  0  1  0  0  0  0  0999 V2000
  161.2130  210.2730  153.6180 C   0  0  0  0  0  0  0  0  0  0  0  0
  160.6000  212.1900  149.9570 C   0  0  0  0  0  0  0  0  0  0  0  0
  163.3650  212.5890  148.6330 C   0  0  0  0  0  1  0  0  0  0  0  0
  160.4120  212.3330  152.3360 C   0  0  0  0  0  0  0  0  0  0  0  0
  161.2020  211.2790  148.9350 C   0  0  1  0  0  3  0  0  0  0  0  0
  160.7780  211.6600  151.1870 C   0  0  0  0  0  0  0  0  0  0  0  0
  162.1340  212.0080  147.9520 C   0  0  1  0  0  3  0  0  0  0  0  0
  159.8270  213.5610  152.2080 N   0  0  0  0  0  0  0  0  0  0  0  0
  161.4850  210.4490  151.1730 N   0  0  0  0  0  0  0  0  0  0  0  0
  159.9570  209.4180  153.5910 C   0  0  0  0  0  1  0  0  0  0  0  0
  159.9060  214.1150  148.4600 C   0  0  0  0  0  2  0  0  0  0  0  0
  159.6090  214.1220  150.9730 C   0  0  0  0  0  3  0  0  0  0  0  0
  162.0940  209.9340  152.3950 C   0  0  0  0  0  2  0  0  0  0  0  0
  159.9940  213.4420  149.8000 C   0  0  0  0  0  0  0  0  0  0  0  0
  161.9250  210.2030  149.7980 C   0  0  1  0  0  3  0  0  0  0  0  0
  160.8160  211.7720  153.6740 C   0  0  0  0  0  2  0  0  0  0  0  0
  161.4240  213.1130  147.1430 C   0  0  2  0  0  3  0  0  0  0  0  0
  161.9860  209.9360  154.8760 C   0  0  0  0  0  1  0  0  0  0  0  0
  160.0450  213.1900  147.4120 O   0  0  0  0  0  0  0  0  0  0  0  0
  162.1460  208.2580  148.2790 C   0  0  0  0  0  3  0  0  0  0  0  0
  161.7860  206.8670  147.8380 C   0  0  2  0  0  3  0  0  0  0  0  0
  162.3000  206.1580  150.3050 C   0  0  2  0  0  3  0  0  0  0  0  0
  162.2280  205.7690  148.8200 C   0  0  0  0  0  2  0  0  0  0  0  0
  161.0430  206.8440  150.8780 C   0  0  1  0  0  3  0  0  0  0  0  0
  161.2470  207.1750  152.2190 O   0  0  0  0  0  1  0  0  0  0  0  0
  160.5070  208.0690  150.1170 C   0  0  0  0  0  2  0  0  0  0  0  0
  163.4570  206.8980  150.5690 O   0  0  0  0  0  1  0  0  0  0  0  0
  161.5540  208.8220  149.3450 C   0  0  0  0  0  0  0  0  0  0  0  0
  162.7730  205.3780  146.6490 O   0  0  0  0  0  1  0  0  0  0  0  0
  162.3310  206.6160  146.5800 O   0  0  0  0  0  0  0  0  0  0  0  0
  162.8830  213.2740  145.0950 C   0  0  0  0  0  3  0  0  0  0  0  0
  161.6580  212.9200  145.6810 C   0  0  0  0  0  0  0  0  0  0  0  0
  160.6340  212.3990  144.8830 C   0  0  0  0  0  3  0  0  0  0  0  0
  159.8390  211.7200  142.7400 F   0  0  0  0  0  0  0  0  0  0  0  0
  162.0550  212.5780  142.9300 C   0  0  0  0  0  3  0  0  0  0  0  0
  160.8320  212.2270  143.5090 C   0  0  0  0  0  0  0  0  0  0  0  0
  163.0800  213.1030  143.7220 C   0  0  0  0  0  3  0  0  0  0  0  0
  1 16  1  0  0  0  0
  1 18  1  0  0  0  0
  2  6  1  0  0  0  0
  4 16  1  0  0  0  0
  5 15  1  0  0  0  0
  5  2  1  1  0  0  0
  6  4  2  0  0  0  0
  7  3  1  1  0  0  0
  7  5  1  0  0  0  0
  8  4  1  0  0  0  0
  9  6  1  0  0  0  0
  9 13  1  0  0  0  0
 10  1  1  0  0  0  0
 11 14  1  0  0  0  0
 12  8  2  0  0  0  0
 13  1  1  0  0  0  0
 14  2  2  0  0  0  0
 14 12  1  0  0  0  0
 15 28  1  6  0  0  0
 15  9  1  0  0  0  0
 17 32  1  6  0  0  0
 17 19  1  0  0  0  0
 17  7  1  0  0  0  0
 19 11  1  0  0  0  0
 20 28  2  0  0  0  0
 21 30  1  6  0  0  0
 21 20  1  0  0  0  0
 21 23  1  0  0  0  0
 22 27  1  6  0  0  0
 22 24  1  0  0  0  0
 23 22  1  0  0  0  0
 24 25  1  1  0  0  0
 26 24  1  0  0  0  0
 28 26  1  0  0  0  0
 30 29  1  0  0  0  0
 31 32  1  0  0  0  0
 33 32  2  0  0  0  0
 34 36  1  0  0  0  0
 35 36  2  0  0  0  0
 35 37  1  0  0  0  0
 36 33  1  0  0  0  0
 37 31  2  0  0  0  0
M  END
>  <MODEL>
4

>  <REMARK>
 VINA RESULT:      -2.5      2.582      3.792
  Name = 
  3 active torsions:
  status: ('A' for Active; 'I' for Inactive)
    1  A    between atoms: C_4  and  O_37
    2  A    between atoms: C_21  and  C_27
    3  A    between atoms: C_23  and  C_30
                            x       y       z     vdW  Elec       q    Type
                         _______ _______ _______ _____ _____    ______ ____

>  <TORSDO>
F 3

$$$$
=
 OpenBabel11122413373D

 37 42  0  0  1  0  0  0  0  0999 V2000
  161.3340  209.6650  155.2450 C   0  0  0  0  0  0  0  0  0  0  0  0
  160.2090  211.7650  151.8130 C   0  0  0  0  0  0  0  0  0  0  0  0
  162.7640  212.2930  150.1560 C   0  0  0  0  0  1  0  0  0  0  0  0
  160.3410  211.7750  154.2010 C   0  0  0  0  0  0  0  0  0  0  0  0
  160.6790  210.9240  150.6700 C   0  0  1  0  0  3  0  0  0  0  0  0
  160.5580  211.1720  152.9770 C   0  0  0  0  0  0  0  0  0  0  0  0
  161.4610  211.7240  149.6140 C   0  0  1  0  0  3  0  0  0  0  0  0
  159.7280  212.9950  154.2210 N   0  0  0  0  0  0  0  0  0  0  0  0
  161.2720  209.9790  152.7990 N   0  0  0  0  0  0  0  0  0  0  0  0
  160.0980  208.7860  155.3370 C   0  0  0  0  0  1  0  0  0  0  0  0
  159.2940  213.7540  150.5340 C   0  0  0  0  0  2  0  0  0  0  0  0
  159.3390  213.6180  153.0610 C   0  0  0  0  0  3  0  0  0  0  0  0
  162.0470  209.4100  153.8970 C   0  0  0  0  0  2  0  0  0  0  0  0
  159.5710  213.0110  151.8100 C   0  0  0  0  0  0  0  0  0  0  0  0
  161.5260  209.8180  151.3650 C   0  0  1  0  0  3  0  0  0  0  0  0
  160.9290  211.1490  155.4380 C   0  0  0  0  0  2  0  0  0  0  0  0
  160.6340  212.8570  148.9720 C   0  0  2  0  0  3  0  0  0  0  0  0
  162.2740  209.2750  156.3660 C   0  0  0  0  0  1  0  0  0  0  0  0
  159.3030  212.8910  149.4260 O   0  0  0  0  0  0  0  0  0  0  0  0
  161.3390  208.0660  149.6220 C   0  0  0  0  0  3  0  0  0  0  0  0
  160.9430  206.6950  149.1520 C   0  0  2  0  0  3  0  0  0  0  0  0
  162.3260  205.8070  151.1900 C   0  0  2  0  0  3  0  0  0  0  0  0
  161.7700  205.5600  149.7780 C   0  0  0  0  0  2  0  0  0  0  0  0
  161.3010  206.2930  152.2350 C   0  0  1  0  0  3  0  0  0  0  0  0
  161.9330  206.5100  153.4600 O   0  0  0  0  0  1  0  0  0  0  0  0
  160.4540  207.5220  151.8630 C   0  0  0  0  0  2  0  0  0  0  0  0
  163.4490  206.6370  151.1430 O   0  0  0  0  0  1  0  0  0  0  0  0
  161.1160  208.4560  150.8890 C   0  0  0  0  0  0  0  0  0  0  0  0
  162.3170  206.7810  147.5050 O   0  0  0  0  0  1  0  0  0  0  0  0
  161.0350  206.6290  147.7620 O   0  0  0  0  0  0  0  0  0  0  0  0
  159.5420  212.3310  146.7630 C   0  0  0  0  0  3  0  0  0  0  0  0
  160.6710  212.7490  147.4820 C   0  0  0  0  0  0  0  0  0  0  0  0
  161.8550  213.0500  146.8000 C   0  0  0  0  0  3  0  0  0  0  0  0
  163.0580  213.2320  144.7490 F   0  0  0  0  0  0  0  0  0  0  0  0
  160.7820  212.5240  144.6930 C   0  0  0  0  0  3  0  0  0  0  0  0
  161.9110  212.9390  145.4070 C   0  0  0  0  0  0  0  0  0  0  0  0
  159.5980  212.2190  145.3710 C   0  0  0  0  0  3  0  0  0  0  0  0
  1 10  1  0  0  0  0
  1 16  1  0  0  0  0
  1 18  1  0  0  0  0
  2  6  1  0  0  0  0
  4  8  1  0  0  0  0
  4 16  1  0  0  0  0
  5 15  1  0  0  0  0
  5  2  1  1  0  0  0
  6  4  2  0  0  0  0
  7  3  1  1  0  0  0
  7  5  1  0  0  0  0
  9  6  1  0  0  0  0
  9 13  1  0  0  0  0
 11 14  1  0  0  0  0
 12  8  2  0  0  0  0
 13  1  1  0  0  0  0
 14  2  2  0  0  0  0
 14 12  1  0  0  0  0
 15 28  1  6  0  0  0
 15  9  1  0  0  0  0
 17 32  1  6  0  0  0
 17 19  1  0  0  0  0
 17  7  1  0  0  0  0
 19 11  1  0  0  0  0
 20 28  2  0  0  0  0
 21 30  1  6  0  0  0
 21 20  1  0  0  0  0
 21 23  1  0  0  0  0
 22 27  1  6  0  0  0
 22 24  1  0  0  0  0
 23 22  1  0  0  0  0
 24 25  1  1  0  0  0
 26 24  1  0  0  0  0
 28 26  1  0  0  0  0
 29 30  1  0  0  0  0
 31 32  1  0  0  0  0
 33 32  2  0  0  0  0
 34 36  1  0  0  0  0
 35 37  1  0  0  0  0
 35 36  2  0  0  0  0
 36 33  1  0  0  0  0
 37 31  2  0  0  0  0
M  END
>  <MODEL>
5

>  <REMARK>
 VINA RESULT:      -2.0      2.100      2.887
  Name = 
  3 active torsions:
  status: ('A' for Active; 'I' for Inactive)
    1  A    between atoms: C_4  and  O_37
    2  A    between atoms: C_21  and  C_27
    3  A    between atoms: C_23  and  C_30
                            x       y       z     vdW  Elec       q    Type
                         _______ _______ _______ _____ _____    ______ ____

>  <TORSDO>
F 3

$$$$
=
 OpenBabel11122413373D

 37 42  0  0  1  0  0  0  0  0999 V2000
  161.8450  206.7650  152.7810 C   0  0  0  0  0  0  0  0  0  0  0  0
  160.9960  210.1470  150.4790 C   0  0  0  0  0  0  0  0  0  0  0  0
  163.5050  210.7850  148.7900 C   0  0  0  0  0  1  0  0  0  0  0  0
  161.2650  209.2520  152.6800 C   0  0  0  0  0  0  0  0  0  0  0  0
  161.2090  209.7170  149.0630 C   0  0  1  0  0  3  0  0  0  0  0  0
  161.2770  209.1150  151.3060 C   0  0  0  0  0  0  0  0  0  0  0  0
  162.0810  210.6980  148.2600 C   0  0  1  0  0  3  0  0  0  0  0  0
  160.9290  210.4660  153.2060 N   0  0  0  0  0  0  0  0  0  0  0  0
  161.7090  207.9640  150.6300 N   0  0  0  0  0  0  0  0  0  0  0  0
  160.4570  206.1490  152.7230 C   0  0  0  0  0  1  0  0  0  0  0  0
  160.4530  212.5950  150.1080 C   0  0  0  0  0  2  0  0  0  0  0  0
  160.6150  211.5320  152.3990 C   0  0  0  0  0  3  0  0  0  0  0  0
  162.4080  206.9030  151.3480 C   0  0  0  0  0  2  0  0  0  0  0  0
  160.6390  211.3980  150.9960 C   0  0  0  0  0  0  0  0  0  0  0  0
  161.8390  208.3010  149.2100 C   0  0  1  0  0  3  0  0  0  0  0  0
  161.7770  208.1200  153.5320 C   0  0  0  0  0  2  0  0  0  0  0  0
  161.4790  212.1150  148.1680 C   0  0  2  0  0  3  0  0  0  0  0  0
  162.7430  205.8300  153.5620 C   0  0  0  0  0  1  0  0  0  0  0  0
  160.2140  212.2140  148.7770 O   0  0  0  0  0  0  0  0  0  0  0  0
  161.2080  207.3600  147.0070 C   0  0  0  0  0  3  0  0  0  0  0  0
  160.5020  206.3530  146.1440 C   0  0  2  0  0  3  0  0  0  0  0  0
  161.7250  204.5440  147.5880 C   0  0  2  0  0  3  0  0  0  0  0  0
  161.0790  204.9310  146.2480 C   0  0  0  0  0  2  0  0  0  0  0  0
  160.8720  204.8140  148.8440 C   0  0  1  0  0  3  0  0  0  0  0  0
  161.5790  204.4520  149.9910 O   0  0  0  0  0  1  0  0  0  0  0  0
  160.3040  206.2340  149.0110 C   0  0  0  0  0  2  0  0  0  0  0  0
  163.0020  205.1010  147.7030 O   0  0  0  0  0  1  0  0  0  0  0  0
  161.1210  207.3070  148.3460 C   0  0  0  0  0  0  0  0  0  0  0  0
  161.1640  205.8120  144.1750 O   0  0  0  0  0  1  0  0  0  0  0  0
  160.5270  206.7710  144.8140 O   0  0  0  0  0  0  0  0  0  0  0  0
  162.4630  213.2700  146.1570 C   0  0  0  0  0  3  0  0  0  0  0  0
  161.4060  212.5590  146.7440 C   0  0  0  0  0  0  0  0  0  0  0  0
  160.2590  212.2780  145.9940 C   0  0  0  0  0  3  0  0  0  0  0  0
  159.0570  212.4270  143.9400 F   0  0  0  0  0  0  0  0  0  0  0  0
  161.2250  213.4070  144.0820 C   0  0  0  0  0  3  0  0  0  0  0  0
  160.1680  212.7010  144.6640 C   0  0  0  0  0  0  0  0  0  0  0  0
  162.3710  213.6930  144.8280 C   0  0  0  0  0  3  0  0  0  0  0  0
  1 16  1  0  0  0  0
  1 18  1  0  0  0  0
  2 14  2  0  0  0  0
  2  6  1  0  0  0  0
  4  8  1  0  0  0  0
  4 16  1  0  0  0  0
  5 15  1  0  0  0  0
  5  2  1  1  0  0  0
  6  4  2  0  0  0  0
  7  3  1  1  0  0  0
  7  5  1  0  0  0  0
  9  6  1  0  0  0  0
  9 13  1  0  0  0  0
 10  1  1  0  0  0  0
 11 14  1  0  0  0  0
 12  8  2  0  0  0  0
 13  1  1  0  0  0  0
 14 12  1  0  0  0  0
 15 28  1  6  0  0  0
 15  9  1  0  0  0  0
 17 32  1  6  0  0  0
 17  7  1  0  0  0  0
 17 19  1  0  0  0  0
 19 11  1  0  0  0  0
 20 28  2  0  0  0  0
 21 30  1  6  0  0  0
 21 23  1  0  0  0  0
 21 20  1  0  0  0  0
 22 27  1  1  0  0  0
 22 24  1  0  0  0  0
 23 22  1  0  0  0  0
 24 26  1  0  0  0  0
 24 25  1  1  0  0  0
 28 26  1  0  0  0  0
 29 30  1  0  0  0  0
 31 32  1  0  0  0  0
 33 32  2  0  0  0  0
 34 36  1  0  0  0  0
 35 36  2  0  0  0  0
 35 37  1  0  0  0  0
 36 33  1  0  0  0  0
 37 31  2  0  0  0  0
M  END
>  <MODEL>
6

>  <REMARK>
 VINA RESULT:      -1.3      3.338      5.342
  Name = 
  3 active torsions:
  status: ('A' for Active; 'I' for Inactive)
    1  A    between atoms: C_4  and  O_37
    2  A    between atoms: C_21  and  C_27
    3  A    between atoms: C_23  and  C_30
                            x       y       z     vdW  Elec       q    Type
                         _______ _______ _______ _____ _____    ______ ____

>  <TORSDO>
F 3

$$$$
=
 OpenBabel11122413373D

 37 42  0  0  1  0  0  0  0  0999 V2000
  162.1920  207.6060  149.3430 C   0  0  0  0  0  0  0  0  0  0  0  0
  160.5410  208.9400  152.9420 C   0  0  0  0  0  0  0  0  0  0  0  0
  162.4860  211.0150  154.1530 C   0  0  0  0  0  1  0  0  0  0  0  0
  161.4240  207.0820  151.7240 C   0  0  0  0  0  0  0  0  0  0  0  0
  160.4200  210.4230  152.7880 C   0  0  1  0  0  3  0  0  0  0  0  0
  161.0980  208.4200  151.8250 C   0  0  0  0  0  0  0  0  0  0  0  0
  160.9850  211.2020  153.9880 C   0  0  1  0  0  3  0  0  0  0  0  0
  161.1440  206.2650  152.7820 N   0  0  0  0  0  0  0  0  0  0  0  0
  161.4280  209.3880  150.8670 N   0  0  0  0  0  0  0  0  0  0  0  0
  160.8840  207.4550  148.5850 C   0  0  0  0  0  1  0  0  0  0  0  0
  159.7430  208.6900  155.3350 C   0  0  0  0  0  2  0  0  0  0  0  0
  160.5580  206.7530  153.9240 C   0  0  0  0  0  3  0  0  0  0  0  0
  162.3620  209.0760  149.7900 C   0  0  0  0  0  2  0  0  0  0  0  0
  160.2360  208.1210  154.0350 C   0  0  0  0  0  0  0  0  0  0  0  0
  161.1690  210.7060  151.4530 C   0  0  1  0  0  3  0  0  0  0  0  0
  162.2170  206.6110  150.5330 C   0  0  0  0  0  2  0  0  0  0  0  0
  160.2770  210.8720  155.3180 C   0  0  2  0  0  3  0  0  0  0  0  0
  163.3260  207.2550  148.4030 C   0  0  0  0  0  1  0  0  0  0  0  0
  159.2040  209.9750  155.1610 O   0  0  0  0  0  0  0  0  0  0  0  0
  159.2860  212.2550  151.0120 C   0  0  0  0  0  3  0  0  0  0  0  0
  158.4580  213.1160  150.1000 C   0  0  2  0  0  3  0  0  0  0  0  0
  160.7270  214.2200  149.4000 C   0  0  2  0  0  3  0  0  0  0  0  0
  159.2040  214.3500  149.5640 C   0  0  0  0  0  2  0  0  0  0  0  0
  161.2110  212.9820  148.6170 C   0  0  1  0  0  3  0  0  0  0  0  0
  162.6050  212.9630  148.5660 O   0  0  0  0  0  1  0  0  0  0  0  0
  160.6890  211.6120  149.0840 C   0  0  0  0  0  2  0  0  0  0  0  0
  161.3710  214.3330  150.6350 O   0  0  0  0  0  1  0  0  0  0  0  0
  160.3310  211.5530  150.5420 C   0  0  0  0  0  0  0  0  0  0  0  0
  157.7210  214.3190  151.7170 O   0  0  0  0  0  1  0  0  0  0  0  0
  157.2980  213.5210  150.7590 O   0  0  0  0  0  0  0  0  0  0  0  0
  160.7230  212.9790  156.6250 C   0  0  0  0  0  3  0  0  0  0  0  0
  159.8120  212.1240  155.9860 C   0  0  0  0  0  0  0  0  0  0  0  0
  158.4490  212.4370  155.9910 C   0  0  0  0  0  3  0  0  0  0  0  0
  156.6750  213.8980  156.6280 F   0  0  0  0  0  0  0  0  0  0  0  0
  158.9070  214.4480  157.2590 C   0  0  0  0  0  3  0  0  0  0  0  0
  157.9960  213.5980  156.6260 C   0  0  0  0  0  0  0  0  0  0  0  0
  160.2700  214.1390  157.2600 C   0  0  0  0  0  3  0  0  0  0  0  0
  1 13  1  0  0  0  0
  1 16  1  0  0  0  0
  2 14  1  0  0  0  0
  4  6  1  0  0  0  0
  4  8  2  0  0  0  0
  5  2  1  1  0  0  0
  5  7  1  0  0  0  0
  6  2  2  0  0  0  0
  7  3  1  1  0  0  0
  7 17  1  0  0  0  0
  8 12  1  0  0  0  0
  9 15  1  0  0  0  0
  9  6  1  0  0  0  0
 10  1  1  0  0  0  0
 12 14  2  0  0  0  0
 13  9  1  0  0  0  0
 14 11  1  0  0  0  0
 15 28  1  6  0  0  0
 15  5  1  0  0  0  0
 16  4  1  0  0  0  0
 17 32  1  6  0  0  0
 18  1  1  0  0  0  0
 19 17  1  0  0  0  0
 19 11  1  0  0  0  0
 21 30  1  1  0  0  0
 21 20  1  0  0  0  0
 22 23  1  0  0  0  0
 22 27  1  1  0  0  0
 23 21  1  0  0  0  0
 24 25  1  1  0  0  0
 24 26  1  0  0  0  0
 24 22  1  0  0  0  0
 26 28  1  0  0  0  0
 28 20  2  0  0  0  0
 30 29  1  0  0  0  0
 31 37  1  0  0  0  0
 32 33  1  0  0  0  0
 32 31  2  0  0  0  0
 33 36  2  0  0  0  0
 35 37  2  0  0  0  0
 36 34  1  0  0  0  0
 36 35  1  0  0  0  0
M  END
>  <MODEL>
7

>  <REMARK>
 VINA RESULT:      -1.1      3.316      7.734
  Name = 
  3 active torsions:
  status: ('A' for Active; 'I' for Inactive)
    1  A    between atoms: C_4  and  O_37
    2  A    between atoms: C_21  and  C_27
    3  A    between atoms: C_23  and  C_30
                            x       y       z     vdW  Elec       q    Type
                         _______ _______ _______ _____ _____    ______ ____

>  <TORSDO>
F 3

$$$$
