=
 OpenBabel11122414403D

 34 41  0  0  1  0  0  0  0  0999 V2000
  162.0310  208.6400  149.5360 C   0  0  2  0  0  3  0  0  0  0  0  0
  162.6910  206.9200  147.9730 O   0  0  0  0  0  0  0  0  0  0  0  0
  160.1500  209.5230  155.6530 C   0  0  2  0  0  3  0  0  0  0  0  0
  161.9390  209.8880  151.6680 C   0  0  1  0  0  3  0  0  0  0  0  0
  161.1070  208.4010  153.6360 C   0  0  2  0  0  3  0  0  0  0  0  0
  160.2630  207.1390  155.4850 O   0  0  0  0  0  1  0  0  0  0  0  0
  158.9010  209.6090  155.0310 O   0  0  0  0  0  1  0  0  0  0  0  0
  161.4980  211.0030  154.0050 C   0  0  1  0  0  3  0  0  0  0  0  0
  161.0280  206.2400  149.5600 C   0  0  2  0  0  3  0  0  0  0  0  0
  160.3370  203.3780  150.2330 C   0  0  0  0  0  2  0  0  0  0  0  0
  161.9930  207.3440  153.1330 N   0  0  0  0  0  2  0  0  0  0  0  0
  162.6870  210.2480  153.9020 O   0  0  0  0  0  0  0  0  0  0  0  0
  161.6190  206.0480  150.9870 C   0  0  1  0  0  3  0  0  0  0  0  0
  162.5510  205.5200  147.8870 C   0  0  0  0  0  2  0  0  0  0  0  0
  161.5950  209.7790  153.1510 C   0  0  2  0  0  0  0  0  0  0  0  0
  160.9440  210.8080  155.4270 C   0  0  0  0  0  2  0  0  0  0  0  0
  161.4890  203.7010  149.2860 C   0  0  2  0  0  3  0  0  0  0  0  0
  161.5290  208.5950  150.9660 C   0  0  2  0  0  3  0  0  0  0  0  0
  160.9350  208.3140  155.1490 C   0  0  2  0  0  3  0  0  0  0  0  0
  162.1050  207.3540  151.6540 C   0  0  1  0  0  3  0  0  0  0  0  0
  161.8630  211.1230  149.7740 C   0  0  0  0  0  2  0  0  0  0  0  0
  160.6860  203.8050  151.6520 C   0  0  0  0  0  2  0  0  0  0  0  0
  161.2810  210.9690  151.0520 O   0  0  0  0  0  0  0  0  0  0  0  0
  160.5830  205.3140  151.8360 C   0  0  0  0  0  2  0  0  0  0  0  0
  161.3070  205.0790  148.6350 C   0  0  1  0  0  3  0  0  0  0  0  0
  161.5330  209.9220  148.8700 C   0  0  0  0  0  2  0  0  0  0  0  0
  161.6160  207.3950  148.7450 C   0  0  1  0  0  3  0  0  0  0  0  0
  161.5630  202.6300  148.2080 C   0  0  0  0  0  2  0  0  0  0  0  0
  160.4910  202.7690  147.3240 O   0  0  0  0  0  0  0  0  0  0  0  0
  159.1840  201.7880  144.7500 N   0  0  0  0  0  2  0  0  0  0  0  0
  160.6680  203.9960  145.0060 S   0  0  0  0  0  0  0  0  0  0  0  0
  161.0440  202.5680  146.0580 C   0  0  2  0  0  3  0  0  0  0  0  0
  159.5360  202.9850  144.0070 C   0  0  0  0  0  2  0  0  0  0  0  0
  160.4020  201.3600  145.4130 C   0  0  0  0  0  2  0  0  0  0  0  0
  1 26  1  6  0  0  0
  1 18  1  0  0  0  0
  2 27  1  0  0  0  0
  3  7  1  6  0  0  0
  4 23  1  6  0  0  0
  4 15  1  0  0  0  0
  5 11  1  1  0  0  0
  5 19  1  0  0  0  0
  8 16  1  1  0  0  0
  9 13  1  0  0  0  0
 10 22  1  0  0  0  0
 12  8  1  0  0  0  0
 13 20  1  0  0  0  0
 13 24  1  0  0  0  0
 14  2  1  0  0  0  0
 14 25  1  0  0  0  0
 15  5  1  0  0  0  0
 15 12  1  0  0  0  0
 15  8  1  0  0  0  0
 16  3  1  0  0  0  0
 17 10  1  0  0  0  0
 18 20  1  0  0  0  0
 18  4  1  0  0  0  0
 19  6  1  0  0  0  0
 19  3  1  0  0  0  0
 20 11  1  0  0  0  0
 21 23  1  0  0  0  0
 22 24  1  0  0  0  0
 25 17  1  0  0  0  0
 25  9  1  0  0  0  0
 26 21  1  0  0  0  0
 27  1  1  0  0  0  0
 27  9  1  0  0  0  0
 28 17  1  0  0  0  0
 29 28  1  0  0  0  0
 30 34  1  0  0  0  0
 31 32  1  0  0  0  0
 32 29  1  0  0  0  0
 33 30  1  0  0  0  0
 33 31  1  0  0  0  0
 34 32  1  0  0  0  0
M  END
>  <MODEL>
1

>  <REMARK>
 VINA RESULT:      -7.3      0.000      0.000
  Name = 
  3 active torsions:
  status: ('A' for Active; 'I' for Inactive)
    1  A    between atoms: C_17  and  C_28
    2  A    between atoms: C_28  and  O_29
    3  A    between atoms: O_29  and  C_32
                            x       y       z     vdW  Elec       q    Type
                         _______ _______ _______ _____ _____    ______ ____

>  <TORSDO>
F 3

$$$$
=
 OpenBabel11122414403D

 34 41  0  0  1  0  0  0  0  0999 V2000
  161.7260  206.5420  147.9670 C   0  0  2  0  0  3  0  0  0  0  0  0
  161.3230  208.4860  149.3440 O   0  0  0  0  0  0  0  0  0  0  0  0
  161.3640  200.0920  148.0190 C   0  0  2  0  0  3  0  0  0  0  0  0
  161.3020  204.3380  146.9310 C   0  0  1  0  0  3  0  0  0  0  0  0
  160.9940  202.4640  148.7110 C   0  0  2  0  0  3  0  0  0  0  0  0
  160.7930  200.6610  150.2710 O   0  0  0  0  0  1  0  0  0  0  0  0
  162.7400  200.2300  148.2260 O   0  0  0  0  0  1  0  0  0  0  0  0
  161.0860  201.8460  146.1290 C   0  0  1  0  0  3  0  0  0  0  0  0
  162.0860  206.5560  150.5430 C   0  0  2  0  0  3  0  0  0  0  0  0
  161.8230  206.1460  153.5240 C   0  0  0  0  0  2  0  0  0  0  0  0
  160.1440  203.3980  149.4610 N   0  0  0  0  0  2  0  0  0  0  0  0
  159.8830  202.4640  146.5340 O   0  0  0  0  0  0  0  0  0  0  0  0
  160.9850  205.4640  150.6650 C   0  0  1  0  0  3  0  0  0  0  0  0
  161.1690  208.7380  150.7230 C   0  0  0  0  0  2  0  0  0  0  0  0
  161.0410  202.8630  147.2240 C   0  0  2  0  0  0  0  0  0  0  0  0
  161.0190  200.3690  146.5570 C   0  0  0  0  0  2  0  0  0  0  0  0
  161.2050  207.3650  152.8460 C   0  0  2  0  0  3  0  0  0  0  0  0
  161.6420  205.0530  148.2380 C   0  0  2  0  0  3  0  0  0  0  0  0
  160.5720  201.0170  148.9400 C   0  0  2  0  0  3  0  0  0  0  0  0
  160.5910  204.8060  149.3240 C   0  0  1  0  0  3  0  0  0  0  0  0
  162.3440  205.8740  145.6390 C   0  0  0  0  0  2  0  0  0  0  0  0
  161.0800  204.8820  153.1140 C   0  0  0  0  0  2  0  0  0  0  0  0
  162.3640  204.5150  146.0240 O   0  0  0  0  0  0  0  0  0  0  0  0
  161.4420  204.4400  151.7020 C   0  0  0  0  0  2  0  0  0  0  0  0
  161.9170  207.6910  151.5250 C   0  0  1  0  0  3  0  0  0  0  0  0
  162.7080  206.7890  146.8220 C   0  0  0  0  0  2  0  0  0  0  0  0
  162.1140  207.3300  149.2230 C   0  0  1  0  0  3  0  0  0  0  0  0
  161.2970  208.5580  153.7850 C   0  0  0  0  0  2  0  0  0  0  0  0
  160.9770  208.1650  155.0860 O   0  0  0  0  0  0  0  0  0  0  0  0
  162.7070  209.4470  157.2450 N   0  0  0  0  0  2  0  0  0  0  0  0
  161.8190  210.6550  155.0320 S   0  0  0  0  0  0  0  0  0  0  0  0
  160.7980  209.3600  155.7860 C   0  0  2  0  0  3  0  0  0  0  0  0
  162.9070  210.6700  156.4870 C   0  0  0  0  0  2  0  0  0  0  0  0
  161.2790  209.1880  157.2100 C   0  0  0  0  0  2  0  0  0  0  0  0
  1 26  1  6  0  0  0
  1 18  1  0  0  0  0
  1 27  1  0  0  0  0
  2 14  1  0  0  0  0
  3  7  1  6  0  0  0
  3 19  1  0  0  0  0
  4 23  1  6  0  0  0
  4 15  1  0  0  0  0
  4 18  1  0  0  0  0
  5 19  1  0  0  0  0
  5 11  1  1  0  0  0
  8 12  1  0  0  0  0
  8 16  1  1  0  0  0
  8 15  1  0  0  0  0
  9 13  1  0  0  0  0
  9 25  1  0  0  0  0
 12 15  1  0  0  0  0
 13 24  1  0  0  0  0
 14 25  1  0  0  0  0
 15  5  1  0  0  0  0
 16  3  1  0  0  0  0
 17 10  1  0  0  0  0
 17 28  1  0  0  0  0
 18 20  1  0  0  0  0
 19  6  1  0  0  0  0
 20 11  1  0  0  0  0
 20 13  1  0  0  0  0
 21 23  1  0  0  0  0
 21 26  1  0  0  0  0
 22 10  1  0  0  0  0
 24 22  1  0  0  0  0
 25 17  1  0  0  0  0
 27  2  1  0  0  0  0
 27  9  1  0  0  0  0
 28 29  1  0  0  0  0
 29 32  1  0  0  0  0
 31 32  1  0  0  0  0
 31 33  1  0  0  0  0
 32 34  1  0  0  0  0
 33 30  1  0  0  0  0
 34 30  1  0  0  0  0
M  END
>  <MODEL>
2

>  <REMARK>
 VINA RESULT:      -7.2      2.910      8.590
  Name = 
  3 active torsions:
  status: ('A' for Active; 'I' for Inactive)
    1  A    between atoms: C_17  and  C_28
    2  A    between atoms: C_28  and  O_29
    3  A    between atoms: O_29  and  C_32
                            x       y       z     vdW  Elec       q    Type
                         _______ _______ _______ _____ _____    ______ ____

>  <TORSDO>
F 3

$$$$
=
 OpenBabel11122414403D

 34 41  0  0  1  0  0  0  0  0999 V2000
  161.7310  206.5290  147.9290 C   0  0  2  0  0  3  0  0  0  0  0  0
  161.3520  208.4920  149.2850 O   0  0  0  0  0  0  0  0  0  0  0  0
  161.3280  200.0830  148.0640 C   0  0  2  0  0  3  0  0  0  0  0  0
  161.2840  204.3150  146.9240 C   0  0  1  0  0  3  0  0  0  0  0  0
  160.9790  202.4650  148.7300 C   0  0  2  0  0  3  0  0  0  0  0  0
  160.7790  200.6830  150.3140 O   0  0  0  0  0  1  0  0  0  0  0  0
  162.7060  200.2140  148.2580 O   0  0  0  0  0  1  0  0  0  0  0  0
  161.0450  201.8150  146.1560 C   0  0  1  0  0  3  0  0  0  0  0  0
  162.1130  206.5720  150.5020 C   0  0  2  0  0  3  0  0  0  0  0  0
  161.8720  206.2010  153.4890 C   0  0  0  0  0  2  0  0  0  0  0  0
  160.1420  203.4140  149.4750 N   0  0  0  0  0  2  0  0  0  0  0  0
  159.8500  202.4460  146.5630 O   0  0  0  0  0  0  0  0  0  0  0  0
  161.0050  205.4890  150.6470 C   0  0  1  0  0  3  0  0  0  0  0  0
  161.2110  208.7620  150.6620 C   0  0  0  0  0  2  0  0  0  0  0  0
  161.0160  202.8460  147.2380 C   0  0  2  0  0  0  0  0  0  0  0  0
  160.9710  200.3440  146.6020 C   0  0  0  0  0  2  0  0  0  0  0  0
  161.2570  207.4160  152.8010 C   0  0  2  0  0  3  0  0  0  0  0  0
  161.6400  205.0440  148.2190 C   0  0  2  0  0  3  0  0  0  0  0  0
  160.5500  201.0240  148.9800 C   0  0  2  0  0  3  0  0  0  0  0  0
  160.5970  204.8170  149.3170 C   0  0  1  0  0  3  0  0  0  0  0  0
  162.3250  205.8280  145.6040 C   0  0  0  0  0  2  0  0  0  0  0  0
  161.1180  204.9370  153.1020 C   0  0  0  0  0  2  0  0  0  0  0  0
  162.3390  204.4740  146.0070 O   0  0  0  0  0  0  0  0  0  0  0  0
  161.4640  204.4750  151.6920 C   0  0  0  0  0  2  0  0  0  0  0  0
  161.9590  207.7200  151.4710 C   0  0  1  0  0  3  0  0  0  0  0  0
  162.7050  206.7550  146.7730 C   0  0  0  0  0  2  0  0  0  0  0  0
  162.1350  207.3300  149.1720 C   0  0  1  0  0  3  0  0  0  0  0  0
  161.3640  208.6200  153.7250 C   0  0  0  0  0  2  0  0  0  0  0  0
  160.0940  209.0020  154.1590 O   0  0  0  0  0  0  0  0  0  0  0  0
  158.8860  211.4360  152.7740 N   0  0  0  0  0  2  0  0  0  0  0  0
  158.7510  210.8990  155.3890 S   0  0  0  0  0  0  0  0  0  0  0  0
  160.2140  210.3600  154.4640 C   0  0  2  0  0  3  0  0  0  0  0  0
  158.1960  211.8880  153.9700 C   0  0  0  0  0  2  0  0  0  0  0  0
  160.2520  211.1640  153.1840 C   0  0  0  0  0  2  0  0  0  0  0  0
  1 26  1  6  0  0  0
  1 18  1  0  0  0  0
  1 27  1  0  0  0  0
  2 14  1  0  0  0  0
  3  7  1  6  0  0  0
  3 19  1  0  0  0  0
  4 23  1  6  0  0  0
  4 15  1  0  0  0  0
  4 18  1  0  0  0  0
  5 19  1  0  0  0  0
  5 11  1  1  0  0  0
  8 12  1  0  0  0  0
  8 16  1  1  0  0  0
  8 15  1  0  0  0  0
  9 13  1  0  0  0  0
  9 25  1  0  0  0  0
 12 15  1  0  0  0  0
 13 24  1  0  0  0  0
 14 25  1  0  0  0  0
 15  5  1  0  0  0  0
 16  3  1  0  0  0  0
 17 10  1  0  0  0  0
 17 28  1  0  0  0  0
 18 20  1  0  0  0  0
 19  6  1  0  0  0  0
 20 11  1  0  0  0  0
 20 13  1  0  0  0  0
 21 23  1  0  0  0  0
 21 26  1  0  0  0  0
 22 10  1  0  0  0  0
 24 22  1  0  0  0  0
 25 17  1  0  0  0  0
 27  2  1  0  0  0  0
 27  9  1  0  0  0  0
 28 29  1  0  0  0  0
 29 32  1  0  0  0  0
 30 34  1  0  0  0  0
 30 33  1  0  0  0  0
 32 31  1  0  0  0  0
 33 31  1  0  0  0  0
 34 32  1  0  0  0  0
M  END
>  <MODEL>
3

>  <REMARK>
 VINA RESULT:      -6.8      3.030      8.311
  Name = 
  3 active torsions:
  status: ('A' for Active; 'I' for Inactive)
    1  A    between atoms: C_17  and  C_28
    2  A    between atoms: C_28  and  O_29
    3  A    between atoms: O_29  and  C_32
                            x       y       z     vdW  Elec       q    Type
                         _______ _______ _______ _____ _____    ______ ____

>  <TORSDO>
F 3

$$$$
=
 OpenBabel11122414403D

 34 41  0  0  1  0  0  0  0  0999 V2000
  161.0790  203.5700  150.5990 C   0  0  2  0  0  3  0  0  0  0  0  0
  162.0880  205.0410  152.2280 O   0  0  0  0  0  0  0  0  0  0  0  0
  159.8240  203.0520  144.2830 C   0  0  2  0  0  3  0  0  0  0  0  0
  160.8350  202.3140  148.4840 C   0  0  1  0  0  3  0  0  0  0  0  0
  160.8400  203.8850  146.4080 C   0  0  2  0  0  3  0  0  0  0  0  0
  160.7400  205.2560  144.4500 O   0  0  0  0  0  1  0  0  0  0  0  0
  158.5530  203.4370  144.7220 O   0  0  0  0  0  1  0  0  0  0  0  0
  160.3420  201.2920  146.1150 C   0  0  1  0  0  3  0  0  0  0  0  0
  160.9910  206.1640  150.4170 C   0  0  2  0  0  3  0  0  0  0  0  0
  161.4380  209.0460  149.6340 C   0  0  0  0  0  2  0  0  0  0  0  0
  161.9660  204.5970  147.0250 N   0  0  0  0  0  2  0  0  0  0  0  0
  161.6950  201.5950  146.3800 O   0  0  0  0  0  0  0  0  0  0  0  0
  161.7920  206.0600  149.0880 C   0  0  1  0  0  3  0  0  0  0  0  0
  162.4360  206.4060  152.2840 C   0  0  0  0  0  2  0  0  0  0  0  0
  160.7480  202.4520  146.9670 C   0  0  2  0  0  0  0  0  0  0  0  0
  160.0810  201.5860  144.6270 C   0  0  0  0  0  2  0  0  0  0  0  0
  162.2700  208.3990  150.7370 C   0  0  2  0  0  3  0  0  0  0  0  0
  160.8150  203.7070  149.1120 C   0  0  2  0  0  3  0  0  0  0  0  0
  160.9090  203.9410  144.8860 C   0  0  2  0  0  3  0  0  0  0  0  0
  161.8730  204.6320  148.5050 C   0  0  1  0  0  3  0  0  0  0  0  0
  160.0860  201.2890  150.3560 C   0  0  0  0  0  2  0  0  0  0  0  0
  161.7970  208.4470  148.2810 C   0  0  0  0  0  2  0  0  0  0  0  0
  159.7670  201.5630  149.0070 O   0  0  0  0  0  0  0  0  0  0  0  0
  161.1990  207.0590  148.0950 C   0  0  0  0  0  2  0  0  0  0  0  0
  161.5350  207.2070  151.3650 C   0  0  1  0  0  3  0  0  0  0  0  0
  160.0810  202.5790  151.1960 C   0  0  0  0  0  2  0  0  0  0  0  0
  161.0260  204.9240  151.3150 C   0  0  1  0  0  3  0  0  0  0  0  0
  162.5720  209.4370  151.8070 C   0  0  0  0  0  2  0  0  0  0  0  0
  161.3800  209.9580  152.3150 O   0  0  0  0  0  0  0  0  0  0  0  0
  159.5380  210.9560  154.5300 N   0  0  0  0  0  2  0  0  0  0  0  0
  161.2060  208.8750  154.7030 S   0  0  0  0  0  0  0  0  0  0  0  0
  161.6660  210.2730  153.6450 C   0  0  2  0  0  3  0  0  0  0  0  0
  159.8320  209.8340  155.4050 C   0  0  0  0  0  2  0  0  0  0  0  0
  160.8240  211.4530  154.0770 C   0  0  0  0  0  2  0  0  0  0  0  0
  1 26  1  1  0  0  0
  1 27  1  0  0  0  0
  2 14  1  0  0  0  0
  3 16  1  0  0  0  0
  3  7  1  1  0  0  0
  3 19  1  0  0  0  0
  4 23  1  1  0  0  0
  4 18  1  0  0  0  0
  5 15  1  0  0  0  0
  5 11  1  1  0  0  0
  6 19  1  0  0  0  0
  8 16  1  6  0  0  0
  8 12  1  0  0  0  0
  8 15  1  0  0  0  0
  9 27  1  0  0  0  0
  9 25  1  0  0  0  0
 10 17  1  0  0  0  0
 11 20  1  0  0  0  0
 12 15  1  0  0  0  0
 13  9  1  0  0  0  0
 15  4  1  0  0  0  0
 17 25  1  0  0  0  0
 17 28  1  0  0  0  0
 18  1  1  0  0  0  0
 19  5  1  0  0  0  0
 20 13  1  0  0  0  0
 20 18  1  0  0  0  0
 21 26  1  0  0  0  0
 22 10  1  0  0  0  0
 23 21  1  0  0  0  0
 24 22  1  0  0  0  0
 24 13  1  0  0  0  0
 25 14  1  0  0  0  0
 27  2  1  0  0  0  0
 28 29  1  0  0  0  0
 29 32  1  0  0  0  0
 30 33  1  0  0  0  0
 31 33  1  0  0  0  0
 32 34  1  0  0  0  0
 32 31  1  0  0  0  0
 34 30  1  0  0  0  0
M  END
>  <MODEL>
4

>  <REMARK>
 VINA RESULT:      -6.7      2.714      9.003
  Name = 
  3 active torsions:
  status: ('A' for Active; 'I' for Inactive)
    1  A    between atoms: C_17  and  C_28
    2  A    between atoms: C_28  and  O_29
    3  A    between atoms: O_29  and  C_32
                            x       y       z     vdW  Elec       q    Type
                         _______ _______ _______ _____ _____    ______ ____

>  <TORSDO>
F 3

$$$$
=
 OpenBabel11122414403D

 34 41  0  0  1  0  0  0  0  0999 V2000
  160.4540  207.7820  154.7810 C   0  0  2  0  0  3  0  0  0  0  0  0
  160.8630  206.2540  152.9560 O   0  0  0  0  0  0  0  0  0  0  0  0
  159.0450  213.9600  156.0420 C   0  0  2  0  0  3  0  0  0  0  0  0
  159.3450  209.5870  156.0560 C   0  0  1  0  0  3  0  0  0  0  0  0
  159.3320  211.8390  154.7520 C   0  0  2  0  0  3  0  0  0  0  0  0
  159.3560  213.9730  153.6700 O   0  0  0  0  0  1  0  0  0  0  0  0
  160.4150  213.9920  156.3230 O   0  0  0  0  0  1  0  0  0  0  0  0
  158.4580  211.7470  157.2590 C   0  0  1  0  0  3  0  0  0  0  0  0
  161.6430  208.4890  152.5780 C   0  0  2  0  0  3  0  0  0  0  0  0
  162.3140  209.6620  149.8770 C   0  0  0  0  0  2  0  0  0  0  0  0
  158.9480  211.0760  153.5570 N   0  0  0  0  0  2  0  0  0  0  0  0
  157.5800  211.1670  156.3180 O   0  0  0  0  0  0  0  0  0  0  0  0
  160.4760  209.4830  152.3110 C   0  0  1  0  0  3  0  0  0  0  0  0
  161.2190  206.3700  151.5960 C   0  0  0  0  0  2  0  0  0  0  0  0
  158.9510  211.0610  156.0250 C   0  0  2  0  0  0  0  0  0  0  0  0
  158.2880  213.2740  157.1780 C   0  0  0  0  0  2  0  0  0  0  0  0
  161.7230  208.2600  149.9950 C   0  0  2  0  0  3  0  0  0  0  0  0
  160.2140  209.2780  154.8380 C   0  0  2  0  0  3  0  0  0  0  0  0
  158.7710  213.2570  154.7150 C   0  0  2  0  0  3  0  0  0  0  0  0
  159.5560  209.7240  153.5290 C   0  0  1  0  0  3  0  0  0  0  0  0
  160.1450  207.8470  157.2610 C   0  0  0  0  0  2  0  0  0  0  0  0
  161.2760  210.7070  150.2600 C   0  0  0  0  0  2  0  0  0  0  0  0
  160.0610  209.2570  157.2220 O   0  0  0  0  0  0  0  0  0  0  0  0
  161.0700  210.7810  151.7680 C   0  0  0  0  0  2  0  0  0  0  0  0
  162.0020  207.6500  151.3750 C   0  0  1  0  0  3  0  0  0  0  0  0
  161.0290  207.3160  156.1180 C   0  0  0  0  0  2  0  0  0  0  0  0
  161.3630  207.3940  153.6100 C   0  0  1  0  0  3  0  0  0  0  0  0
  162.3210  207.3750  148.9120 C   0  0  0  0  0  2  0  0  0  0  0  0
  161.6800  207.6130  147.6940 O   0  0  0  0  0  0  0  0  0  0  0  0
  161.8100  205.4310  145.5680 N   0  0  0  0  0  2  0  0  0  0  0  0
  161.6570  205.0350  148.2070 S   0  0  0  0  0  0  0  0  0  0  0  0
  160.8580  206.5000  147.4990 C   0  0  2  0  0  3  0  0  0  0  0  0
  161.9380  204.3610  146.5430 C   0  0  0  0  0  2  0  0  0  0  0  0
  160.6960  206.2460  146.0170 C   0  0  0  0  0  2  0  0  0  0  0  0
  1 18  1  0  0  0  0
  1 26  1  1  0  0  0
  2 27  1  0  0  0  0
  3  7  1  1  0  0  0
  3 16  1  0  0  0  0
  4 23  1  1  0  0  0
  5 11  1  6  0  0  0
  5 15  1  0  0  0  0
  6 19  1  0  0  0  0
  8 16  1  6  0  0  0
  9 27  1  0  0  0  0
 10 17  1  0  0  0  0
 10 22  1  0  0  0  0
 12  8  1  0  0  0  0
 13  9  1  0  0  0  0
 13 20  1  0  0  0  0
 14  2  1  0  0  0  0
 15  4  1  0  0  0  0
 15 12  1  0  0  0  0
 15  8  1  0  0  0  0
 17 25  1  0  0  0  0
 18  4  1  0  0  0  0
 19  5  1  0  0  0  0
 19  3  1  0  0  0  0
 20 11  1  0  0  0  0
 20 18  1  0  0  0  0
 22 24  1  0  0  0  0
 23 21  1  0  0  0  0
 24 13  1  0  0  0  0
 25 14  1  0  0  0  0
 25  9  1  0  0  0  0
 26 21  1  0  0  0  0
 27  1  1  0  0  0  0
 28 17  1  0  0  0  0
 29 28  1  0  0  0  0
 30 34  1  0  0  0  0
 30 33  1  0  0  0  0
 32 29  1  0  0  0  0
 32 31  1  0  0  0  0
 33 31  1  0  0  0  0
 34 32  1  0  0  0  0
M  END
>  <MODEL>
5

>  <REMARK>
 VINA RESULT:      -6.5      2.602      5.165
  Name = 
  3 active torsions:
  status: ('A' for Active; 'I' for Inactive)
    1  A    between atoms: C_17  and  C_28
    2  A    between atoms: C_28  and  O_29
    3  A    between atoms: O_29  and  C_32
                            x       y       z     vdW  Elec       q    Type
                         _______ _______ _______ _____ _____    ______ ____

>  <TORSDO>
F 3

$$$$
=
 OpenBabel11122414403D

 34 41  0  0  1  0  0  0  0  0999 V2000
  162.0890  208.7520  149.2840 C   0  0  2  0  0  3  0  0  0  0  0  0
  162.7690  207.0620  147.6970 O   0  0  0  0  0  0  0  0  0  0  0  0
  160.1770  209.5230  155.4070 C   0  0  2  0  0  3  0  0  0  0  0  0
  161.9770  209.9660  151.4350 C   0  0  1  0  0  3  0  0  0  0  0  0
  161.1510  208.4420  153.3760 C   0  0  2  0  0  3  0  0  0  0  0  0
  160.3110  207.1430  155.2020 O   0  0  0  0  0  1  0  0  0  0  0  0
  158.9290  209.6090  154.7820 O   0  0  0  0  0  1  0  0  0  0  0  0
  161.5180  211.0400  153.7870 C   0  0  1  0  0  3  0  0  0  0  0  0
  161.1060  206.3430  149.2670 C   0  0  2  0  0  3  0  0  0  0  0  0
  160.4380  203.4650  149.8930 C   0  0  0  0  0  2  0  0  0  0  0  0
  162.0490  207.4000  152.8600 N   0  0  0  0  0  2  0  0  0  0  0  0
  162.7140  210.2970  153.6770 O   0  0  0  0  0  0  0  0  0  0  0  0
  161.6930  206.1340  150.6930 C   0  0  1  0  0  3  0  0  0  0  0  0
  162.6410  205.6620  147.5890 C   0  0  0  0  0  2  0  0  0  0  0  0
  161.6290  209.8310  152.9140 C   0  0  2  0  0  0  0  0  0  0  0  0
  160.9600  210.8190  155.2040 C   0  0  0  0  0  2  0  0  0  0  0  0
  161.5900  203.8130  148.9550 C   0  0  2  0  0  3  0  0  0  0  0  0
  161.5810  208.6800  150.7110 C   0  0  2  0  0  3  0  0  0  0  0  0
  160.9740  208.3300  154.8870 C   0  0  2  0  0  3  0  0  0  0  0  0
  162.1660  207.4340  151.3820 C   0  0  1  0  0  3  0  0  0  0  0  0
  161.8980  211.2290  149.5600 C   0  0  0  0  0  2  0  0  0  0  0  0
  160.7770  203.8730  151.3200 C   0  0  0  0  0  2  0  0  0  0  0  0
  161.3120  211.0510  150.8330 O   0  0  0  0  0  0  0  0  0  0  0  0
  160.6610  205.3780  151.5260 C   0  0  0  0  0  2  0  0  0  0  0  0
  161.3990  205.1990  148.3250 C   0  0  1  0  0  3  0  0  0  0  0  0
  161.5810  210.0400  148.6360 C   0  0  0  0  0  2  0  0  0  0  0  0
  161.6870  207.5150  148.4720 C   0  0  1  0  0  3  0  0  0  0  0  0
  161.6770  202.7600  147.8620 C   0  0  0  0  0  2  0  0  0  0  0  0
  160.5850  202.8770  147.0000 O   0  0  0  0  0  0  0  0  0  0  0  0
  160.4560  200.7000  144.8680 N   0  0  0  0  0  2  0  0  0  0  0  0
  161.2060  200.3560  147.4110 S   0  0  0  0  0  0  0  0  0  0  0  0
  159.9680  201.6240  147.0330 C   0  0  2  0  0  3  0  0  0  0  0  0
  161.0780  199.7010  145.7200 C   0  0  0  0  0  2  0  0  0  0  0  0
  159.4040  201.3030  145.6660 C   0  0  0  0  0  2  0  0  0  0  0  0
  1 26  1  6  0  0  0
  1 18  1  0  0  0  0
  2 27  1  0  0  0  0
  3  7  1  6  0  0  0
  4 23  1  6  0  0  0
  4 15  1  0  0  0  0
  5 11  1  1  0  0  0
  5 19  1  0  0  0  0
  8 16  1  1  0  0  0
  9 13  1  0  0  0  0
 10 22  1  0  0  0  0
 12  8  1  0  0  0  0
 13 20  1  0  0  0  0
 13 24  1  0  0  0  0
 14  2  1  0  0  0  0
 14 25  1  0  0  0  0
 15  5  1  0  0  0  0
 15 12  1  0  0  0  0
 15  8  1  0  0  0  0
 16  3  1  0  0  0  0
 17 10  1  0  0  0  0
 18 20  1  0  0  0  0
 18  4  1  0  0  0  0
 19  6  1  0  0  0  0
 19  3  1  0  0  0  0
 20 11  1  0  0  0  0
 21 23  1  0  0  0  0
 22 24  1  0  0  0  0
 25 17  1  0  0  0  0
 25  9  1  0  0  0  0
 26 21  1  0  0  0  0
 27  9  1  0  0  0  0
 27  1  1  0  0  0  0
 28 17  1  0  0  0  0
 29 32  1  0  0  0  0
 29 28  1  0  0  0  0
 30 34  1  0  0  0  0
 30 33  1  0  0  0  0
 32 31  1  0  0  0  0
 33 31  1  0  0  0  0
 34 32  1  0  0  0  0
M  END
>  <MODEL>
6

>  <REMARK>
 VINA RESULT:      -6.1      1.005      1.148
  Name = 
  3 active torsions:
  status: ('A' for Active; 'I' for Inactive)
    1  A    between atoms: C_17  and  C_28
    2  A    between atoms: C_28  and  O_29
    3  A    between atoms: O_29  and  C_32
                            x       y       z     vdW  Elec       q    Type
                         _______ _______ _______ _____ _____    ______ ____

>  <TORSDO>
F 3

$$$$
=
 OpenBabel11122414403D

 34 41  0  0  1  0  0  0  0  0999 V2000
  161.0960  204.5300  151.4490 C   0  0  2  0  0  3  0  0  0  0  0  0
  161.7360  205.8250  153.3850 O   0  0  0  0  0  0  0  0  0  0  0  0
  160.9220  204.7520  144.9940 C   0  0  2  0  0  3  0  0  0  0  0  0
  161.2760  203.5380  149.1920 C   0  0  1  0  0  3  0  0  0  0  0  0
  161.5260  205.3540  147.3430 C   0  0  2  0  0  3  0  0  0  0  0  0
  161.6640  206.9530  145.5690 O   0  0  0  0  0  1  0  0  0  0  0  0
  159.5760  205.0290  145.2540 O   0  0  0  0  0  1  0  0  0  0  0  0
  161.2390  202.8000  146.6710 C   0  0  1  0  0  3  0  0  0  0  0  0
  160.8830  207.1200  151.5570 C   0  0  2  0  0  3  0  0  0  0  0  0
  161.2780  210.0930  151.2000 C   0  0  0  0  0  2  0  0  0  0  0  0
  162.4910  206.0280  148.2200 N   0  0  0  0  0  2  0  0  0  0  0  0
  162.5100  203.1210  147.1950 O   0  0  0  0  0  0  0  0  0  0  0  0
  161.8950  207.2150  150.3790 C   0  0  1  0  0  3  0  0  0  0  0  0
  161.9870  207.1860  153.6570 C   0  0  0  0  0  2  0  0  0  0  0  0
  161.4290  203.8600  147.7080 C   0  0  2  0  0  0  0  0  0  0  0  0
  161.2070  203.2660  145.2050 C   0  0  0  0  0  2  0  0  0  0  0  0
  161.9560  209.3470  152.3460 C   0  0  2  0  0  3  0  0  0  0  0  0
  161.0700  204.8400  149.9650 C   0  0  2  0  0  3  0  0  0  0  0  0
  161.8380  205.6020  145.8710 C   0  0  2  0  0  3  0  0  0  0  0  0
  162.1560  205.8740  149.6570 C   0  0  1  0  0  3  0  0  0  0  0  0
  160.2950  202.2590  150.7780 C   0  0  0  0  0  2  0  0  0  0  0  0
  161.8890  209.6820  149.8680 C   0  0  0  0  0  2  0  0  0  0  0  0
  160.1840  202.6850  149.4360 O   0  0  0  0  0  0  0  0  0  0  0  0
  161.4130  208.3040  149.4230 C   0  0  0  0  0  2  0  0  0  0  0  0
  161.2010  208.0580  152.6970 C   0  0  1  0  0  3  0  0  0  0  0  0
  160.0750  203.4330  151.7490 C   0  0  0  0  0  2  0  0  0  0  0  0
  160.8450  205.7810  152.2980 C   0  0  1  0  0  3  0  0  0  0  0  0
  162.0160  210.2550  153.5650 C   0  0  0  0  0  2  0  0  0  0  0  0
  160.8880  211.0770  153.6030 O   0  0  0  0  0  0  0  0  0  0  0  0
  159.3590  209.5640  155.7640 N   0  0  0  0  0  2  0  0  0  0  0  0
  161.8860  210.4140  155.9430 S   0  0  0  0  0  0  0  0  0  0  0  0
  160.7120  211.3790  154.9550 C   0  0  2  0  0  3  0  0  0  0  0  0
  160.5280  209.4110  156.6130 C   0  0  0  0  0  2  0  0  0  0  0  0
  159.3220  210.9660  155.3870 C   0  0  0  0  0  2  0  0  0  0  0  0
  1 26  1  6  0  0  0
  1 27  1  0  0  0  0
  2 14  1  0  0  0  0
  3 16  1  0  0  0  0
  3  7  1  1  0  0  0
  3 19  1  0  0  0  0
  4 23  1  6  0  0  0
  4 18  1  0  0  0  0
  5 15  1  0  0  0  0
  5 11  1  1  0  0  0
  6 19  1  0  0  0  0
  8 16  1  6  0  0  0
  8 12  1  0  0  0  0
  8 15  1  0  0  0  0
  9 27  1  0  0  0  0
  9 25  1  0  0  0  0
 10 17  1  0  0  0  0
 11 20  1  0  0  0  0
 12 15  1  0  0  0  0
 13  9  1  0  0  0  0
 15  4  1  0  0  0  0
 17 25  1  0  0  0  0
 17 28  1  0  0  0  0
 18  1  1  0  0  0  0
 19  5  1  0  0  0  0
 20 18  1  0  0  0  0
 20 13  1  0  0  0  0
 21 26  1  0  0  0  0
 22 10  1  0  0  0  0
 23 21  1  0  0  0  0
 24 22  1  0  0  0  0
 24 13  1  0  0  0  0
 25 14  1  0  0  0  0
 27  2  1  0  0  0  0
 28 29  1  0  0  0  0
 29 32  1  0  0  0  0
 30 33  1  0  0  0  0
 31 33  1  0  0  0  0
 32 34  1  0  0  0  0
 32 31  1  0  0  0  0
 34 30  1  0  0  0  0
M  END
>  <MODEL>
7

>  <REMARK>
 VINA RESULT:      -6.1      2.959      8.767
  Name = 
  3 active torsions:
  status: ('A' for Active; 'I' for Inactive)
    1  A    between atoms: C_17  and  C_28
    2  A    between atoms: C_28  and  O_29
    3  A    between atoms: O_29  and  C_32
                            x       y       z     vdW  Elec       q    Type
                         _______ _______ _______ _____ _____    ______ ____

>  <TORSDO>
F 3

$$$$
=
 OpenBabel11122414403D

 34 41  0  0  1  0  0  0  0  0999 V2000
  161.9240  206.8780  147.8710 C   0  0  2  0  0  3  0  0  0  0  0  0
  161.5780  209.2330  148.2830 O   0  0  0  0  0  0  0  0  0  0  0  0
  161.1220  201.0590  150.5610 C   0  0  2  0  0  3  0  0  0  0  0  0
  161.4090  204.4610  147.8110 C   0  0  1  0  0  3  0  0  0  0  0  0
  160.8760  203.5160  150.1770 C   0  0  2  0  0  3  0  0  0  0  0  0
  160.4660  202.5390  152.3230 O   0  0  0  0  0  1  0  0  0  0  0  0
  162.4910  201.2170  150.8000 O   0  0  0  0  0  1  0  0  0  0  0  0
  161.0690  201.8720  148.0990 C   0  0  1  0  0  3  0  0  0  0  0  0
  162.1410  207.9530  150.2300 C   0  0  2  0  0  3  0  0  0  0  0  0
  161.6840  208.8370  153.0820 C   0  0  0  0  0  2  0  0  0  0  0  0
  160.0520  204.7090  150.4030 N   0  0  0  0  0  2  0  0  0  0  0  0
  159.8910  202.6490  148.1150 O   0  0  0  0  0  0  0  0  0  0  0  0
  160.9620  207.0560  150.7060 C   0  0  1  0  0  3  0  0  0  0  0  0
  161.3650  210.0440  149.4170 C   0  0  0  0  0  2  0  0  0  0  0  0
  161.0330  203.2550  148.6670 C   0  0  2  0  0  0  0  0  0  0  0  0
  160.8780  200.7130  149.0930 C   0  0  0  0  0  2  0  0  0  0  0  0
  161.1900  209.6840  151.9130 C   0  0  2  0  0  3  0  0  0  0  0  0
  161.7240  205.6420  148.7270 C   0  0  2  0  0  3  0  0  0  0  0  0
  160.3450  202.3140  150.9510 C   0  0  2  0  0  3  0  0  0  0  0  0
  160.6000  205.9130  149.7310 C   0  0  1  0  0  3  0  0  0  0  0  0
  162.6240  205.2750  146.0850 C   0  0  0  0  0  2  0  0  0  0  0  0
  160.8810  207.5470  153.1750 C   0  0  0  0  0  2  0  0  0  0  0  0
  162.5300  204.2020  146.9990 O   0  0  0  0  0  0  0  0  0  0  0  0
  161.2900  206.5420  152.1060 C   0  0  0  0  0  2  0  0  0  0  0  0
  161.9940  209.4000  150.6370 C   0  0  1  0  0  3  0  0  0  0  0  0
  162.9830  206.5850  146.8080 C   0  0  0  0  0  2  0  0  0  0  0  0
  162.2940  208.1030  148.7140 C   0  0  1  0  0  3  0  0  0  0  0  0
  161.3100  211.1550  152.2780 C   0  0  0  0  0  2  0  0  0  0  0  0
  160.6320  211.4070  153.4730 O   0  0  0  0  0  0  0  0  0  0  0  0
  158.1760  212.6410  154.7910 N   0  0  0  0  0  2  0  0  0  0  0  0
  158.7510  212.7130  152.1830 S   0  0  0  0  0  0  0  0  0  0  0  0
  159.2800  211.2750  153.1510 C   0  0  2  0  0  3  0  0  0  0  0  0
  157.7400  213.3010  153.5730 C   0  0  0  0  0  2  0  0  0  0  0  0
  158.4570  211.2660  154.4200 C   0  0  0  0  0  2  0  0  0  0  0  0
  1 26  1  6  0  0  0
  1 27  1  0  0  0  0
  1 18  1  0  0  0  0
  2 27  1  0  0  0  0
  2 14  1  0  0  0  0
  3  7  1  6  0  0  0
  3 19  1  0  0  0  0
  4 23  1  1  0  0  0
  4 15  1  0  0  0  0
  4 18  1  0  0  0  0
  5 11  1  6  0  0  0
  5 19  1  0  0  0  0
  8 12  1  0  0  0  0
  8 15  1  0  0  0  0
  8 16  1  1  0  0  0
  9 25  1  0  0  0  0
  9 13  1  0  0  0  0
 10 22  1  0  0  0  0
 12 15  1  0  0  0  0
 13 24  1  0  0  0  0
 14 25  1  0  0  0  0
 15  5  1  0  0  0  0
 16  3  1  0  0  0  0
 17 28  1  0  0  0  0
 17 10  1  0  0  0  0
 18 20  1  0  0  0  0
 19  6  1  0  0  0  0
 20 11  1  0  0  0  0
 20 13  1  0  0  0  0
 21 26  1  0  0  0  0
 21 23  1  0  0  0  0
 24 22  1  0  0  0  0
 25 17  1  0  0  0  0
 27  9  1  0  0  0  0
 28 29  1  0  0  0  0
 31 32  1  0  0  0  0
 31 33  1  0  0  0  0
 32 29  1  0  0  0  0
 32 34  1  0  0  0  0
 33 30  1  0  0  0  0
 34 30  1  0  0  0  0
M  END
>  <MODEL>
8

>  <REMARK>
 VINA RESULT:      -5.6      3.093      8.029
  Name = 
  3 active torsions:
  status: ('A' for Active; 'I' for Inactive)
    1  A    between atoms: C_17  and  C_28
    2  A    between atoms: C_28  and  O_29
    3  A    between atoms: O_29  and  C_32
                            x       y       z     vdW  Elec       q    Type
                         _______ _______ _______ _____ _____    ______ ____

>  <TORSDO>
F 3

$$$$
=
 OpenBabel11122414403D

 34 41  0  0  1  0  0  0  0  0999 V2000
  161.6890  207.5470  149.1890 C   0  0  2  0  0  3  0  0  0  0  0  0
  161.2530  209.6670  150.2620 O   0  0  0  0  0  0  0  0  0  0  0  0
  161.2680  201.1700  150.1360 C   0  0  2  0  0  3  0  0  0  0  0  0
  161.2830  205.2200  148.4590 C   0  0  1  0  0  3  0  0  0  0  0  0
  160.8950  203.6180  150.4730 C   0  0  2  0  0  3  0  0  0  0  0  0
  160.6200  202.0540  152.2630 O   0  0  0  0  0  1  0  0  0  0  0  0
  162.6370  201.3310  150.3730 O   0  0  0  0  0  1  0  0  0  0  0  0
  161.0740  202.6410  148.0100 C   0  0  1  0  0  3  0  0  0  0  0  0
  161.9550  207.9230  151.7500 C   0  0  2  0  0  3  0  0  0  0  0  0
  161.5800  207.9390  154.7460 C   0  0  0  0  0  2  0  0  0  0  0  0
  160.0260  204.6510  151.0510 N   0  0  0  0  0  2  0  0  0  0  0  0
  159.8630  203.3140  148.2780 O   0  0  0  0  0  0  0  0  0  0  0  0
  160.8400  206.8640  151.9830 C   0  0  1  0  0  3  0  0  0  0  0  0
  161.0510  210.1120  151.5850 C   0  0  0  0  0  2  0  0  0  0  0  0
  160.9990  203.8030  148.9480 C   0  0  2  0  0  0  0  0  0  0  0  0
  160.9780  201.2400  148.6380 C   0  0  0  0  0  2  0  0  0  0  0  0
  160.9980  209.0530  153.8800 C   0  0  2  0  0  3  0  0  0  0  0  0
  161.5820  206.1110  149.6640 C   0  0  2  0  0  3  0  0  0  0  0  0
  160.4520  202.2190  150.8880 C   0  0  2  0  0  3  0  0  0  0  0  0
  160.4900  206.0240  150.7340 C   0  0  1  0  0  3  0  0  0  0  0  0
  162.3850  206.5550  147.0030 C   0  0  0  0  0  2  0  0  0  0  0  0
  160.8420  206.6330  154.4920 C   0  0  0  0  0  2  0  0  0  0  0  0
  162.3790  205.2640  147.5770 O   0  0  0  0  0  0  0  0  0  0  0  0
  161.2500  205.9950  153.1700 C   0  0  0  0  0  2  0  0  0  0  0  0
  161.7600  209.1860  152.5550 C   0  0  1  0  0  3  0  0  0  0  0  0
  162.7140  207.6260  148.0580 C   0  0  0  0  0  2  0  0  0  0  0  0
  162.0380  208.5030  150.3350 C   0  0  1  0  0  3  0  0  0  0  0  0
  161.0670  210.3660  154.6450 C   0  0  0  0  0  2  0  0  0  0  0  0
  159.8030  210.9590  154.6870 O   0  0  0  0  0  0  0  0  0  0  0  0
  157.6490  212.7580  155.8770 N   0  0  0  0  0  2  0  0  0  0  0  0
  159.3320  211.2120  157.2610 S   0  0  0  0  0  0  0  0  0  0  0  0
  159.8950  211.9250  155.6920 C   0  0  2  0  0  3  0  0  0  0  0  0
  157.8500  212.2610  157.2270 C   0  0  0  0  0  2  0  0  0  0  0  0
  158.9710  213.0780  155.3700 C   0  0  0  0  0  2  0  0  0  0  0  0
  1 26  1  6  0  0  0
  1 18  1  0  0  0  0
  1 27  1  0  0  0  0
  2 27  1  0  0  0  0
  2 14  1  0  0  0  0
  3  7  1  6  0  0  0
  3 19  1  0  0  0  0
  4 23  1  6  0  0  0
  4 15  1  0  0  0  0
  4 18  1  0  0  0  0
  5 19  1  0  0  0  0
  5 11  1  6  0  0  0
  8 12  1  0  0  0  0
  8 16  1  1  0  0  0
  8 15  1  0  0  0  0
  9 13  1  0  0  0  0
  9 25  1  0  0  0  0
 12 15  1  0  0  0  0
 13 24  1  0  0  0  0
 14 25  1  0  0  0  0
 15  5  1  0  0  0  0
 16  3  1  0  0  0  0
 17 28  1  0  0  0  0
 17 10  1  0  0  0  0
 18 20  1  0  0  0  0
 19  6  1  0  0  0  0
 20 11  1  0  0  0  0
 20 13  1  0  0  0  0
 21 23  1  0  0  0  0
 21 26  1  0  0  0  0
 22 10  1  0  0  0  0
 24 22  1  0  0  0  0
 25 17  1  0  0  0  0
 27  9  1  0  0  0  0
 28 29  1  0  0  0  0
 29 32  1  0  0  0  0
 30 33  1  0  0  0  0
 32 31  1  0  0  0  0
 33 31  1  0  0  0  0
 34 32  1  0  0  0  0
 34 30  1  0  0  0  0
M  END
>  <MODEL>
9

>  <REMARK>
 VINA RESULT:      -5.0      3.349      8.451
  Name = 
  3 active torsions:
  status: ('A' for Active; 'I' for Inactive)
    1  A    between atoms: C_17  and  C_28
    2  A    between atoms: C_28  and  O_29
    3  A    between atoms: O_29  and  C_32
                            x       y       z     vdW  Elec       q    Type
                         _______ _______ _______ _____ _____    ______ ____

>  <TORSDO>
F 3

$$$$
