=
 OpenBabel11122412373D

 30 35  0  0  1  0  0  0  0  0999 V2000
  161.4910  208.3740  151.6350 C   0  0  0  0  0  0  0  0  0  0  0  0
  161.2050  209.0330  154.0550 C   0  0  0  0  0  0  0  0  0  0  0  0
  160.7500  204.4270  152.5340 N   0  0  0  0  0  2  0  0  0  0  0  0
  161.4600  207.3620  150.6250 C   0  0  0  0  0  0  0  0  0  0  0  0
  161.7760  209.6470  151.2620 N   0  0  0  0  0  0  0  0  0  0  0  0
  162.0350  209.3660  147.7640 O   0  0  0  0  0  0  0  0  0  0  0  0
  162.2910  205.6670  148.1630 C   0  0  1  0  0  3  0  0  0  0  0  0
  161.8770  209.0310  148.9730 C   0  0  0  0  0  0  0  0  0  0  0  0
  161.9560  204.5140  149.0920 C   0  0  2  0  0  3  0  0  0  0  0  0
  160.9980  203.9240  151.3070 C   0  0  0  0  0  0  0  0  0  0  0  0
  161.9900  209.9970  149.9750 C   0  0  0  0  0  0  0  0  0  0  0  0
  161.5800  207.7350  149.3040 N   0  0  0  0  0  0  0  0  0  0  0  0
  160.8960  208.6480  155.3620 C   0  0  0  0  0  3  0  0  0  0  0  0
  161.1420  203.5440  148.2610 C   0  0  0  0  0  2  0  0  0  0  0  0
  162.3170  205.0660  146.7670 C   0  0  0  0  0  2  0  0  0  0  0  0
  161.5760  210.7430  153.8500 Cl  0  0  0  0  0  0  0  0  0  0  0  0
  160.9200  205.7480  152.3520 C   0  0  0  0  0  0  0  0  0  0  0  0
  160.5890  207.3260  155.6680 C   0  0  0  0  0  3  0  0  0  0  0  0
  161.2070  208.0650  153.0040 C   0  0  0  0  0  0  0  0  0  0  0  0
  161.2350  206.0300  151.0470 C   0  0  0  0  0  0  0  0  0  0  0  0
  161.0010  202.6850  151.0800 O   0  0  0  0  0  0  0  0  0  0  0  0
  161.2980  204.8560  150.3640 N   0  0  0  0  0  0  0  0  0  0  0  0
  161.6870  203.6840  146.8550 C   0  0  0  0  0  2  0  0  0  0  0  0
  159.8200  206.4410  148.1290 C   0  0  0  0  0  1  0  0  0  0  0  0
  160.5890  206.3640  154.6650 C   0  0  0  0  0  3  0  0  0  0  0  0
  160.8900  206.7200  153.3460 C   0  0  0  0  0  0  0  0  0  0  0  0
  161.2990  206.8190  148.2010 C   0  0  2  0  0  3  0  0  0  0  0  0
  162.3310  211.4150  149.6520 C   0  0  0  0  0  2  0  0  0  0  0  0
  161.2060  212.7990  148.1550 C   0  0  0  0  0  1  0  0  0  0  0  0
  161.1110  212.1800  149.4640 N   0  0  0  0  0  2  0  0  0  0  0  0
  1 19  1  0  0  0  0
  2 13  1  0  0  0  0
  4 20  1  0  0  0  0
  4  1  2  0  0  0  0
  5  1  1  0  0  0  0
  6  8  2  0  0  0  0
  7 15  1  6  0  0  0
  7 27  1  0  0  0  0
  7  9  1  0  0  0  0
  8 12  1  0  0  0  0
  8 11  1  0  0  0  0
  9 14  1  6  0  0  0
  9 22  1  0  0  0  0
 10  3  1  0  0  0  0
 11  5  2  0  0  0  0
 12  4  1  0  0  0  0
 13 18  2  0  0  0  0
 15 23  1  0  0  0  0
 16  2  1  0  0  0  0
 17  3  1  0  0  0  0
 17 26  1  0  0  0  0
 19 26  1  0  0  0  0
 19  2  2  0  0  0  0
 20 17  2  0  0  0  0
 21 10  2  0  0  0  0
 22 20  1  0  0  0  0
 22 10  1  0  0  0  0
 23 14  1  0  0  0  0
 25 18  1  0  0  0  0
 26 25  2  0  0  0  0
 27 24  1  1  0  0  0
 27 12  1  0  0  0  0
 28 11  1  0  0  0  0
 29 30  1  0  0  0  0
 30 28  1  0  0  0  0
M  END
>  <MODEL>
1

>  <REMARK>
 VINA RESULT:      -7.6      0.000      0.000
  Name = 
  2 active torsions:
  status: ('A' for Active; 'I' for Inactive)
    1  A    between atoms: C_11  and  C_28
    2  A    between atoms: C_28  and  N_30
                            x       y       z     vdW  Elec       q    Type
                         _______ _______ _______ _____ _____    ______ ____

>  <TORSDO>
F 2

$$$$
=
 OpenBabel11122412373D

 30 35  0  0  1  0  0  0  0  0999 V2000
  161.1940  205.6990  149.8410 C   0  0  0  0  0  0  0  0  0  0  0  0
  161.1710  203.1870  149.5910 C   0  0  0  0  0  0  0  0  0  0  0  0
  160.9580  205.3800  153.9370 N   0  0  0  0  0  2  0  0  0  0  0  0
  161.2020  206.8490  150.6900 C   0  0  0  0  0  0  0  0  0  0  0  0
  161.2420  205.8900  148.4990 N   0  0  0  0  0  0  0  0  0  0  0  0
  161.5590  209.3850  148.2460 O   0  0  0  0  0  0  0  0  0  0  0  0
  160.5000  209.6560  151.8110 C   0  0  1  0  0  3  0  0  0  0  0  0
  161.4290  208.2400  148.7650 C   0  0  0  0  0  0  0  0  0  0  0  0
  160.4260  208.8960  153.1230 C   0  0  2  0  0  3  0  0  0  0  0  0
  160.8360  206.6970  154.2030 C   0  0  0  0  0  0  0  0  0  0  0  0
  161.3350  207.1170  147.9410 C   0  0  0  0  0  0  0  0  0  0  0  0
  161.3960  208.0920  150.1270 N   0  0  0  0  0  0  0  0  0  0  0  0
  161.1580  201.9320  150.2070 C   0  0  0  0  0  3  0  0  0  0  0  0
  161.1640  209.7510  154.1320 C   0  0  0  0  0  2  0  0  0  0  0  0
  160.6040  211.1220  152.1990 C   0  0  0  0  0  2  0  0  0  0  0  0
  161.1920  203.1530  147.8310 Cl  0  0  0  0  0  0  0  0  0  0  0  0
  161.0910  205.3590  152.6000 C   0  0  0  0  0  0  0  0  0  0  0  0
  161.1350  201.8120  151.5930 C   0  0  0  0  0  3  0  0  0  0  0  0
  161.1630  204.3750  150.3860 C   0  0  0  0  0  0  0  0  0  0  0  0
  161.0760  206.6300  152.0830 C   0  0  0  0  0  0  0  0  0  0  0  0
  160.6260  207.1270  155.3680 O   0  0  0  0  0  0  0  0  0  0  0  0
  160.9020  207.5030  153.1100 N   0  0  0  0  0  0  0  0  0  0  0  0
  160.9180  211.1770  153.6870 C   0  0  0  0  0  2  0  0  0  0  0  0
  163.0420  209.2000  151.6160 C   0  0  0  0  0  1  0  0  0  0  0  0
  161.1210  202.9520  152.3870 C   0  0  0  0  0  3  0  0  0  0  0  0
  161.1380  204.2220  151.8000 C   0  0  0  0  0  0  0  0  0  0  0  0
  161.6800  209.2810  150.9270 C   0  0  2  0  0  3  0  0  0  0  0  0
  161.3470  207.2410  146.4530 C   0  0  0  0  0  2  0  0  0  0  0  0
  161.1090  205.5850  144.8330 C   0  0  0  0  0  1  0  0  0  0  0  0
  160.4010  206.3030  145.8760 N   0  0  0  0  0  2  0  0  0  0  0  0
  1 19  2  0  0  0  0
  1  4  1  0  0  0  0
  2 13  2  0  0  0  0
  2 19  1  0  0  0  0
  3 10  1  0  0  0  0
  4 20  2  0  0  0  0
  5  1  1  0  0  0  0
  6  8  2  0  0  0  0
  7 15  1  1  0  0  0
  7  9  1  0  0  0  0
  8 12  1  0  0  0  0
  9 14  1  1  0  0  0
 10 21  2  0  0  0  0
 11  5  2  0  0  0  0
 11  8  1  0  0  0  0
 12  4  1  0  0  0  0
 12 27  1  0  0  0  0
 13 18  1  0  0  0  0
 15 23  1  0  0  0  0
 16  2  1  0  0  0  0
 17  3  1  0  0  0  0
 18 25  2  0  0  0  0
 19 26  1  0  0  0  0
 20 17  1  0  0  0  0
 20 22  1  0  0  0  0
 22  9  1  0  0  0  0
 22 10  1  0  0  0  0
 23 14  1  0  0  0  0
 26 25  1  0  0  0  0
 26 17  2  0  0  0  0
 27 24  1  1  0  0  0
 27  7  1  0  0  0  0
 28 11  1  0  0  0  0
 29 30  1  0  0  0  0
 30 28  1  0  0  0  0
M  END
>  <MODEL>
2

>  <REMARK>
 VINA RESULT:      -7.5      2.743      5.580
  Name = 
  2 active torsions:
  status: ('A' for Active; 'I' for Inactive)
    1  A    between atoms: C_11  and  C_28
    2  A    between atoms: C_28  and  N_30
                            x       y       z     vdW  Elec       q    Type
                         _______ _______ _______ _____ _____    ______ ____

>  <TORSDO>
F 2

$$$$
=
 OpenBabel11122412373D

 30 35  0  0  1  0  0  0  0  0999 V2000
  161.0610  205.0190  149.0980 C   0  0  0  0  0  0  0  0  0  0  0  0
  160.9630  202.5380  148.6430 C   0  0  0  0  0  0  0  0  0  0  0  0
  161.1360  204.3590  153.1590 N   0  0  0  0  0  2  0  0  0  0  0  0
  161.1600  206.0940  150.0360 C   0  0  0  0  0  0  0  0  0  0  0  0
  161.0090  205.3220  147.7770 N   0  0  0  0  0  0  0  0  0  0  0  0
  161.3820  208.8210  147.7910 O   0  0  0  0  0  0  0  0  0  0  0  0
  160.6090  208.8050  151.4390 C   0  0  1  0  0  3  0  0  0  0  0  0
  161.2680  207.6380  148.2220 C   0  0  0  0  0  0  0  0  0  0  0  0
  160.6200  207.9380  152.6840 C   0  0  2  0  0  3  0  0  0  0  0  0
  161.0640  205.6500  153.5420 C   0  0  0  0  0  0  0  0  0  0  0  0
  161.0850  206.5900  147.3170 C   0  0  0  0  0  0  0  0  0  0  0  0
  161.3380  207.3760  149.5650 N   0  0  0  0  0  0  0  0  0  0  0  0
  160.9710  201.2360  149.1510 C   0  0  0  0  0  3  0  0  0  0  0  0
  161.4530  208.6940  153.7000 C   0  0  0  0  0  2  0  0  0  0  0  0
  160.7750  210.2320  151.9380 C   0  0  0  0  0  2  0  0  0  0  0  0
  160.8480  202.6520  146.8890 Cl  0  0  0  0  0  0  0  0  0  0  0  0
  161.1650  204.4490  151.8180 C   0  0  0  0  0  0  0  0  0  0  0  0
  161.0530  200.9990  150.5200 C   0  0  0  0  0  3  0  0  0  0  0  0
  161.0430  203.6540  149.5320 C   0  0  0  0  0  0  0  0  0  0  0  0
  161.1380  205.7590  151.4110 C   0  0  0  0  0  0  0  0  0  0  0  0
  160.9550  205.9830  154.7520 O   0  0  0  0  0  0  0  0  0  0  0  0
  161.0630  206.5440  152.5190 N   0  0  0  0  0  0  0  0  0  0  0  0
  161.2040  210.1560  153.3960 C   0  0  0  0  0  2  0  0  0  0  0  0
  163.1170  208.3290  151.0060 C   0  0  0  0  0  1  0  0  0  0  0  0
  161.1250  202.0680  151.4050 C   0  0  0  0  0  3  0  0  0  0  0  0
  161.1240  203.3830  150.9260 C   0  0  0  0  0  0  0  0  0  0  0  0
  161.7090  208.4890  150.4360 C   0  0  2  0  0  3  0  0  0  0  0  0
  160.9850  206.8400  145.8480 C   0  0  0  0  0  2  0  0  0  0  0  0
  161.2840  205.2230  144.2000 C   0  0  0  0  0  1  0  0  0  0  0  0
  160.3520  205.7040  145.2010 N   0  0  0  0  0  2  0  0  0  0  0  0
  1 19  2  0  0  0  0
  1  4  1  0  0  0  0
  2 13  2  0  0  0  0
  2 19  1  0  0  0  0
  3 10  1  0  0  0  0
  4 20  2  0  0  0  0
  5  1  1  0  0  0  0
  6  8  2  0  0  0  0
  7 15  1  1  0  0  0
  7  9  1  0  0  0  0
  8 12  1  0  0  0  0
  9 14  1  1  0  0  0
 10 21  2  0  0  0  0
 11  5  2  0  0  0  0
 11  8  1  0  0  0  0
 12  4  1  0  0  0  0
 12 27  1  0  0  0  0
 13 18  1  0  0  0  0
 15 23  1  0  0  0  0
 16  2  1  0  0  0  0
 17  3  1  0  0  0  0
 18 25  2  0  0  0  0
 19 26  1  0  0  0  0
 20 17  1  0  0  0  0
 20 22  1  0  0  0  0
 22  9  1  0  0  0  0
 22 10  1  0  0  0  0
 23 14  1  0  0  0  0
 26 25  1  0  0  0  0
 26 17  2  0  0  0  0
 27 24  1  1  0  0  0
 27  7  1  0  0  0  0
 28 11  1  0  0  0  0
 29 30  1  0  0  0  0
 30 28  1  0  0  0  0
M  END
>  <MODEL>
3

>  <REMARK>
 VINA RESULT:      -7.4      2.878      5.744
  Name = 
  2 active torsions:
  status: ('A' for Active; 'I' for Inactive)
    1  A    between atoms: C_11  and  C_28
    2  A    between atoms: C_28  and  N_30
                            x       y       z     vdW  Elec       q    Type
                         _______ _______ _______ _____ _____    ______ ____

>  <TORSDO>
F 2

$$$$
=
 OpenBabel11122412373D

 30 35  0  0  1  0  0  0  0  0999 V2000
  161.2920  207.9200  151.5830 C   0  0  0  0  0  0  0  0  0  0  0  0
  161.6260  210.3710  151.0780 C   0  0  0  0  0  0  0  0  0  0  0  0
  161.8240  206.9430  147.6210 N   0  0  0  0  0  2  0  0  0  0  0  0
  161.2630  206.5650  151.1290 C   0  0  0  0  0  0  0  0  0  0  0  0
  161.0750  208.1620  152.9000 N   0  0  0  0  0  0  0  0  0  0  0  0
  160.7830  204.9150  154.2230 O   0  0  0  0  0  0  0  0  0  0  0  0
  160.3290  203.6310  150.7520 C   0  0  1  0  0  3  0  0  0  0  0  0
  160.9290  205.8430  153.3770 C   0  0  0  0  0  0  0  0  0  0  0  0
  160.6050  203.9380  149.2920 C   0  0  2  0  0  3  0  0  0  0  0  0
  161.5420  205.6280  147.7310 C   0  0  0  0  0  0  0  0  0  0  0  0
  160.8730  207.1730  153.7980 C   0  0  0  0  0  0  0  0  0  0  0  0
  161.1570  205.5520  152.0570 N   0  0  0  0  0  0  0  0  0  0  0  0
  161.9210  211.3600  150.1360 C   0  0  0  0  0  3  0  0  0  0  0  0
  161.3610  202.7380  148.7580 C   0  0  0  0  0  2  0  0  0  0  0  0
  160.2640  202.1140  150.8400 C   0  0  0  0  0  2  0  0  0  0  0  0
  161.3470  210.9610  152.7140 Cl  0  0  0  0  0  0  0  0  0  0  0  0
  161.7240  207.3750  148.8900 C   0  0  0  0  0  0  0  0  0  0  0  0
  162.1580  211.0360  148.8030 C   0  0  0  0  0  3  0  0  0  0  0  0
  161.5670  209.0000  150.6820 C   0  0  0  0  0  0  0  0  0  0  0  0
  161.4180  206.3420  149.7390 C   0  0  0  0  0  0  0  0  0  0  0  0
  161.4710  204.8740  146.7250 O   0  0  0  0  0  0  0  0  0  0  0  0
  161.2880  205.2090  148.9990 N   0  0  0  0  0  0  0  0  0  0  0  0
  160.8180  201.5590  149.5370 C   0  0  0  0  0  2  0  0  0  0  0  0
  162.8380  203.8740  151.3450 C   0  0  0  0  0  1  0  0  0  0  0  0
  162.1000  209.7100  148.3920 C   0  0  0  0  0  3  0  0  0  0  0  0
  161.8120  208.6960  149.3130 C   0  0  0  0  0  0  0  0  0  0  0  0
  161.3820  204.1500  151.7190 C   0  0  2  0  0  3  0  0  0  0  0  0
  160.6080  207.5270  155.2240 C   0  0  0  0  0  2  0  0  0  0  0  0
  161.9390  208.6250  156.7880 C   0  0  0  0  0  1  0  0  0  0  0  0
  161.2290  208.8020  155.5350 N   0  0  0  0  0  2  0  0  0  0  0  0
  1  5  1  0  0  0  0
  2 16  1  0  0  0  0
  3 10  1  0  0  0  0
  3 17  1  0  0  0  0
  4  1  1  0  0  0  0
  4 12  1  0  0  0  0
  5 11  2  0  0  0  0
  7 15  1  6  0  0  0
  7 27  1  0  0  0  0
  8 11  1  0  0  0  0
  8  6  2  0  0  0  0
  9 14  1  1  0  0  0
  9  7  1  0  0  0  0
 10 22  1  0  0  0  0
 11 28  1  0  0  0  0
 12  8  1  0  0  0  0
 13  2  2  0  0  0  0
 14 23  1  0  0  0  0
 17 26  2  0  0  0  0
 17 20  1  0  0  0  0
 18 13  1  0  0  0  0
 19  2  1  0  0  0  0
 19  1  2  0  0  0  0
 20  4  2  0  0  0  0
 21 10  2  0  0  0  0
 22  9  1  0  0  0  0
 22 20  1  0  0  0  0
 23 15  1  0  0  0  0
 25 18  2  0  0  0  0
 25 26  1  0  0  0  0
 26 19  1  0  0  0  0
 27 24  1  6  0  0  0
 27 12  1  0  0  0  0
 28 30  1  0  0  0  0
 30 29  1  0  0  0  0
M  END
>  <MODEL>
4

>  <REMARK>
 VINA RESULT:      -6.6      1.928      4.878
  Name = 
  2 active torsions:
  status: ('A' for Active; 'I' for Inactive)
    1  A    between atoms: C_11  and  C_28
    2  A    between atoms: C_28  and  N_30
                            x       y       z     vdW  Elec       q    Type
                         _______ _______ _______ _____ _____    ______ ____

>  <TORSDO>
F 2

$$$$
=
 OpenBabel11122412373D

 30 35  0  0  1  0  0  0  0  0999 V2000
  161.3230  207.8670  150.7100 C   0  0  0  0  0  0  0  0  0  0  0  0
  161.4230  205.6720  149.4650 C   0  0  0  0  0  0  0  0  0  0  0  0
  160.7220  205.9120  154.2810 N   0  0  0  0  0  2  0  0  0  0  0  0
  161.2060  208.5730  151.9470 C   0  0  0  0  0  0  0  0  0  0  0  0
  161.4870  208.5860  149.5710 N   0  0  0  0  0  0  0  0  0  0  0  0
  161.6870  211.8820  150.7860 O   0  0  0  0  0  0  0  0  0  0  0  0
  160.2930  210.6830  154.0300 C   0  0  1  0  0  3  0  0  0  0  0  0
  161.5550  210.6250  150.7820 C   0  0  0  0  0  0  0  0  0  0  0  0
  160.1280  209.4560  154.9080 C   0  0  2  0  0  3  0  0  0  0  0  0
  160.5230  207.0080  155.0430 C   0  0  0  0  0  0  0  0  0  0  0  0
  161.5830  209.9340  149.5690 C   0  0  0  0  0  0  0  0  0  0  0  0
  161.4030  209.9370  151.9580 N   0  0  0  0  0  0  0  0  0  0  0  0
  161.4040  204.2760  149.5170 C   0  0  0  0  0  3  0  0  0  0  0  0
  160.7340  209.8270  156.2460 C   0  0  0  0  0  2  0  0  0  0  0  0
  160.3020  211.8660  154.9860 C   0  0  0  0  0  2  0  0  0  0  0  0
  161.6090  206.3560  147.8530 Cl  0  0  0  0  0  0  0  0  0  0  0  0
  160.9790  206.4360  153.0700 C   0  0  0  0  0  0  0  0  0  0  0  0
  161.2570  203.6030  150.7260 C   0  0  0  0  0  3  0  0  0  0  0  0
  161.2940  206.4350  150.6670 C   0  0  0  0  0  0  0  0  0  0  0  0
  160.9610  207.8070  153.1120 C   0  0  0  0  0  0  0  0  0  0  0  0
  160.1900  206.9280  156.2540 O   0  0  0  0  0  0  0  0  0  0  0  0
  160.6580  208.1880  154.3820 N   0  0  0  0  0  0  0  0  0  0  0  0
  160.4740  211.3120  156.3920 C   0  0  0  0  0  2  0  0  0  0  0  0
  162.8580  210.3430  153.9240 C   0  0  0  0  0  1  0  0  0  0  0  0
  161.1240  204.3220  151.9070 C   0  0  0  0  0  3  0  0  0  0  0  0
  161.1440  205.7210  151.8890 C   0  0  0  0  0  0  0  0  0  0  0  0
  161.5640  210.6980  153.1940 C   0  0  2  0  0  3  0  0  0  0  0  0
  161.7280  210.6520  148.2680 C   0  0  0  0  0  2  0  0  0  0  0  0
  162.6720  212.6460  147.5240 C   0  0  0  0  0  1  0  0  0  0  0  0
  162.9490  211.4390  148.2780 N   0  0  0  0  0  2  0  0  0  0  0  0
  1  4  1  0  0  0  0
  2 13  2  0  0  0  0
  2 19  1  0  0  0  0
  3 10  1  0  0  0  0
  4 12  1  0  0  0  0
  4 20  2  0  0  0  0
  5  1  1  0  0  0  0
  7  9  1  0  0  0  0
  7 15  1  1  0  0  0
  8  6  2  0  0  0  0
  8 12  1  0  0  0  0
  9 14  1  1  0  0  0
 10 21  2  0  0  0  0
 11  5  2  0  0  0  0
 11  8  1  0  0  0  0
 12 27  1  0  0  0  0
 13 18  1  0  0  0  0
 14 23  1  0  0  0  0
 15 23  1  0  0  0  0
 16  2  1  0  0  0  0
 17 20  1  0  0  0  0
 17  3  1  0  0  0  0
 18 25  2  0  0  0  0
 19  1  2  0  0  0  0
 19 26  1  0  0  0  0
 20 22  1  0  0  0  0
 22  9  1  0  0  0  0
 22 10  1  0  0  0  0
 26 25  1  0  0  0  0
 26 17  2  0  0  0  0
 27 24  1  1  0  0  0
 27  7  1  0  0  0  0
 28 30  1  0  0  0  0
 28 11  1  0  0  0  0
 29 30  1  0  0  0  0
M  END
>  <MODEL>
5

>  <REMARK>
 VINA RESULT:      -6.3      2.497      5.662
  Name = 
  2 active torsions:
  status: ('A' for Active; 'I' for Inactive)
    1  A    between atoms: C_11  and  C_28
    2  A    between atoms: C_28  and  N_30
                            x       y       z     vdW  Elec       q    Type
                         _______ _______ _______ _____ _____    ______ ____

>  <TORSDO>
F 2

$$$$
=
 OpenBabel11122412373D

 30 35  0  0  1  0  0  0  0  0999 V2000
  160.2440  211.9540  151.9970 C   0  0  0  0  0  0  0  0  0  0  0  0
  160.7050  212.9560  149.7260 C   0  0  0  0  0  0  0  0  0  0  0  0
  162.2730  208.5190  150.9880 N   0  0  0  0  0  2  0  0  0  0  0  0
  160.4150  210.8780  152.9230 C   0  0  0  0  0  0  0  0  0  0  0  0
  159.5340  213.0390  152.3950 N   0  0  0  0  0  0  0  0  0  0  0  0
  158.8110  212.2740  155.7530 O   0  0  0  0  0  0  0  0  0  0  0  0
  159.7470  208.7310  155.0600 C   0  0  1  0  0  3  0  0  0  0  0  0
  159.2550  212.1470  154.5760 C   0  0  0  0  0  0  0  0  0  0  0  0
  160.5570  207.8420  154.1350 C   0  0  2  0  0  3  0  0  0  0  0  0
  161.9920  207.8210  152.1080 C   0  0  0  0  0  0  0  0  0  0  0  0
  159.0200  213.1560  153.6390 C   0  0  0  0  0  0  0  0  0  0  0  0
  159.9770  211.0390  154.2200 N   0  0  0  0  0  0  0  0  0  0  0  0
  161.3230  212.8360  148.4780 C   0  0  0  0  0  3  0  0  0  0  0  0
  161.4800  207.0490  155.0380 C   0  0  0  0  0  2  0  0  0  0  0  0
  159.6780  207.9830  156.3820 C   0  0  0  0  0  2  0  0  0  0  0  0
  159.8100  214.4530  149.9730 Cl  0  0  0  0  0  0  0  0  0  0  0  0
  161.6870  209.7050  151.2240 C   0  0  0  0  0  0  0  0  0  0  0  0
  162.0580  211.7020  148.1460 C   0  0  0  0  0  3  0  0  0  0  0  0
  160.8260  211.9070  150.6890 C   0  0  0  0  0  0  0  0  0  0  0  0
  161.0950  209.7260  152.4610 C   0  0  0  0  0  0  0  0  0  0  0  0
  162.3260  206.6140  152.2450 O   0  0  0  0  0  0  0  0  0  0  0  0
  161.2790  208.5080  153.0380 N   0  0  0  0  0  0  0  0  0  0  0  0
  160.6990  206.8570  156.3210 C   0  0  0  0  0  2  0  0  0  0  0  0
  161.8310  210.1640  155.6160 C   0  0  0  0  0  1  0  0  0  0  0  0
  162.1850  210.6660  149.0630 C   0  0  0  0  0  3  0  0  0  0  0  0
  161.5830  210.7590  150.3230 C   0  0  0  0  0  0  0  0  0  0  0  0
  160.3390  210.1140  155.2910 C   0  0  2  0  0  3  0  0  0  0  0  0
  158.2210  214.3690  153.9870 C   0  0  0  0  0  2  0  0  0  0  0  0
  155.9450  213.8920  153.8660 C   0  0  0  0  0  1  0  0  0  0  0  0
  157.0570  214.4510  153.1220 N   0  0  0  0  0  2  0  0  0  0  0  0
  1  5  1  0  0  0  0
  1  4  1  0  0  0  0
  2 16  1  0  0  0  0
  2 19  1  0  0  0  0
  3 17  1  0  0  0  0
  3 10  1  0  0  0  0
  4 12  1  0  0  0  0
  5 11  2  0  0  0  0
  7 27  1  0  0  0  0
  7 15  1  1  0  0  0
  8  6  2  0  0  0  0
  9 14  1  1  0  0  0
  9  7  1  0  0  0  0
 10 21  2  0  0  0  0
 10 22  1  0  0  0  0
 11 28  1  0  0  0  0
 11  8  1  0  0  0  0
 12  8  1  0  0  0  0
 12 27  1  0  0  0  0
 13  2  2  0  0  0  0
 14 23  1  0  0  0  0
 17 20  1  0  0  0  0
 18 13  1  0  0  0  0
 18 25  2  0  0  0  0
 19  1  2  0  0  0  0
 20  4  2  0  0  0  0
 20 22  1  0  0  0  0
 22  9  1  0  0  0  0
 23 15  1  0  0  0  0
 25 26  1  0  0  0  0
 26 19  1  0  0  0  0
 26 17  2  0  0  0  0
 27 24  1  6  0  0  0
 30 29  1  0  0  0  0
 30 28  1  0  0  0  0
M  END
>  <MODEL>
6

>  <REMARK>
 VINA RESULT:      -5.4      3.502      6.622
  Name = 
  2 active torsions:
  status: ('A' for Active; 'I' for Inactive)
    1  A    between atoms: C_11  and  C_28
    2  A    between atoms: C_28  and  N_30
                            x       y       z     vdW  Elec       q    Type
                         _______ _______ _______ _____ _____    ______ ____

>  <TORSDO>
F 2

$$$$
=
 OpenBabel11122412373D

 30 35  0  0  1  0  0  0  0  0999 V2000
  161.4580  206.1620  150.3650 C   0  0  0  0  0  0  0  0  0  0  0  0
  161.1510  205.3720  152.7430 C   0  0  0  0  0  0  0  0  0  0  0  0
  160.7100  202.3820  148.9220 N   0  0  0  0  0  2  0  0  0  0  0  0
  161.4350  205.8800  148.9640 C   0  0  0  0  0  0  0  0  0  0  0  0
  161.7450  207.4280  150.7620 N   0  0  0  0  0  0  0  0  0  0  0  0
  162.0330  209.1300  147.6960 O   0  0  0  0  0  0  0  0  0  0  0  0
  162.2870  205.8290  145.9820 C   0  0  1  0  0  3  0  0  0  0  0  0
  161.8650  208.1830  148.5160 C   0  0  0  0  0  0  0  0  0  0  0  0
  161.9450  204.3560  146.1140 C   0  0  2  0  0  3  0  0  0  0  0  0
  160.9690  202.6420  147.6230 C   0  0  0  0  0  0  0  0  0  0  0  0
  161.9700  208.4310  149.8860 C   0  0  0  0  0  0  0  0  0  0  0  0
  161.5660  206.9210  148.0710 N   0  0  0  0  0  0  0  0  0  0  0  0
  160.8310  204.3280  153.6160 C   0  0  0  0  0  3  0  0  0  0  0  0
  161.1390  204.0120  144.8780 C   0  0  0  0  0  2  0  0  0  0  0  0
  162.3250  206.1020  144.4860 C   0  0  0  0  0  2  0  0  0  0  0  0
  161.5230  206.9070  153.5230 Cl  0  0  0  0  0  0  0  0  0  0  0  0
  160.8810  203.5810  149.5040 C   0  0  0  0  0  0  0  0  0  0  0  0
  160.5220  203.0590  153.1360 C   0  0  0  0  0  3  0  0  0  0  0  0
  161.1620  205.1480  151.3320 C   0  0  0  0  0  0  0  0  0  0  0  0
  161.2070  204.5380  148.5760 C   0  0  0  0  0  0  0  0  0  0  0  0
  160.9730  201.7360  146.7490 O   0  0  0  0  0  0  0  0  0  0  0  0
  161.2760  203.9390  147.3570 N   0  0  0  0  0  0  0  0  0  0  0  0
  161.6950  204.9050  143.7900 C   0  0  0  0  0  2  0  0  0  0  0  0
  159.8160  206.5030  146.3640 C   0  0  0  0  0  1  0  0  0  0  0  0
  160.5310  202.8140  151.7690 C   0  0  0  0  0  3  0  0  0  0  0  0
  160.8430  203.8400  150.8690 C   0  0  0  0  0  0  0  0  0  0  0  0
  161.2940  206.7720  146.6440 C   0  0  2  0  0  3  0  0  0  0  0  0
  162.3130  209.7890  150.4060 C   0  0  0  0  0  2  0  0  0  0  0  0
  160.9800  210.6820  152.0940 C   0  0  0  0  0  1  0  0  0  0  0  0
  162.1220  209.8230  151.8460 N   0  0  0  0  0  2  0  0  0  0  0  0
  1  5  1  0  0  0  0
  1 19  1  0  0  0  0
  2 16  1  0  0  0  0
  2 13  1  0  0  0  0
  3 17  1  0  0  0  0
  4  1  2  0  0  0  0
  6  8  2  0  0  0  0
  7 15  1  6  0  0  0
  7  9  1  0  0  0  0
  7 27  1  0  0  0  0
  8 11  1  0  0  0  0
  9 14  1  6  0  0  0
  9 22  1  0  0  0  0
 10  3  1  0  0  0  0
 11 28  1  0  0  0  0
 11  5  2  0  0  0  0
 12  8  1  0  0  0  0
 12  4  1  0  0  0  0
 17 26  1  0  0  0  0
 18 13  2  0  0  0  0
 19  2  2  0  0  0  0
 20  4  1  0  0  0  0
 20 17  2  0  0  0  0
 21 10  2  0  0  0  0
 22 10  1  0  0  0  0
 22 20  1  0  0  0  0
 23 15  1  0  0  0  0
 23 14  1  0  0  0  0
 25 18  1  0  0  0  0
 26 19  1  0  0  0  0
 26 25  2  0  0  0  0
 27 24  1  1  0  0  0
 27 12  1  0  0  0  0
 28 30  1  0  0  0  0
 30 29  1  0  0  0  0
M  END
>  <MODEL>
7

>  <REMARK>
 VINA RESULT:      -5.3      2.266      3.225
  Name = 
  2 active torsions:
  status: ('A' for Active; 'I' for Inactive)
    1  A    between atoms: C_11  and  C_28
    2  A    between atoms: C_28  and  N_30
                            x       y       z     vdW  Elec       q    Type
                         _______ _______ _______ _____ _____    ______ ____

>  <TORSDO>
F 2

$$$$
=
 OpenBabel11122412373D

 30 35  0  0  1  0  0  0  0  0999 V2000
  161.2320  203.9420  148.5880 C   0  0  0  0  0  0  0  0  0  0  0  0
  160.7110  201.5880  149.3350 C   0  0  0  0  0  0  0  0  0  0  0  0
  161.2070  205.2740  152.4810 N   0  0  0  0  0  2  0  0  0  0  0  0
  161.5150  205.3030  148.9220 C   0  0  0  0  0  0  0  0  0  0  0  0
  161.2270  203.5890  147.2780 N   0  0  0  0  0  0  0  0  0  0  0  0
  162.1900  206.5780  145.6900 O   0  0  0  0  0  0  0  0  0  0  0  0
  161.4390  208.4040  148.8530 C   0  0  1  0  0  3  0  0  0  0  0  0
  161.8780  205.7720  146.6120 C   0  0  0  0  0  0  0  0  0  0  0  0
  161.3070  208.2370  150.3560 C   0  0  2  0  0  3  0  0  0  0  0  0
  161.3580  206.5880  152.2120 C   0  0  0  0  0  0  0  0  0  0  0  0
  161.5170  204.4620  146.2880 C   0  0  0  0  0  0  0  0  0  0  0  0
  161.9070  206.1680  147.9230 N   0  0  0  0  0  0  0  0  0  0  0  0
  160.4990  200.6960  150.3890 C   0  0  0  0  0  3  0  0  0  0  0  0
  162.2590  209.2470  150.9630 C   0  0  0  0  0  2  0  0  0  0  0  0
  161.8470  209.8540  148.6410 C   0  0  0  0  0  2  0  0  0  0  0  0
  160.6110  200.8770  147.7260 Cl  0  0  0  0  0  0  0  0  0  0  0  0
  161.2460  204.7160  151.2590 C   0  0  0  0  0  0  0  0  0  0  0  0
  160.5440  201.1240  151.7130 C   0  0  0  0  0  3  0  0  0  0  0  0
  160.9830  202.9640  149.6040 C   0  0  0  0  0  0  0  0  0  0  0  0
  161.4410  205.6650  150.2890 C   0  0  0  0  0  0  0  0  0  0  0  0
  161.3110  207.4650  153.1150 O   0  0  0  0  0  0  0  0  0  0  0  0
  161.5050  206.8810  150.8930 N   0  0  0  0  0  0  0  0  0  0  0  0
  162.2620  210.4110  149.9950 C   0  0  0  0  0  2  0  0  0  0  0  0
  163.8280  207.4050  148.8880 C   0  0  0  0  0  1  0  0  0  0  0  0
  160.8000  202.4590  152.0010 C   0  0  0  0  0  3  0  0  0  0  0  0
  161.0220  203.3750  150.9660 C   0  0  0  0  0  0  0  0  0  0  0  0
  162.4650  207.4890  148.2020 C   0  0  2  0  0  3  0  0  0  0  0  0
  161.4560  204.0010  144.8690 C   0  0  0  0  0  2  0  0  0  0  0  0
  159.7090  202.5030  144.5090 C   0  0  0  0  0  1  0  0  0  0  0  0
  160.0690  203.9070  144.4450 N   0  0  0  0  0  2  0  0  0  0  0  0
  1  4  2  0  0  0  0
  1 19  1  0  0  0  0
  2 19  2  0  0  0  0
  2 13  1  0  0  0  0
  4 20  1  0  0  0  0
  5  1  1  0  0  0  0
  6  8  2  0  0  0  0
  7 15  1  1  0  0  0
  7  9  1  0  0  0  0
  8 12  1  0  0  0  0
  9 22  1  0  0  0  0
  9 14  1  1  0  0  0
 10  3  1  0  0  0  0
 10 21  2  0  0  0  0
 11  8  1  0  0  0  0
 11  5  2  0  0  0  0
 12 27  1  0  0  0  0
 12  4  1  0  0  0  0
 13 18  2  0  0  0  0
 15 23  1  0  0  0  0
 16  2  1  0  0  0  0
 17  3  1  0  0  0  0
 18 25  1  0  0  0  0
 19 26  1  0  0  0  0
 20 22  1  0  0  0  0
 20 17  2  0  0  0  0
 22 10  1  0  0  0  0
 23 14  1  0  0  0  0
 26 17  1  0  0  0  0
 26 25  2  0  0  0  0
 27  7  1  0  0  0  0
 27 24  1  1  0  0  0
 28 11  1  0  0  0  0
 30 29  1  0  0  0  0
 30 28  1  0  0  0  0
M  END
>  <MODEL>
8

>  <REMARK>
 VINA RESULT:      -4.8      3.142      6.068
  Name = 
  2 active torsions:
  status: ('A' for Active; 'I' for Inactive)
    1  A    between atoms: C_11  and  C_28
    2  A    between atoms: C_28  and  N_30
                            x       y       z     vdW  Elec       q    Type
                         _______ _______ _______ _____ _____    ______ ____

>  <TORSDO>
F 2

$$$$
