=
 OpenBabel11122412463D

 30 35  0  0  1  0  0  0  0  0999 V2000
  161.1360  205.1040  149.2870 C   0  0  1  0  0  3  0  0  0  0  0  0
  160.6810  202.6730  149.2470 C   0  0  0  0  0  0  0  0  0  0  0  0
  161.2880  205.0530  153.5010 N   0  0  0  0  0  0  0  0  0  0  0  0
  161.0600  206.4520  150.0300 C   0  0  2  0  0  3  0  0  0  0  0  0
  161.5390  205.1350  147.8680 C   0  0  0  0  0  3  0  0  0  0  0  0
  163.4770  208.0970  147.8080 O   0  0  0  0  0  0  0  0  0  0  0  0
  160.9210  209.1470  151.1350 C   0  0  1  0  0  3  0  0  0  0  0  0
  162.5860  207.2930  148.1980 C   0  0  0  0  0  0  0  0  0  0  0  0
  161.4870  208.5120  152.3090 N   0  0  0  0  0  0  0  0  0  0  0  0
  161.5010  206.3160  153.7070 C   0  0  2  0  0  3  0  0  0  0  0  0
  162.2160  206.1520  147.3510 C   0  0  0  0  0  0  0  0  0  0  0  0
  161.8890  207.5250  149.4370 N   0  0  0  0  0  0  0  0  0  0  0  0
  160.4900  201.5240  149.9480 N   0  0  0  0  0  0  0  0  0  0  0  0
  161.6830  209.4220  153.4180 C   0  0  0  0  0  2  0  0  0  0  0  0
  160.8450  210.6280  151.4780 C   0  0  0  0  0  2  0  0  0  0  0  0
  160.5820  202.6020  147.8270 N   0  0  0  0  0  1  0  0  0  0  0  0
  161.1890  204.9450  152.0830 C   0  0  0  0  0  0  0  0  0  0  0  0
  160.5050  201.4790  151.3010 C   0  0  0  0  0  3  0  0  0  0  0  0
  160.8970  203.9080  149.9350 C   0  0  0  0  0  0  0  0  0  0  0  0
  161.3760  206.2270  151.4700 C   0  0  0  0  0  0  0  0  0  0  0  0
  161.6320  206.8660  155.0120 N   0  0  0  0  0  1  0  0  0  0  0  0
  161.5310  207.0900  152.4540 C   0  0  0  0  0  0  0  0  0  0  0  0
  161.0940  210.7460  152.9740 C   0  0  0  0  0  2  0  0  0  0  0  0
  161.3390  209.7350  148.8550 O   0  0  0  0  0  1  0  0  0  0  0  0
  160.7200  202.6380  152.0320 C   0  0  0  0  0  3  0  0  0  0  0  0
  160.9160  203.8490  151.3680 C   0  0  0  0  0  0  0  0  0  0  0  0
  161.8080  208.9290  149.8990 C   0  0  1  0  0  3  0  0  0  0  0  0
  162.6640  206.0760  145.9300 C   0  0  0  0  0  2  0  0  0  0  0  0
  161.2920  205.3110  144.2090 C   0  0  0  0  0  1  0  0  0  0  0  0
  162.1320  204.8760  145.3090 N   0  0  0  0  0  2  0  0  0  0  0  0
  1  5  1  1  0  0  0
  1 19  1  0  0  0  0
  1  4  1  0  0  0  0
  2 19  2  0  0  0  0
  2 13  1  0  0  0  0
  3 10  1  0  0  0  0
  4 20  1  1  0  0  0
  6  8  2  0  0  0  0
  7 15  1  1  0  0  0
  7  9  1  0  0  0  0
  8 12  1  0  0  0  0
  9 22  1  0  0  0  0
  9 14  1  0  0  0  0
 10 21  1  1  0  0  0
 11  5  2  0  0  0  0
 11  8  1  0  0  0  0
 12 27  1  0  0  0  0
 12  4  1  0  0  0  0
 13 18  2  0  0  0  0
 15 23  1  0  0  0  0
 16  2  1  0  0  0  0
 17  3  2  0  0  0  0
 18 25  1  0  0  0  0
 19 26  1  0  0  0  0
 20 17  1  0  0  0  0
 20 22  2  0  0  0  0
 22 10  1  0  0  0  0
 23 14  1  0  0  0  0
 26 25  2  0  0  0  0
 26 17  1  0  0  0  0
 27 24  1  6  0  0  0
 27  7  1  0  0  0  0
 28 11  1  0  0  0  0
 29 30  1  0  0  0  0
 30 28  1  0  0  0  0
M  END
>  <MODEL>
1

>  <REMARK>
 VINA RESULT:      -6.9      0.000      0.000
  Name = 
  2 active torsions:
  status: ('A' for Active; 'I' for Inactive)
    1  A    between atoms: C_11  and  C_28
    2  A    between atoms: C_28  and  N_30
                            x       y       z     vdW  Elec       q    Type
                         _______ _______ _______ _____ _____    ______ ____

>  <TORSDO>
F 2

$$$$
=
 OpenBabel11122412463D

 30 35  0  0  1  0  0  0  0  0999 V2000
  161.0820  208.0260  151.2360 C   0  0  1  0  0  3  0  0  0  0  0  0
  161.2610  210.4700  150.8980 C   0  0  0  0  0  0  0  0  0  0  0  0
  162.3940  207.3380  147.2880 N   0  0  0  0  0  0  0  0  0  0  0  0
  160.8770  206.6200  150.6400 C   0  0  2  0  0  3  0  0  0  0  0  0
  161.0580  208.1480  152.7060 C   0  0  0  0  0  3  0  0  0  0  0  0
  162.0950  204.8960  153.6450 O   0  0  0  0  0  0  0  0  0  0  0  0
  160.3720  203.8690  149.8140 C   0  0  1  0  0  3  0  0  0  0  0  0
  161.5770  205.7930  152.9250 C   0  0  0  0  0  0  0  0  0  0  0  0
  161.3800  204.1650  148.8140 N   0  0  0  0  0  0  0  0  0  0  0  0
  162.3300  206.0420  147.2810 C   0  0  0  0  0  0  0  0  0  0  0  0
  161.2880  207.1130  153.5030 C   0  0  0  0  0  0  0  0  0  0  0  0
  161.2130  205.5100  151.5610 N   0  0  0  0  0  0  0  0  0  0  0  0
  161.5650  211.4990  150.0640 N   0  0  0  0  0  0  0  0  0  0  0  0
  161.6370  203.0610  147.9120 C   0  0  0  0  0  2  0  0  0  0  0  0
  160.0230  202.4020  149.6090 C   0  0  0  0  0  2  0  0  0  0  0  0
  160.7960  210.7970  152.2060 N   0  0  0  0  0  1  0  0  0  0  0  0
  161.9400  207.7000  148.5900 C   0  0  2  0  0  3  0  0  0  0  0  0
  161.9630  211.3130  148.7840 C   0  0  0  0  0  3  0  0  0  0  0  0
  161.3390  209.1200  150.4330 C   0  0  0  0  0  0  0  0  0  0  0  0
  161.6220  206.5290  149.3520 C   0  0  0  0  0  0  0  0  0  0  0  0
  162.6720  205.2670  146.1390 N   0  0  0  0  0  1  0  0  0  0  0  0
  161.8190  205.5000  148.5520 C   0  0  0  0  0  0  0  0  0  0  0  0
  160.6360  201.9850  148.2800 C   0  0  0  0  0  2  0  0  0  0  0  0
  159.9850  203.5960  152.1570 O   0  0  0  0  0  1  0  0  0  0  0  0
  162.0710  210.0290  148.2700 C   0  0  0  0  0  3  0  0  0  0  0  0
  161.7650  208.9330  149.0760 C   0  0  0  0  0  0  0  0  0  0  0  0
  160.9100  204.0980  151.2340 C   0  0  1  0  0  3  0  0  0  0  0  0
  161.3320  207.3290  154.9780 C   0  0  0  0  0  2  0  0  0  0  0  0
  160.0780  206.9550  156.9050 C   0  0  0  0  0  1  0  0  0  0  0  0
  159.9820  207.3510  155.5130 N   0  0  0  0  0  2  0  0  0  0  0  0
  1  5  1  1  0  0  0
  2 16  1  0  0  0  0
  4 20  1  6  0  0  0
  4  1  1  0  0  0  0
  4 12  1  0  0  0  0
  5 11  2  0  0  0  0
  7 15  1  1  0  0  0
  7 27  1  0  0  0  0
  8 11  1  0  0  0  0
  8  6  2  0  0  0  0
  9  7  1  0  0  0  0
 10  3  2  0  0  0  0
 10 22  1  0  0  0  0
 11 28  1  0  0  0  0
 12  8  1  0  0  0  0
 13  2  2  0  0  0  0
 14 23  1  0  0  0  0
 14  9  1  0  0  0  0
 17  3  1  6  0  0  0
 17 26  1  0  0  0  0
 17 20  1  0  0  0  0
 18 13  1  0  0  0  0
 19  2  1  0  0  0  0
 19  1  1  0  0  0  0
 21 10  1  0  0  0  0
 22  9  1  0  0  0  0
 22 20  2  0  0  0  0
 23 15  1  0  0  0  0
 25 18  2  0  0  0  0
 25 26  1  0  0  0  0
 26 19  2  0  0  0  0
 27 12  1  0  0  0  0
 27 24  1  1  0  0  0
 28 30  1  0  0  0  0
 30 29  1  0  0  0  0
M  END
>  <MODEL>
2

>  <REMARK>
 VINA RESULT:      -6.8      2.407      7.323
  Name = 
  2 active torsions:
  status: ('A' for Active; 'I' for Inactive)
    1  A    between atoms: C_11  and  C_28
    2  A    between atoms: C_28  and  N_30
                            x       y       z     vdW  Elec       q    Type
                         _______ _______ _______ _____ _____    ______ ____

>  <TORSDO>
F 2

$$$$
=
 OpenBabel11122412463D

 30 35  0  0  1  0  0  0  0  0999 V2000
  161.0330  207.5220  150.8510 C   0  0  1  0  0  3  0  0  0  0  0  0
  161.1620  205.2550  149.8700 C   0  0  0  0  0  0  0  0  0  0  0  0
  160.9890  205.8860  154.7380 N   0  0  0  0  0  0  0  0  0  0  0  0
  160.6080  208.4350  152.0160 C   0  0  2  0  0  3  0  0  0  0  0  0
  161.4860  208.1750  149.6080 C   0  0  0  0  0  3  0  0  0  0  0  0
  162.6780  211.2520  150.8890 O   0  0  0  0  0  0  0  0  0  0  0  0
  159.7890  210.4140  153.9960 C   0  0  1  0  0  3  0  0  0  0  0  0
  161.9820  210.2010  150.8370 C   0  0  0  0  0  0  0  0  0  0  0  0
  160.4300  209.5020  154.9230 N   0  0  0  0  0  0  0  0  0  0  0  0
  160.8890  206.9870  155.4150 C   0  0  2  0  0  3  0  0  0  0  0  0
  161.9310  209.4240  149.5910 C   0  0  0  0  0  0  0  0  0  0  0  0
  161.1910  209.7960  151.9710 N   0  0  0  0  0  0  0  0  0  0  0  0
  161.2110  203.9110  150.0720 N   0  0  0  0  0  0  0  0  0  0  0  0
  160.3530  209.9350  156.3030 C   0  0  0  0  0  2  0  0  0  0  0  0
  159.3520  211.6020  154.8410 C   0  0  0  0  0  2  0  0  0  0  0  0
  161.1510  205.7170  148.5210 N   0  0  0  0  0  1  0  0  0  0  0  0
  160.9860  206.3140  153.3780 C   0  0  0  0  0  0  0  0  0  0  0  0
  161.1710  203.3530  151.3050 C   0  0  0  0  0  3  0  0  0  0  0  0
  161.0490  206.1460  150.9820 C   0  0  0  0  0  0  0  0  0  0  0  0
  160.8970  207.7420  153.3040 C   0  0  0  0  0  0  0  0  0  0  0  0
  160.8250  207.0070  156.8360 N   0  0  0  0  0  1  0  0  0  0  0  0
  160.7990  208.1730  154.5460 C   0  0  0  0  0  0  0  0  0  0  0  0
  159.4930  211.1820  156.2970 C   0  0  0  0  0  2  0  0  0  0  0  0
  160.1670  211.9030  152.1640 O   0  0  0  0  0  1  0  0  0  0  0  0
  161.0730  204.1600  152.4290 C   0  0  0  0  0  3  0  0  0  0  0  0
  161.0120  205.5460  152.2840 C   0  0  0  0  0  0  0  0  0  0  0  0
  160.7600  210.8680  152.8960 C   0  0  1  0  0  3  0  0  0  0  0  0
  162.4520  209.9910  148.3140 C   0  0  0  0  0  2  0  0  0  0  0  0
  162.5680  212.2430  147.7290 C   0  0  0  0  0  1  0  0  0  0  0  0
  161.6500  211.1350  147.9190 N   0  0  0  0  0  2  0  0  0  0  0  0
  1  5  1  1  0  0  0
  1 19  1  0  0  0  0
  1  4  1  0  0  0  0
  2 13  2  0  0  0  0
  2 19  1  0  0  0  0
  3 10  1  0  0  0  0
  4 20  1  1  0  0  0
  7 15  1  1  0  0  0
  7  9  1  0  0  0  0
  8  6  2  0  0  0  0
  8 12  1  0  0  0  0
  9 14  1  0  0  0  0
 10 21  1  6  0  0  0
 11  5  2  0  0  0  0
 11  8  1  0  0  0  0
 12  4  1  0  0  0  0
 12 27  1  0  0  0  0
 13 18  1  0  0  0  0
 15 23  1  0  0  0  0
 16  2  1  0  0  0  0
 17  3  2  0  0  0  0
 18 25  2  0  0  0  0
 19 26  2  0  0  0  0
 20 17  1  0  0  0  0
 20 22  2  0  0  0  0
 22  9  1  0  0  0  0
 22 10  1  0  0  0  0
 23 14  1  0  0  0  0
 26 25  1  0  0  0  0
 26 17  1  0  0  0  0
 27 24  1  6  0  0  0
 27  7  1  0  0  0  0
 28 11  1  0  0  0  0
 29 30  1  0  0  0  0
 30 28  1  0  0  0  0
M  END
>  <MODEL>
3

>  <REMARK>
 VINA RESULT:      -6.7      2.268      3.546
  Name = 
  2 active torsions:
  status: ('A' for Active; 'I' for Inactive)
    1  A    between atoms: C_11  and  C_28
    2  A    between atoms: C_28  and  N_30
                            x       y       z     vdW  Elec       q    Type
                         _______ _______ _______ _____ _____    ______ ____

>  <TORSDO>
F 2

$$$$
=
 OpenBabel11122412463D

 30 35  0  0  1  0  0  0  0  0999 V2000
  161.6380  210.5060  150.3830 C   0  0  1  0  0  3  0  0  0  0  0  0
  161.7900  212.4040  148.8040 C   0  0  0  0  0  0  0  0  0  0  0  0
  159.1990  212.7850  152.9600 N   0  0  0  0  0  0  0  0  0  0  0  0
  161.4320  209.9970  151.8220 C   0  0  2  0  0  3  0  0  0  0  0  0
  162.0830  209.5260  149.3740 C   0  0  0  0  0  3  0  0  0  0  0  0
  160.8090  206.5330  150.7720 O   0  0  0  0  0  0  0  0  0  0  0  0
  161.2170  208.7610  154.4550 C   0  0  1  0  0  3  0  0  0  0  0  0
  161.2540  207.7130  150.7490 C   0  0  0  0  0  0  0  0  0  0  0  0
  160.0390  209.6000  154.5650 N   0  0  0  0  0  0  0  0  0  0  0  0
  159.0390  211.9110  153.9050 C   0  0  2  0  0  3  0  0  0  0  0  0
  161.9080  208.2210  149.5360 C   0  0  0  0  0  0  0  0  0  0  0  0
  161.1770  208.5420  151.9250 N   0  0  0  0  0  0  0  0  0  0  0  0
  161.4480  213.6850  148.5050 N   0  0  0  0  0  0  0  0  0  0  0  0
  159.3630  209.4780  155.8390 C   0  0  0  0  0  2  0  0  0  0  0  0
  161.2430  207.9390  155.7350 C   0  0  0  0  0  2  0  0  0  0  0  0
  162.6430  211.7200  147.8890 N   0  0  0  0  0  1  0  0  0  0  0  0
  160.0470  212.1280  152.0210 C   0  0  0  0  0  0  0  0  0  0  0  0
  160.6890  214.4530  149.3230 C   0  0  0  0  0  3  0  0  0  0  0  0
  161.3600  211.8130  150.0330 C   0  0  0  0  0  0  0  0  0  0  0  0
  160.3580  210.8030  152.4700 C   0  0  0  0  0  0  0  0  0  0  0  0
  158.2710  212.1800  155.0720 N   0  0  0  0  0  1  0  0  0  0  0  0
  159.7780  210.6640  153.6460 C   0  0  0  0  0  0  0  0  0  0  0  0
  160.2290  208.5640  156.6810 C   0  0  0  0  0  2  0  0  0  0  0  0
  162.1790  206.9090  153.2890 O   0  0  0  0  0  1  0  0  0  0  0  0
  160.2290  213.9390  150.5270 C   0  0  0  0  0  3  0  0  0  0  0  0
  160.5540  212.6320  150.8910 C   0  0  0  0  0  0  0  0  0  0  0  0
  161.1360  207.8400  153.2280 C   0  0  1  0  0  3  0  0  0  0  0  0
  162.3070  207.2940  148.4370 C   0  0  0  0  0  2  0  0  0  0  0  0
  161.2260  205.5600  147.3180 C   0  0  0  0  0  1  0  0  0  0  0  0
  161.1520  206.9780  147.6160 N   0  0  0  0  0  2  0  0  0  0  0  0
  1  5  1  6  0  0  0
  1  4  1  0  0  0  0
  2 19  1  0  0  0  0
  3 10  1  0  0  0  0
  4 12  1  0  0  0  0
  4 20  1  6  0  0  0
  5 11  2  0  0  0  0
  7  9  1  0  0  0  0
  7 15  1  1  0  0  0
  8  6  2  0  0  0  0
  8 12  1  0  0  0  0
  9 14  1  0  0  0  0
 10 21  1  1  0  0  0
 11  8  1  0  0  0  0
 12 27  1  0  0  0  0
 13  2  2  0  0  0  0
 13 18  1  0  0  0  0
 14 23  1  0  0  0  0
 15 23  1  0  0  0  0
 16  2  1  0  0  0  0
 17 20  1  0  0  0  0
 17  3  2  0  0  0  0
 18 25  2  0  0  0  0
 19  1  1  0  0  0  0
 19 26  2  0  0  0  0
 20 22  2  0  0  0  0
 22 10  1  0  0  0  0
 22  9  1  0  0  0  0
 25 26  1  0  0  0  0
 26 17  1  0  0  0  0
 27 24  1  6  0  0  0
 27  7  1  0  0  0  0
 28 11  1  0  0  0  0
 29 30  1  0  0  0  0
 30 28  1  0  0  0  0
M  END
>  <MODEL>
4

>  <REMARK>
 VINA RESULT:      -6.7      3.030      6.503
  Name = 
  2 active torsions:
  status: ('A' for Active; 'I' for Inactive)
    1  A    between atoms: C_11  and  C_28
    2  A    between atoms: C_28  and  N_30
                            x       y       z     vdW  Elec       q    Type
                         _______ _______ _______ _____ _____    ______ ____

>  <TORSDO>
F 2

$$$$
=
 OpenBabel11122412463D

 30 35  0  0  1  0  0  0  0  0999 V2000
  161.2480  211.1660  150.9580 C   0  0  1  0  0  3  0  0  0  0  0  0
  161.5490  212.4240  148.8490 C   0  0  0  0  0  0  0  0  0  0  0  0
  158.2320  213.8490  152.1790 N   0  0  0  0  0  0  0  0  0  0  0  0
  160.8210  211.1510  152.4380 C   0  0  2  0  0  3  0  0  0  0  0  0
  161.9350  209.9690  150.4370 C   0  0  0  0  0  3  0  0  0  0  0  0
  160.6400  207.4860  152.6040 O   0  0  0  0  0  0  0  0  0  0  0  0
  160.2220  210.8600  155.2770 C   0  0  1  0  0  3  0  0  0  0  0  0
  160.9990  208.6360  152.2290 C   0  0  0  0  0  0  0  0  0  0  0  0
  158.9880  211.5280  154.9110 N   0  0  0  0  0  0  0  0  0  0  0  0
  157.9650  213.3320  153.3380 C   0  0  2  0  0  3  0  0  0  0  0  0
  161.8250  208.7840  151.0240 C   0  0  0  0  0  0  0  0  0  0  0  0
  160.6540  209.7960  153.0120 N   0  0  0  0  0  0  0  0  0  0  0  0
  161.1790  213.4740  148.0690 N   0  0  0  0  0  0  0  0  0  0  0  0
  158.1030  211.7570  156.0340 C   0  0  0  0  0  2  0  0  0  0  0  0
  160.0740  210.5280  156.7550 C   0  0  0  0  0  2  0  0  0  0  0  0
  162.5990  211.5860  148.3690 N   0  0  0  0  0  1  0  0  0  0  0  0
  159.2790  213.0280  151.6660 C   0  0  0  0  0  0  0  0  0  0  0  0
  160.2340  214.3680  148.4440 C   0  0  0  0  0  3  0  0  0  0  0  0
  160.9470  212.2320  150.1310 C   0  0  0  0  0  0  0  0  0  0  0  0
  159.5950  211.9840  152.5950 C   0  0  0  0  0  0  0  0  0  0  0  0
  156.9830  213.8780  154.2100 N   0  0  0  0  0  1  0  0  0  0  0  0
  158.8240  212.1760  153.6470 C   0  0  0  0  0  0  0  0  0  0  0  0
  158.8650  211.3000  157.2610 C   0  0  0  0  0  2  0  0  0  0  0  0
  161.5040  208.8620  154.9940 O   0  0  0  0  0  1  0  0  0  0  0  0
  159.6010  214.2360  149.6710 C   0  0  0  0  0  3  0  0  0  0  0  0
  159.9440  213.1820  150.5180 C   0  0  0  0  0  0  0  0  0  0  0  0
  160.4270  209.5760  154.4580 C   0  0  1  0  0  3  0  0  0  0  0  0
  162.4780  207.6000  150.3940 C   0  0  0  0  0  2  0  0  0  0  0  0
  160.8190  206.6540  149.0590 C   0  0  0  0  0  1  0  0  0  0  0  0
  162.0250  207.4600  149.0210 N   0  0  0  0  0  2  0  0  0  0  0  0
  1  5  1  6  0  0  0
  1  4  1  0  0  0  0
  2 19  1  0  0  0  0
  3 10  1  0  0  0  0
  4 20  1  6  0  0  0
  4 12  1  0  0  0  0
  5 11  2  0  0  0  0
  7 15  1  1  0  0  0
  8  6  2  0  0  0  0
  8 12  1  0  0  0  0
  9  7  1  0  0  0  0
  9 14  1  0  0  0  0
 10 22  1  0  0  0  0
 10 21  1  1  0  0  0
 11  8  1  0  0  0  0
 12 27  1  0  0  0  0
 13 18  1  0  0  0  0
 13  2  2  0  0  0  0
 14 23  1  0  0  0  0
 15 23  1  0  0  0  0
 16  2  1  0  0  0  0
 17  3  2  0  0  0  0
 17 20  1  0  0  0  0
 18 25  2  0  0  0  0
 19 26  2  0  0  0  0
 19  1  1  0  0  0  0
 20 22  2  0  0  0  0
 22  9  1  0  0  0  0
 25 26  1  0  0  0  0
 26 17  1  0  0  0  0
 27 24  1  1  0  0  0
 27  7  1  0  0  0  0
 28 11  1  0  0  0  0
 30 29  1  0  0  0  0
 30 28  1  0  0  0  0
M  END
>  <MODEL>
5

>  <REMARK>
 VINA RESULT:      -6.3      3.685      7.313
  Name = 
  2 active torsions:
  status: ('A' for Active; 'I' for Inactive)
    1  A    between atoms: C_11  and  C_28
    2  A    between atoms: C_28  and  N_30
                            x       y       z     vdW  Elec       q    Type
                         _______ _______ _______ _____ _____    ______ ____

>  <TORSDO>
F 2

$$$$
=
 OpenBabel11122412463D

 30 35  0  0  1  0  0  0  0  0999 V2000
  160.2340  211.1600  153.0860 C   0  0  1  0  0  3  0  0  0  0  0  0
  159.7230  213.3550  152.0660 C   0  0  0  0  0  0  0  0  0  0  0  0
  161.9560  209.8320  149.4730 N   0  0  0  0  0  0  0  0  0  0  0  0
  160.4840  209.6500  152.9160 C   0  0  2  0  0  3  0  0  0  0  0  0
  160.0750  211.6700  154.4610 C   0  0  0  0  0  3  0  0  0  0  0  0
  161.9390  209.2610  156.2660 O   0  0  0  0  0  0  0  0  0  0  0  0
  160.8530  206.7570  152.9110 C   0  0  1  0  0  3  0  0  0  0  0  0
  161.2350  209.7300  155.3290 C   0  0  0  0  0  0  0  0  0  0  0  0
  161.7980  207.0500  151.8520 N   0  0  0  0  0  0  0  0  0  0  0  0
  162.2690  208.6260  149.8340 C   0  0  0  0  0  0  0  0  0  0  0  0
  160.5390  211.0100  155.5140 C   0  0  0  0  0  0  0  0  0  0  0  0
  161.0620  208.9880  154.1070 N   0  0  0  0  0  0  0  0  0  0  0  0
  159.7740  214.1580  150.9700 N   0  0  0  0  0  0  0  0  0  0  0  0
  162.4240  205.8680  151.2960 C   0  0  0  0  0  2  0  0  0  0  0  0
  160.9570  205.2550  153.1360 C   0  0  0  0  0  2  0  0  0  0  0  0
  159.0950  213.8770  153.2350 N   0  0  0  0  0  1  0  0  0  0  0  0
  161.3280  210.3870  150.6260 C   0  0  2  0  0  3  0  0  0  0  0  0
  160.2950  213.7520  149.7880 C   0  0  0  0  0  3  0  0  0  0  0  0
  160.2190  212.0160  152.0010 C   0  0  0  0  0  0  0  0  0  0  0  0
  161.3100  209.4320  151.6940 C   0  0  0  0  0  0  0  0  0  0  0  0
  162.8970  207.7030  148.9530 N   0  0  0  0  0  1  0  0  0  0  0  0
  161.8500  208.3290  151.2150 C   0  0  0  0  0  0  0  0  0  0  0  0
  161.7530  204.6890  151.9700 C   0  0  0  0  0  2  0  0  0  0  0  0
  160.4010  207.0380  155.2420 O   0  0  0  0  0  1  0  0  0  0  0  0
  160.8040  212.4680  149.6570 C   0  0  0  0  0  3  0  0  0  0  0  0
  160.7730  211.5970  150.7460 C   0  0  0  0  0  0  0  0  0  0  0  0
  161.2030  207.5170  154.2000 C   0  0  1  0  0  3  0  0  0  0  0  0
  160.4180  211.6280  156.8670 C   0  0  0  0  0  2  0  0  0  0  0  0
  160.3680  213.9230  157.2610 C   0  0  0  0  0  1  0  0  0  0  0  0
  159.5700  212.8040  156.7970 N   0  0  0  0  0  2  0  0  0  0  0  0
  1  5  1  1  0  0  0
  2 16  1  0  0  0  0
  3 10  2  0  0  0  0
  4 20  1  6  0  0  0
  4  1  1  0  0  0  0
  4 12  1  0  0  0  0
  5 11  2  0  0  0  0
  7 15  1  1  0  0  0
  7 27  1  0  0  0  0
  8 11  1  0  0  0  0
  8  6  2  0  0  0  0
  9  7  1  0  0  0  0
 10 22  1  0  0  0  0
 11 28  1  0  0  0  0
 12 27  1  0  0  0  0
 12  8  1  0  0  0  0
 13  2  2  0  0  0  0
 14  9  1  0  0  0  0
 14 23  1  0  0  0  0
 17  3  1  6  0  0  0
 17 26  1  0  0  0  0
 17 20  1  0  0  0  0
 18 13  1  0  0  0  0
 19  2  1  0  0  0  0
 19  1  1  0  0  0  0
 21 10  1  0  0  0  0
 22 20  2  0  0  0  0
 22  9  1  0  0  0  0
 23 15  1  0  0  0  0
 25 18  2  0  0  0  0
 25 26  1  0  0  0  0
 26 19  2  0  0  0  0
 27 24  1  1  0  0  0
 30 28  1  0  0  0  0
 30 29  1  0  0  0  0
M  END
>  <MODEL>
6

>  <REMARK>
 VINA RESULT:      -5.7      3.525      8.476
  Name = 
  2 active torsions:
  status: ('A' for Active; 'I' for Inactive)
    1  A    between atoms: C_11  and  C_28
    2  A    between atoms: C_28  and  N_30
                            x       y       z     vdW  Elec       q    Type
                         _______ _______ _______ _____ _____    ______ ____

>  <TORSDO>
F 2

$$$$
=
 OpenBabel11122412463D

 30 35  0  0  1  0  0  0  0  0999 V2000
  161.7670  208.8310  150.6410 C   0  0  1  0  0  3  0  0  0  0  0  0
  162.1930  210.2510  148.6610 C   0  0  0  0  0  0  0  0  0  0  0  0
  160.0800  212.1100  152.6860 N   0  0  0  0  0  0  0  0  0  0  0  0
  161.5720  208.7110  152.1640 C   0  0  2  0  0  3  0  0  0  0  0  0
  161.9130  207.5780  149.8750 C   0  0  0  0  0  3  0  0  0  0  0  0
  160.1460  205.3320  151.9650 O   0  0  0  0  0  0  0  0  0  0  0  0
  161.3100  208.1660  155.0170 C   0  0  1  0  0  3  0  0  0  0  0  0
  160.8290  206.3470  151.6560 C   0  0  0  0  0  0  0  0  0  0  0  0
  160.3500  209.2520  154.9630 N   0  0  0  0  0  0  0  0  0  0  0  0
  159.8130  211.5250  153.8120 C   0  0  2  0  0  3  0  0  0  0  0  0
  161.4780  206.4140  150.3400 C   0  0  0  0  0  0  0  0  0  0  0  0
  161.0240  207.4100  152.6100 N   0  0  0  0  0  0  0  0  0  0  0  0
  162.1080  211.4780  148.0820 N   0  0  0  0  0  0  0  0  0  0  0  0
  159.7660  209.5680  156.2490 C   0  0  0  0  0  2  0  0  0  0  0  0
  161.2620  207.6610  156.4520 C   0  0  0  0  0  2  0  0  0  0  0  0
  162.8060  209.2080  147.9060 N   0  0  0  0  0  1  0  0  0  0  0  0
  160.6920  211.0890  151.9020 C   0  0  0  0  0  0  0  0  0  0  0  0
  161.5980  212.5570  148.7210 C   0  0  0  0  0  3  0  0  0  0  0  0
  161.7460  210.0570  150.0050 C   0  0  0  0  0  0  0  0  0  0  0  0
  160.7490  209.8600  152.6370 C   0  0  0  0  0  0  0  0  0  0  0  0
  159.2150  212.2100  154.9070 N   0  0  0  0  0  1  0  0  0  0  0  0
  160.2480  210.1170  153.8290 C   0  0  0  0  0  0  0  0  0  0  0  0
  160.4820  208.6920  157.2550 C   0  0  0  0  0  2  0  0  0  0  0  0
  161.7600  205.9350  154.2860 O   0  0  0  0  0  1  0  0  0  0  0  0
  161.1360  212.4380  150.0230 C   0  0  0  0  0  3  0  0  0  0  0  0
  161.2030  211.2050  150.6720 C   0  0  0  0  0  0  0  0  0  0  0  0
  160.9370  207.0400  154.0410 C   0  0  1  0  0  3  0  0  0  0  0  0
  161.5820  205.2040  149.4760 C   0  0  0  0  0  2  0  0  0  0  0  0
  161.6050  204.3790  147.2970 C   0  0  0  0  0  1  0  0  0  0  0  0
  161.3460  205.5670  148.0900 N   0  0  0  0  0  2  0  0  0  0  0  0
  1  5  1  6  0  0  0
  1  4  1  0  0  0  0
  2 19  1  0  0  0  0
  3 10  1  0  0  0  0
  4 12  1  0  0  0  0
  4 20  1  6  0  0  0
  5 11  2  0  0  0  0
  7 15  1  1  0  0  0
  8  6  2  0  0  0  0
  8 12  1  0  0  0  0
  9  7  1  0  0  0  0
  9 14  1  0  0  0  0
 10 22  1  0  0  0  0
 10 21  1  1  0  0  0
 11  8  1  0  0  0  0
 12 27  1  0  0  0  0
 13  2  2  0  0  0  0
 13 18  1  0  0  0  0
 14 23  1  0  0  0  0
 15 23  1  0  0  0  0
 16  2  1  0  0  0  0
 17 20  1  0  0  0  0
 17  3  2  0  0  0  0
 18 25  2  0  0  0  0
 19  1  1  0  0  0  0
 19 26  2  0  0  0  0
 20 22  2  0  0  0  0
 22  9  1  0  0  0  0
 25 26  1  0  0  0  0
 26 17  1  0  0  0  0
 27 24  1  6  0  0  0
 27  7  1  0  0  0  0
 28 11  1  0  0  0  0
 29 30  1  0  0  0  0
 30 28  1  0  0  0  0
M  END
>  <MODEL>
7

>  <REMARK>
 VINA RESULT:      -5.1      2.780      5.834
  Name = 
  2 active torsions:
  status: ('A' for Active; 'I' for Inactive)
    1  A    between atoms: C_11  and  C_28
    2  A    between atoms: C_28  and  N_30
                            x       y       z     vdW  Elec       q    Type
                         _______ _______ _______ _____ _____    ______ ____

>  <TORSDO>
F 2

$$$$
=
 OpenBabel11122412463D

 30 35  0  0  1  0  0  0  0  0999 V2000
  161.8900  207.6500  150.6400 C   0  0  1  0  0  3  0  0  0  0  0  0
  161.9210  208.6250  152.9140 C   0  0  0  0  0  0  0  0  0  0  0  0
  160.4570  203.9940  152.1780 N   0  0  0  0  0  0  0  0  0  0  0  0
  161.9610  206.4060  149.7340 C   0  0  2  0  0  3  0  0  0  0  0  0
  161.9490  208.9700  149.9850 C   0  0  0  0  0  3  0  0  0  0  0  0
  160.6460  208.1680  146.7920 O   0  0  0  0  0  0  0  0  0  0  0  0
  162.2080  204.2580  147.7780 C   0  0  1  0  0  3  0  0  0  0  0  0
  161.2290  207.9810  147.8950 C   0  0  0  0  0  0  0  0  0  0  0  0
  161.2130  203.6130  148.6130 N   0  0  0  0  0  0  0  0  0  0  0  0
  160.4070  203.3200  151.0710 C   0  0  0  0  0  0  0  0  0  0  0  0
  161.6420  209.1350  148.7050 C   0  0  0  0  0  0  0  0  0  0  0  0
  161.5440  206.6450  148.3330 N   0  0  0  0  0  0  0  0  0  0  0  0
  161.6940  208.4570  154.2430 N   0  0  0  0  0  0  0  0  0  0  0  0
  160.8450  202.2900  148.1530 C   0  0  0  0  0  2  0  0  0  0  0  0
  162.4230  203.3090  146.6070 C   0  0  0  0  0  2  0  0  0  0  0  0
  162.4340  209.8850  152.4870 N   0  0  0  0  0  1  0  0  0  0  0  0
  160.9630  205.2680  151.7850 C   0  0  2  0  0  3  0  0  0  0  0  0
  161.2610  207.2890  154.7720 C   0  0  0  0  0  3  0  0  0  0  0  0
  161.7160  207.5390  152.0060 C   0  0  0  0  0  0  0  0  0  0  0  0
  161.1900  205.3010  150.3700 C   0  0  0  0  0  0  0  0  0  0  0  0
  159.9790  201.9640  151.0210 N   0  0  0  0  0  1  0  0  0  0  0  0
  160.8890  204.0990  149.9180 C   0  0  0  0  0  0  0  0  0  0  0  0
  161.7540  201.9940  146.9780 C   0  0  0  0  0  2  0  0  0  0  0  0
  162.6080  206.1010  146.3090 O   0  0  0  0  0  1  0  0  0  0  0  0
  161.0320  206.1960  153.9480 C   0  0  0  0  0  3  0  0  0  0  0  0
  161.2530  206.3060  152.5750 C   0  0  0  0  0  0  0  0  0  0  0  0
  161.7160  205.6240  147.2760 C   0  0  1  0  0  3  0  0  0  0  0  0
  161.6410  210.5120  148.1310 C   0  0  0  0  0  2  0  0  0  0  0  0
  162.8320  212.5130  148.1850 C   0  0  0  0  0  1  0  0  0  0  0  0
  162.3710  211.4110  149.0070 N   0  0  0  0  0  2  0  0  0  0  0  0
  1  5  1  6  0  0  0
  1 19  1  0  0  0  0
  2 13  1  0  0  0  0
  4 20  1  1  0  0  0
  4  1  1  0  0  0  0
  6  8  2  0  0  0  0
  7 15  1  6  0  0  0
  7  9  1  0  0  0  0
  8 12  1  0  0  0  0
  8 11  1  0  0  0  0
  9 22  1  0  0  0  0
 10  3  2  0  0  0  0
 11  5  2  0  0  0  0
 12  4  1  0  0  0  0
 13 18  2  0  0  0  0
 14  9  1  0  0  0  0
 15 23  1  0  0  0  0
 16  2  1  0  0  0  0
 17 20  1  1  0  0  0
 17  3  1  0  0  0  0
 17 26  1  0  0  0  0
 19 26  1  0  0  0  0
 19  2  2  0  0  0  0
 21 10  1  0  0  0  0
 22 20  2  0  0  0  0
 22 10  1  0  0  0  0
 23 14  1  0  0  0  0
 25 18  1  0  0  0  0
 26 25  2  0  0  0  0
 27 24  1  6  0  0  0
 27  7  1  0  0  0  0
 27 12  1  0  0  0  0
 28 11  1  0  0  0  0
 28 30  1  0  0  0  0
 29 30  1  0  0  0  0
M  END
>  <MODEL>
8

>  <REMARK>
 VINA RESULT:      -4.9      1.796      5.651
  Name = 
  2 active torsions:
  status: ('A' for Active; 'I' for Inactive)
    1  A    between atoms: C_11  and  C_28
    2  A    between atoms: C_28  and  N_30
                            x       y       z     vdW  Elec       q    Type
                         _______ _______ _______ _____ _____    ______ ____

>  <TORSDO>
F 2

$$$$
=
 OpenBabel11122412463D

 30 35  0  0  1  0  0  0  0  0999 V2000
  161.7650  208.3190  151.7900 C   0  0  1  0  0  3  0  0  0  0  0  0
  162.3080  208.2970  149.3770 C   0  0  0  0  0  0  0  0  0  0  0  0
  160.3090  212.2640  151.4730 N   0  0  0  0  0  0  0  0  0  0  0  0
  161.5510  209.1180  153.0900 C   0  0  2  0  0  3  0  0  0  0  0  0
  161.8240  206.8490  151.9000 C   0  0  0  0  0  3  0  0  0  0  0  0
  159.8830  206.3390  154.8170 O   0  0  0  0  0  0  0  0  0  0  0  0
  161.2300  210.3490  155.7140 C   0  0  1  0  0  3  0  0  0  0  0  0
  160.6400  206.9460  154.0100 C   0  0  0  0  0  0  0  0  0  0  0  0
  160.3520  211.2520  154.9940 N   0  0  0  0  0  0  0  0  0  0  0  0
  159.9920  212.4580  152.7150 C   0  0  2  0  0  3  0  0  0  0  0  0
  161.3020  206.1990  152.9320 C   0  0  0  0  0  0  0  0  0  0  0  0
  160.9060  208.3510  154.1800 N   0  0  0  0  0  0  0  0  0  0  0  0
  162.3170  208.9610  148.1910 N   0  0  0  0  0  0  0  0  0  0  0  0
  159.7840  212.2900  155.8290 C   0  0  0  0  0  2  0  0  0  0  0  0
  161.1350  210.7770  157.1710 C   0  0  0  0  0  2  0  0  0  0  0  0
  162.8480  206.9780  149.3960 N   0  0  0  0  0  1  0  0  0  0  0  0
  160.8500  210.9450  151.4560 C   0  0  0  0  0  0  0  0  0  0  0  0
  161.8830  210.2370  148.0610 C   0  0  0  0  0  3  0  0  0  0  0  0
  161.8390  208.9460  150.5610 C   0  0  0  0  0  0  0  0  0  0  0  0
  160.8120  210.3720  152.7690 C   0  0  0  0  0  0  0  0  0  0  0  0
  159.4380  213.6840  153.1800 N   0  0  0  0  0  1  0  0  0  0  0  0
  160.3220  211.3020  153.5660 C   0  0  0  0  0  0  0  0  0  0  0  0
  160.4280  212.1230  157.1900 C   0  0  0  0  0  2  0  0  0  0  0  0
  161.5210  208.0880  156.4330 O   0  0  0  0  0  1  0  0  0  0  0  0
  161.4040  210.9230  149.1670 C   0  0  0  0  0  3  0  0  0  0  0  0
  161.3760  210.2960  150.4130 C   0  0  0  0  0  0  0  0  0  0  0  0
  160.7830  208.8890  155.5540 C   0  0  1  0  0  3  0  0  0  0  0  0
  161.3230  204.7080  152.9350 C   0  0  0  0  0  2  0  0  0  0  0  0
  160.8620  203.3450  151.1020 C   0  0  0  0  0  1  0  0  0  0  0  0
  161.8660  204.2200  151.6790 N   0  0  0  0  0  2  0  0  0  0  0  0
  1  5  1  6  0  0  0
  1  4  1  0  0  0  0
  2 16  1  0  0  0  0
  2 19  1  0  0  0  0
  3 10  1  0  0  0  0
  4 20  1  6  0  0  0
  4 12  1  0  0  0  0
  5 11  2  0  0  0  0
  7 15  1  1  0  0  0
  8 12  1  0  0  0  0
  8  6  2  0  0  0  0
  9  7  1  0  0  0  0
  9 14  1  0  0  0  0
 10 21  1  1  0  0  0
 10 22  1  0  0  0  0
 11 28  1  0  0  0  0
 11  8  1  0  0  0  0
 12 27  1  0  0  0  0
 13  2  2  0  0  0  0
 14 23  1  0  0  0  0
 15 23  1  0  0  0  0
 17  3  2  0  0  0  0
 17 20  1  0  0  0  0
 18 13  1  0  0  0  0
 18 25  2  0  0  0  0
 19  1  1  0  0  0  0
 20 22  2  0  0  0  0
 22  9  1  0  0  0  0
 25 26  1  0  0  0  0
 26 19  2  0  0  0  0
 26 17  1  0  0  0  0
 27  7  1  0  0  0  0
 27 24  1  1  0  0  0
 29 30  1  0  0  0  0
 30 28  1  0  0  0  0
M  END
>  <MODEL>
9

>  <REMARK>
 VINA RESULT:      -4.9      3.079      6.182
  Name = 
  2 active torsions:
  status: ('A' for Active; 'I' for Inactive)
    1  A    between atoms: C_11  and  C_28
    2  A    between atoms: C_28  and  N_30
                            x       y       z     vdW  Elec       q    Type
                         _______ _______ _______ _____ _____    ______ ____

>  <TORSDO>
F 2

$$$$
