=
 OpenBabel11122414003D

 37 43  0  0  1  0  0  0  0  0999 V2000
  160.6910  206.2580  150.2680 C   0  0  1  0  0  3  0  0  0  0  0  0
  160.4830  208.9820  152.1370 O   0  0  0  0  0  0  0  0  0  0  0  0
  160.9960  205.3600  147.8450 C   0  0  2  0  0  3  0  0  0  0  0  0
  161.5200  207.4310  150.6380 C   0  0  2  0  0  3  0  0  0  0  0  0
  160.5270  206.5070  148.7760 C   0  0  2  0  0  3  0  0  0  0  0  0
  161.3660  207.8910  152.0900 C   0  0  2  0  0  3  0  0  0  0  0  0
  161.7270  204.2300  148.5850 C   0  0  0  0  0  2  0  0  0  0  0  0
  161.1210  207.7570  148.4830 O   0  0  0  0  0  0  0  0  0  0  0  0
  161.2030  204.7040  152.1120 C   0  0  0  0  0  2  0  0  0  0  0  0
  161.1000  203.9490  149.8100 O   0  0  0  0  0  0  0  0  0  0  0  0
  162.6860  210.2660  151.9410 C   0  0  0  0  0  2  0  0  0  0  0  0
  161.1700  210.2350  152.1150 C   0  0  1  0  0  3  0  0  0  0  0  0
  161.4750  205.0100  150.6390 C   0  0  1  0  0  3  0  0  0  0  0  0
  161.1100  208.4320  149.6740 N   0  0  2  0  0  0  0  0  0  0  0  0
  160.9510  206.7550  153.0520 C   0  0  1  0  0  3  0  0  0  0  0  0
  161.8040  210.5800  150.7430 C   0  0  2  0  0  3  0  0  0  0  0  0
  162.1150  209.4990  149.6830 C   0  0  2  0  0  3  0  0  0  0  0  0
  161.8330  205.6610  152.9320 O   0  0  0  0  0  0  0  0  0  0  0  0
  159.8900  206.6090  155.3950 C   0  0  0  0  0  2  0  0  0  0  0  0
  160.9090  207.2290  154.4710 C   0  0  0  0  0  0  0  0  0  0  0  0
  161.7660  208.1650  154.8930 C   0  0  0  0  0  3  0  0  0  0  0  0
  162.5270  209.5010  156.6850 O   0  0  0  0  0  0  0  0  0  0  0  0
  160.7400  208.0890  157.1740 N   0  0  0  0  0  0  0  0  0  0  0  0
  161.7160  208.6280  156.2810 C   0  0  0  0  0  0  0  0  0  0  0  0
  159.8960  207.1750  156.7940 C   0  0  0  0  0  3  0  0  0  0  0  0
  162.2250  210.1850  148.3240 C   0  0  0  0  0  2  0  0  0  0  0  0
  162.0810  211.6940  148.4640 C   0  0  0  0  0  0  0  0  0  0  0  0
  163.3760  212.4660  148.4050 C   0  0  0  0  0  2  0  0  0  0  0  0
  162.4170  212.4840  147.2210 C   0  0  0  0  0  2  0  0  0  0  0  0
  160.9890  212.3130  149.3330 C   0  0  0  0  0  2  0  0  0  0  0  0
  160.5930  213.7020  148.8510 C   0  0  0  0  0  2  0  0  0  0  0  0
  158.8760  213.7170  148.2580 S   0  0  0  0  0  1  0  0  0  0  0  0
  161.7970  205.8400  146.8050 O   0  0  0  0  0  0  0  0  0  0  0  0
  161.0350  205.3390  145.3770 P   0  0  0  0  0  4  0  0  0  0  0  0
  161.9460  205.8020  144.0480 F   0  0  0  0  0  0  0  0  0  0  0  0
  160.8550  203.6740  145.3810 F   0  0  0  0  0  0  0  0  0  0  0  0
  159.5240  206.0530  145.2810 F   0  0  0  0  0  0  0  0  0  0  0  0
  1  4  1  0  0  0  0
  1 13  1  0  0  0  0
  3  7  1  0  0  0  0
  3  5  1  0  0  0  0
  4  6  1  0  0  0  0
  5  1  1  0  0  0  0
  6  2  1  0  0  0  0
  6 15  1  0  0  0  0
  7 10  1  0  0  0  0
  8  5  1  0  0  0  0
  8 14  1  0  0  0  0
  9 18  1  0  0  0  0
 10 13  1  0  0  0  0
 11 12  1  0  0  0  0
 12  2  1  0  0  0  0
 13  9  1  0  0  0  0
 14 17  1  0  0  0  0
 14  4  1  0  0  0  0
 15 20  1  0  0  0  0
 16 11  1  0  0  0  0
 16 12  1  0  0  0  0
 17 16  1  0  0  0  0
 18 15  1  0  0  0  0
 19 25  1  0  0  0  0
 20 21  2  0  0  0  0
 20 19  1  0  0  0  0
 21 24  1  0  0  0  0
 24 22  2  0  0  0  0
 24 23  1  0  0  0  0
 25 23  2  0  0  0  0
 26 27  1  0  0  0  0
 26 17  1  0  0  0  0
 27 30  1  0  0  0  0
 28 27  1  0  0  0  0
 29 28  1  0  0  0  0
 29 27  1  0  0  0  0
 31 30  1  0  0  0  0
 32 31  1  0  0  0  0
 33  3  1  0  0  0  0
 34 36  1  0  0  0  0
 34 33  1  0  0  0  0
 35 34  1  0  0  0  0
 37 34  1  0  0  0  0
M  END
>  <MODEL>
1

>  <REMARK>
 VINA RESULT:      -8.0      0.000      0.000
  Name = 
  7 active torsions:
  status: ('A' for Active; 'I' for Inactive)
    1  A    between atoms: C_1  and  C_4
    2  A    between atoms: C_1  and  C_27
    3  A    between atoms: P_2  and  O_22
    4  A    between atoms: C_4  and  C_12
    5  A    between atoms: C_6  and  O_22
    6  A    between atoms: C_8  and  C_12
    7  A    between atoms: C_23  and  C_30
                            x       y       z     vdW  Elec       q    Type
                         _______ _______ _______ _____ _____    ______ ____

>  <TORSDO>
F 7

$$$$
=
 OpenBabel11122414003D

 37 43  0  0  1  0  0  0  0  0999 V2000
  161.5270  211.3780  150.7580 C   0  0  1  0  0  3  0  0  0  0  0  0
  162.5030  208.6260  152.3190 O   0  0  0  0  0  0  0  0  0  0  0  0
  161.2930  212.5380  148.4410 C   0  0  2  0  0  3  0  0  0  0  0  0
  161.1930  209.9330  150.8000 C   0  0  2  0  0  3  0  0  0  0  0  0
  162.0240  211.4950  149.3240 C   0  0  2  0  0  3  0  0  0  0  0  0
  161.2760  209.2980  152.1910 C   0  0  2  0  0  3  0  0  0  0  0  0
  160.0570  213.1530  149.1130 C   0  0  0  0  0  2  0  0  0  0  0  0
  162.0410  210.1930  148.7700 O   0  0  0  0  0  0  0  0  0  0  0  0
  160.1340  212.2510  152.5940 C   0  0  0  0  0  2  0  0  0  0  0  0
  160.3040  213.4100  150.4710 O   0  0  0  0  0  0  0  0  0  0  0  0
  161.0700  206.6770  151.4900 C   0  0  0  0  0  2  0  0  0  0  0  0
  162.3930  207.2370  152.0060 C   0  0  1  0  0  3  0  0  0  0  0  0
  160.2570  212.1500  151.0740 C   0  0  1  0  0  3  0  0  0  0  0  0
  162.1250  209.3580  149.8520 N   0  0  2  0  0  0  0  0  0  0  0  0
  161.0320  210.3030  153.3390 C   0  0  1  0  0  3  0  0  0  0  0  0
  162.1890  206.9460  150.4960 C   0  0  2  0  0  3  0  0  0  0  0  0
  161.6490  208.0130  149.5180 C   0  0  2  0  0  3  0  0  0  0  0  0
  159.8170  210.9920  153.1420 O   0  0  0  0  0  0  0  0  0  0  0  0
  161.9530  210.1430  155.7400 C   0  0  0  0  0  2  0  0  0  0  0  0
  161.0250  209.6200  154.6710 C   0  0  0  0  0  0  0  0  0  0  0  0
  160.2050  208.5870  154.8930 C   0  0  0  0  0  3  0  0  0  0  0  0
  159.4310  206.9530  156.4120 O   0  0  0  0  0  0  0  0  0  0  0  0
  161.0990  208.3660  157.2190 N   0  0  0  0  0  0  0  0  0  0  0  0
  160.2080  207.9190  156.1960 C   0  0  0  0  0  0  0  0  0  0  0  0
  161.9040  209.3690  157.0350 C   0  0  0  0  0  3  0  0  0  0  0  0
  162.0530  207.6060  148.1020 C   0  0  0  0  0  2  0  0  0  0  0  0
  161.4010  206.2870  147.7100 C   0  0  0  0  0  0  0  0  0  0  0  0
  160.8320  206.2480  146.3120 C   0  0  0  0  0  2  0  0  0  0  0  0
  162.1270  205.5130  146.6350 C   0  0  0  0  0  2  0  0  0  0  0  0
  160.6760  205.4200  148.7360 C   0  0  0  0  0  2  0  0  0  0  0  0
  161.1030  203.9610  148.6560 C   0  0  0  0  0  2  0  0  0  0  0  0
  160.6950  203.0820  150.1920 S   0  0  0  0  0  1  0  0  0  0  0  0
  160.9380  212.0000  147.2000 O   0  0  0  0  0  0  0  0  0  0  0  0
  161.1860  213.2450  146.0780 P   0  0  0  0  0  4  0  0  0  0  0  0
  161.7890  212.6150  144.6460 F   0  0  0  0  0  0  0  0  0  0  0  0
  159.7420  214.0390  145.7780 F   0  0  0  0  0  0  0  0  0  0  0  0
  162.2910  214.3360  146.7040 F   0  0  0  0  0  0  0  0  0  0  0  0
  1  4  1  0  0  0  0
  1 13  1  0  0  0  0
  3  7  1  0  0  0  0
  3  5  1  0  0  0  0
  4  6  1  0  0  0  0
  5  1  1  0  0  0  0
  6  2  1  0  0  0  0
  6 15  1  0  0  0  0
  7 10  1  0  0  0  0
  8  5  1  0  0  0  0
  8 14  1  0  0  0  0
  9 18  1  0  0  0  0
 10 13  1  0  0  0  0
 11 12  1  0  0  0  0
 12  2  1  0  0  0  0
 13  9  1  0  0  0  0
 14  4  1  0  0  0  0
 15 20  1  0  0  0  0
 16 11  1  0  0  0  0
 16 12  1  0  0  0  0
 17 14  1  0  0  0  0
 17 16  1  0  0  0  0
 18 15  1  0  0  0  0
 19 25  1  0  0  0  0
 20 21  2  0  0  0  0
 20 19  1  0  0  0  0
 21 24  1  0  0  0  0
 24 22  2  0  0  0  0
 24 23  1  0  0  0  0
 25 23  2  0  0  0  0
 26 17  1  0  0  0  0
 27 26  1  0  0  0  0
 27 30  1  0  0  0  0
 28 29  1  0  0  0  0
 28 27  1  0  0  0  0
 29 27  1  0  0  0  0
 31 30  1  0  0  0  0
 31 32  1  0  0  0  0
 33  3  1  0  0  0  0
 34 37  1  0  0  0  0
 34 33  1  0  0  0  0
 35 34  1  0  0  0  0
 36 34  1  0  0  0  0
M  END
>  <MODEL>
2

>  <REMARK>
 VINA RESULT:      -7.8      3.665      5.899
  Name = 
  7 active torsions:
  status: ('A' for Active; 'I' for Inactive)
    1  A    between atoms: C_1  and  C_4
    2  A    between atoms: C_1  and  C_27
    3  A    between atoms: P_2  and  O_22
    4  A    between atoms: C_4  and  C_12
    5  A    between atoms: C_6  and  O_22
    6  A    between atoms: C_8  and  C_12
    7  A    between atoms: C_23  and  C_30
                            x       y       z     vdW  Elec       q    Type
                         _______ _______ _______ _____ _____    ______ ____

>  <TORSDO>
F 7

$$$$
=
 OpenBabel11122414003D

 37 43  0  0  1  0  0  0  0  0999 V2000
  162.0990  206.8470  149.7640 C   0  0  1  0  0  3  0  0  0  0  0  0
  162.5460  209.6960  151.3900 O   0  0  0  0  0  0  0  0  0  0  0  0
  161.6250  204.3020  150.0240 C   0  0  2  0  0  3  0  0  0  0  0  0
  161.3530  207.7460  150.6780 C   0  0  2  0  0  3  0  0  0  0  0  0
  162.2010  205.6040  150.6360 C   0  0  2  0  0  3  0  0  0  0  0  0
  161.6040  209.2400  150.4520 C   0  0  2  0  0  3  0  0  0  0  0  0
  160.8720  204.5250  148.7040 C   0  0  0  0  0  2  0  0  0  0  0  0
  161.6600  205.9260  151.9030 O   0  0  0  0  0  0  0  0  0  0  0  0
  161.5980  207.8620  147.5740 C   0  0  0  0  0  2  0  0  0  0  0  0
  161.5440  205.4600  147.8990 O   0  0  0  0  0  0  0  0  0  0  0  0
  160.4070  210.2290  152.6870 C   0  0  0  0  0  2  0  0  0  0  0  0
  161.9260  210.2680  152.5430 C   0  0  1  0  0  3  0  0  0  0  0  0
  161.2690  206.6920  148.5000 C   0  0  1  0  0  3  0  0  0  0  0  0
  161.7670  207.2880  151.9890 N   0  0  2  0  0  0  0  0  0  0  0  0
  162.0060  209.5800  149.0000 C   0  0  1  0  0  3  0  0  0  0  0  0
  161.2430  209.2300  153.4710 C   0  0  2  0  0  3  0  0  0  0  0  0
  160.8220  207.8290  152.9700 C   0  0  2  0  0  3  0  0  0  0  0  0
  161.0620  209.0580  148.0910 O   0  0  0  0  0  0  0  0  0  0  0  0
  163.3380  211.5610  148.0290 C   0  0  0  0  0  2  0  0  0  0  0  0
  162.1440  211.0580  148.8050 C   0  0  0  0  0  0  0  0  0  0  0  0
  161.2220  211.8920  149.2970 C   0  0  0  0  0  3  0  0  0  0  0  0
  160.4960  214.1230  149.5610 O   0  0  0  0  0  0  0  0  0  0  0  0
  162.5030  213.8490  148.4090 N   0  0  0  0  0  0  0  0  0  0  0  0
  161.3670  213.3360  149.1070 C   0  0  0  0  0  0  0  0  0  0  0  0
  163.4140  213.0640  147.9150 C   0  0  0  0  0  3  0  0  0  0  0  0
  160.6810  206.9140  154.1840 C   0  0  0  0  0  2  0  0  0  0  0  0
  160.6900  207.7200  155.4750 C   0  0  0  0  0  0  0  0  0  0  0  0
  159.4300  208.5070  155.7460 C   0  0  0  0  0  2  0  0  0  0  0  0
  159.7270  207.2380  156.5340 C   0  0  0  0  0  2  0  0  0  0  0  0
  161.9760  208.3370  156.0200 C   0  0  0  0  0  2  0  0  0  0  0  0
  161.7000  209.3790  157.0960 C   0  0  0  0  0  2  0  0  0  0  0  0
  163.0250  210.6200  157.1490 S   0  0  0  0  0  1  0  0  0  0  0  0
  160.7990  203.6320  150.9320 O   0  0  0  0  0  0  0  0  0  0  0  0
  161.1490  201.9860  150.7330 P   0  0  0  0  0  4  0  0  0  0  0  0
  159.7710  201.0710  151.0050 F   0  0  0  0  0  0  0  0  0  0  0  0
  161.7120  201.7060  149.1810 F   0  0  0  0  0  0  0  0  0  0  0  0
  162.3290  201.5390  151.8330 F   0  0  0  0  0  0  0  0  0  0  0  0
  1  5  1  0  0  0  0
  1  4  1  0  0  0  0
  2 12  1  0  0  0  0
  3  5  1  0  0  0  0
  3 33  1  0  0  0  0
  4 14  1  0  0  0  0
  5  8  1  0  0  0  0
  6  4  1  0  0  0  0
  6  2  1  0  0  0  0
  7  3  1  0  0  0  0
  8 14  1  0  0  0  0
  9 18  1  0  0  0  0
  9 13  1  0  0  0  0
 10 13  1  0  0  0  0
 10  7  1  0  0  0  0
 11 16  1  0  0  0  0
 12 11  1  0  0  0  0
 12 16  1  0  0  0  0
 13  1  1  0  0  0  0
 14 17  1  0  0  0  0
 15  6  1  0  0  0  0
 17 16  1  0  0  0  0
 17 26  1  0  0  0  0
 18 15  1  0  0  0  0
 19 20  1  0  0  0  0
 20 15  1  0  0  0  0
 20 21  2  0  0  0  0
 23 24  1  0  0  0  0
 24 21  1  0  0  0  0
 24 22  2  0  0  0  0
 25 19  1  0  0  0  0
 25 23  2  0  0  0  0
 26 27  1  0  0  0  0
 27 28  1  0  0  0  0
 27 30  1  0  0  0  0
 27 29  1  0  0  0  0
 28 29  1  0  0  0  0
 30 31  1  0  0  0  0
 31 32  1  0  0  0  0
 34 33  1  0  0  0  0
 34 35  1  0  0  0  0
 34 37  1  0  0  0  0
 36 34  1  0  0  0  0
M  END
>  <MODEL>
3

>  <REMARK>
 VINA RESULT:      -6.3      3.130      6.502
  Name = 
  7 active torsions:
  status: ('A' for Active; 'I' for Inactive)
    1  A    between atoms: C_1  and  C_4
    2  A    between atoms: C_1  and  C_27
    3  A    between atoms: P_2  and  O_22
    4  A    between atoms: C_4  and  C_12
    5  A    between atoms: C_6  and  O_22
    6  A    between atoms: C_8  and  C_12
    7  A    between atoms: C_23  and  C_30
                            x       y       z     vdW  Elec       q    Type
                         _______ _______ _______ _____ _____    ______ ____

>  <TORSDO>
F 7

$$$$
=
 OpenBabel11122414003D

 37 43  0  0  1  0  0  0  0  0999 V2000
  161.8100  206.8940  152.2510 C   0  0  1  0  0  3  0  0  0  0  0  0
  162.6570  206.5830  149.0650 O   0  0  0  0  0  0  0  0  0  0  0  0
  161.6200  208.5500  154.2480 C   0  0  2  0  0  3  0  0  0  0  0  0
  161.4040  207.4210  150.9250 C   0  0  2  0  0  3  0  0  0  0  0  0
  162.3030  208.1750  152.9080 C   0  0  2  0  0  3  0  0  0  0  0  0
  161.4640  206.4010  149.7840 C   0  0  2  0  0  3  0  0  0  0  0  0
  160.4200  207.6570  154.5960 C   0  0  0  0  0  2  0  0  0  0  0  0
  162.2520  209.2010  151.9360 O   0  0  0  0  0  0  0  0  0  0  0  0
  160.4740  204.8260  152.3780 C   0  0  0  0  0  2  0  0  0  0  0  0
  160.6890  206.3160  154.2790 O   0  0  0  0  0  0  0  0  0  0  0  0
  161.1240  208.0830  147.6720 C   0  0  0  0  0  2  0  0  0  0  0  0
  162.4760  207.4200  147.9220 C   0  0  1  0  0  3  0  0  0  0  0  0
  160.5820  206.2630  152.8860 C   0  0  1  0  0  3  0  0  0  0  0  0
  162.3010  208.5440  150.7360 N   0  0  2  0  0  0  0  0  0  0  0  0
  161.2780  204.9420  150.2580 C   0  0  1  0  0  3  0  0  0  0  0  0
  162.2490  208.9150  148.2670 C   0  0  2  0  0  3  0  0  0  0  0  0
  161.7560  209.3740  149.6580 C   0  0  2  0  0  3  0  0  0  0  0  0
  160.0980  204.8170  151.0200 O   0  0  0  0  0  0  0  0  0  0  0  0
  160.8550  202.5600  149.3710 C   0  0  0  0  0  2  0  0  0  0  0  0
  161.2450  203.9930  149.1010 C   0  0  0  0  0  0  0  0  0  0  0  0
  161.5430  204.4220  147.8700 C   0  0  0  0  0  3  0  0  0  0  0  0
  161.7850  203.8890  145.5820 O   0  0  0  0  0  0  0  0  0  0  0  0
  161.1840  202.1160  146.9690 N   0  0  0  0  0  0  0  0  0  0  0  0
  161.5150  203.4870  146.7430 C   0  0  0  0  0  0  0  0  0  0  0  0
  160.8860  201.6700  148.1530 C   0  0  0  0  0  3  0  0  0  0  0  0
  162.1300  210.8440  149.8330 C   0  0  0  0  0  2  0  0  0  0  0  0
  161.8860  211.6220  148.5470 C   0  0  0  0  0  0  0  0  0  0  0  0
  162.3200  213.0680  148.5850 C   0  0  0  0  0  2  0  0  0  0  0  0
  163.1350  212.0410  147.8090 C   0  0  0  0  0  2  0  0  0  0  0  0
  160.6880  211.3220  147.6490 C   0  0  0  0  0  2  0  0  0  0  0  0
  160.0820  212.5890  147.0610 C   0  0  0  0  0  2  0  0  0  0  0  0
  159.8750  212.4340  145.2640 S   0  0  0  0  0  1  0  0  0  0  0  0
  161.2310  209.8930  154.2650 O   0  0  0  0  0  0  0  0  0  0  0  0
  161.9480  210.5540  155.6510 P   0  0  0  0  0  4  0  0  0  0  0  0
  163.5500  210.9390  155.3400 F   0  0  0  0  0  0  0  0  0  0  0  0
  161.1200  211.9340  156.1170 F   0  0  0  0  0  0  0  0  0  0  0  0
  161.8850  209.4320  156.8910 F   0  0  0  0  0  0  0  0  0  0  0  0
  1 13  1  0  0  0  0
  1  5  1  0  0  0  0
  2  6  1  0  0  0  0
  3 33  1  0  0  0  0
  3  7  1  0  0  0  0
  4  1  1  0  0  0  0
  5  3  1  0  0  0  0
  6 15  1  0  0  0  0
  6  4  1  0  0  0  0
  8  5  1  0  0  0  0
  9 13  1  0  0  0  0
 10  7  1  0  0  0  0
 11 12  1  0  0  0  0
 11 16  1  0  0  0  0
 12 16  1  0  0  0  0
 12  2  1  0  0  0  0
 13 10  1  0  0  0  0
 14  4  1  0  0  0  0
 14  8  1  0  0  0  0
 15 18  1  0  0  0  0
 16 17  1  0  0  0  0
 17 26  1  0  0  0  0
 17 14  1  0  0  0  0
 18  9  1  0  0  0  0
 20 19  1  0  0  0  0
 20 15  1  0  0  0  0
 21 20  2  0  0  0  0
 22 24  2  0  0  0  0
 23 25  2  0  0  0  0
 24 23  1  0  0  0  0
 24 21  1  0  0  0  0
 25 19  1  0  0  0  0
 27 28  1  0  0  0  0
 27 26  1  0  0  0  0
 29 27  1  0  0  0  0
 29 28  1  0  0  0  0
 30 27  1  0  0  0  0
 31 30  1  0  0  0  0
 32 31  1  0  0  0  0
 33 34  1  0  0  0  0
 34 36  1  0  0  0  0
 34 37  1  0  0  0  0
 35 34  1  0  0  0  0
M  END
>  <MODEL>
4

>  <REMARK>
 VINA RESULT:      -6.0      4.400      6.754
  Name = 
  7 active torsions:
  status: ('A' for Active; 'I' for Inactive)
    1  A    between atoms: C_1  and  C_4
    2  A    between atoms: C_1  and  C_27
    3  A    between atoms: P_2  and  O_22
    4  A    between atoms: C_4  and  C_12
    5  A    between atoms: C_6  and  O_22
    6  A    between atoms: C_8  and  C_12
    7  A    between atoms: C_23  and  C_30
                            x       y       z     vdW  Elec       q    Type
                         _______ _______ _______ _____ _____    ______ ____

>  <TORSDO>
F 7

$$$$
=
 OpenBabel11122414003D

 37 43  0  0  1  0  0  0  0  0999 V2000
  161.8270  208.1990  152.9280 C   0  0  1  0  0  3  0  0  0  0  0  0
  162.7060  207.0140  149.9650 O   0  0  0  0  0  0  0  0  0  0  0  0
  161.6440  210.3430  154.3910 C   0  0  2  0  0  3  0  0  0  0  0  0
  161.4470  208.3490  151.5020 C   0  0  2  0  0  3  0  0  0  0  0  0
  162.3350  209.6040  153.2170 C   0  0  2  0  0  3  0  0  0  0  0  0
  161.5010  207.0540  150.6860 C   0  0  2  0  0  3  0  0  0  0  0  0
  160.4230  209.5980  154.9510 C   0  0  0  0  0  2  0  0  0  0  0  0
  162.3160  210.3250  152.0000 O   0  0  0  0  0  0  0  0  0  0  0  0
  160.4510  206.2660  153.5950 C   0  0  0  0  0  2  0  0  0  0  0  0
  160.6700  208.2170  155.0190 O   0  0  0  0  0  0  0  0  0  0  0  0
  161.2170  208.0960  148.1880 C   0  0  0  0  0  2  0  0  0  0  0  0
  162.5540  207.5080  148.6330 C   0  0  1  0  0  3  0  0  0  0  0  0
  160.5800  207.7860  153.6920 C   0  0  1  0  0  3  0  0  0  0  0  0
  162.3660  209.3630  151.0280 N   0  0  2  0  0  0  0  0  0  0  0  0
  161.2820  205.7840  151.5380 C   0  0  1  0  0  3  0  0  0  0  0  0
  162.3510  209.0430  148.5500 C   0  0  2  0  0  3  0  0  0  0  0  0
  161.8500  209.8730  149.7540 C   0  0  2  0  0  3  0  0  0  0  0  0
  160.0900  205.8900  152.2850 O   0  0  0  0  0  0  0  0  0  0  0  0
  161.2030  203.2130  151.3770 C   0  0  0  0  0  2  0  0  0  0  0  0
  161.2450  204.5540  150.6850 C   0  0  0  0  0  0  0  0  0  0  0  0
  161.2370  204.6590  149.3520 C   0  0  0  0  0  3  0  0  0  0  0  0
  161.1890  203.5480  147.2700 O   0  0  0  0  0  0  0  0  0  0  0  0
  161.2030  202.1670  149.1460 N   0  0  0  0  0  0  0  0  0  0  0  0
  161.2070  203.4530  148.5240 C   0  0  0  0  0  0  0  0  0  0  0  0
  161.2060  202.0320  150.4390 C   0  0  0  0  0  3  0  0  0  0  0  0
  162.2500  211.3290  149.5250 C   0  0  0  0  0  2  0  0  0  0  0  0
  161.0990  212.1190  148.9180 C   0  0  0  0  0  0  0  0  0  0  0  0
  160.0510  212.5780  149.9030 C   0  0  0  0  0  2  0  0  0  0  0  0
  161.0440  213.5740  149.3170 C   0  0  0  0  0  2  0  0  0  0  0  0
  160.5890  211.8280  147.5080 C   0  0  0  0  0  2  0  0  0  0  0  0
  160.4550  213.0960  146.6750 C   0  0  0  0  0  2  0  0  0  0  0  0
  161.9090  213.3280  145.6120 S   0  0  0  0  0  1  0  0  0  0  0  0
  161.2800  211.6440  154.0330 O   0  0  0  0  0  0  0  0  0  0  0  0
  159.6110  211.5850  153.7440 P   0  0  0  0  0  4  0  0  0  0  0  0
  159.2830  210.5080  152.5020 F   0  0  0  0  0  0  0  0  0  0  0  0
  158.8090  211.1010  155.1330 F   0  0  0  0  0  0  0  0  0  0  0  0
  159.0750  213.1080  153.3040 F   0  0  0  0  0  0  0  0  0  0  0  0
  1  5  1  0  0  0  0
  1 13  1  0  0  0  0
  2  6  1  0  0  0  0
  3  7  1  0  0  0  0
  4  1  1  0  0  0  0
  5  3  1  0  0  0  0
  6  4  1  0  0  0  0
  6 15  1  0  0  0  0
  7 10  1  0  0  0  0
  8  5  1  0  0  0  0
  9 13  1  0  0  0  0
 11 16  1  0  0  0  0
 11 12  1  0  0  0  0
 12  2  1  0  0  0  0
 13 10  1  0  0  0  0
 14  4  1  0  0  0  0
 14  8  1  0  0  0  0
 15 18  1  0  0  0  0
 16 12  1  0  0  0  0
 16 17  1  0  0  0  0
 17 14  1  0  0  0  0
 18  9  1  0  0  0  0
 20 19  1  0  0  0  0
 20 15  1  0  0  0  0
 21 20  2  0  0  0  0
 22 24  2  0  0  0  0
 23 25  2  0  0  0  0
 24 23  1  0  0  0  0
 24 21  1  0  0  0  0
 25 19  1  0  0  0  0
 26 17  1  0  0  0  0
 27 29  1  0  0  0  0
 27 26  1  0  0  0  0
 27 28  1  0  0  0  0
 29 28  1  0  0  0  0
 30 27  1  0  0  0  0
 31 30  1  0  0  0  0
 32 31  1  0  0  0  0
 33  3  1  0  0  0  0
 34 33  1  0  0  0  0
 34 36  1  0  0  0  0
 35 34  1  0  0  0  0
 37 34  1  0  0  0  0
M  END
>  <MODEL>
5

>  <REMARK>
 VINA RESULT:      -5.7      3.925      6.248
  Name = 
  7 active torsions:
  status: ('A' for Active; 'I' for Inactive)
    1  A    between atoms: C_1  and  C_4
    2  A    between atoms: C_1  and  C_27
    3  A    between atoms: P_2  and  O_22
    4  A    between atoms: C_4  and  C_12
    5  A    between atoms: C_6  and  O_22
    6  A    between atoms: C_8  and  C_12
    7  A    between atoms: C_23  and  C_30
                            x       y       z     vdW  Elec       q    Type
                         _______ _______ _______ _____ _____    ______ ____

>  <TORSDO>
F 7

$$$$
=
 OpenBabel11122414003D

 37 43  0  0  1  0  0  0  0  0999 V2000
  161.8310  205.9780  152.0540 C   0  0  1  0  0  3  0  0  0  0  0  0
  162.7060  206.4620  148.8980 O   0  0  0  0  0  0  0  0  0  0  0  0
  161.6390  207.0860  154.4010 C   0  0  2  0  0  3  0  0  0  0  0  0
  161.4440  206.8260  150.8990 C   0  0  2  0  0  3  0  0  0  0  0  0
  162.3310  207.0480  153.0140 C   0  0  2  0  0  3  0  0  0  0  0  0
  161.5040  206.1220  149.5410 C   0  0  2  0  0  3  0  0  0  0  0  0
  160.4250  206.1500  154.5060 C   0  0  0  0  0  2  0  0  0  0  0  0
  162.3020  208.2850  152.3290 O   0  0  0  0  0  0  0  0  0  0  0  0
  160.4700  203.9630  151.6510 C   0  0  0  0  0  2  0  0  0  0  0  0
  160.6820  204.9270  153.8660 O   0  0  0  0  0  0  0  0  0  0  0  0
  161.2040  208.2830  147.9140 C   0  0  0  0  0  2  0  0  0  0  0  0
  162.5460  207.5610  147.9990 C   0  0  1  0  0  3  0  0  0  0  0  0
  160.5890  205.2260  152.5030 C   0  0  1  0  0  3  0  0  0  0  0  0
  162.3550  207.9480  151.0040 N   0  0  2  0  0  0  0  0  0  0  0  0
  161.2960  204.5940  149.6330 C   0  0  1  0  0  3  0  0  0  0  0  0
  162.3320  208.9250  148.7050 C   0  0  2  0  0  3  0  0  0  0  0  0
  161.8310  209.0280  150.1640 C   0  0  2  0  0  3  0  0  0  0  0  0
  160.1070  204.2990  150.3310 O   0  0  0  0  0  0  0  0  0  0  0  0
  160.8610  202.5140  148.1770 C   0  0  0  0  0  2  0  0  0  0  0  0
  161.2640  203.9650  148.2750 C   0  0  0  0  0  0  0  0  0  0  0  0
  161.5730  204.6860  147.1920 C   0  0  0  0  0  3  0  0  0  0  0  0
  161.8270  204.7390  144.8450 O   0  0  0  0  0  0  0  0  0  0  0  0
  161.2040  202.6810  145.7410 N   0  0  0  0  0  0  0  0  0  0  0  0
  161.5460  204.0630  145.8680 C   0  0  0  0  0  0  0  0  0  0  0  0
  160.8940  201.9560  146.7750 C   0  0  0  0  0  3  0  0  0  0  0  0
  162.2200  210.4030  150.7030 C   0  0  0  0  0  2  0  0  0  0  0  0
  160.9900  211.1780  151.1530 C   0  0  0  0  0  0  0  0  0  0  0  0
  160.0180  210.3940  152.0030 C   0  0  0  0  0  2  0  0  0  0  0  0
  160.9160  211.4480  152.6380 C   0  0  0  0  0  2  0  0  0  0  0  0
  160.3670  212.2630  150.2790 C   0  0  0  0  0  2  0  0  0  0  0  0
  161.1720  212.5070  149.0100 C   0  0  0  0  0  2  0  0  0  0  0  0
  161.4440  214.2840  148.7490 S   0  0  0  0  0  1  0  0  0  0  0  0
  161.2650  208.3870  154.7500 O   0  0  0  0  0  0  0  0  0  0  0  0
  161.2130  208.4030  156.4440 P   0  0  0  0  0  4  0  0  0  0  0  0
  162.7040  208.8590  157.0590 F   0  0  0  0  0  0  0  0  0  0  0  0
  160.0380  209.4760  156.9670 F   0  0  0  0  0  0  0  0  0  0  0  0
  160.8380  206.8680  156.9970 F   0  0  0  0  0  0  0  0  0  0  0  0
  1 13  1  0  0  0  0
  1  5  1  0  0  0  0
  2  6  1  0  0  0  0
  3  7  1  0  0  0  0
  3 33  1  0  0  0  0
  4 14  1  0  0  0  0
  4  1  1  0  0  0  0
  5  3  1  0  0  0  0
  6 15  1  0  0  0  0
  6  4  1  0  0  0  0
  8  5  1  0  0  0  0
  9 13  1  0  0  0  0
 10  7  1  0  0  0  0
 11 12  1  0  0  0  0
 11 16  1  0  0  0  0
 12 16  1  0  0  0  0
 12  2  1  0  0  0  0
 13 10  1  0  0  0  0
 14  8  1  0  0  0  0
 15 18  1  0  0  0  0
 16 17  1  0  0  0  0
 17 26  1  0  0  0  0
 17 14  1  0  0  0  0
 18  9  1  0  0  0  0
 19 20  1  0  0  0  0
 20 15  1  0  0  0  0
 21 20  2  0  0  0  0
 22 24  2  0  0  0  0
 23 24  1  0  0  0  0
 23 25  2  0  0  0  0
 24 21  1  0  0  0  0
 25 19  1  0  0  0  0
 26 27  1  0  0  0  0
 27 28  1  0  0  0  0
 27 29  1  0  0  0  0
 28 29  1  0  0  0  0
 30 27  1  0  0  0  0
 31 30  1  0  0  0  0
 32 31  1  0  0  0  0
 33 34  1  0  0  0  0
 34 36  1  0  0  0  0
 34 37  1  0  0  0  0
 34 35  1  0  0  0  0
M  END
>  <MODEL>
6

>  <REMARK>
 VINA RESULT:      -5.5      4.379      7.012
  Name = 
  7 active torsions:
  status: ('A' for Active; 'I' for Inactive)
    1  A    between atoms: C_1  and  C_4
    2  A    between atoms: C_1  and  C_27
    3  A    between atoms: P_2  and  O_22
    4  A    between atoms: C_4  and  C_12
    5  A    between atoms: C_6  and  O_22
    6  A    between atoms: C_8  and  C_12
    7  A    between atoms: C_23  and  C_30
                            x       y       z     vdW  Elec       q    Type
                         _______ _______ _______ _____ _____    ______ ____

>  <TORSDO>
F 7

$$$$
=
 OpenBabel11122414003D

 37 43  0  0  1  0  0  0  0  0999 V2000
  161.6790  210.5560  151.6410 C   0  0  1  0  0  3  0  0  0  0  0  0
  161.2040  213.4990  150.2010 O   0  0  0  0  0  0  0  0  0  0  0  0
  161.3590  209.1830  153.8270 C   0  0  2  0  0  3  0  0  0  0  0  0
  160.5590  211.4540  151.2640 C   0  0  2  0  0  3  0  0  0  0  0  0
  161.5330  210.5680  153.1560 C   0  0  2  0  0  3  0  0  0  0  0  0
  160.7520  212.1950  149.9380 C   0  0  2  0  0  3  0  0  0  0  0  0
  161.1740  208.0340  152.8240 C   0  0  0  0  0  2  0  0  0  0  0  0
  160.5110  211.4910  153.4790 O   0  0  0  0  0  0  0  0  0  0  0  0
  162.0010  209.2840  149.5550 C   0  0  0  0  0  2  0  0  0  0  0  0
  162.0270  208.1940  151.7200 O   0  0  0  0  0  0  0  0  0  0  0  0
  158.6890  213.9610  150.1210 C   0  0  0  0  0  2  0  0  0  0  0  0
  160.1330  214.4440  150.2440 C   0  0  1  0  0  3  0  0  0  0  0  0
  161.4330  209.2140  150.9710 C   0  0  1  0  0  3  0  0  0  0  0  0
  160.4590  212.3390  152.4060 N   0  0  2  0  0  0  0  0  0  0  0  0
  161.6640  211.4440  148.9440 C   0  0  1  0  0  3  0  0  0  0  0  0
  159.2290  214.3150  151.4970 C   0  0  2  0  0  3  0  0  0  0  0  0
  159.1610  213.0160  152.3330 C   0  0  2  0  0  3  0  0  0  0  0  0
  161.2050  210.1250  148.7510 O   0  0  0  0  0  0  0  0  0  0  0  0
  163.0780  212.7240  147.2100 C   0  0  0  0  0  2  0  0  0  0  0  0
  161.7430  212.1580  147.6300 C   0  0  0  0  0  0  0  0  0  0  0  0
  160.6570  212.2690  146.8580 C   0  0  0  0  0  3  0  0  0  0  0  0
  159.7210  213.0710  144.8440 O   0  0  0  0  0  0  0  0  0  0  0  0
  161.9780  213.5520  145.1660 N   0  0  0  0  0  0  0  0  0  0  0  0
  160.7390  212.9730  145.5780 C   0  0  0  0  0  0  0  0  0  0  0  0
  163.0520  213.4570  145.8920 C   0  0  0  0  0  3  0  0  0  0  0  0
  158.6300  213.3720  153.7190 C   0  0  0  0  0  2  0  0  0  0  0  0
  157.2090  212.8580  153.9050 C   0  0  0  0  0  0  0  0  0  0  0  0
  156.2380  213.8590  154.4830 C   0  0  0  0  0  2  0  0  0  0  0  0
  156.1770  213.4960  153.0050 C   0  0  0  0  0  2  0  0  0  0  0  0
  156.9290  211.3980  154.2550 C   0  0  0  0  0  2  0  0  0  0  0  0
  156.7340  211.1950  155.7510 C   0  0  0  0  0  2  0  0  0  0  0  0
  158.2870  211.4770  156.6500 S   0  0  0  0  0  1  0  0  0  0  0  0
  160.3020  209.1860  154.7410 O   0  0  0  0  0  0  0  0  0  0  0  0
  160.6860  207.9950  155.8840 P   0  0  0  0  0  4  0  0  0  0  0  0
  160.4480  206.4720  155.2260 F   0  0  0  0  0  0  0  0  0  0  0  0
  162.2840  208.1570  156.3600 F   0  0  0  0  0  0  0  0  0  0  0  0
  159.6950  208.1750  157.2200 F   0  0  0  0  0  0  0  0  0  0  0  0
  1  5  1  0  0  0  0
  2 12  1  0  0  0  0
  3 33  1  0  0  0  0
  4  1  1  0  0  0  0
  4 14  1  0  0  0  0
  5  8  1  0  0  0  0
  5  3  1  0  0  0  0
  6  2  1  0  0  0  0
  6  4  1  0  0  0  0
  7  3  1  0  0  0  0
  9 13  1  0  0  0  0
 10  7  1  0  0  0  0
 11 12  1  0  0  0  0
 11 16  1  0  0  0  0
 12 16  1  0  0  0  0
 13  1  1  0  0  0  0
 13 10  1  0  0  0  0
 14  8  1  0  0  0  0
 15  6  1  0  0  0  0
 16 17  1  0  0  0  0
 17 14  1  0  0  0  0
 17 26  1  0  0  0  0
 18 15  1  0  0  0  0
 18  9  1  0  0  0  0
 19 20  1  0  0  0  0
 20 15  1  0  0  0  0
 21 20  2  0  0  0  0
 22 24  2  0  0  0  0
 23 24  1  0  0  0  0
 23 25  2  0  0  0  0
 24 21  1  0  0  0  0
 25 19  1  0  0  0  0
 26 27  1  0  0  0  0
 27 30  1  0  0  0  0
 27 28  1  0  0  0  0
 29 27  1  0  0  0  0
 29 28  1  0  0  0  0
 30 31  1  0  0  0  0
 31 32  1  0  0  0  0
 33 34  1  0  0  0  0
 34 36  1  0  0  0  0
 34 37  1  0  0  0  0
 35 34  1  0  0  0  0
M  END
>  <MODEL>
7

>  <REMARK>
 VINA RESULT:      -5.4      5.109      8.212
  Name = 
  7 active torsions:
  status: ('A' for Active; 'I' for Inactive)
    1  A    between atoms: C_1  and  C_4
    2  A    between atoms: C_1  and  C_27
    3  A    between atoms: P_2  and  O_22
    4  A    between atoms: C_4  and  C_12
    5  A    between atoms: C_6  and  O_22
    6  A    between atoms: C_8  and  C_12
    7  A    between atoms: C_23  and  C_30
                            x       y       z     vdW  Elec       q    Type
                         _______ _______ _______ _____ _____    ______ ____

>  <TORSDO>
F 7

$$$$
=
 OpenBabel11122414003D

 37 43  0  0  1  0  0  0  0  0999 V2000
  160.7660  204.2230  150.4260 C   0  0  1  0  0  3  0  0  0  0  0  0
  160.7100  207.3220  149.2620 O   0  0  0  0  0  0  0  0  0  0  0  0
  161.0330  201.7160  149.7840 C   0  0  2  0  0  3  0  0  0  0  0  0
  161.6620  205.1750  149.7240 C   0  0  2  0  0  3  0  0  0  0  0  0
  160.6270  203.1490  149.3560 C   0  0  2  0  0  3  0  0  0  0  0  0
  161.5260  206.6320  150.1740 C   0  0  2  0  0  3  0  0  0  0  0  0
  161.6900  201.6520  151.1710 C   0  0  0  0  0  2  0  0  0  0  0  0
  161.2980  203.6090  148.1990 O   0  0  0  0  0  0  0  0  0  0  0  0
  161.1700  204.8260  152.7810 C   0  0  0  0  0  2  0  0  0  0  0  0
  161.0390  202.5120  152.0710 O   0  0  0  0  0  0  0  0  0  0  0  0
  162.9880  207.8340  148.2180 C   0  0  0  0  0  2  0  0  0  0  0  0
  161.4710  208.0020  148.2630 C   0  0  1  0  0  3  0  0  0  0  0  0
  161.4710  203.7890  151.7000 C   0  0  1  0  0  3  0  0  0  0  0  0
  161.3200  204.9720  148.3310 N   0  0  2  0  0  0  0  0  0  0  0  0
  161.0370  206.7800  151.6320 C   0  0  1  0  0  3  0  0  0  0  0  0
  162.1350  207.0590  147.2260 C   0  0  2  0  0  3  0  0  0  0  0  0
  162.3870  205.5620  147.5180 C   0  0  2  0  0  3  0  0  0  0  0  0
  161.8510  206.0290  152.5040 O   0  0  0  0  0  0  0  0  0  0  0  0
  161.7750  209.2140  151.2200 C   0  0  0  0  0  2  0  0  0  0  0  0
  161.0140  208.2150  152.0570 C   0  0  0  0  0  0  0  0  0  0  0  0
  160.3230  208.5850  153.1400 C   0  0  0  0  0  3  0  0  0  0  0  0
  159.6530  210.3430  154.5680 O   0  0  0  0  0  0  0  0  0  0  0  0
  161.0490  210.9550  152.8050 N   0  0  0  0  0  0  0  0  0  0  0  0
  160.3100  209.9890  153.5540 C   0  0  0  0  0  0  0  0  0  0  0  0
  161.7270  210.6270  151.7460 C   0  0  0  0  0  3  0  0  0  0  0  0
  162.5470  204.8390  146.1830 C   0  0  0  0  0  2  0  0  0  0  0  0
  161.5960  205.4090  145.1400 C   0  0  0  0  0  0  0  0  0  0  0  0
  160.3380  204.6050  144.9160 C   0  0  0  0  0  2  0  0  0  0  0  0
  160.2830  205.9190  145.6850 C   0  0  0  0  0  2  0  0  0  0  0  0
  162.1130  206.1680  143.9200 C   0  0  0  0  0  2  0  0  0  0  0  0
  161.4090  205.7410  142.6390 C   0  0  0  0  0  2  0  0  0  0  0  0
  162.1350  206.5690  141.1950 S   0  0  0  0  0  1  0  0  0  0  0  0
  161.8690  201.1170  148.8370 O   0  0  0  0  0  0  0  0  0  0  0  0
  160.8840  200.8090  147.4930 P   0  0  0  0  0  4  0  0  0  0  0  0
  159.2710  201.0010  147.9090 F   0  0  0  0  0  0  0  0  0  0  0  0
  161.2730  201.8600  146.2490 F   0  0  0  0  0  0  0  0  0  0  0  0
  161.1330  199.2360  146.9790 F   0  0  0  0  0  0  0  0  0  0  0  0
  1 13  1  0  0  0  0
  2  6  1  0  0  0  0
  3  7  1  0  0  0  0
  4  6  1  0  0  0  0
  4  1  1  0  0  0  0
  5  3  1  0  0  0  0
  5  1  1  0  0  0  0
  6 15  1  0  0  0  0
  7 10  1  0  0  0  0
  8 14  1  0  0  0  0
  8  5  1  0  0  0  0
 11 12  1  0  0  0  0
 12  2  1  0  0  0  0
 13 10  1  0  0  0  0
 13  9  1  0  0  0  0
 14  4  1  0  0  0  0
 15 20  1  0  0  0  0
 15 18  1  0  0  0  0
 16 17  1  0  0  0  0
 16 11  1  0  0  0  0
 16 12  1  0  0  0  0
 17 14  1  0  0  0  0
 18  9  1  0  0  0  0
 19 25  1  0  0  0  0
 19 20  1  0  0  0  0
 20 21  2  0  0  0  0
 21 24  1  0  0  0  0
 23 24  1  0  0  0  0
 24 22  2  0  0  0  0
 25 23  2  0  0  0  0
 26 17  1  0  0  0  0
 27 29  1  0  0  0  0
 27 26  1  0  0  0  0
 28 27  1  0  0  0  0
 28 29  1  0  0  0  0
 30 27  1  0  0  0  0
 31 30  1  0  0  0  0
 32 31  1  0  0  0  0
 33  3  1  0  0  0  0
 34 35  1  0  0  0  0
 34 33  1  0  0  0  0
 36 34  1  0  0  0  0
 37 34  1  0  0  0  0
M  END
>  <MODEL>
8

>  <REMARK>
 VINA RESULT:      -5.4      3.311      5.153
  Name = 
  7 active torsions:
  status: ('A' for Active; 'I' for Inactive)
    1  A    between atoms: C_1  and  C_4
    2  A    between atoms: C_1  and  C_27
    3  A    between atoms: P_2  and  O_22
    4  A    between atoms: C_4  and  C_12
    5  A    between atoms: C_6  and  O_22
    6  A    between atoms: C_8  and  C_12
    7  A    between atoms: C_23  and  C_30
                            x       y       z     vdW  Elec       q    Type
                         _______ _______ _______ _____ _____    ______ ____

>  <TORSDO>
F 7

$$$$
=
 OpenBabel11122414003D

 37 43  0  0  1  0  0  0  0  0999 V2000
  161.8750  207.3670  151.7670 C   0  0  1  0  0  3  0  0  0  0  0  0
  162.6610  208.5460  148.7750 O   0  0  0  0  0  0  0  0  0  0  0  0
  161.4950  207.9910  154.2640 C   0  0  2  0  0  3  0  0  0  0  0  0
  161.3520  208.3310  150.7670 C   0  0  2  0  0  3  0  0  0  0  0  0
  162.1850  208.3160  152.9160 C   0  0  2  0  0  3  0  0  0  0  0  0
  161.5330  207.9010  149.3090 C   0  0  2  0  0  3  0  0  0  0  0  0
  160.4570  206.8620  154.1650 C   0  0  0  0  0  2  0  0  0  0  0  0
  161.9480  209.6340  152.4580 O   0  0  0  0  0  0  0  0  0  0  0  0
  160.8770  205.2580  150.9730 C   0  0  0  0  0  2  0  0  0  0  0  0
  160.9190  205.8330  153.3290 O   0  0  0  0  0  0  0  0  0  0  0  0
  160.8730  210.2370  148.0780 C   0  0  0  0  0  2  0  0  0  0  0  0
  162.3190  209.7450  148.0780 C   0  0  1  0  0  3  0  0  0  0  0  0
  160.7790  206.3510  152.0370 C   0  0  1  0  0  3  0  0  0  0  0  0
  162.0600  209.5520  151.0960 N   0  0  2  0  0  0  0  0  0  0  0  0
  161.5880  206.3680  149.1250 C   0  0  1  0  0  3  0  0  0  0  0  0
  161.8750  210.9060  149.0050 C   0  0  2  0  0  3  0  0  0  0  0  0
  161.3610  210.6620  150.4420 C   0  0  2  0  0  3  0  0  0  0  0  0
  160.4650  205.7590  149.7220 O   0  0  0  0  0  0  0  0  0  0  0  0
  160.5980  206.5250  146.7510 C   0  0  0  0  0  2  0  0  0  0  0  0
  161.6660  205.9950  147.6770 C   0  0  0  0  0  0  0  0  0  0  0  0
  162.6650  205.2260  147.2330 C   0  0  0  0  0  3  0  0  0  0  0  0
  163.6760  204.1440  145.3930 O   0  0  0  0  0  0  0  0  0  0  0  0
  161.7180  205.3140  144.9190 N   0  0  0  0  0  0  0  0  0  0  0  0
  162.7320  204.8600  145.8170 C   0  0  0  0  0  0  0  0  0  0  0  0
  160.7360  206.0660  145.3200 C   0  0  0  0  0  3  0  0  0  0  0  0
  161.5100  211.9640  151.2270 C   0  0  0  0  0  2  0  0  0  0  0  0
  160.1500  212.5050  151.6450 C   0  0  0  0  0  0  0  0  0  0  0  0
  159.1420  211.4550  152.0460 C   0  0  0  0  0  2  0  0  0  0  0  0
  159.8130  212.3210  153.1050 C   0  0  0  0  0  2  0  0  0  0  0  0
  159.5650  213.7650  151.0120 C   0  0  0  0  0  2  0  0  0  0  0  0
  158.7240  213.4520  149.7820 C   0  0  0  0  0  2  0  0  0  0  0  0
  159.6020  213.9170  148.2620 S   0  0  0  0  0  1  0  0  0  0  0  0
  160.9050  209.1270  154.8250 O   0  0  0  0  0  0  0  0  0  0  0  0
  161.8410  209.4980  156.1870 P   0  0  0  0  0  4  0  0  0  0  0  0
  160.9490  210.4290  157.2590 F   0  0  0  0  0  0  0  0  0  0  0  0
  162.3320  208.0870  156.9440 F   0  0  0  0  0  0  0  0  0  0  0  0
  163.1920  210.3610  155.7070 F   0  0  0  0  0  0  0  0  0  0  0  0
  1 13  1  0  0  0  0
  1  5  1  0  0  0  0
  2  6  1  0  0  0  0
  3 33  1  0  0  0  0
  4 14  1  0  0  0  0
  4  1  1  0  0  0  0
  5  3  1  0  0  0  0
  6  4  1  0  0  0  0
  7  3  1  0  0  0  0
  8  5  1  0  0  0  0
  9 13  1  0  0  0  0
 10  7  1  0  0  0  0
 11 16  1  0  0  0  0
 12 11  1  0  0  0  0
 12  2  1  0  0  0  0
 12 16  1  0  0  0  0
 13 10  1  0  0  0  0
 14  8  1  0  0  0  0
 15  6  1  0  0  0  0
 15 18  1  0  0  0  0
 16 17  1  0  0  0  0
 17 14  1  0  0  0  0
 17 26  1  0  0  0  0
 18  9  1  0  0  0  0
 19 20  1  0  0  0  0
 20 15  1  0  0  0  0
 21 20  2  0  0  0  0
 22 24  2  0  0  0  0
 23 25  2  0  0  0  0
 23 24  1  0  0  0  0
 24 21  1  0  0  0  0
 25 19  1  0  0  0  0
 26 27  1  0  0  0  0
 27 28  1  0  0  0  0
 27 29  1  0  0  0  0
 28 29  1  0  0  0  0
 30 27  1  0  0  0  0
 31 30  1  0  0  0  0
 32 31  1  0  0  0  0
 33 34  1  0  0  0  0
 34 36  1  0  0  0  0
 34 35  1  0  0  0  0
 37 34  1  0  0  0  0
M  END
>  <MODEL>
9

>  <REMARK>
 VINA RESULT:      -5.4      4.400      7.050
  Name = 
  7 active torsions:
  status: ('A' for Active; 'I' for Inactive)
    1  A    between atoms: C_1  and  C_4
    2  A    between atoms: C_1  and  C_27
    3  A    between atoms: P_2  and  O_22
    4  A    between atoms: C_4  and  C_12
    5  A    between atoms: C_6  and  O_22
    6  A    between atoms: C_8  and  C_12
    7  A    between atoms: C_23  and  C_30
                            x       y       z     vdW  Elec       q    Type
                         _______ _______ _______ _____ _____    ______ ____

>  <TORSDO>
F 7

$$$$
