=
 OpenBabel11122414343D

 34 41  0  0  1  0  0  0  0  0999 V2000
  160.7970  208.2000  154.5620 C   0  0  1  0  0  3  0  0  0  0  0  0
  161.5700  205.8260  153.8930 C   0  0  0  0  0  2  0  0  0  0  0  0
  158.3010  213.7060  152.3370 C   0  0  0  0  0  0  0  0  0  0  0  0
  160.0140  210.5890  154.8770 C   0  0  2  0  0  3  0  0  0  0  0  0
  160.1710  212.1010  152.8750 C   0  0  2  0  0  3  0  0  0  0  0  0
  159.7660  213.4420  150.5150 S   0  0  0  0  0  0  0  0  0  0  0  0
  158.0880  213.7610  151.0120 N   0  0  0  0  0  0  0  0  0  0  0  0
  157.9440  213.7720  154.8650 C   0  0  0  0  0  2  0  0  0  0  0  0
  161.7650  207.5740  152.4220 C   0  0  2  0  0  3  0  0  0  0  0  0
  162.0590  206.8050  149.3180 C   0  0  0  0  0  2  0  0  0  0  0  0
  160.1330  210.9510  151.9670 N   0  0  0  0  0  2  0  0  0  0  0  0
  159.2680  213.0090  155.0600 C   0  0  0  0  0  2  0  0  0  0  0  0
  161.0510  208.6780  151.6410 C   0  0  1  0  0  3  0  0  0  0  0  0
  162.0270  205.2320  152.6950 O   0  0  0  0  0  0  0  0  0  0  0  0
  159.3700  211.7790  154.1600 C   0  0  2  0  0  3  0  0  0  0  0  0
  157.4540  213.8000  153.4830 N   0  0  0  0  0  2  0  0  0  0  0  0
  161.4450  205.9850  150.4500 C   0  0  2  0  0  3  0  0  0  0  0  0
  160.1400  209.4220  153.8910 C   0  0  1  0  0  3  0  0  0  0  0  0
  159.7650  213.4390  152.2010 C   0  0  1  0  0  3  0  0  0  0  0  0
  160.8780  209.8650  152.6040 C   0  0  2  0  0  3  0  0  0  0  0  0
  159.8020  208.9200  156.7440 C   0  0  0  0  0  2  0  0  0  0  0  0
  161.4580  208.2040  149.2310 C   0  0  0  0  0  2  0  0  0  0  0  0
  159.1680  210.1380  156.0700 C   0  0  0  0  0  2  0  0  0  0  0  0
  161.8570  209.0770  150.4140 C   0  0  0  0  0  2  0  0  0  0  0  0
  162.1960  206.2790  151.7540 C   0  0  1  0  0  3  0  0  0  0  0  0
  159.9410  207.7660  155.7510 C   0  0  0  0  0  2  0  0  0  0  0  0
  160.8760  207.1020  153.5090 C   0  0  2  0  0  3  0  0  0  0  0  0
  161.5550  204.6300  150.1280 O   0  0  0  0  0  0  0  0  0  0  0  0
  160.7970  204.4770  148.9660 C   0  0  0  0  0  2  0  0  0  0  0  0
  160.7700  202.0580  146.2900 C   0  0  0  0  0  2  0  0  0  0  0  0
  161.5200  204.3220  146.5860 C   0  0  0  0  0  2  0  0  0  0  0  0
  161.5690  203.6600  147.9470 C   0  0  0  0  0  3  0  0  0  0  0  0
  161.5060  203.1830  145.5960 C   0  0  0  0  0  2  0  0  0  0  0  0
  160.9280  202.2960  147.7810 C   0  0  0  0  0  2  0  0  0  0  0  0
  1 26  1  1  0  0  0
  3 16  1  0  0  0  0
  4 23  1  1  0  0  0
  5 11  1  6  0  0  0
  5 15  1  0  0  0  0
  6  7  1  0  0  0  0
  6 19  1  0  0  0  0
  7  3  2  0  0  0  0
  8 12  1  0  0  0  0
  9 27  1  0  0  0  0
 10 17  1  0  0  0  0
 11 20  1  0  0  0  0
 13  9  1  0  0  0  0
 13 20  1  0  0  0  0
 14  2  1  0  0  0  0
 15  4  1  0  0  0  0
 15 12  1  0  0  0  0
 16  8  1  0  0  0  0
 17 25  1  0  0  0  0
 18  1  1  0  0  0  0
 18  4  1  0  0  0  0
 19  3  1  0  0  0  0
 19  5  1  0  0  0  0
 20 18  1  0  0  0  0
 22 10  1  0  0  0  0
 22 24  1  0  0  0  0
 23 21  1  0  0  0  0
 24 13  1  0  0  0  0
 25  9  1  0  0  0  0
 25 14  1  0  0  0  0
 26 21  1  0  0  0  0
 27  2  1  0  0  0  0
 27  1  1  0  0  0  0
 28 17  1  0  0  0  0
 29 28  1  0  0  0  0
 30 34  1  0  0  0  0
 31 32  1  0  0  0  0
 32 29  1  0  0  0  0
 33 30  1  0  0  0  0
 33 31  1  0  0  0  0
 34 32  1  0  0  0  0
M  END
>  <MODEL>
1

>  <REMARK>
 VINA RESULT:      -9.6      0.000      0.000
  Name = 
  3 active torsions:
  status: ('A' for Active; 'I' for Inactive)
    1  A    between atoms: C_17  and  O_28
    2  A    between atoms: O_28  and  C_29
    3  A    between atoms: C_29  and  C_32
                            x       y       z     vdW  Elec       q    Type
                         _______ _______ _______ _____ _____    ______ ____

>  <TORSDO>
F 3

$$$$
=
 OpenBabel11122414343D

 34 41  0  0  1  0  0  0  0  0999 V2000
  161.1180  207.8100  154.0600 C   0  0  1  0  0  3  0  0  0  0  0  0
  162.1390  205.8410  152.7340 C   0  0  0  0  0  2  0  0  0  0  0  0
  157.9160  213.3730  153.5220 C   0  0  0  0  0  0  0  0  0  0  0  0
  160.0730  209.8940  155.0520 C   0  0  2  0  0  3  0  0  0  0  0  0
  159.9790  211.9230  153.5710 C   0  0  2  0  0  3  0  0  0  0  0  0
  159.3340  213.8240  151.7000 S   0  0  0  0  0  0  0  0  0  0  0  0
  157.6500  213.7790  152.2690 N   0  0  0  0  0  0  0  0  0  0  0  0
  157.6450  212.6680  155.9610 C   0  0  0  0  0  2  0  0  0  0  0  0
  162.0750  207.9470  151.8300 C   0  0  2  0  0  3  0  0  0  0  0  0
  162.3440  208.1410  148.6360 C   0  0  0  0  0  2  0  0  0  0  0  0
  160.0430  211.0860  152.3700 N   0  0  0  0  0  2  0  0  0  0  0  0
  159.0550  212.0490  155.9260 C   0  0  0  0  0  2  0  0  0  0  0  0
  161.2090  209.1320  151.4010 C   0  0  1  0  0  3  0  0  0  0  0  0
  162.6190  205.6750  151.4150 O   0  0  0  0  0  0  0  0  0  0  0  0
  159.2680  211.1510  154.7100 C   0  0  2  0  0  3  0  0  0  0  0  0
  157.1050  213.0300  154.6460 N   0  0  0  0  0  2  0  0  0  0  0  0
  161.8730  206.9630  149.4830 C   0  0  2  0  0  3  0  0  0  0  0  0
  160.2980  209.0830  153.7710 C   0  0  1  0  0  3  0  0  0  0  0  0
  159.3950  213.3380  153.3130 C   0  0  1  0  0  3  0  0  0  0  0  0
  160.9330  209.9630  152.6660 C   0  0  2  0  0  3  0  0  0  0  0  0
  160.1250  207.7470  156.3580 C   0  0  0  0  0  2  0  0  0  0  0  0
  161.5810  209.4220  148.9570 C   0  0  0  0  0  2  0  0  0  0  0  0
  159.3290  209.0200  156.0640 C   0  0  0  0  0  2  0  0  0  0  0  0
  161.9180  209.9610  150.3410 C   0  0  0  0  0  2  0  0  0  0  0  0
  162.6300  206.9610  150.8160 C   0  0  1  0  0  3  0  0  0  0  0  0
  160.3620  206.9530  155.0740 C   0  0  0  0  0  2  0  0  0  0  0  0
  161.2880  207.0780  152.7350 C   0  0  2  0  0  3  0  0  0  0  0  0
  162.1280  205.7800  148.7840 O   0  0  0  0  0  0  0  0  0  0  0  0
  160.9880  204.9990  148.9790 C   0  0  0  0  0  2  0  0  0  0  0  0
  159.9770  201.5600  149.3870 C   0  0  0  0  0  2  0  0  0  0  0  0
  161.2060  202.8340  147.7620 C   0  0  0  0  0  2  0  0  0  0  0  0
  161.3770  203.5360  149.0930 C   0  0  0  0  0  3  0  0  0  0  0  0
  160.7800  201.4290  148.1100 C   0  0  0  0  0  2  0  0  0  0  0  0
  160.4560  202.8290  150.0690 C   0  0  0  0  0  2  0  0  0  0  0  0
  1 26  1  1  0  0  0
  2 27  1  0  0  0  0
  3 16  1  0  0  0  0
  4 23  1  1  0  0  0
  5 11  1  6  0  0  0
  5 15  1  0  0  0  0
  6  7  1  0  0  0  0
  6 19  1  0  0  0  0
  7  3  2  0  0  0  0
  9 27  1  0  0  0  0
 10 22  1  0  0  0  0
 10 17  1  0  0  0  0
 11 20  1  0  0  0  0
 12  8  1  0  0  0  0
 13  9  1  0  0  0  0
 13 20  1  0  0  0  0
 14  2  1  0  0  0  0
 15  4  1  0  0  0  0
 15 12  1  0  0  0  0
 16  8  1  0  0  0  0
 17 25  1  0  0  0  0
 18  1  1  0  0  0  0
 18  4  1  0  0  0  0
 19  3  1  0  0  0  0
 19  5  1  0  0  0  0
 20 18  1  0  0  0  0
 22 24  1  0  0  0  0
 23 21  1  0  0  0  0
 24 13  1  0  0  0  0
 25 14  1  0  0  0  0
 25  9  1  0  0  0  0
 26 21  1  0  0  0  0
 27  1  1  0  0  0  0
 28 29  1  0  0  0  0
 28 17  1  0  0  0  0
 29 32  1  0  0  0  0
 30 34  1  0  0  0  0
 31 33  1  0  0  0  0
 31 32  1  0  0  0  0
 32 34  1  0  0  0  0
 33 30  1  0  0  0  0
M  END
>  <MODEL>
2

>  <REMARK>
 VINA RESULT:      -9.4      1.138      1.419
  Name = 
  3 active torsions:
  status: ('A' for Active; 'I' for Inactive)
    1  A    between atoms: C_17  and  O_28
    2  A    between atoms: O_28  and  C_29
    3  A    between atoms: C_29  and  C_32
                            x       y       z     vdW  Elec       q    Type
                         _______ _______ _______ _____ _____    ______ ____

>  <TORSDO>
F 3

$$$$
=
 OpenBabel11122414343D

 34 41  0  0  1  0  0  0  0  0999 V2000
  161.0520  207.9220  154.1330 C   0  0  1  0  0  3  0  0  0  0  0  0
  162.0510  205.9470  152.7990 C   0  0  0  0  0  2  0  0  0  0  0  0
  157.9260  213.5300  153.6160 C   0  0  0  0  0  0  0  0  0  0  0  0
  160.0310  210.0140  155.1330 C   0  0  2  0  0  3  0  0  0  0  0  0
  159.9690  212.0530  153.6640 C   0  0  2  0  0  3  0  0  0  0  0  0
  159.3560  213.9730  151.8020 S   0  0  0  0  0  0  0  0  0  0  0  0
  157.6690  213.9470  152.3650 N   0  0  0  0  0  0  0  0  0  0  0  0
  157.6380  212.8150  156.0510 C   0  0  0  0  0  2  0  0  0  0  0  0
  162.0170  208.0590  151.9070 C   0  0  2  0  0  3  0  0  0  0  0  0
  162.2990  208.2680  148.7150 C   0  0  0  0  0  2  0  0  0  0  0  0
  160.0260  211.2210  152.4590 N   0  0  0  0  0  2  0  0  0  0  0  0
  159.0390  212.1780  156.0170 C   0  0  0  0  0  2  0  0  0  0  0  0
  161.1690  209.2580  151.4820 C   0  0  1  0  0  3  0  0  0  0  0  0
  162.5320  205.7830  151.4810 O   0  0  0  0  0  0  0  0  0  0  0  0
  159.2440  211.2840  154.7960 C   0  0  2  0  0  3  0  0  0  0  0  0
  157.1070  213.1920  154.7360 N   0  0  0  0  0  2  0  0  0  0  0  0
  161.8090  207.0910  149.5530 C   0  0  2  0  0  3  0  0  0  0  0  0
  160.2500  209.2080  153.8490 C   0  0  1  0  0  3  0  0  0  0  0  0
  159.4040  213.4760  153.4130 C   0  0  1  0  0  3  0  0  0  0  0  0
  160.8990  210.0850  152.7510 C   0  0  2  0  0  3  0  0  0  0  0  0
  160.0510  207.8590  156.4270 C   0  0  0  0  0  2  0  0  0  0  0  0
  161.5520  209.5570  149.0410 C   0  0  0  0  0  2  0  0  0  0  0  0
  159.2730  209.1450  156.1390 C   0  0  0  0  0  2  0  0  0  0  0  0
  161.8920  210.0830  150.4290 C   0  0  0  0  0  2  0  0  0  0  0  0
  162.5630  207.0710  150.8890 C   0  0  1  0  0  3  0  0  0  0  0  0
  160.2810  207.0690  155.1390 C   0  0  0  0  0  2  0  0  0  0  0  0
  161.2160  207.1950  152.8040 C   0  0  2  0  0  3  0  0  0  0  0  0
  162.0510  205.9090  148.8480 O   0  0  0  0  0  0  0  0  0  0  0  0
  161.9850  206.2770  147.5040 C   0  0  0  0  0  2  0  0  0  0  0  0
  160.9790  204.7550  144.3910 C   0  0  0  0  0  2  0  0  0  0  0  0
  161.6980  203.9910  146.5530 C   0  0  0  0  0  2  0  0  0  0  0  0
  161.0490  205.3440  146.7570 C   0  0  0  0  0  3  0  0  0  0  0  0
  161.1830  203.5060  145.2200 C   0  0  0  0  0  2  0  0  0  0  0  0
  160.7630  205.8930  145.3730 C   0  0  0  0  0  2  0  0  0  0  0  0
  1 26  1  1  0  0  0
  2 27  1  0  0  0  0
  3 16  1  0  0  0  0
  4 23  1  1  0  0  0
  5 11  1  6  0  0  0
  5 15  1  0  0  0  0
  6  7  1  0  0  0  0
  6 19  1  0  0  0  0
  7  3  2  0  0  0  0
  9 27  1  0  0  0  0
 10 22  1  0  0  0  0
 10 17  1  0  0  0  0
 11 20  1  0  0  0  0
 12  8  1  0  0  0  0
 13  9  1  0  0  0  0
 13 20  1  0  0  0  0
 14  2  1  0  0  0  0
 15  4  1  0  0  0  0
 15 12  1  0  0  0  0
 16  8  1  0  0  0  0
 17 25  1  0  0  0  0
 18  1  1  0  0  0  0
 18  4  1  0  0  0  0
 19  3  1  0  0  0  0
 19  5  1  0  0  0  0
 20 18  1  0  0  0  0
 22 24  1  0  0  0  0
 23 21  1  0  0  0  0
 24 13  1  0  0  0  0
 25 14  1  0  0  0  0
 25  9  1  0  0  0  0
 26 21  1  0  0  0  0
 27  1  1  0  0  0  0
 28 17  1  0  0  0  0
 29 28  1  0  0  0  0
 30 33  1  0  0  0  0
 30 34  1  0  0  0  0
 31 32  1  0  0  0  0
 32 29  1  0  0  0  0
 33 31  1  0  0  0  0
 34 32  1  0  0  0  0
M  END
>  <MODEL>
3

>  <REMARK>
 VINA RESULT:      -9.0      1.183      1.521
  Name = 
  3 active torsions:
  status: ('A' for Active; 'I' for Inactive)
    1  A    between atoms: C_17  and  O_28
    2  A    between atoms: O_28  and  C_29
    3  A    between atoms: C_29  and  C_32
                            x       y       z     vdW  Elec       q    Type
                         _______ _______ _______ _____ _____    ______ ____

>  <TORSDO>
F 3

$$$$
=
 OpenBabel11122414343D

 34 41  0  0  1  0  0  0  0  0999 V2000
  161.3340  208.1830  149.7970 C   0  0  1  0  0  3  0  0  0  0  0  0
  161.4730  206.4690  147.8680 C   0  0  0  0  0  2  0  0  0  0  0  0
  161.7420  208.9070  156.1840 C   0  0  0  0  0  0  0  0  0  0  0  0
  161.2050  209.5880  151.9010 C   0  0  2  0  0  3  0  0  0  0  0  0
  160.5580  208.3950  154.0170 C   0  0  2  0  0  3  0  0  0  0  0  0
  160.5040  206.9120  156.3250 S   0  0  0  0  0  0  0  0  0  0  0  0
  161.9480  207.7840  156.8920 N   0  0  0  0  0  0  0  0  0  0  0  0
  162.0010  211.2570  155.2170 C   0  0  0  0  0  2  0  0  0  0  0  0
  160.6960  205.8410  149.9310 C   0  0  2  0  0  3  0  0  0  0  0  0
  160.7590  202.6980  150.5870 C   0  0  0  0  0  2  0  0  0  0  0  0
  161.0230  207.1160  153.4720 N   0  0  0  0  0  2  0  0  0  0  0  0
  161.0340  210.8820  154.0790 C   0  0  0  0  0  2  0  0  0  0  0  0
  160.9840  205.7240  151.4290 C   0  0  1  0  0  3  0  0  0  0  0  0
  161.2830  205.0730  147.7650 O   0  0  0  0  0  0  0  0  0  0  0  0
  161.3950  209.5530  153.4200 C   0  0  2  0  0  3  0  0  0  0  0  0
  162.4770  210.1200  156.0130 N   0  0  0  0  0  2  0  0  0  0  0  0
  161.6010  203.4790  149.5840 C   0  0  2  0  0  3  0  0  0  0  0  0
  161.5240  208.2030  151.3270 C   0  0  1  0  0  3  0  0  0  0  0  0
  160.4730  208.4170  155.5670 C   0  0  1  0  0  3  0  0  0  0  0  0
  160.7020  207.1060  152.0450 C   0  0  2  0  0  3  0  0  0  0  0  0
  161.9620  210.6050  149.7310 C   0  0  0  0  0  2  0  0  0  0  0  0
  160.8210  203.3040  151.9850 C   0  0  0  0  0  2  0  0  0  0  0  0
  162.1320  210.6180  151.2520 C   0  0  0  0  0  2  0  0  0  0  0  0
  160.1140  204.6500  152.0620 C   0  0  0  0  0  2  0  0  0  0  0  0
  160.7690  204.6340  149.0120 C   0  0  1  0  0  3  0  0  0  0  0  0
  162.2640  209.2180  149.1670 C   0  0  0  0  0  2  0  0  0  0  0  0
  161.6730  206.7750  149.3240 C   0  0  2  0  0  3  0  0  0  0  0  0
  161.9900  202.6140  148.5580 O   0  0  0  0  0  0  0  0  0  0  0  0
  161.5250  201.3590  148.9560 C   0  0  0  0  0  2  0  0  0  0  0  0
  160.5650  201.3170  145.4790 C   0  0  0  0  0  2  0  0  0  0  0  0
  161.5510  199.7730  147.0340 C   0  0  0  0  0  2  0  0  0  0  0  0
  160.7050  200.7340  147.8430 C   0  0  0  0  0  3  0  0  0  0  0  0
  161.0290  199.8840  145.6220 C   0  0  0  0  0  2  0  0  0  0  0  0
  160.2360  201.8050  146.8780 C   0  0  0  0  0  2  0  0  0  0  0  0
  1 26  1  6  0  0  0
  1 18  1  0  0  0  0
  2 27  1  0  0  0  0
  3  7  2  0  0  0  0
  4 23  1  6  0  0  0
  4 15  1  0  0  0  0
  5 11  1  1  0  0  0
  5 19  1  0  0  0  0
  6  7  1  0  0  0  0
  8 16  1  0  0  0  0
  9 13  1  0  0  0  0
 10 22  1  0  0  0  0
 12  8  1  0  0  0  0
 13 20  1  0  0  0  0
 13 24  1  0  0  0  0
 14  2  1  0  0  0  0
 14 25  1  0  0  0  0
 15  5  1  0  0  0  0
 15 12  1  0  0  0  0
 16  3  1  0  0  0  0
 17 10  1  0  0  0  0
 18  4  1  0  0  0  0
 18 20  1  0  0  0  0
 19  3  1  0  0  0  0
 19  6  1  0  0  0  0
 20 11  1  0  0  0  0
 21 23  1  0  0  0  0
 22 24  1  0  0  0  0
 25 17  1  0  0  0  0
 25  9  1  0  0  0  0
 26 21  1  0  0  0  0
 27  1  1  0  0  0  0
 27  9  1  0  0  0  0
 28 29  1  0  0  0  0
 28 17  1  0  0  0  0
 30 33  1  0  0  0  0
 30 34  1  0  0  0  0
 31 32  1  0  0  0  0
 32 29  1  0  0  0  0
 33 31  1  0  0  0  0
 34 32  1  0  0  0  0
M  END
>  <MODEL>
4

>  <REMARK>
 VINA RESULT:      -7.7      3.133      4.902
  Name = 
  3 active torsions:
  status: ('A' for Active; 'I' for Inactive)
    1  A    between atoms: C_17  and  O_28
    2  A    between atoms: O_28  and  C_29
    3  A    between atoms: C_29  and  C_32
                            x       y       z     vdW  Elec       q    Type
                         _______ _______ _______ _____ _____    ______ ____

>  <TORSDO>
F 3

$$$$
=
 OpenBabel11122414343D

 34 41  0  0  1  0  0  0  0  0999 V2000
  161.5530  210.2530  151.6250 C   0  0  1  0  0  3  0  0  0  0  0  0
  160.8590  211.9070  153.4850 C   0  0  0  0  0  2  0  0  0  0  0  0
  160.9650  204.1880  149.5350 C   0  0  0  0  0  0  0  0  0  0  0  0
  162.0920  208.3850  150.0000 C   0  0  2  0  0  3  0  0  0  0  0  0
  161.9930  206.0410  150.9030 C   0  0  2  0  0  3  0  0  0  0  0  0
  161.2210  203.5610  151.7870 S   0  0  0  0  0  0  0  0  0  0  0  0
  160.2430  203.3660  150.3150 N   0  0  0  0  0  0  0  0  0  0  0  0
  161.8090  205.5190  147.5260 C   0  0  0  0  0  2  0  0  0  0  0  0
  161.1220  209.6760  153.9460 C   0  0  2  0  0  3  0  0  0  0  0  0
  159.6760  208.5830  156.5970 C   0  0  0  0  0  2  0  0  0  0  0  0
  161.0760  206.4590  151.9670 N   0  0  0  0  0  2  0  0  0  0  0  0
  162.6160  206.4220  148.4770 C   0  0  0  0  0  2  0  0  0  0  0  0
  160.6890  208.2430  153.6350 C   0  0  1  0  0  3  0  0  0  0  0  0
  160.4460  211.7710  154.8300 O   0  0  0  0  0  0  0  0  0  0  0  0
  161.7800  206.9270  149.6510 C   0  0  2  0  0  3  0  0  0  0  0  0
  160.8320  204.6510  148.1910 N   0  0  0  0  0  2  0  0  0  0  0  0
  159.3310  209.8120  155.7610 C   0  0  2  0  0  3  0  0  0  0  0  0
  161.2640  208.7930  151.2230 C   0  0  1  0  0  3  0  0  0  0  0  0
  161.9510  204.5180  150.6070 C   0  0  1  0  0  3  0  0  0  0  0  0
  161.4790  207.7990  152.3910 C   0  0  2  0  0  3  0  0  0  0  0  0
  162.0210  210.7730  149.2210 C   0  0  0  0  0  2  0  0  0  0  0  0
  159.7620  207.3170  155.7510 C   0  0  0  0  0  2  0  0  0  0  0  0
  161.7470  209.3180  148.8370 C   0  0  0  0  0  2  0  0  0  0  0  0
  160.9650  207.3280  154.8180 C   0  0  0  0  0  2  0  0  0  0  0  0
  160.6190  210.4080  155.1790 C   0  0  1  0  0  3  0  0  0  0  0  0
  161.2060  211.1680  150.4520 C   0  0  0  0  0  2  0  0  0  0  0  0
  160.6880  210.5610  152.8400 C   0  0  2  0  0  3  0  0  0  0  0  0
  158.6980  210.7480  156.5830 O   0  0  0  0  0  0  0  0  0  0  0  0
  157.4420  210.9360  156.0050 C   0  0  0  0  0  2  0  0  0  0  0  0
  155.8740  213.4040  153.8910 C   0  0  0  0  0  2  0  0  0  0  0  0
  155.9940  212.9510  156.2480 C   0  0  0  0  0  2  0  0  0  0  0  0
  157.2590  212.3950  155.6270 C   0  0  0  0  0  3  0  0  0  0  0  0
  155.4690  213.9480  155.2440 C   0  0  0  0  0  2  0  0  0  0  0  0
  157.0890  212.5260  154.1260 C   0  0  0  0  0  2  0  0  0  0  0  0
  1 26  1  6  0  0  0
  1 27  1  0  0  0  0
  2 14  1  0  0  0  0
  3  7  2  0  0  0  0
  3 19  1  0  0  0  0
  4 23  1  6  0  0  0
  4 18  1  0  0  0  0
  5 11  1  1  0  0  0
  7  6  1  0  0  0  0
  8 16  1  0  0  0  0
  8 12  1  0  0  0  0
  9 25  1  0  0  0  0
 11 20  1  0  0  0  0
 12 15  1  0  0  0  0
 13  9  1  0  0  0  0
 13 24  1  0  0  0  0
 14 25  1  0  0  0  0
 15  4  1  0  0  0  0
 15  5  1  0  0  0  0
 16  3  1  0  0  0  0
 17 28  1  0  0  0  0
 17 10  1  0  0  0  0
 18  1  1  0  0  0  0
 18 20  1  0  0  0  0
 19  5  1  0  0  0  0
 19  6  1  0  0  0  0
 20 13  1  0  0  0  0
 21 26  1  0  0  0  0
 22 10  1  0  0  0  0
 23 21  1  0  0  0  0
 24 22  1  0  0  0  0
 25 17  1  0  0  0  0
 27  2  1  0  0  0  0
 27  9  1  0  0  0  0
 29 28  1  0  0  0  0
 30 34  1  0  0  0  0
 30 33  1  0  0  0  0
 32 29  1  0  0  0  0
 32 31  1  0  0  0  0
 33 31  1  0  0  0  0
 34 32  1  0  0  0  0
M  END
>  <MODEL>
5

>  <REMARK>
 VINA RESULT:      -7.2      3.638      8.718
  Name = 
  3 active torsions:
  status: ('A' for Active; 'I' for Inactive)
    1  A    between atoms: C_17  and  O_28
    2  A    between atoms: O_28  and  C_29
    3  A    between atoms: C_29  and  C_32
                            x       y       z     vdW  Elec       q    Type
                         _______ _______ _______ _____ _____    ______ ____

>  <TORSDO>
F 3

$$$$
