=
 OpenBabel11122413493D

 37 42  0  0  1  0  0  0  0  0999 V2000
  161.6030  205.2780  146.3530 C   0  0  0  0  0  0  0  0  0  0  0  0
  160.8310  205.3930  150.5190 C   0  0  0  0  0  0  0  0  0  0  0  0
  160.3960  208.9200  152.2800 C   0  0  0  0  0  2  0  0  0  0  0  0
  161.4350  204.0400  148.5960 C   0  0  0  0  0  0  0  0  0  0  0  0
  160.4920  206.8300  150.8150 C   0  0  1  0  0  3  0  0  0  0  0  0
  161.0470  205.2480  149.1710 C   0  0  0  0  0  0  0  0  0  0  0  0
  160.9520  207.4770  152.1530 C   0  0  2  0  0  3  0  0  0  0  0  0
  161.5240  202.9130  149.4220 C   0  0  0  0  0  3  0  0  0  0  0  0
  160.8270  206.4960  148.4270 C   0  0  2  0  0  3  0  0  0  0  0  0
  160.2040  205.1940  145.7630 C   0  0  0  0  0  1  0  0  0  0  0  0
  160.4700  204.3060  152.7830 C   0  0  0  0  0  2  0  0  0  0  0  0
  161.2080  203.0180  150.7880 C   0  0  0  0  0  3  0  0  0  0  0  0
  161.7470  206.5570  147.2020 C   0  0  0  0  0  2  0  0  0  0  0  0
  161.8490  210.1360  151.0190 C   0  0  1  0  0  3  0  0  0  0  0  0
  160.5230  209.6710  151.0980 O   0  0  0  0  0  0  0  0  0  0  0  0
  160.8520  204.2580  151.3490 C   0  0  0  0  0  0  0  0  0  0  0  0
  160.9810  207.5670  149.5180 C   0  0  2  0  0  3  0  0  0  0  0  0
  161.8980  203.9950  147.1630 C   0  0  0  0  0  2  0  0  0  0  0  0
  160.5830  206.6860  153.4280 C   0  0  1  0  0  3  0  0  0  0  0  0
  162.5900  205.3530  145.2090 C   0  0  0  0  0  1  0  0  0  0  0  0
  162.8480  209.0130  150.6980 C   0  0  0  0  0  2  0  0  0  0  0  0
  162.4460  208.0790  149.5490 C   0  0  0  0  0  2  0  0  0  0  0  0
  161.2900  205.3450  153.5060 C   0  0  0  0  0  2  0  0  0  0  0  0
  160.4060  206.9590  155.9120 C   0  0  0  0  0  3  0  0  0  0  0  0
  160.8850  207.4460  154.6910 C   0  0  0  0  0  0  0  0  0  0  0  0
  161.6410  208.6290  154.6650 C   0  0  0  0  0  3  0  0  0  0  0  0
  162.7070  210.5710  155.8180 C   0  0  0  0  0  1  0  0  0  0  0  0
  161.4240  208.8280  157.0670 C   0  0  0  0  0  3  0  0  0  0  0  0
  161.9090  209.3170  155.8500 C   0  0  0  0  0  0  0  0  0  0  0  0
  160.6740  207.6490  157.0970 C   0  0  0  0  0  3  0  0  0  0  0  0
  161.9490  211.2360  150.0130 C   0  0  0  0  0  0  0  0  0  0  0  0
  160.8800  212.1770  149.8990 N   0  0  0  0  0  2  0  0  0  0  0  0
  162.9760  211.3430  149.2900 O   0  0  0  0  0  0  0  0  0  0  0  0
  160.0790  214.4530  149.5100 C   0  0  0  0  0  1  0  0  0  0  0  0
  160.9200  213.3050  148.9780 C   0  0  2  0  0  3  0  0  0  0  0  0
  161.4520  212.9740  146.6570 O   0  0  0  0  0  1  0  0  0  0  0  0
  160.4280  212.8780  147.6020 C   0  0  0  0  0  2  0  0  0  0  0  0
  1 18  1  0  0  0  0
  1 13  1  0  0  0  0
  2 16  1  0  0  0  0
  4  6  1  0  0  0  0
  4  8  2  0  0  0  0
  5  2  1  6  0  0  0
  5  7  1  0  0  0  0
  6  2  2  0  0  0  0
  7  3  1  1  0  0  0
  7 19  1  0  0  0  0
  8 12  1  0  0  0  0
  9 13  1  6  0  0  0
  9  6  1  0  0  0  0
  9 17  1  0  0  0  0
 10  1  1  0  0  0  0
 11 23  1  0  0  0  0
 12 16  2  0  0  0  0
 14 31  1  6  0  0  0
 14 15  1  0  0  0  0
 15  3  1  0  0  0  0
 16 11  1  0  0  0  0
 17 22  1  1  0  0  0
 17  5  1  0  0  0  0
 18  4  1  0  0  0  0
 19 23  1  0  0  0  0
 19 25  1  1  0  0  0
 20  1  1  0  0  0  0
 21 14  1  0  0  0  0
 22 21  1  0  0  0  0
 24 30  1  0  0  0  0
 25 24  2  0  0  0  0
 26 25  1  0  0  0  0
 26 29  2  0  0  0  0
 27 29  1  0  0  0  0
 28 30  2  0  0  0  0
 29 28  1  0  0  0  0
 32 31  1  0  0  0  0
 33 31  2  0  0  0  0
 35 34  1  1  0  0  0
 35 32  1  0  0  0  0
 36 37  1  0  0  0  0
 37 35  1  0  0  0  0
M  END
>  <MODEL>
1

>  <REMARK>
 VINA RESULT:      -8.6      0.000      0.000
  Name = 
  4 active torsions:
  status: ('A' for Active; 'I' for Inactive)
    1  A    between atoms: CA_4  and  N_12
    2  A    between atoms: CA_4  and  C_37
    3  A    between atoms: C_8  and  C_18
    4  A    between atoms: C_23  and  C_30
                            x       y       z     vdW  Elec       q    Type
                         _______ _______ _______ _____ _____    ______ ____

>  <TORSDO>
F 4

$$$$
=
 OpenBabel11122413493D

 37 42  0  0  1  0  0  0  0  0999 V2000
  161.0110  203.6800  151.9450 C   0  0  0  0  0  0  0  0  0  0  0  0
  161.8430  207.0910  149.5710 C   0  0  0  0  0  0  0  0  0  0  0  0
  162.6960  210.5130  151.3850 C   0  0  0  0  0  2  0  0  0  0  0  0
  161.0650  204.7920  149.6320 C   0  0  0  0  0  0  0  0  0  0  0  0
  162.3450  208.1290  150.5400 C   0  0  1  0  0  3  0  0  0  0  0  0
  161.5950  205.9230  150.2490 C   0  0  0  0  0  0  0  0  0  0  0  0
  161.9780  209.6260  150.3330 C   0  0  2  0  0  3  0  0  0  0  0  0
  160.8600  204.8290  148.2470 C   0  0  0  0  0  3  0  0  0  0  0  0
  161.9450  206.0110  151.6730 C   0  0  2  0  0  3  0  0  0  0  0  0
  162.3840  203.0450  152.0970 C   0  0  0  0  0  1  0  0  0  0  0  0
  162.1070  208.2920  147.3520 C   0  0  0  0  0  2  0  0  0  0  0  0
  161.2030  205.9810  147.5180 C   0  0  0  0  0  3  0  0  0  0  0  0
  161.0230  205.1150  152.5070 C   0  0  0  0  0  2  0  0  0  0  0  0
  161.3740  210.2880  153.2250 C   0  0  1  0  0  3  0  0  0  0  0  0
  162.6390  209.9870  152.6880 O   0  0  0  0  0  0  0  0  0  0  0  0
  161.7040  207.1220  148.1720 C   0  0  0  0  0  0  0  0  0  0  0  0
  161.9270  207.5270  151.9280 C   0  0  2  0  0  3  0  0  0  0  0  0
  160.5820  203.6300  150.4610 C   0  0  0  0  0  2  0  0  0  0  0  0
  162.2710  210.1880  148.9240 C   0  0  1  0  0  3  0  0  0  0  0  0
  160.0240  202.8620  152.7500 C   0  0  0  0  0  1  0  0  0  0  0  0
  160.2500  209.4580  152.5820 C   0  0  0  0  0  2  0  0  0  0  0  0
  160.5290  207.9560  152.4500 C   0  0  0  0  0  2  0  0  0  0  0  0
  161.4180  209.5390  147.8490 C   0  0  0  0  0  2  0  0  0  0  0  0
  162.9740  212.4450  148.0940 C   0  0  0  0  0  3  0  0  0  0  0  0
  162.0730  211.6770  148.8390 C   0  0  0  0  0  0  0  0  0  0  0  0
  160.9990  212.3060  149.4900 C   0  0  0  0  0  3  0  0  0  0  0  0
  159.7000  214.3530  150.0890 C   0  0  0  0  0  1  0  0  0  0  0  0
  161.7410  214.4530  148.6530 C   0  0  0  0  0  3  0  0  0  0  0  0
  160.8350  213.6900  149.3970 C   0  0  0  0  0  0  0  0  0  0  0  0
  162.8100  213.8300  148.0020 C   0  0  0  0  0  3  0  0  0  0  0  0
  161.3860  210.1020  154.7070 C   0  0  0  0  0  0  0  0  0  0  0  0
  160.8460  208.9030  155.2640 N   0  0  0  0  0  2  0  0  0  0  0  0
  161.8880  210.9860  155.4530 O   0  0  0  0  0  0  0  0  0  0  0  0
  162.2920  208.5030  157.1940 C   0  0  0  0  0  1  0  0  0  0  0  0
  160.8620  208.6240  156.6930 C   0  0  2  0  0  3  0  0  0  0  0  0
  159.2780  206.9960  155.9040 O   0  0  0  0  0  1  0  0  0  0  0  0
  160.0860  207.3480  156.9890 C   0  0  0  0  0  2  0  0  0  0  0  0
  1 10  1  0  0  0  0
  1 13  1  0  0  0  0
  1 20  1  0  0  0  0
  2  6  1  0  0  0  0
  3 15  1  0  0  0  0
  4  6  2  0  0  0  0
  4 18  1  0  0  0  0
  5  2  1  6  0  0  0
  5 17  1  0  0  0  0
  6  9  1  0  0  0  0
  7  5  1  0  0  0  0
  7  3  1  1  0  0  0
  8  4  1  0  0  0  0
  9 17  1  0  0  0  0
  9 13  1  1  0  0  0
 11 23  1  0  0  0  0
 11 16  1  0  0  0  0
 12 16  1  0  0  0  0
 12  8  2  0  0  0  0
 14 31  1  1  0  0  0
 15 14  1  0  0  0  0
 16  2  2  0  0  0  0
 17 22  1  6  0  0  0
 18  1  1  0  0  0  0
 19 25  1  1  0  0  0
 19  7  1  0  0  0  0
 21 14  1  0  0  0  0
 22 21  1  0  0  0  0
 23 19  1  0  0  0  0
 24 25  1  0  0  0  0
 25 26  2  0  0  0  0
 28 29  2  0  0  0  0
 29 26  1  0  0  0  0
 29 27  1  0  0  0  0
 30 24  2  0  0  0  0
 30 28  1  0  0  0  0
 31 32  1  0  0  0  0
 31 33  2  0  0  0  0
 32 35  1  0  0  0  0
 35 37  1  0  0  0  0
 35 34  1  6  0  0  0
 36 37  1  0  0  0  0
M  END
>  <MODEL>
2

>  <REMARK>
 VINA RESULT:      -6.3      2.119      6.420
  Name = 
  4 active torsions:
  status: ('A' for Active; 'I' for Inactive)
    1  A    between atoms: CA_4  and  N_12
    2  A    between atoms: CA_4  and  C_37
    3  A    between atoms: C_8  and  C_18
    4  A    between atoms: C_23  and  C_30
                            x       y       z     vdW  Elec       q    Type
                         _______ _______ _______ _____ _____    ______ ____

>  <TORSDO>
F 4

$$$$
=
 OpenBabel11122413493D

 37 42  0  0  1  0  0  0  0  0999 V2000
  161.4690  210.6860  155.1850 C   0  0  0  0  0  0  0  0  0  0  0  0
  161.5990  207.3070  152.6300 C   0  0  0  0  0  0  0  0  0  0  0  0
  162.7570  207.8060  148.8700 C   0  0  0  0  0  2  0  0  0  0  0  0
  160.9300  208.2080  154.7830 C   0  0  0  0  0  0  0  0  0  0  0  0
  162.2870  207.7880  151.3800 C   0  0  1  0  0  3  0  0  0  0  0  0
  161.5570  208.3300  153.5450 C   0  0  0  0  0  0  0  0  0  0  0  0
  161.8350  207.2550  149.9900 C   0  0  2  0  0  3  0  0  0  0  0  0
  160.3960  206.9630  155.1340 C   0  0  0  0  0  3  0  0  0  0  0  0
  162.2370  209.5420  153.0680 C   0  0  2  0  0  3  0  0  0  0  0  0
  162.8570  210.6800  155.8060 C   0  0  0  0  0  1  0  0  0  0  0  0
  161.2830  204.8410  152.1230 C   0  0  0  0  0  2  0  0  0  0  0  0
  160.5170  205.8740  154.2530 C   0  0  0  0  0  3  0  0  0  0  0  0
  161.5710  210.7930  153.6510 C   0  0  0  0  0  2  0  0  0  0  0  0
  161.9250  209.8930  148.5070 C   0  0  1  0  0  3  0  0  0  0  0  0
  163.0320  209.1780  149.0000 O   0  0  0  0  0  0  0  0  0  0  0  0
  161.1250  206.0340  152.9930 C   0  0  0  0  0  0  0  0  0  0  0  0
  162.2340  209.3480  151.5440 C   0  0  2  0  0  3  0  0  0  0  0  0
  160.6970  209.4260  155.6390 C   0  0  0  0  0  2  0  0  0  0  0  0
  161.7620  205.7170  149.8660 C   0  0  1  0  0  3  0  0  0  0  0  0
  160.7310  211.9030  155.6990 C   0  0  0  0  0  1  0  0  0  0  0  0
  160.7050  209.8030  149.4400 C   0  0  0  0  0  2  0  0  0  0  0  0
  160.9910  210.0450  150.9280 C   0  0  0  0  0  2  0  0  0  0  0  0
  160.6960  205.1110  150.7600 C   0  0  0  0  0  2  0  0  0  0  0  0
  161.3420  206.2160  147.4470 C   0  0  0  0  0  3  0  0  0  0  0  0
  161.5030  205.2600  148.4560 C   0  0  0  0  0  0  0  0  0  0  0  0
  161.4260  203.8940  148.1360 C   0  0  0  0  0  3  0  0  0  0  0  0
  161.1010  202.0480  146.4870 C   0  0  0  0  0  1  0  0  0  0  0  0
  161.0210  204.4530  145.8170 C   0  0  0  0  0  3  0  0  0  0  0  0
  161.1850  203.4940  146.8200 C   0  0  0  0  0  0  0  0  0  0  0  0
  161.1000  205.8140  146.1300 C   0  0  0  0  0  3  0  0  0  0  0  0
  162.2990  211.3180  148.2630 C   0  0  0  0  0  0  0  0  0  0  0  0
  161.3730  212.1790  147.5980 N   0  0  0  0  0  2  0  0  0  0  0  0
  163.4120  211.7580  148.6590 O   0  0  0  0  0  0  0  0  0  0  0  0
  160.6720  214.4530  148.1550 C   0  0  0  0  0  1  0  0  0  0  0  0
  161.6410  213.5910  147.3640 C   0  0  2  0  0  3  0  0  0  0  0  0
  162.6130  213.3440  145.1780 O   0  0  0  0  0  1  0  0  0  0  0  0
  161.5410  213.9050  145.8770 C   0  0  0  0  0  2  0  0  0  0  0  0
  1 18  1  0  0  0  0
  1 20  1  0  0  0  0
  1 10  1  0  0  0  0
  2 16  2  0  0  0  0
  2  6  1  0  0  0  0
  3 15  1  0  0  0  0
  4  8  1  0  0  0  0
  4 18  1  0  0  0  0
  5 17  1  0  0  0  0
  5  2  1  1  0  0  0
  6  4  2  0  0  0  0
  7  3  1  6  0  0  0
  7  5  1  0  0  0  0
  9  6  1  0  0  0  0
  9 13  1  6  0  0  0
 11 16  1  0  0  0  0
 12  8  2  0  0  0  0
 13  1  1  0  0  0  0
 14 31  1  1  0  0  0
 14 15  1  0  0  0  0
 14 21  1  0  0  0  0
 16 12  1  0  0  0  0
 17 22  1  1  0  0  0
 17  9  1  0  0  0  0
 19 25  1  6  0  0  0
 19  7  1  0  0  0  0
 19 23  1  0  0  0  0
 21 22  1  0  0  0  0
 23 11  1  0  0  0  0
 24 25  1  0  0  0  0
 26 25  2  0  0  0  0
 27 29  1  0  0  0  0
 28 30  1  0  0  0  0
 28 29  2  0  0  0  0
 29 26  1  0  0  0  0
 30 24  2  0  0  0  0
 31 33  2  0  0  0  0
 32 31  1  0  0  0  0
 35 32  1  0  0  0  0
 35 34  1  1  0  0  0
 36 37  1  0  0  0  0
 37 35  1  0  0  0  0
M  END
>  <MODEL>
3

>  <REMARK>
 VINA RESULT:      -5.6      1.437      6.606
  Name = 
  4 active torsions:
  status: ('A' for Active; 'I' for Inactive)
    1  A    between atoms: CA_4  and  N_12
    2  A    between atoms: CA_4  and  C_37
    3  A    between atoms: C_8  and  C_18
    4  A    between atoms: C_23  and  C_30
                            x       y       z     vdW  Elec       q    Type
                         _______ _______ _______ _____ _____    ______ ____

>  <TORSDO>
F 4

$$$$
