=
 OpenBabel11122413033D

 32 37  0  0  1  0  0  0  0  0999 V2000
  160.6950  209.9020  152.3970 C   0  0  1  0  0  3  0  0  0  0  0  0
  160.3910  208.4000  157.0610 C   0  0  0  0  0  3  0  0  0  0  0  0
  160.4810  207.0770  156.6280 C   0  0  0  0  0  3  0  0  0  0  0  0
  161.4960  208.3490  150.5480 C   0  0  2  0  0  3  0  0  0  0  0  0
  161.4680  206.9070  150.2330 N   0  0  2  0  0  0  0  0  0  0  0  0
  159.9020  211.9350  151.8370 C   0  0  2  0  0  3  0  0  0  0  0  0
  160.4810  211.5520  154.2440 O   0  0  0  0  0  0  0  0  0  0  0  0
  161.4450  204.6440  150.9500 C   0  0  2  0  0  3  0  0  0  0  0  0
  160.5480  209.4480  156.1510 C   0  0  0  0  0  3  0  0  0  0  0  0
  161.0320  210.3050  153.8300 C   0  0  1  0  0  3  0  0  0  0  0  0
  160.7860  209.1790  154.7960 C   0  0  0  0  0  0  0  0  0  0  0  0
  161.1000  207.5070  152.8890 C   0  0  2  0  0  3  0  0  0  0  0  0
  160.0250  205.0060  150.5830 C   0  0  0  0  0  2  0  0  0  0  0  0
  159.5120  212.0670  153.3370 C   0  0  2  0  0  3  0  0  0  0  0  0
  160.0830  206.4540  150.1220 C   0  0  0  0  0  2  0  0  0  0  0  0
  160.7370  206.7970  155.2830 C   0  0  0  0  0  3  0  0  0  0  0  0
  160.9240  207.8370  154.3610 C   0  0  0  0  0  0  0  0  0  0  0  0
  162.1150  206.4100  152.6490 C   0  0  0  0  0  2  0  0  0  0  0  0
  160.9450  211.0140  151.5870 O   0  0  0  0  0  0  0  0  0  0  0  0
  162.6550  209.0070  149.8250 C   0  0  0  0  0  1  0  0  0  0  0  0
  161.4710  203.8260  152.0820 O   0  0  0  0  0  1  0  0  0  0  0  0
  161.5510  208.6940  152.0430 C   0  0  2  0  0  3  0  0  0  0  0  0
  162.1450  205.9790  151.1640 C   0  0  2  0  0  3  0  0  0  0  0  0
  157.9340  211.2760  155.0890 C   0  0  0  0  0  2  0  0  0  0  0  0
  158.1480  211.4440  153.5980 C   0  0  1  0  0  3  0  0  0  0  0  0
  157.2860  212.4330  154.3570 C   0  0  1  0  0  3  0  0  0  0  0  0
  155.8280  212.1140  154.0960 C   0  0  0  0  0  2  0  0  0  0  0  0
  155.0420  213.3760  154.0110 C   0  0  0  0  0  0  0  0  0  0  0  0
  154.4870  213.7000  152.9300 O   0  0  0  0  0  0  0  0  0  0  0  0
  154.8900  214.1770  155.1350 O   0  0  0  0  0  1  0  0  0  0  0  0
  160.4470  213.2310  149.9130 O   0  0  0  0  0  1  0  0  0  0  0  0
  160.2840  213.2980  151.2950 C   0  0  0  0  0  2  0  0  0  0  0  0
  1 19  1  6  0  0  0
  1 10  1  0  0  0  0
  3  2  1  0  0  0  0
  4 20  1  6  0  0  0
  4 22  1  0  0  0  0
  5 15  1  1  0  0  0
  5  4  1  0  0  0  0
  5 23  1  0  0  0  0
  6 32  1  1  0  0  0
  6 14  1  0  0  0  0
  8 23  1  0  0  0  0
  8 21  1  1  0  0  0
  9  2  2  0  0  0  0
 10  7  1  1  0  0  0
 10 11  1  0  0  0  0
 11  9  1  0  0  0  0
 12 18  1  1  0  0  0
 12 17  1  0  0  0  0
 13  8  1  0  0  0  0
 14 25  1  0  0  0  0
 14  7  1  1  0  0  0
 15 13  1  0  0  0  0
 16  3  2  0  0  0  0
 17 11  2  0  0  0  0
 17 16  1  0  0  0  0
 19  6  1  0  0  0  0
 22  1  1  0  0  0  0
 22 12  1  0  0  0  0
 23 18  1  0  0  0  0
 25 26  1  0  0  0  0
 25 24  1  0  0  0  0
 26 24  1  0  0  0  0
 27 26  1  0  0  0  0
 28 27  1  0  0  0  0
 28 30  1  0  0  0  0
 29 28  2  0  0  0  0
 31 32  1  0  0  0  0
M  END
>  <MODEL>
1

>  <REMARK>
 VINA RESULT:      -5.9      0.000      0.000
  Name = 
  4 active torsions:
  status: ('A' for Active; 'I' for Inactive)
    1  A    between atoms: C_7  and  C_19
    2  A    between atoms: C_10  and  C_17
    3  A    between atoms: C_20  and  C_29
    4  A    between atoms: C_29  and  C_30
                            x       y       z     vdW  Elec       q    Type
                         _______ _______ _______ _____ _____    ______ ____

>  <TORSDO>
F 4

$$$$
=
 OpenBabel11122413033D

 32 37  0  0  1  0  0  0  0  0999 V2000
  160.6260  209.8950  152.4490 C   0  0  1  0  0  3  0  0  0  0  0  0
  160.5560  208.2860  157.0870 C   0  0  0  0  0  3  0  0  0  0  0  0
  160.6940  206.9780  156.6220 C   0  0  0  0  0  3  0  0  0  0  0  0
  161.4360  208.4200  150.5410 C   0  0  2  0  0  3  0  0  0  0  0  0
  161.4660  206.9850  150.1950 N   0  0  2  0  0  0  0  0  0  0  0  0
  159.7170  211.8970  151.9600 C   0  0  2  0  0  3  0  0  0  0  0  0
  160.3970  211.4940  154.3380 O   0  0  0  0  0  0  0  0  0  0  0  0
  161.5770  204.7100  150.8630 C   0  0  2  0  0  3  0  0  0  0  0  0
  160.6310  209.3590  156.1950 C   0  0  0  0  0  3  0  0  0  0  0  0
  160.9920  210.2840  153.8780 C   0  0  1  0  0  3  0  0  0  0  0  0
  160.8340  209.1290  154.8280 C   0  0  0  0  0  0  0  0  0  0  0  0
  161.1620  207.5130  152.8750 C   0  0  2  0  0  3  0  0  0  0  0  0
  160.1300  205.0100  150.5520 C   0  0  0  0  0  2  0  0  0  0  0  0
  159.3730  211.9800  153.4760 C   0  0  2  0  0  3  0  0  0  0  0  0
  160.1020  206.4680  150.1210 C   0  0  0  0  0  2  0  0  0  0  0  0
  160.9170  206.7380  155.2640 C   0  0  0  0  0  3  0  0  0  0  0  0
  161.0210  207.8040  154.3590 C   0  0  0  0  0  0  0  0  0  0  0  0
  162.2200  206.4720  152.5760 C   0  0  0  0  0  2  0  0  0  0  0  0
  160.7940  211.0340  151.6560 O   0  0  0  0  0  0  0  0  0  0  0  0
  162.5360  209.1480  149.7940 C   0  0  0  0  0  1  0  0  0  0  0  0
  161.6820  203.8720  151.9760 O   0  0  0  0  0  1  0  0  0  0  0  0
  161.5260  208.7370  152.0400 C   0  0  2  0  0  3  0  0  0  0  0  0
  162.2190  206.0730  151.0820 C   0  0  2  0  0  3  0  0  0  0  0  0
  157.9430  210.9840  155.2490 C   0  0  0  0  0  2  0  0  0  0  0  0
  158.0510  211.2860  153.7680 C   0  0  1  0  0  3  0  0  0  0  0  0
  157.2110  212.1740  154.6650 C   0  0  1  0  0  3  0  0  0  0  0  0
  155.7490  211.8240  154.4710 C   0  0  0  0  0  2  0  0  0  0  0  0
  155.2460  211.0780  155.6570 C   0  0  0  0  0  0  0  0  0  0  0  0
  154.8560  209.8890  155.5340 O   0  0  0  0  0  0  0  0  0  0  0  0
  155.2430  211.6830  156.9070 O   0  0  0  0  0  1  0  0  0  0  0  0
  160.3970  213.2200  150.0980 O   0  0  0  0  0  1  0  0  0  0  0  0
  160.0140  213.2890  151.4360 C   0  0  0  0  0  2  0  0  0  0  0  0
  1 19  1  6  0  0  0
  1 10  1  0  0  0  0
  3  2  1  0  0  0  0
  4 20  1  6  0  0  0
  4 22  1  0  0  0  0
  5 15  1  1  0  0  0
  5  4  1  0  0  0  0
  5 23  1  0  0  0  0
  6 32  1  1  0  0  0
  6 14  1  0  0  0  0
  8 23  1  0  0  0  0
  8 21  1  1  0  0  0
  9  2  2  0  0  0  0
 10  7  1  1  0  0  0
 10 11  1  0  0  0  0
 11  9  1  0  0  0  0
 12 18  1  1  0  0  0
 12 17  1  0  0  0  0
 13  8  1  0  0  0  0
 14 25  1  0  0  0  0
 14  7  1  1  0  0  0
 15 13  1  0  0  0  0
 16  3  2  0  0  0  0
 17 11  2  0  0  0  0
 17 16  1  0  0  0  0
 19  6  1  0  0  0  0
 22  1  1  0  0  0  0
 22 12  1  0  0  0  0
 23 18  1  0  0  0  0
 25 26  1  0  0  0  0
 25 24  1  0  0  0  0
 26 24  1  0  0  0  0
 27 26  1  0  0  0  0
 27 28  1  0  0  0  0
 28 30  1  0  0  0  0
 29 28  2  0  0  0  0
 31 32  1  0  0  0  0
M  END
>  <MODEL>
2

>  <REMARK>
 VINA RESULT:      -5.8      1.035      1.121
  Name = 
  4 active torsions:
  status: ('A' for Active; 'I' for Inactive)
    1  A    between atoms: C_7  and  C_19
    2  A    between atoms: C_10  and  C_17
    3  A    between atoms: C_20  and  C_29
    4  A    between atoms: C_29  and  C_30
                            x       y       z     vdW  Elec       q    Type
                         _______ _______ _______ _____ _____    ______ ____

>  <TORSDO>
F 4

$$$$
=
 OpenBabel11122413033D

 32 37  0  0  1  0  0  0  0  0999 V2000
  160.9240  209.4840  152.4790 C   0  0  1  0  0  3  0  0  0  0  0  0
  162.0690  212.3550  148.6640 C   0  0  0  0  0  3  0  0  0  0  0  0
  161.0760  213.2530  149.0580 C   0  0  0  0  0  3  0  0  0  0  0  0
  159.5250  210.3460  154.4200 C   0  0  2  0  0  3  0  0  0  0  0  0
  158.4450  211.3260  154.6490 N   0  0  2  0  0  0  0  0  0  0  0  0
  161.4540  207.2960  152.4120 C   0  0  2  0  0  3  0  0  0  0  0  0
  162.7370  208.8340  150.9070 O   0  0  0  0  0  0  0  0  0  0  0  0
  157.3540  213.3560  154.0800 C   0  0  2  0  0  3  0  0  0  0  0  0
  162.3810  211.2570  149.4690 C   0  0  0  0  0  3  0  0  0  0  0  0
  162.0800  209.9060  151.5760 C   0  0  1  0  0  3  0  0  0  0  0  0
  161.6930  211.0440  150.6720 C   0  0  0  0  0  0  0  0  0  0  0  0
  159.8980  211.7360  152.3530 C   0  0  2  0  0  3  0  0  0  0  0  0
  156.5460  212.2330  153.4710 C   0  0  0  0  0  2  0  0  0  0  0  0
  162.0350  207.5990  151.0010 C   0  0  2  0  0  3  0  0  0  0  0  0
  157.2700  210.9550  153.8640 C   0  0  0  0  0  2  0  0  0  0  0  0
  160.3990  213.0620  150.2650 C   0  0  0  0  0  3  0  0  0  0  0  0
  160.7170  211.9800  151.0980 C   0  0  0  0  0  0  0  0  0  0  0  0
  159.7000  212.9890  153.1800 C   0  0  0  0  0  2  0  0  0  0  0  0
  161.3810  208.4220  153.2640 O   0  0  0  0  0  0  0  0  0  0  0  0
  160.2870  210.1160  155.7110 C   0  0  0  0  0  1  0  0  0  0  0  0
  157.4050  214.4530  153.2170 O   0  0  0  0  0  1  0  0  0  0  0  0
  160.5050  210.7000  153.2930 C   0  0  2  0  0  3  0  0  0  0  0  0
  158.7220  212.7480  154.3530 C   0  0  2  0  0  3  0  0  0  0  0  0
  161.4170  208.1880  148.6660 C   0  0  0  0  0  2  0  0  0  0  0  0
  160.9460  207.5180  149.9400 C   0  0  1  0  0  3  0  0  0  0  0  0
  161.4430  206.6790  148.7800 C   0  0  1  0  0  3  0  0  0  0  0  0
  160.2500  206.0940  148.0510 C   0  0  0  0  0  2  0  0  0  0  0  0
  160.6460  205.6920  146.6730 C   0  0  0  0  0  0  0  0  0  0  0  0
  160.1840  206.3080  145.6800 O   0  0  0  0  0  0  0  0  0  0  0  0
  161.5560  204.6590  146.4870 O   0  0  0  0  0  1  0  0  0  0  0  0
  161.5670  205.0120  153.0870 O   0  0  0  0  0  1  0  0  0  0  0  0
  162.2810  206.2090  153.0720 C   0  0  0  0  0  2  0  0  0  0  0  0
  1 19  1  1  0  0  0
  1 22  1  0  0  0  0
  2  3  2  0  0  0  0
  2  9  1  0  0  0  0
  3 16  1  0  0  0  0
  4  5  1  0  0  0  0
  4 20  1  1  0  0  0
  5 15  1  6  0  0  0
  6 32  1  1  0  0  0
  6 19  1  0  0  0  0
  7 10  1  0  0  0  0
  8 21  1  6  0  0  0
  8 23  1  0  0  0  0
  9 11  2  0  0  0  0
 10 11  1  6  0  0  0
 10  1  1  0  0  0  0
 11 17  1  0  0  0  0
 12 18  1  1  0  0  0
 12 22  1  0  0  0  0
 13 15  1  0  0  0  0
 13  8  1  0  0  0  0
 14  7  1  1  0  0  0
 14  6  1  0  0  0  0
 16 17  2  0  0  0  0
 17 12  1  0  0  0  0
 18 23  1  0  0  0  0
 22  4  1  0  0  0  0
 23  5  1  0  0  0  0
 24 26  1  0  0  0  0
 24 25  1  0  0  0  0
 25 14  1  0  0  0  0
 26 25  1  0  0  0  0
 27 26  1  0  0  0  0
 28 27  1  0  0  0  0
 29 28  2  0  0  0  0
 30 28  1  0  0  0  0
 32 31  1  0  0  0  0
M  END
>  <MODEL>
3

>  <REMARK>
 VINA RESULT:      -5.3      2.671      7.812
  Name = 
  4 active torsions:
  status: ('A' for Active; 'I' for Inactive)
    1  A    between atoms: C_7  and  C_19
    2  A    between atoms: C_10  and  C_17
    3  A    between atoms: C_20  and  C_29
    4  A    between atoms: C_29  and  C_30
                            x       y       z     vdW  Elec       q    Type
                         _______ _______ _______ _____ _____    ______ ____

>  <TORSDO>
F 4

$$$$
=
 OpenBabel11122413033D

 32 37  0  0  1  0  0  0  0  0999 V2000
  159.9650  210.3380  154.2730 C   0  0  1  0  0  3  0  0  0  0  0  0
  161.1510  212.3430  149.9510 C   0  0  0  0  0  3  0  0  0  0  0  0
  159.9630  213.0740  149.9780 C   0  0  0  0  0  3  0  0  0  0  0  0
  158.1480  211.3340  155.7470 C   0  0  2  0  0  3  0  0  0  0  0  0
  156.8850  212.0820  155.5850 N   0  0  2  0  0  0  0  0  0  0  0  0
  160.8880  208.3710  154.8680 C   0  0  2  0  0  3  0  0  0  0  0  0
  162.0880  209.7240  153.1350 O   0  0  0  0  0  0  0  0  0  0  0  0
  155.5460  213.6190  154.3690 C   0  0  2  0  0  3  0  0  0  0  0  0
  161.5270  211.5760  151.0550 C   0  0  0  0  0  3  0  0  0  0  0  0
  161.1520  210.7620  153.4110 C   0  0  1  0  0  3  0  0  0  0  0  0
  160.7110  211.5250  152.1930 C   0  0  0  0  0  0  0  0  0  0  0  0
  158.5800  212.2100  153.4260 C   0  0  2  0  0  3  0  0  0  0  0  0
  155.0610  212.2330  154.0160 C   0  0  0  0  0  2  0  0  0  0  0  0
  161.6160  208.4310  153.4940 C   0  0  2  0  0  3  0  0  0  0  0  0
  155.9340  211.2810  154.8180 C   0  0  0  0  0  2  0  0  0  0  0  0
  159.1510  213.0480  151.1150 C   0  0  0  0  0  3  0  0  0  0  0  0
  159.5270  212.3040  152.2430 C   0  0  0  0  0  0  0  0  0  0  0  0
  158.0320  213.5560  153.8500 C   0  0  0  0  0  2  0  0  0  0  0  0
  160.4790  209.6310  155.3630 O   0  0  0  0  0  0  0  0  0  0  0  0
  158.7280  211.6040  157.1220 C   0  0  0  0  0  1  0  0  0  0  0  0
  155.5320  214.4510  153.2470 O   0  0  0  0  0  1  0  0  0  0  0  0
  159.2110  211.5980  154.6720 C   0  0  2  0  0  3  0  0  0  0  0  0
  156.9430  213.4090  154.9380 C   0  0  2  0  0  3  0  0  0  0  0  0
  161.3930  208.0750  151.0430 C   0  0  0  0  0  2  0  0  0  0  0  0
  160.7390  207.8530  152.3920 C   0  0  1  0  0  3  0  0  0  0  0  0
  161.4780  206.7180  151.7110 C   0  0  1  0  0  3  0  0  0  0  0  0
  160.4660  205.7810  151.0850 C   0  0  0  0  0  2  0  0  0  0  0  0
  161.1640  204.6080  150.4890 C   0  0  0  0  0  0  0  0  0  0  0  0
  161.6250  203.7050  151.2340 O   0  0  0  0  0  1  0  0  0  0  0  0
  161.2730  204.4910  149.1100 O   0  0  0  0  0  0  0  0  0  0  0  0
  162.2690  208.6270  156.7930 O   0  0  0  0  0  1  0  0  0  0  0  0
  161.7850  207.6890  155.8830 C   0  0  0  0  0  2  0  0  0  0  0  0
  1 22  1  0  0  0  0
  1 19  1  1  0  0  0
  2  3  2  0  0  0  0
  2  9  1  0  0  0  0
  3 16  1  0  0  0  0
  4 20  1  1  0  0  0
  5 15  1  6  0  0  0
  5  4  1  0  0  0  0
  6 19  1  0  0  0  0
  6 32  1  1  0  0  0
  7 10  1  0  0  0  0
  8 21  1  6  0  0  0
  8 23  1  0  0  0  0
  9 11  2  0  0  0  0
 10 11  1  6  0  0  0
 10  1  1  0  0  0  0
 11 17  1  0  0  0  0
 12 18  1  1  0  0  0
 12 22  1  0  0  0  0
 13  8  1  0  0  0  0
 13 15  1  0  0  0  0
 14  7  1  6  0  0  0
 14  6  1  0  0  0  0
 16 17  2  0  0  0  0
 17 12  1  0  0  0  0
 18 23  1  0  0  0  0
 22  4  1  0  0  0  0
 23  5  1  0  0  0  0
 24 26  1  0  0  0  0
 24 25  1  0  0  0  0
 25 14  1  0  0  0  0
 26 25  1  0  0  0  0
 27 26  1  0  0  0  0
 28 27  1  0  0  0  0
 28 29  1  0  0  0  0
 30 28  2  0  0  0  0
 32 31  1  0  0  0  0
M  END
>  <MODEL>
4

>  <REMARK>
 VINA RESULT:      -4.9      2.180      7.811
  Name = 
  4 active torsions:
  status: ('A' for Active; 'I' for Inactive)
    1  A    between atoms: C_7  and  C_19
    2  A    between atoms: C_10  and  C_17
    3  A    between atoms: C_20  and  C_29
    4  A    between atoms: C_29  and  C_30
                            x       y       z     vdW  Elec       q    Type
                         _______ _______ _______ _____ _____    ______ ____

>  <TORSDO>
F 4

$$$$
=
 OpenBabel11122413033D

 32 37  0  0  1  0  0  0  0  0999 V2000
  161.2990  212.5950  140.6360 C   0  0  1  0  0  3  0  0  0  0  0  0
  157.1240  213.5740  138.2450 C   0  0  0  0  0  3  0  0  0  0  0  0
  156.4720  213.7210  139.4700 C   0  0  0  0  0  3  0  0  0  0  0  0
  161.5730  213.1270  143.1080 C   0  0  2  0  0  3  0  0  0  0  0  0
  160.7300  213.2040  144.3180 N   0  0  2  0  0  0  0  0  0  0  0  0
  162.9300  211.4490  139.5860 C   0  0  2  0  0  3  0  0  0  0  0  0
  161.2400  212.6160  138.1510 O   0  0  0  0  0  0  0  0  0  0  0  0
  158.6290  213.6280  145.3370 C   0  0  2  0  0  3  0  0  0  0  0  0
  158.5060  213.3840  138.2060 C   0  0  0  0  0  3  0  0  0  0  0  0
  160.7460  213.2040  139.3500 C   0  0  1  0  0  3  0  0  0  0  0  0
  159.2480  213.3300  139.3940 C   0  0  0  0  0  0  0  0  0  0  0  0
  159.3540  213.3950  141.9470 C   0  0  2  0  0  3  0  0  0  0  0  0
  158.7750  212.1280  145.2310 C   0  0  0  0  0  2  0  0  0  0  0  0
  161.9570  211.4060  138.3720 C   0  0  2  0  0  3  0  0  0  0  0  0
  160.1310  211.8980  144.5840 C   0  0  0  0  0  2  0  0  0  0  0  0
  157.2030  213.6900  140.6600 C   0  0  0  0  0  3  0  0  0  0  0  0
  158.5960  213.5270  140.6370 C   0  0  0  0  0  0  0  0  0  0  0  0
  158.9700  214.4520  142.9590 C   0  0  0  0  0  2  0  0  0  0  0  0
  162.6860  212.5100  140.4880 O   0  0  0  0  0  0  0  0  0  0  0  0
  162.8030  213.9960  143.2870 C   0  0  0  0  0  1  0  0  0  0  0  0
  157.3130  214.0170  145.0750 O   0  0  0  0  0  1  0  0  0  0  0  0
  160.8680  213.4860  141.7920 C   0  0  2  0  0  3  0  0  0  0  0  0
  159.6270  214.1880  144.3340 C   0  0  2  0  0  3  0  0  0  0  0  0
  160.1460  210.1340  137.2390 C   0  0  0  0  0  2  0  0  0  0  0  0
  161.0010  210.2280  138.4870 C   0  0  1  0  0  3  0  0  0  0  0  0
  161.3340  209.2110  137.4130 C   0  0  1  0  0  3  0  0  0  0  0  0
  160.8530  207.8470  137.8640 C   0  0  0  0  0  2  0  0  0  0  0  0
  162.0160  206.9330  138.0390 C   0  0  0  0  0  0  0  0  0  0  0  0
  162.6370  206.5060  137.0330 O   0  0  0  0  0  0  0  0  0  0  0  0
  162.4370  206.5820  139.3150 O   0  0  0  0  0  1  0  0  0  0  0  0
  164.6740  212.8380  138.7450 O   0  0  0  0  0  1  0  0  0  0  0  0
  164.3580  211.5230  139.0830 C   0  0  0  0  0  2  0  0  0  0  0  0
  1 19  1  6  0  0  0
  1 22  1  0  0  0  0
  2  3  1  0  0  0  0
  3 16  2  0  0  0  0
  4 20  1  1  0  0  0
  4  5  1  0  0  0  0
  5 23  1  0  0  0  0
  5 15  1  6  0  0  0
  6 32  1  6  0  0  0
  6 19  1  0  0  0  0
  8 21  1  6  0  0  0
  9  2  2  0  0  0  0
  9 11  1  0  0  0  0
 10  7  1  6  0  0  0
 10 11  1  0  0  0  0
 10  1  1  0  0  0  0
 11 17  2  0  0  0  0
 12 18  1  1  0  0  0
 13  8  1  0  0  0  0
 14  7  1  1  0  0  0
 14 25  1  0  0  0  0
 14  6  1  0  0  0  0
 15 13  1  0  0  0  0
 17 16  1  0  0  0  0
 17 12  1  0  0  0  0
 18 23  1  0  0  0  0
 22 12  1  0  0  0  0
 22  4  1  0  0  0  0
 23  8  1  0  0  0  0
 24 26  1  0  0  0  0
 24 25  1  0  0  0  0
 26 27  1  0  0  0  0
 26 25  1  0  0  0  0
 27 28  1  0  0  0  0
 28 30  1  0  0  0  0
 29 28  2  0  0  0  0
 31 32  1  0  0  0  0
M  END
>  <MODEL>
5

>  <REMARK>
 VINA RESULT:      -4.7     10.674     14.568
  Name = 
  4 active torsions:
  status: ('A' for Active; 'I' for Inactive)
    1  A    between atoms: C_7  and  C_19
    2  A    between atoms: C_10  and  C_17
    3  A    between atoms: C_20  and  C_29
    4  A    between atoms: C_29  and  C_30
                            x       y       z     vdW  Elec       q    Type
                         _______ _______ _______ _____ _____    ______ ____

>  <TORSDO>
F 4

$$$$
