=
 OpenBabel11122414113D

 28 32  0  0  1  0  0  0  0  0999 V2000
  160.7780  209.5000  154.9040 C   0  0  0  0  0  0  0  0  0  0  0  0
  157.5770  210.3930  155.2030 O   0  0  0  0  0  0  0  0  0  0  0  0
  160.9440  212.8700  150.1200 O   0  0  0  0  0  0  0  0  0  0  0  0
  162.3190  210.6380  156.9560 C   0  0  0  0  0  3  0  0  0  0  0  0
  158.8960  213.2880  151.3500 C   0  0  2  0  0  3  0  0  0  0  0  0
  159.9750  208.8180  153.8420 C   0  0  0  0  0  2  0  0  0  0  0  0
  158.0570  211.6510  157.2610 O   0  0  0  0  0  0  0  0  0  0  0  0
  157.6930  211.7630  155.8060 S   0  0  0  0  0  0  0  0  0  0  0  0
  156.0380  213.6950  154.7720 C   0  0  0  0  0  0  0  0  0  0  0  0
  158.9270  212.7550  154.9670 C   0  0  2  0  0  3  0  0  0  0  0  0
  161.7010  208.7670  150.6090 O   0  0  0  0  0  0  0  0  0  0  0  0
  159.3530  211.4470  152.9450 C   0  0  1  0  0  3  0  0  0  0  0  0
  156.9980  214.1030  153.9920 N   0  0  0  0  0  0  0  0  0  0  0  0
  156.1860  212.5790  155.6440 N   0  0  0  0  0  2  0  0  0  0  0  0
  161.3880  209.2460  151.7360 C   0  0  0  0  0  0  0  0  0  0  0  0
  160.7500  210.9070  155.1120 C   0  0  0  0  0  0  0  0  0  0  0  0
  160.1360  212.5390  151.0300 C   0  0  0  0  0  0  0  0  0  0  0  0
  154.7570  214.4530  154.7960 C   0  0  0  0  0  1  0  0  0  0  0  0
  161.6140  210.7060  151.9860 C   0  0  0  0  0  2  0  0  0  0  0  0
  161.5370  211.4530  156.1350 C   0  0  0  0  0  3  0  0  0  0  0  0
  161.5640  208.6920  155.7380 C   0  0  0  0  0  3  0  0  0  0  0  0
  162.3320  209.2580  156.7580 C   0  0  0  0  0  3  0  0  0  0  0  0
  160.8070  208.3800  152.7240 N   0  0  0  0  0  2  0  0  0  0  0  0
  158.3390  212.5450  152.5780 C   0  0  1  0  0  3  0  0  0  0  0  0
  160.3580  211.4440  151.8970 N   0  0  0  0  0  0  0  0  0  0  0  0
  158.3130  213.4900  153.7780 C   0  0  2  0  0  3  0  0  0  0  0  0
  157.9100  213.1840  150.1940 C   0  0  0  0  0  1  0  0  0  0  0  0
  159.9690  211.8960  154.2670 C   0  0  2  0  0  3  0  0  0  0  0  0
  1 16  2  0  0  0  0
  1 21  1  0  0  0  0
  2  8  2  0  0  0  0
  3 17  2  0  0  0  0
  5 27  1  6  0  0  0
  5 24  1  0  0  0  0
  6  1  1  0  0  0  0
  8  7  2  0  0  0  0
  9 18  1  0  0  0  0
  9 14  1  0  0  0  0
 10  8  1  6  0  0  0
 11 15  2  0  0  0  0
 12 25  1  6  0  0  0
 12 28  1  0  0  0  0
 13  9  2  0  0  0  0
 14  8  1  0  0  0  0
 15 19  1  0  0  0  0
 15 23  1  0  0  0  0
 16 20  1  0  0  0  0
 17  5  1  0  0  0  0
 17 25  1  0  0  0  0
 20  4  2  0  0  0  0
 21 22  2  0  0  0  0
 22  4  1  0  0  0  0
 23  6  1  0  0  0  0
 24 12  1  0  0  0  0
 24 26  1  0  0  0  0
 25 19  1  0  0  0  0
 26 13  1  0  0  0  0
 26 10  1  0  0  0  0
 28 10  1  0  0  0  0
 28 16  1  0  0  0  0
M  END
>  <MODEL>
1

>  <REMARK>
 VINA RESULT:      -4.8      0.000      0.000
  Name = 
  0 active torsions:
  status: ('A' for Active; 'I' for Inactive)
                            x       y       z     vdW  Elec       q    Type
                         _______ _______ _______ _____ _____    ______ ____

>  <TORSDO>
F 0

$$$$
=
 OpenBabel11122414113D

 28 32  0  0  1  0  0  0  0  0999 V2000
  161.9500  205.0030  146.2770 C   0  0  0  0  0  0  0  0  0  0  0  0
  163.2800  206.8960  148.6820 O   0  0  0  0  0  0  0  0  0  0  0  0
  159.4300  201.8970  150.5530 O   0  0  0  0  0  0  0  0  0  0  0  0
  160.0140  206.4410  144.8420 C   0  0  0  0  0  3  0  0  0  0  0  0
  160.3590  203.9450  151.4610 C   0  0  2  0  0  3  0  0  0  0  0  0
  163.0270  204.2320  146.9720 C   0  0  0  0  0  2  0  0  0  0  0  0
  161.9240  208.8290  147.9930 O   0  0  0  0  0  0  0  0  0  0  0  0
  162.1250  207.7800  149.0530 S   0  0  0  0  0  0  0  0  0  0  0  0
  161.7240  208.2000  151.7370 C   0  0  0  0  0  0  0  0  0  0  0  0
  160.6090  206.8460  149.2490 C   0  0  2  0  0  3  0  0  0  0  0  0
  162.0970  200.7290  147.5260 O   0  0  0  0  0  0  0  0  0  0  0  0
  161.4270  204.5410  149.3060 C   0  0  1  0  0  3  0  0  0  0  0  0
  160.8310  207.2530  151.7540 N   0  0  0  0  0  0  0  0  0  0  0  0
  162.4580  208.5350  150.5630 N   0  0  0  0  0  2  0  0  0  0  0  0
  161.8820  201.9690  147.4030 C   0  0  0  0  0  0  0  0  0  0  0  0
  160.8740  205.6240  146.9700 C   0  0  0  0  0  0  0  0  0  0  0  0
  160.1630  202.9150  150.4130 C   0  0  0  0  0  0  0  0  0  0  0  0
  161.9510  209.0000  152.9720 C   0  0  0  0  0  1  0  0  0  0  0  0
  160.6020  202.5340  147.9390 C   0  0  0  0  0  2  0  0  0  0  0  0
  159.9120  206.3270  146.2300 C   0  0  0  0  0  3  0  0  0  0  0  0
  162.0420  205.1290  144.8840 C   0  0  0  0  0  3  0  0  0  0  0  0
  161.0780  205.8430  144.1700 C   0  0  0  0  0  3  0  0  0  0  0  0
  162.8810  202.7910  146.7790 N   0  0  0  0  0  2  0  0  0  0  0  0
  161.2380  205.0000  150.7640 C   0  0  1  0  0  3  0  0  0  0  0  0
  160.8330  203.2200  149.2060 N   0  0  0  0  0  0  0  0  0  0  0  0
  160.4780  206.3220  150.6770 C   0  0  2  0  0  3  0  0  0  0  0  0
  161.1100  203.3500  152.6450 C   0  0  0  0  0  1  0  0  0  0  0  0
  160.6380  205.5420  148.4670 C   0  0  2  0  0  3  0  0  0  0  0  0
  1 16  1  0  0  0  0
  1  6  1  0  0  0  0
  2  8  2  0  0  0  0
  4 20  1  0  0  0  0
  5 27  1  1  0  0  0
  7  8  2  0  0  0  0
  8 14  1  0  0  0  0
  9 13  2  0  0  0  0
  9 18  1  0  0  0  0
 10  8  1  1  0  0  0
 10 26  1  0  0  0  0
 12 25  1  1  0  0  0
 12 24  1  0  0  0  0
 14  9  1  0  0  0  0
 15 11  2  0  0  0  0
 15 19  1  0  0  0  0
 16 28  1  0  0  0  0
 17  3  2  0  0  0  0
 17  5  1  0  0  0  0
 19 25  1  0  0  0  0
 20 16  2  0  0  0  0
 21  1  2  0  0  0  0
 22  4  2  0  0  0  0
 22 21  1  0  0  0  0
 23  6  1  0  0  0  0
 23 15  1  0  0  0  0
 24  5  1  0  0  0  0
 25 17  1  0  0  0  0
 26 24  1  0  0  0  0
 26 13  1  0  0  0  0
 28 10  1  0  0  0  0
 28 12  1  0  0  0  0
M  END
>  <MODEL>
2

>  <REMARK>
 VINA RESULT:      -2.4      6.111      9.614
  Name = 
  0 active torsions:
  status: ('A' for Active; 'I' for Inactive)
                            x       y       z     vdW  Elec       q    Type
                         _______ _______ _______ _____ _____    ______ ____

>  <TORSDO>
F 0

$$$$
