=
 OpenBabel11122414033D

 28 32  0  0  1  0  0  0  0  0999 V2000
  161.5540  205.9860  152.2880 C   0  0  0  0  0  0  0  0  0  0  0  0
  163.2540  207.5790  148.7000 O   0  0  0  0  0  0  0  0  0  0  0  0
  158.6290  210.8750  154.1790 O   0  0  0  0  0  0  0  0  0  0  0  0
  160.2150  204.9570  150.0510 C   0  0  0  0  0  3  0  0  0  0  0  0
  160.3060  211.3180  152.5750 N   0  0  0  0  0  0  0  0  0  0  0  0
  162.2810  206.4730  153.5020 C   0  0  0  0  0  2  0  0  0  0  0  0
  161.0010  208.1650  147.8650 O   0  0  0  0  0  0  0  0  0  0  0  0
  162.1920  208.6410  148.6460 S   0  0  0  0  0  0  0  0  0  0  0  0
  162.6100  211.3480  148.5260 C   0  0  0  0  0  0  0  0  0  0  0  0
  161.7300  209.0990  150.2450 N   0  0  0  0  0  0  0  0  0  0  0  0
  159.7460  207.0670  156.0690 O   0  0  0  0  0  0  0  0  0  0  0  0
  161.0910  209.1530  152.3740 C   0  0  0  0  0  0  0  0  0  0  0  0
  161.6100  211.5340  149.6370 C   0  0  0  0  0  2  0  0  0  0  0  0
  162.8310  210.0700  147.9180 N   0  0  0  0  0  2  0  0  0  0  0  0
  160.6190  207.3460  155.2070 C   0  0  0  0  0  0  0  0  0  0  0  0
  161.1450  206.8590  151.2530 C   0  0  0  0  0  0  0  0  0  0  0  0
  159.5920  210.4690  153.4770 C   0  0  0  0  0  0  0  0  0  0  0  0
  163.2610  212.6740  147.8340 S   0  0  0  0  0  0  0  0  0  0  0  0
  160.7940  208.7660  154.7810 C   0  0  0  0  0  2  0  0  0  0  0  0
  160.4710  206.3260  150.1460 C   0  0  0  0  0  3  0  0  0  0  0  0
  161.2990  204.6130  152.1800 C   0  0  0  0  0  3  0  0  0  0  0  0
  160.6310  204.0990  151.0690 C   0  0  0  0  0  3  0  0  0  0  0  0
  161.4370  206.3030  154.6760 N   0  0  0  0  0  2  0  0  0  0  0  0
  161.2040  210.4330  151.9280 C   0  0  0  0  0  0  0  0  0  0  0  0
  160.0790  209.0420  153.4700 C   0  0  2  0  0  3  0  0  0  0  0  0
  161.6060  210.3920  150.6100 C   0  0  0  0  0  0  0  0  0  0  0  0
  159.8080  212.5750  152.0440 C   0  0  0  0  0  1  0  0  0  0  0  0
  161.3930  208.3190  151.3060 C   0  0  0  0  0  0  0  0  0  0  0  0
  1  6  1  0  0  0  0
  4 20  2  0  0  0  0
  4 22  1  0  0  0  0
  5 17  1  0  0  0  0
  6 23  1  0  0  0  0
  7  8  2  0  0  0  0
  8  2  2  0  0  0  0
  8 10  1  0  0  0  0
  9 13  1  0  0  0  0
 10 26  1  0  0  0  0
 10 28  1  0  0  0  0
 12 25  1  0  0  0  0
 13 26  1  0  0  0  0
 14  9  1  0  0  0  0
 14  8  1  0  0  0  0
 15 11  2  0  0  0  0
 16 28  1  0  0  0  0
 16  1  2  0  0  0  0
 17  3  2  0  0  0  0
 18  9  2  0  0  0  0
 19 15  1  0  0  0  0
 20 16  1  0  0  0  0
 21  1  1  0  0  0  0
 22 21  2  0  0  0  0
 23 15  1  0  0  0  0
 24 12  1  0  0  0  0
 24  5  1  0  0  0  0
 25 17  1  0  0  0  0
 25 19  1  1  0  0  0
 26 24  2  0  0  0  0
 27  5  1  0  0  0  0
 28 12  2  0  0  0  0
M  END
>  <MODEL>
1

>  <REMARK>
 VINA RESULT:      -6.1      0.000      0.000
  Name = 
  0 active torsions:
  status: ('A' for Active; 'I' for Inactive)
                            x       y       z     vdW  Elec       q    Type
                         _______ _______ _______ _____ _____    ______ ____

>  <TORSDO>
F 0

$$$$
=
 OpenBabel11122414033D

 28 32  0  0  1  0  0  0  0  0999 V2000
  161.9710  205.5960  150.9400 C   0  0  0  0  0  0  0  0  0  0  0  0
  161.9810  201.3300  150.6080 O   0  0  0  0  0  0  0  0  0  0  0  0
  160.0810  206.9530  145.4060 O   0  0  0  0  0  0  0  0  0  0  0  0
  159.8200  204.5150  152.3750 C   0  0  0  0  0  3  0  0  0  0  0  0
  160.9190  204.7550  145.6240 N   0  0  0  0  0  0  0  0  0  0  0  0
  163.1390  206.2030  150.2290 C   0  0  0  0  0  2  0  0  0  0  0  0
  159.5820  201.3480  150.0080 O   0  0  0  0  0  0  0  0  0  0  0  0
  160.9880  201.3970  149.4820 S   0  0  0  0  0  0  0  0  0  0  0  0
  161.2950  200.3140  146.9820 C   0  0  0  0  0  0  0  0  0  0  0  0
  161.2420  202.8290  148.5510 N   0  0  0  0  0  0  0  0  0  0  0  0
  161.9230  209.2710  148.6550 O   0  0  0  0  0  0  0  0  0  0  0  0
  161.5630  204.9100  147.8390 C   0  0  0  0  0  0  0  0  0  0  0  0
  160.8560  201.6230  146.3800 C   0  0  0  0  0  2  0  0  0  0  0  0
  161.2480  200.0820  148.3950 N   0  0  0  0  0  2  0  0  0  0  0  0
  162.3470  208.0890  148.7300 C   0  0  0  0  0  0  0  0  0  0  0  0
  161.1560  204.6070  150.3420 C   0  0  0  0  0  0  0  0  0  0  0  0
  160.6600  206.0780  146.1010 C   0  0  0  0  0  0  0  0  0  0  0  0
  161.5810  199.0550  145.9840 S   0  0  0  0  0  0  0  0  0  0  0  0
  162.3140  207.2260  147.5130 C   0  0  0  0  0  2  0  0  0  0  0  0
  160.0810  204.0840  151.0730 C   0  0  0  0  0  3  0  0  0  0  0  0
  161.7050  206.0170  152.2490 C   0  0  0  0  0  3  0  0  0  0  0  0
  160.6340  205.4810  152.9640 C   0  0  0  0  0  3  0  0  0  0  0  0
  162.8720  207.6110  149.9690 N   0  0  0  0  0  2  0  0  0  0  0  0
  161.4660  204.0960  146.7530 C   0  0  0  0  0  0  0  0  0  0  0  0
  161.1090  206.3010  147.5240 C   0  0  2  0  0  3  0  0  0  0  0  0
  161.2730  202.8080  147.2020 C   0  0  0  0  0  0  0  0  0  0  0  0
  160.2330  204.1220  144.5110 C   0  0  0  0  0  1  0  0  0  0  0  0
  161.3910  204.1150  148.9640 C   0  0  0  0  0  0  0  0  0  0  0  0
  1 21  1  0  0  0  0
  3 17  2  0  0  0  0
  4 22  1  0  0  0  0
  5 17  1  0  0  0  0
  5 24  1  0  0  0  0
  6  1  1  0  0  0  0
  8  7  2  0  0  0  0
  8  2  2  0  0  0  0
  9 14  1  0  0  0  0
 10 28  1  0  0  0  0
 10  8  1  0  0  0  0
 11 15  2  0  0  0  0
 12 28  2  0  0  0  0
 13  9  1  0  0  0  0
 13 26  1  0  0  0  0
 14  8  1  0  0  0  0
 15 23  1  0  0  0  0
 16  1  2  0  0  0  0
 16 20  1  0  0  0  0
 17 25  1  0  0  0  0
 18  9  2  0  0  0  0
 19 15  1  0  0  0  0
 20  4  2  0  0  0  0
 21 22  2  0  0  0  0
 23  6  1  0  0  0  0
 24 26  2  0  0  0  0
 24 12  1  0  0  0  0
 25 19  1  6  0  0  0
 25 12  1  0  0  0  0
 26 10  1  0  0  0  0
 27  5  1  0  0  0  0
 28 16  1  0  0  0  0
M  END
>  <MODEL>
2

>  <REMARK>
 VINA RESULT:      -5.5      4.644      7.531
  Name = 
  0 active torsions:
  status: ('A' for Active; 'I' for Inactive)
                            x       y       z     vdW  Elec       q    Type
                         _______ _______ _______ _____ _____    ______ ____

>  <TORSDO>
F 0

$$$$
=
 OpenBabel11122414033D

 28 32  0  0  1  0  0  0  0  0999 V2000
  161.0070  209.7510  154.9330 C   0  0  0  0  0  0  0  0  0  0  0  0
  163.2140  210.0510  151.2800 O   0  0  0  0  0  0  0  0  0  0  0  0
  156.3250  213.2140  153.4750 O   0  0  0  0  0  0  0  0  0  0  0  0
  160.8200  207.3500  153.4960 C   0  0  0  0  0  3  0  0  0  0  0  0
  158.2170  213.5230  152.0950 N   0  0  0  0  0  0  0  0  0  0  0  0
  161.1290  210.9970  155.7510 C   0  0  0  0  0  2  0  0  0  0  0  0
  161.2790  209.1760  150.0120 O   0  0  0  0  0  0  0  0  0  0  0  0
  161.9620  210.4090  150.5310 S   0  0  0  0  0  0  0  0  0  0  0  0
  161.5770  212.6440  148.9890 C   0  0  0  0  0  0  0  0  0  0  0  0
  160.8990  211.3120  151.5490 N   0  0  0  0  0  0  0  0  0  0  0  0
  157.8510  211.5820  157.2610 O   0  0  0  0  0  0  0  0  0  0  0  0
  159.6280  212.0690  153.2090 C   0  0  0  0  0  0  0  0  0  0  0  0
  160.2660  212.8820  149.6920 C   0  0  0  0  0  2  0  0  0  0  0  0
  162.3480  211.4570  149.2150 N   0  0  0  0  0  2  0  0  0  0  0  0
  158.8300  211.7680  156.4930 C   0  0  0  0  0  0  0  0  0  0  0  0
  160.7120  209.7820  153.5500 C   0  0  0  0  0  0  0  0  0  0  0  0
  157.5360  212.9770  153.2270 C   0  0  0  0  0  0  0  0  0  0  0  0
  161.9930  213.6330  147.7610 S   0  0  0  0  0  0  0  0  0  0  0  0
  158.7040  212.7540  155.3790 C   0  0  0  0  0  2  0  0  0  0  0  0
  160.6160  208.5720  152.8510 C   0  0  0  0  0  3  0  0  0  0  0  0
  161.2170  208.5210  155.5700 C   0  0  0  0  0  3  0  0  0  0  0  0
  161.1230  207.3260  154.8570 C   0  0  0  0  0  3  0  0  0  0  0  0
  160.0440  211.0520  156.7200 N   0  0  0  0  0  2  0  0  0  0  0  0
  159.4930  212.9100  152.1480 C   0  0  0  0  0  0  0  0  0  0  0  0
  158.3980  212.0630  154.0620 C   0  0  2  0  0  3  0  0  0  0  0  0
  160.2890  212.4380  151.1260 C   0  0  0  0  0  0  0  0  0  0  0  0
  157.5670  214.0500  150.9070 C   0  0  0  0  0  1  0  0  0  0  0  0
  160.4860  211.0510  152.8180 C   0  0  0  0  0  0  0  0  0  0  0  0
  1 21  1  0  0  0  0
  1  6  1  0  0  0  0
  4 22  1  0  0  0  0
  5 24  1  0  0  0  0
  5 17  1  0  0  0  0
  6 23  1  0  0  0  0
  7  8  2  0  0  0  0
  8  2  2  0  0  0  0
  8 10  1  0  0  0  0
  9 14  1  0  0  0  0
  9 13  1  0  0  0  0
 10 28  1  0  0  0  0
 12 25  1  0  0  0  0
 13 26  1  0  0  0  0
 14  8  1  0  0  0  0
 15 23  1  0  0  0  0
 15 11  2  0  0  0  0
 16  1  2  0  0  0  0
 17  3  2  0  0  0  0
 17 25  1  0  0  0  0
 18  9  2  0  0  0  0
 19 15  1  0  0  0  0
 20  4  2  0  0  0  0
 20 16  1  0  0  0  0
 22 21  2  0  0  0  0
 24 12  1  0  0  0  0
 25 19  1  1  0  0  0
 26 10  1  0  0  0  0
 26 24  2  0  0  0  0
 27  5  1  0  0  0  0
 28 12  2  0  0  0  0
 28 16  1  0  0  0  0
M  END
>  <MODEL>
3

>  <REMARK>
 VINA RESULT:      -5.3      2.596      3.676
  Name = 
  0 active torsions:
  status: ('A' for Active; 'I' for Inactive)
                            x       y       z     vdW  Elec       q    Type
                         _______ _______ _______ _____ _____    ______ ____

>  <TORSDO>
F 0

$$$$
=
 OpenBabel11122414033D

 28 32  0  0  1  0  0  0  0  0999 V2000
  160.0460  211.6480  151.2790 C   0  0  0  0  0  0  0  0  0  0  0  0
  160.5010  207.7780  149.5140 O   0  0  0  0  0  0  0  0  0  0  0  0
  161.6550  210.2980  156.9030 O   0  0  0  0  0  0  0  0  0  0  0  0
  162.3350  211.5920  149.6610 C   0  0  0  0  0  3  0  0  0  0  0  0
  161.0700  208.4220  155.5930 N   0  0  0  0  0  0  0  0  0  0  0  0
  158.8040  211.7310  152.1080 C   0  0  0  0  0  2  0  0  0  0  0  0
  162.8700  207.7080  150.2200 O   0  0  0  0  0  0  0  0  0  0  0  0
  161.4560  207.3730  150.6010 S   0  0  0  0  0  0  0  0  0  0  0  0
  161.2160  205.1890  152.2400 C   0  0  0  0  0  0  0  0  0  0  0  0
  161.0250  208.1440  152.0860 N   0  0  0  0  0  0  0  0  0  0  0  0
  159.6390  213.7360  155.0490 O   0  0  0  0  0  0  0  0  0  0  0  0
  160.4610  209.5790  153.6860 C   0  0  0  0  0  0  0  0  0  0  0  0
  161.4940  206.0720  153.4290 C   0  0  0  0  0  2  0  0  0  0  0  0
  161.3190  205.6790  150.8980 N   0  0  0  0  0  2  0  0  0  0  0  0
  159.3500  212.7080  154.3830 C   0  0  0  0  0  0  0  0  0  0  0  0
  160.9530  210.5680  151.3840 C   0  0  0  0  0  0  0  0  0  0  0  0
  161.1910  209.8260  155.8320 C   0  0  0  0  0  0  0  0  0  0  0  0
  161.0490  203.5850  152.4850 S   0  0  0  0  0  0  0  0  0  0  0  0
  159.4520  211.3680  155.0330 C   0  0  0  0  0  2  0  0  0  0  0  0
  162.0940  210.5610  150.5720 C   0  0  0  0  0  3  0  0  0  0  0  0
  160.2930  212.6740  150.3580 C   0  0  0  0  0  3  0  0  0  0  0  0
  161.4320  212.6490  149.5530 C   0  0  0  0  0  3  0  0  0  0  0  0
  158.9080  212.8500  153.0330 N   0  0  0  0  0  2  0  0  0  0  0  0
  160.6240  208.3510  154.2500 C   0  0  0  0  0  0  0  0  0  0  0  0
  160.7510  210.6730  154.6650 C   0  0  2  0  0  3  0  0  0  0  0  0
  160.9670  207.4660  153.2510 C   0  0  0  0  0  0  0  0  0  0  0  0
  161.7970  207.3880  156.3100 C   0  0  0  0  0  1  0  0  0  0  0  0
  160.7440  209.4500  152.3340 C   0  0  0  0  0  0  0  0  0  0  0  0
  1 16  1  0  0  0  0
  1  6  1  0  0  0  0
  2  8  2  0  0  0  0
  4 20  1  0  0  0  0
  5 17  1  0  0  0  0
  5 27  1  0  0  0  0
  6 23  1  0  0  0  0
  7  8  2  0  0  0  0
  8 14  1  0  0  0  0
  8 10  1  0  0  0  0
  9 18  2  0  0  0  0
  9 13  1  0  0  0  0
 10 28  1  0  0  0  0
 10 26  1  0  0  0  0
 12 24  1  0  0  0  0
 12 25  1  0  0  0  0
 14  9  1  0  0  0  0
 15 19  1  0  0  0  0
 15 11  2  0  0  0  0
 16 28  1  0  0  0  0
 17  3  2  0  0  0  0
 20 16  2  0  0  0  0
 21  1  2  0  0  0  0
 22  4  2  0  0  0  0
 22 21  1  0  0  0  0
 23 15  1  0  0  0  0
 24  5  1  0  0  0  0
 25 19  1  1  0  0  0
 25 17  1  0  0  0  0
 26 13  1  0  0  0  0
 26 24  2  0  0  0  0
 28 12  2  0  0  0  0
M  END
>  <MODEL>
4

>  <REMARK>
 VINA RESULT:      -4.4      2.288      5.467
  Name = 
  0 active torsions:
  status: ('A' for Active; 'I' for Inactive)
                            x       y       z     vdW  Elec       q    Type
                         _______ _______ _______ _____ _____    ______ ____

>  <TORSDO>
F 0

$$$$
=
 OpenBabel11122414033D

 28 32  0  0  1  0  0  0  0  0999 V2000
  159.8140  213.5620  150.6330 C   0  0  0  0  0  0  0  0  0  0  0  0
  159.7060  213.0270  154.8760 O   0  0  0  0  0  0  0  0  0  0  0  0
  161.8690  208.1440  149.0650 O   0  0  0  0  0  0  0  0  0  0  0  0
  157.1620  213.2920  151.5010 C   0  0  0  0  0  3  0  0  0  0  0  0
  162.2230  208.6870  151.3370 N   0  0  0  0  0  0  0  0  0  0  0  0
  161.2120  213.7650  150.1410 C   0  0  0  0  0  2  0  0  0  0  0  0
  158.2050  211.0790  154.6160 O   0  0  0  0  0  0  0  0  0  0  0  0
  159.6330  211.5360  154.7050 S   0  0  0  0  0  0  0  0  0  0  0  0
  161.3400  209.6920  155.8000 C   0  0  0  0  0  0  0  0  0  0  0  0
  160.5160  211.0560  153.3010 N   0  0  0  0  0  0  0  0  0  0  0  0
  161.4690  211.9820  146.9590 O   0  0  0  0  0  0  0  0  0  0  0  0
  161.3650  210.8330  151.2580 C   0  0  0  0  0  0  0  0  0  0  0  0
  161.4700  209.0350  154.4510 C   0  0  0  0  0  2  0  0  0  0  0  0
  160.4110  210.7560  156.0340 N   0  0  0  0  0  2  0  0  0  0  0  0
  161.6650  212.2240  148.1790 C   0  0  0  0  0  0  0  0  0  0  0  0
  159.4730  212.5260  151.5320 C   0  0  0  0  0  0  0  0  0  0  0  0
  161.8250  208.9890  149.9980 C   0  0  0  0  0  0  0  0  0  0  0  0
  162.0880  209.0020  157.0760 S   0  0  0  0  0  0  0  0  0  0  0  0
  162.3290  211.1920  149.0280 C   0  0  0  0  0  2  0  0  0  0  0  0
  158.1410  212.4030  151.9490 C   0  0  0  0  0  3  0  0  0  0  0  0
  158.8260  214.4530  150.1940 C   0  0  0  0  0  3  0  0  0  0  0  0
  157.5060  214.3190  150.6230 C   0  0  0  0  0  3  0  0  0  0  0  0
  161.2710  213.4880  148.7130 N   0  0  0  0  0  2  0  0  0  0  0  0
  161.9010  209.8670  152.0530 C   0  0  0  0  0  0  0  0  0  0  0  0
  161.3110  210.3970  149.8280 C   0  0  2  0  0  3  0  0  0  0  0  0
  161.3750  210.0160  153.3180 C   0  0  0  0  0  0  0  0  0  0  0  0
  162.3300  207.3490  151.8930 C   0  0  0  0  0  1  0  0  0  0  0  0
  160.4740  211.5570  152.0380 C   0  0  0  0  0  0  0  0  0  0  0  0
  1 16  1  0  0  0  0
  3 17  2  0  0  0  0
  4 20  1  0  0  0  0
  5 27  1  0  0  0  0
  5 24  1  0  0  0  0
  6  1  1  0  0  0  0
  7  8  2  0  0  0  0
  8  2  2  0  0  0  0
  8 14  1  0  0  0  0
  9 14  1  0  0  0  0
  9 18  2  0  0  0  0
 10 26  1  0  0  0  0
 10  8  1  0  0  0  0
 11 15  2  0  0  0  0
 12 28  2  0  0  0  0
 12 24  1  0  0  0  0
 13  9  1  0  0  0  0
 15 23  1  0  0  0  0
 15 19  1  0  0  0  0
 16 20  2  0  0  0  0
 16 28  1  0  0  0  0
 17  5  1  0  0  0  0
 21 22  1  0  0  0  0
 21  1  2  0  0  0  0
 22  4  2  0  0  0  0
 23  6  1  0  0  0  0
 24 26  2  0  0  0  0
 25 19  1  6  0  0  0
 25 17  1  0  0  0  0
 25 12  1  0  0  0  0
 26 13  1  0  0  0  0
 28 10  1  0  0  0  0
M  END
>  <MODEL>
5

>  <REMARK>
 VINA RESULT:      -4.2      2.939      7.178
  Name = 
  0 active torsions:
  status: ('A' for Active; 'I' for Inactive)
                            x       y       z     vdW  Elec       q    Type
                         _______ _______ _______ _____ _____    ______ ____

>  <TORSDO>
F 0

$$$$
=
 OpenBabel11122414033D

 28 32  0  0  1  0  0  0  0  0999 V2000
  161.1750  207.3270  149.8670 C   0  0  0  0  0  0  0  0  0  0  0  0
  160.3510  206.2340  145.8130 O   0  0  0  0  0  0  0  0  0  0  0  0
  162.5140  201.8940  152.0400 O   0  0  0  0  0  0  0  0  0  0  0  0
  163.2700  208.1610  148.2010 C   0  0  0  0  0  3  0  0  0  0  0  0
  161.3310  201.8470  149.9960 N   0  0  0  0  0  0  0  0  0  0  0  0
  160.0510  206.9450  150.7770 C   0  0  0  0  0  2  0  0  0  0  0  0
  162.6110  205.2530  145.5940 O   0  0  0  0  0  0  0  0  0  0  0  0
  161.1790  204.9880  145.9610 S   0  0  0  0  0  0  0  0  0  0  0  0
  160.3470  202.4210  145.4780 C   0  0  0  0  0  0  0  0  0  0  0  0
  161.0640  204.3880  147.5770 N   0  0  0  0  0  0  0  0  0  0  0  0
  161.5760  205.7710  153.8860 O   0  0  0  0  0  0  0  0  0  0  0  0
  161.0300  204.1300  149.7840 C   0  0  0  0  0  0  0  0  0  0  0  0
  160.9290  202.0010  146.8030 C   0  0  0  0  0  2  0  0  0  0  0  0
  160.5410  203.7400  144.9540 N   0  0  0  0  0  2  0  0  0  0  0  0
  160.9600  205.7010  152.7910 C   0  0  0  0  0  0  0  0  0  0  0  0
  161.7100  206.4320  148.9120 C   0  0  0  0  0  0  0  0  0  0  0  0
  161.8860  202.5060  151.1370 C   0  0  0  0  0  0  0  0  0  0  0  0
  159.7060  201.2740  144.5110 S   0  0  0  0  0  0  0  0  0  0  0  0
  160.6720  204.3590  152.2040 C   0  0  0  0  0  2  0  0  0  0  0  0
  162.7620  206.8650  148.0930 C   0  0  0  0  0  3  0  0  0  0  0  0
  161.6870  208.6270  149.9630 C   0  0  0  0  0  3  0  0  0  0  0  0
  162.7300  209.0430  149.1360 C   0  0  0  0  0  3  0  0  0  0  0  0
  160.5290  206.9030  152.1510 N   0  0  0  0  0  2  0  0  0  0  0  0
  160.8310  202.9140  149.2080 C   0  0  0  0  0  0  0  0  0  0  0  0
  161.6800  204.0000  151.1260 C   0  0  2  0  0  3  0  0  0  0  0  0
  160.8470  203.0830  147.8400 C   0  0  0  0  0  0  0  0  0  0  0  0
  161.7340  200.5380  149.5110 C   0  0  0  0  0  1  0  0  0  0  0  0
  161.2060  205.0460  148.7570 C   0  0  0  0  0  0  0  0  0  0  0  0
  1 21  1  0  0  0  0
  1  6  1  0  0  0  0
  2  8  2  0  0  0  0
  4 22  1  0  0  0  0
  5 17  1  0  0  0  0
  6 23  1  0  0  0  0
  7  8  2  0  0  0  0
  8 10  1  0  0  0  0
  9 13  1  0  0  0  0
 10 26  1  0  0  0  0
 10 28  1  0  0  0  0
 12 25  1  0  0  0  0
 13 26  1  0  0  0  0
 14  9  1  0  0  0  0
 14  8  1  0  0  0  0
 15 11  2  0  0  0  0
 16  1  2  0  0  0  0
 17  3  2  0  0  0  0
 18  9  2  0  0  0  0
 19 15  1  0  0  0  0
 20  4  2  0  0  0  0
 20 16  1  0  0  0  0
 22 21  2  0  0  0  0
 23 15  1  0  0  0  0
 24 12  1  0  0  0  0
 24  5  1  0  0  0  0
 25 17  1  0  0  0  0
 25 19  1  1  0  0  0
 26 24  2  0  0  0  0
 27  5  1  0  0  0  0
 28 16  1  0  0  0  0
 28 12  2  0  0  0  0
M  END
>  <MODEL>
6

>  <REMARK>
 VINA RESULT:      -4.0      3.923      6.781
  Name = 
  0 active torsions:
  status: ('A' for Active; 'I' for Inactive)
                            x       y       z     vdW  Elec       q    Type
                         _______ _______ _______ _____ _____    ______ ____

>  <TORSDO>
F 0

$$$$
=
 OpenBabel11122414033D

 28 32  0  0  1  0  0  0  0  0999 V2000
  160.8450  208.0930  154.7290 C   0  0  0  0  0  0  0  0  0  0  0  0
  157.7530  210.5610  156.3570 O   0  0  0  0  0  0  0  0  0  0  0  0
  162.2880  211.4380  149.9580 O   0  0  0  0  0  0  0  0  0  0  0  0
  161.7660  209.3900  157.0370 C   0  0  0  0  0  3  0  0  0  0  0  0
  160.1810  211.9540  150.8920 N   0  0  0  0  0  0  0  0  0  0  0  0
  160.3710  207.3420  153.5250 C   0  0  0  0  0  2  0  0  0  0  0  0
  159.3230  212.4650  156.5150 O   0  0  0  0  0  0  0  0  0  0  0  0
  158.3150  211.7630  155.6510 S   0  0  0  0  0  0  0  0  0  0  0  0
  156.9630  213.4120  153.9290 C   0  0  0  0  0  0  0  0  0  0  0  0
  159.0220  211.2910  154.1480 N   0  0  0  0  0  0  0  0  0  0  0  0
  163.1570  207.2990  151.1570 O   0  0  0  0  0  0  0  0  0  0  0  0
  160.1780  210.3120  152.5210 C   0  0  0  0  0  0  0  0  0  0  0  0
  158.1060  213.3050  152.9540 C   0  0  0  0  0  2  0  0  0  0  0  0
  157.0390  212.8520  155.2450 N   0  0  0  0  0  2  0  0  0  0  0  0
  162.0350  207.6160  151.6310 C   0  0  0  0  0  0  0  0  0  0  0  0
  160.6130  209.4780  154.8950 C   0  0  0  0  0  0  0  0  0  0  0  0
  161.3710  211.1700  150.7770 C   0  0  0  0  0  0  0  0  0  0  0  0
  155.7220  214.4080  153.5660 S   0  0  0  0  0  0  0  0  0  0  0  0
  161.2620  208.7230  150.9940 C   0  0  0  0  0  2  0  0  0  0  0  0
  161.0860  210.1100  156.0520 C   0  0  0  0  0  3  0  0  0  0  0  0
  161.5220  207.3790  155.7260 C   0  0  0  0  0  3  0  0  0  0  0  0
  161.9820  208.0230  156.8750 C   0  0  0  0  0  3  0  0  0  0  0  0
  161.5180  206.8930  152.7490 N   0  0  0  0  0  2  0  0  0  0  0  0
  159.5040  211.3690  151.9910 C   0  0  0  0  0  0  0  0  0  0  0  0
  161.4320  210.0250  151.7570 C   0  0  2  0  0  3  0  0  0  0  0  0
  158.7850  211.9670  153.0040 C   0  0  0  0  0  0  0  0  0  0  0  0
  160.0360  213.3210  150.4240 C   0  0  0  0  0  1  0  0  0  0  0  0
  159.8970  210.2860  153.8790 C   0  0  0  0  0  0  0  0  0  0  0  0
  1 16  2  0  0  0  0
  1 21  1  0  0  0  0
  3 17  2  0  0  0  0
  5 24  1  0  0  0  0
  6  1  1  0  0  0  0
  8  2  2  0  0  0  0
  8  7  2  0  0  0  0
  9 14  1  0  0  0  0
 10  8  1  0  0  0  0
 11 15  2  0  0  0  0
 12 28  2  0  0  0  0
 13 26  1  0  0  0  0
 13  9  1  0  0  0  0
 14  8  1  0  0  0  0
 15 23  1  0  0  0  0
 16 20  1  0  0  0  0
 17  5  1  0  0  0  0
 17 25  1  0  0  0  0
 18  9  2  0  0  0  0
 19 15  1  0  0  0  0
 20  4  2  0  0  0  0
 21 22  2  0  0  0  0
 22  4  1  0  0  0  0
 23  6  1  0  0  0  0
 24 12  1  0  0  0  0
 24 26  2  0  0  0  0
 25 19  1  6  0  0  0
 25 12  1  0  0  0  0
 26 10  1  0  0  0  0
 27  5  1  0  0  0  0
 28 10  1  0  0  0  0
 28 16  1  0  0  0  0
M  END
>  <MODEL>
7

>  <REMARK>
 VINA RESULT:      -3.9      3.331      5.858
  Name = 
  0 active torsions:
  status: ('A' for Active; 'I' for Inactive)
                            x       y       z     vdW  Elec       q    Type
                         _______ _______ _______ _____ _____    ______ ____

>  <TORSDO>
F 0

$$$$
