=
 OpenBabel11122413523D

 37 43  0  0  1  0  0  0  0  0999 V2000
  161.2250  210.4990  148.8890 O   0  0  0  0  0  0  0  0  0  0  0  0
  161.5690  205.7320  147.3820 C   0  0  0  0  0  0  0  0  0  0  0  0
  161.2070  206.8170  151.4050 C   0  0  0  0  0  0  0  0  0  0  0  0
  161.9200  211.5680  148.2980 C   0  0  2  0  0  3  0  0  0  0  0  0
  159.9940  210.2690  151.9360 C   0  0  0  0  0  2  0  0  0  0  0  0
  161.4270  204.9840  149.8260 C   0  0  0  0  0  0  0  0  0  0  0  0
  161.3010  208.1690  151.3910 N   0  0  0  0  0  0  0  0  0  0  0  0
  161.0150  213.2530  149.9960 C   0  0  0  0  0  0  0  0  0  0  0  0
  161.3740  206.3250  150.1450 C   0  0  0  0  0  0  0  0  0  0  0  0
  160.8200  209.0930  152.4000 C   0  0  0  0  0  0  0  0  0  0  0  0
  161.3180  204.0710  150.8850 C   0  0  0  0  0  3  0  0  0  0  0  0
  162.2280  212.6960  149.2990 C   0  0  0  0  0  2  0  0  0  0  0  0
  161.6230  207.3460  149.2990 C   0  0  0  0  0  0  0  0  0  0  0  0
  160.0950  205.8290  147.0260 C   0  0  0  0  0  1  0  0  0  0  0  0
  161.3560  206.3520  153.8720 C   0  0  0  0  0  3  0  0  0  0  0  0
  161.1920  204.5490  152.2100 C   0  0  0  0  0  3  0  0  0  0  0  0
  162.0670  207.1130  147.8860 C   0  0  0  0  0  2  0  0  0  0  0  0
  160.0730  212.3630  150.7460 C   0  0  1  0  0  3  0  0  0  0  0  0
  160.8140  211.5230  151.7150 C   0  0  1  0  0  3  0  0  0  0  0  0
  161.1560  205.9360  152.4890 C   0  0  0  0  0  0  0  0  0  0  0  0
  161.6190  208.4830  150.0920 C   0  0  0  0  0  0  0  0  0  0  0  0
  161.7730  204.5840  148.4130 C   0  0  0  0  0  2  0  0  0  0  0  0
  160.8780  208.8490  153.7360 C   0  0  0  0  0  0  0  0  0  0  0  0
  162.3320  205.3820  146.1230 C   0  0  0  0  0  1  0  0  0  0  0  0
  160.0910  212.6620  152.1200 O   0  0  0  0  0  0  0  0  0  0  0  0
  160.7920  214.4510  149.9360 O   0  0  0  0  0  0  0  0  0  0  0  0
  162.1730  209.7930  149.6360 C   0  0  0  0  0  2  0  0  0  0  0  0
  161.2660  207.5770  154.3770 C   0  0  0  0  0  3  0  0  0  0  0  0
  161.4420  210.6770  155.3430 C   0  0  0  0  0  3  0  0  0  0  0  0
  160.4720  209.8870  154.7090 C   0  0  0  0  0  0  0  0  0  0  0  0
  159.1150  210.1190  154.9760 C   0  0  0  0  0  3  0  0  0  0  0  0
  157.3550  211.3360  156.1520 N   0  0  0  0  0  1  0  0  0  0  0  0
  159.7060  211.8890  156.5160 C   0  0  0  0  0  3  0  0  0  0  0  0
  158.7340  211.1140  155.8800 C   0  0  0  0  0  0  0  0  0  0  0  0
  161.0600  211.6730  156.2450 C   0  0  0  0  0  3  0  0  0  0  0  0
  161.9550  213.1690  146.3890 C   0  0  0  0  0  1  0  0  0  0  0  0
  161.1460  212.1050  147.1050 C   0  0  0  0  0  2  0  0  0  0  0  0
  1 27  1  0  0  0  0
  2 17  1  0  0  0  0
  2 22  1  0  0  0  0
  3 20  1  0  0  0  0
  4 37  1  6  0  0  0
  4  1  1  0  0  0  0
  4 12  1  0  0  0  0
  5 10  1  0  0  0  0
  6  9  1  0  0  0  0
  6 11  2  0  0  0  0
  7  3  1  0  0  0  0
  7 10  1  0  0  0  0
  9  3  2  0  0  0  0
 10 23  2  0  0  0  0
 11 16  1  0  0  0  0
 12  8  1  0  0  0  0
 13 21  2  0  0  0  0
 13  9  1  0  0  0  0
 14  2  1  0  0  0  0
 15 28  2  0  0  0  0
 16 20  2  0  0  0  0
 17 13  1  0  0  0  0
 18  8  1  6  0  0  0
 18 19  1  0  0  0  0
 18 25  1  0  0  0  0
 19  5  1  1  0  0  0
 19 25  1  0  0  0  0
 20 15  1  0  0  0  0
 21  7  1  0  0  0  0
 22  6  1  0  0  0  0
 23 28  1  0  0  0  0
 23 30  1  0  0  0  0
 24  2  1  0  0  0  0
 26  8  2  0  0  0  0
 27 21  1  0  0  0  0
 29 35  1  0  0  0  0
 30 31  1  0  0  0  0
 30 29  2  0  0  0  0
 31 34  2  0  0  0  0
 34 32  1  0  0  0  0
 34 33  1  0  0  0  0
 35 33  2  0  0  0  0
 36 37  1  0  0  0  0
M  END
>  <MODEL>
1

>  <REMARK>
 VINA RESULT:      -8.4      0.000      0.000
  Name = 
  2 active torsions:
  status: ('A' for Active; 'I' for Inactive)
    1  A    between atoms: C_4  and  C_37
    2  A    between atoms: C_23  and  C_30
                            x       y       z     vdW  Elec       q    Type
                         _______ _______ _______ _____ _____    ______ ____

>  <TORSDO>
F 2

$$$$
=
 OpenBabel11122413523D

 37 43  0  0  1  0  0  0  0  0999 V2000
  161.2310  210.5210  148.8800 O   0  0  0  0  0  0  0  0  0  0  0  0
  161.5560  205.8230  147.1640 C   0  0  0  0  0  0  0  0  0  0  0  0
  161.2080  206.7310  151.2320 C   0  0  0  0  0  0  0  0  0  0  0  0
  161.9280  211.6130  148.3340 C   0  0  2  0  0  3  0  0  0  0  0  0
  160.0080  210.1610  151.9170 C   0  0  0  0  0  2  0  0  0  0  0  0
  161.4180  204.9690  149.5730 C   0  0  0  0  0  0  0  0  0  0  0  0
  161.3070  208.0830  151.2770 N   0  0  0  0  0  0  0  0  0  0  0  0
  161.0340  213.2240  150.1070 C   0  0  0  0  0  0  0  0  0  0  0  0
  161.3700  206.2950  149.9510 C   0  0  0  0  0  0  0  0  0  0  0  0
  160.8310  208.9630  152.3270 C   0  0  0  0  0  0  0  0  0  0  0  0
  161.3090  204.0100  150.5920 C   0  0  0  0  0  3  0  0  0  0  0  0
  162.2430  212.6950  149.3830 C   0  0  0  0  0  2  0  0  0  0  0  0
  161.6200  207.3510  149.1500 C   0  0  0  0  0  0  0  0  0  0  0  0
  160.0810  205.9400  146.8170 C   0  0  0  0  0  1  0  0  0  0  0  0
  161.3630  206.1580  153.6760 C   0  0  0  0  0  3  0  0  0  0  0  0
  161.1890  204.4310  151.9370 C   0  0  0  0  0  3  0  0  0  0  0  0
  162.0600  207.1790  147.7270 C   0  0  0  0  0  2  0  0  0  0  0  0
  160.0910  212.3050  150.8200 C   0  0  1  0  0  3  0  0  0  0  0  0
  160.8310  211.4200  151.7500 C   0  0  1  0  0  3  0  0  0  0  0  0
  161.1580  205.8040  152.2760 C   0  0  0  0  0  0  0  0  0  0  0  0
  161.6220  208.4530  149.9920 C   0  0  0  0  0  0  0  0  0  0  0  0
  161.7590  204.6310  148.1430 C   0  0  0  0  0  2  0  0  0  0  0  0
  160.8930  208.6600  153.6510 C   0  0  0  0  0  0  0  0  0  0  0  0
  162.3150  205.5260  145.8890 C   0  0  0  0  0  1  0  0  0  0  0  0
  160.1130  212.5420  152.2060 O   0  0  0  0  0  0  0  0  0  0  0  0
  160.8140  214.4240  150.1010 O   0  0  0  0  0  0  0  0  0  0  0  0
  162.1790  209.7800  149.5920 C   0  0  0  0  0  2  0  0  0  0  0  0
  161.2790  207.3600  154.2340 C   0  0  0  0  0  3  0  0  0  0  0  0
  159.1360  209.9570  154.8650 C   0  0  0  0  0  3  0  0  0  0  0  0
  160.4920  209.6550  154.6700 C   0  0  0  0  0  0  0  0  0  0  0  0
  161.4570  210.2740  155.4770 C   0  0  0  0  0  3  0  0  0  0  0  0
  162.0590  211.8290  157.2610 N   0  0  0  0  0  1  0  0  0  0  0  0
  159.7220  211.5030  156.6330 C   0  0  0  0  0  3  0  0  0  0  0  0
  161.0740  211.1980  156.4520 C   0  0  0  0  0  0  0  0  0  0  0  0
  158.7530  210.8800  155.8420 C   0  0  0  0  0  3  0  0  0  0  0  0
  161.9790  213.2680  146.4730 C   0  0  0  0  0  1  0  0  0  0  0  0
  161.1520  212.2030  147.1690 C   0  0  0  0  0  2  0  0  0  0  0  0
  1 27  1  0  0  0  0
  2 17  1  0  0  0  0
  2 22  1  0  0  0  0
  3  7  1  0  0  0  0
  3 20  1  0  0  0  0
  4 37  1  6  0  0  0
  4  1  1  0  0  0  0
  4 12  1  0  0  0  0
  5 10  1  0  0  0  0
  6  9  1  0  0  0  0
  6 11  2  0  0  0  0
  7 10  1  0  0  0  0
  9  3  2  0  0  0  0
 10 23  2  0  0  0  0
 11 16  1  0  0  0  0
 12  8  1  0  0  0  0
 13  9  1  0  0  0  0
 13 21  2  0  0  0  0
 14  2  1  0  0  0  0
 15 28  2  0  0  0  0
 16 20  2  0  0  0  0
 17 13  1  0  0  0  0
 18  8  1  6  0  0  0
 18 19  1  0  0  0  0
 18 25  1  0  0  0  0
 19  5  1  1  0  0  0
 19 25  1  0  0  0  0
 20 15  1  0  0  0  0
 21  7  1  0  0  0  0
 22  6  1  0  0  0  0
 23 28  1  0  0  0  0
 23 30  1  0  0  0  0
 24  2  1  0  0  0  0
 26  8  2  0  0  0  0
 27 21  1  0  0  0  0
 29 35  1  0  0  0  0
 30 29  2  0  0  0  0
 30 31  1  0  0  0  0
 31 34  2  0  0  0  0
 34 33  1  0  0  0  0
 34 32  1  0  0  0  0
 35 33  2  0  0  0  0
 36 37  1  0  0  0  0
M  END
>  <MODEL>
2

>  <REMARK>
 VINA RESULT:      -8.2      0.829      1.147
  Name = 
  2 active torsions:
  status: ('A' for Active; 'I' for Inactive)
    1  A    between atoms: C_4  and  C_37
    2  A    between atoms: C_23  and  C_30
                            x       y       z     vdW  Elec       q    Type
                         _______ _______ _______ _____ _____    ______ ____

>  <TORSDO>
F 2

$$$$
