=
 OpenBabel11122412453D

 30 35  0  0  1  0  0  0  0  0999 V2000
  160.7320  211.8580  151.0730 C   0  0  2  0  0  3  0  0  0  0  0  0
  161.0190  213.6500  149.2680 C   0  0  0  0  0  0  0  0  0  0  0  0
  161.6090  209.0410  148.7050 N   0  0  0  0  0  2  0  0  0  0  0  0
  160.6530  210.3850  151.2780 N   0  0  2  0  0  0  0  0  0  0  0  0
  159.5310  212.4780  151.4600 O   0  0  0  0  0  0  0  0  0  0  0  0
  158.9430  210.8530  154.5960 O   0  0  0  0  0  1  0  0  0  0  0  0
  161.6770  208.1140  153.2870 C   0  0  2  0  0  3  0  0  0  0  0  0
  159.0800  210.9990  153.2110 C   0  0  1  0  0  3  0  0  0  0  0  0
  161.1110  207.6350  152.0290 N   0  0  2  0  0  0  0  0  0  0  0  0
  161.3820  207.9510  149.5800 C   0  0  0  0  0  0  0  0  0  0  0  0
  159.4760  212.4140  152.8520 C   0  0  2  0  0  3  0  0  0  0  0  0
  160.1290  210.0340  152.6390 C   0  0  2  0  0  3  0  0  0  0  0  0
  161.9710  214.1390  148.3170 N   0  0  0  0  0  0  0  0  0  0  0  0
  161.3280  206.1960  152.0880 C   0  0  0  0  0  2  0  0  0  0  0  0
  161.3640  207.0770  154.3340 C   0  0  0  0  0  2  0  0  0  0  0  0
  160.1880  214.4530  149.7680 O   0  0  0  0  0  0  0  0  0  0  0  0
  162.3540  210.0120  149.4890 C   0  0  2  0  0  3  0  0  0  0  0  0
  162.8850  213.3750  147.8040 C   0  0  0  0  0  3  0  0  0  0  0  0
  160.9410  212.1680  149.5800 C   0  0  1  0  0  3  0  0  0  0  0  0
  161.9720  209.7550  150.9560 C   0  0  2  0  0  3  0  0  0  0  0  0
  160.8380  206.8780  149.2060 O   0  0  0  0  0  0  0  0  0  0  0  0
  161.9140  208.2060  150.9470 C   0  0  1  0  0  3  0  0  0  0  0  0
  161.2640  205.7870  153.5500 C   0  0  0  0  0  2  0  0  0  0  0  0
  162.1910  210.3950  153.8580 O   0  0  0  0  0  1  0  0  0  0  0  0
  163.0010  211.9650  148.2030 C   0  0  0  0  0  3  0  0  0  0  0  0
  162.1300  211.4140  149.0500 C   0  0  0  0  0  0  0  0  0  0  0  0
  161.1400  209.4950  153.6710 C   0  0  2  0  0  3  0  0  0  0  0  0
  158.4380  213.4010  153.3600 C   0  0  0  0  0  2  0  0  0  0  0  0
  156.1360  214.0900  152.7700 C   0  0  0  0  0  1  0  0  0  0  0  0
  157.5240  213.8250  152.2260 C   0  0  0  0  0  2  0  0  0  0  0  0
  1  4  1  0  0  0  0
  1  5  1  6  0  0  0
  2 19  1  0  0  0  0
  2 16  2  0  0  0  0
  3 17  1  0  0  0  0
  3 10  1  0  0  0  0
  4 12  1  0  0  0  0
  5 11  1  0  0  0  0
  7 27  1  0  0  0  0
  7 15  1  0  0  0  0
  8  6  1  0  0  0  0
  9 14  1  0  0  0  0
  9  7  1  0  0  0  0
 10 22  1  0  0  0  0
 11  8  1  0  0  0  0
 11 28  1  0  0  0  0
 12  8  1  0  0  0  0
 12 27  1  0  0  0  0
 13  2  1  0  0  0  0
 14 23  1  0  0  0  0
 17 20  1  0  0  0  0
 18 25  1  0  0  0  0
 18 13  2  0  0  0  0
 19  1  1  0  0  0  0
 20  4  1  0  0  0  0
 21 10  2  0  0  0  0
 22 20  1  0  0  0  0
 22  9  1  0  0  0  0
 23 15  1  0  0  0  0
 25 26  2  0  0  0  0
 26 17  1  0  0  0  0
 26 19  1  0  0  0  0
 27 24  1  0  0  0  0
 30 29  1  0  0  0  0
 30 28  1  0  0  0  0
M  END
>  <MODEL>
1

>  <REMARK>
 VINA RESULT:      -6.3      0.000      0.000
  Name = 
  2 active torsions:
  status: ('A' for Active; 'I' for Inactive)
    1  A    between atoms: C_11  and  C_28
    2  A    between atoms: C_28  and  C_30
                            x       y       z     vdW  Elec       q    Type
                         _______ _______ _______ _____ _____    ______ ____

>  <TORSDO>
F 2

$$$$
=
 OpenBabel11122412453D

 30 35  0  0  1  0  0  0  0  0999 V2000
  160.9820  208.7270  153.2110 C   0  0  2  0  0  3  0  0  0  0  0  0
  160.4060  207.8940  155.5630 C   0  0  0  0  0  0  0  0  0  0  0  0
  158.7200  211.7450  153.5050 N   0  0  0  0  0  2  0  0  0  0  0  0
  160.5830  209.7190  152.1760 N   0  0  2  0  0  0  0  0  0  0  0  0
  160.8140  207.4150  152.7340 O   0  0  0  0  0  0  0  0  0  0  0  0
  162.2800  207.7160  149.4820 O   0  0  0  0  0  1  0  0  0  0  0  0
  161.8830  211.7400  150.0620 C   0  0  2  0  0  3  0  0  0  0  0  0
  161.3650  207.9200  150.5210 C   0  0  1  0  0  3  0  0  0  0  0  0
  160.4530  211.9140  150.3050 N   0  0  2  0  0  0  0  0  0  0  0  0
  158.8740  212.2530  152.1920 C   0  0  0  0  0  0  0  0  0  0  0  0
  161.8080  207.2050  151.7790 C   0  0  2  0  0  3  0  0  0  0  0  0
  161.1900  209.4120  150.8390 C   0  0  2  0  0  3  0  0  0  0  0  0
  160.3950  208.3190  156.9300 N   0  0  0  0  0  0  0  0  0  0  0  0
  160.1220  213.1020  149.5290 C   0  0  0  0  0  2  0  0  0  0  0  0
  162.1350  212.1240  148.6270 C   0  0  0  0  0  2  0  0  0  0  0  0
  160.5930  206.6760  155.3040 O   0  0  0  0  0  0  0  0  0  0  0  0
  160.0630  211.4040  153.9430 C   0  0  2  0  0  3  0  0  0  0  0  0
  160.2580  209.5650  157.2610 C   0  0  0  0  0  3  0  0  0  0  0  0
  160.0850  208.8760  154.4530 C   0  0  1  0  0  3  0  0  0  0  0  0
  160.8630  211.1060  152.6650 C   0  0  2  0  0  3  0  0  0  0  0  0
  157.9160  212.7360  151.5320 O   0  0  0  0  0  0  0  0  0  0  0  0
  160.2880  212.2020  151.7310 C   0  0  1  0  0  3  0  0  0  0  0  0
  161.0440  213.1250  148.3210 C   0  0  0  0  0  2  0  0  0  0  0  0
  163.3890  210.3220  151.2910 O   0  0  0  0  0  1  0  0  0  0  0  0
  160.1350  210.6100  156.2350 C   0  0  0  0  0  3  0  0  0  0  0  0
  160.0920  210.3010  154.9370 C   0  0  0  0  0  0  0  0  0  0  0  0
  162.3480  210.3130  150.3620 C   0  0  2  0  0  3  0  0  0  0  0  0
  161.9480  205.7130  151.5210 C   0  0  0  0  0  2  0  0  0  0  0  0
  160.8190  203.5700  152.0250 C   0  0  0  0  0  1  0  0  0  0  0  0
  161.1960  204.9290  152.5780 C   0  0  0  0  0  2  0  0  0  0  0  0
  1  5  1  6  0  0  0
  1 19  1  0  0  0  0
  2 13  1  0  0  0  0
  3 17  1  0  0  0  0
  4 20  1  0  0  0  0
  4  1  1  0  0  0  0
  6  8  1  0  0  0  0
  7  9  1  0  0  0  0
  7 27  1  0  0  0  0
  8 12  1  0  0  0  0
  8 11  1  0  0  0  0
  9 22  1  0  0  0  0
 10  3  1  0  0  0  0
 11  5  1  0  0  0  0
 12  4  1  0  0  0  0
 13 18  2  0  0  0  0
 14  9  1  0  0  0  0
 15  7  1  0  0  0  0
 16  2  2  0  0  0  0
 17 26  1  0  0  0  0
 19 26  1  0  0  0  0
 19  2  1  0  0  0  0
 20 17  1  0  0  0  0
 21 10  2  0  0  0  0
 22 10  1  0  0  0  0
 22 20  1  0  0  0  0
 23 15  1  0  0  0  0
 23 14  1  0  0  0  0
 25 18  1  0  0  0  0
 26 25  2  0  0  0  0
 27 12  1  0  0  0  0
 27 24  1  0  0  0  0
 28 11  1  0  0  0  0
 28 30  1  0  0  0  0
 29 30  1  0  0  0  0
M  END
>  <MODEL>
2

>  <REMARK>
 VINA RESULT:      -5.3      2.148      6.883
  Name = 
  2 active torsions:
  status: ('A' for Active; 'I' for Inactive)
    1  A    between atoms: C_11  and  C_28
    2  A    between atoms: C_28  and  C_30
                            x       y       z     vdW  Elec       q    Type
                         _______ _______ _______ _____ _____    ______ ____

>  <TORSDO>
F 2

$$$$
=
 OpenBabel11122412453D

 30 35  0  0  1  0  0  0  0  0999 V2000
  161.1660  204.8280  149.3760 C   0  0  2  0  0  3  0  0  0  0  0  0
  160.7990  202.3110  149.0840 C   0  0  0  0  0  0  0  0  0  0  0  0
  160.4920  204.7020  153.0970 N   0  0  0  0  0  2  0  0  0  0  0  0
  161.0130  205.9410  150.3520 N   0  0  2  0  0  0  0  0  0  0  0  0
  160.3680  205.0500  148.2400 O   0  0  0  0  0  0  0  0  0  0  0  0
  161.1120  208.4900  147.5880 O   0  0  0  0  0  1  0  0  0  0  0  0
  162.5670  208.5330  151.4040 C   0  0  2  0  0  3  0  0  0  0  0  0
  160.6060  207.3730  148.2610 C   0  0  1  0  0  3  0  0  0  0  0  0
  161.4270  208.1100  152.2130 N   0  0  2  0  0  0  0  0  0  0  0  0
  160.5670  206.0890  153.3720 C   0  0  0  0  0  0  0  0  0  0  0  0
  160.9600  206.0950  147.5320 C   0  0  2  0  0  3  0  0  0  0  0  0
  161.1430  207.2850  149.6980 C   0  0  2  0  0  3  0  0  0  0  0  0
  161.2510  201.0480  149.5830 N   0  0  0  0  0  0  0  0  0  0  0  0
  161.4700  209.0140  153.3550 C   0  0  0  0  0  2  0  0  0  0  0  0
  162.6520  210.0340  151.5160 C   0  0  0  0  0  2  0  0  0  0  0  0
  160.4000  202.3890  147.8920 O   0  0  0  0  0  0  0  0  0  0  0  0
  161.6280  204.4210  152.2350 C   0  0  2  0  0  3  0  0  0  0  0  0
  161.7220  200.9120  150.7840 C   0  0  0  0  0  3  0  0  0  0  0  0
  160.6940  203.5070  150.0100 C   0  0  1  0  0  3  0  0  0  0  0  0
  161.9430  205.7380  151.5070 C   0  0  2  0  0  3  0  0  0  0  0  0
  159.7850  206.6680  154.1720 O   0  0  0  0  0  0  0  0  0  0  0  0
  161.6990  206.7430  152.6620 C   0  0  1  0  0  3  0  0  0  0  0  0
  162.0430  210.3340  152.8670 C   0  0  0  0  0  2  0  0  0  0  0  0
  163.5610  207.3280  149.5740 O   0  0  0  0  0  1  0  0  0  0  0  0
  161.8370  202.0670  151.6850 C   0  0  0  0  0  3  0  0  0  0  0  0
  161.3980  203.2730  151.3200 C   0  0  0  0  0  0  0  0  0  0  0  0
  162.4440  208.0740  149.9490 C   0  0  2  0  0  3  0  0  0  0  0  0
  160.4050  206.1200  146.1170 C   0  0  0  0  0  2  0  0  0  0  0  0
  162.6330  205.1210  145.7170 C   0  0  0  0  0  1  0  0  0  0  0  0
  161.2000  205.1840  145.2290 C   0  0  0  0  0  2  0  0  0  0  0  0
  1  5  1  6  0  0  0
  1 19  1  0  0  0  0
  1  4  1  0  0  0  0
  2 13  1  0  0  0  0
  2 19  1  0  0  0  0
  3 10  1  0  0  0  0
  4 20  1  0  0  0  0
  6  8  1  0  0  0  0
  7 15  1  0  0  0  0
  7  9  1  0  0  0  0
  8 12  1  0  0  0  0
  9 22  1  0  0  0  0
  9 14  1  0  0  0  0
 10 21  2  0  0  0  0
 11  5  1  0  0  0  0
 11  8  1  0  0  0  0
 12 27  1  0  0  0  0
 12  4  1  0  0  0  0
 13 18  2  0  0  0  0
 15 23  1  0  0  0  0
 16  2  2  0  0  0  0
 17  3  1  0  0  0  0
 18 25  1  0  0  0  0
 19 26  1  0  0  0  0
 20 17  1  0  0  0  0
 20 22  1  0  0  0  0
 22 10  1  0  0  0  0
 23 14  1  0  0  0  0
 24 27  1  0  0  0  0
 26 25  2  0  0  0  0
 26 17  1  0  0  0  0
 27  7  1  0  0  0  0
 28 11  1  0  0  0  0
 30 29  1  0  0  0  0
 30 28  1  0  0  0  0
M  END
>  <MODEL>
3

>  <REMARK>
 VINA RESULT:      -4.3      3.722      7.889
  Name = 
  2 active torsions:
  status: ('A' for Active; 'I' for Inactive)
    1  A    between atoms: C_11  and  C_28
    2  A    between atoms: C_28  and  C_30
                            x       y       z     vdW  Elec       q    Type
                         _______ _______ _______ _____ _____    ______ ____

>  <TORSDO>
F 2

$$$$
=
 OpenBabel11122412453D

 30 35  0  0  1  0  0  0  0  0999 V2000
  159.0020  212.5020  152.9770 C   0  0  2  0  0  3  0  0  0  0  0  0
  158.8010  213.8050  150.7820 C   0  0  0  0  0  0  0  0  0  0  0  0
  160.7290  209.5730  151.3190 N   0  0  0  0  0  2  0  0  0  0  0  0
  159.3530  211.1670  153.5330 N   0  0  2  0  0  0  0  0  0  0  0  0
  157.6620  212.8220  153.2590 O   0  0  0  0  0  0  0  0  0  0  0  0
  157.4920  211.9120  156.7170 O   0  0  0  0  0  1  0  0  0  0  0  0
  160.9420  209.8530  155.9810 C   0  0  2  0  0  3  0  0  0  0  0  0
  157.6170  211.7490  155.3330 C   0  0  1  0  0  3  0  0  0  0  0  0
  160.5750  208.9390  154.9030 N   0  0  2  0  0  0  0  0  0  0  0  0
  160.8090  208.7120  152.4400 C   0  0  0  0  0  0  0  0  0  0  0  0
  157.5910  213.0870  154.6260 C   0  0  2  0  0  3  0  0  0  0  0  0
  158.9180  211.0210  154.9620 C   0  0  2  0  0  3  0  0  0  0  0  0
  159.5930  214.3020  149.6970 N   0  0  0  0  0  0  0  0  0  0  0  0
  161.2030  207.6850  155.2970 C   0  0  0  0  0  2  0  0  0  0  0  0
  160.9180  209.0570  157.2600 C   0  0  0  0  0  2  0  0  0  0  0  0
  157.7570  214.4280  151.1110 O   0  0  0  0  0  0  0  0  0  0  0  0
  161.1350  210.8800  151.8100 C   0  0  2  0  0  3  0  0  0  0  0  0
  160.7040  213.7350  149.3430 C   0  0  0  0  0  3  0  0  0  0  0  0
  159.1510  212.4870  151.4450 C   0  0  1  0  0  3  0  0  0  0  0  0
  160.8060  210.8890  153.3120 C   0  0  2  0  0  3  0  0  0  0  0  0
  160.6130  207.4710  152.3610 O   0  0  0  0  0  0  0  0  0  0  0  0
  161.2050  209.4360  153.6790 C   0  0  1  0  0  3  0  0  0  0  0  0
  161.2210  207.6440  156.8160 C   0  0  0  0  0  2  0  0  0  0  0  0
  160.7500  212.2510  155.9620 O   0  0  0  0  0  1  0  0  0  0  0  0
  161.2170  212.5610  150.0630 C   0  0  0  0  0  3  0  0  0  0  0  0
  160.5230  212.0040  151.0570 C   0  0  0  0  0  0  0  0  0  0  0  0
  160.0140  211.0690  156.0460 C   0  0  2  0  0  3  0  0  0  0  0  0
  156.2960  213.8220  154.9280 C   0  0  0  0  0  2  0  0  0  0  0  0
  154.2820  214.4140  153.6180 C   0  0  0  0  0  1  0  0  0  0  0  0
  155.1730  213.2750  154.0680 C   0  0  0  0  0  2  0  0  0  0  0  0
  1  5  1  6  0  0  0
  1  4  1  0  0  0  0
  2 16  2  0  0  0  0
  2 19  1  0  0  0  0
  3 17  1  0  0  0  0
  3 10  1  0  0  0  0
  4 12  1  0  0  0  0
  5 11  1  0  0  0  0
  7 27  1  0  0  0  0
  7 15  1  0  0  0  0
  8  6  1  0  0  0  0
  9 14  1  0  0  0  0
  9  7  1  0  0  0  0
 10 22  1  0  0  0  0
 11 28  1  0  0  0  0
 11  8  1  0  0  0  0
 12  8  1  0  0  0  0
 12 27  1  0  0  0  0
 13  2  1  0  0  0  0
 14 23  1  0  0  0  0
 17 20  1  0  0  0  0
 18 13  2  0  0  0  0
 18 25  1  0  0  0  0
 19  1  1  0  0  0  0
 20  4  1  0  0  0  0
 20 22  1  0  0  0  0
 21 10  2  0  0  0  0
 22  9  1  0  0  0  0
 23 15  1  0  0  0  0
 24 27  1  0  0  0  0
 25 26  2  0  0  0  0
 26 19  1  0  0  0  0
 26 17  1  0  0  0  0
 29 30  1  0  0  0  0
 30 28  1  0  0  0  0
M  END
>  <MODEL>
4

>  <REMARK>
 VINA RESULT:      -4.3      2.135      2.914
  Name = 
  2 active torsions:
  status: ('A' for Active; 'I' for Inactive)
    1  A    between atoms: C_11  and  C_28
    2  A    between atoms: C_28  and  C_30
                            x       y       z     vdW  Elec       q    Type
                         _______ _______ _______ _____ _____    ______ ____

>  <TORSDO>
F 2

$$$$
=
 OpenBabel11122412453D

 30 35  0  0  1  0  0  0  0  0999 V2000
  159.8540  211.9540  151.9150 C   0  0  2  0  0  3  0  0  0  0  0  0
  158.5110  213.7460  150.6750 C   0  0  0  0  0  0  0  0  0  0  0  0
  159.2370  213.5380  155.2950 N   0  0  0  0  0  2  0  0  0  0  0  0
  160.4400  211.6200  153.2420 N   0  0  2  0  0  0  0  0  0  0  0  0
  160.8630  212.0740  150.9420 O   0  0  0  0  0  0  0  0  0  0  0  0
  162.8150  209.1620  151.6690 O   0  0  0  0  0  1  0  0  0  0  0  0
  160.8040  209.1340  155.2240 C   0  0  2  0  0  3  0  0  0  0  0  0
  162.2410  210.4250  151.8560 C   0  0  1  0  0  3  0  0  0  0  0  0
  161.0960  210.4450  155.7960 N   0  0  2  0  0  0  0  0  0  0  0  0
  160.0350  212.6730  156.0820 C   0  0  0  0  0  0  0  0  0  0  0  0
  161.3390  210.7870  150.6960 C   0  0  2  0  0  3  0  0  0  0  0  0
  161.4220  210.4890  153.1540 C   0  0  2  0  0  3  0  0  0  0  0  0
  157.2200  214.3650  150.6550 N   0  0  0  0  0  0  0  0  0  0  0  0
  161.3610  210.1490  157.1980 C   0  0  0  0  0  2  0  0  0  0  0  0
  161.7150  208.1440  155.9040 C   0  0  0  0  0  2  0  0  0  0  0  0
  159.1610  213.6560  149.6000 O   0  0  0  0  0  0  0  0  0  0  0  0
  158.4930  212.6650  154.4020 C   0  0  2  0  0  3  0  0  0  0  0  0
  156.4790  214.4420  151.7170 C   0  0  0  0  0  3  0  0  0  0  0  0
  159.1320  213.3100  151.9880 C   0  0  1  0  0  3  0  0  0  0  0  0
  159.3470  211.3970  154.2400 C   0  0  2  0  0  3  0  0  0  0  0  0
  160.7500  213.0840  157.0350 O   0  0  0  0  0  0  0  0  0  0  0  0
  159.8760  211.2460  155.6890 C   0  0  1  0  0  3  0  0  0  0  0  0
  161.9750  208.7610  157.2610 C   0  0  0  0  0  2  0  0  0  0  0  0
  159.8020  208.6890  153.0820 O   0  0  0  0  0  1  0  0  0  0  0  0
  156.9260  213.8690  152.9940 C   0  0  0  0  0  3  0  0  0  0  0  0
  158.1340  213.3120  153.1150 C   0  0  0  0  0  0  0  0  0  0  0  0
  160.9760  209.1180  153.7030 C   0  0  2  0  0  3  0  0  0  0  0  0
  162.1220  210.7820  149.3940 C   0  0  0  0  0  2  0  0  0  0  0  0
  163.1020  212.4990  147.9060 C   0  0  0  0  0  1  0  0  0  0  0  0
  161.8390  212.0500  148.6110 C   0  0  0  0  0  2  0  0  0  0  0  0
  1  5  1  6  0  0  0
  1 19  1  0  0  0  0
  1  4  1  0  0  0  0
  2 19  1  0  0  0  0
  3 10  1  0  0  0  0
  4 20  1  0  0  0  0
  6  8  1  0  0  0  0
  7  9  1  0  0  0  0
  7 15  1  0  0  0  0
  8 12  1  0  0  0  0
  9 14  1  0  0  0  0
 10 21  2  0  0  0  0
 11  5  1  0  0  0  0
 11  8  1  0  0  0  0
 12  4  1  0  0  0  0
 12 27  1  0  0  0  0
 13  2  1  0  0  0  0
 13 18  2  0  0  0  0
 14 23  1  0  0  0  0
 15 23  1  0  0  0  0
 16  2  2  0  0  0  0
 17  3  1  0  0  0  0
 18 25  1  0  0  0  0
 19 26  1  0  0  0  0
 20 17  1  0  0  0  0
 20 22  1  0  0  0  0
 22  9  1  0  0  0  0
 22 10  1  0  0  0  0
 24 27  1  0  0  0  0
 25 26  2  0  0  0  0
 26 17  1  0  0  0  0
 27  7  1  0  0  0  0
 28 11  1  0  0  0  0
 29 30  1  0  0  0  0
 30 28  1  0  0  0  0
M  END
>  <MODEL>
5

>  <REMARK>
 VINA RESULT:      -4.3      2.453      5.339
  Name = 
  2 active torsions:
  status: ('A' for Active; 'I' for Inactive)
    1  A    between atoms: C_11  and  C_28
    2  A    between atoms: C_28  and  C_30
                            x       y       z     vdW  Elec       q    Type
                         _______ _______ _______ _____ _____    ______ ____

>  <TORSDO>
F 2

$$$$
=
 OpenBabel11122412453D

 30 35  0  0  1  0  0  0  0  0999 V2000
  161.4980  207.7660  151.0420 C   0  0  2  0  0  3  0  0  0  0  0  0
  161.5060  209.2110  153.1550 C   0  0  0  0  0  0  0  0  0  0  0  0
  161.7900  204.5410  152.9990 N   0  0  0  0  0  2  0  0  0  0  0  0
  161.7250  206.3780  150.5560 N   0  0  2  0  0  0  0  0  0  0  0  0
  162.4240  208.6530  150.4640 O   0  0  0  0  0  0  0  0  0  0  0  0
  162.2760  207.6060  147.0440 O   0  0  0  0  0  1  0  0  0  0  0  0
  160.4890  204.2420  148.5190 C   0  0  2  0  0  3  0  0  0  0  0  0
  162.5410  207.5360  148.4160 C   0  0  1  0  0  3  0  0  0  0  0  0
  161.4700  203.7170  149.4650 N   0  0  2  0  0  0  0  0  0  0  0  0
  161.9010  203.6430  151.9100 C   0  0  0  0  0  0  0  0  0  0  0  0
  162.0680  208.7880  149.1230 C   0  0  2  0  0  3  0  0  0  0  0  0
  161.8630  206.3190  149.0640 C   0  0  2  0  0  3  0  0  0  0  0  0
  160.8220  209.3760  154.4020 N   0  0  0  0  0  0  0  0  0  0  0  0
  161.4570  202.2840  149.2030 C   0  0  0  0  0  2  0  0  0  0  0  0
  160.6230  203.4340  147.2530 C   0  0  0  0  0  2  0  0  0  0  0  0
  162.0230  210.2190  152.6050 O   0  0  0  0  0  0  0  0  0  0  0  0
  160.7120  205.4470  152.6390 C   0  0  2  0  0  3  0  0  0  0  0  0
  160.2250  208.3880  154.9940 C   0  0  0  0  0  3  0  0  0  0  0  0
  161.7030  207.8280  152.5660 C   0  0  1  0  0  3  0  0  0  0  0  0
  160.6700  205.4680  151.1030 C   0  0  2  0  0  3  0  0  0  0  0  0
  162.6820  202.6550  151.9190 O   0  0  0  0  0  0  0  0  0  0  0  0
  160.9530  203.9720  150.8100 C   0  0  1  0  0  3  0  0  0  0  0  0
  161.1400  202.0950  147.7290 C   0  0  0  0  0  2  0  0  0  0  0  0
  159.5020  206.4360  148.5380 O   0  0  0  0  0  1  0  0  0  0  0  0
  160.2020  207.0490  154.3900 C   0  0  0  0  0  3  0  0  0  0  0  0
  160.8500  206.7940  153.2510 C   0  0  0  0  0  0  0  0  0  0  0  0
  160.6790  205.7390  148.2640 C   0  0  2  0  0  3  0  0  0  0  0  0
  162.7510  210.0150  148.5430 C   0  0  0  0  0  2  0  0  0  0  0  0
  162.5130  212.4500  148.1750 C   0  0  0  0  0  1  0  0  0  0  0  0
  162.0400  211.2730  149.0020 C   0  0  0  0  0  2  0  0  0  0  0  0
  1  5  1  6  0  0  0
  1 19  1  0  0  0  0
  2 13  1  0  0  0  0
  4  1  1  0  0  0  0
  4 20  1  0  0  0  0
  6  8  1  0  0  0  0
  7  9  1  0  0  0  0
  8 12  1  0  0  0  0
  8 11  1  0  0  0  0
  9 22  1  0  0  0  0
 10 21  2  0  0  0  0
 10  3  1  0  0  0  0
 11  5  1  0  0  0  0
 12  4  1  0  0  0  0
 13 18  2  0  0  0  0
 14  9  1  0  0  0  0
 15 23  1  0  0  0  0
 15  7  1  0  0  0  0
 16  2  2  0  0  0  0
 17  3  1  0  0  0  0
 17 26  1  0  0  0  0
 19  2  1  0  0  0  0
 19 26  1  0  0  0  0
 20 17  1  0  0  0  0
 22 20  1  0  0  0  0
 22 10  1  0  0  0  0
 23 14  1  0  0  0  0
 25 18  1  0  0  0  0
 26 25  2  0  0  0  0
 27  7  1  0  0  0  0
 27 24  1  0  0  0  0
 27 12  1  0  0  0  0
 28 30  1  0  0  0  0
 28 11  1  0  0  0  0
 29 30  1  0  0  0  0
M  END
>  <MODEL>
6

>  <REMARK>
 VINA RESULT:      -3.9      3.251      6.342
  Name = 
  2 active torsions:
  status: ('A' for Active; 'I' for Inactive)
    1  A    between atoms: C_11  and  C_28
    2  A    between atoms: C_28  and  C_30
                            x       y       z     vdW  Elec       q    Type
                         _______ _______ _______ _____ _____    ______ ____

>  <TORSDO>
F 2

$$$$
