=
 OpenBabel11122413273D

 31 35  0  0  1  0  0  0  0  0999 V2000
  160.8630  206.3260  146.4450 C   0  0  0  0  0  0  0  0  0  0  0  0
  160.2320  204.9870  149.9480 C   0  0  2  0  0  3  0  0  0  0  0  0
  160.7010  203.5370  149.9530 C   0  0  0  0  0  0  0  0  0  0  0  0
  161.3440  201.5120  148.7650 C   0  0  0  0  0  0  0  0  0  0  0  0
  160.8230  205.7930  148.8140 C   0  0  0  0  0  0  0  0  0  0  0  0
  161.9500  207.1790  146.6500 C   0  0  0  0  0  3  0  0  0  0  0  0
  160.9460  202.8510  148.7520 C   0  0  0  0  0  3  0  0  0  0  0  0
  161.9730  205.9930  151.4680 C   0  0  2  0  0  3  0  0  0  0  0  0
  160.3430  206.1600  145.1690 O   0  0  0  0  0  1  0  0  0  0  0  0
  160.5410  203.4930  152.4110 N   0  0  0  0  0  2  0  0  0  0  0  0
  161.6130  200.8050  147.4860 C   0  0  0  0  0  1  0  0  0  0  0  0
  162.4290  206.9840  150.3960 C   0  0  0  0  0  2  0  0  0  0  0  0
  160.4790  205.6840  151.3020 C   0  0  2  0  0  3  0  0  0  0  0  0
  160.3020  205.6370  147.5230 C   0  0  0  0  0  3  0  0  0  0  0  0
  161.4900  200.8380  149.9790 C   0  0  0  0  0  3  0  0  0  0  0  0
  161.9200  206.6600  149.0210 C   0  0  0  0  0  0  0  0  0  0  0  0
  162.4700  207.3510  147.9350 C   0  0  0  0  0  3  0  0  0  0  0  0
  159.9360  204.8200  152.4420 C   0  0  0  0  0  2  0  0  0  0  0  0
  160.8150  202.8350  151.1720 C   0  0  0  0  0  0  0  0  0  0  0  0
  161.2240  201.4990  151.1810 C   0  0  0  0  0  3  0  0  0  0  0  0
  160.5880  208.2020  152.6200 O   0  0  0  0  0  0  0  0  0  0  0  0
  161.4970  207.6610  153.3070 C   0  0  0  0  0  0  0  0  0  0  0  0
  162.2340  206.5540  152.7870 N   0  0  0  0  0  2  0  0  0  0  0  0
  159.5050  209.5250  155.7360 C   0  0  0  0  0  0  0  0  0  0  0  0
  160.9770  207.5220  155.7690 C   0  0  0  0  0  2  0  0  0  0  0  0
  162.6590  210.4000  153.7590 C   0  0  0  0  0  1  0  0  0  0  0  0
  158.7510  210.1370  156.4740 O   0  0  0  0  0  0  0  0  0  0  0  0
  159.5320  208.0280  155.7560 C   0  0  0  0  0  2  0  0  0  0  0  0
  161.7860  209.7160  154.7980 C   0  0  2  0  0  3  0  0  0  0  0  0
  161.8320  208.1790  154.6770 C   0  0  2  0  0  3  0  0  0  0  0  0
  160.3600  210.2620  154.7510 C   0  0  0  0  0  2  0  0  0  0  0  0
  1  6  2  0  0  0  0
  1 14  1  0  0  0  0
  2  5  1  6  0  0  0
  2  3  1  0  0  0  0
  2 13  1  0  0  0  0
  3 19  1  0  0  0  0
  4 15  2  0  0  0  0
  5 16  1  0  0  0  0
  6 17  1  0  0  0  0
  7  4  1  0  0  0  0
  7  3  2  0  0  0  0
  8 23  1  1  0  0  0
  9  1  1  0  0  0  0
 10 18  1  0  0  0  0
 11  4  1  0  0  0  0
 12  8  1  0  0  0  0
 13  8  1  0  0  0  0
 13 18  1  1  0  0  0
 14  5  2  0  0  0  0
 15 20  1  0  0  0  0
 16 12  1  0  0  0  0
 17 16  2  0  0  0  0
 19 20  2  0  0  0  0
 19 10  1  0  0  0  0
 21 22  2  0  0  0  0
 23 22  1  0  0  0  0
 24 28  1  0  0  0  0
 24 27  2  0  0  0  0
 28 25  1  0  0  0  0
 29 26  1  6  0  0  0
 30 22  1  6  0  0  0
 30 29  1  0  0  0  0
 30 25  1  0  0  0  0
 31 29  1  0  0  0  0
 31 24  1  0  0  0  0
M  END
>  <MODEL>
1

>  <REMARK>
 VINA RESULT:      -5.9      0.000      0.000
  Name = 
  2 active torsions:
  status: ('A' for Active; 'I' for Inactive)
    1  A    between atoms: C_5  and  C_30
    2  A    between atoms: C_10  and  N_16
                            x       y       z     vdW  Elec       q    Type
                         _______ _______ _______ _____ _____    ______ ____

>  <TORSDO>
F 2

$$$$
=
 OpenBabel11122413273D

 31 35  0  0  1  0  0  0  0  0999 V2000
  162.2130  213.7310  147.4690 C   0  0  0  0  0  0  0  0  0  0  0  0
  159.7030  214.3620  150.2550 C   0  0  2  0  0  3  0  0  0  0  0  0
  158.3190  214.3010  149.6190 C   0  0  0  0  0  0  0  0  0  0  0  0
  156.8860  214.3430  147.6510 C   0  0  0  0  0  0  0  0  0  0  0  0
  160.7660  213.6860  149.4190 C   0  0  0  0  0  0  0  0  0  0  0  0
  162.6580  212.4400  147.7640 C   0  0  0  0  0  3  0  0  0  0  0  0
  158.1590  214.3650  148.2240 C   0  0  0  0  0  3  0  0  0  0  0  0
  159.6010  212.2790  151.6700 C   0  0  2  0  0  3  0  0  0  0  0  0
  162.7040  214.3950  146.3540 O   0  0  0  0  0  1  0  0  0  0  0  0
  157.2930  214.2330  151.8570 N   0  0  0  0  0  2  0  0  0  0  0  0
  156.7360  214.3970  146.1740 C   0  0  0  0  0  1  0  0  0  0  0  0
  160.8300  211.6760  150.9860 C   0  0  0  0  0  2  0  0  0  0  0  0
  159.7070  213.8090  151.6950 C   0  0  2  0  0  3  0  0  0  0  0  0
  161.2720  214.3510  148.2930 C   0  0  0  0  0  3  0  0  0  0  0  0
  155.7540  214.2690  148.4660 C   0  0  0  0  0  3  0  0  0  0  0  0
  161.2200  212.3820  149.7180 C   0  0  0  0  0  0  0  0  0  0  0  0
  162.1690  211.7730  148.8900 C   0  0  0  0  0  3  0  0  0  0  0  0
  158.5800  214.4530  152.5060 C   0  0  0  0  0  2  0  0  0  0  0  0
  157.1670  214.2650  150.4330 C   0  0  0  0  0  0  0  0  0  0  0  0
  155.8960  214.2310  149.8550 C   0  0  0  0  0  3  0  0  0  0  0  0
  160.0810  209.5720  152.4250 O   0  0  0  0  0  0  0  0  0  0  0  0
  159.7560  210.3840  153.3360 C   0  0  0  0  0  0  0  0  0  0  0  0
  159.4960  211.7520  153.0240 N   0  0  0  0  0  2  0  0  0  0  0  0
  161.8180  211.0200  156.2830 C   0  0  0  0  0  0  0  0  0  0  0  0
  159.3960  211.0910  155.7270 C   0  0  0  0  0  2  0  0  0  0  0  0
  161.0070  207.8340  154.3330 C   0  0  0  0  0  1  0  0  0  0  0  0
  162.5700  211.3030  157.2010 O   0  0  0  0  0  0  0  0  0  0  0  0
  160.6670  211.9170  155.9460 C   0  0  0  0  0  2  0  0  0  0  0  0
  160.7830  209.0290  155.2440 C   0  0  2  0  0  3  0  0  0  0  0  0
  159.6230  209.9220  154.7590 C   0  0  2  0  0  3  0  0  0  0  0  0
  162.0810  209.8120  155.4370 C   0  0  0  0  0  2  0  0  0  0  0  0
  1  6  2  0  0  0  0
  1 14  1  0  0  0  0
  2  5  1  6  0  0  0
  2 13  1  0  0  0  0
  3  2  1  0  0  0  0
  3 19  1  0  0  0  0
  4  7  1  0  0  0  0
  4 15  2  0  0  0  0
  5 16  1  0  0  0  0
  6 17  1  0  0  0  0
  7  3  2  0  0  0  0
  8 13  1  0  0  0  0
  8 23  1  1  0  0  0
  9  1  1  0  0  0  0
 10 18  1  0  0  0  0
 11  4  1  0  0  0  0
 12  8  1  0  0  0  0
 13 18  1  1  0  0  0
 14  5  2  0  0  0  0
 15 20  1  0  0  0  0
 16 12  1  0  0  0  0
 17 16  2  0  0  0  0
 19 10  1  0  0  0  0
 20 19  2  0  0  0  0
 21 22  2  0  0  0  0
 23 22  1  0  0  0  0
 24 27  2  0  0  0  0
 25 28  1  0  0  0  0
 28 24  1  0  0  0  0
 29 26  1  6  0  0  0
 29 31  1  0  0  0  0
 30 22  1  6  0  0  0
 30 29  1  0  0  0  0
 30 25  1  0  0  0  0
 31 24  1  0  0  0  0
M  END
>  <MODEL>
2

>  <REMARK>
 VINA RESULT:      -5.3      5.625      8.307
  Name = 
  2 active torsions:
  status: ('A' for Active; 'I' for Inactive)
    1  A    between atoms: C_5  and  C_30
    2  A    between atoms: C_10  and  N_16
                            x       y       z     vdW  Elec       q    Type
                         _______ _______ _______ _____ _____    ______ ____

>  <TORSDO>
F 2

$$$$
=
 OpenBabel11122413273D

 31 35  0  0  1  0  0  0  0  0999 V2000
  161.0350  204.7990  145.0150 C   0  0  0  0  0  0  0  0  0  0  0  0
  160.4310  205.1220  148.7550 C   0  0  2  0  0  3  0  0  0  0  0  0
  160.8390  203.7940  149.3810 C   0  0  0  0  0  0  0  0  0  0  0  0
  161.3680  201.4260  149.1740 C   0  0  0  0  0  0  0  0  0  0  0  0
  161.0290  205.3360  147.3840 C   0  0  0  0  0  0  0  0  0  0  0  0
  162.1610  205.6040  144.8310 C   0  0  0  0  0  3  0  0  0  0  0  0
  161.0270  202.6480  148.5900 C   0  0  0  0  0  3  0  0  0  0  0  0
  162.2480  206.5970  149.6910 C   0  0  2  0  0  3  0  0  0  0  0  0
  160.4780  204.1280  143.9350 O   0  0  0  0  0  1  0  0  0  0  0  0
  160.7350  204.8150  151.6200 N   0  0  0  0  0  2  0  0  0  0  0  0
  161.5760  200.2280  148.3220 C   0  0  0  0  0  1  0  0  0  0  0  0
  162.7200  207.0110  148.2970 C   0  0  0  0  0  2  0  0  0  0  0  0
  160.7390  206.3200  149.6780 C   0  0  2  0  0  3  0  0  0  0  0  0
  160.4710  204.6660  146.2860 C   0  0  0  0  0  3  0  0  0  0  0  0
  161.5140  201.3310  150.5600 C   0  0  0  0  0  3  0  0  0  0  0  0
  162.1660  206.1530  147.1950 C   0  0  0  0  0  0  0  0  0  0  0  0
  162.7180  206.2850  145.9160 C   0  0  0  0  0  3  0  0  0  0  0  0
  160.1870  206.0550  151.0810 C   0  0  0  0  0  2  0  0  0  0  0  0
  160.9520  203.6770  150.7830 C   0  0  0  0  0  0  0  0  0  0  0  0
  161.3050  202.4560  151.3620 C   0  0  0  0  0  3  0  0  0  0  0  0
  161.2490  209.2640  149.5740 O   0  0  0  0  0  0  0  0  0  0  0  0
  162.0220  208.9720  150.5270 C   0  0  0  0  0  0  0  0  0  0  0  0
  162.5630  207.6560  150.6410 N   0  0  0  0  0  2  0  0  0  0  0  0
  160.1240  210.4670  153.2670 C   0  0  0  0  0  0  0  0  0  0  0  0
  162.3720  209.4460  152.9770 C   0  0  0  0  0  2  0  0  0  0  0  0
  161.6280  211.9200  150.0670 C   0  0  0  0  0  1  0  0  0  0  0  0
  159.4040  210.8940  154.1540 O   0  0  0  0  0  0  0  0  0  0  0  0
  160.9440  209.2330  153.4880 C   0  0  0  0  0  2  0  0  0  0  0  0
  161.5840  211.3110  151.4580 C   0  0  2  0  0  3  0  0  0  0  0  0
  162.4010  210.0070  151.5490 C   0  0  2  0  0  3  0  0  0  0  0  0
  160.1400  211.1290  151.9240 C   0  0  0  0  0  2  0  0  0  0  0  0
  1 14  1  0  0  0  0
  2  5  1  6  0  0  0
  2  3  1  0  0  0  0
  2 13  1  0  0  0  0
  3 19  1  0  0  0  0
  4 15  2  0  0  0  0
  6  1  2  0  0  0  0
  6 17  1  0  0  0  0
  7  4  1  0  0  0  0
  7  3  2  0  0  0  0
  8 23  1  1  0  0  0
  9  1  1  0  0  0  0
 11  4  1  0  0  0  0
 12  8  1  0  0  0  0
 13  8  1  0  0  0  0
 13 18  1  1  0  0  0
 14  5  2  0  0  0  0
 15 20  1  0  0  0  0
 16  5  1  0  0  0  0
 16 12  1  0  0  0  0
 17 16  2  0  0  0  0
 18 10  1  0  0  0  0
 19 20  2  0  0  0  0
 19 10  1  0  0  0  0
 21 22  2  0  0  0  0
 22 23  1  0  0  0  0
 24 28  1  0  0  0  0
 24 27  2  0  0  0  0
 25 28  1  0  0  0  0
 29 26  1  6  0  0  0
 29 30  1  0  0  0  0
 29 31  1  0  0  0  0
 30 22  1  6  0  0  0
 30 25  1  0  0  0  0
 31 24  1  0  0  0  0
M  END
>  <MODEL>
3

>  <REMARK>
 VINA RESULT:      -5.3      1.814      2.325
  Name = 
  2 active torsions:
  status: ('A' for Active; 'I' for Inactive)
    1  A    between atoms: C_5  and  C_30
    2  A    between atoms: C_10  and  N_16
                            x       y       z     vdW  Elec       q    Type
                         _______ _______ _______ _____ _____    ______ ____

>  <TORSDO>
F 2

$$$$
=
 OpenBabel11122413273D

 31 35  0  0  1  0  0  0  0  0999 V2000
  161.2330  203.7630  145.8010 C   0  0  0  0  0  0  0  0  0  0  0  0
  160.5250  205.7890  148.9400 C   0  0  2  0  0  3  0  0  0  0  0  0
  160.8890  204.9020  150.1250 C   0  0  0  0  0  0  0  0  0  0  0  0
  161.3790  202.7080  151.0590 C   0  0  0  0  0  0  0  0  0  0  0  0
  161.1670  205.3380  147.6480 C   0  0  0  0  0  0  0  0  0  0  0  0
  162.3790  204.3860  145.3040 C   0  0  0  0  0  3  0  0  0  0  0  0
  161.0780  203.5190  149.9630 C   0  0  0  0  0  3  0  0  0  0  0  0
  162.3410  207.5240  149.1470 C   0  0  2  0  0  3  0  0  0  0  0  0
  160.6960  202.6690  145.1370 O   0  0  0  0  0  1  0  0  0  0  0  0
  160.7380  206.8470  151.6280 N   0  0  0  0  0  2  0  0  0  0  0  0
  161.5890  201.2490  150.8680 C   0  0  0  0  0  1  0  0  0  0  0  0
  162.8620  207.2410  147.7370 C   0  0  0  0  0  2  0  0  0  0  0  0
  160.8280  207.2770  149.2120 C   0  0  2  0  0  3  0  0  0  0  0  0
  160.6290  204.2370  146.9670 C   0  0  0  0  0  3  0  0  0  0  0  0
  161.4820  203.2670  152.3350 C   0  0  0  0  0  3  0  0  0  0  0  0
  162.3240  205.9710  147.1410 C   0  0  0  0  0  0  0  0  0  0  0  0
  162.9160  205.4920  145.9670 C   0  0  0  0  0  3  0  0  0  0  0  0
  160.2300  207.6960  150.5570 C   0  0  0  0  0  2  0  0  0  0  0  0
  160.9580  205.4490  151.4240 C   0  0  0  0  0  0  0  0  0  0  0  0
  161.2700  204.6360  152.5160 C   0  0  0  0  0  3  0  0  0  0  0  0
  161.3110  209.8360  147.8360 O   0  0  0  0  0  0  0  0  0  0  0  0
  162.0920  210.0170  148.8110 C   0  0  0  0  0  0  0  0  0  0  0  0
  162.6480  208.9020  149.5070 N   0  0  0  0  0  2  0  0  0  0  0  0
  160.8400  213.2870  147.7710 C   0  0  0  0  0  0  0  0  0  0  0  0
  161.2930  212.1310  149.9250 C   0  0  0  0  0  2  0  0  0  0  0  0
  164.2600  211.6090  147.4610 C   0  0  0  0  0  1  0  0  0  0  0  0
  160.3450  214.3230  147.3570 O   0  0  0  0  0  0  0  0  0  0  0  0
  160.2170  212.5600  148.9230 C   0  0  0  0  0  2  0  0  0  0  0  0
  163.0690  212.2770  148.1260 C   0  0  2  0  0  3  0  0  0  0  0  0
  162.4630  211.4070  149.2460 C   0  0  2  0  0  3  0  0  0  0  0  0
  162.0310  212.6930  147.0850 C   0  0  0  0  0  2  0  0  0  0  0  0
  1 14  1  0  0  0  0
  2  5  1  6  0  0  0
  2 13  1  0  0  0  0
  2  3  1  0  0  0  0
  3 19  1  0  0  0  0
  4 15  2  0  0  0  0
  6  1  2  0  0  0  0
  6 17  1  0  0  0  0
  7  3  2  0  0  0  0
  7  4  1  0  0  0  0
  8 13  1  0  0  0  0
  8 23  1  6  0  0  0
  9  1  1  0  0  0  0
 11  4  1  0  0  0  0
 12  8  1  0  0  0  0
 13 18  1  1  0  0  0
 14  5  2  0  0  0  0
 15 20  1  0  0  0  0
 16  5  1  0  0  0  0
 16 12  1  0  0  0  0
 17 16  2  0  0  0  0
 18 10  1  0  0  0  0
 19 10  1  0  0  0  0
 19 20  2  0  0  0  0
 21 22  2  0  0  0  0
 22 23  1  0  0  0  0
 24 28  1  0  0  0  0
 27 24  2  0  0  0  0
 28 25  1  0  0  0  0
 29 26  1  6  0  0  0
 29 30  1  0  0  0  0
 30 22  1  6  0  0  0
 30 25  1  0  0  0  0
 31 24  1  0  0  0  0
 31 29  1  0  0  0  0
M  END
>  <MODEL>
4

>  <REMARK>
 VINA RESULT:      -5.2      3.353      4.831
  Name = 
  2 active torsions:
  status: ('A' for Active; 'I' for Inactive)
    1  A    between atoms: C_5  and  C_30
    2  A    between atoms: C_10  and  N_16
                            x       y       z     vdW  Elec       q    Type
                         _______ _______ _______ _____ _____    ______ ____

>  <TORSDO>
F 2

$$$$
=
 OpenBabel11122413273D

 31 35  0  0  1  0  0  0  0  0999 V2000
  161.8820  206.4670  147.1490 C   0  0  0  0  0  0  0  0  0  0  0  0
  162.3970  209.1520  149.7920 C   0  0  2  0  0  3  0  0  0  0  0  0
  161.7530  210.4240  149.2550 C   0  0  0  0  0  0  0  0  0  0  0  0
  160.8480  211.7260  147.4070 C   0  0  0  0  0  0  0  0  0  0  0  0
  161.8920  207.9020  149.1080 C   0  0  0  0  0  0  0  0  0  0  0  0
  160.9120  205.6570  147.7420 C   0  0  0  0  0  3  0  0  0  0  0  0
  161.4070  210.5440  147.8980 C   0  0  0  0  0  3  0  0  0  0  0  0
  160.8170  208.6580  151.6920 C   0  0  2  0  0  3  0  0  0  0  0  0
  162.3580  206.1640  145.8810 O   0  0  0  0  0  1  0  0  0  0  0  0
  161.9440  211.4630  151.4800 N   0  0  0  0  0  2  0  0  0  0  0  0
  160.4750  211.8300  145.9720 C   0  0  0  0  0  1  0  0  0  0  0  0
  160.4690  207.2780  151.1300 C   0  0  0  0  0  2  0  0  0  0  0  0
  162.2590  209.0310  151.3240 C   0  0  2  0  0  3  0  0  0  0  0  0
  162.3710  207.5840  147.8300 C   0  0  0  0  0  3  0  0  0  0  0  0
  160.6390  212.8090  148.2630 C   0  0  0  0  0  3  0  0  0  0  0  0
  160.9130  207.0790  149.7080 C   0  0  0  0  0  0  0  0  0  0  0  0
  160.4360  205.9570  149.0200 C   0  0  0  0  0  3  0  0  0  0  0  0
  162.7080  210.3320  151.9940 C   0  0  0  0  0  2  0  0  0  0  0  0
  161.5730  211.5390  150.1020 C   0  0  0  0  0  0  0  0  0  0  0  0
  161.0030  212.7150  149.6090 C   0  0  0  0  0  3  0  0  0  0  0  0
  159.2330  210.5030  153.1790 O   0  0  0  0  0  0  0  0  0  0  0  0
  159.8330  209.5980  153.8220 C   0  0  0  0  0  0  0  0  0  0  0  0
  160.6470  208.6460  153.1390 N   0  0  0  0  0  2  0  0  0  0  0  0
  162.3440  209.8560  156.4620 C   0  0  0  0  0  0  0  0  0  0  0  0
  160.1040  210.8320  156.0020 C   0  0  0  0  0  2  0  0  0  0  0  0
  160.0720  207.0000  155.3220 C   0  0  0  0  0  1  0  0  0  0  0  0
  163.2600  209.9650  157.2610 O   0  0  0  0  0  0  0  0  0  0  0  0
  161.6170  211.0720  155.9760 C   0  0  0  0  0  2  0  0  0  0  0  0
  160.4690  208.3280  155.9460 C   0  0  2  0  0  3  0  0  0  0  0  0
  159.7130  209.5160  155.3180 C   0  0  2  0  0  3  0  0  0  0  0  0
  161.9850  208.5130  155.9040 C   0  0  0  0  0  2  0  0  0  0  0  0
  1  6  2  0  0  0  0
  1 14  1  0  0  0  0
  2  5  1  6  0  0  0
  2 13  1  0  0  0  0
  3  2  1  0  0  0  0
  3 19  1  0  0  0  0
  4  7  1  0  0  0  0
  4 15  2  0  0  0  0
  5 16  1  0  0  0  0
  6 17  1  0  0  0  0
  7  3  2  0  0  0  0
  8 23  1  1  0  0  0
  9  1  1  0  0  0  0
 10 18  1  0  0  0  0
 11  4  1  0  0  0  0
 12  8  1  0  0  0  0
 13  8  1  0  0  0  0
 13 18  1  1  0  0  0
 14  5  2  0  0  0  0
 15 20  1  0  0  0  0
 16 12  1  0  0  0  0
 17 16  2  0  0  0  0
 19 10  1  0  0  0  0
 20 19  2  0  0  0  0
 21 22  2  0  0  0  0
 23 22  1  0  0  0  0
 24 27  2  0  0  0  0
 28 25  1  0  0  0  0
 28 24  1  0  0  0  0
 29 26  1  6  0  0  0
 30 22  1  6  0  0  0
 30 29  1  0  0  0  0
 30 25  1  0  0  0  0
 31 29  1  0  0  0  0
 31 24  1  0  0  0  0
M  END
>  <MODEL>
5

>  <REMARK>
 VINA RESULT:      -4.7      2.830      5.670
  Name = 
  2 active torsions:
  status: ('A' for Active; 'I' for Inactive)
    1  A    between atoms: C_5  and  C_30
    2  A    between atoms: C_10  and  N_16
                            x       y       z     vdW  Elec       q    Type
                         _______ _______ _______ _____ _____    ______ ____

>  <TORSDO>
F 2

$$$$
=
 OpenBabel11122413273D

 31 35  0  0  1  0  0  0  0  0999 V2000
  161.8430  206.4380  147.1630 C   0  0  0  0  0  0  0  0  0  0  0  0
  162.4600  209.1440  149.7620 C   0  0  2  0  0  3  0  0  0  0  0  0
  161.7990  210.4130  149.2380 C   0  0  0  0  0  0  0  0  0  0  0  0
  160.8280  211.7000  147.4140 C   0  0  0  0  0  0  0  0  0  0  0  0
  161.9280  207.8890  149.1080 C   0  0  0  0  0  0  0  0  0  0  0  0
  160.8940  205.6340  147.7980 C   0  0  0  0  0  3  0  0  0  0  0  0
  161.4030  210.5220  147.8940 C   0  0  0  0  0  3  0  0  0  0  0  0
  160.9510  208.6690  151.7240 C   0  0  2  0  0  3  0  0  0  0  0  0
  162.2710  206.1230  145.8810 O   0  0  0  0  0  1  0  0  0  0  0  0
  162.0740  211.4700  151.4460 N   0  0  0  0  0  2  0  0  0  0  0  0
  160.4020  211.7930  145.9930 C   0  0  0  0  0  1  0  0  0  0  0  0
  160.5800  207.2850  151.1860 C   0  0  0  0  0  2  0  0  0  0  0  0
  162.3790  209.0370  151.2990 C   0  0  2  0  0  3  0  0  0  0  0  0
  162.3580  207.5600  147.8150 C   0  0  0  0  0  3  0  0  0  0  0  0
  160.6530  212.7910  148.2680 C   0  0  0  0  0  3  0  0  0  0  0  0
  160.9710  207.0730  149.7510 C   0  0  0  0  0  0  0  0  0  0  0  0
  160.4670  205.9460  149.0910 C   0  0  0  0  0  3  0  0  0  0  0  0
  162.8550  210.3420  151.9410 C   0  0  0  0  0  2  0  0  0  0  0  0
  161.6520  211.5350  150.0820 C   0  0  0  0  0  0  0  0  0  0  0  0
  161.0660  212.7080  149.6000 C   0  0  0  0  0  3  0  0  0  0  0  0
  159.6530  210.6800  153.2700 O   0  0  0  0  0  0  0  0  0  0  0  0
  160.1650  209.7080  153.8900 C   0  0  0  0  0  0  0  0  0  0  0  0
  160.8350  208.6690  153.1760 N   0  0  0  0  0  2  0  0  0  0  0  0
  159.0120  212.1230  156.3760 C   0  0  0  0  0  0  0  0  0  0  0  0
  158.6490  209.7100  155.9030 C   0  0  0  0  0  2  0  0  0  0  0  0
  162.4360  210.5770  155.6640 C   0  0  0  0  0  1  0  0  0  0  0  0
  158.5980  212.9980  157.1180 O   0  0  0  0  0  0  0  0  0  0  0  0
  158.0680  211.1220  155.7860 C   0  0  0  0  0  2  0  0  0  0  0  0
  160.9870  210.6570  156.1150 C   0  0  2  0  0  3  0  0  0  0  0  0
  160.0930  209.6320  155.3890 C   0  0  2  0  0  3  0  0  0  0  0  0
  160.4590  212.0850  155.9890 C   0  0  0  0  0  2  0  0  0  0  0  0
  1  6  2  0  0  0  0
  1 14  1  0  0  0  0
  2  5  1  6  0  0  0
  2 13  1  0  0  0  0
  3  2  1  0  0  0  0
  3 19  1  0  0  0  0
  4  7  1  0  0  0  0
  4 15  2  0  0  0  0
  5 16  1  0  0  0  0
  6 17  1  0  0  0  0
  7  3  2  0  0  0  0
  8 23  1  1  0  0  0
  9  1  1  0  0  0  0
 10 18  1  0  0  0  0
 11  4  1  0  0  0  0
 12  8  1  0  0  0  0
 13  8  1  0  0  0  0
 13 18  1  1  0  0  0
 14  5  2  0  0  0  0
 15 20  1  0  0  0  0
 16 12  1  0  0  0  0
 17 16  2  0  0  0  0
 19 10  1  0  0  0  0
 20 19  2  0  0  0  0
 21 22  2  0  0  0  0
 23 22  1  0  0  0  0
 24 27  2  0  0  0  0
 28 25  1  0  0  0  0
 28 24  1  0  0  0  0
 29 26  1  6  0  0  0
 30 22  1  6  0  0  0
 30 25  1  0  0  0  0
 30 29  1  0  0  0  0
 31 29  1  0  0  0  0
 31 24  1  0  0  0  0
M  END
>  <MODEL>
6

>  <REMARK>
 VINA RESULT:      -4.5      2.804      5.553
  Name = 
  2 active torsions:
  status: ('A' for Active; 'I' for Inactive)
    1  A    between atoms: C_5  and  C_30
    2  A    between atoms: C_10  and  N_16
                            x       y       z     vdW  Elec       q    Type
                         _______ _______ _______ _____ _____    ______ ____

>  <TORSDO>
F 2

$$$$
=
 OpenBabel11122413273D

 31 35  0  0  1  0  0  0  0  0999 V2000
  160.7560  201.5730  148.7870 C   0  0  0  0  0  0  0  0  0  0  0  0
  162.2980  204.8660  149.8990 C   0  0  2  0  0  3  0  0  0  0  0  0
  161.7810  205.9350  148.9440 C   0  0  0  0  0  0  0  0  0  0  0  0
  160.7300  206.5730  146.8430 C   0  0  0  0  0  0  0  0  0  0  0  0
  161.4460  203.6170  149.9010 C   0  0  0  0  0  0  0  0  0  0  0  0
  159.8150  201.3370  149.7910 C   0  0  0  0  0  3  0  0  0  0  0  0
  161.1700  205.5870  147.7270 C   0  0  0  0  0  3  0  0  0  0  0  0
  161.1140  205.5840  152.0050 C   0  0  2  0  0  3  0  0  0  0  0  0
  160.8810  200.6810  147.7310 O   0  0  0  0  0  1  0  0  0  0  0  0
  162.6350  207.6910  150.4460 N   0  0  0  0  0  2  0  0  0  0  0  0
  160.0730  206.1870  145.5670 C   0  0  0  0  0  1  0  0  0  0  0  0
  160.4180  204.2300  152.1520 C   0  0  0  0  0  2  0  0  0  0  0  0
  162.4820  205.4050  151.3330 C   0  0  2  0  0  3  0  0  0  0  0  0
  161.5680  202.7070  148.8420 C   0  0  0  0  0  3  0  0  0  0  0  0
  160.9060  207.9230  147.1560 C   0  0  0  0  0  3  0  0  0  0  0  0
  160.4960  203.3760  150.9190 C   0  0  0  0  0  0  0  0  0  0  0  0
  159.6930  202.2310  150.8580 C   0  0  0  0  0  3  0  0  0  0  0  0
  163.2860  206.7070  151.3030 C   0  0  0  0  0  2  0  0  0  0  0  0
  161.9870  207.3020  149.2330 C   0  0  0  0  0  0  0  0  0  0  0  0
  161.5350  208.2850  148.3500 C   0  0  0  0  0  3  0  0  0  0  0  0
  160.4580  208.2800  152.6580 O   0  0  0  0  0  0  0  0  0  0  0  0
  160.9140  207.5500  153.5810 C   0  0  0  0  0  0  0  0  0  0  0  0
  161.2680  206.1920  153.3200 N   0  0  0  0  0  2  0  0  0  0  0  0
  158.9700  209.9670  155.5110 C   0  0  0  0  0  0  0  0  0  0  0  0
  159.9550  207.7180  155.9050 C   0  0  0  0  0  2  0  0  0  0  0  0
  162.5320  210.0290  154.1250 C   0  0  0  0  0  1  0  0  0  0  0  0
  158.2450  210.7760  156.0670 O   0  0  0  0  0  0  0  0  0  0  0  0
  158.6740  208.5010  155.6000 C   0  0  0  0  0  2  0  0  0  0  0  0
  161.3670  209.6200  155.0090 C   0  0  2  0  0  3  0  0  0  0  0  0
  161.1070  208.1000  154.9660 C   0  0  2  0  0  3  0  0  0  0  0  0
  160.1190  210.4350  154.6720 C   0  0  0  0  0  2  0  0  0  0  0  0
  1 14  2  0  0  0  0
  1  6  1  0  0  0  0
  2  3  1  6  0  0  0
  2  5  1  0  0  0  0
  2 13  1  0  0  0  0
  3 19  1  0  0  0  0
  4 15  2  0  0  0  0
  4  7  1  0  0  0  0
  5 16  2  0  0  0  0
  6 17  2  0  0  0  0
  7  3  2  0  0  0  0
  8 12  1  0  0  0  0
  8 23  1  1  0  0  0
  9  1  1  0  0  0  0
 10 18  1  0  0  0  0
 11  4  1  0  0  0  0
 13 18  1  6  0  0  0
 13  8  1  0  0  0  0
 14  5  1  0  0  0  0
 15 20  1  0  0  0  0
 16 12  1  0  0  0  0
 17 16  1  0  0  0  0
 19 10  1  0  0  0  0
 20 19  2  0  0  0  0
 21 22  2  0  0  0  0
 23 22  1  0  0  0  0
 24 28  1  0  0  0  0
 24 27  2  0  0  0  0
 28 25  1  0  0  0  0
 29 26  1  6  0  0  0
 30 22  1  6  0  0  0
 30 29  1  0  0  0  0
 30 25  1  0  0  0  0
 31 29  1  0  0  0  0
 31 24  1  0  0  0  0
M  END
>  <MODEL>
7

>  <REMARK>
 VINA RESULT:      -4.4      1.555      3.944
  Name = 
  2 active torsions:
  status: ('A' for Active; 'I' for Inactive)
    1  A    between atoms: C_5  and  C_30
    2  A    between atoms: C_10  and  N_16
                            x       y       z     vdW  Elec       q    Type
                         _______ _______ _______ _____ _____    ______ ____

>  <TORSDO>
F 2

$$$$
=
 OpenBabel11122413273D

 31 35  0  0  1  0  0  0  0  0999 V2000
  162.0730  213.2650  148.2170 C   0  0  0  0  0  0  0  0  0  0  0  0
  159.3530  214.1950  150.7060 C   0  0  2  0  0  3  0  0  0  0  0  0
  158.0430  214.2340  149.9280 C   0  0  0  0  0  0  0  0  0  0  0  0
  156.8310  214.3370  147.8190 C   0  0  0  0  0  0  0  0  0  0  0  0
  160.4330  213.4060  150.0020 C   0  0  0  0  0  0  0  0  0  0  0  0
  162.3690  211.9520  148.5860 C   0  0  0  0  0  3  0  0  0  0  0  0
  158.0350  214.2680  148.5230 C   0  0  0  0  0  3  0  0  0  0  0  0
  158.9210  212.1730  152.1470 C   0  0  2  0  0  3  0  0  0  0  0  0
  162.7340  213.8510  147.1460 O   0  0  0  0  0  1  0  0  0  0  0  0
  156.7870  214.3230  152.0450 N   0  0  0  0  0  2  0  0  0  0  0  0
  156.8400  214.3580  146.3340 C   0  0  0  0  0  1  0  0  0  0  0  0
  160.1560  211.4470  151.6110 C   0  0  0  0  0  2  0  0  0  0  0  0
  159.1580  213.6890  152.1500 C   0  0  2  0  0  3  0  0  0  0  0  0
  161.1100  213.9890  148.9230 C   0  0  0  0  0  3  0  0  0  0  0  0
  155.6190  214.3850  148.5100 C   0  0  0  0  0  3  0  0  0  0  0  0
  160.7360  212.0770  150.3770 C   0  0  0  0  0  0  0  0  0  0  0  0
  161.7090  211.3640  149.6670 C   0  0  0  0  0  3  0  0  0  0  0  0
  158.0150  214.4520  152.8230 C   0  0  0  0  0  2  0  0  0  0  0  0
  156.8140  214.3220  150.6160 C   0  0  0  0  0  0  0  0  0  0  0  0
  155.6110  214.3790  149.9080 C   0  0  0  0  0  3  0  0  0  0  0  0
  160.8490  211.8040  154.2140 O   0  0  0  0  0  0  0  0  0  0  0  0
  159.6440  211.5430  154.4860 C   0  0  0  0  0  0  0  0  0  0  0  0
  158.6300  211.7000  153.4930 N   0  0  0  0  0  2  0  0  0  0  0  0
  156.7990  212.3460  156.6310 C   0  0  0  0  0  0  0  0  0  0  0  0
  157.9290  210.2810  155.8320 C   0  0  0  0  0  2  0  0  0  0  0  0
  160.5630  212.8900  157.0150 C   0  0  0  0  0  1  0  0  0  0  0  0
  155.8090  212.6810  157.2610 O   0  0  0  0  0  0  0  0  0  0  0  0
  156.7260  211.2120  155.6560 C   0  0  0  0  0  2  0  0  0  0  0  0
  159.2440  212.1400  156.9380 C   0  0  2  0  0  3  0  0  0  0  0  0
  159.2590  211.0470  155.8510 C   0  0  2  0  0  3  0  0  0  0  0  0
  158.0780  213.1130  156.7720 C   0  0  0  0  0  2  0  0  0  0  0  0
  1  6  2  0  0  0  0
  1 14  1  0  0  0  0
  2  3  1  6  0  0  0
  2 13  1  0  0  0  0
  3 19  1  0  0  0  0
  4 15  2  0  0  0  0
  4  7  1  0  0  0  0
  5 16  1  0  0  0  0
  5  2  1  0  0  0  0
  6 17  1  0  0  0  0
  7  3  2  0  0  0  0
  8 13  1  0  0  0  0
  8 23  1  1  0  0  0
  9  1  1  0  0  0  0
 10 18  1  0  0  0  0
 11  4  1  0  0  0  0
 12  8  1  0  0  0  0
 13 18  1  6  0  0  0
 14  5  2  0  0  0  0
 15 20  1  0  0  0  0
 16 12  1  0  0  0  0
 17 16  2  0  0  0  0
 19 10  1  0  0  0  0
 20 19  2  0  0  0  0
 21 22  2  0  0  0  0
 23 22  1  0  0  0  0
 24 31  1  0  0  0  0
 24 27  2  0  0  0  0
 25 30  1  0  0  0  0
 28 25  1  0  0  0  0
 28 24  1  0  0  0  0
 29 26  1  6  0  0  0
 30 22  1  6  0  0  0
 30 29  1  0  0  0  0
 31 29  1  0  0  0  0
M  END
>  <MODEL>
8

>  <REMARK>
 VINA RESULT:      -4.3      6.419      8.468
  Name = 
  2 active torsions:
  status: ('A' for Active; 'I' for Inactive)
    1  A    between atoms: C_5  and  C_30
    2  A    between atoms: C_10  and  N_16
                            x       y       z     vdW  Elec       q    Type
                         _______ _______ _______ _____ _____    ______ ____

>  <TORSDO>
F 2

$$$$
=
 OpenBabel11122413273D

 31 35  0  0  1  0  0  0  0  0999 V2000
  161.8070  203.8680  152.0110 C   0  0  0  0  0  0  0  0  0  0  0  0
  162.5280  207.5680  151.5140 C   0  0  2  0  0  3  0  0  0  0  0  0
  162.0410  207.9250  150.1150 C   0  0  0  0  0  0  0  0  0  0  0  0
  161.3380  207.2600  147.8810 C   0  0  0  0  0  0  0  0  0  0  0  0
  161.9130  206.2940  152.0450 C   0  0  0  0  0  0  0  0  0  0  0  0
  160.7380  203.8970  152.9080 C   0  0  0  0  0  3  0  0  0  0  0  0
  161.7510  206.9240  149.1710 C   0  0  0  0  0  3  0  0  0  0  0  0
  160.8470  208.8570  152.8790 C   0  0  2  0  0  3  0  0  0  0  0  0
  162.2870  202.6520  151.5430 O   0  0  0  0  0  1  0  0  0  0  0  0
  162.2760  210.3190  150.6420 N   0  0  0  0  0  2  0  0  0  0  0  0
  161.0220  206.1890  146.9000 C   0  0  0  0  0  1  0  0  0  0  0  0
  160.3700  207.5960  153.6020 C   0  0  0  0  0  2  0  0  0  0  0  0
  162.3310  208.7280  152.5120 C   0  0  2  0  0  3  0  0  0  0  0  0
  162.3930  205.0610  151.5820 C   0  0  0  0  0  3  0  0  0  0  0  0
  161.2210  208.6010  147.5110 C   0  0  0  0  0  3  0  0  0  0  0  0
  160.8330  206.3210  152.9560 C   0  0  0  0  0  0  0  0  0  0  0  0
  160.2600  205.1190  153.3850 C   0  0  0  0  0  3  0  0  0  0  0  0
  162.8970  210.0240  151.9270 C   0  0  0  0  0  2  0  0  0  0  0  0
  161.9560  209.2760  149.7180 C   0  0  0  0  0  0  0  0  0  0  0  0
  161.5310  209.6080  148.4290 C   0  0  0  0  0  3  0  0  0  0  0  0
  158.9690  210.9450  152.3890 O   0  0  0  0  0  0  0  0  0  0  0  0
  159.6690  211.0240  153.4350 C   0  0  0  0  0  0  0  0  0  0  0  0
  160.6330  210.0150  153.7370 N   0  0  0  0  0  2  0  0  0  0  0  0
  156.7520  212.3210  155.2100 C   0  0  0  0  0  0  0  0  0  0  0  0
  159.1010  211.7420  155.7830 C   0  0  0  0  0  2  0  0  0  0  0  0
  158.9830  213.7930  152.4770 C   0  0  0  0  0  1  0  0  0  0  0  0
  155.7180  212.6650  155.7590 O   0  0  0  0  0  0  0  0  0  0  0  0
  157.6380  211.2930  155.8430 C   0  0  0  0  0  2  0  0  0  0  0  0
  158.5760  213.2950  153.8530 C   0  0  2  0  0  3  0  0  0  0  0  0
  159.5140  212.1870  154.3730 C   0  0  2  0  0  3  0  0  0  0  0  0
  157.1090  212.8690  153.8620 C   0  0  0  0  0  2  0  0  0  0  0  0
  1  6  1  0  0  0  0
  2  3  1  6  0  0  0
  2  5  1  0  0  0  0
  2 13  1  0  0  0  0
  4  7  1  0  0  0  0
  5 16  2  0  0  0  0
  6 17  2  0  0  0  0
  7  3  2  0  0  0  0
  8 12  1  0  0  0  0
  8 23  1  1  0  0  0
  9  1  1  0  0  0  0
 10 18  1  0  0  0  0
 11  4  1  0  0  0  0
 13 18  1  6  0  0  0
 13  8  1  0  0  0  0
 14  1  2  0  0  0  0
 14  5  1  0  0  0  0
 15  4  2  0  0  0  0
 15 20  1  0  0  0  0
 16 17  1  0  0  0  0
 16 12  1  0  0  0  0
 19  3  1  0  0  0  0
 19 10  1  0  0  0  0
 20 19  2  0  0  0  0
 21 22  2  0  0  0  0
 22 23  1  0  0  0  0
 24 27  2  0  0  0  0
 24 28  1  0  0  0  0
 25 28  1  0  0  0  0
 29 26  1  6  0  0  0
 29 31  1  0  0  0  0
 29 30  1  0  0  0  0
 30 22  1  6  0  0  0
 30 25  1  0  0  0  0
 31 24  1  0  0  0  0
M  END
>  <MODEL>
9

>  <REMARK>
 VINA RESULT:      -4.1      3.011      5.279
  Name = 
  2 active torsions:
  status: ('A' for Active; 'I' for Inactive)
    1  A    between atoms: C_5  and  C_30
    2  A    between atoms: C_10  and  N_16
                            x       y       z     vdW  Elec       q    Type
                         _______ _______ _______ _____ _____    ______ ____

>  <TORSDO>
F 2

$$$$
