=
 OpenBabel11122413343D

 37 43  0  0  1  0  0  0  0  0999 V2000
  161.9030  210.1400  148.1560 C   0  0  0  0  0  2  0  0  0  0  0  0
  162.5320  205.6250  146.5940 C   0  0  0  0  0  0  0  0  0  0  0  0
  160.8140  206.1730  150.4120 C   0  0  0  0  0  0  0  0  0  0  0  0
  161.8910  211.5790  148.3930 N   0  0  0  0  0  0  0  0  0  0  0  0
  160.7120  209.4680  152.1570 C   0  0  0  0  0  2  0  0  0  0  0  0
  160.9980  204.7490  148.4520 C   0  0  0  0  0  0  0  0  0  0  0  0
  161.2270  207.3940  150.7160 C   0  0  0  0  0  0  0  0  0  0  0  0
  160.2920  212.5590  150.0010 C   0  0  2  0  0  3  0  0  0  0  0  0
  161.1500  205.9110  149.0540 C   0  0  0  0  0  0  0  0  0  0  0  0
  161.1270  208.0130  152.0670 C   0  0  0  0  0  0  0  0  0  0  0  0
  160.3590  203.6570  149.2240 C   0  0  0  0  0  3  0  0  0  0  0  0
  160.4960  211.9280  148.6200 C   0  0  0  0  0  2  0  0  0  0  0  0
  161.8150  207.0550  148.5240 C   0  0  0  0  0  0  0  0  0  0  0  0
  162.5990  205.6640  145.0840 C   0  0  0  0  0  1  0  0  0  0  0  0
  161.1670  204.8790  152.4290 C   0  0  0  0  0  3  0  0  0  0  0  0
  160.0030  203.8300  150.5190 C   0  0  0  0  0  3  0  0  0  0  0  0
  162.2980  207.0730  147.1070 C   0  0  0  0  0  2  0  0  0  0  0  0
  160.8420  211.7730  151.2010 C   0  0  0  0  0  2  0  0  0  0  0  0
  161.0630  210.2940  150.9290 C   0  0  1  0  0  3  0  0  0  0  0  0
  160.2290  205.1270  151.2970 C   0  0  2  0  0  3  0  0  0  0  0  0
  161.8500  207.9830  149.4890 C   0  0  0  0  0  0  0  0  0  0  0  0
  161.4130  204.6260  147.0060 C   0  0  0  0  0  2  0  0  0  0  0  0
  161.3240  207.2980  153.2150 C   0  0  0  0  0  0  0  0  0  0  0  0
  163.8690  205.1200  147.1090 C   0  0  0  0  0  1  0  0  0  0  0  0
  162.4090  210.0900  150.5780 O   0  0  0  0  0  0  0  0  0  0  0  0
  158.8150  212.8150  150.2100 C   0  0  0  0  0  1  0  0  0  0  0  0
  162.4560  209.3630  149.3670 C   0  0  2  0  0  3  0  0  0  0  0  0
  161.6100  205.8340  153.2560 C   0  0  0  0  0  3  0  0  0  0  0  0
  160.7760  207.2750  155.7140 C   0  0  0  0  0  3  0  0  0  0  0  0
  161.3740  207.9580  154.5460 C   0  0  0  0  0  0  0  0  0  0  0  0
  161.9960  209.1320  154.7120 C   0  0  0  0  0  3  0  0  0  0  0  0
  162.6380  210.8850  156.1520 O   0  0  0  0  0  0  0  0  0  0  0  0
  161.5500  209.0730  157.2610 C   0  0  0  0  0  2  0  0  0  0  0  0
  162.0910  209.7600  156.0370 C   0  0  0  0  0  0  0  0  0  0  0  0
  160.8500  207.7770  156.9480 C   0  0  0  0  0  3  0  0  0  0  0  0
  162.7220  213.6410  147.4220 C   0  0  0  0  0  1  0  0  0  0  0  0
  162.2790  212.2170  147.1450 C   0  0  0  0  0  2  0  0  0  0  0  0
  1  4  1  0  0  0  0
  2 22  1  0  0  0  0
  2 17  1  0  0  0  0
  2 24  1  0  0  0  0
  3  7  2  0  0  0  0
  3 20  1  0  0  0  0
  4 12  1  0  0  0  0
  6  9  2  0  0  0  0
  6 11  1  0  0  0  0
  7 10  1  0  0  0  0
  8 26  1  1  0  0  0
  8 18  1  0  0  0  0
  9  3  1  0  0  0  0
 10  5  1  0  0  0  0
 10 23  2  0  0  0  0
 11 16  2  0  0  0  0
 12  8  1  0  0  0  0
 13  9  1  0  0  0  0
 13 21  2  0  0  0  0
 14  2  1  0  0  0  0
 15 28  2  0  0  0  0
 17 13  1  0  0  0  0
 19 18  1  1  0  0  0
 19  5  1  0  0  0  0
 20 16  1  6  0  0  0
 20 15  1  0  0  0  0
 21  7  1  0  0  0  0
 22  6  1  0  0  0  0
 23 28  1  0  0  0  0
 23 30  1  0  0  0  0
 25 19  1  0  0  0  0
 27  1  1  6  0  0  0
 27 21  1  0  0  0  0
 27 25  1  0  0  0  0
 29 35  2  0  0  0  0
 30 31  2  0  0  0  0
 30 29  1  0  0  0  0
 31 34  1  0  0  0  0
 34 32  2  0  0  0  0
 34 33  1  0  0  0  0
 35 33  1  0  0  0  0
 37 36  1  0  0  0  0
 37  4  1  0  0  0  0
M  END
>  <MODEL>
1

>  <REMARK>
 VINA RESULT:      -6.4      0.000      0.000
  Name = 
  2 active torsions:
  status: ('A' for Active; 'I' for Inactive)
    1  A    between atoms: N_4  and  C_37
    2  A    between atoms: C_23  and  C_30
                            x       y       z     vdW  Elec       q    Type
                         _______ _______ _______ _____ _____    ______ ____

>  <TORSDO>
F 2

$$$$
=
 OpenBabel11122413343D

 37 43  0  0  1  0  0  0  0  0999 V2000
  161.6440  207.9740  152.3580 C   0  0  0  0  0  2  0  0  0  0  0  0
  159.9730  210.8020  155.8840 C   0  0  0  0  0  0  0  0  0  0  0  0
  159.5140  212.1300  151.9030 C   0  0  0  0  0  0  0  0  0  0  0  0
  162.2850  206.9690  151.5180 N   0  0  0  0  0  0  0  0  0  0  0  0
  161.1790  210.4930  148.9940 C   0  0  0  0  0  2  0  0  0  0  0  0
  158.6570  212.1870  154.1750 C   0  0  0  0  0  0  0  0  0  0  0  0
  160.4540  211.4350  151.2810 C   0  0  0  0  0  0  0  0  0  0  0  0
  161.6320  206.7310  149.1470 C   0  0  2  0  0  3  0  0  0  0  0  0
  159.4070  211.6450  153.2370 C   0  0  0  0  0  0  0  0  0  0  0  0
  160.9170  211.6880  149.8880 C   0  0  0  0  0  0  0  0  0  0  0  0
  157.8040  213.3370  153.7910 C   0  0  0  0  0  3  0  0  0  0  0  0
  161.2490  206.4940  150.6110 C   0  0  0  0  0  2  0  0  0  0  0  0
  160.3570  210.5980  153.4150 C   0  0  0  0  0  0  0  0  0  0  0  0
  159.7220  209.9310  157.0940 C   0  0  0  0  0  1  0  0  0  0  0  0
  159.7220  214.3780  151.0240 C   0  0  0  0  0  3  0  0  0  0  0  0
  157.8420  213.8500  152.5390 C   0  0  0  0  0  3  0  0  0  0  0  0
  160.4840  209.8940  154.7300 C   0  0  0  0  0  2  0  0  0  0  0  0
  162.0490  208.1610  148.7710 C   0  0  0  0  0  2  0  0  0  0  0  0
  161.5680  209.2270  149.7420 C   0  0  1  0  0  3  0  0  0  0  0  0
  158.7520  213.3200  151.4300 C   0  0  2  0  0  3  0  0  0  0  0  0
  160.9840  210.4210  152.2460 C   0  0  0  0  0  0  0  0  0  0  0  0
  158.6580  211.5610  155.5490 C   0  0  0  0  0  2  0  0  0  0  0  0
  161.0410  212.9500  149.3770 C   0  0  0  0  0  0  0  0  0  0  0  0
  161.0540  211.8060  156.2470 C   0  0  0  0  0  1  0  0  0  0  0  0
  162.5940  209.5050  150.6610 O   0  0  0  0  0  0  0  0  0  0  0  0
  160.4810  206.3000  148.2640 C   0  0  0  0  0  1  0  0  0  0  0  0
  162.0690  209.4030  151.9690 C   0  0  2  0  0  3  0  0  0  0  0  0
  160.6900  214.1960  150.1190 C   0  0  0  0  0  3  0  0  0  0  0  0
  163.0540  212.7960  147.8060 C   0  0  0  0  0  3  0  0  0  0  0  0
  161.6490  213.1950  148.0420 C   0  0  0  0  0  0  0  0  0  0  0  0
  160.9310  213.7200  147.0420 C   0  0  0  0  0  3  0  0  0  0  0  0
  160.8320  214.4530  144.8030 O   0  0  0  0  0  0  0  0  0  0  0  0
  162.9200  213.4680  145.4060 C   0  0  0  0  0  2  0  0  0  0  0  0
  161.5160  213.9130  145.7080 C   0  0  0  0  0  0  0  0  0  0  0  0
  163.6370  212.9210  146.6120 C   0  0  0  0  0  3  0  0  0  0  0  0
  161.4940  204.8380  152.3660 C   0  0  0  0  0  1  0  0  0  0  0  0
  162.6240  205.8490  152.3810 C   0  0  0  0  0  2  0  0  0  0  0  0
  2 24  1  0  0  0  0
  2 14  1  0  0  0  0
  3  9  1  0  0  0  0
  4  1  1  0  0  0  0
  4 37  1  0  0  0  0
  5 19  1  0  0  0  0
  5 10  1  0  0  0  0
  6 22  1  0  0  0  0
  7  3  2  0  0  0  0
  7 21  1  0  0  0  0
  8 26  1  6  0  0  0
  8 12  1  0  0  0  0
  9 13  1  0  0  0  0
  9  6  2  0  0  0  0
 10  7  1  0  0  0  0
 11  6  1  0  0  0  0
 12  4  1  0  0  0  0
 13 17  1  0  0  0  0
 16 11  2  0  0  0  0
 17  2  1  0  0  0  0
 18  8  1  0  0  0  0
 19 18  1  6  0  0  0
 19 25  1  0  0  0  0
 20 15  1  1  0  0  0
 20  3  1  0  0  0  0
 20 16  1  0  0  0  0
 21 13  2  0  0  0  0
 22  2  1  0  0  0  0
 23 10  2  0  0  0  0
 23 28  1  0  0  0  0
 25 27  1  0  0  0  0
 27 21  1  0  0  0  0
 27  1  1  6  0  0  0
 28 15  2  0  0  0  0
 29 30  1  0  0  0  0
 30 23  1  0  0  0  0
 31 30  2  0  0  0  0
 32 34  2  0  0  0  0
 33 34  1  0  0  0  0
 33 35  1  0  0  0  0
 34 31  1  0  0  0  0
 35 29  2  0  0  0  0
 36 37  1  0  0  0  0
M  END
>  <MODEL>
2

>  <REMARK>
 VINA RESULT:      -6.3      2.350      8.428
  Name = 
  2 active torsions:
  status: ('A' for Active; 'I' for Inactive)
    1  A    between atoms: N_4  and  C_37
    2  A    between atoms: C_23  and  C_30
                            x       y       z     vdW  Elec       q    Type
                         _______ _______ _______ _____ _____    ______ ____

>  <TORSDO>
F 2

$$$$
=
 OpenBabel11122413343D

 37 43  0  0  1  0  0  0  0  0999 V2000
  161.4770  210.6580  148.1380 C   0  0  0  0  0  2  0  0  0  0  0  0
  162.3530  206.0120  147.2040 C   0  0  0  0  0  0  0  0  0  0  0  0
  160.8200  207.0060  151.0100 C   0  0  0  0  0  0  0  0  0  0  0  0
  161.3700  212.1120  148.1650 N   0  0  0  0  0  0  0  0  0  0  0  0
  160.5700  210.5100  152.2650 C   0  0  0  0  0  2  0  0  0  0  0  0
  160.9980  205.3230  149.2670 C   0  0  0  0  0  0  0  0  0  0  0  0
  161.1560  208.2840  151.1060 C   0  0  0  0  0  0  0  0  0  0  0  0
  159.7960  213.2130  149.7190 C   0  0  2  0  0  3  0  0  0  0  0  0
  161.0960  206.5690  149.6840 C   0  0  0  0  0  0  0  0  0  0  0  0
  161.0870  209.0890  152.3570 C   0  0  0  0  0  0  0  0  0  0  0  0
  160.4880  204.3170  150.2300 C   0  0  0  0  0  3  0  0  0  0  0  0
  159.9680  212.3990  148.4340 C   0  0  0  0  0  2  0  0  0  0  0  0
  161.6420  207.6630  148.9520 C   0  0  0  0  0  0  0  0  0  0  0  0
  162.3310  205.8320  145.7030 C   0  0  0  0  0  1  0  0  0  0  0  0
  161.3830  206.0530  153.1640 C   0  0  0  0  0  3  0  0  0  0  0  0
  160.1940  204.6570  151.5070 C   0  0  0  0  0  3  0  0  0  0  0  0
  162.0410  207.5020  147.5180 C   0  0  0  0  0  2  0  0  0  0  0  0
  160.4710  212.6520  150.9800 C   0  0  0  0  0  2  0  0  0  0  0  0
  160.7870  211.1660  150.9100 C   0  0  1  0  0  3  0  0  0  0  0  0
  160.3660  206.0670  152.0740 C   0  0  2  0  0  3  0  0  0  0  0  0
  161.6620  208.7240  149.7680 C   0  0  0  0  0  0  0  0  0  0  0  0
  161.3380  205.0150  147.8300 C   0  0  0  0  0  2  0  0  0  0  0  0
  161.4020  208.5660  153.5810 C   0  0  0  0  0  0  0  0  0  0  0  0
  163.7520  205.6790  147.6950 C   0  0  0  0  0  1  0  0  0  0  0  0
  162.1220  211.0020  150.5020 O   0  0  0  0  0  0  0  0  0  0  0  0
  158.3190  213.3990  149.9880 C   0  0  0  0  0  1  0  0  0  0  0  0
  162.1540  210.1080  149.4080 C   0  0  2  0  0  3  0  0  0  0  0  0
  161.7990  207.1470  153.8130 C   0  0  0  0  0  3  0  0  0  0  0  0
  162.7940  209.9250  155.2430 C   0  0  0  0  0  3  0  0  0  0  0  0
  161.4780  209.4190  154.7970 C   0  0  0  0  0  0  0  0  0  0  0  0
  160.3710  209.7760  155.4600 C   0  0  0  0  0  3  0  0  0  0  0  0
  159.3900  210.9400  157.2610 O   0  0  0  0  0  0  0  0  0  0  0  0
  161.7500  211.2470  157.0830 C   0  0  0  0  0  2  0  0  0  0  0  0
  160.4400  210.6620  156.6300 C   0  0  0  0  0  0  0  0  0  0  0  0
  162.9240  210.7520  156.2810 C   0  0  0  0  0  3  0  0  0  0  0  0
  160.3380  212.6540  146.0380 C   0  0  0  0  0  1  0  0  0  0  0  0
  161.6370  212.5820  146.8160 C   0  0  0  0  0  2  0  0  0  0  0  0
  1  4  1  0  0  0  0
  2 17  1  0  0  0  0
  2 24  1  0  0  0  0
  2 22  1  0  0  0  0
  3  7  2  0  0  0  0
  3 20  1  0  0  0  0
  4 12  1  0  0  0  0
  5 10  1  0  0  0  0
  6  9  2  0  0  0  0
  6 11  1  0  0  0  0
  7 10  1  0  0  0  0
  8 26  1  1  0  0  0
  8 18  1  0  0  0  0
  9  3  1  0  0  0  0
 10 23  2  0  0  0  0
 11 16  2  0  0  0  0
 12  8  1  0  0  0  0
 13  9  1  0  0  0  0
 13 21  2  0  0  0  0
 14  2  1  0  0  0  0
 15 28  2  0  0  0  0
 17 13  1  0  0  0  0
 19 18  1  1  0  0  0
 19  5  1  0  0  0  0
 20 16  1  6  0  0  0
 20 15  1  0  0  0  0
 21  7  1  0  0  0  0
 22  6  1  0  0  0  0
 23 28  1  0  0  0  0
 23 30  1  0  0  0  0
 25 19  1  0  0  0  0
 27  1  1  6  0  0  0
 27 21  1  0  0  0  0
 27 25  1  0  0  0  0
 29 35  2  0  0  0  0
 30 29  1  0  0  0  0
 30 31  2  0  0  0  0
 31 34  1  0  0  0  0
 34 33  1  0  0  0  0
 34 32  2  0  0  0  0
 35 33  1  0  0  0  0
 36 37  1  0  0  0  0
 37  4  1  0  0  0  0
M  END
>  <MODEL>
3

>  <REMARK>
 VINA RESULT:      -5.6      1.178      1.539
  Name = 
  2 active torsions:
  status: ('A' for Active; 'I' for Inactive)
    1  A    between atoms: N_4  and  C_37
    2  A    between atoms: C_23  and  C_30
                            x       y       z     vdW  Elec       q    Type
                         _______ _______ _______ _____ _____    ______ ____

>  <TORSDO>
F 2

$$$$
=
 OpenBabel11122413343D

 37 43  0  0  1  0  0  0  0  0999 V2000
  161.8240  206.6260  152.2050 C   0  0  0  0  0  2  0  0  0  0  0  0
  160.3820  208.9730  156.1600 C   0  0  0  0  0  0  0  0  0  0  0  0
  159.8200  210.8630  152.4270 C   0  0  0  0  0  0  0  0  0  0  0  0
  162.3990  205.7330  151.2070 N   0  0  0  0  0  0  0  0  0  0  0  0
  161.3200  209.6080  149.2500 C   0  0  0  0  0  2  0  0  0  0  0  0
  159.0510  210.6220  154.7190 C   0  0  0  0  0  0  0  0  0  0  0  0
  160.7130  210.2370  151.6750 C   0  0  0  0  0  0  0  0  0  0  0  0
  161.6510  205.8510  148.8550 C   0  0  2  0  0  3  0  0  0  0  0  0
  159.7460  210.1980  153.6830 C   0  0  0  0  0  0  0  0  0  0  0  0
  161.1320  210.6710  150.3140 C   0  0  0  0  0  0  0  0  0  0  0  0
  158.2230  211.8390  154.5350 C   0  0  0  0  0  3  0  0  0  0  0  0
  161.3150  205.4210  150.2860 C   0  0  0  0  0  2  0  0  0  0  0  0
  160.6670  209.1100  153.6720 C   0  0  0  0  0  0  0  0  0  0  0  0
  160.1470  207.9470  157.2450 C   0  0  0  0  0  1  0  0  0  0  0  0
  160.0720  213.2060  151.8650 C   0  0  0  0  0  3  0  0  0  0  0  0
  158.2330  212.5230  153.3670 C   0  0  0  0  0  3  0  0  0  0  0  0
  160.8180  208.2230  154.8700 C   0  0  0  0  0  2  0  0  0  0  0  0
  162.1020  207.3080  148.6670 C   0  0  0  0  0  2  0  0  0  0  0  0
  161.6930  208.2390  149.7970 C   0  0  1  0  0  3  0  0  0  0  0  0
  159.0820  212.1300  152.1580 C   0  0  2  0  0  3  0  0  0  0  0  0
  161.2440  209.0820  152.4650 C   0  0  0  0  0  0  0  0  0  0  0  0
  159.0820  209.8090  155.9890 C   0  0  0  0  0  2  0  0  0  0  0  0
  161.2790  211.9890  149.9800 C   0  0  0  0  0  0  0  0  0  0  0  0
  161.5090  209.8840  156.6150 C   0  0  0  0  0  1  0  0  0  0  0  0
  162.7610  208.3550  150.7020 O   0  0  0  0  0  0  0  0  0  0  0  0
  160.4540  205.5830  147.9690 C   0  0  0  0  0  1  0  0  0  0  0  0
  162.2820  208.0840  152.0040 C   0  0  2  0  0  3  0  0  0  0  0  0
  160.9990  213.1280  150.9030 C   0  0  0  0  0  3  0  0  0  0  0  0
  163.2920  212.2250  148.4190 C   0  0  0  0  0  3  0  0  0  0  0  0
  161.8460  212.4030  148.6690 C   0  0  0  0  0  0  0  0  0  0  0  0
  161.0590  212.8840  147.6980 C   0  0  0  0  0  3  0  0  0  0  0  0
  160.8550  213.7390  145.5100 O   0  0  0  0  0  0  0  0  0  0  0  0
  163.0630  213.0230  146.0660 C   0  0  0  0  0  2  0  0  0  0  0  0
  161.6100  213.2440  146.3840 C   0  0  0  0  0  0  0  0  0  0  0  0
  163.8510  212.5070  147.2400 C   0  0  0  0  0  3  0  0  0  0  0  0
  161.4800  203.6520  152.0510 C   0  0  0  0  0  1  0  0  0  0  0  0
  162.7320  204.4930  151.8900 C   0  0  0  0  0  2  0  0  0  0  0  0
  2 24  1  0  0  0  0
  2 14  1  0  0  0  0
  3  9  1  0  0  0  0
  4 37  1  0  0  0  0
  4  1  1  0  0  0  0
  5 19  1  0  0  0  0
  5 10  1  0  0  0  0
  6 22  1  0  0  0  0
  7  3  2  0  0  0  0
  7 21  1  0  0  0  0
  8 26  1  6  0  0  0
  8 12  1  0  0  0  0
  9  6  2  0  0  0  0
 10  7  1  0  0  0  0
 11  6  1  0  0  0  0
 12  4  1  0  0  0  0
 13  9  1  0  0  0  0
 13 17  1  0  0  0  0
 16 11  2  0  0  0  0
 17  2  1  0  0  0  0
 18  8  1  0  0  0  0
 19 18  1  6  0  0  0
 19 25  1  0  0  0  0
 20 15  1  1  0  0  0
 20  3  1  0  0  0  0
 20 16  1  0  0  0  0
 21 13  2  0  0  0  0
 22  2  1  0  0  0  0
 23 10  2  0  0  0  0
 23 28  1  0  0  0  0
 25 27  1  0  0  0  0
 27  1  1  6  0  0  0
 27 21  1  0  0  0  0
 28 15  2  0  0  0  0
 29 30  1  0  0  0  0
 30 23  1  0  0  0  0
 31 30  2  0  0  0  0
 32 34  2  0  0  0  0
 33 34  1  0  0  0  0
 33 35  1  0  0  0  0
 34 31  1  0  0  0  0
 35 29  2  0  0  0  0
 37 36  1  0  0  0  0
M  END
>  <MODEL>
4

>  <REMARK>
 VINA RESULT:      -4.4      2.231      7.981
  Name = 
  2 active torsions:
  status: ('A' for Active; 'I' for Inactive)
    1  A    between atoms: N_4  and  C_37
    2  A    between atoms: C_23  and  C_30
                            x       y       z     vdW  Elec       q    Type
                         _______ _______ _______ _____ _____    ______ ____

>  <TORSDO>
F 2

$$$$
=
 OpenBabel11122413343D

 37 43  0  0  1  0  0  0  0  0999 V2000
  160.2180  212.9010  151.2920 C   0  0  0  0  0  2  0  0  0  0  0  0
  159.2920  213.0060  156.0200 C   0  0  0  0  0  0  0  0  0  0  0  0
  161.3450  209.6520  154.4840 C   0  0  0  0  0  0  0  0  0  0  0  0
  160.3040  213.1030  149.8510 N   0  0  0  0  0  0  0  0  0  0  0  0
  161.7160  208.9740  150.8350 C   0  0  0  0  0  2  0  0  0  0  0  0
  160.9430  211.0840  156.4050 C   0  0  0  0  0  0  0  0  0  0  0  0
  161.0060  209.6960  153.2050 C   0  0  0  0  0  0  0  0  0  0  0  0
  162.0680  211.9730  148.5410 C   0  0  2  0  0  3  0  0  0  0  0  0
  160.8860  210.8450  155.1110 C   0  0  0  0  0  0  0  0  0  0  0  0
  161.2420  208.6000  152.2250 C   0  0  0  0  0  0  0  0  0  0  0  0
  161.6050  210.0690  157.2600 C   0  0  0  0  0  3  0  0  0  0  0  0
  161.7250  213.0870  149.5350 C   0  0  0  0  0  2  0  0  0  0  0  0
  160.2220  211.6420  154.1340 C   0  0  0  0  0  0  0  0  0  0  0  0
  159.0990  214.4510  156.4200 C   0  0  0  0  0  1  0  0  0  0  0  0
  161.1160  207.3220  155.1070 C   0  0  0  0  0  3  0  0  0  0  0  0
  162.0750  208.9120  156.7380 C   0  0  0  0  0  3  0  0  0  0  0  0
  159.6220  212.9630  154.5020 C   0  0  0  0  0  2  0  0  0  0  0  0
  161.5920  210.5590  148.9070 C   0  0  0  0  0  2  0  0  0  0  0  0
  161.2940  210.3640  150.3850 C   0  0  1  0  0  3  0  0  0  0  0  0
  161.9640  208.5390  155.2590 C   0  0  2  0  0  3  0  0  0  0  0  0
  160.3030  210.9950  152.9640 C   0  0  0  0  0  0  0  0  0  0  0  0
  160.4040  212.3960  156.9200 C   0  0  0  0  0  2  0  0  0  0  0  0
  161.1170  207.2800  152.5600 C   0  0  0  0  0  0  0  0  0  0  0  0
  157.9850  212.2730  156.2700 C   0  0  0  0  0  1  0  0  0  0  0  0
  159.9170  210.5440  150.6010 O   0  0  0  0  0  0  0  0  0  0  0  0
  163.5650  211.9530  148.3250 C   0  0  0  0  0  1  0  0  0  0  0  0
  159.7410  211.4780  151.6460 C   0  0  2  0  0  3  0  0  0  0  0  0
  160.7810  206.7870  153.9280 C   0  0  0  0  0  3  0  0  0  0  0  0
  161.5580  204.8320  151.9610 C   0  0  0  0  0  3  0  0  0  0  0  0
  161.2040  206.2040  151.5370 C   0  0  0  0  0  0  0  0  0  0  0  0
  160.9160  206.4480  150.2520 C   0  0  0  0  0  3  0  0  0  0  0  0
  160.7250  205.6430  148.0440 O   0  0  0  0  0  0  0  0  0  0  0  0
  161.2470  203.9530  149.6470 C   0  0  0  0  0  2  0  0  0  0  0  0
  160.9510  205.3730  149.2500 C   0  0  0  0  0  0  0  0  0  0  0  0
  161.5820  203.8070  151.1070 C   0  0  0  0  0  3  0  0  0  0  0  0
  158.7890  214.4180  148.4860 C   0  0  0  0  0  1  0  0  0  0  0  0
  159.8350  214.4530  149.5830 C   0  0  0  0  0  2  0  0  0  0  0  0
  2 24  1  0  0  0  0
  2 14  1  0  0  0  0
  2 22  1  0  0  0  0
  3  9  1  0  0  0  0
  3 20  1  0  0  0  0
  4  1  1  0  0  0  0
  5 10  1  0  0  0  0
  6 22  1  0  0  0  0
  6 11  1  0  0  0  0
  7  3  2  0  0  0  0
  8 26  1  1  0  0  0
  8 18  1  0  0  0  0
  8 12  1  0  0  0  0
  9  6  2  0  0  0  0
 10 23  2  0  0  0  0
 10  7  1  0  0  0  0
 12  4  1  0  0  0  0
 13 17  1  0  0  0  0
 13  9  1  0  0  0  0
 16 11  2  0  0  0  0
 17  2  1  0  0  0  0
 19 18  1  6  0  0  0
 19 25  1  0  0  0  0
 19  5  1  0  0  0  0
 20 15  1  1  0  0  0
 20 16  1  0  0  0  0
 21  7  1  0  0  0  0
 21 13  2  0  0  0  0
 23 28  1  0  0  0  0
 25 27  1  0  0  0  0
 27  1  1  6  0  0  0
 27 21  1  0  0  0  0
 28 15  2  0  0  0  0
 30 29  1  0  0  0  0
 30 23  1  0  0  0  0
 31 30  2  0  0  0  0
 32 34  2  0  0  0  0
 33 35  1  0  0  0  0
 34 33  1  0  0  0  0
 34 31  1  0  0  0  0
 35 29  2  0  0  0  0
 36 37  1  0  0  0  0
 37  4  1  0  0  0  0
M  END
>  <MODEL>
5

>  <REMARK>
 VINA RESULT:      -4.4      2.294      6.965
  Name = 
  2 active torsions:
  status: ('A' for Active; 'I' for Inactive)
    1  A    between atoms: N_4  and  C_37
    2  A    between atoms: C_23  and  C_30
                            x       y       z     vdW  Elec       q    Type
                         _______ _______ _______ _____ _____    ______ ____

>  <TORSDO>
F 2

$$$$
