=
 OpenBabel11122414313D

 34 40  0  0  1  0  0  0  0  0999 V2000
  161.1060  207.3430  154.3700 C   0  0  1  0  0  3  0  0  0  0  0  0
  161.1610  204.9690  153.3910 C   0  0  0  0  0  2  0  0  0  0  0  0
  158.2260  213.3610  153.5450 C   0  0  2  0  0  3  0  0  0  0  0  0
  160.0980  209.6350  154.9870 C   0  0  1  0  0  3  0  0  0  0  0  0
  159.4470  211.2880  153.2000 C   0  0  1  0  0  3  0  0  0  0  0  0
  158.8270  213.1930  151.5120 C   0  0  0  0  0  2  0  0  0  0  0  0
  157.7890  214.0250  152.2590 C   0  0  0  0  0  2  0  0  0  0  0  0
  159.5770  213.4260  155.6710 C   0  0  0  0  0  2  0  0  0  0  0  0
  161.5540  206.8460  152.0090 C   0  0  2  0  0  3  0  0  0  0  0  0
  160.2880  210.5310  152.1770 C   0  0  0  0  0  2  0  0  0  0  0  0
  159.2690  211.9140  155.7060 C   0  0  0  0  0  2  0  0  0  0  0  0
  161.0920  208.1970  151.4500 C   0  0  1  0  0  3  0  0  0  0  0  0
  161.3870  204.4560  151.9700 C   0  0  0  0  0  2  0  0  0  0  0  0
  160.0470  211.1250  154.6240 C   0  0  1  0  0  3  0  0  0  0  0  0
  158.7020  214.2360  154.6900 C   0  0  0  0  0  2  0  0  0  0  0  0
  160.9350  208.8450  153.9650 C   0  0  2  0  0  3  0  0  0  0  0  0
  159.4160  212.7650  152.8450 C   0  0  1  0  0  3  0  0  0  0  0  0
  160.3720  209.0460  152.5360 C   0  0  1  0  0  3  0  0  0  0  0  0
  160.6410  207.9100  156.7820 C   0  0  0  0  0  2  0  0  0  0  0  0
  160.6630  209.3950  156.3900 C   0  0  0  0  0  2  0  0  0  0  0  0
  161.4490  205.6790  151.0590 C   0  0  0  0  0  2  0  0  0  0  0  0
  160.3020  206.9720  155.6200 C   0  0  0  0  0  2  0  0  0  0  0  0
  160.7620  206.4160  153.2090 C   0  0  2  0  0  3  0  0  0  0  0  0
  162.3030  208.9260  150.8630 C   0  0  0  0  0  2  0  0  0  0  0  0
  162.0660  209.3180  149.4130 C   0  0  0  0  0  2  0  0  0  0  0  0
  161.4770  208.1540  148.6410 C   0  0  0  0  0  2  0  0  0  0  0  0
  162.5940  207.2630  148.1430 C   0  0  0  0  0  2  0  0  0  0  0  0
  162.0920  206.4190  146.9890 C   0  0  0  0  0  2  0  0  0  0  0  0
  161.1640  205.3240  147.4900 C   0  0  0  0  0  2  0  0  0  0  0  0
  160.7730  202.0410  147.8400 C   0  0  0  0  0  2  0  0  0  0  0  0
  161.2990  203.2660  146.0960 C   0  0  0  0  0  2  0  0  0  0  0  0
  161.7990  203.9480  147.3340 C   0  0  2  0  0  3  0  0  0  0  0  0
  161.0280  201.9560  146.4650 O   0  0  0  0  0  0  0  0  0  0  0  0
  161.4420  203.1380  148.4090 O   0  0  0  0  0  0  0  0  0  0  0  0
  1 22  1  1  0  0  0
  3  7  1  6  0  0  0
  3 15  1  0  0  0  0
  4 20  1  1  0  0  0
  5 10  1  6  0  0  0
  5 14  1  0  0  0  0
  6  7  1  0  0  0  0
  6 17  1  0  0  0  0
  8 11  1  0  0  0  0
  9 21  1  6  0  0  0
  9 23  1  0  0  0  0
 10 18  1  0  0  0  0
 12 24  1  1  0  0  0
 12  9  1  0  0  0  0
 12 18  1  0  0  0  0
 13  2  1  0  0  0  0
 14  4  1  0  0  0  0
 14 11  1  1  0  0  0
 15  8  1  0  0  0  0
 16  1  1  0  0  0  0
 16  4  1  0  0  0  0
 17  5  1  0  0  0  0
 17  3  1  0  0  0  0
 18 16  1  0  0  0  0
 20 19  1  0  0  0  0
 21 13  1  0  0  0  0
 22 19  1  0  0  0  0
 23  2  1  0  0  0  0
 23  1  1  0  0  0  0
 25 24  1  0  0  0  0
 26 25  1  0  0  0  0
 27 26  1  0  0  0  0
 28 29  1  0  0  0  0
 28 27  1  0  0  0  0
 30 34  1  0  0  0  0
 31 33  1  0  0  0  0
 31 32  1  0  0  0  0
 32 29  1  0  0  0  0
 32 34  1  0  0  0  0
 33 30  1  0  0  0  0
M  END
>  <MODEL>
1

>  <REMARK>
 VINA RESULT:      -9.3      0.000      0.000
  Name = 
  7 active torsions:
  status: ('A' for Active; 'I' for Inactive)
    1  A    between atoms: C_10  and  C_17
    2  A    between atoms: C_10  and  C_22
    3  A    between atoms: C_13  and  C_24
    4  A    between atoms: C_17  and  C_28
    5  A    between atoms: C_22  and  C_24
    6  A    between atoms: C_28  and  C_29
    7  A    between atoms: C_29  and  C_32
                            x       y       z     vdW  Elec       q    Type
                         _______ _______ _______ _____ _____    ______ ____

>  <TORSDO>
F 7

$$$$
=
 OpenBabel11122414313D

 34 40  0  0  1  0  0  0  0  0999 V2000
  161.4330  205.0670  150.1940 C   0  0  1  0  0  3  0  0  0  0  0  0
  160.9610  204.3370  147.7780 C   0  0  0  0  0  2  0  0  0  0  0  0
  159.6470  209.6140  154.8130 C   0  0  2  0  0  3  0  0  0  0  0  0
  160.9240  206.0700  152.5140 C   0  0  1  0  0  3  0  0  0  0  0  0
  160.4280  208.5260  152.7850 C   0  0  1  0  0  3  0  0  0  0  0  0
  160.0180  211.0620  153.3000 C   0  0  0  0  0  2  0  0  0  0  0  0
  159.2230  211.0490  154.6020 C   0  0  0  0  0  2  0  0  0  0  0  0
  161.1750  207.9400  155.9140 C   0  0  0  0  0  2  0  0  0  0  0  0
  161.5650  206.5700  148.2600 C   0  0  2  0  0  3  0  0  0  0  0  0
  161.0180  208.8090  151.4070 C   0  0  0  0  0  2  0  0  0  0  0  0
  160.5980  206.9790  154.8530 C   0  0  0  0  0  2  0  0  0  0  0  0
  161.3100  207.8730  149.0270 C   0  0  1  0  0  3  0  0  0  0  0  0
  160.9580  205.1090  146.4600 C   0  0  0  0  0  2  0  0  0  0  0  0
  161.1160  207.2890  153.4270 C   0  0  1  0  0  3  0  0  0  0  0  0
  160.3780  209.2510  156.0920 C   0  0  0  0  0  2  0  0  0  0  0  0
  161.5060  206.3320  151.1130 C   0  0  2  0  0  3  0  0  0  0  0  0
  160.6380  209.7300  153.6870 C   0  0  1  0  0  3  0  0  0  0  0  0
  160.8600  207.5940  150.4890 C   0  0  1  0  0  3  0  0  0  0  0  0
  161.3030  203.5680  152.2180 C   0  0  0  0  0  2  0  0  0  0  0  0
  161.5610  204.8040  153.0930 C   0  0  0  0  0  2  0  0  0  0  0  0
  161.1600  206.5820  146.8060 C   0  0  0  0  0  2  0  0  0  0  0  0
  160.6930  203.8990  150.8530 C   0  0  0  0  0  2  0  0  0  0  0  0
  160.8200  205.4030  148.8400 C   0  0  2  0  0  3  0  0  0  0  0  0
  162.5760  208.7320  148.9700 C   0  0  0  0  0  2  0  0  0  0  0  0
  162.3010  210.0850  148.3340 C   0  0  0  0  0  2  0  0  0  0  0  0
  162.2980  211.1740  149.3900 C   0  0  0  0  0  2  0  0  0  0  0  0
  161.4960  212.3560  148.8900 C   0  0  0  0  0  2  0  0  0  0  0  0
  161.4570  212.3360  147.3740 C   0  0  0  0  0  2  0  0  0  0  0  0
  162.4010  213.3800  146.8010 C   0  0  0  0  0  2  0  0  0  0  0  0
  162.7960  212.9540  143.5270 C   0  0  0  0  0  2  0  0  0  0  0  0
  161.0190  212.8120  144.8100 C   0  0  0  0  0  2  0  0  0  0  0  0
  161.9670  213.8100  145.4060 C   0  0  2  0  0  3  0  0  0  0  0  0
  161.4330  212.6300  143.4980 O   0  0  0  0  0  0  0  0  0  0  0  0
  163.0740  213.8640  144.5620 O   0  0  0  0  0  0  0  0  0  0  0  0
  1 22  1  1  0  0  0
  1 16  1  0  0  0  0
  2 23  1  0  0  0  0
  3  7  1  1  0  0  0
  3 15  1  0  0  0  0
  4 20  1  1  0  0  0
  4 14  1  0  0  0  0
  5 10  1  6  0  0  0
  5 14  1  0  0  0  0
  5 17  1  0  0  0  0
  6 17  1  0  0  0  0
  6  7  1  0  0  0  0
  8 15  1  0  0  0  0
  9 21  1  6  0  0  0
  9 23  1  0  0  0  0
  9 12  1  0  0  0  0
 11  8  1  0  0  0  0
 12 24  1  1  0  0  0
 12 18  1  0  0  0  0
 13 21  1  0  0  0  0
 13  2  1  0  0  0  0
 14 11  1  1  0  0  0
 16  4  1  0  0  0  0
 17  3  1  0  0  0  0
 18 16  1  0  0  0  0
 18 10  1  0  0  0  0
 19 20  1  0  0  0  0
 22 19  1  0  0  0  0
 23  1  1  0  0  0  0
 25 24  1  0  0  0  0
 25 26  1  0  0  0  0
 27 26  1  0  0  0  0
 28 27  1  0  0  0  0
 29 28  1  0  0  0  0
 30 34  1  0  0  0  0
 31 32  1  0  0  0  0
 32 29  1  0  0  0  0
 33 30  1  0  0  0  0
 33 31  1  0  0  0  0
 34 32  1  0  0  0  0
M  END
>  <MODEL>
2

>  <REMARK>
 VINA RESULT:      -8.4      3.590      5.946
  Name = 
  7 active torsions:
  status: ('A' for Active; 'I' for Inactive)
    1  A    between atoms: C_10  and  C_17
    2  A    between atoms: C_10  and  C_22
    3  A    between atoms: C_13  and  C_24
    4  A    between atoms: C_17  and  C_28
    5  A    between atoms: C_22  and  C_24
    6  A    between atoms: C_28  and  C_29
    7  A    between atoms: C_29  and  C_32
                            x       y       z     vdW  Elec       q    Type
                         _______ _______ _______ _____ _____    ______ ____

>  <TORSDO>
F 7

$$$$
=
 OpenBabel11122414313D

 34 40  0  0  1  0  0  0  0  0999 V2000
  161.4050  205.1610  150.3550 C   0  0  1  0  0  3  0  0  0  0  0  0
  160.9530  204.4470  147.9290 C   0  0  0  0  0  2  0  0  0  0  0  0
  159.6050  209.7010  154.9740 C   0  0  2  0  0  3  0  0  0  0  0  0
  160.8790  206.1580  152.6730 C   0  0  1  0  0  3  0  0  0  0  0  0
  160.4000  208.6170  152.9500 C   0  0  1  0  0  3  0  0  0  0  0  0
  160.0050  211.1540  153.4730 C   0  0  0  0  0  2  0  0  0  0  0  0
  159.1960  211.1410  154.7660 C   0  0  0  0  0  2  0  0  0  0  0  0
  161.1070  208.0090  156.0840 C   0  0  0  0  0  2  0  0  0  0  0  0
  161.5700  206.6730  148.4280 C   0  0  2  0  0  3  0  0  0  0  0  0
  161.0080  208.9010  151.5800 C   0  0  0  0  0  2  0  0  0  0  0  0
  160.5340  207.0580  155.0130 C   0  0  0  0  0  2  0  0  0  0  0  0
  161.3180  207.9740  149.2000 C   0  0  1  0  0  3  0  0  0  0  0  0
  160.9710  205.2250  146.6150 C   0  0  0  0  0  2  0  0  0  0  0  0
  161.0700  207.3710  153.5940 C   0  0  1  0  0  3  0  0  0  0  0  0
  160.3190  209.3260  156.2600 C   0  0  0  0  0  2  0  0  0  0  0  0
  161.4780  206.4210  151.2800 C   0  0  2  0  0  3  0  0  0  0  0  0
  160.6090  209.8150  153.8610 C   0  0  1  0  0  3  0  0  0  0  0  0
  160.8500  207.6920  150.6550 C   0  0  1  0  0  3  0  0  0  0  0  0
  161.2400  203.6540  152.3690 C   0  0  0  0  0  2  0  0  0  0  0  0
  161.4990  204.8840  153.2530 C   0  0  0  0  0  2  0  0  0  0  0  0
  161.1820  206.6950  146.9710 C   0  0  0  0  0  2  0  0  0  0  0  0
  160.6480  203.9970  150.9990 C   0  0  0  0  0  2  0  0  0  0  0  0
  160.8090  205.5090  148.9950 C   0  0  2  0  0  3  0  0  0  0  0  0
  162.5910  208.8220  149.1610 C   0  0  0  0  0  2  0  0  0  0  0  0
  162.4160  210.0470  148.2770 C   0  0  0  0  0  2  0  0  0  0  0  0
  162.1070  211.2680  149.1220 C   0  0  0  0  0  2  0  0  0  0  0  0
  162.4740  212.5180  148.3520 C   0  0  0  0  0  2  0  0  0  0  0  0
  161.2720  213.4400  148.2830 C   0  0  0  0  0  2  0  0  0  0  0  0
  160.4350  213.3230  149.5470 C   0  0  0  0  0  2  0  0  0  0  0  0
  157.4150  213.1310  148.1700 C   0  0  0  0  0  2  0  0  0  0  0  0
  158.0500  213.3530  150.2600 C   0  0  0  0  0  2  0  0  0  0  0  0
  159.0770  213.9910  149.3730 C   0  0  2  0  0  3  0  0  0  0  0  0
  156.9150  213.1950  149.4770 O   0  0  0  0  0  0  0  0  0  0  0  0
  158.6330  213.8240  148.0630 O   0  0  0  0  0  0  0  0  0  0  0  0
  1 22  1  1  0  0  0
  1 16  1  0  0  0  0
  2 23  1  0  0  0  0
  3  7  1  1  0  0  0
  3 15  1  0  0  0  0
  4 20  1  1  0  0  0
  4 14  1  0  0  0  0
  5 10  1  6  0  0  0
  5 14  1  0  0  0  0
  5 17  1  0  0  0  0
  6 17  1  0  0  0  0
  6  7  1  0  0  0  0
  8 15  1  0  0  0  0
  9 21  1  6  0  0  0
  9 23  1  0  0  0  0
  9 12  1  0  0  0  0
 11  8  1  0  0  0  0
 12 24  1  1  0  0  0
 12 18  1  0  0  0  0
 13 21  1  0  0  0  0
 13  2  1  0  0  0  0
 14 11  1  1  0  0  0
 16  4  1  0  0  0  0
 17  3  1  0  0  0  0
 18 16  1  0  0  0  0
 18 10  1  0  0  0  0
 19 20  1  0  0  0  0
 22 19  1  0  0  0  0
 23  1  1  0  0  0  0
 25 26  1  0  0  0  0
 25 24  1  0  0  0  0
 27 26  1  0  0  0  0
 28 27  1  0  0  0  0
 28 29  1  0  0  0  0
 30 33  1  0  0  0  0
 32 29  1  0  0  0  0
 32 31  1  0  0  0  0
 33 31  1  0  0  0  0
 34 30  1  0  0  0  0
 34 32  1  0  0  0  0
M  END
>  <MODEL>
3

>  <REMARK>
 VINA RESULT:      -8.2      3.134      6.074
  Name = 
  7 active torsions:
  status: ('A' for Active; 'I' for Inactive)
    1  A    between atoms: C_10  and  C_17
    2  A    between atoms: C_10  and  C_22
    3  A    between atoms: C_13  and  C_24
    4  A    between atoms: C_17  and  C_28
    5  A    between atoms: C_22  and  C_24
    6  A    between atoms: C_28  and  C_29
    7  A    between atoms: C_29  and  C_32
                            x       y       z     vdW  Elec       q    Type
                         _______ _______ _______ _____ _____    ______ ____

>  <TORSDO>
F 7

$$$$
=
 OpenBabel11122414313D

 34 40  0  0  1  0  0  0  0  0999 V2000
  161.1170  207.4680  154.3690 C   0  0  1  0  0  3  0  0  0  0  0  0
  161.2920  205.2150  153.1470 C   0  0  0  0  0  2  0  0  0  0  0  0
  157.9860  213.4120  154.1230 C   0  0  2  0  0  3  0  0  0  0  0  0
  159.9990  209.6360  155.2020 C   0  0  1  0  0  3  0  0  0  0  0  0
  159.3030  211.4410  153.5870 C   0  0  1  0  0  3  0  0  0  0  0  0
  158.6250  213.4850  152.0950 C   0  0  0  0  0  2  0  0  0  0  0  0
  157.5400  214.1880  152.9050 C   0  0  0  0  0  2  0  0  0  0  0  0
  159.3010  213.3080  156.2700 C   0  0  0  0  0  2  0  0  0  0  0  0
  161.6220  207.2420  151.9780 C   0  0  2  0  0  3  0  0  0  0  0  0
  160.1920  210.8320  152.5070 C   0  0  0  0  0  2  0  0  0  0  0  0
  159.0590  211.7900  156.1400 C   0  0  0  0  0  2  0  0  0  0  0  0
  161.1090  208.6240  151.5550 C   0  0  1  0  0  3  0  0  0  0  0  0
  161.5620  204.8650  151.6860 C   0  0  0  0  0  2  0  0  0  0  0  0
  159.8880  211.1530  154.9980 C   0  0  1  0  0  3  0  0  0  0  0  0
  158.4060  214.1800  155.3620 C   0  0  0  0  0  2  0  0  0  0  0  0
  160.8860  208.9960  154.1200 C   0  0  2  0  0  3  0  0  0  0  0  0
  159.2120  212.9440  153.3880 C   0  0  1  0  0  3  0  0  0  0  0  0
  160.3360  209.3220  152.7090 C   0  0  1  0  0  3  0  0  0  0  0  0
  160.5910  207.7570  156.8180 C   0  0  0  0  0  2  0  0  0  0  0  0
  160.5530  209.2740  156.5830 C   0  0  0  0  0  2  0  0  0  0  0  0
  161.5840  206.1790  150.9090 C   0  0  0  0  0  2  0  0  0  0  0  0
  160.3120  206.9330  155.5570 C   0  0  0  0  0  2  0  0  0  0  0  0
  160.8320  206.6550  153.1110 C   0  0  2  0  0  3  0  0  0  0  0  0
  162.2960  209.4610  151.0720 C   0  0  0  0  0  2  0  0  0  0  0  0
  162.1370  209.8600  149.6130 C   0  0  0  0  0  2  0  0  0  0  0  0
  162.0150  211.3670  149.4880 C   0  0  0  0  0  2  0  0  0  0  0  0
  162.0020  211.7500  148.0240 C   0  0  0  0  0  2  0  0  0  0  0  0
  161.8870  213.2570  147.8970 C   0  0  0  0  0  2  0  0  0  0  0  0
  160.4670  213.6550  147.5270 C   0  0  0  0  0  2  0  0  0  0  0  0
  157.7420  212.7390  145.8560 C   0  0  0  0  0  2  0  0  0  0  0  0
  159.8640  212.7390  145.2920 C   0  0  0  0  0  2  0  0  0  0  0  0
  159.7590  212.5360  146.7740 C   0  0  2  0  0  3  0  0  0  0  0  0
  158.6010  212.4780  144.7800 O   0  0  0  0  0  0  0  0  0  0  0  0
  158.4000  212.5450  147.0830 O   0  0  0  0  0  0  0  0  0  0  0  0
  1 22  1  1  0  0  0
  3  7  1  6  0  0  0
  3 15  1  0  0  0  0
  4 20  1  1  0  0  0
  5 10  1  6  0  0  0
  5 14  1  0  0  0  0
  6  7  1  0  0  0  0
  6 17  1  0  0  0  0
  9 21  1  6  0  0  0
  9 23  1  0  0  0  0
 10 18  1  0  0  0  0
 11  8  1  0  0  0  0
 12 24  1  1  0  0  0
 12  9  1  0  0  0  0
 12 18  1  0  0  0  0
 13  2  1  0  0  0  0
 14  4  1  0  0  0  0
 14 11  1  1  0  0  0
 15  8  1  0  0  0  0
 16  1  1  0  0  0  0
 16  4  1  0  0  0  0
 17  5  1  0  0  0  0
 17  3  1  0  0  0  0
 18 16  1  0  0  0  0
 20 19  1  0  0  0  0
 21 13  1  0  0  0  0
 22 19  1  0  0  0  0
 23  2  1  0  0  0  0
 23  1  1  0  0  0  0
 25 24  1  0  0  0  0
 26 25  1  0  0  0  0
 27 26  1  0  0  0  0
 28 27  1  0  0  0  0
 29 28  1  0  0  0  0
 30 34  1  0  0  0  0
 31 32  1  0  0  0  0
 32 34  1  0  0  0  0
 32 29  1  0  0  0  0
 33 31  1  0  0  0  0
 33 30  1  0  0  0  0
M  END
>  <MODEL>
4

>  <REMARK>
 VINA RESULT:      -7.8      3.217      4.446
  Name = 
  7 active torsions:
  status: ('A' for Active; 'I' for Inactive)
    1  A    between atoms: C_10  and  C_17
    2  A    between atoms: C_10  and  C_22
    3  A    between atoms: C_13  and  C_24
    4  A    between atoms: C_17  and  C_28
    5  A    between atoms: C_22  and  C_24
    6  A    between atoms: C_28  and  C_29
    7  A    between atoms: C_29  and  C_32
                            x       y       z     vdW  Elec       q    Type
                         _______ _______ _______ _____ _____    ______ ____

>  <TORSDO>
F 7

$$$$
=
 OpenBabel11122414313D

 34 40  0  0  1  0  0  0  0  0999 V2000
  160.1470  209.5870  155.8040 C   0  0  1  0  0  3  0  0  0  0  0  0
  160.3310  211.6940  157.2610 C   0  0  0  0  0  2  0  0  0  0  0  0
  162.3410  206.9090  150.0410 C   0  0  2  0  0  3  0  0  0  0  0  0
  160.9130  207.7890  154.1220 C   0  0  1  0  0  3  0  0  0  0  0  0
  161.3460  208.3700  151.7090 C   0  0  1  0  0  3  0  0  0  0  0  0
  161.7240  208.7350  149.1420 C   0  0  0  0  0  2  0  0  0  0  0  0
  162.6790  207.6130  148.7470 C   0  0  0  0  0  2  0  0  0  0  0  0
  161.0320  205.1450  151.2750 C   0  0  0  0  0  2  0  0  0  0  0  0
  159.7100  211.8590  154.9860 C   0  0  2  0  0  3  0  0  0  0  0  0
  160.5730  209.6750  151.8720 C   0  0  0  0  0  2  0  0  0  0  0  0
  161.5030  205.9180  152.5240 C   0  0  0  0  0  2  0  0  0  0  0  0
  160.0130  211.5800  153.5090 C   0  0  1  0  0  3  0  0  0  0  0  0
  160.1340  213.1750  156.9440 C   0  0  0  0  0  2  0  0  0  0  0  0
  160.7940  207.2870  152.6770 C   0  0  1  0  0  3  0  0  0  0  0  0
  161.7950  205.4950  149.9790 C   0  0  0  0  0  2  0  0  0  0  0  0
  160.1460  209.1100  154.3130 C   0  0  2  0  0  3  0  0  0  0  0  0
  161.2100  207.8700  150.2810 C   0  0  1  0  0  3  0  0  0  0  0  0
  160.6570  210.1790  153.3150 C   0  0  1  0  0  3  0  0  0  0  0  0
  160.5940  207.2330  156.5880 C   0  0  0  0  0  2  0  0  0  0  0  0
  160.4040  206.7620  155.1380 C   0  0  0  0  0  2  0  0  0  0  0  0
  159.9230  213.2840  155.4350 C   0  0  0  0  0  2  0  0  0  0  0  0
  161.0100  208.7020  156.7080 C   0  0  0  0  0  2  0  0  0  0  0  0
  160.5670  211.0490  155.9150 C   0  0  2  0  0  3  0  0  0  0  0  0
  158.7180  211.7320  152.7060 C   0  0  0  0  0  2  0  0  0  0  0  0
  158.4380  213.1890  152.3760 C   0  0  0  0  0  2  0  0  0  0  0  0
  158.9870  213.5360  151.0050 C   0  0  0  0  0  2  0  0  0  0  0  0
  157.8440  213.6620  150.0230 C   0  0  0  0  0  2  0  0  0  0  0  0
  158.3440  213.3620  148.6230 C   0  0  0  0  0  2  0  0  0  0  0  0
  159.8390  213.6190  148.5230 C   0  0  0  0  0  2  0  0  0  0  0  0
  160.0090  212.6210  145.3560 C   0  0  0  0  0  2  0  0  0  0  0  0
  161.5450  213.3860  146.7250 C   0  0  0  0  0  2  0  0  0  0  0  0
  160.4960  212.6740  147.5260 C   0  0  2  0  0  3  0  0  0  0  0  0
  161.3610  212.9820  145.4110 O   0  0  0  0  0  0  0  0  0  0  0  0
  159.5470  212.2100  146.6180 O   0  0  0  0  0  0  0  0  0  0  0  0
  1 23  1  0  0  0  0
  1 22  1  1  0  0  0
  3  7  1  6  0  0  0
  3 17  1  0  0  0  0
  4 16  1  0  0  0  0
  4 20  1  1  0  0  0
  5 10  1  6  0  0  0
  5 14  1  0  0  0  0
  6 17  1  0  0  0  0
  7  6  1  0  0  0  0
  8 11  1  0  0  0  0
  9 21  1  1  0  0  0
  9 23  1  0  0  0  0
 10 18  1  0  0  0  0
 12 24  1  6  0  0  0
 12  9  1  0  0  0  0
 13  2  1  0  0  0  0
 14 11  1  1  0  0  0
 14  4  1  0  0  0  0
 15  3  1  0  0  0  0
 15  8  1  0  0  0  0
 16  1  1  0  0  0  0
 17  5  1  0  0  0  0
 18 12  1  0  0  0  0
 18 16  1  0  0  0  0
 19 22  1  0  0  0  0
 20 19  1  0  0  0  0
 21 13  1  0  0  0  0
 23  2  1  0  0  0  0
 25 24  1  0  0  0  0
 26 25  1  0  0  0  0
 27 26  1  0  0  0  0
 28 27  1  0  0  0  0
 29 28  1  0  0  0  0
 30 33  1  0  0  0  0
 30 34  1  0  0  0  0
 31 32  1  0  0  0  0
 32 29  1  0  0  0  0
 33 31  1  0  0  0  0
 34 32  1  0  0  0  0
M  END
>  <MODEL>
5

>  <REMARK>
 VINA RESULT:      -7.0      3.053      7.011
  Name = 
  7 active torsions:
  status: ('A' for Active; 'I' for Inactive)
    1  A    between atoms: C_10  and  C_17
    2  A    between atoms: C_10  and  C_22
    3  A    between atoms: C_13  and  C_24
    4  A    between atoms: C_17  and  C_28
    5  A    between atoms: C_22  and  C_24
    6  A    between atoms: C_28  and  C_29
    7  A    between atoms: C_29  and  C_32
                            x       y       z     vdW  Elec       q    Type
                         _______ _______ _______ _____ _____    ______ ____

>  <TORSDO>
F 7

$$$$
=
 OpenBabel11122414313D

 34 40  0  0  1  0  0  0  0  0999 V2000
  161.7110  208.0820  148.7530 C   0  0  1  0  0  3  0  0  0  0  0  0
  162.7060  206.5770  146.9250 C   0  0  0  0  0  2  0  0  0  0  0  0
  161.6450  209.0140  155.4100 C   0  0  2  0  0  3  0  0  0  0  0  0
  161.6070  209.3260  151.0090 C   0  0  1  0  0  3  0  0  0  0  0  0
  161.4620  208.0590  153.1830 C   0  0  1  0  0  3  0  0  0  0  0  0
  161.1780  206.9430  155.5360 C   0  0  0  0  0  2  0  0  0  0  0  0
  161.7440  207.9760  156.5050 C   0  0  0  0  0  2  0  0  0  0  0  0
  160.4050  210.9290  154.3400 C   0  0  0  0  0  2  0  0  0  0  0  0
  161.5260  205.6350  148.7430 C   0  0  2  0  0  3  0  0  0  0  0  0
  161.0400  206.8000  152.4340 C   0  0  0  0  0  2  0  0  0  0  0  0
  161.3480  210.6450  153.1520 C   0  0  0  0  0  2  0  0  0  0  0  0
  161.3450  205.4630  150.2560 C   0  0  1  0  0  3  0  0  0  0  0  0
  162.7280  205.0600  146.7510 C   0  0  0  0  0  2  0  0  0  0  0  0
  160.9960  209.3290  152.4160 C   0  0  1  0  0  3  0  0  0  0  0  0
  160.8330  210.2690  155.6700 C   0  0  0  0  0  2  0  0  0  0  0  0
  161.2020  208.0600  150.2330 C   0  0  2  0  0  3  0  0  0  0  0  0
  160.8390  208.0640  154.5680 C   0  0  1  0  0  3  0  0  0  0  0  0
  161.6190  206.7910  151.0170 C   0  0  1  0  0  3  0  0  0  0  0  0
  161.8800  210.5970  148.8180 C   0  0  0  0  0  2  0  0  0  0  0  0
  161.2060  210.5610  150.1980 C   0  0  0  0  0  2  0  0  0  0  0  0
  162.1330  204.4570  148.0220 C   0  0  0  0  0  2  0  0  0  0  0  0
  162.5960  209.2940  148.4500 C   0  0  0  0  0  2  0  0  0  0  0  0
  162.4270  206.7840  148.3960 C   0  0  2  0  0  3  0  0  0  0  0  0
  159.9360  204.9280  150.5240 C   0  0  0  0  0  2  0  0  0  0  0  0
  159.9720  203.6760  151.3860 C   0  0  0  0  0  2  0  0  0  0  0  0
  161.1400  202.7940  150.9890 C   0  0  0  0  0  2  0  0  0  0  0  0
  160.6270  201.4230  150.6080 C   0  0  0  0  0  2  0  0  0  0  0  0
  161.2360  201.0050  149.2830 C   0  0  0  0  0  2  0  0  0  0  0  0
  160.4570  201.6050  148.1240 C   0  0  0  0  0  2  0  0  0  0  0  0
  160.8320  199.4310  145.6360 C   0  0  0  0  0  2  0  0  0  0  0  0
  160.1880  201.5310  145.6500 C   0  0  0  0  0  2  0  0  0  0  0  0
  161.1340  201.3080  146.7920 C   0  0  2  0  0  3  0  0  0  0  0  0
  160.3580  200.4490  144.7980 O   0  0  0  0  0  0  0  0  0  0  0  0
  161.5120  199.9670  146.7430 O   0  0  0  0  0  0  0  0  0  0  0  0
  1 22  1  1  0  0  0
  1 16  1  0  0  0  0
  2 23  1  0  0  0  0
  3 15  1  1  0  0  0
  3  7  1  0  0  0  0
  4 20  1  6  0  0  0
  4 14  1  0  0  0  0
  5 10  1  6  0  0  0
  5 17  1  0  0  0  0
  6  7  1  0  0  0  0
  8 15  1  0  0  0  0
  9 21  1  1  0  0  0
  9 12  1  0  0  0  0
 11  8  1  0  0  0  0
 12 24  1  6  0  0  0
 12 18  1  0  0  0  0
 13  2  1  0  0  0  0
 13 21  1  0  0  0  0
 14 11  1  1  0  0  0
 14  5  1  0  0  0  0
 16  4  1  0  0  0  0
 16 18  1  0  0  0  0
 17  3  1  0  0  0  0
 17  6  1  0  0  0  0
 18 10  1  0  0  0  0
 19 20  1  0  0  0  0
 22 19  1  0  0  0  0
 23  9  1  0  0  0  0
 23  1  1  0  0  0  0
 24 25  1  0  0  0  0
 26 25  1  0  0  0  0
 27 26  1  0  0  0  0
 28 27  1  0  0  0  0
 29 28  1  0  0  0  0
 30 34  1  0  0  0  0
 31 32  1  0  0  0  0
 32 29  1  0  0  0  0
 33 30  1  0  0  0  0
 33 31  1  0  0  0  0
 34 32  1  0  0  0  0
M  END
>  <MODEL>
6

>  <REMARK>
 VINA RESULT:      -6.8      1.948      5.111
  Name = 
  7 active torsions:
  status: ('A' for Active; 'I' for Inactive)
    1  A    between atoms: C_10  and  C_17
    2  A    between atoms: C_10  and  C_22
    3  A    between atoms: C_13  and  C_24
    4  A    between atoms: C_17  and  C_28
    5  A    between atoms: C_22  and  C_24
    6  A    between atoms: C_28  and  C_29
    7  A    between atoms: C_29  and  C_32
                            x       y       z     vdW  Elec       q    Type
                         _______ _______ _______ _____ _____    ______ ____

>  <TORSDO>
F 7

$$$$
