=
 OpenBabel11122412483D

 32 37  0  0  1  0  0  0  0  0999 V2000
  162.1190  201.7730  149.9540 C   0  0  0  0  0  2  0  0  0  0  0  0
  160.7290  206.4760  152.2270 C   0  0  1  0  0  3  0  0  0  0  0  0
  162.0860  209.5650  148.5680 C   0  0  0  0  0  3  0  0  0  0  0  0
  162.2740  210.5940  149.4890 C   0  0  0  0  0  3  0  0  0  0  0  0
  160.7820  207.3360  154.5870 C   0  0  0  0  0  0  0  0  0  0  0  0
  160.5170  208.5590  155.3340 C   0  0  0  0  0  0  0  0  0  0  0  0
  160.4990  204.0510  151.5920 C   0  0  1  0  0  3  0  0  0  0  0  0
  160.5070  205.8150  149.8180 C   0  0  0  0  0  2  0  0  0  0  0  0
  160.5720  210.6920  155.8080 N   0  0  0  0  0  0  0  0  0  0  0  0
  160.3750  203.4350  149.0960 C   0  0  0  0  0  2  0  0  0  0  0  0
  161.6840  208.3040  149.0070 C   0  0  0  0  0  3  0  0  0  0  0  0
  161.0270  206.7550  150.8130 N   0  0  0  0  0  0  0  0  0  0  0  0
  161.4650  208.0530  150.3740 C   0  0  0  0  0  0  0  0  0  0  0  0
  161.4640  208.8400  152.7100 N   0  0  0  0  0  0  0  0  0  0  0  0
  159.9870  210.0890  156.8320 N   0  0  0  0  0  0  0  0  0  0  0  0
  162.1600  202.0940  151.4600 C   0  0  0  0  0  2  0  0  0  0  0  0
  160.9290  204.3920  150.1550 C   0  0  2  0  0  3  0  0  0  0  0  0
  159.9380  208.7590  156.5750 C   0  0  0  0  0  3  0  0  0  0  0  0
  160.8370  202.6200  152.0300 C   0  0  0  0  0  2  0  0  0  0  0  0
  160.7380  201.9610  149.3140 C   0  0  1  0  0  3  0  0  0  0  0  0
  162.0650  210.3540  150.8490 C   0  0  0  0  0  3  0  0  0  0  0  0
  161.6670  209.0840  151.3060 C   0  0  0  0  0  0  0  0  0  0  0  0
  161.6810  209.9690  153.6350 C   0  0  0  0  0  2  0  0  0  0  0  0
  161.1430  205.0380  152.5560 C   0  0  0  0  0  2  0  0  0  0  0  0
  160.5340  206.2170  155.1110 O   0  0  0  0  0  0  0  0  0  0  0  0
  160.8400  212.1180  155.7470 C   0  0  0  0  0  1  0  0  0  0  0  0
  161.4270  207.4400  153.2100 C   0  0  2  0  0  3  0  0  0  0  0  0
  160.8910  209.7780  154.8810 C   0  0  0  0  0  0  0  0  0  0  0  0
  160.6750  201.2580  148.0410 N   0  0  0  0  0  2  0  0  0  0  0  0
  161.0040  201.8900  146.8050 C   0  0  0  0  0  0  0  0  0  0  0  0
  161.4290  203.2130  146.7770 O   0  0  0  0  0  1  0  0  0  0  0  0
  160.9130  201.2430  145.7300 O   0  0  0  0  0  0  0  0  0  0  0  0
  1 16  1  0  0  0  0
  2 24  1  1  0  0  0
  2 27  1  0  0  0  0
  3 11  2  0  0  0  0
  3  4  1  0  0  0  0
  4 21  2  0  0  0  0
  5 25  2  0  0  0  0
  5  6  1  0  0  0  0
  6 18  1  0  0  0  0
  7 19  1  1  0  0  0
  7 24  1  0  0  0  0
  8 17  1  0  0  0  0
  8 12  1  0  0  0  0
  9 15  1  0  0  0  0
 10 20  1  0  0  0  0
 11 13  1  0  0  0  0
 12  2  1  0  0  0  0
 13 12  1  0  0  0  0
 13 22  2  0  0  0  0
 14 27  1  0  0  0  0
 14 23  1  0  0  0  0
 16 19  1  0  0  0  0
 17 10  1  6  0  0  0
 17  7  1  0  0  0  0
 18 15  2  0  0  0  0
 20 29  1  6  0  0  0
 20  1  1  0  0  0  0
 21 22  1  0  0  0  0
 22 14  1  0  0  0  0
 23 28  1  0  0  0  0
 26  9  1  0  0  0  0
 27  5  1  1  0  0  0
 28  6  2  0  0  0  0
 28  9  1  0  0  0  0
 30 29  1  0  0  0  0
 31 30  1  0  0  0  0
 32 30  2  0  0  0  0
M  END
>  <MODEL>
1

>  <REMARK>
 VINA RESULT:      -8.6      0.000      0.000
  Name = 
  1 active torsions:
  status: ('A' for Active; 'I' for Inactive)
    1  A    between atoms: C_20  and  N_29
                            x       y       z     vdW  Elec       q    Type
                         _______ _______ _______ _____ _____    ______ ____

>  <TORSDO>
F 1

$$$$
=
 OpenBabel11122412483D

 32 37  0  0  1  0  0  0  0  0999 V2000
  159.6720  209.4090  156.3240 C   0  0  0  0  0  2  0  0  0  0  0  0
  161.2880  206.2240  152.2670 C   0  0  1  0  0  3  0  0  0  0  0  0
  161.9610  209.6830  148.7530 C   0  0  0  0  0  3  0  0  0  0  0  0
  161.7250  208.7360  147.7580 C   0  0  0  0  0  3  0  0  0  0  0  0
  160.6640  203.9000  151.5420 C   0  0  0  0  0  0  0  0  0  0  0  0
  160.9450  202.9550  150.4690 C   0  0  0  0  0  0  0  0  0  0  0  0
  161.1450  207.0710  154.6330 C   0  0  1  0  0  3  0  0  0  0  0  0
  162.1290  208.5160  152.8430 C   0  0  0  0  0  2  0  0  0  0  0  0
  161.2330  202.2440  148.4220 N   0  0  0  0  0  0  0  0  0  0  0  0
  161.9360  209.4690  155.1350 C   0  0  0  0  0  2  0  0  0  0  0  0
  161.8930  209.3120  150.0960 C   0  0  0  0  0  3  0  0  0  0  0  0
  161.5440  207.6120  151.8500 N   0  0  0  0  0  0  0  0  0  0  0  0
  161.5870  207.9890  150.4630 C   0  0  0  0  0  0  0  0  0  0  0  0
  161.0040  205.6820  149.8210 N   0  0  0  0  0  0  0  0  0  0  0  0
  161.2930  201.1790  149.2080 N   0  0  0  0  0  0  0  0  0  0  0  0
  159.2140  207.9590  156.0790 C   0  0  0  0  0  2  0  0  0  0  0  0
  161.3030  208.5130  154.1210 C   0  0  2  0  0  3  0  0  0  0  0  0
  161.1150  201.5820  150.4900 C   0  0  0  0  0  3  0  0  0  0  0  0
  160.3610  206.9490  155.9460 C   0  0  0  0  0  2  0  0  0  0  0  0
  161.1900  209.5680  156.4720 C   0  0  1  0  0  3  0  0  0  0  0  0
  161.4140  207.4220  148.1110 C   0  0  0  0  0  3  0  0  0  0  0  0
  161.3350  207.0360  149.4630 C   0  0  0  0  0  0  0  0  0  0  0  0
  160.7630  204.7270  148.7210 C   0  0  0  0  0  2  0  0  0  0  0  0
  160.4680  206.2280  153.5610 C   0  0  0  0  0  2  0  0  0  0  0  0
  160.4600  203.4770  152.7110 O   0  0  0  0  0  0  0  0  0  0  0  0
  161.3380  202.1960  146.9740 C   0  0  0  0  0  1  0  0  0  0  0  0
  160.5490  205.3830  151.2050 C   0  0  2  0  0  3  0  0  0  0  0  0
  161.0340  203.3360  149.1740 C   0  0  0  0  0  0  0  0  0  0  0  0
  161.5030  210.8410  157.1030 N   0  0  0  0  0  2  0  0  0  0  0  0
  160.8910  212.0640  156.6950 C   0  0  0  0  0  0  0  0  0  0  0  0
  159.9390  212.0760  155.6820 O   0  0  0  0  0  0  0  0  0  0  0  0
  161.2110  213.1410  157.2610 O   0  0  0  0  0  1  0  0  0  0  0  0
  1 20  1  0  0  0  0
  2 24  1  1  0  0  0
  3 11  1  0  0  0  0
  4 21  1  0  0  0  0
  4  3  2  0  0  0  0
  5 25  2  0  0  0  0
  6 18  1  0  0  0  0
  6  5  1  0  0  0  0
  7 24  1  6  0  0  0
  7 19  1  0  0  0  0
  9 28  1  0  0  0  0
  9 15  1  0  0  0  0
 10 20  1  0  0  0  0
 11 13  2  0  0  0  0
 12  2  1  0  0  0  0
 12  8  1  0  0  0  0
 13 12  1  0  0  0  0
 14 27  1  0  0  0  0
 15 18  2  0  0  0  0
 16  1  1  0  0  0  0
 17  8  1  6  0  0  0
 17  7  1  0  0  0  0
 17 10  1  0  0  0  0
 19 16  1  0  0  0  0
 20 29  1  6  0  0  0
 21 22  2  0  0  0  0
 22 14  1  0  0  0  0
 22 13  1  0  0  0  0
 23 28  1  0  0  0  0
 23 14  1  0  0  0  0
 26  9  1  0  0  0  0
 27  5  1  1  0  0  0
 27  2  1  0  0  0  0
 28  6  2  0  0  0  0
 30 29  1  0  0  0  0
 30 32  1  0  0  0  0
 31 30  2  0  0  0  0
M  END
>  <MODEL>
2

>  <REMARK>
 VINA RESULT:      -7.8      2.125      8.068
  Name = 
  1 active torsions:
  status: ('A' for Active; 'I' for Inactive)
    1  A    between atoms: C_20  and  N_29
                            x       y       z     vdW  Elec       q    Type
                         _______ _______ _______ _____ _____    ______ ____

>  <TORSDO>
F 1

$$$$
=
 OpenBabel11122412483D

 32 37  0  0  1  0  0  0  0  0999 V2000
  162.9180  210.3420  153.5490 C   0  0  0  0  0  2  0  0  0  0  0  0
  161.0470  206.8590  149.8640 C   0  0  1  0  0  3  0  0  0  0  0  0
  160.9800  202.7240  152.6320 C   0  0  0  0  0  3  0  0  0  0  0  0
  161.1260  201.9410  151.4880 C   0  0  0  0  0  3  0  0  0  0  0  0
  161.3800  206.6230  147.3840 C   0  0  0  0  0  0  0  0  0  0  0  0
  161.0170  205.7310  146.2910 C   0  0  0  0  0  0  0  0  0  0  0  0
  161.2100  209.0290  151.1300 C   0  0  1  0  0  3  0  0  0  0  0  0
  160.5000  206.9410  152.3100 C   0  0  0  0  0  2  0  0  0  0  0  0
  160.7160  203.8390  145.2390 N   0  0  0  0  0  0  0  0  0  0  0  0
  160.7300  209.0220  153.6580 C   0  0  0  0  0  2  0  0  0  0  0  0
  160.9460  204.1140  152.5230 C   0  0  0  0  0  3  0  0  0  0  0  0
  160.9960  206.1740  151.1650 N   0  0  0  0  0  0  0  0  0  0  0  0
  161.0570  204.7410  151.2680 C   0  0  0  0  0  0  0  0  0  0  0  0
  161.3490  204.5810  148.8260 N   0  0  0  0  0  0  0  0  0  0  0  0
  160.4830  204.8050  144.3620 N   0  0  0  0  0  0  0  0  0  0  0  0
  163.1860  210.4030  152.0340 C   0  0  0  0  0  2  0  0  0  0  0  0
  161.2680  208.2470  152.4530 C   0  0  2  0  0  3  0  0  0  0  0  0
  160.6640  205.9980  144.9800 C   0  0  0  0  0  3  0  0  0  0  0  0
  161.9200  210.3890  151.1680 C   0  0  0  0  0  2  0  0  0  0  0  0
  161.4300  210.3620  153.9210 C   0  0  1  0  0  3  0  0  0  0  0  0
  161.2430  202.5530  150.2390 C   0  0  0  0  0  3  0  0  0  0  0  0
  161.2170  203.9550  150.1160 C   0  0  0  0  0  0  0  0  0  0  0  0
  161.5030  203.6970  147.6540 C   0  0  0  0  0  2  0  0  0  0  0  0
  161.8090  208.1790  150.0170 C   0  0  0  0  0  2  0  0  0  0  0  0
  161.4810  207.8620  147.1740 O   0  0  0  0  0  0  0  0  0  0  0  0
  160.6610  202.4230  144.9240 C   0  0  0  0  0  1  0  0  0  0  0  0
  161.7070  206.0230  148.7470 C   0  0  2  0  0  3  0  0  0  0  0  0
  161.0300  204.3850  146.4220 C   0  0  0  0  0  0  0  0  0  0  0  0
  161.2660  210.7220  155.3210 N   0  0  0  0  0  2  0  0  0  0  0  0
  160.4940  211.8490  155.7330 C   0  0  0  0  0  0  0  0  0  0  0  0
  159.8390  212.6390  154.7940 O   0  0  0  0  0  0  0  0  0  0  0  0
  160.4010  212.1290  156.9550 O   0  0  0  0  0  1  0  0  0  0  0  0
  1 20  1  0  0  0  0
  2 24  1  1  0  0  0
  2 12  1  0  0  0  0
  4  3  2  0  0  0  0
  6 28  2  0  0  0  0
  6  5  1  0  0  0  0
  7 24  1  6  0  0  0
  7 19  1  0  0  0  0
  7 17  1  0  0  0  0
  9 28  1  0  0  0  0
 10 20  1  0  0  0  0
 11  3  1  0  0  0  0
 12 13  1  0  0  0  0
 12  8  1  0  0  0  0
 13 11  2  0  0  0  0
 14 22  1  0  0  0  0
 15 18  2  0  0  0  0
 15  9  1  0  0  0  0
 16  1  1  0  0  0  0
 17  8  1  6  0  0  0
 17 10  1  0  0  0  0
 18  6  1  0  0  0  0
 19 16  1  0  0  0  0
 20 29  1  1  0  0  0
 21  4  1  0  0  0  0
 22 21  2  0  0  0  0
 22 13  1  0  0  0  0
 23 14  1  0  0  0  0
 25  5  2  0  0  0  0
 26  9  1  0  0  0  0
 27  5  1  6  0  0  0
 27 14  1  0  0  0  0
 27  2  1  0  0  0  0
 28 23  1  0  0  0  0
 29 30  1  0  0  0  0
 30 32  1  0  0  0  0
 31 30  2  0  0  0  0
M  END
>  <MODEL>
3

>  <REMARK>
 VINA RESULT:      -7.5      2.636      8.973
  Name = 
  1 active torsions:
  status: ('A' for Active; 'I' for Inactive)
    1  A    between atoms: C_20  and  N_29
                            x       y       z     vdW  Elec       q    Type
                         _______ _______ _______ _____ _____    ______ ____

>  <TORSDO>
F 1

$$$$
=
 OpenBabel11122412483D

 32 37  0  0  1  0  0  0  0  0999 V2000
  160.1810  213.4960  146.9510 C   0  0  0  0  0  2  0  0  0  0  0  0
  161.2650  210.7560  151.4830 C   0  0  1  0  0  3  0  0  0  0  0  0
  161.8510  206.2080  149.5470 C   0  0  0  0  0  3  0  0  0  0  0  0
  161.4770  205.6310  150.7590 C   0  0  0  0  0  3  0  0  0  0  0  0
  160.4460  210.9420  153.8510 C   0  0  0  0  0  0  0  0  0  0  0  0
  160.5800  210.2620  155.1330 C   0  0  0  0  0  0  0  0  0  0  0  0
  161.3690  212.6690  149.8500 C   0  0  1  0  0  3  0  0  0  0  0  0
  162.2850  210.4300  149.2150 C   0  0  0  0  0  2  0  0  0  0  0  0
  160.6560  208.5900  156.5380 N   0  0  0  0  0  0  0  0  0  0  0  0
  162.3390  212.2400  147.5050 C   0  0  0  0  0  2  0  0  0  0  0  0
  161.8720  207.5970  149.4160 C   0  0  0  0  0  3  0  0  0  0  0  0
  161.5680  209.8580  150.3560 N   0  0  0  0  0  0  0  0  0  0  0  0
  161.5190  208.4280  150.4950 C   0  0  0  0  0  0  0  0  0  0  0  0
  160.7490  208.6830  152.8220 N   0  0  0  0  0  0  0  0  0  0  0  0
  160.7170  209.6980  157.2610 N   0  0  0  0  0  0  0  0  0  0  0  0
  159.6200  213.8100  148.3510 C   0  0  0  0  0  2  0  0  0  0  0  0
  161.5690  211.6690  148.6990 C   0  0  2  0  0  3  0  0  0  0  0  0
  160.6690  210.7610  156.4210 C   0  0  0  0  0  3  0  0  0  0  0  0
  160.6890  213.9810  149.4370 C   0  0  0  0  0  2  0  0  0  0  0  0
  161.7140  213.4930  146.8800 C   0  0  1  0  0  3  0  0  0  0  0  0
  161.1190  206.4460  151.8350 C   0  0  0  0  0  3  0  0  0  0  0  0
  161.1290  207.8480  151.7130 C   0  0  0  0  0  0  0  0  0  0  0  0
  160.3610  208.0100  154.0780 C   0  0  0  0  0  2  0  0  0  0  0  0
  160.5560  212.0070  150.9550 C   0  0  0  0  0  2  0  0  0  0  0  0
  160.3150  212.1950  153.8180 O   0  0  0  0  0  0  0  0  0  0  0  0
  160.6380  207.2510  157.1000 C   0  0  0  0  0  1  0  0  0  0  0  0
  160.3920  210.1060  152.5770 C   0  0  2  0  0  3  0  0  0  0  0  0
  160.5850  208.9130  155.2400 C   0  0  0  0  0  0  0  0  0  0  0  0
  162.1530  213.6110  145.4980 N   0  0  0  0  0  2  0  0  0  0  0  0
  161.4820  212.9480  144.4270 C   0  0  0  0  0  0  0  0  0  0  0  0
  160.3520  212.1760  144.6690 O   0  0  0  0  0  1  0  0  0  0  0  0
  161.9150  213.0670  143.2520 O   0  0  0  0  0  0  0  0  0  0  0  0
  1 16  1  0  0  0  0
  2 24  1  6  0  0  0
  2 27  1  0  0  0  0
  3  4  1  0  0  0  0
  4 21  2  0  0  0  0
  5  6  1  0  0  0  0
  6 28  2  0  0  0  0
  6 18  1  0  0  0  0
  7 19  1  6  0  0  0
  7 24  1  0  0  0  0
  8 12  1  0  0  0  0
  9 26  1  0  0  0  0
  9 15  1  0  0  0  0
 11  3  2  0  0  0  0
 11 13  1  0  0  0  0
 12 13  1  0  0  0  0
 12  2  1  0  0  0  0
 13 22  2  0  0  0  0
 14 23  1  0  0  0  0
 16 19  1  0  0  0  0
 17 10  1  6  0  0  0
 17  8  1  0  0  0  0
 17  7  1  0  0  0  0
 18 15  2  0  0  0  0
 20 29  1  6  0  0  0
 20  1  1  0  0  0  0
 20 10  1  0  0  0  0
 22 21  1  0  0  0  0
 22 14  1  0  0  0  0
 23 28  1  0  0  0  0
 25  5  2  0  0  0  0
 27 14  1  0  0  0  0
 27  5  1  1  0  0  0
 28  9  1  0  0  0  0
 30 31  1  0  0  0  0
 30 29  1  0  0  0  0
 32 30  2  0  0  0  0
M  END
>  <MODEL>
4

>  <REMARK>
 VINA RESULT:      -6.9      3.772      7.048
  Name = 
  1 active torsions:
  status: ('A' for Active; 'I' for Inactive)
    1  A    between atoms: C_20  and  N_29
                            x       y       z     vdW  Elec       q    Type
                         _______ _______ _______ _____ _____    ______ ____

>  <TORSDO>
F 1

$$$$
