=
 OpenBabel11122412533D

 32 38  0  0  1  0  0  0  0  0999 V2000
  160.1570  208.3310  156.4460 C   0  0  1  0  0  3  0  0  0  0  0  0
  161.2390  206.9220  151.5890 C   0  0  0  0  0  0  0  0  0  0  0  0
  162.2220  211.0690  149.3120 C   0  0  0  0  0  3  0  0  0  0  0  0
  162.2800  210.3960  148.0950 C   0  0  0  0  0  3  0  0  0  0  0  0
  161.1130  204.7980  150.2680 C   0  0  0  0  0  0  0  0  0  0  0  0
  161.1920  204.2050  149.0170 C   0  0  0  0  0  0  0  0  0  0  0  0
  161.1900  206.9440  154.1070 C   0  0  1  0  0  3  0  0  0  0  0  0
  161.4960  209.0420  152.8880 C   0  0  0  0  0  2  0  0  0  0  0  0
  161.4570  204.0230  146.8760 C   0  0  0  0  0  0  0  0  0  0  0  0
  160.6940  209.1750  155.2910 C   0  0  2  0  0  3  0  0  0  0  0  0
  161.9480  210.3630  150.4820 C   0  0  0  0  0  3  0  0  0  0  0  0
  161.4520  208.2870  151.6160 N   0  0  0  0  0  0  0  0  0  0  0  0
  161.7270  208.9710  150.4620 C   0  0  0  0  0  0  0  0  0  0  0  0
  161.5830  206.9310  149.1850 N   0  0  0  0  0  0  0  0  0  0  0  0
  161.2060  202.7950  147.3830 N   0  0  0  0  0  0  0  0  0  0  0  0
  159.7870  206.8980  155.9980 C   0  0  0  0  0  2  0  0  0  0  0  0
  160.6820  208.3780  153.9760 C   0  0  2  0  0  3  0  0  0  0  0  0
  161.0430  202.9050  148.7000 N   0  0  0  0  0  2  0  0  0  0  0  0
  160.8140  206.2380  155.2820 O   0  0  0  0  0  0  0  0  0  0  0  0
  161.6470  208.6330  156.3490 C   0  0  1  0  0  3  0  0  0  0  0  0
  162.0650  209.0200  148.0530 C   0  0  0  0  0  3  0  0  0  0  0  0
  161.7860  208.2850  149.2270 C   0  0  0  0  0  0  0  0  0  0  0  0
  161.6530  206.2940  147.9670 C   0  0  0  0  0  2  0  0  0  0  0  0
  160.8080  206.1940  152.8510 C   0  0  0  0  0  2  0  0  0  0  0  0
  160.8860  204.0750  151.2750 O   0  0  0  0  0  0  0  0  0  0  0  0
  161.6990  204.3080  145.4360 C   0  0  0  0  0  1  0  0  0  0  0  0
  161.3100  206.2190  150.3510 C   0  0  0  0  0  0  0  0  0  0  0  0
  161.4510  204.9290  147.9060 C   0  0  0  0  0  0  0  0  0  0  0  0
  161.9780  209.6720  157.2580 O   0  0  0  0  0  0  0  0  0  0  0  0
  162.3540  210.9470  156.8290 C   0  0  0  0  0  0  0  0  0  0  0  0
  161.5430  212.1550  157.1640 C   0  0  0  0  0  1  0  0  0  0  0  0
  163.3990  211.0840  156.1440 O   0  0  0  0  0  0  0  0  0  0  0  0
  1 16  1  6  0  0  0
  2 12  1  0  0  0  0
  2 24  1  0  0  0  0
  3 11  1  0  0  0  0
  4  3  2  0  0  0  0
  5 27  1  0  0  0  0
  5 25  2  0  0  0  0
  6  5  1  0  0  0  0
  7 24  1  6  0  0  0
  7 19  1  0  0  0  0
  8 17  1  0  0  0  0
  9 15  2  0  0  0  0
  9 28  1  0  0  0  0
 10 20  1  0  0  0  0
 10  1  1  0  0  0  0
 12  8  1  0  0  0  0
 13 11  2  0  0  0  0
 13 12  1  0  0  0  0
 14 22  1  0  0  0  0
 14 27  1  0  0  0  0
 15 18  1  0  0  0  0
 17  7  1  0  0  0  0
 17 10  1  0  0  0  0
 18  6  1  0  0  0  0
 19 16  1  0  0  0  0
 20  1  1  0  0  0  0
 20 29  1  0  0  0  0
 21  4  1  0  0  0  0
 21 22  2  0  0  0  0
 22 13  1  0  0  0  0
 23 14  1  0  0  0  0
 26  9  1  0  0  0  0
 27  2  2  0  0  0  0
 28 23  1  0  0  0  0
 28  6  2  0  0  0  0
 30 31  1  0  0  0  0
 30 29  1  0  0  0  0
 32 30  2  0  0  0  0
M  END
>  <MODEL>
1

>  <REMARK>
 VINA RESULT:      -8.8      0.000      0.000
  Name = 
  2 active torsions:
  status: ('A' for Active; 'I' for Inactive)
    1  A    between atoms: C_20  and  O_29
    2  A    between atoms: O_29  and  C_30
                            x       y       z     vdW  Elec       q    Type
                         _______ _______ _______ _____ _____    ______ ____

>  <TORSDO>
F 2

$$$$
=
 OpenBabel11122412533D

 32 38  0  0  1  0  0  0  0  0999 V2000
  161.2690  201.5930  149.1820 C   0  0  1  0  0  3  0  0  0  0  0  0
  161.1380  206.0920  151.7310 C   0  0  0  0  0  0  0  0  0  0  0  0
  161.9680  209.4330  148.3410 C   0  0  0  0  0  3  0  0  0  0  0  0
  162.0440  210.4190  149.3200 C   0  0  0  0  0  3  0  0  0  0  0  0
  161.0080  206.7890  154.1330 C   0  0  0  0  0  0  0  0  0  0  0  0
  161.0960  207.8310  155.0440 C   0  0  0  0  0  0  0  0  0  0  0  0
  160.5360  203.7680  150.9710 C   0  0  1  0  0  3  0  0  0  0  0  0
  161.1500  205.4570  149.3130 C   0  0  0  0  0  2  0  0  0  0  0  0
  161.3560  209.8430  155.7980 C   0  0  0  0  0  0  0  0  0  0  0  0
  161.3050  203.0180  148.6320 C   0  0  2  0  0  3  0  0  0  0  0  0
  161.7220  208.1110  148.7050 C   0  0  0  0  0  3  0  0  0  0  0  0
  161.3120  206.4420  150.4050 N   0  0  0  0  0  0  0  0  0  0  0  0
  161.5470  207.7450  150.0560 C   0  0  0  0  0  0  0  0  0  0  0  0
  161.4460  208.4150  152.3700 N   0  0  0  0  0  0  0  0  0  0  0  0
  161.1160  209.0200  156.8440 N   0  0  0  0  0  0  0  0  0  0  0  0
  161.3310  201.5640  150.7280 C   0  0  0  0  0  2  0  0  0  0  0  0
  161.4370  204.0440  149.7700 C   0  0  2  0  0  3  0  0  0  0  0  0
  160.9550  207.7820  156.3820 N   0  0  0  0  0  2  0  0  0  0  0  0
  160.3830  202.4070  151.3550 O   0  0  0  0  0  0  0  0  0  0  0  0
  159.9990  202.2350  148.6370 C   0  0  1  0  0  3  0  0  0  0  0  0
  161.8730  210.0790  150.6600 C   0  0  0  0  0  3  0  0  0  0  0  0
  161.6220  208.7450  151.0520 C   0  0  0  0  0  0  0  0  0  0  0  0
  161.5210  209.4130  153.3140 C   0  0  0  0  0  2  0  0  0  0  0  0
  161.0080  204.6290  152.1200 C   0  0  0  0  0  2  0  0  0  0  0  0
  160.7570  205.6280  154.5540 O   0  0  0  0  0  0  0  0  0  0  0  0
  161.5850  211.3090  155.9130 C   0  0  0  0  0  1  0  0  0  0  0  0
  161.1980  207.0950  152.7420 C   0  0  0  0  0  0  0  0  0  0  0  0
  161.3450  209.0980  154.6460 C   0  0  0  0  0  0  0  0  0  0  0  0
  159.7450  201.7400  147.3300 O   0  0  0  0  0  0  0  0  0  0  0  0
  160.7350  201.6870  146.3460 C   0  0  0  0  0  0  0  0  0  0  0  0
  161.1800  202.9130  145.6200 C   0  0  0  0  0  1  0  0  0  0  0  0
  161.2640  200.5830  146.0630 O   0  0  0  0  0  0  0  0  0  0  0  0
  1 16  1  1  0  0  0
  2 24  1  0  0  0  0
  2 27  2  0  0  0  0
  3 11  2  0  0  0  0
  3  4  1  0  0  0  0
  4 21  2  0  0  0  0
  5 25  2  0  0  0  0
  5  6  1  0  0  0  0
  6 18  1  0  0  0  0
  7 19  1  0  0  0  0
  7 24  1  1  0  0  0
  8 17  1  0  0  0  0
  8 12  1  0  0  0  0
  9 26  1  0  0  0  0
  9 15  2  0  0  0  0
 10 20  1  0  0  0  0
 10  1  1  0  0  0  0
 10 17  1  0  0  0  0
 11 13  1  0  0  0  0
 12  2  1  0  0  0  0
 13 12  1  0  0  0  0
 13 22  2  0  0  0  0
 14 27  1  0  0  0  0
 14 23  1  0  0  0  0
 16 19  1  0  0  0  0
 17  7  1  0  0  0  0
 18 15  1  0  0  0  0
 20  1  1  0  0  0  0
 21 22  1  0  0  0  0
 22 14  1  0  0  0  0
 23 28  1  0  0  0  0
 27  5  1  0  0  0  0
 28  6  2  0  0  0  0
 28  9  1  0  0  0  0
 29 20  1  0  0  0  0
 30 29  1  0  0  0  0
 31 30  1  0  0  0  0
 32 30  2  0  0  0  0
M  END
>  <MODEL>
2

>  <REMARK>
 VINA RESULT:      -8.4      2.294      7.861
  Name = 
  2 active torsions:
  status: ('A' for Active; 'I' for Inactive)
    1  A    between atoms: C_20  and  O_29
    2  A    between atoms: O_29  and  C_30
                            x       y       z     vdW  Elec       q    Type
                         _______ _______ _______ _____ _____    ______ ____

>  <TORSDO>
F 2

$$$$
=
 OpenBabel11122412533D

 32 38  0  0  1  0  0  0  0  0999 V2000
  161.9710  203.0180  147.1060 C   0  0  1  0  0  3  0  0  0  0  0  0
  161.2580  206.5990  150.7680 C   0  0  0  0  0  0  0  0  0  0  0  0
  162.1340  210.7990  148.5480 C   0  0  0  0  0  3  0  0  0  0  0  0
  162.0430  211.4710  149.7630 C   0  0  0  0  0  3  0  0  0  0  0  0
  160.8530  206.5800  153.2400 C   0  0  0  0  0  0  0  0  0  0  0  0
  160.7750  207.3250  154.4080 C   0  0  0  0  0  0  0  0  0  0  0  0
  160.9100  204.5580  149.3340 C   0  0  1  0  0  3  0  0  0  0  0  0
  161.5410  206.6760  148.2860 C   0  0  0  0  0  2  0  0  0  0  0  0
  160.8070  209.0510  155.7120 C   0  0  0  0  0  0  0  0  0  0  0  0
  161.9470  204.5410  146.9790 C   0  0  2  0  0  3  0  0  0  0  0  0
  161.9590  209.4180  148.5030 C   0  0  0  0  0  3  0  0  0  0  0  0
  161.5250  207.3180  149.6190 N   0  0  0  0  0  0  0  0  0  0  0  0
  161.6890  208.6770  149.6720 C   0  0  0  0  0  0  0  0  0  0  0  0
  161.3230  208.6580  152.0550 N   0  0  0  0  0  0  0  0  0  0  0  0
  160.5370  207.9550  156.4570 N   0  0  0  0  0  0  0  0  0  0  0  0
  161.8930  202.5550  148.5800 C   0  0  0  0  0  2  0  0  0  0  0  0
  161.8940  205.2070  148.3630 C   0  0  2  0  0  3  0  0  0  0  0  0
  160.5160  206.8920  155.6560 N   0  0  0  0  0  2  0  0  0  0  0  0
  160.8280  203.1390  149.3070 O   0  0  0  0  0  0  0  0  0  0  0  0
  160.7110  203.7250  146.6220 C   0  0  1  0  0  3  0  0  0  0  0  0
  161.7750  210.7570  150.9300 C   0  0  0  0  0  3  0  0  0  0  0  0
  161.5940  209.3560  150.9080 C   0  0  0  0  0  0  0  0  0  0  0  0
  161.2330  209.3510  153.2410 C   0  0  0  0  0  2  0  0  0  0  0  0
  161.2060  205.0810  150.7210 C   0  0  0  0  0  2  0  0  0  0  0  0
  160.6550  205.3370  153.2930 O   0  0  0  0  0  0  0  0  0  0  0  0
  160.9100  210.4340  156.2530 C   0  0  0  0  0  1  0  0  0  0  0  0
  161.1460  207.2760  152.0180 C   0  0  0  0  0  0  0  0  0  0  0  0
  160.9610  208.6630  154.4060 C   0  0  0  0  0  0  0  0  0  0  0  0
  160.6180  203.6090  145.2100 O   0  0  0  0  0  0  0  0  0  0  0  0
  159.7140  202.7420  144.5910 C   0  0  0  0  0  0  0  0  0  0  0  0
  159.7060  201.2790  144.8860 C   0  0  0  0  0  1  0  0  0  0  0  0
  158.8870  203.2040  143.7630 O   0  0  0  0  0  0  0  0  0  0  0  0
  1 16  1  1  0  0  0
  2 27  2  0  0  0  0
  3  4  1  0  0  0  0
  4 21  2  0  0  0  0
  5 25  2  0  0  0  0
  5  6  1  0  0  0  0
  6 18  1  0  0  0  0
  7 24  1  1  0  0  0
  8 17  1  0  0  0  0
  8 12  1  0  0  0  0
  9 26  1  0  0  0  0
  9 15  2  0  0  0  0
 10  1  1  0  0  0  0
 10 17  1  0  0  0  0
 11  3  2  0  0  0  0
 11 13  1  0  0  0  0
 12 13  1  0  0  0  0
 12  2  1  0  0  0  0
 13 22  2  0  0  0  0
 14 23  1  0  0  0  0
 16 19  1  0  0  0  0
 17  7  1  0  0  0  0
 18 15  1  0  0  0  0
 19  7  1  0  0  0  0
 20 10  1  0  0  0  0
 20  1  1  0  0  0  0
 22 21  1  0  0  0  0
 22 14  1  0  0  0  0
 23 28  1  0  0  0  0
 24  2  1  0  0  0  0
 27 14  1  0  0  0  0
 27  5  1  0  0  0  0
 28  6  2  0  0  0  0
 28  9  1  0  0  0  0
 29 20  1  0  0  0  0
 30 31  1  0  0  0  0
 30 29  1  0  0  0  0
 32 30  2  0  0  0  0
M  END
>  <MODEL>
3

>  <REMARK>
 VINA RESULT:      -7.4      2.417      8.109
  Name = 
  2 active torsions:
  status: ('A' for Active; 'I' for Inactive)
    1  A    between atoms: C_20  and  O_29
    2  A    between atoms: O_29  and  C_30
                            x       y       z     vdW  Elec       q    Type
                         _______ _______ _______ _____ _____    ______ ____

>  <TORSDO>
F 2

$$$$
=
 OpenBabel11122412533D

 32 38  0  0  1  0  0  0  0  0999 V2000
  160.2530  208.9730  155.6270 C   0  0  1  0  0  3  0  0  0  0  0  0
  161.0740  205.7870  151.6370 C   0  0  0  0  0  0  0  0  0  0  0  0
  161.9630  208.7210  147.9030 C   0  0  0  0  0  3  0  0  0  0  0  0
  161.9540  207.6330  147.0350 C   0  0  0  0  0  3  0  0  0  0  0  0
  160.8680  203.3220  151.2390 C   0  0  0  0  0  0  0  0  0  0  0  0
  160.8790  202.2940  150.3080 C   0  0  0  0  0  0  0  0  0  0  0  0
  161.1550  206.7710  153.9540 C   0  0  1  0  0  3  0  0  0  0  0  0
  161.4110  208.2350  152.0120 C   0  0  0  0  0  2  0  0  0  0  0  0
  161.0320  201.3010  148.3910 C   0  0  0  0  0  0  0  0  0  0  0  0
  160.7350  209.2970  154.2140 C   0  0  2  0  0  3  0  0  0  0  0  0
  161.7460  208.5240  149.2650 C   0  0  0  0  0  3  0  0  0  0  0  0
  161.2970  207.0530  151.1300 N   0  0  0  0  0  0  0  0  0  0  0  0
  161.5150  207.2350  149.7900 C   0  0  0  0  0  0  0  0  0  0  0  0
  161.2940  204.8670  149.4000 N   0  0  0  0  0  0  0  0  0  0  0  0
  160.8000  200.3670  149.3410 N   0  0  0  0  0  0  0  0  0  0  0  0
  159.8510  207.4870  155.7800 C   0  0  0  0  0  2  0  0  0  0  0  0
  160.6500  208.0580  153.3070 C   0  0  2  0  0  3  0  0  0  0  0  0
  160.7060  200.9760  150.5210 N   0  0  0  0  0  2  0  0  0  0  0  0
  160.8360  206.5780  155.3260 O   0  0  0  0  0  0  0  0  0  0  0  0
  161.7380  209.1770  155.3540 C   0  0  1  0  0  3  0  0  0  0  0  0
  161.7290  206.3510  147.5340 C   0  0  0  0  0  3  0  0  0  0  0  0
  161.5070  206.1280  148.9110 C   0  0  0  0  0  0  0  0  0  0  0  0
  161.2970  203.8100  148.5180 C   0  0  0  0  0  2  0  0  0  0  0  0
  160.7040  205.6080  153.1000 C   0  0  0  0  0  2  0  0  0  0  0  0
  160.6890  203.0460  152.4550 O   0  0  0  0  0  0  0  0  0  0  0  0
  161.2010  201.0070  146.9420 C   0  0  0  0  0  1  0  0  0  0  0  0
  161.0780  204.6620  150.7620 C   0  0  0  0  0  0  0  0  0  0  0  0
  161.0840  202.5320  148.9940 C   0  0  0  0  0  0  0  0  0  0  0  0
  162.1210  210.4760  155.7790 O   0  0  0  0  0  0  0  0  0  0  0  0
  161.1860  211.4750  156.0640 C   0  0  0  0  0  0  0  0  0  0  0  0
  160.4470  212.1840  154.9780 C   0  0  0  0  0  1  0  0  0  0  0  0
  160.9630  211.7870  157.2610 O   0  0  0  0  0  0  0  0  0  0  0  0
  1 16  1  6  0  0  0
  2 24  1  0  0  0  0
  3 11  1  0  0  0  0
  4 21  1  0  0  0  0
  4  3  2  0  0  0  0
  5 25  2  0  0  0  0
  6 18  1  0  0  0  0
  6  5  1  0  0  0  0
  7 24  1  6  0  0  0
  7 19  1  0  0  0  0
  8 17  1  0  0  0  0
  9 28  1  0  0  0  0
  9 15  2  0  0  0  0
 10 20  1  0  0  0  0
 10  1  1  0  0  0  0
 11 13  2  0  0  0  0
 12  2  1  0  0  0  0
 12  8  1  0  0  0  0
 13 12  1  0  0  0  0
 14 27  1  0  0  0  0
 15 18  1  0  0  0  0
 17  7  1  0  0  0  0
 17 10  1  0  0  0  0
 19 16  1  0  0  0  0
 20  1  1  0  0  0  0
 20 29  1  0  0  0  0
 21 22  2  0  0  0  0
 22 14  1  0  0  0  0
 22 13  1  0  0  0  0
 23 28  1  0  0  0  0
 23 14  1  0  0  0  0
 26  9  1  0  0  0  0
 27  5  1  0  0  0  0
 27  2  2  0  0  0  0
 28  6  2  0  0  0  0
 29 30  1  0  0  0  0
 30 32  2  0  0  0  0
 31 30  1  0  0  0  0
M  END
>  <MODEL>
4

>  <REMARK>
 VINA RESULT:      -7.4      1.585      2.074
  Name = 
  2 active torsions:
  status: ('A' for Active; 'I' for Inactive)
    1  A    between atoms: C_20  and  O_29
    2  A    between atoms: O_29  and  C_30
                            x       y       z     vdW  Elec       q    Type
                         _______ _______ _______ _____ _____    ______ ____

>  <TORSDO>
F 2

$$$$
=
 OpenBabel11122412533D

 32 38  0  0  1  0  0  0  0  0999 V2000
  162.3020  212.8520  148.9090 C   0  0  1  0  0  3  0  0  0  0  0  0
  161.4310  207.7730  149.3510 C   0  0  0  0  0  0  0  0  0  0  0  0
  161.1110  207.0050  154.1100 C   0  0  0  0  0  3  0  0  0  0  0  0
  161.0670  205.6310  153.8940 C   0  0  0  0  0  3  0  0  0  0  0  0
  161.4070  205.8150  147.7890 C   0  0  0  0  0  0  0  0  0  0  0  0
  161.3540  204.4350  147.6610 C   0  0  0  0  0  0  0  0  0  0  0  0
  161.2930  210.1500  148.5290 C   0  0  1  0  0  3  0  0  0  0  0  0
  161.3250  209.7050  150.9330 C   0  0  0  0  0  2  0  0  0  0  0  0
  161.2310  202.3530  148.2370 C   0  0  0  0  0  0  0  0  0  0  0  0
  161.9550  212.0340  150.1520 C   0  0  2  0  0  3  0  0  0  0  0  0
  161.2120  207.8750  153.0270 C   0  0  0  0  0  3  0  0  0  0  0  0
  161.3760  208.2550  150.6450 N   0  0  0  0  0  0  0  0  0  0  0  0
  161.2710  207.3920  151.7030 C   0  0  0  0  0  0  0  0  0  0  0  0
  161.2710  205.5040  150.2030 N   0  0  0  0  0  0  0  0  0  0  0  0
  161.2990  202.4210  146.8880 N   0  0  0  0  0  0  0  0  0  0  0  0
  162.5360  211.9560  147.6690 C   0  0  0  0  0  2  0  0  0  0  0  0
  161.9720  210.5280  149.8430 C   0  0  2  0  0  3  0  0  0  0  0  0
  161.3740  203.7020  146.5320 N   0  0  0  0  0  0  0  0  0  0  0  0
  161.4950  211.0280  147.4290 O   0  0  0  0  0  0  0  0  0  0  0  0
  160.8680  212.8160  149.4240 C   0  0  1  0  0  3  0  0  0  0  0  0
  161.1230  205.1330  152.5940 C   0  0  0  0  0  3  0  0  0  0  0  0
  161.2250  205.9970  151.4810 C   0  0  0  0  0  0  0  0  0  0  0  0
  161.2200  204.1410  150.0210 C   0  0  0  0  0  3  0  0  0  0  0  0
  161.6790  208.7270  148.1940 C   0  0  0  0  0  2  0  0  0  0  0  0
  161.4730  206.5240  146.7490 O   0  0  0  0  0  0  0  0  0  0  0  0
  161.1330  201.0870  149.0130 C   0  0  0  0  0  1  0  0  0  0  0  0
  161.3710  206.3690  149.1140 C   0  0  0  0  0  0  0  0  0  0  0  0
  161.2650  203.6280  148.7400 C   0  0  0  0  0  0  0  0  0  0  0  0
  160.5930  214.0120  150.1370 O   0  0  0  0  0  0  0  0  0  0  0  0
  159.3500  214.2640  150.7210 C   0  0  0  0  0  0  0  0  0  0  0  0
  158.1020  214.3270  149.9040 C   0  0  0  0  0  1  0  0  0  0  0  0
  159.2770  214.4440  151.9630 O   0  0  0  0  0  0  0  0  0  0  0  0
  1 16  1  6  0  0  0
  1 20  1  0  0  0  0
  1 10  1  0  0  0  0
  2 12  1  0  0  0  0
  4  3  1  0  0  0  0
  5 27  1  0  0  0  0
  6  5  1  0  0  0  0
  6 28  1  0  0  0  0
  7 24  1  6  0  0  0
  7 17  1  0  0  0  0
  9 28  1  0  0  0  0
  9 26  1  0  0  0  0
 11  3  2  0  0  0  0
 12  8  1  0  0  0  0
 12 13  1  0  0  0  0
 13 11  1  0  0  0  0
 14 22  1  0  0  0  0
 15  9  2  0  0  0  0
 17 10  1  0  0  0  0
 17  8  1  0  0  0  0
 18 15  1  0  0  0  0
 18  6  2  0  0  0  0
 19 16  1  0  0  0  0
 19  7  1  0  0  0  0
 20 29  1  0  0  0  0
 20 10  1  0  0  0  0
 21  4  2  0  0  0  0
 22 13  2  0  0  0  0
 22 21  1  0  0  0  0
 23 14  1  0  0  0  0
 24  2  1  0  0  0  0
 25  5  2  0  0  0  0
 27  2  2  0  0  0  0
 27 14  1  0  0  0  0
 28 23  2  0  0  0  0
 29 30  1  0  0  0  0
 30 32  2  0  0  0  0
 31 30  1  0  0  0  0
M  END
>  <MODEL>
5

>  <REMARK>
 VINA RESULT:      -7.4      3.147      5.505
  Name = 
  2 active torsions:
  status: ('A' for Active; 'I' for Inactive)
    1  A    between atoms: C_20  and  O_29
    2  A    between atoms: O_29  and  C_30
                            x       y       z     vdW  Elec       q    Type
                         _______ _______ _______ _____ _____    ______ ____

>  <TORSDO>
F 2

$$$$
=
 OpenBabel11122412533D

 32 38  0  0  1  0  0  0  0  0999 V2000
  161.6310  210.1440  154.3920 C   0  0  1  0  0  3  0  0  0  0  0  0
  161.0940  206.7790  150.5000 C   0  0  0  0  0  0  0  0  0  0  0  0
  160.7900  202.4670  152.6560 C   0  0  0  0  0  3  0  0  0  0  0  0
  160.8390  201.8340  151.4170 C   0  0  0  0  0  3  0  0  0  0  0  0
  161.2110  206.8960  148.0010 C   0  0  0  0  0  0  0  0  0  0  0  0
  161.2500  206.1890  146.8080 C   0  0  0  0  0  0  0  0  0  0  0  0
  160.8050  208.8330  151.9290 C   0  0  1  0  0  3  0  0  0  0  0  0
  160.8490  206.6280  152.9830 C   0  0  0  0  0  2  0  0  0  0  0  0
  161.2600  204.4970  145.4580 C   0  0  0  0  0  0  0  0  0  0  0  0
  161.3290  208.6460  154.4420 C   0  0  2  0  0  3  0  0  0  0  0  0
  160.8420  203.8570  152.7280 C   0  0  0  0  0  3  0  0  0  0  0  0
  160.9980  206.0120  151.6460 N   0  0  0  0  0  0  0  0  0  0  0  0
  160.9420  204.6470  151.5640 C   0  0  0  0  0  0  0  0  0  0  0  0
  161.0780  204.7540  149.1600 N   0  0  0  0  0  0  0  0  0  0  0  0
  161.3330  205.6310  144.7250 N   0  0  0  0  0  0  0  0  0  0  0  0
  161.9320  210.6300  152.9540 C   0  0  0  0  0  2  0  0  0  0  0  0
  161.4490  208.0140  153.0450 C   0  0  2  0  0  3  0  0  0  0  0  0
  161.3260  206.6730  145.5540 N   0  0  0  0  0  0  0  0  0  0  0  0
  160.9570  210.2460  152.0040 O   0  0  0  0  0  0  0  0  0  0  0  0
  160.1990  209.6580  154.5820 C   0  0  1  0  0  3  0  0  0  0  0  0
  160.9370  202.5970  150.2540 C   0  0  0  0  0  3  0  0  0  0  0  0
  160.9900  204.0070  150.3040 C   0  0  0  0  0  0  0  0  0  0  0  0
  161.1180  204.1010  147.9490 C   0  0  0  0  0  3  0  0  0  0  0  0
  161.2860  208.2830  150.6050 C   0  0  0  0  0  2  0  0  0  0  0  0
  161.2370  208.1550  147.9670 O   0  0  0  0  0  0  0  0  0  0  0  0
  161.2400  203.1240  144.8860 C   0  0  0  0  0  1  0  0  0  0  0  0
  161.1290  206.1460  149.2240 C   0  0  0  0  0  0  0  0  0  0  0  0
  161.2060  204.8390  146.7850 C   0  0  0  0  0  0  0  0  0  0  0  0
  159.8410  209.7730  155.9510 O   0  0  0  0  0  0  0  0  0  0  0  0
  159.3520  210.9620  156.4980 C   0  0  0  0  0  0  0  0  0  0  0  0
  157.9740  211.4520  156.1970 C   0  0  0  0  0  1  0  0  0  0  0  0
  160.0880  211.6380  157.2610 O   0  0  0  0  0  0  0  0  0  0  0  0
  1 16  1  6  0  0  0
  1 10  1  0  0  0  0
  1 20  1  0  0  0  0
  2 24  1  0  0  0  0
  2 12  1  0  0  0  0
  3 11  1  0  0  0  0
  4  3  2  0  0  0  0
  5 27  1  0  0  0  0
  6  5  1  0  0  0  0
  7 24  1  6  0  0  0
  7 19  1  0  0  0  0
  7 17  1  0  0  0  0
  8 17  1  0  0  0  0
  9 28  1  0  0  0  0
 10 20  1  0  0  0  0
 12  8  1  0  0  0  0
 13 12  1  0  0  0  0
 13 11  2  0  0  0  0
 14 27  1  0  0  0  0
 14 22  1  0  0  0  0
 15  9  2  0  0  0  0
 15 18  1  0  0  0  0
 17 10  1  0  0  0  0
 18  6  2  0  0  0  0
 19 16  1  0  0  0  0
 20 29  1  0  0  0  0
 21 22  2  0  0  0  0
 21  4  1  0  0  0  0
 22 13  1  0  0  0  0
 23 14  1  0  0  0  0
 25  5  2  0  0  0  0
 26  9  1  0  0  0  0
 27  2  2  0  0  0  0
 28  6  1  0  0  0  0
 28 23  2  0  0  0  0
 29 30  1  0  0  0  0
 30 32  2  0  0  0  0
 31 30  1  0  0  0  0
M  END
>  <MODEL>
6

>  <REMARK>
 VINA RESULT:      -7.1      2.331      4.180
  Name = 
  2 active torsions:
  status: ('A' for Active; 'I' for Inactive)
    1  A    between atoms: C_20  and  O_29
    2  A    between atoms: O_29  and  C_30
                            x       y       z     vdW  Elec       q    Type
                         _______ _______ _______ _____ _____    ______ ____

>  <TORSDO>
F 2

$$$$
=
 OpenBabel11122412533D

 32 38  0  0  1  0  0  0  0  0999 V2000
  162.5790  210.7800  151.5190 C   0  0  1  0  0  3  0  0  0  0  0  0
  161.3100  206.3480  149.1740 C   0  0  0  0  0  0  0  0  0  0  0  0
  161.0670  203.1080  152.7500 C   0  0  0  0  0  3  0  0  0  0  0  0
  160.9040  202.0840  151.8220 C   0  0  0  0  0  3  0  0  0  0  0  0
  161.0800  205.5770  146.8020 C   0  0  0  0  0  0  0  0  0  0  0  0
  160.9110  204.5000  145.9450 C   0  0  0  0  0  0  0  0  0  0  0  0
  161.3430  208.7890  149.7960 C   0  0  1  0  0  3  0  0  0  0  0  0
  161.4080  207.0940  151.5580 C   0  0  0  0  0  2  0  0  0  0  0  0
  160.6350  202.4530  145.2970 C   0  0  0  0  0  0  0  0  0  0  0  0
  162.2030  209.4330  152.1350 C   0  0  2  0  0  3  0  0  0  0  0  0
  161.2070  204.4240  152.3130 C   0  0  0  0  0  3  0  0  0  0  0  0
  161.3320  206.0410  150.5210 N   0  0  0  0  0  0  0  0  0  0  0  0
  161.1880  204.7450  150.9400 C   0  0  0  0  0  0  0  0  0  0  0  0
  160.9900  203.9970  148.6570 N   0  0  0  0  0  0  0  0  0  0  0  0
  160.6680  203.2490  144.2040 N   0  0  0  0  0  0  0  0  0  0  0  0
  162.7030  210.7030  149.9790 C   0  0  0  0  0  2  0  0  0  0  0  0
  162.0890  208.3470  151.0520 C   0  0  2  0  0  3  0  0  0  0  0  0
  160.8380  204.5080  144.6010 N   0  0  0  0  0  0  0  0  0  0  0  0
  161.5830  210.1150  149.3440 O   0  0  0  0  0  0  0  0  0  0  0  0
  161.1630  210.5410  152.0290 C   0  0  1  0  0  3  0  0  0  0  0  0
  160.8810  202.3800  150.4600 C   0  0  0  0  0  3  0  0  0  0  0  0
  161.0210  203.7070  149.9960 C   0  0  0  0  0  0  0  0  0  0  0  0
  160.8220  202.9640  147.7640 C   0  0  0  0  0  3  0  0  0  0  0  0
  161.6000  207.7670  148.7120 C   0  0  0  0  0  2  0  0  0  0  0  0
  161.1730  206.7360  146.3170 O   0  0  0  0  0  0  0  0  0  0  0  0
  160.4560  200.9760  145.2600 C   0  0  0  0  0  1  0  0  0  0  0  0
  161.1280  205.3110  148.2140 C   0  0  0  0  0  0  0  0  0  0  0  0
  160.7880  203.2380  146.4120 C   0  0  0  0  0  0  0  0  0  0  0  0
  161.0080  211.1610  153.2970 O   0  0  0  0  0  0  0  0  0  0  0  0
  160.2580  210.5820  154.3240 C   0  0  0  0  0  0  0  0  0  0  0  0
  160.9090  209.8290  155.4360 C   0  0  0  0  0  1  0  0  0  0  0  0
  159.0070  210.6970  154.3120 O   0  0  0  0  0  0  0  0  0  0  0  0
  1 16  1  6  0  0  0
  1 20  1  0  0  0  0
  1 10  1  0  0  0  0
  2 12  1  0  0  0  0
  4  3  2  0  0  0  0
  5 27  1  0  0  0  0
  6 28  1  0  0  0  0
  6  5  1  0  0  0  0
  7 24  1  6  0  0  0
  7 17  1  0  0  0  0
  9 28  1  0  0  0  0
 11  3  1  0  0  0  0
 12 13  1  0  0  0  0
 12  8  1  0  0  0  0
 13 11  2  0  0  0  0
 14 22  1  0  0  0  0
 15 18  1  0  0  0  0
 15  9  2  0  0  0  0
 17  8  1  0  0  0  0
 17 10  1  0  0  0  0
 18  6  2  0  0  0  0
 19  7  1  0  0  0  0
 19 16  1  0  0  0  0
 20 10  1  0  0  0  0
 20 29  1  0  0  0  0
 21  4  1  0  0  0  0
 22 21  2  0  0  0  0
 22 13  1  0  0  0  0
 23 14  1  0  0  0  0
 24  2  1  0  0  0  0
 25  5  2  0  0  0  0
 26  9  1  0  0  0  0
 27 14  1  0  0  0  0
 27  2  2  0  0  0  0
 28 23  2  0  0  0  0
 29 30  1  0  0  0  0
 30 31  1  0  0  0  0
 32 30  2  0  0  0  0
M  END
>  <MODEL>
7

>  <REMARK>
 VINA RESULT:      -5.9      2.484      4.808
  Name = 
  2 active torsions:
  status: ('A' for Active; 'I' for Inactive)
    1  A    between atoms: C_20  and  O_29
    2  A    between atoms: O_29  and  C_30
                            x       y       z     vdW  Elec       q    Type
                         _______ _______ _______ _____ _____    ______ ____

>  <TORSDO>
F 2

$$$$
