=
 OpenBabel11122412523D

 32 37  0  0  1  0  0  0  0  0999 V2000
  162.0780  202.2830  150.6510 O   0  0  0  0  0  0  0  0  0  0  0  0
  160.8190  206.9850  152.2330 N   0  0  1  0  0  0  0  0  0  0  0  0
  162.2010  210.1280  148.6990 C   0  0  0  0  0  3  0  0  0  0  0  0
  161.9560  211.1950  149.5640 C   0  0  0  0  0  3  0  0  0  0  0  0
  160.6790  207.8300  154.5950 C   0  0  0  0  0  0  0  0  0  0  0  0
  161.0130  208.8690  155.6290 C   0  0  1  0  0  3  0  0  0  0  0  0
  160.4590  204.6130  151.7640 C   0  0  1  0  0  3  0  0  0  0  0  0
  161.0200  206.1880  149.9040 C   0  0  0  0  0  2  0  0  0  0  0  0
  161.9050  210.9760  156.0160 C   0  0  2  0  0  3  0  0  0  0  0  0
  160.6550  203.7440  149.3620 C   0  0  0  0  0  2  0  0  0  0  0  0
  162.0640  208.8160  149.1560 C   0  0  0  0  0  3  0  0  0  0  0  0
  161.5920  207.1280  150.9770 C   0  0  1  0  0  3  0  0  0  0  0  0
  161.6680  208.5550  150.4780 C   0  0  0  0  0  0  0  0  0  0  0  0
  161.0340  209.3820  152.7760 C   0  0  2  0  0  3  0  0  0  0  0  0
  162.7200  209.9770  156.8280 C   0  0  0  0  0  2  0  0  0  0  0  0
  161.6720  202.3030  152.0110 C   0  0  0  0  0  2  0  0  0  0  0  0
  161.1430  204.7550  150.4000 C   0  0  2  0  0  3  0  0  0  0  0  0
  162.3310  208.6130  156.3160 C   0  0  0  0  0  2  0  0  0  0  0  0
  160.4530  203.1940  152.3530 C   0  0  0  0  0  2  0  0  0  0  0  0
  160.9440  202.3080  149.8150 C   0  0  1  0  0  3  0  0  0  0  0  0
  161.5930  210.9490  150.8890 C   0  0  0  0  0  3  0  0  0  0  0  0
  161.4830  209.6330  151.3650 C   0  0  0  0  0  0  0  0  0  0  0  0
  161.6950  210.3280  153.7810 C   0  0  0  0  0  2  0  0  0  0  0  0
  161.0750  205.6220  152.7250 C   0  0  0  0  0  2  0  0  0  0  0  0
  159.8830  206.9440  154.8650 O   0  0  0  0  0  0  0  0  0  0  0  0
  161.1260  211.7520  156.8740 O   0  0  0  0  0  1  0  0  0  0  0  0
  161.3180  207.9500  153.2290 C   0  0  2  0  0  3  0  0  0  0  0  0
  161.0400  210.2430  155.0970 N   0  0  1  0  0  0  0  0  0  0  0  0
  161.1660  201.4260  148.5980 C   0  0  0  0  0  2  0  0  0  0  0  0
  161.2060  202.2500  147.3560 C   0  0  0  0  0  0  0  0  0  0  0  0
  161.9440  203.2670  147.3000 O   0  0  0  0  0  1  0  0  0  0  0  0
  160.4560  201.8750  146.2500 O   0  0  0  0  0  0  0  0  0  0  0  0
  1 16  1  0  0  0  0
  2 24  1  1  0  0  0
  2 27  1  0  0  0  0
  3 11  2  0  0  0  0
  3  4  1  0  0  0  0
  4 21  2  0  0  0  0
  5 25  2  0  0  0  0
  5  6  1  0  0  0  0
  6 18  1  6  0  0  0
  7 19  1  1  0  0  0
  7 24  1  0  0  0  0
  8 17  1  0  0  0  0
  9 15  1  0  0  0  0
  9 26  1  1  0  0  0
 10 20  1  0  0  0  0
 11 13  1  0  0  0  0
 12  8  1  6  0  0  0
 12  2  1  0  0  0  0
 13 12  1  0  0  0  0
 13 22  2  0  0  0  0
 14 27  1  0  0  0  0
 14 23  1  1  0  0  0
 16 19  1  0  0  0  0
 17 10  1  6  0  0  0
 17  7  1  0  0  0  0
 18 15  1  0  0  0  0
 20 29  1  6  0  0  0
 20  1  1  0  0  0  0
 21 22  1  0  0  0  0
 22 14  1  0  0  0  0
 27  5  1  1  0  0  0
 28 23  1  6  0  0  0
 28  6  1  0  0  0  0
 28  9  1  0  0  0  0
 30 29  1  0  0  0  0
 31 30  1  0  0  0  0
 32 30  2  0  0  0  0
M  END
>  <MODEL>
1

>  <REMARK>
 VINA RESULT:      -8.5      0.000      0.000
  Name = 
  2 active torsions:
  status: ('A' for Active; 'I' for Inactive)
    1  A    between atoms: C_20  and  C_29
    2  A    between atoms: C_29  and  C_30
                            x       y       z     vdW  Elec       q    Type
                         _______ _______ _______ _____ _____    ______ ____

>  <TORSDO>
F 2

$$$$
=
 OpenBabel11122412523D

 32 37  0  0  1  0  0  0  0  0999 V2000
  162.5120  209.3620  154.0010 O   0  0  0  0  0  0  0  0  0  0  0  0
  160.8390  206.2450  150.3020 N   0  0  1  0  0  0  0  0  0  0  0  0
  161.2850  201.6310  151.9740 C   0  0  0  0  0  3  0  0  0  0  0  0
  161.0140  201.1500  150.6940 C   0  0  0  0  0  3  0  0  0  0  0  0
  160.9030  206.6270  147.8200 C   0  0  0  0  0  0  0  0  0  0  0  0
  161.2260  206.1400  146.4340 C   0  0  1  0  0  3  0  0  0  0  0  0
  160.7520  208.1530  151.8270 C   0  0  1  0  0  3  0  0  0  0  0  0
  160.8340  205.8250  152.7370 C   0  0  0  0  0  2  0  0  0  0  0  0
  161.8620  204.3240  145.1360 C   0  0  2  0  0  3  0  0  0  0  0  0
  160.7410  207.7630  154.3590 C   0  0  0  0  0  2  0  0  0  0  0  0
  161.3940  203.0060  152.1920 C   0  0  0  0  0  3  0  0  0  0  0  0
  161.4090  205.3980  151.3770 C   0  0  1  0  0  3  0  0  0  0  0  0
  161.2200  203.9150  151.1370 C   0  0  0  0  0  0  0  0  0  0  0  0
  160.7920  204.3750  148.6930 C   0  0  2  0  0  3  0  0  0  0  0  0
  162.9090  205.4140  144.9440 C   0  0  0  0  0  2  0  0  0  0  0  0
  162.2940  210.0460  152.7770 C   0  0  0  0  0  2  0  0  0  0  0  0
  161.2190  207.2740  152.9920 C   0  0  2  0  0  3  0  0  0  0  0  0
  162.6470  206.4340  146.0240 C   0  0  0  0  0  2  0  0  0  0  0  0
  161.0210  209.6570  151.9880 C   0  0  0  0  0  2  0  0  0  0  0  0
  161.2830  209.1640  154.6630 C   0  0  1  0  0  3  0  0  0  0  0  0
  160.8700  202.0420  149.6300 C   0  0  0  0  0  3  0  0  0  0  0  0
  161.0080  203.4230  149.8340 C   0  0  0  0  0  0  0  0  0  0  0  0
  161.4450  203.8950  147.3950 C   0  0  0  0  0  2  0  0  0  0  0  0
  161.3460  207.6070  150.5350 C   0  0  0  0  0  2  0  0  0  0  0  0
  160.2800  207.6680  147.9640 O   0  0  0  0  0  0  0  0  0  0  0  0
  161.1060  204.1920  143.9720 O   0  0  0  0  0  1  0  0  0  0  0  0
  161.3300  205.7740  148.9940 C   0  0  2  0  0  3  0  0  0  0  0  0
  160.9910  204.6970  146.2470 N   0  0  1  0  0  0  0  0  0  0  0  0
  161.4590  209.3270  156.1630 C   0  0  0  0  0  2  0  0  0  0  0  0
  162.0280  210.6670  156.4800 C   0  0  0  0  0  0  0  0  0  0  0  0
  161.2920  211.6870  156.4490 O   0  0  0  0  0  0  0  0  0  0  0  0
  163.3640  210.7860  156.8430 O   0  0  0  0  0  1  0  0  0  0  0  0
  1 20  1  0  0  0  0
  2 24  1  1  0  0  0
  2 12  1  0  0  0  0
  3 11  1  0  0  0  0
  4  3  2  0  0  0  0
  5 25  2  0  0  0  0
  6 18  1  1  0  0  0
  6  5  1  0  0  0  0
  7 24  1  6  0  0  0
  7 19  1  0  0  0  0
  7 17  1  0  0  0  0
  9 26  1  6  0  0  0
  9 28  1  0  0  0  0
 10 20  1  0  0  0  0
 12  8  1  1  0  0  0
 13 12  1  0  0  0  0
 13 11  2  0  0  0  0
 14 23  1  6  0  0  0
 14 27  1  0  0  0  0
 14 22  1  0  0  0  0
 15  9  1  0  0  0  0
 15 18  1  0  0  0  0
 16  1  1  0  0  0  0
 17  8  1  6  0  0  0
 17 10  1  0  0  0  0
 19 16  1  0  0  0  0
 20 29  1  1  0  0  0
 21 22  2  0  0  0  0
 21  4  1  0  0  0  0
 22 13  1  0  0  0  0
 27  5  1  6  0  0  0
 27  2  1  0  0  0  0
 28  6  1  0  0  0  0
 28 23  1  1  0  0  0
 29 30  1  0  0  0  0
 30 32  1  0  0  0  0
 31 30  2  0  0  0  0
M  END
>  <MODEL>
2

>  <REMARK>
 VINA RESULT:      -7.4      2.361      8.721
  Name = 
  2 active torsions:
  status: ('A' for Active; 'I' for Inactive)
    1  A    between atoms: C_20  and  C_29
    2  A    between atoms: C_29  and  C_30
                            x       y       z     vdW  Elec       q    Type
                         _______ _______ _______ _____ _____    ______ ____

>  <TORSDO>
F 2

$$$$
=
 OpenBabel11122412523D

 32 37  0  0  1  0  0  0  0  0999 V2000
  160.3090  204.9400  148.6510 O   0  0  0  0  0  0  0  0  0  0  0  0
  161.0800  208.4790  152.2670 N   0  0  1  0  0  0  0  0  0  0  0  0
  160.4730  206.2640  156.6260 C   0  0  0  0  0  3  0  0  0  0  0  0
  160.4930  207.5090  157.2530 C   0  0  0  0  0  3  0  0  0  0  0  0
  160.6640  210.9520  152.1160 C   0  0  0  0  0  0  0  0  0  0  0  0
  160.0820  212.2140  152.6930 C   0  0  1  0  0  3  0  0  0  0  0  0
  161.5850  207.2030  150.2450 C   0  0  1  0  0  3  0  0  0  0  0  0
  161.4290  206.0410  152.4540 C   0  0  0  0  0  2  0  0  0  0  0  0
  159.0830  213.1970  154.5430 C   0  0  2  0  0  3  0  0  0  0  0  0
  161.9570  204.6730  150.3930 C   0  0  0  0  0  2  0  0  0  0  0  0
  160.5290  206.1840  155.2330 C   0  0  0  0  0  3  0  0  0  0  0  0
  160.6100  207.2470  152.9420 C   0  0  1  0  0  3  0  0  0  0  0  0
  160.6190  207.3480  154.4520 C   0  0  0  0  0  0  0  0  0  0  0  0
  160.6990  209.8630  154.2740 C   0  0  2  0  0  3  0  0  0  0  0  0
  158.1250  213.3520  153.3680 C   0  0  0  0  0  2  0  0  0  0  0  0
  160.3960  206.2500  148.1130 C   0  0  0  0  0  2  0  0  0  0  0  0
  161.2260  205.8930  150.9540 C   0  0  2  0  0  3  0  0  0  0  0  0
  158.6480  212.4410  152.2860 C   0  0  0  0  0  2  0  0  0  0  0  0
  161.4860  207.1710  148.7120 C   0  0  0  0  0  2  0  0  0  0  0  0
  161.6030  204.4480  148.9190 C   0  0  1  0  0  3  0  0  0  0  0  0
  160.5510  208.6750  156.4860 C   0  0  0  0  0  3  0  0  0  0  0  0
  160.5770  208.6050  155.0850 C   0  0  0  0  0  0  0  0  0  0  0  0
  159.8080  210.9910  154.8000 C   0  0  0  0  0  2  0  0  0  0  0  0
  160.7470  208.3260  150.8420 C   0  0  0  0  0  2  0  0  0  0  0  0
  161.3950  211.0160  151.1410 O   0  0  0  0  0  0  0  0  0  0  0  0
  159.6310  214.4380  154.8660 O   0  0  0  0  0  1  0  0  0  0  0  0
  160.3480  209.6420  152.8030 C   0  0  2  0  0  3  0  0  0  0  0  0
  160.1480  212.2740  154.1640 N   0  0  1  0  0  0  0  0  0  0  0  0
  161.6810  202.9660  148.5970 C   0  0  0  0  0  2  0  0  0  0  0  0
  161.3610  202.7250  147.1620 C   0  0  0  0  0  0  0  0  0  0  0  0
  161.7030  203.5660  146.2910 O   0  0  0  0  0  0  0  0  0  0  0  0
  160.7160  201.5550  146.7810 O   0  0  0  0  0  1  0  0  0  0  0  0
  1 20  1  0  0  0  0
  2 24  1  6  0  0  0
  2 27  1  0  0  0  0
  2 12  1  0  0  0  0
  3  4  1  0  0  0  0
  5  6  1  0  0  0  0
  6 18  1  1  0  0  0
  6 28  1  0  0  0  0
  7 19  1  6  0  0  0
  7 24  1  0  0  0  0
  7 17  1  0  0  0  0
  9 26  1  6  0  0  0
 11  3  2  0  0  0  0
 12  8  1  1  0  0  0
 12 13  1  0  0  0  0
 13 22  2  0  0  0  0
 13 11  1  0  0  0  0
 14 23  1  1  0  0  0
 14 22  1  0  0  0  0
 15  9  1  0  0  0  0
 16  1  1  0  0  0  0
 16 19  1  0  0  0  0
 17 10  1  6  0  0  0
 17  8  1  0  0  0  0
 18 15  1  0  0  0  0
 20 29  1  1  0  0  0
 20 10  1  0  0  0  0
 21  4  2  0  0  0  0
 22 21  1  0  0  0  0
 25  5  2  0  0  0  0
 27  5  1  6  0  0  0
 27 14  1  0  0  0  0
 28  9  1  0  0  0  0
 28 23  1  1  0  0  0
 30 29  1  0  0  0  0
 31 30  2  0  0  0  0
 32 30  1  0  0  0  0
M  END
>  <MODEL>
3

>  <REMARK>
 VINA RESULT:      -6.8      2.245      4.348
  Name = 
  2 active torsions:
  status: ('A' for Active; 'I' for Inactive)
    1  A    between atoms: C_20  and  C_29
    2  A    between atoms: C_29  and  C_30
                            x       y       z     vdW  Elec       q    Type
                         _______ _______ _______ _____ _____    ______ ____

>  <TORSDO>
F 2

$$$$
=
 OpenBabel11122412523D

 32 37  0  0  1  0  0  0  0  0999 V2000
  158.6860  210.2350  155.8970 O   0  0  0  0  0  0  0  0  0  0  0  0
  161.5480  209.2460  151.7710 N   0  0  1  0  0  0  0  0  0  0  0  0
  161.2180  213.1620  148.7990 C   0  0  0  0  0  3  0  0  0  0  0  0
  161.8470  212.4370  147.7870 C   0  0  0  0  0  3  0  0  0  0  0  0
  162.0540  207.0090  150.7470 C   0  0  0  0  0  0  0  0  0  0  0  0
  162.1360  206.1170  149.5380 C   0  0  1  0  0  3  0  0  0  0  0  0
  161.0480  209.4080  154.1580 C   0  0  1  0  0  3  0  0  0  0  0  0
  161.0030  211.4590  152.7260 C   0  0  0  0  0  2  0  0  0  0  0  0
  162.0420  206.0080  147.2220 C   0  0  2  0  0  3  0  0  0  0  0  0
  160.4810  211.6840  155.1900 C   0  0  0  0  0  2  0  0  0  0  0  0
  160.9080  212.5420  150.0100 C   0  0  0  0  0  3  0  0  0  0  0  0
  160.8300  210.5180  151.5220 C   0  0  1  0  0  3  0  0  0  0  0  0
  161.2340  211.1930  150.2290 C   0  0  0  0  0  0  0  0  0  0  0  0
  162.1950  209.0120  149.4010 C   0  0  2  0  0  3  0  0  0  0  0  0
  160.9610  205.0840  147.7690 C   0  0  0  0  0  2  0  0  0  0  0  0
  159.1210  208.8850  155.8540 C   0  0  0  0  0  2  0  0  0  0  0  0
  160.4090  210.7870  153.9540 C   0  0  2  0  0  3  0  0  0  0  0  0
  160.8350  205.4170  149.2340 C   0  0  0  0  0  2  0  0  0  0  0  0
  160.5830  208.6460  155.4080 C   0  0  0  0  0  2  0  0  0  0  0  0
  159.7290  211.0570  156.3700 C   0  0  1  0  0  3  0  0  0  0  0  0
  162.1480  211.0870  147.9810 C   0  0  0  0  0  3  0  0  0  0  0  0
  161.8120  210.4480  149.1840 C   0  0  0  0  0  0  0  0  0  0  0  0
  161.9370  208.1420  148.1700 C   0  0  0  0  0  2  0  0  0  0  0  0
  160.8530  208.5890  152.8890 C   0  0  0  0  0  2  0  0  0  0  0  0
  162.5030  206.6210  151.8140 O   0  0  0  0  0  0  0  0  0  0  0  0
  163.0710  205.2470  146.6680 O   0  0  0  0  0  1  0  0  0  0  0  0
  161.4480  208.3850  150.5790 C   0  0  2  0  0  3  0  0  0  0  0  0
  162.5670  206.8190  148.3170 N   0  0  1  0  0  0  0  0  0  0  0  0
  159.1740  212.1550  157.2610 C   0  0  0  0  0  2  0  0  0  0  0  0
  157.8460  212.6100  156.7630 C   0  0  0  0  0  0  0  0  0  0  0  0
  156.7910  212.1270  157.2500 O   0  0  0  0  0  1  0  0  0  0  0  0
  157.7710  213.5930  155.7830 O   0  0  0  0  0  0  0  0  0  0  0  0
  1 20  1  0  0  0  0
  2 24  1  1  0  0  0
  3 11  1  0  0  0  0
  4 21  1  0  0  0  0
  4  3  2  0  0  0  0
  5 25  2  0  0  0  0
  6 18  1  6  0  0  0
  6  5  1  0  0  0  0
  7 24  1  6  0  0  0
  7 19  1  0  0  0  0
  9 26  1  1  0  0  0
  9 15  1  0  0  0  0
  9 28  1  0  0  0  0
 10 20  1  0  0  0  0
 11 13  2  0  0  0  0
 12  2  1  0  0  0  0
 12  8  1  1  0  0  0
 13 12  1  0  0  0  0
 14 23  1  6  0  0  0
 14 27  1  0  0  0  0
 15 18  1  0  0  0  0
 16  1  1  0  0  0  0
 17  8  1  6  0  0  0
 17  7  1  0  0  0  0
 17 10  1  0  0  0  0
 19 16  1  0  0  0  0
 20 29  1  1  0  0  0
 21 22  2  0  0  0  0
 22 14  1  0  0  0  0
 22 13  1  0  0  0  0
 27  5  1  1  0  0  0
 27  2  1  0  0  0  0
 28 23  1  1  0  0  0
 28  6  1  0  0  0  0
 30 31  1  0  0  0  0
 30 29  1  0  0  0  0
 32 30  2  0  0  0  0
M  END
>  <MODEL>
4

>  <REMARK>
 VINA RESULT:      -6.7      2.460      8.059
  Name = 
  2 active torsions:
  status: ('A' for Active; 'I' for Inactive)
    1  A    between atoms: C_20  and  C_29
    2  A    between atoms: C_29  and  C_30
                            x       y       z     vdW  Elec       q    Type
                         _______ _______ _______ _____ _____    ______ ____

>  <TORSDO>
F 2

$$$$
=
 OpenBabel11122412523D

 32 37  0  0  1  0  0  0  0  0999 V2000
  159.2960  208.7190  155.8880 O   0  0  0  0  0  0  0  0  0  0  0  0
  161.4190  206.0240  152.0900 N   0  0  1  0  0  0  0  0  0  0  0  0
  161.9560  209.0780  148.2610 C   0  0  0  0  0  3  0  0  0  0  0  0
  162.2710  207.9900  147.4480 C   0  0  0  0  0  3  0  0  0  0  0  0
  161.1920  203.5640  151.6330 C   0  0  0  0  0  0  0  0  0  0  0  0
  160.9220  202.4360  150.6760 C   0  0  1  0  0  3  0  0  0  0  0  0
  161.1820  206.8660  154.3720 C   0  0  1  0  0  3  0  0  0  0  0  0
  161.5950  208.4560  152.4860 C   0  0  0  0  0  2  0  0  0  0  0  0
  160.6120  201.8320  148.4560 C   0  0  2  0  0  3  0  0  0  0  0  0
  161.3610  209.3800  154.8290 C   0  0  0  0  0  2  0  0  0  0  0  0
  161.5850  208.8690  149.5910 C   0  0  0  0  0  3  0  0  0  0  0  0
  161.0680  207.3580  151.5490 C   0  0  1  0  0  3  0  0  0  0  0  0
  161.5380  207.5720  150.1260 C   0  0  0  0  0  0  0  0  0  0  0  0
  161.7780  205.0760  149.8400 C   0  0  2  0  0  3  0  0  0  0  0  0
  159.3640  201.4140  149.2240 C   0  0  0  0  0  2  0  0  0  0  0  0
  159.3310  207.3280  156.1680 C   0  0  0  0  0  2  0  0  0  0  0  0
  160.9400  208.2860  153.8480 C   0  0  2  0  0  3  0  0  0  0  0  0
  159.4570  202.0950  150.5660 C   0  0  0  0  0  2  0  0  0  0  0  0
  160.6260  206.5780  155.7760 C   0  0  0  0  0  2  0  0  0  0  0  0
  160.5630  209.2870  156.1350 C   0  0  1  0  0  3  0  0  0  0  0  0
  162.1970  206.6930  147.9590 C   0  0  0  0  0  3  0  0  0  0  0  0
  161.7960  206.4720  149.2850 C   0  0  0  0  0  0  0  0  0  0  0  0
  161.1870  204.0610  148.8590 C   0  0  0  0  0  2  0  0  0  0  0  0
  160.6620  205.8710  153.3430 C   0  0  0  0  0  2  0  0  0  0  0  0
  161.6010  203.3170  152.7570 O   0  0  0  0  0  0  0  0  0  0  0  0
  161.3370  200.6990  148.0900 O   0  0  0  0  0  1  0  0  0  0  0  0
  160.9850  204.9800  151.1430 C   0  0  2  0  0  3  0  0  0  0  0  0
  161.4310  202.6830  149.3150 N   0  0  1  0  0  0  0  0  0  0  0  0
  160.4130  210.6720  156.7390 C   0  0  0  0  0  2  0  0  0  0  0  0
  159.1810  211.3350  156.2260 C   0  0  0  0  0  0  0  0  0  0  0  0
  158.1730  211.4530  156.9690 O   0  0  0  0  0  1  0  0  0  0  0  0
  159.1580  211.8540  154.9370 O   0  0  0  0  0  0  0  0  0  0  0  0
  1 20  1  0  0  0  0
  1 16  1  0  0  0  0
  2 24  1  1  0  0  0
  3 11  1  0  0  0  0
  4 21  1  0  0  0  0
  4  3  2  0  0  0  0
  5 25  2  0  0  0  0
  6 18  1  6  0  0  0
  6  5  1  0  0  0  0
  7 24  1  6  0  0  0
  7 19  1  0  0  0  0
  9 26  1  1  0  0  0
  9 15  1  0  0  0  0
  9 28  1  0  0  0  0
 10 20  1  0  0  0  0
 11 13  2  0  0  0  0
 12  2  1  0  0  0  0
 12  8  1  1  0  0  0
 13 12  1  0  0  0  0
 14 23  1  6  0  0  0
 14 27  1  0  0  0  0
 15 18  1  0  0  0  0
 17  8  1  6  0  0  0
 17  7  1  0  0  0  0
 17 10  1  0  0  0  0
 19 16  1  0  0  0  0
 20 29  1  6  0  0  0
 21 22  2  0  0  0  0
 22 14  1  0  0  0  0
 22 13  1  0  0  0  0
 27  5  1  1  0  0  0
 27  2  1  0  0  0  0
 28 23  1  6  0  0  0
 28  6  1  0  0  0  0
 30 29  1  0  0  0  0
 30 31  1  0  0  0  0
 32 30  2  0  0  0  0
M  END
>  <MODEL>
5

>  <REMARK>
 VINA RESULT:      -6.7      1.837      7.818
  Name = 
  2 active torsions:
  status: ('A' for Active; 'I' for Inactive)
    1  A    between atoms: C_20  and  C_29
    2  A    between atoms: C_29  and  C_30
                            x       y       z     vdW  Elec       q    Type
                         _______ _______ _______ _____ _____    ______ ____

>  <TORSDO>
F 2

$$$$
=
 OpenBabel11122412523D

 32 37  0  0  1  0  0  0  0  0999 V2000
  160.4490  212.8390  147.7110 O   0  0  0  0  0  0  0  0  0  0  0  0
  161.7420  209.3100  151.1850 N   0  0  1  0  0  0  0  0  0  0  0  0
  161.2000  204.9010  149.0520 C   0  0  0  0  0  3  0  0  0  0  0  0
  161.3670  204.2890  150.2940 C   0  0  0  0  0  3  0  0  0  0  0  0
  161.5370  209.4600  153.6840 C   0  0  0  0  0  0  0  0  0  0  0  0
  161.1040  208.8630  154.9950 C   0  0  1  0  0  3  0  0  0  0  0  0
  162.0110  211.3450  149.8600 C   0  0  1  0  0  3  0  0  0  0  0  0
  161.8840  209.1200  148.7260 C   0  0  0  0  0  2  0  0  0  0  0  0
  160.3070  206.9680  156.0720 C   0  0  2  0  0  3  0  0  0  0  0  0
  162.1670  211.1940  147.3070 C   0  0  0  0  0  2  0  0  0  0  0  0
  161.1660  206.2940  148.9610 C   0  0  0  0  0  3  0  0  0  0  0  0
  161.2050  208.5970  150.0020 C   0  0  1  0  0  3  0  0  0  0  0  0
  161.3130  207.0900  150.1090 C   0  0  0  0  0  0  0  0  0  0  0  0
  161.6030  207.2970  152.6070 C   0  0  2  0  0  3  0  0  0  0  0  0
  159.2990  208.0860  156.3060 C   0  0  0  0  0  2  0  0  0  0  0  0
  160.6190  213.3940  149.0060 C   0  0  0  0  0  2  0  0  0  0  0  0
  161.5800  210.6030  148.5900 C   0  0  2  0  0  3  0  0  0  0  0  0
  159.6740  209.1880  155.3470 C   0  0  0  0  0  2  0  0  0  0  0  0
  161.8200  212.8700  149.8290 C   0  0  0  0  0  2  0  0  0  0  0  0
  161.7070  212.6430  147.1080 C   0  0  1  0  0  3  0  0  0  0  0  0
  161.4820  205.0690  151.4460 C   0  0  0  0  0  3  0  0  0  0  0  0
  161.4190  206.4690  151.3680 C   0  0  0  0  0  0  0  0  0  0  0  0
  160.8480  206.7310  153.8110 C   0  0  0  0  0  2  0  0  0  0  0  0
  161.3120  210.7110  151.0550 C   0  0  0  0  0  2  0  0  0  0  0  0
  162.2130  210.4770  153.6790 O   0  0  0  0  0  0  0  0  0  0  0  0
  160.9810  206.6890  157.2610 O   0  0  0  0  0  1  0  0  0  0  0  0
  161.1480  208.7430  152.4100 C   0  0  2  0  0  3  0  0  0  0  0  0
  161.2630  207.3990  155.0560 N   0  0  1  0  0  0  0  0  0  0  0  0
  161.6350  212.9540  145.6230 C   0  0  0  0  0  2  0  0  0  0  0  0
  160.2220  212.9280  145.1510 C   0  0  0  0  0  0  0  0  0  0  0  0
  159.6990  211.8420  144.7910 O   0  0  0  0  0  0  0  0  0  0  0  0
  159.4710  214.0960  145.1420 O   0  0  0  0  0  1  0  0  0  0  0  0
  1 16  1  0  0  0  0
  2 24  1  6  0  0  0
  2 27  1  0  0  0  0
  3  4  1  0  0  0  0
  4 21  2  0  0  0  0
  5  6  1  0  0  0  0
  6 28  1  0  0  0  0
  6 18  1  6  0  0  0
  7 19  1  6  0  0  0
  7 24  1  0  0  0  0
  9 15  1  0  0  0  0
  9 26  1  1  0  0  0
 11  3  2  0  0  0  0
 11 13  1  0  0  0  0
 12  8  1  6  0  0  0
 12 13  1  0  0  0  0
 12  2  1  0  0  0  0
 13 22  2  0  0  0  0
 14 23  1  1  0  0  0
 16 19  1  0  0  0  0
 17 10  1  6  0  0  0
 17  8  1  0  0  0  0
 17  7  1  0  0  0  0
 18 15  1  0  0  0  0
 20 29  1  6  0  0  0
 20 10  1  0  0  0  0
 20  1  1  0  0  0  0
 22 21  1  0  0  0  0
 22 14  1  0  0  0  0
 25  5  2  0  0  0  0
 27 14  1  0  0  0  0
 27  5  1  1  0  0  0
 28 23  1  6  0  0  0
 28  9  1  0  0  0  0
 30 29  1  0  0  0  0
 31 30  2  0  0  0  0
 32 30  1  0  0  0  0
M  END
>  <MODEL>
6

>  <REMARK>
 VINA RESULT:      -6.4      3.615      6.670
  Name = 
  2 active torsions:
  status: ('A' for Active; 'I' for Inactive)
    1  A    between atoms: C_20  and  C_29
    2  A    between atoms: C_29  and  C_30
                            x       y       z     vdW  Elec       q    Type
                         _______ _______ _______ _____ _____    ______ ____

>  <TORSDO>
F 2

$$$$
=
 OpenBabel11122412523D

 32 37  0  0  1  0  0  0  0  0999 V2000
  159.2090  210.6780  156.3980 O   0  0  0  0  0  0  0  0  0  0  0  0
  161.5890  208.1350  152.6470 N   0  0  1  0  0  0  0  0  0  0  0  0
  161.9550  211.2070  148.8110 C   0  0  0  0  0  3  0  0  0  0  0  0
  162.3640  210.1420  148.0080 C   0  0  0  0  0  3  0  0  0  0  0  0
  161.5540  205.6640  152.1980 C   0  0  0  0  0  0  0  0  0  0  0  0
  161.3850  204.5150  151.2430 C   0  0  1  0  0  3  0  0  0  0  0  0
  161.2530  208.9660  154.9210 C   0  0  1  0  0  3  0  0  0  0  0  0
  161.5750  210.5750  153.0340 C   0  0  0  0  0  2  0  0  0  0  0  0
  161.1560  203.8810  149.0220 C   0  0  2  0  0  3  0  0  0  0  0  0
  161.2350  211.4880  155.3680 C   0  0  0  0  0  2  0  0  0  0  0  0
  161.5800  210.9760  150.1360 C   0  0  0  0  0  3  0  0  0  0  0  0
  161.1460  209.4370  152.0940 C   0  0  1  0  0  3  0  0  0  0  0  0
  161.6220  209.6800  150.6770 C   0  0  0  0  0  0  0  0  0  0  0  0
  162.0530  207.2090  150.4070 C   0  0  2  0  0  3  0  0  0  0  0  0
  159.9310  203.3740  149.7720 C   0  0  0  0  0  2  0  0  0  0  0  0
  159.3440  209.2950  156.6850 C   0  0  0  0  0  2  0  0  0  0  0  0
  160.9130  210.3610  154.3860 C   0  0  2  0  0  3  0  0  0  0  0  0
  159.9520  204.0640  151.1120 C   0  0  0  0  0  2  0  0  0  0  0  0
  160.6980  208.6430  156.3170 C   0  0  0  0  0  2  0  0  0  0  0  0
  160.4250  211.3400  156.6610 C   0  0  1  0  0  3  0  0  0  0  0  0
  162.3800  208.8450  148.5250 C   0  0  0  0  0  3  0  0  0  0  0  0
  161.9750  208.6000  149.8460 C   0  0  0  0  0  0  0  0  0  0  0  0
  161.5560  206.1480  149.4230 C   0  0  0  0  0  2  0  0  0  0  0  0
  160.8250  207.9310  153.8880 C   0  0  0  0  0  2  0  0  0  0  0  0
  161.9630  205.4520  153.3300 O   0  0  0  0  0  0  0  0  0  0  0  0
  161.9710  202.8040  148.6730 O   0  0  0  0  0  1  0  0  0  0  0  0
  161.2490  207.0580  151.6990 C   0  0  2  0  0  3  0  0  0  0  0  0
  161.8950  204.7940  149.8890 N   0  0  1  0  0  0  0  0  0  0  0  0
  160.1620  212.7120  157.2560 C   0  0  0  0  0  2  0  0  0  0  0  0
  158.9650  213.3350  156.6240 C   0  0  0  0  0  0  0  0  0  0  0  0
  157.8680  213.3560  157.2380 O   0  0  0  0  0  1  0  0  0  0  0  0
  159.0690  213.9230  155.3690 O   0  0  0  0  0  0  0  0  0  0  0  0
  1 20  1  0  0  0  0
  1 16  1  0  0  0  0
  2 24  1  1  0  0  0
  3 11  1  0  0  0  0
  4 21  1  0  0  0  0
  4  3  2  0  0  0  0
  5 25  2  0  0  0  0
  6 18  1  6  0  0  0
  6  5  1  0  0  0  0
  7 24  1  6  0  0  0
  7 19  1  0  0  0  0
  9 26  1  1  0  0  0
  9 15  1  0  0  0  0
  9 28  1  0  0  0  0
 10 20  1  0  0  0  0
 11 13  2  0  0  0  0
 12  2  1  0  0  0  0
 12  8  1  1  0  0  0
 13 12  1  0  0  0  0
 14 23  1  6  0  0  0
 14 27  1  0  0  0  0
 15 18  1  0  0  0  0
 17  8  1  6  0  0  0
 17  7  1  0  0  0  0
 17 10  1  0  0  0  0
 19 16  1  0  0  0  0
 20 29  1  6  0  0  0
 21 22  2  0  0  0  0
 22 14  1  0  0  0  0
 22 13  1  0  0  0  0
 27  5  1  1  0  0  0
 27  2  1  0  0  0  0
 28 23  1  6  0  0  0
 28  6  1  0  0  0  0
 30 31  1  0  0  0  0
 30 29  1  0  0  0  0
 32 30  2  0  0  0  0
M  END
>  <MODEL>
7

>  <REMARK>
 VINA RESULT:      -5.8      1.735      7.986
  Name = 
  2 active torsions:
  status: ('A' for Active; 'I' for Inactive)
    1  A    between atoms: C_20  and  C_29
    2  A    between atoms: C_29  and  C_30
                            x       y       z     vdW  Elec       q    Type
                         _______ _______ _______ _____ _____    ______ ____

>  <TORSDO>
F 2

$$$$
