=
 OpenBabel11122413023D

 32 37  0  0  1  0  0  0  0  0999 V2000
  161.0300  213.4520  139.8840 C   0  0  1  0  0  3  0  0  0  0  0  0
  157.0090  212.1220  138.8220 C   0  0  0  0  0  2  0  0  0  0  0  0
  156.5170  212.5800  140.1890 C   0  0  0  0  0  2  0  0  0  0  0  0
  160.8060  212.5830  142.2600 C   0  0  2  0  0  3  0  0  0  0  0  0
  160.2500  212.8240  143.6710 C   0  0  2  0  0  3  0  0  0  0  0  0
  163.0700  213.2540  138.3940 C   0  0  2  0  0  3  0  0  0  0  0  0
  160.8390  214.0270  137.3800 C   0  0  0  0  0  2  0  0  0  0  0  0
  158.2680  213.5510  144.8850 C   0  0  1  0  0  3  0  0  0  0  0  0
  158.4990  212.4110  138.6880 C   0  0  0  0  0  2  0  0  0  0  0  0
  160.2700  214.2210  138.7980 C   0  0  1  0  0  3  0  0  0  0  0  0
  158.7820  213.9110  138.8600 C   0  0  2  0  0  3  0  0  0  0  0  0
  159.0550  214.1150  141.4020 C   0  0  0  0  0  0  0  0  0  0  0  0
  158.6100  212.1200  145.2690 C   0  0  0  0  0  2  0  0  0  0  0  0
  162.0030  213.0260  137.3010 C   0  0  2  0  0  3  0  0  0  0  0  0
  159.5450  211.5980  144.2000 C   0  0  0  0  0  2  0  0  0  0  0  0
  156.7330  214.0820  140.3390 C   0  0  0  0  0  2  0  0  0  0  0  0
  158.2160  214.4530  140.1810 C   0  0  2  0  0  3  0  0  0  0  0  0
  158.5070  214.1900  142.5670 N   0  0  0  0  0  0  0  0  0  0  0  0
  162.5140  213.7640  139.7300 C   0  0  0  0  0  2  0  0  0  0  0  0
  162.2870  212.2690  142.3820 C   0  0  0  0  0  1  0  0  0  0  0  0
  158.4260  214.4530  146.0920 C   0  0  0  0  0  1  0  0  0  0  0  0
  160.5370  213.7670  141.3100 C   0  0  2  0  0  3  0  0  0  0  0  0
  159.2410  213.9710  143.7960 C   0  0  2  0  0  3  0  0  0  0  0  0
  162.6330  210.6220  137.1970 C   0  0  0  0  0  2  0  0  0  0  0  0
  161.4840  211.5960  137.3540 C   0  0  1  0  0  3  0  0  0  0  0  0
  162.0580  210.8960  138.5700 C   0  0  1  0  0  3  0  0  0  0  0  0
  161.1270  209.7670  138.9670 C   0  0  0  0  0  2  0  0  0  0  0  0
  161.9190  208.5560  139.3180 C   0  0  0  0  0  0  0  0  0  0  0  0
  161.8330  207.4180  138.5270 O   0  0  0  0  0  0  0  0  0  0  0  0
  162.6380  208.5510  140.3500 O   0  0  0  0  0  1  0  0  0  0  0  0
  165.4950  213.8240  138.4980 C   0  0  0  0  0  1  0  0  0  0  0  0
  164.1510  214.2030  137.9050 C   0  0  0  0  0  2  0  0  0  0  0  0
  1 19  1  1  0  0  0
  1 22  1  0  0  0  0
  2  3  1  0  0  0  0
  3 16  1  0  0  0  0
  4 20  1  1  0  0  0
  4  5  1  0  0  0  0
  5 23  1  0  0  0  0
  5 15  1  6  0  0  0
  6 32  1  6  0  0  0
  6 19  1  0  0  0  0
  8 13  1  0  0  0  0
  8 21  1  1  0  0  0
  9  2  1  0  0  0  0
 10  7  1  6  0  0  0
 10 11  1  0  0  0  0
 10  1  1  0  0  0  0
 11  9  1  1  0  0  0
 11 17  1  0  0  0  0
 12 18  2  0  0  0  0
 14 25  1  0  0  0  0
 14  7  1  1  0  0  0
 14  6  1  0  0  0  0
 15 13  1  0  0  0  0
 17 16  1  1  0  0  0
 17 12  1  0  0  0  0
 22 12  1  6  0  0  0
 22  4  1  0  0  0  0
 23 18  1  6  0  0  0
 23  8  1  0  0  0  0
 24 26  1  0  0  0  0
 25 24  1  6  0  0  0
 25 26  1  0  0  0  0
 26 27  1  6  0  0  0
 27 28  1  0  0  0  0
 28 30  1  0  0  0  0
 29 28  2  0  0  0  0
 32 31  1  0  0  0  0
M  END
>  <MODEL>
1

>  <REMARK>
 VINA RESULT:      -3.7      0.000      0.000
  Name = 
  4 active torsions:
  status: ('A' for Active; 'I' for Inactive)
    1  A    between atoms: C_7  and  C_19
    2  A    between atoms: C_10  and  C_17
    3  A    between atoms: C_20  and  C_29
    4  A    between atoms: C_29  and  C_30
                            x       y       z     vdW  Elec       q    Type
                         _______ _______ _______ _____ _____    ______ ____

>  <TORSDO>
F 4

$$$$
=
 OpenBabel11122413023D

 32 37  0  0  1  0  0  0  0  0999 V2000
  161.4350  211.1930  149.4840 C   0  0  1  0  0  3  0  0  0  0  0  0
  158.4070  211.5700  152.6070 C   0  0  0  0  0  2  0  0  0  0  0  0
  159.0130  210.3650  153.3150 C   0  0  0  0  0  2  0  0  0  0  0  0
  161.2760  208.6570  149.4880 C   0  0  2  0  0  3  0  0  0  0  0  0
  161.6820  207.3440  150.1720 C   0  0  2  0  0  3  0  0  0  0  0  0
  161.6190  212.6870  147.4460 C   0  0  2  0  0  3  0  0  0  0  0  0
  161.1380  213.7380  149.7420 C   0  0  0  0  0  2  0  0  0  0  0  0
  161.9030  206.2700  152.3460 C   0  0  1  0  0  3  0  0  0  0  0  0
  159.1980  211.8750  151.3410 C   0  0  0  0  0  2  0  0  0  0  0  0
  161.4990  212.4040  150.4200 C   0  0  1  0  0  3  0  0  0  0  0  0
  160.6700  212.1620  151.6730 C   0  0  2  0  0  3  0  0  0  0  0  0
  161.6910  209.8090  151.6440 C   0  0  0  0  0  0  0  0  0  0  0  0
  160.8940  205.5110  151.4980 C   0  0  0  0  0  2  0  0  0  0  0  0
  160.6900  213.5990  148.2780 C   0  0  2  0  0  3  0  0  0  0  0  0
  160.4890  206.4400  150.3750 C   0  0  0  0  0  2  0  0  0  0  0  0
  160.4550  210.6690  153.7070 C   0  0  0  0  0  2  0  0  0  0  0  0
  161.3080  211.0200  152.4790 C   0  0  2  0  0  3  0  0  0  0  0  0
  161.8830  208.6830  152.2440 N   0  0  0  0  0  0  0  0  0  0  0  0
  162.2380  211.5230  148.2310 C   0  0  0  0  0  2  0  0  0  0  0  0
  161.6100  208.5430  148.0100 C   0  0  0  0  0  1  0  0  0  0  0  0
  163.1030  205.3860  152.6200 C   0  0  0  0  0  1  0  0  0  0  0  0
  161.9340  209.8900  150.1400 C   0  0  2  0  0  3  0  0  0  0  0  0
  162.3310  207.4920  151.5530 C   0  0  2  0  0  3  0  0  0  0  0  0
  158.3410  214.0400  148.9680 C   0  0  0  0  0  2  0  0  0  0  0  0
  159.2520  213.1020  148.2040 C   0  0  1  0  0  3  0  0  0  0  0  0
  158.4060  214.1150  147.4580 C   0  0  1  0  0  3  0  0  0  0  0  0
  157.2090  213.4040  146.8590 C   0  0  0  0  0  2  0  0  0  0  0  0
  156.8890  213.9840  145.5250 C   0  0  0  0  0  0  0  0  0  0  0  0
  155.5910  214.3830  145.2350 O   0  0  0  0  0  1  0  0  0  0  0  0
  157.7870  214.0810  144.6490 O   0  0  0  0  0  0  0  0  0  0  0  0
  162.1470  214.4530  145.7670 C   0  0  0  0  0  1  0  0  0  0  0  0
  162.7260  213.4960  146.7930 C   0  0  0  0  0  2  0  0  0  0  0  0
  1 19  1  6  0  0  0
  1 22  1  0  0  0  0
  1 10  1  0  0  0  0
  2  3  1  0  0  0  0
  3 16  1  0  0  0  0
  4 20  1  6  0  0  0
  4 22  1  0  0  0  0
  4  5  1  0  0  0  0
  5 15  1  1  0  0  0
  5 23  1  0  0  0  0
  6 32  1  1  0  0  0
  6 19  1  0  0  0  0
  6 14  1  0  0  0  0
  8 21  1  6  0  0  0
  9  2  1  0  0  0  0
 10  7  1  6  0  0  0
 10 11  1  0  0  0  0
 11  9  1  6  0  0  0
 11 17  1  0  0  0  0
 12 18  2  0  0  0  0
 12 17  1  0  0  0  0
 13  8  1  0  0  0  0
 14  7  1  1  0  0  0
 15 13  1  0  0  0  0
 17 16  1  1  0  0  0
 22 12  1  1  0  0  0
 23 18  1  1  0  0  0
 23  8  1  0  0  0  0
 25 14  1  0  0  0  0
 25 24  1  1  0  0  0
 26 27  1  6  0  0  0
 26 25  1  0  0  0  0
 26 24  1  0  0  0  0
 28 27  1  0  0  0  0
 29 28  1  0  0  0  0
 30 28  2  0  0  0  0
 31 32  1  0  0  0  0
M  END
>  <MODEL>
2

>  <REMARK>
 VINA RESULT:      -3.3      6.850     10.858
  Name = 
  4 active torsions:
  status: ('A' for Active; 'I' for Inactive)
    1  A    between atoms: C_7  and  C_19
    2  A    between atoms: C_10  and  C_17
    3  A    between atoms: C_20  and  C_29
    4  A    between atoms: C_29  and  C_30
                            x       y       z     vdW  Elec       q    Type
                         _______ _______ _______ _____ _____    ______ ____

>  <TORSDO>
F 4

$$$$
=
 OpenBabel11122413023D

 32 37  0  0  1  0  0  0  0  0999 V2000
  160.4880  212.0840  151.5870 C   0  0  1  0  0  3  0  0  0  0  0  0
  156.6460  212.5850  153.5990 C   0  0  0  0  0  2  0  0  0  0  0  0
  157.1890  211.8070  154.7900 C   0  0  0  0  0  2  0  0  0  0  0  0
  160.7230  209.6890  152.4000 C   0  0  2  0  0  3  0  0  0  0  0  0
  161.1000  208.7540  153.5590 C   0  0  2  0  0  3  0  0  0  0  0  0
  161.0440  212.9490  149.2710 C   0  0  2  0  0  3  0  0  0  0  0  0
  159.7460  214.4530  150.9020 C   0  0  0  0  0  2  0  0  0  0  0  0
  160.8230  208.4140  155.9540 C   0  0  1  0  0  3  0  0  0  0  0  0
  157.7230  212.7040  152.5280 C   0  0  0  0  0  2  0  0  0  0  0  0
  160.0850  213.4880  152.0520 C   0  0  1  0  0  3  0  0  0  0  0  0
  158.9680  213.4140  153.0810 C   0  0  2  0  0  3  0  0  0  0  0  0
  160.2950  211.4610  154.0810 C   0  0  0  0  0  0  0  0  0  0  0  0
  160.2400  207.2320  155.1960 C   0  0  0  0  0  2  0  0  0  0  0  0
  159.7810  213.8080  149.5070 C   0  0  2  0  0  3  0  0  0  0  0  0
  160.0520  207.6860  153.7650 C   0  0  0  0  0  2  0  0  0  0  0  0
  158.3850  212.5420  155.3860 C   0  0  0  0  0  2  0  0  0  0  0  0
  159.5020  212.7290  154.3480 C   0  0  2  0  0  3  0  0  0  0  0  0
  160.4680  210.6260  155.0500 N   0  0  0  0  0  0  0  0  0  0  0  0
  161.5690  212.2320  150.5220 C   0  0  0  0  0  2  0  0  0  0  0  0
  161.4950  209.2490  151.1680 C   0  0  0  0  0  1  0  0  0  0  0  0
  162.0060  207.9550  156.7810 C   0  0  0  0  0  1  0  0  0  0  0  0
  160.9600  211.1740  152.7390 C   0  0  2  0  0  3  0  0  0  0  0  0
  161.2770  209.4320  154.9220 C   0  0  2  0  0  3  0  0  0  0  0  0
  157.2950  213.8020  149.6040 C   0  0  0  0  0  2  0  0  0  0  0  0
  158.5240  212.9830  149.2670 C   0  0  1  0  0  3  0  0  0  0  0  0
  157.7080  213.6180  148.1590 C   0  0  1  0  0  3  0  0  0  0  0  0
  156.8460  212.5500  147.5140 C   0  0  0  0  0  2  0  0  0  0  0  0
  156.8920  212.6870  146.0330 C   0  0  0  0  0  0  0  0  0  0  0  0
  157.9420  212.1300  145.3150 O   0  0  0  0  0  0  0  0  0  0  0  0
  155.9980  213.3380  145.4330 O   0  0  0  0  0  1  0  0  0  0  0  0
  163.0850  212.9080  147.8400 C   0  0  0  0  0  1  0  0  0  0  0  0
  162.1590  213.7820  148.6650 C   0  0  0  0  0  2  0  0  0  0  0  0
  1 19  1  6  0  0  0
  1 10  1  0  0  0  0
  1 22  1  0  0  0  0
  2  3  1  0  0  0  0
  3 16  1  0  0  0  0
  4 20  1  6  0  0  0
  4 22  1  0  0  0  0
  4  5  1  0  0  0  0
  5 15  1  1  0  0  0
  5 23  1  0  0  0  0
  6 32  1  1  0  0  0
  6 14  1  0  0  0  0
  6 19  1  0  0  0  0
  8 21  1  6  0  0  0
  9  2  1  0  0  0  0
 10  7  1  6  0  0  0
 10 11  1  0  0  0  0
 11  9  1  6  0  0  0
 11 17  1  0  0  0  0
 12 17  1  0  0  0  0
 12 18  2  0  0  0  0
 13  8  1  0  0  0  0
 14  7  1  1  0  0  0
 15 13  1  0  0  0  0
 17 16  1  1  0  0  0
 22 12  1  1  0  0  0
 23 18  1  6  0  0  0
 23  8  1  0  0  0  0
 25 14  1  0  0  0  0
 25 24  1  1  0  0  0
 26 27  1  6  0  0  0
 26 25  1  0  0  0  0
 26 24  1  0  0  0  0
 28 27  1  0  0  0  0
 29 28  2  0  0  0  0
 30 28  1  0  0  0  0
 31 32  1  0  0  0  0
M  END
>  <MODEL>
3

>  <REMARK>
 VINA RESULT:      -3.2      7.803     12.118
  Name = 
  4 active torsions:
  status: ('A' for Active; 'I' for Inactive)
    1  A    between atoms: C_7  and  C_19
    2  A    between atoms: C_10  and  C_17
    3  A    between atoms: C_20  and  C_29
    4  A    between atoms: C_29  and  C_30
                            x       y       z     vdW  Elec       q    Type
                         _______ _______ _______ _____ _____    ______ ____

>  <TORSDO>
F 4

$$$$
=
 OpenBabel11122413023D

 32 37  0  0  1  0  0  0  0  0999 V2000
  159.1280  213.5360  148.6110 C   0  0  1  0  0  3  0  0  0  0  0  0
  163.2720  212.1600  148.5970 C   0  0  0  0  0  2  0  0  0  0  0  0
  163.3740  212.5410  147.1260 C   0  0  0  0  0  2  0  0  0  0  0  0
  158.6820  212.5510  146.3120 C   0  0  2  0  0  3  0  0  0  0  0  0
  158.8300  212.7130  144.7920 C   0  0  2  0  0  3  0  0  0  0  0  0
  157.5740  213.4570  150.6110 C   0  0  2  0  0  3  0  0  0  0  0  0
  160.0070  214.2220  150.9330 C   0  0  0  0  0  2  0  0  0  0  0  0
  160.4090  213.3350  143.0460 C   0  0  1  0  0  3  0  0  0  0  0  0
  161.8790  212.4910  149.1190 C   0  0  0  0  0  2  0  0  0  0  0  0
  160.1660  214.3360  149.4060 C   0  0  1  0  0  3  0  0  0  0  0  0
  161.5760  213.9880  148.9540 C   0  0  2  0  0  3  0  0  0  0  0  0
  160.6160  214.0790  146.5780 C   0  0  0  0  0  0  0  0  0  0  0  0
  159.9600  211.8960  142.8450 C   0  0  0  0  0  2  0  0  0  0  0  0
  158.8990  213.2550  151.3800 C   0  0  2  0  0  3  0  0  0  0  0  0
  159.3490  211.4470  144.1540 C   0  0  0  0  0  2  0  0  0  0  0  0
  163.1410  214.0400  146.9630 C   0  0  0  0  0  2  0  0  0  0  0  0
  161.7630  214.4530  147.5020 C   0  0  2  0  0  3  0  0  0  0  0  0
  160.8240  214.0870  145.3040 N   0  0  0  0  0  0  0  0  0  0  0  0
  157.7470  213.8900  149.1490 C   0  0  0  0  0  2  0  0  0  0  0  0
  157.2210  212.2680  146.6170 C   0  0  0  0  0  1  0  0  0  0  0  0
  159.9360  214.1820  141.8830 C   0  0  0  0  0  1  0  0  0  0  0  0
  159.2130  213.7720  147.0900 C   0  0  2  0  0  3  0  0  0  0  0  0
  159.7780  213.8280  144.3360 C   0  0  2  0  0  3  0  0  0  0  0  0
  160.8490  211.7220  151.5660 C   0  0  0  0  0  2  0  0  0  0  0  0
  159.3680  211.8110  151.2600 C   0  0  1  0  0  3  0  0  0  0  0  0
  159.8360  211.3180  152.6150 C   0  0  1  0  0  3  0  0  0  0  0  0
  159.7140  209.8080  152.6530 C   0  0  0  0  0  2  0  0  0  0  0  0
  161.0150  209.2040  153.0530 C   0  0  0  0  0  0  0  0  0  0  0  0
  161.5870  209.5340  154.2750 O   0  0  0  0  0  1  0  0  0  0  0  0
  161.6130  208.4220  152.2710 O   0  0  0  0  0  0  0  0  0  0  0  0
  155.2900  214.4500  150.7190 C   0  0  0  0  0  1  0  0  0  0  0  0
  156.6800  214.4530  151.3270 C   0  0  0  0  0  2  0  0  0  0  0  0
  1 19  1  1  0  0  0
  1 10  1  0  0  0  0
  2  9  1  0  0  0  0
  3  2  1  0  0  0  0
  4 20  1  6  0  0  0
  4 22  1  0  0  0  0
  5 15  1  1  0  0  0
  5  4  1  0  0  0  0
  6 32  1  1  0  0  0
  6 14  1  0  0  0  0
  8 21  1  6  0  0  0
  8 23  1  0  0  0  0
 10  7  1  1  0  0  0
 11  9  1  6  0  0  0
 11 10  1  0  0  0  0
 12 17  1  0  0  0  0
 13  8  1  0  0  0  0
 13 15  1  0  0  0  0
 14  7  1  6  0  0  0
 16  3  1  0  0  0  0
 17 16  1  6  0  0  0
 17 11  1  0  0  0  0
 18 12  2  0  0  0  0
 19  6  1  0  0  0  0
 22 12  1  6  0  0  0
 22  1  1  0  0  0  0
 23  5  1  0  0  0  0
 23 18  1  1  0  0  0
 24 26  1  0  0  0  0
 25 14  1  0  0  0  0
 25 24  1  6  0  0  0
 25 26  1  0  0  0  0
 26 27  1  6  0  0  0
 27 28  1  0  0  0  0
 28 29  1  0  0  0  0
 30 28  2  0  0  0  0
 31 32  1  0  0  0  0
M  END
>  <MODEL>
4

>  <REMARK>
 VINA RESULT:      -3.0      5.419     10.524
  Name = 
  4 active torsions:
  status: ('A' for Active; 'I' for Inactive)
    1  A    between atoms: C_7  and  C_19
    2  A    between atoms: C_10  and  C_17
    3  A    between atoms: C_20  and  C_29
    4  A    between atoms: C_29  and  C_30
                            x       y       z     vdW  Elec       q    Type
                         _______ _______ _______ _____ _____    ______ ____

>  <TORSDO>
F 4

$$$$
=
 OpenBabel11122413023D

 32 37  0  0  1  0  0  0  0  0999 V2000
  161.6020  210.2660  149.6570 C   0  0  1  0  0  3  0  0  0  0  0  0
  159.0600  210.7100  153.1780 C   0  0  0  0  0  2  0  0  0  0  0  0
  159.5620  209.3660  153.6880 C   0  0  0  0  0  2  0  0  0  0  0  0
  161.0730  207.7890  149.4560 C   0  0  2  0  0  3  0  0  0  0  0  0
  161.3600  206.3670  149.9600 C   0  0  2  0  0  3  0  0  0  0  0  0
  161.7590  211.9320  147.7540 C   0  0  2  0  0  3  0  0  0  0  0  0
  161.7180  212.7860  150.1780 C   0  0  0  0  0  2  0  0  0  0  0  0
  161.6790  205.0460  151.9800 C   0  0  1  0  0  3  0  0  0  0  0  0
  159.7290  211.0400  151.8500 C   0  0  0  0  0  2  0  0  0  0  0  0
  161.9560  211.3500  150.6810 C   0  0  1  0  0  3  0  0  0  0  0  0
  161.2570  211.0880  152.0060 C   0  0  2  0  0  3  0  0  0  0  0  0
  161.9090  208.6370  151.6310 C   0  0  0  0  0  0  0  0  0  0  0  0
  160.4750  204.5260  151.2110 C   0  0  0  0  0  2  0  0  0  0  0  0
  161.0810  212.8660  148.7810 C   0  0  2  0  0  3  0  0  0  0  0  0
  160.0800  205.6160  150.2390 C   0  0  0  0  0  2  0  0  0  0  0  0
  161.0700  209.4280  153.9090 C   0  0  0  0  0  2  0  0  0  0  0  0
  161.8120  209.7910  152.6140 C   0  0  2  0  0  3  0  0  0  0  0  0
  162.0030  207.4370  152.0970 N   0  0  0  0  0  0  0  0  0  0  0  0
  162.2890  210.6170  148.3420 C   0  0  0  0  0  2  0  0  0  0  0  0
  161.2070  207.7900  147.9430 C   0  0  0  0  0  1  0  0  0  0  0  0
  162.7600  203.9840  152.0100 C   0  0  0  0  0  1  0  0  0  0  0  0
  161.9790  208.8450  150.1220 C   0  0  2  0  0  3  0  0  0  0  0  0
  162.1850  206.2770  151.2480 C   0  0  2  0  0  3  0  0  0  0  0  0
  158.8730  213.7280  149.5360 C   0  0  0  0  0  2  0  0  0  0  0  0
  159.5880  212.5780  148.8560 C   0  0  1  0  0  3  0  0  0  0  0  0
  158.8340  213.6010  148.0270 C   0  0  1  0  0  3  0  0  0  0  0  0
  157.5100  213.0010  147.5990 C   0  0  0  0  0  2  0  0  0  0  0  0
  157.3570  213.1120  146.1230 C   0  0  0  0  0  0  0  0  0  0  0  0
  158.3250  212.5780  145.2820 O   0  0  0  0  0  0  0  0  0  0  0  0
  156.3680  213.7190  145.6360 O   0  0  0  0  0  1  0  0  0  0  0  0
  162.3520  213.3940  145.8240 C   0  0  0  0  0  1  0  0  0  0  0  0
  162.8870  212.6490  147.0330 C   0  0  0  0  0  2  0  0  0  0  0  0
  1 19  1  6  0  0  0
  1 22  1  0  0  0  0
  1 10  1  0  0  0  0
  2  3  1  0  0  0  0
  3 16  1  0  0  0  0
  4 20  1  6  0  0  0
  4  5  1  0  0  0  0
  4 22  1  0  0  0  0
  5 15  1  1  0  0  0
  5 23  1  0  0  0  0
  6 32  1  1  0  0  0
  6 19  1  0  0  0  0
  6 14  1  0  0  0  0
  8 21  1  6  0  0  0
  9  2  1  0  0  0  0
 10  7  1  6  0  0  0
 10 11  1  0  0  0  0
 11  9  1  6  0  0  0
 11 17  1  0  0  0  0
 12 18  2  0  0  0  0
 12 17  1  0  0  0  0
 13  8  1  0  0  0  0
 14 25  1  0  0  0  0
 14  7  1  1  0  0  0
 15 13  1  0  0  0  0
 17 16  1  1  0  0  0
 22 12  1  1  0  0  0
 23  8  1  0  0  0  0
 23 18  1  1  0  0  0
 25 24  1  1  0  0  0
 26 27  1  1  0  0  0
 26 25  1  0  0  0  0
 26 24  1  0  0  0  0
 28 27  1  0  0  0  0
 29 28  2  0  0  0  0
 30 28  1  0  0  0  0
 31 32  1  0  0  0  0
M  END
>  <MODEL>
5

>  <REMARK>
 VINA RESULT:      -2.8      7.194     11.256
  Name = 
  4 active torsions:
  status: ('A' for Active; 'I' for Inactive)
    1  A    between atoms: C_7  and  C_19
    2  A    between atoms: C_10  and  C_17
    3  A    between atoms: C_20  and  C_29
    4  A    between atoms: C_29  and  C_30
                            x       y       z     vdW  Elec       q    Type
                         _______ _______ _______ _____ _____    ______ ____

>  <TORSDO>
F 4

$$$$
=
 OpenBabel11122413023D

 32 37  0  0  1  0  0  0  0  0999 V2000
  159.9060  212.5110  152.6960 C   0  0  1  0  0  3  0  0  0  0  0  0
  160.5110  208.2800  151.8040 C   0  0  0  0  0  2  0  0  0  0  0  0
  161.1240  208.6680  150.4650 C   0  0  0  0  0  2  0  0  0  0  0  0
  159.2010  213.0230  150.3100 C   0  0  2  0  0  3  0  0  0  0  0  0
  159.6480  213.2930  148.8660 C   0  0  2  0  0  3  0  0  0  0  0  0
  158.8400  213.4150  154.8100 C   0  0  2  0  0  3  0  0  0  0  0  0
  160.5340  211.4900  154.9760 C   0  0  0  0  0  2  0  0  0  0  0  0
  161.1650  212.5280  147.1230 C   0  0  1  0  0  3  0  0  0  0  0  0
  160.1100  209.5340  152.5700 C   0  0  0  0  0  2  0  0  0  0  0  0
  160.9450  211.7330  153.5130 C   0  0  1  0  0  3  0  0  0  0  0  0
  161.3270  210.4410  152.8070 C   0  0  2  0  0  3  0  0  0  0  0  0
  161.3600  211.8580  150.6700 C   0  0  0  0  0  0  0  0  0  0  0  0
  159.7270  212.3940  146.6480 C   0  0  0  0  0  2  0  0  0  0  0  0
  159.1220  211.9870  155.3250 C   0  0  2  0  0  3  0  0  0  0  0  0
  158.8560  212.4650  147.8830 C   0  0  0  0  0  2  0  0  0  0  0  0
  162.3720  209.5140  150.6950 C   0  0  0  0  0  2  0  0  0  0  0  0
  162.0490  210.7840  151.4950 C   0  0  2  0  0  3  0  0  0  0  0  0
  161.6580  211.9590  149.4190 N   0  0  0  0  0  0  0  0  0  0  0  0
  159.5290  213.7610  153.4820 C   0  0  0  0  0  2  0  0  0  0  0  0
  158.2610  214.1390  150.7310 C   0  0  0  0  0  1  0  0  0  0  0  0
  161.8900  213.5470  146.2680 C   0  0  0  0  0  1  0  0  0  0  0  0
  160.3920  212.8680  151.2780 C   0  0  2  0  0  3  0  0  0  0  0  0
  161.1220  213.0000  148.5660 C   0  0  2  0  0  3  0  0  0  0  0  0
  158.1180  209.7270  155.5980 C   0  0  0  0  0  2  0  0  0  0  0  0
  158.0700  211.0170  154.8040 C   0  0  1  0  0  3  0  0  0  0  0  0
  157.0440  210.7540  155.8900 C   0  0  1  0  0  3  0  0  0  0  0  0
  155.7430  210.3310  155.2390 C   0  0  0  0  0  2  0  0  0  0  0  0
  154.6440  210.3480  156.2430 C   0  0  0  0  0  0  0  0  0  0  0  0
  154.6480  211.2930  157.2610 O   0  0  0  0  0  1  0  0  0  0  0  0
  153.7300  209.4850  156.1920 O   0  0  0  0  0  0  0  0  0  0  0  0
  158.5580  214.1260  157.1820 C   0  0  0  0  0  1  0  0  0  0  0  0
  159.2160  214.4510  155.8550 C   0  0  0  0  0  2  0  0  0  0  0  0
  1 19  1  1  0  0  0
  1 10  1  0  0  0  0
  2  9  1  0  0  0  0
  3 16  1  0  0  0  0
  3  2  1  0  0  0  0
  4 20  1  1  0  0  0
  4 22  1  0  0  0  0
  5 15  1  6  0  0  0
  5  4  1  0  0  0  0
  6 14  1  0  0  0  0
  6 32  1  1  0  0  0
  8 21  1  6  0  0  0
  8 23  1  0  0  0  0
 10  7  1  1  0  0  0
 11  9  1  6  0  0  0
 11 10  1  0  0  0  0
 12 17  1  0  0  0  0
 13  8  1  0  0  0  0
 13 15  1  0  0  0  0
 14  7  1  6  0  0  0
 17 16  1  6  0  0  0
 17 11  1  0  0  0  0
 18 12  2  0  0  0  0
 19  6  1  0  0  0  0
 22 12  1  6  0  0  0
 22  1  1  0  0  0  0
 23  5  1  0  0  0  0
 23 18  1  1  0  0  0
 24 26  1  0  0  0  0
 25 14  1  0  0  0  0
 25 24  1  1  0  0  0
 25 26  1  0  0  0  0
 26 27  1  6  0  0  0
 27 28  1  0  0  0  0
 28 29  1  0  0  0  0
 30 28  2  0  0  0  0
 32 31  1  0  0  0  0
M  END
>  <MODEL>
6

>  <REMARK>
 VINA RESULT:      -1.9      8.778     13.966
  Name = 
  4 active torsions:
  status: ('A' for Active; 'I' for Inactive)
    1  A    between atoms: C_7  and  C_19
    2  A    between atoms: C_10  and  C_17
    3  A    between atoms: C_20  and  C_29
    4  A    between atoms: C_29  and  C_30
                            x       y       z     vdW  Elec       q    Type
                         _______ _______ _______ _____ _____    ______ ____

>  <TORSDO>
F 4

$$$$
=
 OpenBabel11122413023D

 32 37  0  0  1  0  0  0  0  0999 V2000
  161.7570  209.1340  150.4440 C   0  0  1  0  0  3  0  0  0  0  0  0
  159.7140  209.1490  154.3030 C   0  0  0  0  0  2  0  0  0  0  0  0
  160.0810  207.6820  154.4830 C   0  0  0  0  0  2  0  0  0  0  0  0
  160.8730  206.8230  149.8650 C   0  0  2  0  0  3  0  0  0  0  0  0
  161.0160  205.3060  150.0550 C   0  0  2  0  0  3  0  0  0  0  0  0
  161.9260  211.1180  148.8780 C   0  0  2  0  0  3  0  0  0  0  0  0
  162.2760  211.4690  151.4000 C   0  0  0  0  0  2  0  0  0  0  0  0
  161.3770  203.5800  151.7340 C   0  0  1  0  0  3  0  0  0  0  0  0
  160.2680  209.6600  152.9790 C   0  0  0  0  0  2  0  0  0  0  0  0
  162.3690  209.9440  151.5920 C   0  0  1  0  0  3  0  0  0  0  0  0
  161.7950  209.5030  152.9300 C   0  0  2  0  0  3  0  0  0  0  0  0
  162.0570  207.1180  152.0230 C   0  0  0  0  0  0  0  0  0  0  0  0
  160.0330  203.3640  151.0550 C   0  0  0  0  0  2  0  0  0  0  0  0
  161.5020  211.8980  150.1420 C   0  0  2  0  0  3  0  0  0  0  0  0
  159.6840  204.6640  150.3640 C   0  0  0  0  0  2  0  0  0  0  0  0
  161.5980  207.5280  154.5020 C   0  0  0  0  0  2  0  0  0  0  0  0
  162.2310  208.0570  153.2060 C   0  0  2  0  0  3  0  0  0  0  0  0
  162.0370  205.8470  152.2430 N   0  0  0  0  0  0  0  0  0  0  0  0
  162.3320  209.6610  149.1350 C   0  0  0  0  0  2  0  0  0  0  0  0
  160.8330  207.1120  148.3750 C   0  0  0  0  0  1  0  0  0  0  0  0
  162.2970  202.4190  151.4190 C   0  0  0  0  0  1  0  0  0  0  0  0
  161.9840  207.6150  150.5830 C   0  0  2  0  0  3  0  0  0  0  0  0
  161.9610  204.8680  151.1790 C   0  0  2  0  0  3  0  0  0  0  0  0
  159.5990  212.5420  151.6090 C   0  0  0  0  0  2  0  0  0  0  0  0
  160.0020  211.7720  150.3670 C   0  0  1  0  0  3  0  0  0  0  0  0
  159.3560  213.1380  150.2380 C   0  0  1  0  0  3  0  0  0  0  0  0
  157.9010  212.9550  149.8520 C   0  0  0  0  0  2  0  0  0  0  0  0
  157.6190  213.6760  148.5810 C   0  0  0  0  0  0  0  0  0  0  0  0
  156.3870  214.2880  148.3880 O   0  0  0  0  0  1  0  0  0  0  0  0
  158.4830  213.7020  147.6670 O   0  0  0  0  0  0  0  0  0  0  0  0
  162.6750  213.2780  147.8840 C   0  0  0  0  0  1  0  0  0  0  0  0
  163.0520  211.8330  148.1530 C   0  0  0  0  0  2  0  0  0  0  0  0
  1 19  1  6  0  0  0
  1 22  1  0  0  0  0
  1 10  1  0  0  0  0
  2  3  1  0  0  0  0
  3 16  1  0  0  0  0
  4 20  1  6  0  0  0
  4  5  1  0  0  0  0
  4 22  1  0  0  0  0
  5 15  1  1  0  0  0
  5 23  1  0  0  0  0
  6 32  1  1  0  0  0
  6 19  1  0  0  0  0
  6 14  1  0  0  0  0
  8 21  1  6  0  0  0
  9  2  1  0  0  0  0
 10  7  1  6  0  0  0
 10 11  1  0  0  0  0
 11  9  1  6  0  0  0
 11 17  1  0  0  0  0
 12 18  2  0  0  0  0
 12 17  1  0  0  0  0
 13  8  1  0  0  0  0
 14 25  1  0  0  0  0
 14  7  1  1  0  0  0
 15 13  1  0  0  0  0
 17 16  1  1  0  0  0
 22 12  1  1  0  0  0
 23  8  1  0  0  0  0
 23 18  1  1  0  0  0
 25 24  1  1  0  0  0
 26 27  1  6  0  0  0
 26 25  1  0  0  0  0
 26 24  1  0  0  0  0
 28 27  1  0  0  0  0
 29 28  1  0  0  0  0
 30 28  2  0  0  0  0
 31 32  1  0  0  0  0
M  END
>  <MODEL>
7

>  <REMARK>
 VINA RESULT:      -1.9      8.733     12.556
  Name = 
  4 active torsions:
  status: ('A' for Active; 'I' for Inactive)
    1  A    between atoms: C_7  and  C_19
    2  A    between atoms: C_10  and  C_17
    3  A    between atoms: C_20  and  C_29
    4  A    between atoms: C_29  and  C_30
                            x       y       z     vdW  Elec       q    Type
                         _______ _______ _______ _____ _____    ______ ____

>  <TORSDO>
F 4

$$$$
=
 OpenBabel11122413023D

 32 37  0  0  1  0  0  0  0  0999 V2000
  159.8340  210.2730  154.2290 C   0  0  1  0  0  3  0  0  0  0  0  0
  158.7560  213.9020  156.4040 C   0  0  0  0  0  2  0  0  0  0  0  0
  158.1190  214.4520  155.1340 C   0  0  0  0  0  2  0  0  0  0  0  0
  160.4670  211.5810  152.1460 C   0  0  2  0  0  3  0  0  0  0  0  0
  159.9780  212.3060  150.8830 C   0  0  2  0  0  3  0  0  0  0  0  0
  161.0910  208.3050  155.2120 C   0  0  2  0  0  3  0  0  0  0  0  0
  159.2200  209.4160  156.5790 C   0  0  0  0  0  2  0  0  0  0  0  0
  158.3050  213.8740  150.0650 C   0  0  1  0  0  3  0  0  0  0  0  0
  159.3210  212.5130  156.1360 C   0  0  0  0  0  2  0  0  0  0  0  0
  158.7630  210.1780  155.3220 C   0  0  1  0  0  3  0  0  0  0  0  0
  158.2160  211.5570  155.6610 C   0  0  2  0  0  3  0  0  0  0  0  0
  158.2210  211.9550  153.1270 C   0  0  0  0  0  0  0  0  0  0  0  0
  159.6960  214.4490  149.8510 C   0  0  0  0  0  2  0  0  0  0  0  0
  160.6910  208.9720  156.5470 C   0  0  2  0  0  3  0  0  0  0  0  0
  160.6310  213.6610  150.7410 C   0  0  0  0  0  2  0  0  0  0  0  0
  156.9770  213.5420  154.6940 C   0  0  0  0  0  2  0  0  0  0  0  0
  157.4680  212.1100  154.4380 C   0  0  2  0  0  3  0  0  0  0  0  0
  157.8730  212.6910  152.1260 N   0  0  0  0  0  0  0  0  0  0  0  0
  160.3750  208.8700  153.9780 C   0  0  0  0  0  2  0  0  0  0  0  0
  161.5360  210.5840  151.7330 C   0  0  0  0  0  1  0  0  0  0  0  0
  157.6460  213.6250  148.7240 C   0  0  0  0  0  1  0  0  0  0  0  0
  159.3170  210.9130  152.9260 C   0  0  2  0  0  3  0  0  0  0  0  0
  158.4690  212.5620  150.8120 C   0  0  2  0  0  3  0  0  0  0  0  0
  162.9790  209.6400  157.2610 C   0  0  0  0  0  2  0  0  0  0  0  0
  161.6110  210.1470  156.8500 C   0  0  1  0  0  3  0  0  0  0  0  0
  162.7560  210.1610  155.8570 C   0  0  1  0  0  3  0  0  0  0  0  0
  163.2890  211.5760  155.7470 C   0  0  0  0  0  2  0  0  0  0  0  0
  164.7650  211.5800  155.9430 C   0  0  0  0  0  0  0  0  0  0  0  0
  165.6110  211.4520  154.8500 O   0  0  0  0  0  0  0  0  0  0  0  0
  165.2450  211.6630  157.1030 O   0  0  0  0  0  1  0  0  0  0  0  0
  161.2260  206.1640  153.9420 C   0  0  0  0  0  1  0  0  0  0  0  0
  160.8760  206.8030  155.2730 C   0  0  0  0  0  2  0  0  0  0  0  0
  1 19  1  6  0  0  0
  1 10  1  0  0  0  0
  3  2  1  0  0  0  0
  4 20  1  6  0  0  0
  4 22  1  0  0  0  0
  5 15  1  1  0  0  0
  5  4  1  0  0  0  0
  6 32  1  1  0  0  0
  6 14  1  0  0  0  0
  8 21  1  6  0  0  0
  8 23  1  0  0  0  0
  9  2  1  0  0  0  0
 10 11  1  0  0  0  0
 10  7  1  1  0  0  0
 11  9  1  6  0  0  0
 12 17  1  0  0  0  0
 13  8  1  0  0  0  0
 13 15  1  0  0  0  0
 14  7  1  6  0  0  0
 14 25  1  0  0  0  0
 16  3  1  0  0  0  0
 17 16  1  1  0  0  0
 17 11  1  0  0  0  0
 18 12  2  0  0  0  0
 19  6  1  0  0  0  0
 22 12  1  1  0  0  0
 22  1  1  0  0  0  0
 23  5  1  0  0  0  0
 23 18  1  1  0  0  0
 25 24  1  1  0  0  0
 26 27  1  1  0  0  0
 26 25  1  0  0  0  0
 26 24  1  0  0  0  0
 27 28  1  0  0  0  0
 28 30  1  0  0  0  0
 29 28  2  0  0  0  0
 31 32  1  0  0  0  0
M  END
>  <MODEL>
8

>  <REMARK>
 VINA RESULT:      -1.3     10.079     14.915
  Name = 
  4 active torsions:
  status: ('A' for Active; 'I' for Inactive)
    1  A    between atoms: C_7  and  C_19
    2  A    between atoms: C_10  and  C_17
    3  A    between atoms: C_20  and  C_29
    4  A    between atoms: C_29  and  C_30
                            x       y       z     vdW  Elec       q    Type
                         _______ _______ _______ _____ _____    ______ ____

>  <TORSDO>
F 4

$$$$
=
 OpenBabel11122413023D

 32 37  0  0  1  0  0  0  0  0999 V2000
  159.4560  210.2860  154.7040 C   0  0  1  0  0  3  0  0  0  0  0  0
  159.8560  212.9790  151.2910 C   0  0  0  0  0  2  0  0  0  0  0  0
  158.8590  213.9260  151.9450 C   0  0  0  0  0  2  0  0  0  0  0  0
  156.9500  210.6720  154.8520 C   0  0  2  0  0  3  0  0  0  0  0  0
  155.8160  211.5940  155.3250 C   0  0  2  0  0  3  0  0  0  0  0  0
  160.6560  208.0680  154.9580 C   0  0  2  0  0  3  0  0  0  0  0  0
  161.9480  210.1070  154.0750 C   0  0  0  0  0  2  0  0  0  0  0  0
  155.1030  213.9210  155.4030 C   0  0  1  0  0  3  0  0  0  0  0  0
  160.0830  211.7700  152.1900 C   0  0  0  0  0  2  0  0  0  0  0  0
  160.7860  211.0210  154.5060 C   0  0  1  0  0  3  0  0  0  0  0  0
  160.6130  212.2030  153.5640 C   0  0  2  0  0  3  0  0  0  0  0  0
  158.4440  212.6510  154.8560 C   0  0  0  0  0  0  0  0  0  0  0  0
  154.1010  213.1020  154.6050 C   0  0  0  0  0  2  0  0  0  0  0  0
  161.5400  208.6450  153.8310 C   0  0  2  0  0  3  0  0  0  0  0  0
  154.7950  211.8110  154.2330 C   0  0  0  0  0  2  0  0  0  0  0  0
  159.4110  214.4140  153.2810 C   0  0  0  0  0  2  0  0  0  0  0  0
  159.6970  213.2410  154.2310 C   0  0  2  0  0  3  0  0  0  0  0  0
  157.4520  213.4380  155.1060 N   0  0  0  0  0  0  0  0  0  0  0  0
  159.7110  209.0870  155.6110 C   0  0  0  0  0  2  0  0  0  0  0  0
  156.6730  209.2740  155.3770 C   0  0  0  0  0  1  0  0  0  0  0  0
  154.4410  214.4530  156.6580 C   0  0  0  0  0  1  0  0  0  0  0  0
  158.3420  211.1870  155.2710 C   0  0  2  0  0  3  0  0  0  0  0  0
  156.2470  212.9930  155.7760 C   0  0  2  0  0  3  0  0  0  0  0  0
  161.7210  209.0710  151.3860 C   0  0  0  0  0  2  0  0  0  0  0  0
  160.8460  208.5010  152.4840 C   0  0  1  0  0  3  0  0  0  0  0  0
  161.6520  207.5730  151.5960 C   0  0  1  0  0  3  0  0  0  0  0  0
  160.7270  206.9550  150.5670 C   0  0  0  0  0  2  0  0  0  0  0  0
  161.1040  205.5340  150.3340 C   0  0  0  0  0  0  0  0  0  0  0  0
  161.6590  204.7850  151.3630 O   0  0  0  0  0  1  0  0  0  0  0  0
  160.9520  205.0220  149.1950 O   0  0  0  0  0  0  0  0  0  0  0  0
  160.6660  207.0960  157.2540 C   0  0  0  0  0  1  0  0  0  0  0  0
  161.5070  207.4140  156.0320 C   0  0  0  0  0  2  0  0  0  0  0  0
  1 22  1  0  0  0  0
  1 19  1  1  0  0  0
  2  3  1  0  0  0  0
  2  9  1  0  0  0  0
  3 16  1  0  0  0  0
  4 22  1  0  0  0  0
  4  5  1  0  0  0  0
  4 20  1  1  0  0  0
  5 15  1  6  0  0  0
  5 23  1  0  0  0  0
  6 19  1  0  0  0  0
  6 32  1  1  0  0  0
  8 23  1  0  0  0  0
  8 21  1  1  0  0  0
 10  7  1  6  0  0  0
 10  1  1  0  0  0  0
 11  9  1  6  0  0  0
 11 17  1  0  0  0  0
 11 10  1  0  0  0  0
 12 18  2  0  0  0  0
 13  8  1  0  0  0  0
 14  7  1  1  0  0  0
 14  6  1  0  0  0  0
 15 13  1  0  0  0  0
 17 16  1  6  0  0  0
 17 12  1  0  0  0  0
 22 12  1  6  0  0  0
 23 18  1  6  0  0  0
 24 26  1  0  0  0  0
 25 24  1  6  0  0  0
 25 14  1  0  0  0  0
 26 27  1  6  0  0  0
 26 25  1  0  0  0  0
 28 27  1  0  0  0  0
 28 29  1  0  0  0  0
 30 28  2  0  0  0  0
 32 31  1  0  0  0  0
M  END
>  <MODEL>
9

>  <REMARK>
 VINA RESULT:      -1.0     11.353     14.198
  Name = 
  4 active torsions:
  status: ('A' for Active; 'I' for Inactive)
    1  A    between atoms: C_7  and  C_19
    2  A    between atoms: C_10  and  C_17
    3  A    between atoms: C_20  and  C_29
    4  A    between atoms: C_29  and  C_30
                            x       y       z     vdW  Elec       q    Type
                         _______ _______ _______ _____ _____    ______ ____

>  <TORSDO>
F 4

$$$$
