=
 OpenBabel11122412323D

 30 35  0  0  1  0  0  0  0  0999 V2000
  161.4700  206.3740  150.0340 C   0  0  1  0  0  3  0  0  0  0  0  0
  161.2400  203.8470  149.7770 C   0  0  0  0  0  0  0  0  0  0  0  0
  160.8680  206.0060  154.3180 C   0  0  0  0  0  2  0  0  0  0  0  0
  161.8010  207.4750  151.0660 C   0  0  1  0  0  3  0  0  0  0  0  0
  162.3810  206.4500  148.9640 O   0  0  0  0  0  0  0  0  0  0  0  0
  162.0490  209.9730  148.4190 O   0  0  0  0  0  0  0  0  0  0  0  0
  160.4220  210.2810  151.9140 C   0  0  1  0  0  3  0  0  0  0  0  0
  161.9470  208.8580  148.9970 C   0  0  0  0  0  0  0  0  0  0  0  0
  160.2250  209.5490  153.2290 C   0  0  2  0  0  3  0  0  0  0  0  0
  160.8060  207.4740  154.5300 C   0  0  0  0  0  0  0  0  0  0  0  0
  162.0540  207.5890  148.1820 C   0  0  2  0  0  3  0  0  0  0  0  0
  161.7010  208.7870  150.4160 N   0  0  0  0  0  0  0  0  0  0  0  0
  161.0300  202.5770  150.3230 C   0  0  0  0  0  3  0  0  0  0  0  0
  160.7200  210.5320  154.2660 C   0  0  0  0  0  2  0  0  0  0  0  0
  160.3240  211.7460  152.2940 C   0  0  0  0  0  2  0  0  0  0  0  0
  161.3190  203.9760  148.4290 F   0  0  0  0  0  0  0  0  0  0  0  0
  161.3830  205.9910  152.8980 C   0  0  2  0  0  3  0  0  0  0  0  0
  160.9160  202.4120  151.7040 C   0  0  0  0  0  3  0  0  0  0  0  0
  161.3530  204.9700  150.6180 C   0  0  0  0  0  0  0  0  0  0  0  0
  160.8650  207.2610  152.2520 C   0  0  1  0  0  3  0  0  0  0  0  0
  160.6280  207.9870  155.6660 O   0  0  0  0  0  0  0  0  0  0  0  0
  160.8970  208.2480  153.3270 N   0  0  0  0  0  0  0  0  0  0  0  0
  160.5040  211.8730  153.7390 N   0  0  0  0  0  2  0  0  0  0  0  0
  163.0030  210.1180  152.0480 C   0  0  0  0  0  1  0  0  0  0  0  0
  160.9990  203.5190  152.5510 C   0  0  0  0  0  3  0  0  0  0  0  0
  161.1830  204.7980  152.0150 C   0  0  0  0  0  0  0  0  0  0  0  0
  161.7460  210.0250  151.1860 C   0  0  2  0  0  3  0  0  0  0  0  0
  160.7990  207.3640  147.3430 C   0  0  0  0  0  2  0  0  0  0  0  0
  160.3880  206.3080  145.4510 C   0  0  0  0  0  1  0  0  0  0  0  0
  160.8450  206.1010  146.7510 O   0  0  0  0  0  0  0  0  0  0  0  0
  1  5  1  6  0  0  0
  1 19  1  0  0  0  0
  1  4  1  0  0  0  0
  2 13  2  0  0  0  0
  2 19  1  0  0  0  0
  3 10  1  0  0  0  0
  4 12  1  6  0  0  0
  4 20  1  0  0  0  0
  6  8  2  0  0  0  0
  7 15  1  1  0  0  0
  7  9  1  0  0  0  0
  8 12  1  0  0  0  0
  9 22  1  0  0  0  0
  9 14  1  1  0  0  0
 10 21  2  0  0  0  0
 11 28  1  1  0  0  0
 11  5  1  0  0  0  0
 11  8  1  0  0  0  0
 12 27  1  0  0  0  0
 13 18  1  0  0  0  0
 15 23  1  0  0  0  0
 16  2  1  0  0  0  0
 17  3  1  1  0  0  0
 18 25  2  0  0  0  0
 19 26  2  0  0  0  0
 20 17  1  0  0  0  0
 20 22  1  1  0  0  0
 22 10  1  0  0  0  0
 23 14  1  0  0  0  0
 26 25  1  0  0  0  0
 26 17  1  0  0  0  0
 27  7  1  0  0  0  0
 27 24  1  1  0  0  0
 29 30  1  0  0  0  0
 30 28  1  0  0  0  0
M  END
>  <MODEL>
1

>  <REMARK>
 VINA RESULT:      -9.2      0.000      0.000
  Name = 
  2 active torsions:
  status: ('A' for Active; 'I' for Inactive)
    1  A    between atoms: C_11  and  C_28
    2  A    between atoms: C_28  and  O_30
                            x       y       z     vdW  Elec       q    Type
                         _______ _______ _______ _____ _____    ______ ____

>  <TORSDO>
F 2

$$$$
