=
 OpenBabel11122413293D

 31 35  0  0  1  0  0  0  0  0999 V2000
  160.6310  207.4050  156.3690 C   0  0  0  0  0  0  0  0  0  0  0  0
  161.9190  208.5580  152.9760 C   0  0  2  0  0  3  0  0  0  0  0  0
  161.4540  207.5090  151.9750 C   0  0  0  0  0  0  0  0  0  0  0  0
  160.7930  205.2300  151.3930 C   0  0  0  0  0  0  0  0  0  0  0  0
  161.1400  208.5120  154.2690 C   0  0  0  0  0  0  0  0  0  0  0  0
  159.6470  208.3590  156.6380 C   0  0  0  0  0  3  0  0  0  0  0  0
  161.2070  206.2520  152.3640 C   0  0  0  0  0  3  0  0  0  0  0  0
  160.4750  210.4450  152.3010 N   0  0  0  0  0  0  0  0  0  0  0  0
  160.8630  206.4030  157.2510 F   0  0  0  0  0  0  0  0  0  0  0  0
  161.8740  209.1040  150.1090 O   0  0  0  0  0  0  0  0  0  0  0  0
  160.6620  204.0360  151.7630 O   0  0  0  0  0  0  0  0  0  0  0  0
  159.9800  210.6750  153.6620 C   0  0  0  0  0  2  0  0  0  0  0  0
  161.8710  209.9830  152.3790 C   0  0  2  0  0  3  0  0  0  0  0  0
  161.3770  207.4830  155.1910 C   0  0  0  0  0  3  0  0  0  0  0  0
  160.4620  205.6140  149.9800 C   0  0  0  0  0  2  0  0  0  0  0  0
  160.1480  209.4740  154.5450 C   0  0  0  0  0  0  0  0  0  0  0  0
  159.4150  209.3970  155.7330 C   0  0  0  0  0  3  0  0  0  0  0  0
  162.5490  209.9840  151.0020 C   0  0  0  0  0  2  0  0  0  0  0  0
  161.4280  207.8500  150.5280 C   0  0  0  0  0  0  0  0  0  0  0  0
  160.9920  206.9760  149.6160 C   0  0  0  0  0  3  0  0  0  0  0  0
  158.1840  212.0280  152.0390 O   0  0  0  0  0  0  0  0  0  0  0  0
  159.2650  212.4680  151.5610 C   0  0  0  0  0  0  0  0  0  0  0  0
  160.4620  211.6970  151.6630 N   0  0  0  0  0  2  0  0  0  0  0  0
  157.7380  213.8130  148.3660 C   0  0  1  0  0  3  0  0  0  0  0  0
  157.9270  214.4530  150.7860 C   0  0  0  0  0  2  0  0  0  0  0  0
  161.2050  213.0840  149.5400 O   0  0  0  0  0  1  0  0  0  0  0  0
  156.9210  213.1960  147.4200 O   0  0  0  0  0  1  0  0  0  0  0  0
  157.0460  213.7900  149.7260 C   0  0  0  0  0  2  0  0  0  0  0  0
  159.9760  213.7440  149.4780 C   0  0  2  0  0  3  0  0  0  0  0  0
  159.3100  213.7970  150.8640 C   0  0  2  0  0  3  0  0  0  0  0  0
  159.0730  213.0790  148.4410 C   0  0  0  0  0  2  0  0  0  0  0  0
  1  6  1  0  0  0  0
  1  9  1  0  0  0  0
  2  3  1  6  0  0  0
  2  5  1  0  0  0  0
  3  7  2  0  0  0  0
  4 11  2  0  0  0  0
  4  7  1  0  0  0  0
  5 16  2  0  0  0  0
  5 14  1  0  0  0  0
  8 13  1  0  0  0  0
  8 12  1  0  0  0  0
 10 19  1  0  0  0  0
 10 18  1  0  0  0  0
 12 16  1  0  0  0  0
 13 18  1  6  0  0  0
 13  2  1  0  0  0  0
 14  1  2  0  0  0  0
 15  4  1  0  0  0  0
 16 17  1  0  0  0  0
 17  6  2  0  0  0  0
 19  3  1  0  0  0  0
 20 15  1  0  0  0  0
 20 19  2  0  0  0  0
 22 23  1  0  0  0  0
 22 21  2  0  0  0  0
 23  8  1  0  0  0  0
 24 27  1  6  0  0  0
 24 31  1  0  0  0  0
 24 28  1  0  0  0  0
 25 30  1  0  0  0  0
 28 25  1  0  0  0  0
 29 26  1  1  0  0  0
 29 30  1  0  0  0  0
 30 22  1  6  0  0  0
 31 29  1  0  0  0  0
M  END
>  <MODEL>
1

>  <REMARK>
 VINA RESULT:      -7.3      0.000      0.000
  Name = 
  2 active torsions:
  status: ('A' for Active; 'I' for Inactive)
    1  A    between atoms: C_5  and  C_30
    2  A    between atoms: N_10  and  N_16
                            x       y       z     vdW  Elec       q    Type
                         _______ _______ _______ _____ _____    ______ ____

>  <TORSDO>
F 2

$$$$
=
 OpenBabel11122413293D

 31 35  0  0  1  0  0  0  0  0999 V2000
  160.2330  209.9980  154.5020 C   0  0  0  0  0  0  0  0  0  0  0  0
  162.0070  210.2950  151.1450 C   0  0  2  0  0  3  0  0  0  0  0  0
  161.6360  209.0400  150.3660 C   0  0  0  0  0  0  0  0  0  0  0  0
  160.9660  206.6940  150.2520 C   0  0  0  0  0  0  0  0  0  0  0  0
  161.0610  210.5660  152.2900 C   0  0  0  0  0  0  0  0  0  0  0  0
  159.2610  210.9970  154.3980 C   0  0  0  0  0  3  0  0  0  0  0  0
  161.2890  207.9150  151.0010 C   0  0  0  0  0  3  0  0  0  0  0  0
  160.7430  211.9770  149.8500 N   0  0  0  0  0  0  0  0  0  0  0  0
  160.3040  209.2350  155.6190 F   0  0  0  0  0  0  0  0  0  0  0  0
  162.3650  210.1380  148.2530 O   0  0  0  0  0  0  0  0  0  0  0  0
  160.7390  205.6240  150.8720 O   0  0  0  0  0  0  0  0  0  0  0  0
  160.0810  212.5300  151.0350 C   0  0  0  0  0  2  0  0  0  0  0  0
  162.0960  211.5360  150.2270 C   0  0  2  0  0  3  0  0  0  0  0  0
  161.1320  209.7860  153.4530 C   0  0  0  0  0  3  0  0  0  0  0  0
  160.8420  206.7300  148.7570 C   0  0  0  0  0  2  0  0  0  0  0  0
  160.0810  211.5730  152.1910 C   0  0  0  0  0  0  0  0  0  0  0  0
  159.1940  211.7890  153.2500 C   0  0  0  0  0  3  0  0  0  0  0  0
  162.9510  211.2020  148.9970 C   0  0  0  0  0  2  0  0  0  0  0  0
  161.8170  209.0250  148.8890 C   0  0  0  0  0  0  0  0  0  0  0  0
  161.4700  207.9610  148.1580 C   0  0  0  0  0  3  0  0  0  0  0  0
  159.8910  211.8450  147.1890 O   0  0  0  0  0  0  0  0  0  0  0  0
  160.4090  212.9210  147.5920 C   0  0  0  0  0  0  0  0  0  0  0  0
  160.8660  213.0390  148.9390 N   0  0  0  0  0  2  0  0  0  0  0  0
  161.7040  213.3010  144.0520 C   0  0  1  0  0  3  0  0  0  0  0  0
  159.6960  213.9520  145.4100 C   0  0  0  0  0  2  0  0  0  0  0  0
  162.8410  214.4330  147.4230 O   0  0  0  0  0  1  0  0  0  0  0  0
  162.2100  212.3530  143.1640 O   0  0  0  0  0  1  0  0  0  0  0  0
  160.2720  212.9320  144.4260 C   0  0  0  0  0  2  0  0  0  0  0  0
  162.0340  214.3780  146.2840 C   0  0  2  0  0  3  0  0  0  0  0  0
  160.5700  214.0890  146.6610 C   0  0  2  0  0  3  0  0  0  0  0  0
  162.5800  213.3460  145.3010 C   0  0  0  0  0  2  0  0  0  0  0  0
  1  9  1  0  0  0  0
  2  3  1  6  0  0  0
  2  5  1  0  0  0  0
  3  7  2  0  0  0  0
  4 11  2  0  0  0  0
  4  7  1  0  0  0  0
  5 14  1  0  0  0  0
  6  1  1  0  0  0  0
  8 13  1  0  0  0  0
  8 12  1  0  0  0  0
 10 19  1  0  0  0  0
 10 18  1  0  0  0  0
 12 16  1  0  0  0  0
 13 18  1  6  0  0  0
 13  2  1  0  0  0  0
 14  1  2  0  0  0  0
 15  4  1  0  0  0  0
 16  5  2  0  0  0  0
 16 17  1  0  0  0  0
 17  6  2  0  0  0  0
 19  3  1  0  0  0  0
 20 15  1  0  0  0  0
 20 19  2  0  0  0  0
 21 22  2  0  0  0  0
 22 23  1  0  0  0  0
 23  8  1  0  0  0  0
 24 27  1  6  0  0  0
 24 28  1  0  0  0  0
 24 31  1  0  0  0  0
 25 30  1  0  0  0  0
 28 25  1  0  0  0  0
 29 30  1  0  0  0  0
 29 26  1  1  0  0  0
 30 22  1  6  0  0  0
 31 29  1  0  0  0  0
M  END
>  <MODEL>
2

>  <REMARK>
 VINA RESULT:      -6.4      2.670      3.649
  Name = 
  2 active torsions:
  status: ('A' for Active; 'I' for Inactive)
    1  A    between atoms: C_5  and  C_30
    2  A    between atoms: N_10  and  N_16
                            x       y       z     vdW  Elec       q    Type
                         _______ _______ _______ _____ _____    ______ ____

>  <TORSDO>
F 2

$$$$
=
 OpenBabel11122413293D

 31 35  0  0  1  0  0  0  0  0999 V2000
  161.0460  206.5100  146.6700 C   0  0  0  0  0  0  0  0  0  0  0  0
  160.2860  205.1560  150.1480 C   0  0  2  0  0  3  0  0  0  0  0  0
  160.7450  203.7050  150.1390 C   0  0  0  0  0  0  0  0  0  0  0  0
  161.2170  201.6010  148.9900 C   0  0  0  0  0  0  0  0  0  0  0  0
  160.9030  205.9660  149.0330 C   0  0  0  0  0  0  0  0  0  0  0  0
  162.0910  207.3990  146.9340 C   0  0  0  0  0  3  0  0  0  0  0  0
  160.8080  203.0120  148.9960 C   0  0  0  0  0  3  0  0  0  0  0  0
  161.9940  206.1240  151.6470 N   0  0  0  0  0  0  0  0  0  0  0  0
  160.6080  206.3370  145.4000 F   0  0  0  0  0  0  0  0  0  0  0  0
  160.7160  203.6820  152.6290 O   0  0  0  0  0  0  0  0  0  0  0  0
  161.1740  200.9430  147.9190 O   0  0  0  0  0  0  0  0  0  0  0  0
  162.3530  207.1890  150.7050 C   0  0  0  0  0  2  0  0  0  0  0  0
  160.5560  205.8370  151.5090 C   0  0  2  0  0  3  0  0  0  0  0  0
  160.4520  205.7990  147.7160 C   0  0  0  0  0  3  0  0  0  0  0  0
  161.7460  200.9580  150.2390 C   0  0  0  0  0  2  0  0  0  0  0  0
  161.9550  206.8650  149.2950 C   0  0  0  0  0  0  0  0  0  0  0  0
  162.5360  207.5840  148.2450 C   0  0  0  0  0  3  0  0  0  0  0  0
  160.0440  204.9370  152.6410 C   0  0  0  0  0  2  0  0  0  0  0  0
  160.9720  203.0090  151.4340 C   0  0  0  0  0  0  0  0  0  0  0  0
  161.4120  201.7470  151.4770 C   0  0  0  0  0  3  0  0  0  0  0  0
  160.6280  208.3360  152.6770 O   0  0  0  0  0  0  0  0  0  0  0  0
  161.4870  207.7760  153.4120 C   0  0  0  0  0  0  0  0  0  0  0  0
  162.2160  206.6470  152.9320 N   0  0  0  0  0  2  0  0  0  0  0  0
  159.4980  209.8110  155.9130 C   0  0  1  0  0  3  0  0  0  0  0  0
  160.8310  207.6850  155.8400 C   0  0  0  0  0  2  0  0  0  0  0  0
  162.5780  210.3860  153.8840 O   0  0  0  0  0  1  0  0  0  0  0  0
  158.2120  210.3420  155.8330 O   0  0  0  0  0  1  0  0  0  0  0  0
  159.4300  208.2930  155.7650 C   0  0  0  0  0  2  0  0  0  0  0  0
  161.7760  209.8310  154.8830 C   0  0  2  0  0  3  0  0  0  0  0  0
  161.7690  208.2950  154.7930 C   0  0  2  0  0  3  0  0  0  0  0  0
  160.3650  210.4090  154.8090 C   0  0  0  0  0  2  0  0  0  0  0  0
  1  6  2  0  0  0  0
  1 14  1  0  0  0  0
  2  5  1  6  0  0  0
  2 13  1  0  0  0  0
  3  2  1  0  0  0  0
  3 19  1  0  0  0  0
  4  7  1  0  0  0  0
  4 15  1  0  0  0  0
  5 16  1  0  0  0  0
  6 17  1  0  0  0  0
  7  3  2  0  0  0  0
  8 23  1  0  0  0  0
  9  1  1  0  0  0  0
 10 18  1  0  0  0  0
 11  4  2  0  0  0  0
 12  8  1  0  0  0  0
 13  8  1  0  0  0  0
 13 18  1  1  0  0  0
 14  5  2  0  0  0  0
 15 20  1  0  0  0  0
 16 12  1  0  0  0  0
 17 16  2  0  0  0  0
 19 20  2  0  0  0  0
 19 10  1  0  0  0  0
 21 22  2  0  0  0  0
 23 22  1  0  0  0  0
 24 27  1  6  0  0  0
 28 25  1  0  0  0  0
 28 24  1  0  0  0  0
 29 26  1  6  0  0  0
 30 22  1  6  0  0  0
 30 29  1  0  0  0  0
 30 25  1  0  0  0  0
 31 29  1  0  0  0  0
 31 24  1  0  0  0  0
M  END
>  <MODEL>
3

>  <REMARK>
 VINA RESULT:      -6.1      4.430      6.786
  Name = 
  2 active torsions:
  status: ('A' for Active; 'I' for Inactive)
    1  A    between atoms: C_5  and  C_30
    2  A    between atoms: N_10  and  N_16
                            x       y       z     vdW  Elec       q    Type
                         _______ _______ _______ _____ _____    ______ ____

>  <TORSDO>
F 2

$$$$
=
 OpenBabel11122413293D

 31 35  0  0  1  0  0  0  0  0999 V2000
  161.0510  204.2110  145.3100 C   0  0  0  0  0  0  0  0  0  0  0  0
  160.4980  205.3230  148.9100 C   0  0  2  0  0  3  0  0  0  0  0  0
  160.8880  204.1330  149.7770 C   0  0  0  0  0  0  0  0  0  0  0  0
  161.1720  201.7350  150.1440 C   0  0  0  0  0  0  0  0  0  0  0  0
  161.0650  205.2320  147.5130 C   0  0  0  0  0  0  0  0  0  0  0  0
  162.1530  204.9860  144.9400 C   0  0  0  0  0  3  0  0  0  0  0  0
  160.8310  202.8860  149.2970 C   0  0  0  0  0  3  0  0  0  0  0  0
  162.3600  206.8560  149.4460 N   0  0  0  0  0  0  0  0  0  0  0  0
  160.5090  203.3380  144.4270 F   0  0  0  0  0  0  0  0  0  0  0  0
  161.0500  205.6330  151.7590 O   0  0  0  0  0  0  0  0  0  0  0  0
  161.0160  200.5680  149.7020 O   0  0  0  0  0  0  0  0  0  0  0  0
  162.6950  207.0930  148.0380 C   0  0  0  0  0  2  0  0  0  0  0  0
  160.9040  206.6660  149.5600 C   0  0  2  0  0  3  0  0  0  0  0  0
  160.5070  204.3360  146.5900 C   0  0  0  0  0  3  0  0  0  0  0  0
  161.7650  201.9440  151.5060 C   0  0  0  0  0  2  0  0  0  0  0  0
  162.1750  206.0120  147.1360 C   0  0  0  0  0  0  0  0  0  0  0  0
  162.7060  205.8920  145.8470 C   0  0  0  0  0  3  0  0  0  0  0  0
  160.4390  206.6870  151.0220 C   0  0  0  0  0  2  0  0  0  0  0  0
  161.1820  204.3540  151.2190 C   0  0  0  0  0  0  0  0  0  0  0  0
  161.5650  203.3480  152.0120 C   0  0  0  0  0  3  0  0  0  0  0  0
  161.5790  209.4140  148.6290 O   0  0  0  0  0  0  0  0  0  0  0  0
  162.2750  209.3140  149.6760 C   0  0  0  0  0  0  0  0  0  0  0  0
  162.7040  208.0320  150.1330 N   0  0  0  0  0  2  0  0  0  0  0  0
  160.4370  211.6770  151.9980 C   0  0  1  0  0  3  0  0  0  0  0  0
  162.5550  210.3290  151.9620 C   0  0  0  0  0  2  0  0  0  0  0  0
  161.9940  211.9650  148.6180 O   0  0  0  0  0  1  0  0  0  0  0  0
  159.1090  211.6850  152.4200 O   0  0  0  0  0  1  0  0  0  0  0  0
  161.0960  210.3670  152.4220 C   0  0  0  0  0  2  0  0  0  0  0  0
  161.9410  211.8140  150.0050 C   0  0  2  0  0  3  0  0  0  0  0  0
  162.6760  210.5370  150.4490 C   0  0  2  0  0  3  0  0  0  0  0  0
  160.4900  211.8260  150.4810 C   0  0  0  0  0  2  0  0  0  0  0  0
  1 14  1  0  0  0  0
  2  5  1  6  0  0  0
  2 13  1  0  0  0  0
  2  3  1  0  0  0  0
  3 19  1  0  0  0  0
  4 15  1  0  0  0  0
  6  1  2  0  0  0  0
  6 17  1  0  0  0  0
  7  3  2  0  0  0  0
  7  4  1  0  0  0  0
  8 13  1  0  0  0  0
  8 23  1  0  0  0  0
  9  1  1  0  0  0  0
 11  4  2  0  0  0  0
 12  8  1  0  0  0  0
 13 18  1  1  0  0  0
 14  5  2  0  0  0  0
 15 20  1  0  0  0  0
 16  5  1  0  0  0  0
 16 12  1  0  0  0  0
 17 16  2  0  0  0  0
 18 10  1  0  0  0  0
 19 10  1  0  0  0  0
 19 20  2  0  0  0  0
 21 22  2  0  0  0  0
 22 23  1  0  0  0  0
 24 27  1  6  0  0  0
 24 28  1  0  0  0  0
 25 28  1  0  0  0  0
 29 26  1  6  0  0  0
 29 30  1  0  0  0  0
 29 31  1  0  0  0  0
 30 22  1  6  0  0  0
 30 25  1  0  0  0  0
 31 24  1  0  0  0  0
M  END
>  <MODEL>
4

>  <REMARK>
 VINA RESULT:      -6.1      3.702      6.509
  Name = 
  2 active torsions:
  status: ('A' for Active; 'I' for Inactive)
    1  A    between atoms: C_5  and  C_30
    2  A    between atoms: N_10  and  N_16
                            x       y       z     vdW  Elec       q    Type
                         _______ _______ _______ _____ _____    ______ ____

>  <TORSDO>
F 2

$$$$
=
 OpenBabel11122413293D

 31 35  0  0  1  0  0  0  0  0999 V2000
  158.2910  213.3170  152.7900 C   0  0  0  0  0  0  0  0  0  0  0  0
  161.0510  213.1110  150.1740 C   0  0  2  0  0  3  0  0  0  0  0  0
  161.3740  211.6300  150.0260 C   0  0  0  0  0  0  0  0  0  0  0  0
  161.4860  209.3510  150.8970 C   0  0  0  0  0  0  0  0  0  0  0  0
  159.7050  213.3490  150.8160 C   0  0  0  0  0  0  0  0  0  0  0  0
  157.1940  213.7040  152.0160 C   0  0  0  0  0  3  0  0  0  0  0  0
  161.1410  210.7730  151.0260 C   0  0  0  0  0  3  0  0  0  0  0  0
  159.9600  213.5190  147.9960 N   0  0  0  0  0  0  0  0  0  0  0  0
  158.1410  213.1090  154.1210 F   0  0  0  0  0  0  0  0  0  0  0  0
  162.5140  212.0980  147.8620 O   0  0  0  0  0  0  0  0  0  0  0  0
  161.3500  208.5840  151.8850 O   0  0  0  0  0  0  0  0  0  0  0  0
  158.7690  214.1260  148.5990 C   0  0  0  0  0  2  0  0  0  0  0  0
  161.1320  213.8560  148.8220 C   0  0  2  0  0  3  0  0  0  0  0  0
  159.5420  213.1430  152.1930 C   0  0  0  0  0  3  0  0  0  0  0  0
  161.9370  208.7960  149.5780 C   0  0  0  0  0  2  0  0  0  0  0  0
  158.5970  213.7410  150.0390 C   0  0  0  0  0  0  0  0  0  0  0  0
  157.3510  213.9260  150.6460 C   0  0  0  0  0  3  0  0  0  0  0  0
  162.4470  213.4970  148.1190 C   0  0  0  0  0  2  0  0  0  0  0  0
  162.1010  211.1660  148.8140 C   0  0  0  0  0  0  0  0  0  0  0  0
  162.3740  209.8720  148.6200 C   0  0  0  0  0  3  0  0  0  0  0  0
  159.9950  212.1140  145.5780 O   0  0  0  0  0  0  0  0  0  0  0  0
  160.1230  213.3680  145.5360 C   0  0  0  0  0  0  0  0  0  0  0  0
  160.1180  214.1320  146.7410 N   0  0  0  0  0  2  0  0  0  0  0  0
  160.9160  212.2170  142.0150 C   0  0  1  0  0  3  0  0  0  0  0  0
  159.2390  213.6620  143.1980 C   0  0  0  0  0  2  0  0  0  0  0  0
  162.6840  214.2530  144.5950 O   0  0  0  0  0  1  0  0  0  0  0  0
  161.1510  210.9400  141.5080 O   0  0  0  0  0  1  0  0  0  0  0  0
  159.5190  212.2710  142.6250 C   0  0  0  0  0  2  0  0  0  0  0  0
  161.7170  213.9420  143.6380 C   0  0  2  0  0  3  0  0  0  0  0  0
  160.3000  214.0760  144.2230 C   0  0  2  0  0  3  0  0  0  0  0  0
  161.9660  212.5460  143.0710 C   0  0  0  0  0  2  0  0  0  0  0  0
  1  9  1  0  0  0  0
  2  3  1  6  0  0  0
  2  5  1  0  0  0  0
  3  7  2  0  0  0  0
  4  7  1  0  0  0  0
  4 11  2  0  0  0  0
  5 14  2  0  0  0  0
  6  1  2  0  0  0  0
  8 12  1  0  0  0  0
  8 13  1  0  0  0  0
 10 18  1  0  0  0  0
 10 19  1  0  0  0  0
 12 16  1  0  0  0  0
 13 18  1  6  0  0  0
 13  2  1  0  0  0  0
 14  1  1  0  0  0  0
 15  4  1  0  0  0  0
 16 17  2  0  0  0  0
 16  5  1  0  0  0  0
 17  6  1  0  0  0  0
 19  3  1  0  0  0  0
 20 19  2  0  0  0  0
 20 15  1  0  0  0  0
 22 21  2  0  0  0  0
 22 23  1  0  0  0  0
 23  8  1  0  0  0  0
 24 27  1  1  0  0  0
 24 28  1  0  0  0  0
 24 31  1  0  0  0  0
 25 30  1  0  0  0  0
 28 25  1  0  0  0  0
 29 30  1  0  0  0  0
 29 26  1  1  0  0  0
 30 22  1  1  0  0  0
 31 29  1  0  0  0  0
M  END
>  <MODEL>
5

>  <REMARK>
 VINA RESULT:      -6.0      3.894      5.998
  Name = 
  2 active torsions:
  status: ('A' for Active; 'I' for Inactive)
    1  A    between atoms: C_5  and  C_30
    2  A    between atoms: N_10  and  N_16
                            x       y       z     vdW  Elec       q    Type
                         _______ _______ _______ _____ _____    ______ ____

>  <TORSDO>
F 2

$$$$
=
 OpenBabel11122413293D

 31 35  0  0  1  0  0  0  0  0999 V2000
  161.9950  206.5760  147.5040 C   0  0  0  0  0  0  0  0  0  0  0  0
  162.4320  209.1930  150.2360 C   0  0  2  0  0  3  0  0  0  0  0  0
  161.8030  210.4700  149.6940 C   0  0  0  0  0  0  0  0  0  0  0  0
  161.1370  211.9300  147.8530 C   0  0  0  0  0  0  0  0  0  0  0  0
  161.9660  207.9600  149.4990 C   0  0  0  0  0  0  0  0  0  0  0  0
  161.0520  205.7200  148.0790 C   0  0  0  0  0  3  0  0  0  0  0  0
  161.7100  210.6830  148.3760 C   0  0  0  0  0  3  0  0  0  0  0  0
  160.7850  208.6320  151.9900 N   0  0  0  0  0  0  0  0  0  0  0  0
  162.4650  206.3270  146.2580 F   0  0  0  0  0  0  0  0  0  0  0  0
  161.7180  211.4050  152.0000 O   0  0  0  0  0  0  0  0  0  0  0  0
  161.1490  212.1500  146.6150 O   0  0  0  0  0  0  0  0  0  0  0  0
  160.5980  207.2600  151.5080 C   0  0  0  0  0  2  0  0  0  0  0  0
  162.1830  209.0290  151.7530 C   0  0  2  0  0  3  0  0  0  0  0  0
  162.4520  207.6900  148.2130 C   0  0  0  0  0  3  0  0  0  0  0  0
  160.4800  212.9110  148.7780 C   0  0  0  0  0  2  0  0  0  0  0  0
  161.0170  207.0930  150.0760 C   0  0  0  0  0  0  0  0  0  0  0  0
  160.5730  205.9730  149.3670 C   0  0  0  0  0  3  0  0  0  0  0  0
  162.5340  210.3380  152.4730 C   0  0  0  0  0  2  0  0  0  0  0  0
  161.4380  211.5550  150.6430 C   0  0  0  0  0  0  0  0  0  0  0  0
  160.8490  212.6790  150.2190 C   0  0  0  0  0  3  0  0  0  0  0  0
  159.2030  210.4800  153.3690 O   0  0  0  0  0  0  0  0  0  0  0  0
  159.7490  209.5570  154.0330 C   0  0  0  0  0  0  0  0  0  0  0  0
  160.5700  208.5910  153.3780 N   0  0  0  0  0  2  0  0  0  0  0  0
  162.0470  210.0090  157.0100 C   0  0  1  0  0  3  0  0  0  0  0  0
  159.8050  210.8100  156.2140 C   0  0  0  0  0  2  0  0  0  0  0  0
  160.2040  207.1350  155.5000 O   0  0  0  0  0  1  0  0  0  0  0  0
  163.4040  210.3220  157.0700 O   0  0  0  0  0  1  0  0  0  0  0  0
  161.2970  211.1340  156.3030 C   0  0  0  0  0  2  0  0  0  0  0  0
  160.3770  208.3440  156.1780 C   0  0  2  0  0  3  0  0  0  0  0  0
  159.5580  209.4670  155.5190 C   0  0  2  0  0  3  0  0  0  0  0  0
  161.8610  208.6960  156.2550 C   0  0  0  0  0  2  0  0  0  0  0  0
  1  6  2  0  0  0  0
  1 14  1  0  0  0  0
  2  5  1  6  0  0  0
  2 13  1  0  0  0  0
  3  2  1  0  0  0  0
  3 19  1  0  0  0  0
  4  7  1  0  0  0  0
  4 15  1  0  0  0  0
  5 16  1  0  0  0  0
  6 17  1  0  0  0  0
  7  3  2  0  0  0  0
  8 23  1  0  0  0  0
  9  1  1  0  0  0  0
 10 18  1  0  0  0  0
 11  4  2  0  0  0  0
 12  8  1  0  0  0  0
 13  8  1  0  0  0  0
 13 18  1  1  0  0  0
 14  5  2  0  0  0  0
 15 20  1  0  0  0  0
 16 12  1  0  0  0  0
 17 16  2  0  0  0  0
 19 10  1  0  0  0  0
 20 19  2  0  0  0  0
 21 22  2  0  0  0  0
 23 22  1  0  0  0  0
 24 27  1  6  0  0  0
 25 28  1  0  0  0  0
 28 24  1  0  0  0  0
 29 26  1  6  0  0  0
 29 31  1  0  0  0  0
 30 22  1  6  0  0  0
 30 29  1  0  0  0  0
 30 25  1  0  0  0  0
 31 24  1  0  0  0  0
M  END
>  <MODEL>
6

>  <REMARK>
 VINA RESULT:      -5.9      3.099      6.853
  Name = 
  2 active torsions:
  status: ('A' for Active; 'I' for Inactive)
    1  A    between atoms: C_5  and  C_30
    2  A    between atoms: N_10  and  N_16
                            x       y       z     vdW  Elec       q    Type
                         _______ _______ _______ _____ _____    ______ ____

>  <TORSDO>
F 2

$$$$
=
 OpenBabel11122413293D

 31 35  0  0  1  0  0  0  0  0999 V2000
  161.3030  203.9070  145.7260 C   0  0  0  0  0  0  0  0  0  0  0  0
  160.4920  205.8250  148.9150 C   0  0  2  0  0  3  0  0  0  0  0  0
  160.8390  204.8880  150.0630 C   0  0  0  0  0  0  0  0  0  0  0  0
  161.1310  202.6550  151.0100 C   0  0  0  0  0  0  0  0  0  0  0  0
  161.1530  205.4220  147.6180 C   0  0  0  0  0  0  0  0  0  0  0  0
  162.4170  204.6040  145.2510 C   0  0  0  0  0  3  0  0  0  0  0  0
  160.8320  203.5610  149.8930 C   0  0  0  0  0  3  0  0  0  0  0  0
  162.2910  207.4970  149.1830 N   0  0  0  0  0  0  0  0  0  0  0  0
  160.8340  202.8330  145.0450 F   0  0  0  0  0  0  0  0  0  0  0  0
  160.8450  206.8200  151.6350 O   0  0  0  0  0  0  0  0  0  0  0  0
  161.0220  201.4130  150.8510 O   0  0  0  0  0  0  0  0  0  0  0  0
  162.7170  207.4020  147.7830 C   0  0  0  0  0  2  0  0  0  0  0  0
  160.8340  207.2960  149.2480 C   0  0  2  0  0  3  0  0  0  0  0  0
  160.6710  204.3160  146.9030 C   0  0  0  0  0  3  0  0  0  0  0  0
  161.6270  203.2000  152.3170 C   0  0  0  0  0  2  0  0  0  0  0  0
  162.2750  206.1230  147.1350 C   0  0  0  0  0  0  0  0  0  0  0  0
  162.8940  205.7160  145.9480 C   0  0  0  0  0  3  0  0  0  0  0  0
  160.2700  207.6500  150.6300 C   0  0  0  0  0  2  0  0  0  0  0  0
  161.0310  205.4540  151.4260 C   0  0  0  0  0  0  0  0  0  0  0  0
  161.3730  204.6770  152.4590 C   0  0  0  0  0  3  0  0  0  0  0  0
  161.3860  209.7660  147.8220 O   0  0  0  0  0  0  0  0  0  0  0  0
  162.0800  209.9370  148.8610 C   0  0  0  0  0  0  0  0  0  0  0  0
  162.5710  208.8120  149.5890 N   0  0  0  0  0  2  0  0  0  0  0  0
  160.9050  213.4070  147.8970 C   0  0  1  0  0  3  0  0  0  0  0  0
  161.2060  212.0200  149.9680 C   0  0  0  0  0  2  0  0  0  0  0  0
  164.1240  211.5360  147.6410 O   0  0  0  0  0  1  0  0  0  0  0  0
  159.9830  213.8190  146.9370 O   0  0  0  0  0  1  0  0  0  0  0  0
  160.2120  212.4950  148.9070 C   0  0  0  0  0  2  0  0  0  0  0  0
  163.0660  212.2030  148.2610 C   0  0  2  0  0  3  0  0  0  0  0  0
  162.4150  211.3200  149.3390 C   0  0  2  0  0  3  0  0  0  0  0  0
  162.0510  212.6650  147.2180 C   0  0  0  0  0  2  0  0  0  0  0  0
  1 14  1  0  0  0  0
  2  5  1  6  0  0  0
  2 13  1  0  0  0  0
  2  3  1  0  0  0  0
  3 19  1  0  0  0  0
  4 15  1  0  0  0  0
  6  1  2  0  0  0  0
  6 17  1  0  0  0  0
  7  3  2  0  0  0  0
  7  4  1  0  0  0  0
  8 13  1  0  0  0  0
  8 23  1  0  0  0  0
  9  1  1  0  0  0  0
 11  4  2  0  0  0  0
 12  8  1  0  0  0  0
 13 18  1  1  0  0  0
 14  5  2  0  0  0  0
 15 20  1  0  0  0  0
 16  5  1  0  0  0  0
 16 12  1  0  0  0  0
 17 16  2  0  0  0  0
 18 10  1  0  0  0  0
 19 10  1  0  0  0  0
 19 20  2  0  0  0  0
 21 22  2  0  0  0  0
 22 23  1  0  0  0  0
 24 27  1  6  0  0  0
 24 28  1  0  0  0  0
 28 25  1  0  0  0  0
 29 26  1  6  0  0  0
 29 30  1  0  0  0  0
 30 22  1  6  0  0  0
 30 25  1  0  0  0  0
 31 24  1  0  0  0  0
 31 29  1  0  0  0  0
M  END
>  <MODEL>
7

>  <REMARK>
 VINA RESULT:      -5.7      3.984      6.098
  Name = 
  2 active torsions:
  status: ('A' for Active; 'I' for Inactive)
    1  A    between atoms: C_5  and  C_30
    2  A    between atoms: N_10  and  N_16
                            x       y       z     vdW  Elec       q    Type
                         _______ _______ _______ _____ _____    ______ ____

>  <TORSDO>
F 2

$$$$
=
 OpenBabel11122413293D

 31 35  0  0  1  0  0  0  0  0999 V2000
  161.6490  202.9000  151.8280 C   0  0  0  0  0  0  0  0  0  0  0  0
  162.3870  206.3650  150.4290 C   0  0  2  0  0  3  0  0  0  0  0  0
  161.7980  206.3810  149.0250 C   0  0  0  0  0  0  0  0  0  0  0  0
  161.1050  205.2640  146.9660 C   0  0  0  0  0  0  0  0  0  0  0  0
  161.8120  205.2620  151.2860 C   0  0  0  0  0  0  0  0  0  0  0  0
  160.6960  203.1880  152.8090 C   0  0  0  0  0  3  0  0  0  0  0  0
  161.6390  205.2460  148.3350 C   0  0  0  0  0  3  0  0  0  0  0  0
  160.8180  207.9050  151.5560 N   0  0  0  0  0  0  0  0  0  0  0  0
  162.0310  201.6190  151.6090 F   0  0  0  0  0  0  0  0  0  0  0  0
  161.8990  208.8700  149.0130 O   0  0  0  0  0  0  0  0  0  0  0  0
  161.0560  204.1980  146.3020 O   0  0  0  0  0  0  0  0  0  0  0  0
  160.5290  206.9660  152.6440 C   0  0  0  0  0  2  0  0  0  0  0  0
  162.2190  207.7280  151.1390 C   0  0  2  0  0  3  0  0  0  0  0  0
  162.2070  203.9340  151.0720 C   0  0  0  0  0  3  0  0  0  0  0  0
  160.5570  206.5330  146.3810 C   0  0  0  0  0  2  0  0  0  0  0  0
  160.8530  205.5470  152.2780 C   0  0  0  0  0  0  0  0  0  0  0  0
  160.3090  204.5090  153.0400 C   0  0  0  0  0  3  0  0  0  0  0  0
  162.6820  208.8520  150.2030 C   0  0  0  0  0  2  0  0  0  0  0  0
  161.5480  207.6880  148.3600 C   0  0  0  0  0  0  0  0  0  0  0  0
  160.9970  207.7550  147.1440 C   0  0  0  0  0  3  0  0  0  0  0  0
  161.4760  208.5430  154.1980 O   0  0  0  0  0  0  0  0  0  0  0  0
  161.0380  209.4660  153.4590 C   0  0  0  0  0  0  0  0  0  0  0  0
  160.6830  209.1920  152.1040 N   0  0  0  0  0  2  0  0  0  0  0  0
  158.0450  211.5180  154.5450 C   0  0  1  0  0  3  0  0  0  0  0  0
  160.3070  210.8660  155.4170 C   0  0  0  0  0  2  0  0  0  0  0  0
  160.5180  211.7140  151.7560 O   0  0  0  0  0  1  0  0  0  0  0  0
  156.6880  211.2000  154.5720 O   0  0  0  0  0  1  0  0  0  0  0  0
  158.8120  210.5450  155.4370 C   0  0  0  0  0  2  0  0  0  0  0  0
  160.0470  211.7750  153.0690 C   0  0  2  0  0  3  0  0  0  0  0  0
  160.8690  210.8590  153.9920 C   0  0  2  0  0  3  0  0  0  0  0  0
  158.5590  211.4340  153.1110 C   0  0  0  0  0  2  0  0  0  0  0  0
  1  6  1  0  0  0  0
  2  3  1  6  0  0  0
  2 13  1  0  0  0  0
  2  5  1  0  0  0  0
  4  7  1  0  0  0  0
  5 16  2  0  0  0  0
  6 17  2  0  0  0  0
  7  3  2  0  0  0  0
  8 23  1  0  0  0  0
  8 12  1  0  0  0  0
  9  1  1  0  0  0  0
 10 18  1  0  0  0  0
 11  4  2  0  0  0  0
 13 18  1  6  0  0  0
 13  8  1  0  0  0  0
 14  5  1  0  0  0  0
 14  1  2  0  0  0  0
 15  4  1  0  0  0  0
 15 20  1  0  0  0  0
 16 12  1  0  0  0  0
 16 17  1  0  0  0  0
 19 10  1  0  0  0  0
 19  3  1  0  0  0  0
 20 19  2  0  0  0  0
 22 21  2  0  0  0  0
 23 22  1  0  0  0  0
 24 27  1  6  0  0  0
 24 28  1  0  0  0  0
 25 28  1  0  0  0  0
 29 26  1  6  0  0  0
 29 31  1  0  0  0  0
 29 30  1  0  0  0  0
 30 22  1  6  0  0  0
 30 25  1  0  0  0  0
 31 24  1  0  0  0  0
M  END
>  <MODEL>
8

>  <REMARK>
 VINA RESULT:      -4.7      3.129      4.733
  Name = 
  2 active torsions:
  status: ('A' for Active; 'I' for Inactive)
    1  A    between atoms: C_5  and  C_30
    2  A    between atoms: N_10  and  N_16
                            x       y       z     vdW  Elec       q    Type
                         _______ _______ _______ _____ _____    ______ ____

>  <TORSDO>
F 2

$$$$
=
 OpenBabel11122413293D

 31 35  0  0  1  0  0  0  0  0999 V2000
  161.8790  213.0670  147.7040 C   0  0  0  0  0  0  0  0  0  0  0  0
  159.7080  214.1610  150.6360 C   0  0  2  0  0  3  0  0  0  0  0  0
  158.2720  214.1100  150.1320 C   0  0  0  0  0  0  0  0  0  0  0  0
  156.6100  214.2250  148.3460 C   0  0  0  0  0  0  0  0  0  0  0  0
  160.6510  213.3490  149.7800 C   0  0  0  0  0  0  0  0  0  0  0  0
  162.3360  211.8200  148.1390 C   0  0  0  0  0  3  0  0  0  0  0  0
  157.9970  214.2370  148.8290 C   0  0  0  0  0  3  0  0  0  0  0  0
  159.6670  212.2530  152.2050 N   0  0  0  0  0  0  0  0  0  0  0  0
  162.2460  213.5370  146.4870 F   0  0  0  0  0  0  0  0  0  0  0  0
  157.4490  214.1410  152.4820 O   0  0  0  0  0  0  0  0  0  0  0  0
  156.3700  214.4450  147.1320 O   0  0  0  0  0  0  0  0  0  0  0  0
  160.8510  211.6200  151.6150 C   0  0  0  0  0  2  0  0  0  0  0  0
  159.8160  213.7150  152.1120 C   0  0  2  0  0  3  0  0  0  0  0  0
  161.0430  213.8300  148.5230 C   0  0  0  0  0  3  0  0  0  0  0  0
  155.4840  213.8880  149.2790 C   0  0  0  0  0  2  0  0  0  0  0  0
  161.1160  212.0920  150.2160 C   0  0  0  0  0  0  0  0  0  0  0  0
  161.9640  211.3400  149.3960 C   0  0  0  0  0  3  0  0  0  0  0  0
  158.7590  214.4500  152.9470 C   0  0  0  0  0  2  0  0  0  0  0  0
  157.1600  214.0770  151.1190 C   0  0  0  0  0  0  0  0  0  0  0  0
  155.8850  213.9940  150.7270 C   0  0  0  0  0  3  0  0  0  0  0  0
  157.5150  211.0060  153.4840 O   0  0  0  0  0  0  0  0  0  0  0  0
  158.5450  211.2570  154.1670 C   0  0  0  0  0  0  0  0  0  0  0  0
  159.6680  211.8970  153.5640 N   0  0  0  0  0  2  0  0  0  0  0  0
  160.3390  212.7280  157.1620 C   0  0  1  0  0  3  0  0  0  0  0  0
  158.0230  212.0120  156.5100 C   0  0  0  0  0  2  0  0  0  0  0  0
  160.5560  209.5260  155.2560 O   0  0  0  0  0  1  0  0  0  0  0  0
  161.2000  213.8200  157.2580 O   0  0  0  0  0  1  0  0  0  0  0  0
  158.9850  213.1950  156.6350 C   0  0  0  0  0  2  0  0  0  0  0  0
  160.0030  210.4870  156.1040 C   0  0  2  0  0  3  0  0  0  0  0  0
  158.6010  210.9030  155.6260 C   0  0  2  0  0  3  0  0  0  0  0  0
  160.9400  211.6870  156.2220 C   0  0  0  0  0  2  0  0  0  0  0  0
  1  6  2  0  0  0  0
  1 14  1  0  0  0  0
  2  5  1  6  0  0  0
  2 13  1  0  0  0  0
  3  2  1  0  0  0  0
  3 19  1  0  0  0  0
  4  7  1  0  0  0  0
  4 15  1  0  0  0  0
  5 16  1  0  0  0  0
  6 17  1  0  0  0  0
  7  3  2  0  0  0  0
  8 23  1  0  0  0  0
  9  1  1  0  0  0  0
 10 18  1  0  0  0  0
 11  4  2  0  0  0  0
 12  8  1  0  0  0  0
 13  8  1  0  0  0  0
 13 18  1  1  0  0  0
 14  5  2  0  0  0  0
 15 20  1  0  0  0  0
 16 12  1  0  0  0  0
 17 16  2  0  0  0  0
 19 10  1  0  0  0  0
 20 19  2  0  0  0  0
 21 22  2  0  0  0  0
 23 22  1  0  0  0  0
 24 27  1  6  0  0  0
 25 28  1  0  0  0  0
 28 24  1  0  0  0  0
 29 26  1  6  0  0  0
 29 31  1  0  0  0  0
 30 22  1  6  0  0  0
 30 29  1  0  0  0  0
 30 25  1  0  0  0  0
 31 24  1  0  0  0  0
M  END
>  <MODEL>
9

>  <REMARK>
 VINA RESULT:      -4.4      4.033      7.758
  Name = 
  2 active torsions:
  status: ('A' for Active; 'I' for Inactive)
    1  A    between atoms: C_5  and  C_30
    2  A    between atoms: N_10  and  N_16
                            x       y       z     vdW  Elec       q    Type
                         _______ _______ _______ _____ _____    ______ ____

>  <TORSDO>
F 2

$$$$
