=
 OpenBabel11122414123D

 28 33  0  0  1  0  0  0  0  0999 V2000
  158.6560  211.8850  152.4030 C   0  0  0  0  0  0  0  0  0  0  0  0
  160.1560  208.3630  150.6510 O   0  0  0  0  0  0  0  0  0  0  0  0
  159.6520  207.6460  156.3560 C   0  0  0  0  0  1  0  0  0  0  0  0
  160.2670  213.0800  150.4500 C   0  0  0  0  0  3  0  0  0  0  0  0
  161.7090  209.0090  156.1080 C   0  0  1  0  0  3  0  0  0  0  0  0
  157.8300  211.2840  153.5020 C   0  0  1  0  0  3  0  0  0  0  0  0
  162.3490  209.1200  149.8430 O   0  0  0  0  0  0  0  0  0  0  0  0
  161.6050  208.5400  151.0110 S   0  0  0  0  0  0  0  0  0  0  0  0
  161.8440  206.6430  152.8440 C   0  0  0  0  0  0  0  0  0  0  0  0
  161.7890  209.6030  152.4400 C   0  0  2  0  0  3  0  0  0  0  0  0
  159.1470  213.0030  154.7600 O   0  0  0  0  0  1  0  0  0  0  0  0
  160.6720  210.4260  154.4420 C   0  0  2  0  0  3  0  0  0  0  0  0
  161.8530  207.5240  153.7870 N   0  0  0  0  0  0  0  0  0  0  0  0
  162.3110  206.9760  151.4610 C   0  0  0  0  0  2  0  0  0  0  0  0
  158.2990  211.8900  154.8300 C   0  0  2  0  0  0  0  0  0  0  0  0
  159.9630  211.3870  152.1750 C   0  0  0  0  0  0  0  0  0  0  0  0
  160.2050  209.0570  156.3110 C   0  0  1  0  0  3  0  0  0  0  0  0
  161.2470  205.3040  153.1000 C   0  0  0  0  0  1  0  0  0  0  0  0
  158.6910  210.7900  155.8120 C   0  0  0  0  0  2  0  0  0  0  0  0
  160.7590  212.0040  151.1950 C   0  0  0  0  0  3  0  0  0  0  0  0
  158.1680  212.9560  151.6450 C   0  0  0  0  0  3  0  0  0  0  0  0
  158.9710  213.5510  150.6690 C   0  0  0  0  0  3  0  0  0  0  0  0
  156.9010  212.1660  154.3320 C   0  0  0  0  0  2  0  0  0  0  0  0
  161.9800  209.7600  154.8220 C   0  0  2  0  0  3  0  0  0  0  0  0
  159.5890  209.7900  155.2080 N   0  0  1  0  0  0  0  0  0  0  0  0
  162.3910  208.8730  153.6420 C   0  0  2  0  0  3  0  0  0  0  0  0
  162.3950  209.7150  157.2600 C   0  0  0  0  0  1  0  0  0  0  0  0
  160.4700  210.1720  152.9420 C   0  0  1  0  0  3  0  0  0  0  0  0
  1  6  1  0  0  0  0
  2  8  2  0  0  0  0
  4 22  2  0  0  0  0
  4 20  1  0  0  0  0
  5 17  1  0  0  0  0
  5 27  1  1  0  0  0
  6 23  1  6  0  0  0
  6 15  1  0  0  0  0
  7  8  2  0  0  0  0
  8 14  1  0  0  0  0
  9 18  1  0  0  0  0
  9 13  2  0  0  0  0
 10  8  1  6  0  0  0
 10 28  1  0  0  0  0
 10 26  1  0  0  0  0
 11 15  1  0  0  0  0
 12 24  1  0  0  0  0
 12 25  1  0  0  0  0
 14  9  1  0  0  0  0
 15 19  1  0  0  0  0
 16  1  1  0  0  0  0
 16 28  1  0  0  0  0
 17  3  1  0  0  0  0
 20 16  2  0  0  0  0
 21  1  2  0  0  0  0
 22 21  1  0  0  0  0
 23 15  1  0  0  0  0
 24  5  1  0  0  0  0
 25 19  1  0  0  0  0
 25 17  1  0  0  0  0
 26 13  1  0  0  0  0
 26 24  1  0  0  0  0
 28 12  1  0  0  0  0
M  END
>  <MODEL>
1

>  <REMARK>
 VINA RESULT:      -3.1      0.000      0.000
  Name = 
  0 active torsions:
  status: ('A' for Active; 'I' for Inactive)
                            x       y       z     vdW  Elec       q    Type
                         _______ _______ _______ _____ _____    ______ ____

>  <TORSDO>
F 0

$$$$
=
 OpenBabel11122414123D

 28 33  0  0  1  0  0  0  0  0999 V2000
  160.8140  209.8900  152.7970 C   0  0  0  0  0  0  0  0  0  0  0  0
  157.1660  211.9760  152.5390 O   0  0  0  0  0  0  0  0  0  0  0  0
  159.8950  212.1740  147.4570 C   0  0  0  0  0  1  0  0  0  0  0  0
  160.8230  211.0030  155.3660 C   0  0  0  0  0  3  0  0  0  0  0  0
  161.1000  213.8390  148.8430 C   0  0  1  0  0  3  0  0  0  0  0  0
  160.8770  209.3250  151.4080 C   0  0  1  0  0  3  0  0  0  0  0  0
  157.5760  213.8580  154.0640 O   0  0  0  0  0  0  0  0  0  0  0  0
  157.7070  213.3740  152.6490 S   0  0  0  0  0  0  0  0  0  0  0  0
  157.3060  214.2020  150.1650 C   0  0  0  0  0  0  0  0  0  0  0  0
  159.4200  213.4460  152.1350 C   0  0  2  0  0  3  0  0  0  0  0  0
  163.1590  210.3310  151.6340 O   0  0  0  0  0  1  0  0  0  0  0  0
  161.1140  212.3610  150.7600 C   0  0  2  0  0  3  0  0  0  0  0  0
  158.5660  214.1000  149.9040 N   0  0  0  0  0  0  0  0  0  0  0  0
  156.8170  214.4520  151.5570 C   0  0  0  0  0  2  0  0  0  0  0  0
  162.2040  209.7660  150.7790 C   0  0  2  0  0  0  0  0  0  0  0  0
  160.4510  211.2480  152.9710 C   0  0  0  0  0  0  0  0  0  0  0  0
  161.0640  212.3890  148.3970 C   0  0  1  0  0  3  0  0  0  0  0  0
  156.3130  213.9470  149.0860 C   0  0  0  0  0  1  0  0  0  0  0  0
  161.9570  210.4850  149.4560 C   0  0  0  0  0  2  0  0  0  0  0  0
  160.4680  211.7910  154.2670 C   0  0  0  0  0  3  0  0  0  0  0  0
  161.1580  209.1050  153.9050 C   0  0  0  0  0  3  0  0  0  0  0  0
  161.1610  209.6600  155.1860 C   0  0  0  0  0  3  0  0  0  0  0  0
  161.9510  208.3020  151.0450 C   0  0  0  0  0  2  0  0  0  0  0  0
  160.9750  213.8150  150.3510 C   0  0  2  0  0  3  0  0  0  0  0  0
  160.9190  211.5250  149.5650 N   0  0  1  0  0  0  0  0  0  0  0  0
  159.6250  214.3040  150.8860 C   0  0  2  0  0  3  0  0  0  0  0  0
  162.4310  214.4520  148.4560 C   0  0  0  0  0  1  0  0  0  0  0  0
  160.0010  212.0840  151.7790 C   0  0  1  0  0  3  0  0  0  0  0  0
  1 16  2  0  0  0  0
  1 21  1  0  0  0  0
  2  8  2  0  0  0  0
  3 17  1  0  0  0  0
  5 27  1  1  0  0  0
  5 24  1  0  0  0  0
  6 23  1  1  0  0  0
  6  1  1  0  0  0  0
  8  7  2  0  0  0  0
  9 14  1  0  0  0  0
 10  8  1  6  0  0  0
 12 28  1  0  0  0  0
 13  9  2  0  0  0  0
 13 26  1  0  0  0  0
 14  8  1  0  0  0  0
 15 23  1  0  0  0  0
 15  6  1  0  0  0  0
 15 11  1  0  0  0  0
 16 20  1  0  0  0  0
 17  5  1  0  0  0  0
 17 25  1  0  0  0  0
 18  9  1  0  0  0  0
 19 25  1  0  0  0  0
 19 15  1  0  0  0  0
 20  4  2  0  0  0  0
 21 22  2  0  0  0  0
 22  4  1  0  0  0  0
 24 12  1  0  0  0  0
 24 26  1  0  0  0  0
 25 12  1  0  0  0  0
 26 10  1  0  0  0  0
 28 10  1  0  0  0  0
 28 16  1  0  0  0  0
M  END
>  <MODEL>
2

>  <REMARK>
 VINA RESULT:      -2.7      2.785      6.825
  Name = 
  0 active torsions:
  status: ('A' for Active; 'I' for Inactive)
                            x       y       z     vdW  Elec       q    Type
                         _______ _______ _______ _____ _____    ______ ____

>  <TORSDO>
F 0

$$$$
=
 OpenBabel11122414123D

 28 33  0  0  1  0  0  0  0  0999 V2000
  159.0500  212.5720  151.2620 C   0  0  0  0  0  0  0  0  0  0  0  0
  160.2080  208.5240  151.2430 O   0  0  0  0  0  0  0  0  0  0  0  0
  158.6480  210.0860  156.5760 C   0  0  0  0  0  1  0  0  0  0  0  0
  161.1410  212.7760  149.4120 C   0  0  0  0  0  3  0  0  0  0  0  0
  160.9160  211.0530  156.3140 C   0  0  1  0  0  3  0  0  0  0  0  0
  157.9640  212.5150  152.2950 C   0  0  1  0  0  3  0  0  0  0  0  0
  162.6010  208.7080  150.7160 O   0  0  0  0  0  0  0  0  0  0  0  0
  161.5860  208.6890  151.8220 S   0  0  0  0  0  0  0  0  0  0  0  0
  161.1950  207.6200  154.2130 C   0  0  0  0  0  0  0  0  0  0  0  0
  161.7050  210.1940  152.7850 C   0  0  2  0  0  3  0  0  0  0  0  0
  159.3220  214.4530  153.1150 O   0  0  0  0  0  1  0  0  0  0  0  0
  160.4240  211.8190  154.0710 C   0  0  2  0  0  3  0  0  0  0  0  0
  161.1940  208.7890  154.7610 N   0  0  0  0  0  0  0  0  0  0  0  0
  161.9340  207.3560  152.9400 C   0  0  0  0  0  2  0  0  0  0  0  0
  158.3000  213.5350  153.3890 C   0  0  2  0  0  0  0  0  0  0  0  0
  160.2740  211.9050  151.5150 C   0  0  0  0  0  0  0  0  0  0  0  0
  159.4300  211.3150  156.1550 C   0  0  1  0  0  3  0  0  0  0  0  0
  160.3470  206.5420  154.7920 C   0  0  0  0  0  1  0  0  0  0  0  0
  158.3330  212.8610  154.7580 C   0  0  0  0  0  2  0  0  0  0  0  0
  161.3140  212.0250  150.5770 C   0  0  0  0  0  3  0  0  0  0  0  0
  158.8820  213.3140  150.0860 C   0  0  0  0  0  3  0  0  0  0  0  0
  159.9240  213.4140  149.1630 C   0  0  0  0  0  3  0  0  0  0  0  0
  157.0710  213.7300  152.5350 C   0  0  0  0  0  2  0  0  0  0  0  0
  161.5200  211.2280  154.9370 C   0  0  2  0  0  3  0  0  0  0  0  0
  159.1380  211.6260  154.7580 N   0  0  1  0  0  0  0  0  0  0  0  0
  161.9670  209.9240  154.2670 C   0  0  2  0  0  3  0  0  0  0  0  0
  161.5100  212.0770  157.2600 C   0  0  0  0  0  1  0  0  0  0  0  0
  160.4350  211.0320  152.7530 C   0  0  1  0  0  3  0  0  0  0  0  0
  1 16  1  0  0  0  0
  1  6  1  0  0  0  0
  2  8  2  0  0  0  0
  4 20  1  0  0  0  0
  5 27  1  1  0  0  0
  6 23  1  6  0  0  0
  6 15  1  0  0  0  0
  7  8  2  0  0  0  0
  8 14  1  0  0  0  0
  9 13  2  0  0  0  0
  9 18  1  0  0  0  0
 10  8  1  6  0  0  0
 10 26  1  0  0  0  0
 11 15  1  0  0  0  0
 12 25  1  0  0  0  0
 12 24  1  0  0  0  0
 14  9  1  0  0  0  0
 15 19  1  0  0  0  0
 16 28  1  0  0  0  0
 17  5  1  0  0  0  0
 17  3  1  0  0  0  0
 19 25  1  0  0  0  0
 20 16  2  0  0  0  0
 21  1  2  0  0  0  0
 22  4  2  0  0  0  0
 22 21  1  0  0  0  0
 23 15  1  0  0  0  0
 24  5  1  0  0  0  0
 25 17  1  0  0  0  0
 26 13  1  0  0  0  0
 26 24  1  0  0  0  0
 28 10  1  0  0  0  0
 28 12  1  0  0  0  0
M  END
>  <MODEL>
3

>  <REMARK>
 VINA RESULT:      -2.3      1.409      1.759
  Name = 
  0 active torsions:
  status: ('A' for Active; 'I' for Inactive)
                            x       y       z     vdW  Elec       q    Type
                         _______ _______ _______ _____ _____    ______ ____

>  <TORSDO>
F 0

$$$$
=
 OpenBabel11122414123D

 28 33  0  0  1  0  0  0  0  0999 V2000
  160.8550  207.7980  151.9660 C   0  0  0  0  0  0  0  0  0  0  0  0
  158.1240  210.9650  152.4520 O   0  0  0  0  0  0  0  0  0  0  0  0
  160.4800  211.2060  147.1890 C   0  0  0  0  0  1  0  0  0  0  0  0
  161.3790  208.3510  154.6600 C   0  0  0  0  0  3  0  0  0  0  0  0
  162.2520  212.1010  148.6740 C   0  0  1  0  0  3  0  0  0  0  0  0
  160.6470  207.5110  150.5080 C   0  0  1  0  0  3  0  0  0  0  0  0
  159.2310  212.2940  154.1970 O   0  0  0  0  0  0  0  0  0  0  0  0
  159.1130  212.0650  152.7180 S   0  0  0  0  0  0  0  0  0  0  0  0
  158.8840  213.4250  150.4570 C   0  0  0  0  0  0  0  0  0  0  0  0
  160.7180  211.6710  152.0320 C   0  0  2  0  0  3  0  0  0  0  0  0
  163.1440  207.6610  150.6290 O   0  0  0  0  0  1  0  0  0  0  0  0
  161.8660  210.3700  150.3220 C   0  0  2  0  0  3  0  0  0  0  0  0
  160.0180  212.9690  150.0420 N   0  0  0  0  0  0  0  0  0  0  0  0
  158.5840  213.5580  151.9170 C   0  0  0  0  0  2  0  0  0  0  0  0
  162.0090  207.6060  149.8100 C   0  0  2  0  0  0  0  0  0  0  0  0
  160.9850  209.1430  152.3910 C   0  0  0  0  0  0  0  0  0  0  0  0
  161.7010  210.8510  148.0130 C   0  0  1  0  0  3  0  0  0  0  0  0
  157.8060  213.7120  149.4700 C   0  0  0  0  0  1  0  0  0  0  0  0
  161.9500  208.5980  148.6520 C   0  0  0  0  0  2  0  0  0  0  0  0
  161.2550  209.4000  153.7460 C   0  0  0  0  0  3  0  0  0  0  0  0
  160.9700  206.7520  152.8910 C   0  0  0  0  0  3  0  0  0  0  0  0
  161.2300  207.0290  154.2350 C   0  0  0  0  0  3  0  0  0  0  0  0
  161.2880  206.2810  149.8700 C   0  0  0  0  0  2  0  0  0  0  0  0
  162.2080  211.8390  150.1640 C   0  0  2  0  0  3  0  0  0  0  0  0
  161.3340  209.8790  149.0400 N   0  0  1  0  0  0  0  0  0  0  0  0
  161.1340  212.6320  150.9180 C   0  0  2  0  0  3  0  0  0  0  0  0
  163.6890  212.3090  148.2400 C   0  0  0  0  0  1  0  0  0  0  0  0
  160.7810  210.2860  151.4040 C   0  0  1  0  0  3  0  0  0  0  0  0
  1 16  2  0  0  0  0
  1 21  1  0  0  0  0
  2  8  2  0  0  0  0
  3 17  1  0  0  0  0
  5 27  1  6  0  0  0
  5 24  1  0  0  0  0
  6 23  1  1  0  0  0
  6  1  1  0  0  0  0
  8  7  2  0  0  0  0
  9 14  1  0  0  0  0
 10  8  1  6  0  0  0
 12 28  1  0  0  0  0
 13  9  2  0  0  0  0
 13 26  1  0  0  0  0
 14  8  1  0  0  0  0
 15 23  1  0  0  0  0
 15  6  1  0  0  0  0
 15 11  1  0  0  0  0
 16 20  1  0  0  0  0
 17  5  1  0  0  0  0
 17 25  1  0  0  0  0
 18  9  1  0  0  0  0
 19 25  1  0  0  0  0
 19 15  1  0  0  0  0
 20  4  2  0  0  0  0
 21 22  2  0  0  0  0
 22  4  1  0  0  0  0
 24 12  1  0  0  0  0
 24 26  1  0  0  0  0
 25 12  1  0  0  0  0
 26 10  1  0  0  0  0
 28 10  1  0  0  0  0
 28 16  1  0  0  0  0
M  END
>  <MODEL>
4

>  <REMARK>
 VINA RESULT:      -2.0      2.682      6.708
  Name = 
  0 active torsions:
  status: ('A' for Active; 'I' for Inactive)
                            x       y       z     vdW  Elec       q    Type
                         _______ _______ _______ _____ _____    ______ ____

>  <TORSDO>
F 0

$$$$
=
 OpenBabel11122414123D

 28 33  0  0  1  0  0  0  0  0999 V2000
  160.8390  206.9700  151.1690 C   0  0  0  0  0  0  0  0  0  0  0  0
  158.5610  210.1610  152.7060 O   0  0  0  0  0  0  0  0  0  0  0  0
  160.3990  211.4540  147.3890 C   0  0  0  0  0  1  0  0  0  0  0  0
  161.6870  206.8050  153.8320 C   0  0  0  0  0  3  0  0  0  0  0  0
  162.4020  211.7980  148.8100 C   0  0  1  0  0  3  0  0  0  0  0  0
  160.4560  207.0660  149.7220 C   0  0  1  0  0  3  0  0  0  0  0  0
  159.9830  210.9210  154.5590 O   0  0  0  0  0  0  0  0  0  0  0  0
  159.6940  211.0690  153.0930 S   0  0  0  0  0  0  0  0  0  0  0  0
  159.4050  212.9510  151.2520 C   0  0  0  0  0  0  0  0  0  0  0  0
  161.1660  210.7080  152.1410 C   0  0  2  0  0  3  0  0  0  0  0  0
  162.9530  206.9540  149.5640 O   0  0  0  0  0  1  0  0  0  0  0  0
  161.9780  209.7620  150.0490 C   0  0  2  0  0  3  0  0  0  0  0  0
  160.4310  212.5080  150.6060 N   0  0  0  0  0  0  0  0  0  0  0  0
  159.2690  212.7530  152.7290 C   0  0  0  0  0  2  0  0  0  0  0  0
  161.7440  207.2020  148.9010 C   0  0  2  0  0  0  0  0  0  0  0  0
  161.1670  208.1550  151.8730 C   0  0  0  0  0  0  0  0  0  0  0  0
  161.6450  210.8000  147.9520 C   0  0  1  0  0  3  0  0  0  0  0  0
  158.2770  213.5650  150.4990 C   0  0  0  0  0  1  0  0  0  0  0  0
  161.6880  208.4460  148.0190 C   0  0  0  0  0  2  0  0  0  0  0  0
  161.5980  208.0510  153.2060 C   0  0  0  0  0  3  0  0  0  0  0  0
  160.9210  205.7260  151.8070 C   0  0  0  0  0  3  0  0  0  0  0  0
  161.3430  205.6440  153.1360 C   0  0  0  0  0  3  0  0  0  0  0  0
  160.8810  205.9730  148.7430 C   0  0  0  0  0  2  0  0  0  0  0  0
  162.4740  211.1880  150.1930 C   0  0  2  0  0  3  0  0  0  0  0  0
  161.2690  209.6460  148.7650 N   0  0  1  0  0  0  0  0  0  0  0  0
  161.5810  211.8690  151.2360 C   0  0  2  0  0  3  0  0  0  0  0  0
  163.8030  211.9730  148.2610 C   0  0  0  0  0  1  0  0  0  0  0  0
  161.0040  209.5170  151.2090 C   0  0  1  0  0  3  0  0  0  0  0  0
  1 21  2  0  0  0  0
  1 16  1  0  0  0  0
  2  8  2  0  0  0  0
  3 17  1  0  0  0  0
  5 27  1  6  0  0  0
  5 24  1  0  0  0  0
  6 23  1  6  0  0  0
  6  1  1  0  0  0  0
  8  7  2  0  0  0  0
  9 14  1  0  0  0  0
 10  8  1  6  0  0  0
 12 24  1  0  0  0  0
 12 28  1  0  0  0  0
 13 26  1  0  0  0  0
 13  9  2  0  0  0  0
 14  8  1  0  0  0  0
 15 11  1  0  0  0  0
 15  6  1  0  0  0  0
 16 20  2  0  0  0  0
 17 25  1  0  0  0  0
 17  5  1  0  0  0  0
 18  9  1  0  0  0  0
 19 25  1  0  0  0  0
 19 15  1  0  0  0  0
 20  4  1  0  0  0  0
 21 22  1  0  0  0  0
 22  4  2  0  0  0  0
 23 15  1  0  0  0  0
 24 26  1  0  0  0  0
 25 12  1  0  0  0  0
 26 10  1  0  0  0  0
 28 16  1  0  0  0  0
 28 10  1  0  0  0  0
M  END
>  <MODEL>
5

>  <REMARK>
 VINA RESULT:      -1.3      2.740      6.802
  Name = 
  0 active torsions:
  status: ('A' for Active; 'I' for Inactive)
                            x       y       z     vdW  Elec       q    Type
                         _______ _______ _______ _____ _____    ______ ____

>  <TORSDO>
F 0

$$$$
=
 OpenBabel11122414123D

 28 33  0  0  1  0  0  0  0  0999 V2000
  157.0500  209.4690  138.4980 C   0  0  0  0  0  0  0  0  0  0  0  0
  158.9010  211.8340  141.4480 O   0  0  0  0  0  0  0  0  0  0  0  0
  153.1750  212.5120  141.7090 C   0  0  0  0  0  1  0  0  0  0  0  0
  159.3100  210.2230  137.0270 C   0  0  0  0  0  3  0  0  0  0  0  0
  153.8470  213.8820  139.7540 C   0  0  1  0  0  3  0  0  0  0  0  0
  155.7960  209.0930  139.2310 C   0  0  1  0  0  3  0  0  0  0  0  0
  160.1240  213.4580  140.0690 O   0  0  0  0  0  0  0  0  0  0  0  0
  158.8180  213.1610  140.7470 S   0  0  0  0  0  0  0  0  0  0  0  0
  156.9840  214.3420  142.2490 C   0  0  0  0  0  0  0  0  0  0  0  0
  157.4900  213.1740  139.5470 C   0  0  2  0  0  3  0  0  0  0  0  0
  154.8680  209.8880  137.0450 O   0  0  0  0  0  1  0  0  0  0  0  0
  155.3540  212.1630  138.9580 C   0  0  2  0  0  3  0  0  0  0  0  0
  156.0950  214.1840  141.3280 N   0  0  0  0  0  0  0  0  0  0  0  0
  158.4400  214.4390  141.9180 C   0  0  0  0  0  2  0  0  0  0  0  0
  154.6010  209.5150  138.3680 C   0  0  2  0  0  0  0  0  0  0  0  0
  157.4910  210.8140  138.5360 C   0  0  0  0  0  0  0  0  0  0  0  0
  153.3770  212.5120  140.2070 C   0  0  1  0  0  3  0  0  0  0  0  0
  156.5690  214.3090  143.6780 C   0  0  0  0  0  1  0  0  0  0  0  0
  153.6620  210.4210  139.1600 C   0  0  0  0  0  2  0  0  0  0  0  0
  158.6230  211.1750  137.7860 C   0  0  0  0  0  3  0  0  0  0  0  0
  157.7500  208.5190  137.7430 C   0  0  0  0  0  3  0  0  0  0  0  0
  158.8780  208.8950  137.0110 C   0  0  0  0  0  3  0  0  0  0  0  0
  154.8470  208.0510  138.6420 C   0  0  0  0  0  2  0  0  0  0  0  0
  155.1900  213.6640  139.0910 C   0  0  2  0  0  3  0  0  0  0  0  0
  154.3780  211.5110  139.8470 N   0  0  1  0  0  0  0  0  0  0  0  0
  156.3890  214.1750  139.8980 C   0  0  2  0  0  3  0  0  0  0  0  0
  152.8680  214.4420  138.7420 C   0  0  0  0  0  1  0  0  0  0  0  0
  156.7800  211.8340  139.4170 C   0  0  1  0  0  3  0  0  0  0  0  0
  1 16  1  0  0  0  0
  1  6  1  0  0  0  0
  4 20  1  0  0  0  0
  5 27  1  6  0  0  0
  5 17  1  0  0  0  0
  6 23  1  6  0  0  0
  7  8  2  0  0  0  0
  8  2  2  0  0  0  0
  8 14  1  0  0  0  0
  9 18  1  0  0  0  0
 10 26  1  0  0  0  0
 10  8  1  1  0  0  0
 11 15  1  0  0  0  0
 12 24  1  0  0  0  0
 12 28  1  0  0  0  0
 12 25  1  0  0  0  0
 13  9  2  0  0  0  0
 14  9  1  0  0  0  0
 15 23  1  0  0  0  0
 15 19  1  0  0  0  0
 15  6  1  0  0  0  0
 16 28  1  0  0  0  0
 17  3  1  0  0  0  0
 19 25  1  0  0  0  0
 20 16  2  0  0  0  0
 21  1  2  0  0  0  0
 22  4  2  0  0  0  0
 22 21  1  0  0  0  0
 24  5  1  0  0  0  0
 24 26  1  0  0  0  0
 25 17  1  0  0  0  0
 26 13  1  0  0  0  0
 28 10  1  0  0  0  0
M  END
>  <MODEL>
6

>  <REMARK>
 VINA RESULT:      -1.2     12.392     15.401
  Name = 
  0 active torsions:
  status: ('A' for Active; 'I' for Inactive)
                            x       y       z     vdW  Elec       q    Type
                         _______ _______ _______ _____ _____    ______ ____

>  <TORSDO>
F 0

$$$$
=
 OpenBabel11122414123D

 28 33  0  0  1  0  0  0  0  0999 V2000
  163.3940  212.1200  138.9790 C   0  0  0  0  0  0  0  0  0  0  0  0
  162.8400  212.0890  143.1530 O   0  0  0  0  0  0  0  0  0  0  0  0
  157.8040  211.1170  140.5050 C   0  0  0  0  0  1  0  0  0  0  0  0
  165.2060  214.1540  139.6250 C   0  0  0  0  0  3  0  0  0  0  0  0
  158.1410  213.5610  140.2600 C   0  0  1  0  0  3  0  0  0  0  0  0
  162.3890  211.0780  138.5870 C   0  0  1  0  0  3  0  0  0  0  0  0
  163.3310  214.4280  143.7230 O   0  0  0  0  0  0  0  0  0  0  0  0
  162.2560  213.4660  143.3040 S   0  0  0  0  0  0  0  0  0  0  0  0
  159.7530  212.8270  143.8850 C   0  0  0  0  0  0  0  0  0  0  0  0
  161.5020  214.0200  141.7780 C   0  0  2  0  0  3  0  0  0  0  0  0
  161.8060  212.9400  137.0170 O   0  0  0  0  0  1  0  0  0  0  0  0
  160.4780  213.2690  139.7000 C   0  0  2  0  0  3  0  0  0  0  0  0
  159.3680  213.1650  142.7000 N   0  0  0  0  0  0  0  0  0  0  0  0
  160.9610  213.4420  144.5170 C   0  0  0  0  0  2  0  0  0  0  0  0
  161.4340  211.7050  137.5640 C   0  0  2  0  0  0  0  0  0  0  0  0
  163.0250  213.1100  139.9230 C   0  0  0  0  0  0  0  0  0  0  0  0
  158.3690  212.2060  139.6150 C   0  0  1  0  0  3  0  0  0  0  0  0
  159.0540  211.7190  144.5920 C   0  0  0  0  0  1  0  0  0  0  0  0
  159.9870  211.5680  138.0270 C   0  0  0  0  0  2  0  0  0  0  0  0
  163.9460  214.1270  140.2290 C   0  0  0  0  0  3  0  0  0  0  0  0
  164.6630  212.1490  138.3870 C   0  0  0  0  0  3  0  0  0  0  0  0
  165.5670  213.1630  138.7110 C   0  0  0  0  0  3  0  0  0  0  0  0
  162.3360  210.5670  137.1490 C   0  0  0  0  0  2  0  0  0  0  0  0
  159.5150  214.1680  140.4510 C   0  0  2  0  0  3  0  0  0  0  0  0
  159.8010  211.9920  139.4270 N   0  0  1  0  0  0  0  0  0  0  0  0
  159.9920  214.2180  141.9070 C   0  0  2  0  0  3  0  0  0  0  0  0
  157.3280  214.4340  139.3250 C   0  0  0  0  0  1  0  0  0  0  0  0
  161.6770  213.0380  140.6290 C   0  0  1  0  0  3  0  0  0  0  0  0
  1 16  1  0  0  0  0
  2  8  2  0  0  0  0
  4 20  1  0  0  0  0
  5 27  1  6  0  0  0
  5 24  1  0  0  0  0
  6 23  1  6  0  0  0
  6  1  1  0  0  0  0
  8  7  2  0  0  0  0
  8 14  1  0  0  0  0
  9 14  1  0  0  0  0
  9 18  1  0  0  0  0
 10 26  1  0  0  0  0
 10  8  1  1  0  0  0
 11 15  1  0  0  0  0
 12 24  1  0  0  0  0
 12 28  1  0  0  0  0
 13  9  2  0  0  0  0
 15 19  1  0  0  0  0
 15  6  1  0  0  0  0
 16 20  2  0  0  0  0
 16 28  1  0  0  0  0
 17  5  1  0  0  0  0
 17  3  1  0  0  0  0
 19 25  1  0  0  0  0
 21 22  1  0  0  0  0
 21  1  2  0  0  0  0
 22  4  2  0  0  0  0
 23 15  1  0  0  0  0
 24 26  1  0  0  0  0
 25 17  1  0  0  0  0
 25 12  1  0  0  0  0
 26 13  1  0  0  0  0
 28 10  1  0  0  0  0
M  END
>  <MODEL>
7

>  <REMARK>
 VINA RESULT:      -1.1     10.935     14.243
  Name = 
  0 active torsions:
  status: ('A' for Active; 'I' for Inactive)
                            x       y       z     vdW  Elec       q    Type
                         _______ _______ _______ _____ _____    ______ ____

>  <TORSDO>
F 0

$$$$
=
 OpenBabel11122414123D

 28 33  0  0  1  0  0  0  0  0999 V2000
  159.8960  213.5230  149.5650 C   0  0  0  0  0  0  0  0  0  0  0  0
  158.9560  214.4530  153.5610 O   0  0  0  0  0  0  0  0  0  0  0  0
  163.0780  210.4160  153.4130 C   0  0  0  0  0  1  0  0  0  0  0  0
  157.1410  213.8940  149.2380 C   0  0  0  0  0  3  0  0  0  0  0  0
  161.0020  209.1640  152.8950 C   0  0  1  0  0  3  0  0  0  0  0  0
  161.3650  213.2540  149.7100 C   0  0  1  0  0  3  0  0  0  0  0  0
  156.6440  213.6360  153.7170 O   0  0  0  0  0  0  0  0  0  0  0  0
  158.0910  213.2620  153.8640 S   0  0  0  0  0  0  0  0  0  0  0  0
  159.7000  211.9490  155.5070 C   0  0  0  0  0  0  0  0  0  0  0  0
  158.4790  211.8900  152.7820 C   0  0  2  0  0  3  0  0  0  0  0  0
  160.6210  211.2330  148.4330 O   0  0  0  0  0  1  0  0  0  0  0  0
  160.2240  210.9020  151.4000 C   0  0  2  0  0  3  0  0  0  0  0  0
  159.9750  211.0880  154.5860 N   0  0  0  0  0  0  0  0  0  0  0  0
  158.4030  212.6940  155.5160 C   0  0  0  0  0  2  0  0  0  0  0  0
  161.6450  211.8500  149.1620 C   0  0  2  0  0  0  0  0  0  0  0  0
  159.0000  212.9690  150.5110 C   0  0  0  0  0  0  0  0  0  0  0  0
  162.1760  209.9190  152.3000 C   0  0  1  0  0  3  0  0  0  0  0  0
  160.7400  212.2980  156.5140 C   0  0  0  0  0  1  0  0  0  0  0  0
  162.3490  210.9960  150.2130 C   0  0  0  0  0  2  0  0  0  0  0  0
  157.6200  213.1610  150.3260 C   0  0  0  0  0  3  0  0  0  0  0  0
  159.4080  214.2650  148.4820 C   0  0  0  0  0  3  0  0  0  0  0  0
  158.0340  214.4520  148.3200 C   0  0  0  0  0  3  0  0  0  0  0  0
  162.2340  213.0560  148.4710 C   0  0  0  0  0  2  0  0  0  0  0  0
  159.7600  209.8960  152.4360 C   0  0  2  0  0  3  0  0  0  0  0  0
  161.6820  211.0550  151.5260 N   0  0  1  0  0  0  0  0  0  0  0  0
  159.0430  210.6860  153.5370 C   0  0  2  0  0  3  0  0  0  0  0  0
  160.9850  207.7500  152.3500 C   0  0  0  0  0  1  0  0  0  0  0  0
  159.5290  212.2280  151.7330 C   0  0  1  0  0  3  0  0  0  0  0  0
  1  6  1  0  0  0  0
  1 16  1  0  0  0  0
  2  8  2  0  0  0  0
  4 20  1  0  0  0  0
  5 27  1  6  0  0  0
  6 23  1  6  0  0  0
  7  8  2  0  0  0  0
  8 14  1  0  0  0  0
  9 14  1  0  0  0  0
  9 18  1  0  0  0  0
 10 26  1  0  0  0  0
 10  8  1  1  0  0  0
 11 15  1  0  0  0  0
 12 25  1  0  0  0  0
 12 28  1  0  0  0  0
 12 24  1  0  0  0  0
 13  9  2  0  0  0  0
 15  6  1  0  0  0  0
 15 19  1  0  0  0  0
 16 28  1  0  0  0  0
 17  5  1  0  0  0  0
 17  3  1  0  0  0  0
 19 25  1  0  0  0  0
 20 16  2  0  0  0  0
 21  1  2  0  0  0  0
 22 21  1  0  0  0  0
 22  4  2  0  0  0  0
 23 15  1  0  0  0  0
 24  5  1  0  0  0  0
 24 26  1  0  0  0  0
 25 17  1  0  0  0  0
 26 13  1  0  0  0  0
 28 10  1  0  0  0  0
M  END
>  <MODEL>
8

>  <REMARK>
 VINA RESULT:      -0.7      2.480      5.336
  Name = 
  0 active torsions:
  status: ('A' for Active; 'I' for Inactive)
                            x       y       z     vdW  Elec       q    Type
                         _______ _______ _______ _____ _____    ______ ____

>  <TORSDO>
F 0

$$$$
=
 OpenBabel11122414123D

 28 33  0  0  1  0  0  0  0  0999 V2000
  160.6040  209.4660  154.6460 C   0  0  0  0  0  0  0  0  0  0  0  0
  157.0770  211.4700  155.7700 O   0  0  0  0  0  0  0  0  0  0  0  0
  158.0320  212.2120  150.1260 C   0  0  0  0  0  1  0  0  0  0  0  0
  161.4410  210.3350  157.1720 C   0  0  0  0  0  3  0  0  0  0  0  0
  159.6270  213.7720  151.2090 C   0  0  1  0  0  3  0  0  0  0  0  0
  160.2160  209.0350  153.2620 C   0  0  1  0  0  3  0  0  0  0  0  0
  157.9630  213.2120  157.2580 O   0  0  0  0  0  0  0  0  0  0  0  0
  157.6310  212.8650  155.8350 S   0  0  0  0  0  0  0  0  0  0  0  0
  156.4590  213.9100  153.7030 C   0  0  0  0  0  0  0  0  0  0  0  0
  159.0890  213.0300  154.8110 C   0  0  2  0  0  3  0  0  0  0  0  0
  162.4550  210.0750  152.8420 O   0  0  0  0  0  1  0  0  0  0  0  0
  160.2470  212.1230  152.8690 C   0  0  2  0  0  3  0  0  0  0  0  0
  157.5670  213.8660  153.0440 N   0  0  0  0  0  0  0  0  0  0  0  0
  156.4420  214.0170  155.1950 C   0  0  0  0  0  2  0  0  0  0  0  0
  161.2730  209.5670  152.2880 C   0  0  2  0  0  0  0  0  0  0  0  0
  160.3230  210.7920  155.0570 C   0  0  0  0  0  0  0  0  0  0  0  0
  159.4420  212.3690  150.6600 C   0  0  1  0  0  3  0  0  0  0  0  0
  155.1700  213.7310  152.9780 C   0  0  0  0  0  1  0  0  0  0  0  0
  160.6180  210.3990  151.1890 C   0  0  0  0  0  2  0  0  0  0  0  0
  160.7570  211.2120  156.3250 C   0  0  0  0  0  3  0  0  0  0  0  0
  161.2810  208.5900  155.5040 C   0  0  0  0  0  3  0  0  0  0  0  0
  161.6970  209.0240  156.7650 C   0  0  0  0  0  3  0  0  0  0  0  0
  161.1110  208.0780  152.4780 C   0  0  0  0  0  2  0  0  0  0  0  0
  159.9920  213.6040  152.6680 C   0  0  2  0  0  3  0  0  0  0  0  0
  159.6750  211.3960  151.7240 N   0  0  1  0  0  0  0  0  0  0  0  0
  158.8870  214.0060  153.6510 C   0  0  2  0  0  3  0  0  0  0  0  0
  160.7660  214.4530  150.4780 C   0  0  0  0  0  1  0  0  0  0  0  0
  159.5180  211.7230  154.1590 C   0  0  1  0  0  3  0  0  0  0  0  0
  1 16  2  0  0  0  0
  1 21  1  0  0  0  0
  2  8  2  0  0  0  0
  3 17  1  0  0  0  0
  5 27  1  6  0  0  0
  5 24  1  0  0  0  0
  6 23  1  1  0  0  0
  6  1  1  0  0  0  0
  8  7  2  0  0  0  0
  9 14  1  0  0  0  0
 10  8  1  6  0  0  0
 12 28  1  0  0  0  0
 13 26  1  0  0  0  0
 13  9  2  0  0  0  0
 14  8  1  0  0  0  0
 15 23  1  0  0  0  0
 15 11  1  0  0  0  0
 15  6  1  0  0  0  0
 16 20  1  0  0  0  0
 17  5  1  0  0  0  0
 17 25  1  0  0  0  0
 18  9  1  0  0  0  0
 19 25  1  0  0  0  0
 19 15  1  0  0  0  0
 20  4  2  0  0  0  0
 21 22  2  0  0  0  0
 22  4  1  0  0  0  0
 24 12  1  0  0  0  0
 24 26  1  0  0  0  0
 25 12  1  0  0  0  0
 26 10  1  0  0  0  0
 28 10  1  0  0  0  0
 28 16  1  0  0  0  0
M  END
>  <MODEL>
9

>  <REMARK>
 VINA RESULT:      -0.5      2.540      6.580
  Name = 
  0 active torsions:
  status: ('A' for Active; 'I' for Inactive)
                            x       y       z     vdW  Elec       q    Type
                         _______ _______ _______ _____ _____    ______ ____

>  <TORSDO>
F 0

$$$$
