=
 OpenBabel11122414083D

 28 32  0  0  1  0  0  0  0  0999 V2000
  160.8850  209.2240  156.4060 C   0  0  0  0  0  0  0  0  0  0  0  0
  157.0580  211.4640  153.9720 F   0  0  0  0  0  0  0  0  0  0  0  0
  162.3850  208.3950  152.1320 O   0  0  0  0  0  0  0  0  0  0  0  0
  162.9470  211.1130  156.5070 C   0  0  0  0  0  3  0  0  0  0  0  0
  161.1810  210.4010  151.9140 N   0  0  0  0  0  0  0  0  0  0  0  0
  159.8760  208.2660  156.3040 O   0  0  0  0  0  0  0  0  0  0  0  0
  157.4030  212.9200  155.7940 C   0  0  0  0  0  1  0  0  0  0  0  0
  157.8500  212.5170  154.4020 C   0  0  1  0  0  0  0  0  0  0  0  0
  158.2860  213.3740  152.1280 C   0  0  1  0  0  3  0  0  0  0  0  0
  159.3450  212.1210  154.4470 C   0  0  2  0  0  3  0  0  0  0  0  0
  162.1340  206.9330  154.7190 O   0  0  0  0  0  1  0  0  0  0  0  0
  159.4960  209.8640  153.5090 C   0  0  1  0  0  3  0  0  0  0  0  0
  159.6840  213.3200  152.2800 O   0  0  0  0  0  0  0  0  0  0  0  0
  157.6350  213.6950  153.4640 C   0  0  0  0  0  2  0  0  0  0  0  0
  160.7690  206.6410  154.7190 C   0  0  2  0  0  3  0  0  0  0  0  0
  160.7550  210.4300  155.6990 C   0  0  0  0  0  0  0  0  0  0  0  0
  161.4350  209.1400  152.4920 C   0  0  0  0  0  0  0  0  0  0  0  0
  157.9320  214.4520  151.1260 C   0  0  0  0  0  1  0  0  0  0  0  0
  160.0360  207.3690  153.5860 C   0  0  0  0  0  2  0  0  0  0  0  0
  161.8030  211.3660  155.7460 C   0  0  0  0  0  3  0  0  0  0  0  0
  162.0370  208.9730  157.1650 C   0  0  0  0  0  3  0  0  0  0  0  0
  163.0630  209.9190  157.2190 C   0  0  0  0  0  3  0  0  0  0  0  0
  160.1550  206.8870  156.0990 C   0  0  0  0  0  2  0  0  0  0  0  0
  159.8890  210.8610  152.3940 C   0  0  1  0  0  3  0  0  0  0  0  0
  160.4610  208.7620  153.4470 N   0  0  0  0  0  0  0  0  0  0  0  0
  160.0380  212.2080  153.0810 C   0  0  2  0  0  3  0  0  0  0  0  0
  161.7150  210.7970  150.7350 O   0  0  0  0  0  1  0  0  0  0  0  0
  159.5220  210.6550  154.8420 C   0  0  1  0  0  3  0  0  0  0  0  0
  1 21  1  0  0  0  0
  2  8  1  0  0  0  0
  3 17  2  0  0  0  0
  4 22  1  0  0  0  0
  5 24  1  0  0  0  0
  5 17  1  0  0  0  0
  6  1  1  0  0  0  0
  8 10  1  0  0  0  0
  8  7  1  1  0  0  0
  9 18  1  6  0  0  0
  9 13  1  0  0  0  0
  9 14  1  0  0  0  0
 10 28  1  0  0  0  0
 12 28  1  0  0  0  0
 13 26  1  0  0  0  0
 14  8  1  0  0  0  0
 15 11  1  0  0  0  0
 15 23  1  0  0  0  0
 16 20  1  0  0  0  0
 16  1  2  0  0  0  0
 17 25  1  0  0  0  0
 19 15  1  0  0  0  0
 20  4  2  0  0  0  0
 21 22  2  0  0  0  0
 23  6  1  0  0  0  0
 24 26  1  0  0  0  0
 24 12  1  0  0  0  0
 25 12  1  0  0  0  0
 25 19  1  0  0  0  0
 26 10  1  0  0  0  0
 27  5  1  0  0  0  0
 28 16  1  0  0  0  0
M  END
>  <MODEL>
1

>  <REMARK>
 VINA RESULT:      -3.2      0.000      0.000
  Name = 
  0 active torsions:
  status: ('A' for Active; 'I' for Inactive)
                            x       y       z     vdW  Elec       q    Type
                         _______ _______ _______ _____ _____    ______ ____

>  <TORSDO>
F 0

$$$$
=
 OpenBabel11122414083D

 28 32  0  0  1  0  0  0  0  0999 V2000
  157.4590  211.5220  156.2620 C   0  0  0  0  0  0  0  0  0  0  0  0
  161.9620  209.5570  155.0560 F   0  0  0  0  0  0  0  0  0  0  0  0
  158.1770  214.0580  152.4870 O   0  0  0  0  0  0  0  0  0  0  0  0
  155.5790  210.1600  154.6990 C   0  0  0  0  0  3  0  0  0  0  0  0
  159.3220  212.0580  152.0320 N   0  0  0  0  0  0  0  0  0  0  0  0
  158.4050  212.2370  156.9970 O   0  0  0  0  0  0  0  0  0  0  0  0
  160.7780  207.6590  155.8000 C   0  0  0  0  0  1  0  0  0  0  0  0
  161.0500  208.5980  154.6420 C   0  0  1  0  0  0  0  0  0  0  0  0
  161.7390  208.6860  152.2720 C   0  0  1  0  0  3  0  0  0  0  0  0
  159.7180  209.2400  154.1890 C   0  0  2  0  0  3  0  0  0  0  0  0
  157.1830  214.4530  155.2700 O   0  0  0  0  0  1  0  0  0  0  0  0
  160.0510  211.6650  154.2650 C   0  0  1  0  0  3  0  0  0  0  0  0
  160.4380  208.9590  151.8120 O   0  0  0  0  0  0  0  0  0  0  0  0
  161.6740  207.8010  153.5070 C   0  0  0  0  0  2  0  0  0  0  0  0
  158.3870  214.4530  155.9770 C   0  0  2  0  0  3  0  0  0  0  0  0
  157.8970  210.6360  155.2660 C   0  0  0  0  0  0  0  0  0  0  0  0
  158.8350  213.0630  152.8920 C   0  0  0  0  0  0  0  0  0  0  0  0
  162.5170  207.9750  151.1860 C   0  0  0  0  0  1  0  0  0  0  0  0
  159.5630  214.0330  155.0880 C   0  0  0  0  0  2  0  0  0  0  0  0
  156.9440  209.9670  154.4770 C   0  0  0  0  0  3  0  0  0  0  0  0
  156.0870  211.7160  156.4780 C   0  0  0  0  0  3  0  0  0  0  0  0
  155.1490  211.0320  155.7010 C   0  0  0  0  0  3  0  0  0  0  0  0
  158.2690  213.6280  157.2610 C   0  0  0  0  0  2  0  0  0  0  0  0
  160.2260  211.2150  152.7950 C   0  0  1  0  0  3  0  0  0  0  0  0
  159.2420  212.8880  154.2360 N   0  0  0  0  0  0  0  0  0  0  0  0
  159.7550  209.7700  152.7500 C   0  0  2  0  0  3  0  0  0  0  0  0
  159.4080  212.2080  150.6890 O   0  0  0  0  0  1  0  0  0  0  0  0
  159.3880  210.4830  155.0160 C   0  0  1  0  0  3  0  0  0  0  0  0
  1 21  1  0  0  0  0
  1  6  1  0  0  0  0
  3 17  2  0  0  0  0
  4 22  1  0  0  0  0
  5 24  1  0  0  0  0
  5 17  1  0  0  0  0
  6 23  1  0  0  0  0
  8  2  1  0  0  0  0
  8  7  1  1  0  0  0
  9 18  1  6  0  0  0
  9 14  1  0  0  0  0
 10  8  1  0  0  0  0
 10 28  1  0  0  0  0
 11 15  1  0  0  0  0
 12 28  1  0  0  0  0
 13  9  1  0  0  0  0
 13 26  1  0  0  0  0
 14  8  1  0  0  0  0
 15 23  1  0  0  0  0
 16  1  2  0  0  0  0
 17 25  1  0  0  0  0
 19 15  1  0  0  0  0
 20  4  2  0  0  0  0
 20 16  1  0  0  0  0
 22 21  2  0  0  0  0
 24 12  1  0  0  0  0
 25 12  1  0  0  0  0
 25 19  1  0  0  0  0
 26 24  1  0  0  0  0
 26 10  1  0  0  0  0
 27  5  1  0  0  0  0
 28 16  1  0  0  0  0
M  END
>  <MODEL>
2

>  <REMARK>
 VINA RESULT:      -2.1      2.405      5.579
  Name = 
  0 active torsions:
  status: ('A' for Active; 'I' for Inactive)
                            x       y       z     vdW  Elec       q    Type
                         _______ _______ _______ _____ _____    ______ ____

>  <TORSDO>
F 0

$$$$
=
 OpenBabel11122414083D

 28 32  0  0  1  0  0  0  0  0999 V2000
  161.7130  210.0290  154.3340 C   0  0  0  0  0  0  0  0  0  0  0  0
  160.4860  214.2060  151.7570 F   0  0  0  0  0  0  0  0  0  0  0  0
  157.8380  210.9800  156.6320 O   0  0  0  0  0  0  0  0  0  0  0  0
  160.2370  207.9490  153.1820 C   0  0  0  0  0  3  0  0  0  0  0  0
  157.4300  211.8410  154.4850 N   0  0  0  0  0  0  0  0  0  0  0  0
  162.4040  211.0780  154.9420 O   0  0  0  0  0  0  0  0  0  0  0  0
  161.3190  212.8030  150.0560 C   0  0  0  0  0  1  0  0  0  0  0  0
  160.1230  213.1660  150.9140 C   0  0  1  0  0  0  0  0  0  0  0  0
  157.7380  213.8020  150.8350 C   0  0  1  0  0  3  0  0  0  0  0  0
  159.6760  211.9190  151.7110 C   0  0  2  0  0  3  0  0  0  0  0  0
  160.6260  210.1150  157.2430 O   0  0  0  0  0  1  0  0  0  0  0  0
  159.6600  212.5680  154.0720 C   0  0  1  0  0  3  0  0  0  0  0  0
  157.2960  212.5370  151.2610 O   0  0  0  0  0  0  0  0  0  0  0  0
  159.0040  213.6520  150.0060 C   0  0  0  0  0  2  0  0  0  0  0  0
  161.3070  211.3250  157.1080 C   0  0  2  0  0  3  0  0  0  0  0  0
  160.7400  210.3240  153.3670 C   0  0  0  0  0  0  0  0  0  0  0  0
  158.2640  211.5120  155.5730 C   0  0  0  0  0  0  0  0  0  0  0  0
  156.6620  214.4530  149.9940 C   0  0  0  0  0  1  0  0  0  0  0  0
  160.4100  212.4140  156.5080 C   0  0  0  0  0  2  0  0  0  0  0  0
  159.9950  209.2720  152.8050 C   0  0  0  0  0  3  0  0  0  0  0  0
  161.9500  208.7000  154.7140 C   0  0  0  0  0  3  0  0  0  0  0  0
  161.2160  207.6620  154.1350 C   0  0  0  0  0  3  0  0  0  0  0  0
  162.6210  211.1320  156.3460 C   0  0  0  0  0  2  0  0  0  0  0  0
  158.2040  212.6460  153.5560 C   0  0  1  0  0  3  0  0  0  0  0  0
  159.6050  211.9250  155.3880 N   0  0  0  0  0  0  0  0  0  0  0  0
  158.2180  211.9900  152.1850 C   0  0  2  0  0  3  0  0  0  0  0  0
  156.0810  211.9130  154.5800 O   0  0  0  0  0  1  0  0  0  0  0  0
  160.4660  211.7740  153.0120 C   0  0  1  0  0  3  0  0  0  0  0  0
  1 21  1  0  0  0  0
  1  6  1  0  0  0  0
  4 22  1  0  0  0  0
  5 27  1  0  0  0  0
  5 17  1  0  0  0  0
  6 23  1  0  0  0  0
  8  7  1  6  0  0  0
  8 10  1  0  0  0  0
  8  2  1  0  0  0  0
  9 18  1  6  0  0  0
  9 13  1  0  0  0  0
 10 26  1  0  0  0  0
 10 28  1  0  0  0  0
 12 25  1  0  0  0  0
 13 26  1  0  0  0  0
 14  9  1  0  0  0  0
 14  8  1  0  0  0  0
 15 11  1  0  0  0  0
 16  1  2  0  0  0  0
 17  3  2  0  0  0  0
 19 15  1  0  0  0  0
 20  4  2  0  0  0  0
 20 16  1  0  0  0  0
 22 21  2  0  0  0  0
 23 15  1  0  0  0  0
 24 12  1  0  0  0  0
 24  5  1  0  0  0  0
 25 17  1  0  0  0  0
 25 19  1  0  0  0  0
 26 24  1  0  0  0  0
 28 16  1  0  0  0  0
 28 12  1  0  0  0  0
M  END
>  <MODEL>
3

>  <REMARK>
 VINA RESULT:      -1.9      2.435      4.258
  Name = 
  0 active torsions:
  status: ('A' for Active; 'I' for Inactive)
                            x       y       z     vdW  Elec       q    Type
                         _______ _______ _______ _____ _____    ______ ____

>  <TORSDO>
F 0

$$$$
