=
 OpenBabel11122413453D

 37 43  0  0  1  0  0  0  0  0999 V2000
  161.8760  205.6670  146.4970 C   0  0  0  0  0  0  0  0  0  0  0  0
  161.1380  205.6610  150.6100 C   0  0  0  0  0  0  0  0  0  0  0  0
  160.7430  209.1090  152.2520 C   0  0  0  0  0  2  0  0  0  0  0  0
  161.2950  204.3240  148.5870 C   0  0  0  0  0  0  0  0  0  0  0  0
  161.4970  206.9840  150.9290 C   0  0  0  0  0  0  0  0  0  0  0  0
  161.4700  205.4940  149.2970 C   0  0  0  0  0  0  0  0  0  0  0  0
  161.3820  207.6880  152.3030 C   0  0  2  0  0  3  0  0  0  0  0  0
  160.7630  203.2250  149.2750 C   0  0  0  0  0  3  0  0  0  0  0  0
  162.0060  206.6350  148.8170 C   0  0  0  0  0  0  0  0  0  0  0  0
  160.4860  206.1320  146.0960 C   0  0  0  0  0  1  0  0  0  0  0  0
  160.2420  204.6310  152.7730 C   0  0  0  0  0  2  0  0  0  0  0  0
  160.4170  203.3530  150.6410 C   0  0  0  0  0  3  0  0  0  0  0  0
  162.5300  206.7370  147.4120 C   0  0  0  0  0  2  0  0  0  0  0  0
  161.4920  210.9990  150.8270 C   0  0  1  0  0  3  0  0  0  0  0  0
  160.8670  209.6770  150.9240 N   0  0  1  0  0  0  0  0  0  0  0  0
  160.6140  204.5700  151.3320 C   0  0  0  0  0  0  0  0  0  0  0  0
  162.0580  207.5590  149.7970 N   0  0  0  0  0  0  0  0  0  0  0  0
  161.7780  204.2640  147.1590 C   0  0  0  0  0  2  0  0  0  0  0  0
  160.7850  206.9070  153.4850 C   0  0  1  0  0  3  0  0  0  0  0  0
  162.7100  205.5430  145.2410 C   0  0  0  0  0  1  0  0  0  0  0  0
  162.3290  209.7900  150.7880 C   0  0  1  0  0  3  0  0  0  0  0  0
  162.6060  208.9150  149.5850 C   0  0  0  0  0  2  0  0  0  0  0  0
  161.2300  205.4610  153.5570 C   0  0  0  0  0  2  0  0  0  0  0  0
  160.6350  206.9820  155.9810 C   0  0  0  0  0  3  0  0  0  0  0  0
  161.0720  207.5810  154.7940 C   0  0  0  0  0  0  0  0  0  0  0  0
  161.7720  208.7960  154.8470 C   0  0  0  0  0  3  0  0  0  0  0  0
  162.7690  210.6930  156.1300 C   0  0  0  0  0  1  0  0  0  0  0  0
  161.5880  208.8050  157.2610 C   0  0  0  0  0  3  0  0  0  0  0  0
  162.0290  209.4060  156.0780 C   0  0  0  0  0  0  0  0  0  0  0  0
  160.8920  207.5930  157.2130 C   0  0  0  0  0  3  0  0  0  0  0  0
  161.2710  211.5770  149.4650 C   0  0  0  0  0  0  0  0  0  0  0  0
  160.5780  212.8210  149.3250 N   0  0  0  0  0  2  0  0  0  0  0  0
  161.6720  210.9520  148.4460 O   0  0  0  0  0  0  0  0  0  0  0  0
  161.5750  214.3690  147.7130 C   0  0  0  0  0  1  0  0  0  0  0  0
  160.3880  213.4760  148.0380 C   0  0  2  0  0  3  0  0  0  0  0  0
  157.8610  213.3790  148.1650 C   0  0  0  0  0  1  0  0  0  0  0  0
  159.0860  214.2720  148.0290 C   0  0  0  0  0  2  0  0  0  0  0  0
  1 18  1  0  0  0  0
  1 13  1  0  0  0  0
  2  5  2  0  0  0  0
  2 16  1  0  0  0  0
  4  8  2  0  0  0  0
  4  6  1  0  0  0  0
  5  7  1  0  0  0  0
  6  2  1  0  0  0  0
  7  3  1  6  0  0  0
  7 19  1  0  0  0  0
  8 12  1  0  0  0  0
  9  6  2  0  0  0  0
  9 17  1  0  0  0  0
 10  1  1  0  0  0  0
 11 23  1  0  0  0  0
 12 16  2  0  0  0  0
 13  9  1  0  0  0  0
 14 31  1  6  0  0  0
 14 15  1  0  0  0  0
 15  3  1  1  0  0  0
 16 11  1  0  0  0  0
 17  5  1  0  0  0  0
 18  4  1  0  0  0  0
 19 23  1  0  0  0  0
 19 25  1  1  0  0  0
 20  1  1  0  0  0  0
 21 22  1  6  0  0  0
 21 14  1  0  0  0  0
 21 15  1  0  0  0  0
 22 17  1  0  0  0  0
 24 30  1  0  0  0  0
 25 26  1  0  0  0  0
 25 24  2  0  0  0  0
 26 29  2  0  0  0  0
 29 27  1  0  0  0  0
 29 28  1  0  0  0  0
 30 28  2  0  0  0  0
 32 31  1  0  0  0  0
 33 31  2  0  0  0  0
 35 34  1  1  0  0  0
 35 32  1  0  0  0  0
 37 35  1  0  0  0  0
 37 36  1  0  0  0  0
M  END
>  <MODEL>
1

>  <REMARK>
 VINA RESULT:      -9.2      0.000      0.000
  Name = 
  4 active torsions:
  status: ('A' for Active; 'I' for Inactive)
    1  A    between atoms: C_4  and  N_12
    2  A    between atoms: C_4  and  C_37
    3  A    between atoms: C_8  and  C_18
    4  A    between atoms: C_23  and  C_30
                            x       y       z     vdW  Elec       q    Type
                         _______ _______ _______ _____ _____    ______ ____

>  <TORSDO>
F 4

$$$$
=
 OpenBabel11122413453D

 37 43  0  0  1  0  0  0  0  0999 V2000
  161.7600  205.9930  147.6470 C   0  0  0  0  0  0  0  0  0  0  0  0
  161.2300  206.9880  151.6700 C   0  0  0  0  0  0  0  0  0  0  0  0
  160.6680  210.7100  152.4220 C   0  0  0  0  0  2  0  0  0  0  0  0
  161.3830  205.1920  150.0400 C   0  0  0  0  0  0  0  0  0  0  0  0
  161.5070  208.3660  151.6240 C   0  0  0  0  0  0  0  0  0  0  0  0
  161.5070  206.5120  150.4220 C   0  0  0  0  0  0  0  0  0  0  0  0
  161.4100  209.3890  152.7830 C   0  0  2  0  0  3  0  0  0  0  0  0
  160.9670  204.2750  151.0140 C   0  0  0  0  0  3  0  0  0  0  0  0
  161.9340  207.5230  149.6370 C   0  0  0  0  0  0  0  0  0  0  0  0
  160.3210  206.2590  147.2360 C   0  0  0  0  0  1  0  0  0  0  0  0
  160.5210  206.4900  154.0770 C   0  0  0  0  0  2  0  0  0  0  0  0
  160.6820  204.7250  152.3250 C   0  0  0  0  0  3  0  0  0  0  0  0
  162.3780  207.2960  148.2200 C   0  0  0  0  0  2  0  0  0  0  0  0
  161.2050  212.2170  150.5230 C   0  0  1  0  0  3  0  0  0  0  0  0
  160.6840  210.9290  150.9890 N   0  0  1  0  0  0  0  0  0  0  0  0
  160.8240  206.0870  152.6750 C   0  0  0  0  0  0  0  0  0  0  0  0
  161.9670  208.6670  150.3500 N   0  0  0  0  0  0  0  0  0  0  0  0
  161.7970  204.8010  148.6430 C   0  0  0  0  0  2  0  0  0  0  0  0
  160.9310  208.8990  154.1600 C   0  0  1  0  0  3  0  0  0  0  0  0
  162.5360  205.6030  146.4080 C   0  0  0  0  0  1  0  0  0  0  0  0
  162.1240  211.0880  150.7310 C   0  0  1  0  0  3  0  0  0  0  0  0
  162.4040  209.9540  149.7700 C   0  0  0  0  0  2  0  0  0  0  0  0
  161.4840  207.5470  154.5610 C   0  0  0  0  0  2  0  0  0  0  0  0
  162.3180  209.6740  156.0940 C   0  0  0  0  0  3  0  0  0  0  0  0
  161.2340  209.8990  155.2370 C   0  0  0  0  0  0  0  0  0  0  0  0
  160.4520  211.0540  155.3970 C   0  0  0  0  0  3  0  0  0  0  0  0
  159.9220  213.1920  156.5730 C   0  0  0  0  0  1  0  0  0  0  0  0
  161.8350  211.7410  157.2610 C   0  0  0  0  0  3  0  0  0  0  0  0
  160.7530  211.9720  156.4070 C   0  0  0  0  0  0  0  0  0  0  0  0
  162.6180  210.5930  157.1040 C   0  0  0  0  0  3  0  0  0  0  0  0
  160.8740  212.4170  149.0770 C   0  0  0  0  0  0  0  0  0  0  0  0
  159.5360  212.7430  148.6940 N   0  0  0  0  0  2  0  0  0  0  0  0
  161.7710  212.2700  148.2040 O   0  0  0  0  0  0  0  0  0  0  0  0
  159.5190  214.4470  146.9360 C   0  0  0  0  0  1  0  0  0  0  0  0
  159.1570  213.0190  147.3140 C   0  0  2  0  0  3  0  0  0  0  0  0
  156.7960  213.6500  147.9770 C   0  0  0  0  0  1  0  0  0  0  0  0
  157.6680  212.7590  147.1050 C   0  0  0  0  0  2  0  0  0  0  0  0
  1 13  1  0  0  0  0
  1 18  1  0  0  0  0
  2 16  1  0  0  0  0
  4  6  1  0  0  0  0
  4  8  2  0  0  0  0
  5  2  2  0  0  0  0
  5  7  1  0  0  0  0
  6  2  1  0  0  0  0
  7  3  1  6  0  0  0
  7 19  1  0  0  0  0
  8 12  1  0  0  0  0
  9 17  1  0  0  0  0
  9  6  2  0  0  0  0
 10  1  1  0  0  0  0
 11 23  1  0  0  0  0
 12 16  2  0  0  0  0
 13  9  1  0  0  0  0
 14 31  1  6  0  0  0
 14 21  1  0  0  0  0
 14 15  1  0  0  0  0
 15  3  1  1  0  0  0
 16 11  1  0  0  0  0
 17  5  1  0  0  0  0
 18  4  1  0  0  0  0
 19 23  1  0  0  0  0
 19 25  1  1  0  0  0
 20  1  1  0  0  0  0
 21 22  1  6  0  0  0
 21 15  1  0  0  0  0
 22 17  1  0  0  0  0
 24 30  1  0  0  0  0
 25 26  1  0  0  0  0
 25 24  2  0  0  0  0
 26 29  2  0  0  0  0
 29 27  1  0  0  0  0
 29 28  1  0  0  0  0
 30 28  2  0  0  0  0
 32 31  1  0  0  0  0
 33 31  2  0  0  0  0
 35 34  1  1  0  0  0
 35 32  1  0  0  0  0
 37 35  1  0  0  0  0
 37 36  1  0  0  0  0
M  END
>  <MODEL>
2

>  <REMARK>
 VINA RESULT:      -8.2      1.322      1.982
  Name = 
  4 active torsions:
  status: ('A' for Active; 'I' for Inactive)
    1  A    between atoms: C_4  and  N_12
    2  A    between atoms: C_4  and  C_37
    3  A    between atoms: C_8  and  C_18
    4  A    between atoms: C_23  and  C_30
                            x       y       z     vdW  Elec       q    Type
                         _______ _______ _______ _____ _____    ______ ____

>  <TORSDO>
F 4

$$$$
