=
 OpenBabel11122413443D

 37 44  0  0  1  0  0  0  0  0999 V2000
  159.1490  211.7300  154.8010 C   0  0  0  0  0  2  0  0  0  0  0  0
  161.0450  208.3800  153.2780 C   0  0  0  0  0  0  0  0  0  0  0  0
  160.8520  211.4720  150.6350 C   0  0  0  0  0  0  0  0  0  0  0  0
  158.0810  211.4570  155.8700 C   0  0  2  0  0  3  0  0  0  0  0  0
  158.8280  214.3760  152.2510 C   0  0  2  0  0  3  0  0  0  0  0  0
  161.5770  209.0510  150.7970 C   0  0  1  0  0  3  0  0  0  0  0  0
  160.0100  212.2890  151.3720 C   0  0  0  0  0  0  0  0  0  0  0  0
  156.8660  213.5660  155.3670 C   0  0  0  0  0  0  0  0  0  0  0  0
  160.7050  210.2090  151.1550 C   0  0  0  0  0  0  0  0  0  0  0  0
  159.9310  213.7870  151.3530 C   0  0  1  0  0  3  0  0  0  0  0  0
  162.9450  209.5620  150.3330 C   0  0  0  0  0  2  0  0  0  0  0  0
  156.8760  212.2060  155.6820 O   0  0  0  0  0  0  0  0  0  0  0  0
  159.8480  210.2110  152.1830 N   0  0  0  0  0  0  0  0  0  0  0  0
  161.9910  209.2760  154.0600 C   0  0  0  0  0  1  0  0  0  0  0  0
  161.5020  212.6850  148.5790 C   0  0  0  0  0  2  0  0  0  0  0  0
  162.7590  210.6300  149.2400 C   0  0  0  0  0  2  0  0  0  0  0  0
  159.6920  209.0830  153.0930 C   0  0  0  0  0  2  0  0  0  0  0  0
  156.9220  213.9950  153.9370 C   0  0  0  0  0  2  0  0  0  0  0  0
  159.2770  214.3280  153.5880 O   0  0  0  0  0  0  0  0  0  0  0  0
  162.0020  211.8690  149.7560 C   0  0  2  0  0  3  0  0  0  0  0  0
  159.4240  211.4840  152.3300 C   0  0  0  0  0  0  0  0  0  0  0  0
  161.6880  208.0030  151.9250 C   0  0  0  0  0  2  0  0  0  0  0  0
  159.8270  214.3830  149.9420 C   0  0  1  0  0  3  0  0  0  0  0  0
  160.8240  207.1130  154.0760 C   0  0  0  0  0  1  0  0  0  0  0  0
  158.1940  213.4850  153.2770 C   0  0  2  0  0  0  0  0  0  0  0  0
  156.7790  214.4270  156.2810 O   0  0  0  0  0  0  0  0  0  0  0  0
  158.5430  211.9880  153.4260 C   0  0  2  0  0  3  0  0  0  0  0  0
  161.4060  214.4510  149.0160 S   0  0  0  0  0  0  0  0  0  0  0  0
  157.3560  214.0880  149.7200 C   0  0  0  0  0  3  0  0  0  0  0  0
  158.6210  214.0040  149.1290 C   0  0  0  0  0  0  0  0  0  0  0  0
  158.7340  213.5720  147.8000 C   0  0  0  0  0  3  0  0  0  0  0  0
  157.7490  212.6810  145.4160 Cl  0  0  0  0  0  0  0  0  0  0  0  0
  156.3320  213.3070  147.6680 C   0  0  0  0  0  3  0  0  0  0  0  0
  157.5940  213.2240  147.0720 C   0  0  0  0  0  0  0  0  0  0  0  0
  156.2130  213.7400  148.9920 C   0  0  0  0  0  3  0  0  0  0  0  0
  159.9440  212.4810  157.1760 C   0  0  0  0  0  1  0  0  0  0  0  0
  158.6430  211.7040  157.2610 C   0  0  0  0  0  2  0  0  0  0  0  0
  1  4  1  0  0  0  0
  2 14  1  0  0  0  0
  2 24  1  0  0  0  0
  3  9  2  0  0  0  0
  3  7  1  0  0  0  0
  4 37  1  1  0  0  0
  5 25  1  0  0  0  0
  5 19  1  1  0  0  0
  6 11  1  1  0  0  0
  6  9  1  0  0  0  0
  6 22  1  0  0  0  0
  7 21  2  0  0  0  0
  8 12  1  0  0  0  0
  8 26  2  0  0  0  0
  9 13  1  0  0  0  0
 10  7  1  6  0  0  0
 10  5  1  0  0  0  0
 12  4  1  0  0  0  0
 13 21  1  0  0  0  0
 13 17  1  0  0  0  0
 15 28  1  0  0  0  0
 16 20  1  0  0  0  0
 16 11  1  0  0  0  0
 17  2  1  0  0  0  0
 18  8  1  0  0  0  0
 20 15  1  6  0  0  0
 20  3  1  0  0  0  0
 21 27  1  0  0  0  0
 22  2  1  0  0  0  0
 23 30  1  6  0  0  0
 23 10  1  0  0  0  0
 25 27  1  0  0  0  0
 25 19  1  0  0  0  0
 25 18  1  1  0  0  0
 27  1  1  1  0  0  0
 28 23  1  0  0  0  0
 30 29  1  0  0  0  0
 31 30  2  0  0  0  0
 32 34  1  0  0  0  0
 33 35  1  0  0  0  0
 34 33  2  0  0  0  0
 34 31  1  0  0  0  0
 35 29  2  0  0  0  0
 36 37  1  0  0  0  0
M  END
>  <MODEL>
1

>  <REMARK>
 VINA RESULT:      -0.9      0.000      0.000
  Name = 
  2 active torsions:
  status: ('A' for Active; 'I' for Inactive)
    1  A    between atoms: C_4  and  C_37
    2  A    between atoms: C_23  and  C_30
                            x       y       z     vdW  Elec       q    Type
                         _______ _______ _______ _____ _____    ______ ____

>  <TORSDO>
F 2

$$$$
=
 OpenBabel11122413443D

 37 44  0  0  1  0  0  0  0  0999 V2000
  161.0020  208.5910  154.4520 C   0  0  0  0  0  2  0  0  0  0  0  0
  161.4210  205.6240  151.5970 C   0  0  0  0  0  0  0  0  0  0  0  0
  161.4210  209.3840  150.0330 C   0  0  0  0  0  0  0  0  0  0  0  0
  160.2170  208.1930  155.7090 C   0  0  2  0  0  3  0  0  0  0  0  0
  160.7830  211.9330  152.9040 C   0  0  2  0  0  3  0  0  0  0  0  0
  161.4560  206.9510  149.3320 C   0  0  1  0  0  3  0  0  0  0  0  0
  161.0630  210.0610  151.1880 C   0  0  0  0  0  0  0  0  0  0  0  0
  159.5540  210.5410  156.1850 C   0  0  0  0  0  0  0  0  0  0  0  0
  161.0670  208.0730  150.2380 C   0  0  0  0  0  0  0  0  0  0  0  0
  161.4040  211.4700  151.5730 C   0  0  1  0  0  3  0  0  0  0  0  0
  162.7420  207.3160  148.5850 C   0  0  0  0  0  2  0  0  0  0  0  0
  159.2640  209.1770  156.1260 O   0  0  0  0  0  0  0  0  0  0  0  0
  160.5430  207.9030  151.4570 N   0  0  0  0  0  0  0  0  0  0  0  0
  162.7490  206.0210  152.2190 C   0  0  0  0  0  1  0  0  0  0  0  0
  161.8260  211.0540  148.2520 C   0  0  0  0  0  2  0  0  0  0  0  0
  162.5850  208.6960  147.9200 C   0  0  0  0  0  2  0  0  0  0  0  0
  160.3200  206.5920  152.0530 C   0  0  0  0  0  2  0  0  0  0  0  0
  159.3530  211.3930  154.9730 C   0  0  0  0  0  2  0  0  0  0  0  0
  161.5330  211.3690  153.9580 O   0  0  0  0  0  0  0  0  0  0  0  0
  162.3660  209.8200  148.9520 C   0  0  2  0  0  3  0  0  0  0  0  0
  160.5450  209.1150  152.0510 C   0  0  0  0  0  0  0  0  0  0  0  0
  161.5570  205.5920  150.0580 C   0  0  0  0  0  2  0  0  0  0  0  0
  161.1080  212.5000  150.4750 C   0  0  1  0  0  3  0  0  0  0  0  0
  161.0700  204.2320  152.0770 C   0  0  0  0  0  1  0  0  0  0  0  0
  160.2140  210.8940  153.8230 C   0  0  2  0  0  0  0  0  0  0  0  0
  159.9510  211.0580  157.2610 O   0  0  0  0  0  0  0  0  0  0  0  0
  160.1570  209.3920  153.4670 C   0  0  2  0  0  3  0  0  0  0  0  0
  162.3450  212.5660  149.1250 S   0  0  0  0  0  0  0  0  0  0  0  0
  158.6850  212.7750  151.0180 C   0  0  0  0  0  3  0  0  0  0  0  0
  159.6760  212.6410  150.0400 C   0  0  0  0  0  0  0  0  0  0  0  0
  159.3130  212.6440  148.6860 C   0  0  0  0  0  3  0  0  0  0  0  0
  157.5330  212.7710  146.6220 Cl  0  0  0  0  0  0  0  0  0  0  0  0
  156.9870  212.9040  149.2960 C   0  0  0  0  0  3  0  0  0  0  0  0
  157.9730  212.7740  148.3140 C   0  0  0  0  0  0  0  0  0  0  0  0
  157.3420  212.9050  150.6480 C   0  0  0  0  0  3  0  0  0  0  0  0
  162.3220  208.8470  156.8760 C   0  0  0  0  0  1  0  0  0  0  0  0
  161.1670  207.8640  156.8500 C   0  0  0  0  0  2  0  0  0  0  0  0
  1  4  1  0  0  0  0
  2 17  1  0  0  0  0
  2 24  1  0  0  0  0
  2 14  1  0  0  0  0
  3  9  2  0  0  0  0
  3  7  1  0  0  0  0
  4 12  1  0  0  0  0
  4 37  1  1  0  0  0
  5 25  1  0  0  0  0
  5 19  1  1  0  0  0
  6 11  1  1  0  0  0
  6 22  1  0  0  0  0
  6  9  1  0  0  0  0
  7 21  2  0  0  0  0
  8 26  2  0  0  0  0
  9 13  1  0  0  0  0
 10  7  1  6  0  0  0
 10  5  1  0  0  0  0
 12  8  1  0  0  0  0
 13 21  1  0  0  0  0
 13 17  1  0  0  0  0
 15 20  1  0  0  0  0
 15 28  1  0  0  0  0
 16 11  1  0  0  0  0
 18  8  1  0  0  0  0
 20 16  1  6  0  0  0
 20  3  1  0  0  0  0
 21 27  1  0  0  0  0
 22  2  1  0  0  0  0
 23 30  1  6  0  0  0
 23 10  1  0  0  0  0
 25 19  1  0  0  0  0
 25 18  1  1  0  0  0
 27 25  1  0  0  0  0
 27  1  1  1  0  0  0
 28 23  1  0  0  0  0
 30 29  2  0  0  0  0
 31 30  1  0  0  0  0
 32 34  1  0  0  0  0
 33 35  2  0  0  0  0
 34 31  2  0  0  0  0
 34 33  1  0  0  0  0
 35 29  1  0  0  0  0
 37 36  1  0  0  0  0
M  END
>  <MODEL>
2

>  <REMARK>
 VINA RESULT:      -0.9      2.100      3.005
  Name = 
  2 active torsions:
  status: ('A' for Active; 'I' for Inactive)
    1  A    between atoms: C_4  and  C_37
    2  A    between atoms: C_23  and  C_30
                            x       y       z     vdW  Elec       q    Type
                         _______ _______ _______ _____ _____    ______ ____

>  <TORSDO>
F 2

$$$$
=
 OpenBabel11122413443D

 37 44  0  0  1  0  0  0  0  0999 V2000
  160.4840  212.7760  150.5550 C   0  0  0  0  0  2  0  0  0  0  0  0
  157.0910  213.4700  152.8220 C   0  0  0  0  0  0  0  0  0  0  0  0
  159.5710  210.6730  154.4380 C   0  0  0  0  0  0  0  0  0  0  0  0
  160.3290  213.0040  149.0450 C   0  0  2  0  0  3  0  0  0  0  0  0
  162.5350  210.0670  151.9910 C   0  0  2  0  0  3  0  0  0  0  0  0
  157.3070  211.7510  154.7940 C   0  0  1  0  0  3  0  0  0  0  0  0
  160.4360  210.5530  153.3610 C   0  0  0  0  0  0  0  0  0  0  0  0
  162.1770  211.4340  148.4960 C   0  0  0  0  0  0  0  0  0  0  0  0
  158.4270  211.2500  153.9420 C   0  0  0  0  0  0  0  0  0  0  0  0
  161.8860  210.1730  153.3830 C   0  0  1  0  0  3  0  0  0  0  0  0
  157.8410  212.1170  156.1820 C   0  0  0  0  0  2  0  0  0  0  0  0
  160.9120  211.9700  148.2450 O   0  0  0  0  0  0  0  0  0  0  0  0
  158.5520  211.5170  152.6370 N   0  0  0  0  0  0  0  0  0  0  0  0
  158.2070  214.4530  153.1340 C   0  0  0  0  0  1  0  0  0  0  0  0
  160.4110  209.2350  156.2680 C   0  0  0  0  0  2  0  0  0  0  0  0
  158.6520  210.9410  156.7560 C   0  0  0  0  0  2  0  0  0  0  0  0
  157.6160  212.3580  151.9020 C   0  0  0  0  0  2  0  0  0  0  0  0
  162.3190  210.2820  149.4360 C   0  0  0  0  0  2  0  0  0  0  0  0
  162.7940  211.3740  151.5250 O   0  0  0  0  0  0  0  0  0  0  0  0
  159.8920  210.6140  155.9030 C   0  0  2  0  0  3  0  0  0  0  0  0
  159.7840  211.1020  152.2730 C   0  0  0  0  0  0  0  0  0  0  0  0
  156.5160  212.9040  154.1400 C   0  0  0  0  0  2  0  0  0  0  0  0
  162.1810  208.9030  154.1930 C   0  0  1  0  0  3  0  0  0  0  0  0
  155.9910  214.2160  152.0980 C   0  0  0  0  0  1  0  0  0  0  0  0
  161.8090  210.6560  150.8200 C   0  0  2  0  0  0  0  0  0  0  0  0
  163.1880  211.8980  147.9100 O   0  0  0  0  0  0  0  0  0  0  0  0
  160.4100  211.3000  150.9310 C   0  0  2  0  0  3  0  0  0  0  0  0
  162.2120  209.1370  156.0100 S   0  0  0  0  0  0  0  0  0  0  0  0
  160.9600  206.7750  154.6660 C   0  0  0  0  0  3  0  0  0  0  0  0
  161.5390  207.6290  153.7210 C   0  0  0  0  0  0  0  0  0  0  0  0
  161.5060  207.2780  152.3640 C   0  0  0  0  0  3  0  0  0  0  0  0
  160.8750  205.6570  150.2610 Cl  0  0  0  0  0  0  0  0  0  0  0  0
  160.3300  205.2350  152.9060 C   0  0  0  0  0  3  0  0  0  0  0  0
  160.9050  206.0860  151.9570 C   0  0  0  0  0  0  0  0  0  0  0  0
  160.3570  205.5790  154.2610 C   0  0  0  0  0  3  0  0  0  0  0  0
  161.0380  214.4530  147.1420 C   0  0  0  0  0  1  0  0  0  0  0  0
  160.8960  214.3580  148.6490 C   0  0  0  0  0  2  0  0  0  0  0  0
  2 14  1  0  0  0  0
  2 22  1  0  0  0  0
  3 20  1  0  0  0  0
  4 37  1  6  0  0  0
  4  1  1  0  0  0  0
  5 19  1  1  0  0  0
  5 10  1  0  0  0  0
  6 22  1  6  0  0  0
  6 11  1  0  0  0  0
  7  3  1  0  0  0  0
  8 18  1  0  0  0  0
  9  3  2  0  0  0  0
  9  6  1  0  0  0  0
 10  7  1  6  0  0  0
 10 23  1  0  0  0  0
 11 16  1  0  0  0  0
 12  8  1  0  0  0  0
 12  4  1  0  0  0  0
 13  9  1  0  0  0  0
 17 13  1  0  0  0  0
 17  2  1  0  0  0  0
 20 15  1  1  0  0  0
 20 16  1  0  0  0  0
 21 13  1  0  0  0  0
 21  7  2  0  0  0  0
 23 30  1  1  0  0  0
 23 28  1  0  0  0  0
 24  2  1  0  0  0  0
 25 18  1  6  0  0  0
 25 27  1  0  0  0  0
 25 19  1  0  0  0  0
 25  5  1  0  0  0  0
 26  8  2  0  0  0  0
 27  1  1  1  0  0  0
 27 21  1  0  0  0  0
 28 15  1  0  0  0  0
 30 29  2  0  0  0  0
 31 30  1  0  0  0  0
 32 34  1  0  0  0  0
 33 35  2  0  0  0  0
 34 31  2  0  0  0  0
 34 33  1  0  0  0  0
 35 29  1  0  0  0  0
 36 37  1  0  0  0  0
M  END
>  <MODEL>
3

>  <REMARK>
 VINA RESULT:      -0.8      3.289      7.421
  Name = 
  2 active torsions:
  status: ('A' for Active; 'I' for Inactive)
    1  A    between atoms: C_4  and  C_37
    2  A    between atoms: C_23  and  C_30
                            x       y       z     vdW  Elec       q    Type
                         _______ _______ _______ _____ _____    ______ ____

>  <TORSDO>
F 2

$$$$
=
 OpenBabel11122413443D

 37 44  0  0  1  0  0  0  0  0999 V2000
  160.7480  210.6180  149.2990 C   0  0  0  0  0  2  0  0  0  0  0  0
  162.1100  206.7150  149.0680 C   0  0  0  0  0  0  0  0  0  0  0  0
  161.1990  207.8890  152.8600 C   0  0  0  0  0  0  0  0  0  0  0  0
  161.2830  211.5690  148.2190 C   0  0  2  0  0  3  0  0  0  0  0  0
  160.1770  211.6430  152.7960 C   0  0  2  0  0  3  0  0  0  0  0  0
  162.1840  205.9410  151.5750 C   0  0  1  0  0  3  0  0  0  0  0  0
  161.0000  209.2340  152.5910 C   0  0  0  0  0  0  0  0  0  0  0  0
  160.9510  213.5740  149.6520 C   0  0  0  0  0  0  0  0  0  0  0  0
  161.9220  207.3940  151.8020 C   0  0  0  0  0  0  0  0  0  0  0  0
  160.1070  210.1960  153.3170 C   0  0  1  0  0  3  0  0  0  0  0  0
  161.0820  205.1110  152.2370 C   0  0  0  0  0  2  0  0  0  0  0  0
  161.7000  212.8400  148.7300 O   0  0  0  0  0  0  0  0  0  0  0  0
  162.1500  208.3470  150.8900 N   0  0  0  0  0  0  0  0  0  0  0  0
  160.6160  206.8240  148.8130 C   0  0  0  0  0  1  0  0  0  0  0  0
  160.6990  207.4960  155.2510 C   0  0  0  0  0  2  0  0  0  0  0  0
  160.9110  205.5450  153.7050 C   0  0  0  0  0  2  0  0  0  0  0  0
  162.6570  208.0660  149.5530 C   0  0  0  0  0  2  0  0  0  0  0  0
  161.1400  213.3360  151.1150 C   0  0  0  0  0  2  0  0  0  0  0  0
  159.4310  211.7160  151.6000 O   0  0  0  0  0  0  0  0  0  0  0  0
  160.4630  207.0140  153.8320 C   0  0  2  0  0  3  0  0  0  0  0  0
  161.5800  209.4760  151.3600 C   0  0  0  0  0  0  0  0  0  0  0  0
  162.3810  205.5850  150.0860 C   0  0  0  0  0  2  0  0  0  0  0  0
  160.2930  210.1820  154.8400 C   0  0  1  0  0  3  0  0  0  0  0  0
  162.7890  206.3610  147.7630 C   0  0  0  0  0  1  0  0  0  0  0  0
  160.8210  211.8910  151.4650 C   0  0  2  0  0  0  0  0  0  0  0  0
  160.1440  214.4530  149.2550 O   0  0  0  0  0  0  0  0  0  0  0  0
  161.4820  210.7740  150.6270 C   0  0  2  0  0  3  0  0  0  0  0  0
  159.4880  208.7800  155.7020 S   0  0  0  0  0  0  0  0  0  0  0  0
  161.7990  210.7910  156.7390 C   0  0  0  0  0  3  0  0  0  0  0  0
  161.6480  210.5670  155.3660 C   0  0  0  0  0  0  0  0  0  0  0  0
  162.7560  210.7030  154.5190 C   0  0  0  0  0  3  0  0  0  0  0  0
  165.3750  211.2360  153.9690 Cl  0  0  0  0  0  0  0  0  0  0  0  0
  164.1460  211.2910  156.4100 C   0  0  0  0  0  3  0  0  0  0  0  0
  164.0010  211.0640  155.0380 C   0  0  0  0  0  0  0  0  0  0  0  0
  163.0460  211.1540  157.2610 C   0  0  0  0  0  3  0  0  0  0  0  0
  160.7620  212.7370  146.0770 C   0  0  0  0  0  1  0  0  0  0  0  0
  160.2520  211.7580  147.1170 C   0  0  0  0  0  2  0  0  0  0  0  0
  2 17  1  0  0  0  0
  2 22  1  0  0  0  0
  3 20  1  0  0  0  0
  4 37  1  6  0  0  0
  4 12  1  0  0  0  0
  4  1  1  0  0  0  0
  5 19  1  6  0  0  0
  5 10  1  0  0  0  0
  6 22  1  6  0  0  0
  6  9  1  0  0  0  0
  6 11  1  0  0  0  0
  7  3  1  0  0  0  0
  8 18  1  0  0  0  0
  9  3  2  0  0  0  0
 10  7  1  6  0  0  0
 10 23  1  0  0  0  0
 11 16  1  0  0  0  0
 12  8  1  0  0  0  0
 13 21  1  0  0  0  0
 13  9  1  0  0  0  0
 14  2  1  0  0  0  0
 15 28  1  0  0  0  0
 17 13  1  0  0  0  0
 20 16  1  1  0  0  0
 20 15  1  0  0  0  0
 21  7  2  0  0  0  0
 23 30  1  6  0  0  0
 23 28  1  0  0  0  0
 24  2  1  0  0  0  0
 25 18  1  6  0  0  0
 25 19  1  0  0  0  0
 25  5  1  0  0  0  0
 26  8  2  0  0  0  0
 27  1  1  6  0  0  0
 27 21  1  0  0  0  0
 27 25  1  0  0  0  0
 29 35  1  0  0  0  0
 30 29  2  0  0  0  0
 31 34  2  0  0  0  0
 31 30  1  0  0  0  0
 32 34  1  0  0  0  0
 33 35  2  0  0  0  0
 34 33  1  0  0  0  0
 36 37  1  0  0  0  0
M  END
>  <MODEL>
4

>  <REMARK>
 VINA RESULT:      -0.2      3.600      7.053
  Name = 
  2 active torsions:
  status: ('A' for Active; 'I' for Inactive)
    1  A    between atoms: C_4  and  C_37
    2  A    between atoms: C_23  and  C_30
                            x       y       z     vdW  Elec       q    Type
                         _______ _______ _______ _____ _____    ______ ____

>  <TORSDO>
F 2

$$$$
=
 OpenBabel11122413443D

 37 44  0  0  1  0  0  0  0  0999 V2000
  161.0540  211.2940  150.1520 C   0  0  0  0  0  2  0  0  0  0  0  0
  157.8960  213.6380  151.4430 C   0  0  0  0  0  0  0  0  0  0  0  0
  159.9710  211.9020  154.4870 C   0  0  0  0  0  0  0  0  0  0  0  0
  160.8790  210.6530  148.7680 C   0  0  2  0  0  3  0  0  0  0  0  0
  162.7120  209.5910  152.9730 C   0  0  2  0  0  3  0  0  0  0  0  0
  157.9160  213.3160  154.0480 C   0  0  1  0  0  3  0  0  0  0  0  0
  160.7650  211.0700  153.7140 C   0  0  0  0  0  0  0  0  0  0  0  0
  162.4390  208.7920  149.2990 C   0  0  0  0  0  0  0  0  0  0  0  0
  158.9120  212.2630  153.6890 C   0  0  0  0  0  0  0  0  0  0  0  0
  162.1400  210.5570  154.0270 C   0  0  1  0  0  3  0  0  0  0  0  0
  158.5520  214.3150  155.0190 C   0  0  0  0  0  2  0  0  0  0  0  0
  161.2640  209.2750  148.7200 O   0  0  0  0  0  0  0  0  0  0  0  0
  159.0280  211.7280  152.4680 N   0  0  0  0  0  0  0  0  0  0  0  0
  159.1620  214.4470  151.2130 C   0  0  0  0  0  1  0  0  0  0  0  0
  160.6460  211.6360  156.8520 C   0  0  0  0  0  2  0  0  0  0  0  0
  159.1920  213.5600  156.2000 C   0  0  0  0  0  2  0  0  0  0  0  0
  158.2070  212.1390  151.3360 C   0  0  0  0  0  2  0  0  0  0  0  0
  162.4360  208.3620  150.7300 C   0  0  0  0  0  2  0  0  0  0  0  0
  163.1520  210.3540  151.8700 O   0  0  0  0  0  0  0  0  0  0  0  0
  160.3340  212.6290  155.7480 C   0  0  2  0  0  3  0  0  0  0  0  0
  160.1670  211.0020  152.4700 C   0  0  0  0  0  0  0  0  0  0  0  0
  157.2900  214.0040  152.8160 C   0  0  0  0  0  2  0  0  0  0  0  0
  162.2640  209.9360  155.4250 C   0  0  1  0  0  3  0  0  0  0  0  0
  156.8990  214.0020  150.3640 C   0  0  0  0  0  1  0  0  0  0  0  0
  162.0430  209.5200  151.6340 C   0  0  2  0  0  0  0  0  0  0  0  0
  163.4880  208.6890  148.6120 O   0  0  0  0  0  0  0  0  0  0  0  0
  160.7650  210.3150  151.2860 C   0  0  2  0  0  3  0  0  0  0  0  0
  162.3980  211.1430  156.7960 S   0  0  0  0  0  0  0  0  0  0  0  0
  160.7870  208.6280  156.9590 C   0  0  0  0  0  3  0  0  0  0  0  0
  161.4150  208.7290  155.7130 C   0  0  0  0  0  0  0  0  0  0  0  0
  161.2370  207.7100  154.7670 C   0  0  0  0  0  3  0  0  0  0  0  0
  160.2350  205.3320  153.8790 Cl  0  0  0  0  0  0  0  0  0  0  0  0
  159.8220  206.5030  156.3140 C   0  0  0  0  0  3  0  0  0  0  0  0
  160.4440  206.6000  155.0660 C   0  0  0  0  0  0  0  0  0  0  0  0
  159.9920  207.5170  157.2600 C   0  0  0  0  0  3  0  0  0  0  0  0
  162.5670  212.4470  148.3720 C   0  0  0  0  0  1  0  0  0  0  0  0
  161.6350  211.4480  147.7140 C   0  0  0  0  0  2  0  0  0  0  0  0
  2 22  1  0  0  0  0
  3 20  1  0  0  0  0
  4 37  1  6  0  0  0
  4  1  1  0  0  0  0
  5 19  1  6  0  0  0
  5 10  1  0  0  0  0
  6 22  1  6  0  0  0
  6 11  1  0  0  0  0
  7  3  1  0  0  0  0
  8 18  1  0  0  0  0
  9  6  1  0  0  0  0
  9  3  2  0  0  0  0
 10  7  1  6  0  0  0
 10 23  1  0  0  0  0
 11 16  1  0  0  0  0
 12  4  1  0  0  0  0
 12  8  1  0  0  0  0
 13 21  1  0  0  0  0
 13  9  1  0  0  0  0
 14  2  1  0  0  0  0
 17  2  1  0  0  0  0
 17 13  1  0  0  0  0
 20 16  1  1  0  0  0
 20 15  1  0  0  0  0
 21  7  2  0  0  0  0
 23 30  1  1  0  0  0
 23 28  1  0  0  0  0
 24  2  1  0  0  0  0
 25 18  1  6  0  0  0
 25 19  1  0  0  0  0
 25  5  1  0  0  0  0
 26  8  2  0  0  0  0
 27  1  1  6  0  0  0
 27 25  1  0  0  0  0
 27 21  1  0  0  0  0
 28 15  1  0  0  0  0
 29 35  1  0  0  0  0
 30 29  2  0  0  0  0
 31 34  2  0  0  0  0
 31 30  1  0  0  0  0
 32 34  1  0  0  0  0
 33 35  2  0  0  0  0
 34 33  1  0  0  0  0
 37 36  1  0  0  0  0
M  END
>  <MODEL>
5

>  <REMARK>
 VINA RESULT:       1.0      3.523      7.773
  Name = 
  2 active torsions:
  status: ('A' for Active; 'I' for Inactive)
    1  A    between atoms: C_4  and  C_37
    2  A    between atoms: C_23  and  C_30
                            x       y       z     vdW  Elec       q    Type
                         _______ _______ _______ _____ _____    ______ ____

>  <TORSDO>
F 2

$$$$
=
 OpenBabel11122413443D

 37 44  0  0  1  0  0  0  0  0999 V2000
  160.6600  210.8780  149.9560 C   0  0  0  0  0  2  0  0  0  0  0  0
  162.3360  207.3010  151.1920 C   0  0  0  0  0  0  0  0  0  0  0  0
  160.1270  209.1350  154.0800 C   0  0  0  0  0  0  0  0  0  0  0  0
  161.4420  211.6360  148.8740 C   0  0  2  0  0  3  0  0  0  0  0  0
  158.8810  212.5590  152.7160 C   0  0  2  0  0  3  0  0  0  0  0  0
  161.6390  207.1360  153.7180 C   0  0  1  0  0  3  0  0  0  0  0  0
  159.9200  210.3340  153.4160 C   0  0  0  0  0  0  0  0  0  0  0  0
  160.4910  213.8300  149.5530 C   0  0  0  0  0  0  0  0  0  0  0  0
  161.1980  208.5390  153.4590 C   0  0  0  0  0  0  0  0  0  0  0  0
  158.7610  211.2760  153.5580 C   0  0  1  0  0  3  0  0  0  0  0  0
  160.4510  206.3070  154.2150 C   0  0  0  0  0  2  0  0  0  0  0  0
  161.5610  213.0400  149.1280 O   0  0  0  0  0  0  0  0  0  0  0  0
  161.6370  209.2860  152.4390 N   0  0  0  0  0  0  0  0  0  0  0  0
  161.0070  207.1030  150.4820 C   0  0  0  0  0  1  0  0  0  0  0  0
  158.8980  209.2160  156.2260 C   0  0  0  0  0  2  0  0  0  0  0  0
  159.7690  207.0280  155.3930 C   0  0  0  0  0  2  0  0  0  0  0  0
  162.5790  208.7970  151.4400 C   0  0  0  0  0  2  0  0  0  0  0  0
  160.2040  213.9630  151.0130 C   0  0  0  0  0  2  0  0  0  0  0  0
  158.5690  212.2380  151.3770 O   0  0  0  0  0  0  0  0  0  0  0  0
  159.1860  208.3940  154.9830 C   0  0  2  0  0  3  0  0  0  0  0  0
  160.8530  210.3840  152.3980 C   0  0  0  0  0  0  0  0  0  0  0  0
  162.3470  206.4900  152.5070 C   0  0  0  0  0  2  0  0  0  0  0  0
  158.4320  211.6370  155.0130 C   0  0  1  0  0  3  0  0  0  0  0  0
  163.4360  206.7760  150.2940 C   0  0  0  0  0  1  0  0  0  0  0  0
  159.9070  212.6020  151.6240 C   0  0  2  0  0  0  0  0  0  0  0  0
  159.7920  214.4530  148.7130 O   0  0  0  0  0  0  0  0  0  0  0  0
  160.8970  211.4480  151.3510 C   0  0  2  0  0  3  0  0  0  0  0  0
  157.5050  210.3540  155.9350 S   0  0  0  0  0  0  0  0  0  0  0  0
  159.2730  213.6650  156.2060 C   0  0  0  0  0  3  0  0  0  0  0  0
  159.5000  212.3460  155.7980 C   0  0  0  0  0  0  0  0  0  0  0  0
  160.7100  211.7200  156.1290 C   0  0  0  0  0  3  0  0  0  0  0  0
  163.1910  211.6170  157.2610 Cl  0  0  0  0  0  0  0  0  0  0  0  0
  161.4520  213.7260  157.2610 C   0  0  0  0  0  3  0  0  0  0  0  0
  161.6830  212.4080  156.8580 C   0  0  0  0  0  0  0  0  0  0  0  0
  160.2470  214.3550  156.9360 C   0  0  0  0  0  3  0  0  0  0  0  0
  161.3000  212.4490  146.5200 C   0  0  0  0  0  1  0  0  0  0  0  0
  160.8230  211.3990  147.5050 C   0  0  0  0  0  2  0  0  0  0  0  0
  2 17  1  0  0  0  0
  2 22  1  0  0  0  0
  3 20  1  0  0  0  0
  4 37  1  6  0  0  0
  4 12  1  0  0  0  0
  4  1  1  0  0  0  0
  5 19  1  6  0  0  0
  5 10  1  0  0  0  0
  6 22  1  6  0  0  0
  6 11  1  0  0  0  0
  7  3  1  0  0  0  0
  8 18  1  0  0  0  0
  9  6  1  0  0  0  0
  9  3  2  0  0  0  0
 10  7  1  1  0  0  0
 10 23  1  0  0  0  0
 11 16  1  0  0  0  0
 12  8  1  0  0  0  0
 13  9  1  0  0  0  0
 14  2  1  0  0  0  0
 17 13  1  0  0  0  0
 19 25  1  0  0  0  0
 20 16  1  1  0  0  0
 20 15  1  0  0  0  0
 21 13  1  0  0  0  0
 21  7  2  0  0  0  0
 23 30  1  1  0  0  0
 23 28  1  0  0  0  0
 24  2  1  0  0  0  0
 25 18  1  6  0  0  0
 25  5  1  0  0  0  0
 26  8  2  0  0  0  0
 27  1  1  6  0  0  0
 27 25  1  0  0  0  0
 27 21  1  0  0  0  0
 28 15  1  0  0  0  0
 29 35  1  0  0  0  0
 30 31  1  0  0  0  0
 30 29  2  0  0  0  0
 31 34  2  0  0  0  0
 34 32  1  0  0  0  0
 34 33  1  0  0  0  0
 35 33  2  0  0  0  0
 36 37  1  0  0  0  0
M  END
>  <MODEL>
6

>  <REMARK>
 VINA RESULT:       1.2      3.435      6.662
  Name = 
  2 active torsions:
  status: ('A' for Active; 'I' for Inactive)
    1  A    between atoms: C_4  and  C_37
    2  A    between atoms: C_23  and  C_30
                            x       y       z     vdW  Elec       q    Type
                         _______ _______ _______ _____ _____    ______ ____

>  <TORSDO>
F 2

$$$$
