=
 OpenBabel11122414003D

 37 41  0  0  1  0  0  0  0  0999 V2000
  161.9290  205.4500  151.1470 C   0  0  1  0  0  3  0  0  0  0  0  0
  161.6110  205.3040  147.4530 O   0  0  0  0  0  0  0  0  0  0  0  0
  161.8430  207.2770  152.9040 C   0  0  2  0  0  3  0  0  0  0  0  0
  161.5150  205.9920  149.8320 C   0  0  2  0  0  3  0  0  0  0  0  0
  162.6390  206.6350  151.7530 C   0  0  2  0  0  3  0  0  0  0  0  0
  161.6510  204.8610  148.7940 C   0  0  1  0  0  3  0  0  0  0  0  0
  161.2940  206.2130  153.8720 C   0  0  0  0  0  2  0  0  0  0  0  0
  162.9170  207.5790  150.7420 O   0  0  0  0  0  0  0  0  0  0  0  0
  160.3300  203.7160  151.4580 C   0  0  0  0  0  2  0  0  0  0  0  0
  161.1570  204.8870  153.2550 N   0  0  0  0  0  2  0  0  0  0  0  0
  159.9780  206.9610  147.7820 O   0  0  0  0  0  0  0  0  0  0  0  0
  160.3120  205.7600  147.1260 C   0  0  0  0  0  2  0  0  0  0  0  0
  160.7470  205.0400  151.9170 N   0  0  1  0  0  0  0  0  0  0  0  0
  162.4130  207.1140  149.5500 N   0  0  2  0  0  0  0  0  0  0  0  0
  160.7540  203.7120  149.0350 N   0  0  0  0  0  0  0  0  0  0  0  0
  161.0420  207.8530  147.5940 C   0  0  0  0  0  2  0  0  0  0  0  0
  161.6560  208.2310  148.9460 C   0  0  2  0  0  3  0  0  0  0  0  0
  159.7080  203.7860  150.0630 C   0  0  0  0  0  2  0  0  0  0  0  0
  161.6780  201.4140  149.0170 C   0  0  0  0  0  3  0  0  0  0  0  0
  160.9950  202.4560  148.3660 C   0  0  0  0  0  0  0  0  0  0  0  0
  160.5500  202.2500  147.0490 C   0  0  0  0  0  3  0  0  0  0  0  0
  160.2190  200.7990  144.7590 Cl  0  0  0  0  0  0  0  0  0  0  0  0
  161.4630  200.0090  147.0590 C   0  0  0  0  0  3  0  0  0  0  0  0
  160.7820  201.0350  146.3990 C   0  0  0  0  0  0  0  0  0  0  0  0
  161.9110  200.1980  148.3670 C   0  0  0  0  0  3  0  0  0  0  0  0
  162.5950  209.4350  148.7310 C   0  0  0  0  0  2  0  0  0  0  0  0
  161.9550  210.7540  148.8610 N   0  0  0  0  0  0  0  0  0  0  0  0
  160.8520  212.1660  150.4270 N   0  0  0  0  0  1  0  0  0  0  0  0
  161.8750  211.1490  150.2620 C   0  0  0  0  0  2  0  0  0  0  0  0
  162.7200  211.7640  148.1420 C   0  0  0  0  0  2  0  0  0  0  0  0
  161.8120  212.5370  147.2010 C   0  0  0  0  0  2  0  0  0  0  0  0
  160.6090  211.8510  147.0290 O   0  0  0  0  0  1  0  0  0  0  0  0
  160.7740  208.0420  152.3990 O   0  0  0  0  0  0  0  0  0  0  0  0
  160.6840  209.2240  153.1600 C   0  0  0  0  0  0  0  0  0  0  0  0
  160.2320  208.9550  154.4430 F   0  0  0  0  0  0  0  0  0  0  0  0
  161.9100  209.8670  153.2210 F   0  0  0  0  0  0  0  0  0  0  0  0
  159.7750  210.0700  152.5530 F   0  0  0  0  0  0  0  0  0  0  0  0
  1  5  1  0  0  0  0
  1 13  1  0  0  0  0
  2  6  1  0  0  0  0
  3  7  1  0  0  0  0
  4  1  1  0  0  0  0
  5  3  1  0  0  0  0
  6 15  1  0  0  0  0
  6  4  1  0  0  0  0
  8  5  1  0  0  0  0
  9 13  1  0  0  0  0
 10  7  1  0  0  0  0
 12  2  1  0  0  0  0
 12 11  1  0  0  0  0
 13 10  1  0  0  0  0
 14  4  1  0  0  0  0
 14  8  1  0  0  0  0
 15 18  1  0  0  0  0
 16 11  1  0  0  0  0
 16 17  1  0  0  0  0
 17 14  1  0  0  0  0
 18  9  1  0  0  0  0
 20 19  2  0  0  0  0
 20 15  1  0  0  0  0
 21 20  1  0  0  0  0
 22 24  1  0  0  0  0
 23 25  2  0  0  0  0
 24 21  2  0  0  0  0
 24 23  1  0  0  0  0
 25 19  1  0  0  0  0
 26 27  1  0  0  0  0
 26 17  1  0  0  0  0
 27 29  1  0  0  0  0
 29 28  1  0  0  0  0
 30 27  1  0  0  0  0
 31 30  1  0  0  0  0
 32 31  1  0  0  0  0
 33  3  1  0  0  0  0
 33 34  1  0  0  0  0
 34 36  1  0  0  0  0
 34 35  1  0  0  0  0
 37 34  1  0  0  0  0
M  END
>  <MODEL>
1

>  <REMARK>
 VINA RESULT:      -4.9      0.000      0.000
  Name = 
  8 active torsions:
  status: ('A' for Active; 'I' for Inactive)
    1  A    between atoms: C_1  and  N_4
    2  A    between atoms: C_1  and  C_27
    3  A    between atoms: C_2  and  O_22
    4  A    between atoms: N_4  and  C_12
    5  A    between atoms: N_4  and  C_37
    6  A    between atoms: C_6  and  O_22
    7  A    between atoms: C_8  and  C_12
    8  A    between atoms: N_23  and  C_30
                            x       y       z     vdW  Elec       q    Type
                         _______ _______ _______ _____ _____    ______ ____

>  <TORSDO>
F 8

$$$$
=
 OpenBabel11122414003D

 37 41  0  0  1  0  0  0  0  0999 V2000
  160.3110  205.1890  151.2360 C   0  0  1  0  0  3  0  0  0  0  0  0
  161.2370  208.6390  150.2330 O   0  0  0  0  0  0  0  0  0  0  0  0
  160.4500  202.8910  150.1720 C   0  0  2  0  0  3  0  0  0  0  0  0
  161.0480  206.1750  150.4120 C   0  0  2  0  0  3  0  0  0  0  0  0
  159.7560  204.2650  150.1800 C   0  0  2  0  0  3  0  0  0  0  0  0
  160.8730  207.5580  151.0670 C   0  0  1  0  0  3  0  0  0  0  0  0
  160.5960  202.3260  151.5970 C   0  0  0  0  0  2  0  0  0  0  0  0
  159.8550  204.8890  148.9180 O   0  0  0  0  0  0  0  0  0  0  0  0
  161.4500  205.3760  153.3160 C   0  0  0  0  0  2  0  0  0  0  0  0
  160.5710  203.3640  152.6350 N   0  0  0  0  0  2  0  0  0  0  0  0
  163.0850  207.5820  149.2380 O   0  0  0  0  0  0  0  0  0  0  0  0
  162.6370  208.6560  150.0330 C   0  0  0  0  0  2  0  0  0  0  0  0
  161.2320  204.5110  152.1580 N   0  0  1  0  0  0  0  0  0  0  0  0
  160.4580  206.1150  149.0740 N   0  0  2  0  0  0  0  0  0  0  0  0
  161.4660  207.6650  152.4170 N   0  0  0  0  0  0  0  0  0  0  0  0
  162.2700  207.5350  148.0990 C   0  0  0  0  0  2  0  0  0  0  0  0
  161.5170  206.2010  148.0460 C   0  0  2  0  0  3  0  0  0  0  0  0
  162.3080  206.5860  152.9480 C   0  0  0  0  0  2  0  0  0  0  0  0
  161.1970  208.6410  154.6780 C   0  0  0  0  0  3  0  0  0  0  0  0
  161.1000  208.7620  153.2800 C   0  0  0  0  0  0  0  0  0  0  0  0
  160.6390  209.9750  152.7400 C   0  0  0  0  0  3  0  0  0  0  0  0
  159.7130  212.5410  152.8800 Cl  0  0  0  0  0  0  0  0  0  0  0  0
  160.3860  210.9040  154.9600 C   0  0  0  0  0  3  0  0  0  0  0  0
  160.2840  211.0390  153.5730 C   0  0  0  0  0  0  0  0  0  0  0  0
  160.8420  209.7050  155.5120 C   0  0  0  0  0  3  0  0  0  0  0  0
  160.8900  206.0540  146.6450 C   0  0  0  0  0  2  0  0  0  0  0  0
  161.8550  205.8730  145.5480 N   0  0  0  0  0  0  0  0  0  0  0  0
  163.5150  204.2690  144.9710 N   0  0  0  0  0  1  0  0  0  0  0  0
  163.0330  205.1540  146.0170 C   0  0  0  0  0  2  0  0  0  0  0  0
  161.2530  205.1100  144.4630 C   0  0  0  0  0  2  0  0  0  0  0  0
  160.1260  204.2430  144.9950 C   0  0  0  0  0  2  0  0  0  0  0  0
  160.4830  202.8960  144.9190 O   0  0  0  0  0  1  0  0  0  0  0  0
  161.7220  202.9830  149.5760 O   0  0  0  0  0  0  0  0  0  0  0  0
  161.7110  202.2080  148.3980 C   0  0  0  0  0  0  0  0  0  0  0  0
  162.3790  202.8580  147.3720 F   0  0  0  0  0  0  0  0  0  0  0  0
  162.2860  200.9660  148.6190 F   0  0  0  0  0  0  0  0  0  0  0  0
  160.3990  202.0200  148.0070 F   0  0  0  0  0  0  0  0  0  0  0  0
  1 13  1  0  0  0  0
  2  6  1  0  0  0  0
  3  5  1  0  0  0  0
  3  7  1  0  0  0  0
  4  6  1  0  0  0  0
  4  1  1  0  0  0  0
  5  1  1  0  0  0  0
  6 15  1  0  0  0  0
  7 10  1  0  0  0  0
  8 14  1  0  0  0  0
  8  5  1  0  0  0  0
 11 12  1  0  0  0  0
 12  2  1  0  0  0  0
 13 10  1  0  0  0  0
 13  9  1  0  0  0  0
 14  4  1  0  0  0  0
 15 18  1  0  0  0  0
 15 20  1  0  0  0  0
 16 11  1  0  0  0  0
 17 16  1  0  0  0  0
 17 14  1  0  0  0  0
 18  9  1  0  0  0  0
 19 25  1  0  0  0  0
 20 19  2  0  0  0  0
 21 20  1  0  0  0  0
 21 24  2  0  0  0  0
 22 24  1  0  0  0  0
 23 25  2  0  0  0  0
 24 23  1  0  0  0  0
 26 17  1  0  0  0  0
 27 29  1  0  0  0  0
 27 26  1  0  0  0  0
 28 29  1  0  0  0  0
 30 31  1  0  0  0  0
 30 27  1  0  0  0  0
 32 31  1  0  0  0  0
 33  3  1  0  0  0  0
 34 36  1  0  0  0  0
 34 33  1  0  0  0  0
 35 34  1  0  0  0  0
 37 34  1  0  0  0  0
M  END
>  <MODEL>
2

>  <REMARK>
 VINA RESULT:      -4.1      4.175      7.287
  Name = 
  8 active torsions:
  status: ('A' for Active; 'I' for Inactive)
    1  A    between atoms: C_1  and  N_4
    2  A    between atoms: C_1  and  C_27
    3  A    between atoms: C_2  and  O_22
    4  A    between atoms: N_4  and  C_12
    5  A    between atoms: N_4  and  C_37
    6  A    between atoms: C_6  and  O_22
    7  A    between atoms: C_8  and  C_12
    8  A    between atoms: N_23  and  C_30
                            x       y       z     vdW  Elec       q    Type
                         _______ _______ _______ _____ _____    ______ ____

>  <TORSDO>
F 8

$$$$
=
 OpenBabel11122414003D

 37 41  0  0  1  0  0  0  0  0999 V2000
  160.3480  205.1850  151.2180 C   0  0  1  0  0  3  0  0  0  0  0  0
  161.2550  208.6290  150.1760 O   0  0  0  0  0  0  0  0  0  0  0  0
  160.4750  202.8800  150.1680 C   0  0  2  0  0  3  0  0  0  0  0  0
  161.0730  206.1660  150.3760 C   0  0  2  0  0  3  0  0  0  0  0  0
  159.7800  204.2530  150.1760 C   0  0  2  0  0  3  0  0  0  0  0  0
  160.9060  207.5540  151.0230 C   0  0  1  0  0  3  0  0  0  0  0  0
  160.6430  202.3250  151.5950 C   0  0  0  0  0  2  0  0  0  0  0  0
  159.8600  204.8680  148.9080 O   0  0  0  0  0  0  0  0  0  0  0  0
  161.5180  205.3890  153.2790 C   0  0  0  0  0  2  0  0  0  0  0  0
  160.6320  203.3700  152.6260 N   0  0  0  0  0  2  0  0  0  0  0  0
  163.0900  207.5670  149.1620 O   0  0  0  0  0  0  0  0  0  0  0  0
  162.6530  208.6460  149.9560 C   0  0  0  0  0  2  0  0  0  0  0  0
  161.2840  204.5150  152.1300 N   0  0  1  0  0  0  0  0  0  0  0  0
  160.4620  206.0960  149.0470 N   0  0  2  0  0  0  0  0  0  0  0  0
  161.5180  207.6710  152.3640 N   0  0  0  0  0  0  0  0  0  0  0  0
  162.2590  207.5110  148.0350 C   0  0  0  0  0  2  0  0  0  0  0  0
  161.5060  206.1760  148.0030 C   0  0  2  0  0  3  0  0  0  0  0  0
  162.3690  206.5970  152.8900 C   0  0  0  0  0  2  0  0  0  0  0  0
  161.1240  210.0890  152.7290 C   0  0  0  0  0  3  0  0  0  0  0  0
  161.1630  208.7740  153.2240 C   0  0  0  0  0  0  0  0  0  0  0  0
  160.8470  208.5540  154.5760 C   0  0  0  0  0  3  0  0  0  0  0  0
  160.1130  209.3240  157.0910 Cl  0  0  0  0  0  0  0  0  0  0  0  0
  160.4680  210.9210  154.9040 C   0  0  0  0  0  3  0  0  0  0  0  0
  160.5020  209.6200  155.4110 C   0  0  0  0  0  0  0  0  0  0  0  0
  160.7790  211.1560  153.5640 C   0  0  0  0  0  3  0  0  0  0  0  0
  160.8590  206.0180  146.6120 C   0  0  0  0  0  2  0  0  0  0  0  0
  161.8090  205.8440  145.5010 N   0  0  0  0  0  0  0  0  0  0  0  0
  163.4680  204.2290  144.9540 N   0  0  0  0  0  1  0  0  0  0  0  0
  163.0180  205.1740  145.9610 C   0  0  0  0  0  2  0  0  0  0  0  0
  161.2110  205.0400  144.4430 C   0  0  0  0  0  2  0  0  0  0  0  0
  160.0950  204.1800  145.0080 C   0  0  0  0  0  2  0  0  0  0  0  0
  160.4440  202.8310  144.9270 O   0  0  0  0  0  1  0  0  0  0  0  0
  161.7380  202.9690  149.5520 O   0  0  0  0  0  0  0  0  0  0  0  0
  161.7110  202.1860  148.3810 C   0  0  0  0  0  0  0  0  0  0  0  0
  162.3660  202.8280  147.3410 F   0  0  0  0  0  0  0  0  0  0  0  0
  162.2880  200.9450  148.6030 F   0  0  0  0  0  0  0  0  0  0  0  0
  160.3940  201.9970  148.0090 F   0  0  0  0  0  0  0  0  0  0  0  0
  1 13  1  0  0  0  0
  2  6  1  0  0  0  0
  3  5  1  0  0  0  0
  3  7  1  0  0  0  0
  4  6  1  0  0  0  0
  4  1  1  0  0  0  0
  5  1  1  0  0  0  0
  6 15  1  0  0  0  0
  7 10  1  0  0  0  0
  8 14  1  0  0  0  0
  8  5  1  0  0  0  0
 11 12  1  0  0  0  0
 12  2  1  0  0  0  0
 13 10  1  0  0  0  0
 13  9  1  0  0  0  0
 14  4  1  0  0  0  0
 15 18  1  0  0  0  0
 15 20  1  0  0  0  0
 16 11  1  0  0  0  0
 17 16  1  0  0  0  0
 17 14  1  0  0  0  0
 18  9  1  0  0  0  0
 19 20  2  0  0  0  0
 19 25  1  0  0  0  0
 20 21  1  0  0  0  0
 21 24  2  0  0  0  0
 23 24  1  0  0  0  0
 24 22  1  0  0  0  0
 25 23  2  0  0  0  0
 26 17  1  0  0  0  0
 27 29  1  0  0  0  0
 27 26  1  0  0  0  0
 28 29  1  0  0  0  0
 30 31  1  0  0  0  0
 30 27  1  0  0  0  0
 32 31  1  0  0  0  0
 33  3  1  0  0  0  0
 34 36  1  0  0  0  0
 34 33  1  0  0  0  0
 35 34  1  0  0  0  0
 37 34  1  0  0  0  0
M  END
>  <MODEL>
3

>  <REMARK>
 VINA RESULT:      -4.1      4.242      7.369
  Name = 
  8 active torsions:
  status: ('A' for Active; 'I' for Inactive)
    1  A    between atoms: C_1  and  N_4
    2  A    between atoms: C_1  and  C_27
    3  A    between atoms: C_2  and  O_22
    4  A    between atoms: N_4  and  C_12
    5  A    between atoms: N_4  and  C_37
    6  A    between atoms: C_6  and  O_22
    7  A    between atoms: C_8  and  C_12
    8  A    between atoms: N_23  and  C_30
                            x       y       z     vdW  Elec       q    Type
                         _______ _______ _______ _____ _____    ______ ____

>  <TORSDO>
F 8

$$$$
=
 OpenBabel11122414003D

 37 41  0  0  1  0  0  0  0  0999 V2000
  161.9470  211.0870  150.3020 C   0  0  1  0  0  3  0  0  0  0  0  0
  161.8840  207.7090  151.8360 O   0  0  0  0  0  0  0  0  0  0  0  0
  161.5830  212.0290  147.9750 C   0  0  2  0  0  3  0  0  0  0  0  0
  161.5730  209.6540  150.3320 C   0  0  2  0  0  3  0  0  0  0  0  0
  162.5070  211.2250  148.9070 C   0  0  2  0  0  3  0  0  0  0  0  0
  161.8780  209.1190  151.7440 C   0  0  1  0  0  3  0  0  0  0  0  0
  161.0710  213.3110  148.6600 C   0  0  0  0  0  2  0  0  0  0  0  0
  162.7630  209.9410  148.3800 O   0  0  0  0  0  0  0  0  0  0  0  0
  160.4960  211.9820  151.9600 C   0  0  0  0  0  2  0  0  0  0  0  0
  161.0950  213.2320  150.1250 N   0  0  0  0  0  2  0  0  0  0  0  0
  160.0900  207.3510  150.3620 O   0  0  0  0  0  0  0  0  0  0  0  0
  160.5740  207.2010  151.6770 C   0  0  0  0  0  2  0  0  0  0  0  0
  160.7610  211.9230  150.5230 N   0  0  1  0  0  0  0  0  0  0  0  0
  162.3810  208.9970  149.3030 N   0  0  2  0  0  0  0  0  0  0  0  0
  161.0740  209.7490  152.8140 N   0  0  0  0  0  0  0  0  0  0  0  0
  161.0790  206.8710  149.4930 C   0  0  0  0  0  2  0  0  0  0  0  0
  161.5670  207.9980  148.5780 C   0  0  2  0  0  3  0  0  0  0  0  0
  159.9620  210.6470  152.4780 C   0  0  0  0  0  2  0  0  0  0  0  0
  162.3540  210.5240  154.7870 C   0  0  0  0  0  3  0  0  0  0  0  0
  161.4710  209.6050  154.1940 C   0  0  0  0  0  0  0  0  0  0  0  0
  160.9810  208.5430  154.9720 C   0  0  0  0  0  3  0  0  0  0  0  0
  160.7410  207.0720  157.2610 Cl  0  0  0  0  0  0  0  0  0  0  0  0
  162.2410  209.3230  156.8850 C   0  0  0  0  0  3  0  0  0  0  0  0
  161.3630  208.4020  156.3090 C   0  0  0  0  0  0  0  0  0  0  0  0
  162.7370  210.3830  156.1240 C   0  0  0  0  0  3  0  0  0  0  0  0
  162.4060  207.3740  147.4440 C   0  0  0  0  0  2  0  0  0  0  0  0
  161.8710  206.1170  146.8950 N   0  0  0  0  0  0  0  0  0  0  0  0
  160.2560  206.1630  145.1480 N   0  0  0  0  0  1  0  0  0  0  0  0
  161.6740  206.2300  145.4560 C   0  0  0  0  0  2  0  0  0  0  0  0
  162.7930  205.0180  147.1480 C   0  0  0  0  0  2  0  0  0  0  0  0
  162.0360  203.7040  147.2110 C   0  0  0  0  0  2  0  0  0  0  0  0
  161.1730  203.7020  148.3070 O   0  0  0  0  0  1  0  0  0  0  0  0
  160.4840  211.2470  147.5720 O   0  0  0  0  0  0  0  0  0  0  0  0
  159.7880  211.9530  146.5710 C   0  0  0  0  0  0  0  0  0  0  0  0
  158.4920  212.2370  146.9750 F   0  0  0  0  0  0  0  0  0  0  0  0
  160.4450  213.1300  146.2480 F   0  0  0  0  0  0  0  0  0  0  0  0
  159.7220  211.1630  145.4390 F   0  0  0  0  0  0  0  0  0  0  0  0
  1  4  1  0  0  0  0
  1 13  1  0  0  0  0
  3  7  1  0  0  0  0
  3  5  1  0  0  0  0
  4  6  1  0  0  0  0
  5  1  1  0  0  0  0
  6  2  1  0  0  0  0
  6 15  1  0  0  0  0
  7 10  1  0  0  0  0
  8  5  1  0  0  0  0
  8 14  1  0  0  0  0
  9 18  1  0  0  0  0
 10 13  1  0  0  0  0
 11 12  1  0  0  0  0
 12  2  1  0  0  0  0
 13  9  1  0  0  0  0
 14  4  1  0  0  0  0
 15 20  1  0  0  0  0
 16 11  1  0  0  0  0
 17 14  1  0  0  0  0
 17 16  1  0  0  0  0
 18 15  1  0  0  0  0
 19 25  1  0  0  0  0
 20 19  2  0  0  0  0
 20 21  1  0  0  0  0
 21 24  2  0  0  0  0
 24 23  1  0  0  0  0
 24 22  1  0  0  0  0
 25 23  2  0  0  0  0
 26 17  1  0  0  0  0
 27 30  1  0  0  0  0
 27 26  1  0  0  0  0
 28 29  1  0  0  0  0
 29 27  1  0  0  0  0
 30 31  1  0  0  0  0
 31 32  1  0  0  0  0
 33  3  1  0  0  0  0
 34 35  1  0  0  0  0
 34 33  1  0  0  0  0
 36 34  1  0  0  0  0
 37 34  1  0  0  0  0
M  END
>  <MODEL>
4

>  <REMARK>
 VINA RESULT:      -3.4      3.874      7.725
  Name = 
  8 active torsions:
  status: ('A' for Active; 'I' for Inactive)
    1  A    between atoms: C_1  and  N_4
    2  A    between atoms: C_1  and  C_27
    3  A    between atoms: C_2  and  O_22
    4  A    between atoms: N_4  and  C_12
    5  A    between atoms: N_4  and  C_37
    6  A    between atoms: C_6  and  O_22
    7  A    between atoms: C_8  and  C_12
    8  A    between atoms: N_23  and  C_30
                            x       y       z     vdW  Elec       q    Type
                         _______ _______ _______ _____ _____    ______ ____

>  <TORSDO>
F 8

$$$$
=
 OpenBabel11122414003D

 37 41  0  0  1  0  0  0  0  0999 V2000
  160.6100  206.2510  150.6260 C   0  0  1  0  0  3  0  0  0  0  0  0
  161.2180  209.5740  152.1610 O   0  0  0  0  0  0  0  0  0  0  0  0
  161.0990  205.1720  148.3830 C   0  0  2  0  0  3  0  0  0  0  0  0
  161.2970  207.5600  150.7190 C   0  0  2  0  0  3  0  0  0  0  0  0
  160.2550  206.1980  149.1600 C   0  0  2  0  0  3  0  0  0  0  0  0
  160.9110  208.1980  152.0670 C   0  0  1  0  0  3  0  0  0  0  0  0
  161.1880  203.8310  149.1360 C   0  0  0  0  0  2  0  0  0  0  0  0
  160.3880  207.4880  148.6030 O   0  0  0  0  0  0  0  0  0  0  0  0
  161.5410  205.1030  152.4890 C   0  0  0  0  0  2  0  0  0  0  0  0
  160.9580  203.9630  150.5800 N   0  0  0  0  0  2  0  0  0  0  0  0
  163.2510  209.4610  150.9880 O   0  0  0  0  0  0  0  0  0  0  0  0
  162.6190  209.7620  152.2110 C   0  0  0  0  0  2  0  0  0  0  0  0
  161.5210  205.1730  151.0290 N   0  0  1  0  0  0  0  0  0  0  0  0
  160.8310  208.3500  149.5780 N   0  0  2  0  0  0  0  0  0  0  0  0
  161.3720  207.4360  153.2480 N   0  0  0  0  0  0  0  0  0  0  0  0
  162.5460  210.1260  149.9760 C   0  0  0  0  0  2  0  0  0  0  0  0
  161.9560  209.1100  148.9920 C   0  0  2  0  0  3  0  0  0  0  0  0
  162.2840  206.2970  153.0890 C   0  0  0  0  0  2  0  0  0  0  0  0
  160.6200  206.6820  155.4830 C   0  0  0  0  0  3  0  0  0  0  0  0
  160.8120  207.7140  154.5480 C   0  0  0  0  0  0  0  0  0  0  0  0
  160.4490  209.0240  154.9060 C   0  0  0  0  0  3  0  0  0  0  0  0
  159.4620  210.9330  156.5910 Cl  0  0  0  0  0  0  0  0  0  0  0  0
  159.7210  208.2600  157.0840 C   0  0  0  0  0  3  0  0  0  0  0  0
  159.9070  209.2950  156.1650 C   0  0  0  0  0  0  0  0  0  0  0  0
  160.0770  206.9530  156.7430 C   0  0  0  0  0  3  0  0  0  0  0  0
  161.4700  209.8720  147.7430 C   0  0  0  0  0  2  0  0  0  0  0  0
  161.2970  211.3220  147.9270 N   0  0  0  0  0  0  0  0  0  0  0  0
  162.6460  212.8700  146.7240 N   0  0  0  0  0  1  0  0  0  0  0  0
  162.5860  212.0010  147.8860 C   0  0  0  0  0  2  0  0  0  0  0  0
  160.4550  211.8710  146.8730 C   0  0  0  0  0  2  0  0  0  0  0  0
  159.4400  212.8330  147.4620 C   0  0  0  0  0  2  0  0  0  0  0  0
  158.1750  212.5790  146.9300 O   0  0  0  0  0  1  0  0  0  0  0  0
  162.3970  205.6670  148.1600 O   0  0  0  0  0  0  0  0  0  0  0  0
  162.7380  205.4130  146.8160 C   0  0  0  0  0  0  0  0  0  0  0  0
  162.7070  206.5800  146.0680 F   0  0  0  0  0  0  0  0  0  0  0  0
  163.9950  204.8340  146.7270 F   0  0  0  0  0  0  0  0  0  0  0  0
  161.8120  204.5360  146.2850 F   0  0  0  0  0  0  0  0  0  0  0  0
  1  4  1  0  0  0  0
  1 13  1  0  0  0  0
  2 12  1  0  0  0  0
  3  7  1  0  0  0  0
  3  5  1  0  0  0  0
  4  6  1  0  0  0  0
  5  1  1  0  0  0  0
  6  2  1  0  0  0  0
  6 15  1  0  0  0  0
  7 10  1  0  0  0  0
  8  5  1  0  0  0  0
  8 14  1  0  0  0  0
  9 18  1  0  0  0  0
 10 13  1  0  0  0  0
 11 12  1  0  0  0  0
 13  9  1  0  0  0  0
 14  4  1  0  0  0  0
 15 20  1  0  0  0  0
 16 11  1  0  0  0  0
 17 14  1  0  0  0  0
 17 16  1  0  0  0  0
 18 15  1  0  0  0  0
 19 25  1  0  0  0  0
 20 21  1  0  0  0  0
 20 19  2  0  0  0  0
 21 24  2  0  0  0  0
 24 22  1  0  0  0  0
 24 23  1  0  0  0  0
 25 23  2  0  0  0  0
 26 27  1  0  0  0  0
 26 17  1  0  0  0  0
 28 29  1  0  0  0  0
 29 27  1  0  0  0  0
 30 31  1  0  0  0  0
 30 27  1  0  0  0  0
 32 31  1  0  0  0  0
 33  3  1  0  0  0  0
 34 33  1  0  0  0  0
 35 34  1  0  0  0  0
 36 34  1  0  0  0  0
 37 34  1  0  0  0  0
M  END
>  <MODEL>
5

>  <REMARK>
 VINA RESULT:      -3.1      3.968      6.595
  Name = 
  8 active torsions:
  status: ('A' for Active; 'I' for Inactive)
    1  A    between atoms: C_1  and  N_4
    2  A    between atoms: C_1  and  C_27
    3  A    between atoms: C_2  and  O_22
    4  A    between atoms: N_4  and  C_12
    5  A    between atoms: N_4  and  C_37
    6  A    between atoms: C_6  and  O_22
    7  A    between atoms: C_8  and  C_12
    8  A    between atoms: N_23  and  C_30
                            x       y       z     vdW  Elec       q    Type
                         _______ _______ _______ _____ _____    ______ ____

>  <TORSDO>
F 8

$$$$
=
 OpenBabel11122414003D

 37 41  0  0  1  0  0  0  0  0999 V2000
  160.7020  207.0230  151.4890 C   0  0  1  0  0  3  0  0  0  0  0  0
  161.3420  208.4900  148.1420 O   0  0  0  0  0  0  0  0  0  0  0  0
  160.8380  204.7050  152.5100 C   0  0  2  0  0  3  0  0  0  0  0  0
  161.2960  207.0150  150.1320 C   0  0  2  0  0  3  0  0  0  0  0  0
  160.0820  205.6490  151.5570 C   0  0  2  0  0  3  0  0  0  0  0  0
  161.1250  208.4250  149.5360 C   0  0  1  0  0  3  0  0  0  0  0  0
  161.1670  205.3980  153.8460 C   0  0  0  0  0  2  0  0  0  0  0  0
  160.0120  205.1050  150.2570 O   0  0  0  0  0  0  0  0  0  0  0  0
  162.0510  208.6530  152.5770 C   0  0  0  0  0  2  0  0  0  0  0  0
  161.2030  206.8620  153.7430 N   0  0  0  0  0  2  0  0  0  0  0  0
  163.1200  206.9550  148.0890 O   0  0  0  0  0  0  0  0  0  0  0  0
  162.7100  208.2810  147.8470 C   0  0  0  0  0  2  0  0  0  0  0  0
  161.7500  207.2240  152.4980 N   0  0  1  0  0  0  0  0  0  0  0  0
  160.5670  205.9990  149.3710 N   0  0  2  0  0  0  0  0  0  0  0  0
  161.8560  209.4810  150.2690 N   0  0  0  0  0  0  0  0  0  0  0  0
  162.1900  206.1080  147.4730 C   0  0  0  0  0  2  0  0  0  0  0  0
  161.5020  205.2290  148.5230 C   0  0  2  0  0  3  0  0  0  0  0  0
  162.8030  209.1290  151.3350 C   0  0  0  0  0  2  0  0  0  0  0  0
  160.7510  211.5840  150.9710 C   0  0  0  0  0  3  0  0  0  0  0  0
  161.5320  210.8690  150.0460 C   0  0  0  0  0  0  0  0  0  0  0  0
  161.9930  211.5360  148.8970 C   0  0  0  0  0  3  0  0  0  0  0  0
  162.2650  213.6910  147.2420 Cl  0  0  0  0  0  0  0  0  0  0  0  0
  160.9040  213.5770  149.6070 C   0  0  0  0  0  3  0  0  0  0  0  0
  161.6810  212.8800  148.6790 C   0  0  0  0  0  0  0  0  0  0  0  0
  160.4390  212.9290  150.7530 C   0  0  0  0  0  3  0  0  0  0  0  0
  160.7340  204.1100  147.7910 C   0  0  0  0  0  2  0  0  0  0  0  0
  161.5800  203.1380  147.0800 N   0  0  0  0  0  0  0  0  0  0  0  0
  161.2280  200.9430  147.9280 N   0  0  0  0  0  1  0  0  0  0  0  0
  160.8650  201.8840  146.8830 C   0  0  0  0  0  2  0  0  0  0  0  0
  161.9640  203.6570  145.7740 C   0  0  0  0  0  2  0  0  0  0  0  0
  160.7360  203.8320  144.8990 C   0  0  0  0  0  2  0  0  0  0  0  0
  160.5660  205.1790  144.5790 O   0  0  0  0  0  1  0  0  0  0  0  0
  162.0310  204.2530  151.9150 O   0  0  0  0  0  0  0  0  0  0  0  0
  161.8930  202.8770  151.6460 C   0  0  0  0  0  0  0  0  0  0  0  0
  161.6270  202.6590  150.3030 F   0  0  0  0  0  0  0  0  0  0  0  0
  163.0360  202.1850  152.0140 F   0  0  0  0  0  0  0  0  0  0  0  0
  160.8290  202.3890  152.3800 F   0  0  0  0  0  0  0  0  0  0  0  0
  1  5  1  0  0  0  0
  1 13  1  0  0  0  0
  2  6  1  0  0  0  0
  3  7  1  0  0  0  0
  4  1  1  0  0  0  0
  5  3  1  0  0  0  0
  6  4  1  0  0  0  0
  6 15  1  0  0  0  0
  8  5  1  0  0  0  0
 10  7  1  0  0  0  0
 12 11  1  0  0  0  0
 12  2  1  0  0  0  0
 13  9  1  0  0  0  0
 13 10  1  0  0  0  0
 14  4  1  0  0  0  0
 14  8  1  0  0  0  0
 15 18  1  0  0  0  0
 16 11  1  0  0  0  0
 16 17  1  0  0  0  0
 17 14  1  0  0  0  0
 18  9  1  0  0  0  0
 20 15  1  0  0  0  0
 20 19  2  0  0  0  0
 21 20  1  0  0  0  0
 22 24  1  0  0  0  0
 23 25  2  0  0  0  0
 24 21  2  0  0  0  0
 24 23  1  0  0  0  0
 25 19  1  0  0  0  0
 26 17  1  0  0  0  0
 27 26  1  0  0  0  0
 29 27  1  0  0  0  0
 29 28  1  0  0  0  0
 30 27  1  0  0  0  0
 31 30  1  0  0  0  0
 32 31  1  0  0  0  0
 33  3  1  0  0  0  0
 34 33  1  0  0  0  0
 34 36  1  0  0  0  0
 34 37  1  0  0  0  0
 35 34  1  0  0  0  0
M  END
>  <MODEL>
6

>  <REMARK>
 VINA RESULT:      -3.1      3.602      7.247
  Name = 
  8 active torsions:
  status: ('A' for Active; 'I' for Inactive)
    1  A    between atoms: C_1  and  N_4
    2  A    between atoms: C_1  and  C_27
    3  A    between atoms: C_2  and  O_22
    4  A    between atoms: N_4  and  C_12
    5  A    between atoms: N_4  and  C_37
    6  A    between atoms: C_6  and  O_22
    7  A    between atoms: C_8  and  C_12
    8  A    between atoms: N_23  and  C_30
                            x       y       z     vdW  Elec       q    Type
                         _______ _______ _______ _____ _____    ______ ____

>  <TORSDO>
F 8

$$$$
=
 OpenBabel11122414003D

 37 41  0  0  1  0  0  0  0  0999 V2000
  162.2660  209.0780  151.3740 C   0  0  1  0  0  3  0  0  0  0  0  0
  161.5020  207.7610  154.7580 O   0  0  0  0  0  0  0  0  0  0  0  0
  162.3160  208.1230  149.0250 C   0  0  2  0  0  3  0  0  0  0  0  0
  161.6700  208.0950  152.3080 C   0  0  2  0  0  3  0  0  0  0  0  0
  162.9920  208.1760  150.4070 C   0  0  2  0  0  3  0  0  0  0  0  0
  161.7270  208.6980  153.7250 C   0  0  1  0  0  3  0  0  0  0  0  0
  161.9380  209.5320  148.5290 C   0  0  0  0  0  2  0  0  0  0  0  0
  163.1010  206.8850  150.9660 O   0  0  0  0  0  0  0  0  0  0  0  0
  160.7960  210.9290  151.6490 C   0  0  0  0  0  2  0  0  0  0  0  0
  161.7860  210.5060  149.6170 N   0  0  0  0  0  2  0  0  0  0  0  0
  159.8500  206.5300  153.6290 O   0  0  0  0  0  0  0  0  0  0  0  0
  160.1540  207.3320  154.7470 C   0  0  0  0  0  2  0  0  0  0  0  0
  161.2080  209.8680  150.7310 N   0  0  1  0  0  0  0  0  0  0  0  0
  162.4750  206.8770  152.1910 N   0  0  2  0  0  0  0  0  0  0  0  0
  160.9180  209.9240  153.8900 N   0  0  0  0  0  0  0  0  0  0  0  0
  160.8420  205.5450  153.5360 C   0  0  0  0  0  2  0  0  0  0  0  0
  161.6010  205.6850  152.2120 C   0  0  2  0  0  3  0  0  0  0  0  0
  160.0050  210.3630  152.8280 C   0  0  0  0  0  2  0  0  0  0  0  0
  162.2680  210.6230  155.8460 C   0  0  0  0  0  3  0  0  0  0  0  0
  161.1310  210.7790  155.0330 C   0  0  0  0  0  0  0  0  0  0  0  0
  160.2060  211.7870  155.3550 C   0  0  0  0  0  3  0  0  0  0  0  0
  159.2460  213.8660  156.8440 Cl  0  0  0  0  0  0  0  0  0  0  0  0
  161.5440  212.4490  157.2590 C   0  0  0  0  0  3  0  0  0  0  0  0
  160.4110  212.6170  156.4610 C   0  0  0  0  0  0  0  0  0  0  0  0
  162.4720  211.4530  156.9530 C   0  0  0  0  0  3  0  0  0  0  0  0
  162.4520  204.4160  152.0040 C   0  0  0  0  0  2  0  0  0  0  0  0
  161.9310  203.4760  150.9990 N   0  0  0  0  0  0  0  0  0  0  0  0
  162.6260  201.4430  152.0210 N   0  0  0  0  0  1  0  0  0  0  0  0
  161.4780  202.2450  151.6340 C   0  0  0  0  0  2  0  0  0  0  0  0
  160.8060  204.0660  150.2860 C   0  0  0  0  0  2  0  0  0  0  0  0
  160.1310  203.0200  149.4170 C   0  0  0  0  0  2  0  0  0  0  0  0
  160.9390  202.7170  148.3200 O   0  0  0  0  0  1  0  0  0  0  0  0
  161.1600  207.3210  149.0700 O   0  0  0  0  0  0  0  0  0  0  0  0
  161.0980  206.5750  147.8770 C   0  0  0  0  0  0  0  0  0  0  0  0
  161.2210  207.4000  146.7690 F   0  0  0  0  0  0  0  0  0  0  0  0
  162.0870  205.6040  147.8490 F   0  0  0  0  0  0  0  0  0  0  0  0
  159.8670  205.9490  147.8130 F   0  0  0  0  0  0  0  0  0  0  0  0
  1  4  1  0  0  0  0
  3 33  1  0  0  0  0
  3  5  1  0  0  0  0
  4  6  1  0  0  0  0
  5  8  1  0  0  0  0
  5  1  1  0  0  0  0
  6 15  1  0  0  0  0
  6  2  1  0  0  0  0
  7  3  1  0  0  0  0
  7 10  1  0  0  0  0
  8 14  1  0  0  0  0
  9 18  1  0  0  0  0
 10 13  1  0  0  0  0
 11 12  1  0  0  0  0
 12  2  1  0  0  0  0
 13  1  1  0  0  0  0
 13  9  1  0  0  0  0
 14 17  1  0  0  0  0
 14  4  1  0  0  0  0
 15 20  1  0  0  0  0
 16 11  1  0  0  0  0
 17 16  1  0  0  0  0
 18 15  1  0  0  0  0
 19 25  1  0  0  0  0
 20 21  1  0  0  0  0
 20 19  2  0  0  0  0
 21 24  2  0  0  0  0
 24 22  1  0  0  0  0
 24 23  1  0  0  0  0
 25 23  2  0  0  0  0
 26 17  1  0  0  0  0
 27 29  1  0  0  0  0
 27 26  1  0  0  0  0
 29 28  1  0  0  0  0
 30 27  1  0  0  0  0
 31 30  1  0  0  0  0
 32 31  1  0  0  0  0
 34 33  1  0  0  0  0
 35 34  1  0  0  0  0
 36 34  1  0  0  0  0
 37 34  1  0  0  0  0
M  END
>  <MODEL>
7

>  <REMARK>
 VINA RESULT:      -2.7      4.206      8.604
  Name = 
  8 active torsions:
  status: ('A' for Active; 'I' for Inactive)
    1  A    between atoms: C_1  and  N_4
    2  A    between atoms: C_1  and  C_27
    3  A    between atoms: C_2  and  O_22
    4  A    between atoms: N_4  and  C_12
    5  A    between atoms: N_4  and  C_37
    6  A    between atoms: C_6  and  O_22
    7  A    between atoms: C_8  and  C_12
    8  A    between atoms: N_23  and  C_30
                            x       y       z     vdW  Elec       q    Type
                         _______ _______ _______ _____ _____    ______ ____

>  <TORSDO>
F 8

$$$$
=
 OpenBabel11122414003D

 37 41  0  0  1  0  0  0  0  0999 V2000
  161.2030  208.0290  149.7710 C   0  0  1  0  0  3  0  0  0  0  0  0
  160.8650  204.4330  150.6220 O   0  0  0  0  0  0  0  0  0  0  0  0
  161.6640  210.1630  151.0620 C   0  0  2  0  0  3  0  0  0  0  0  0
  161.4000  206.8530  150.6500 C   0  0  2  0  0  3  0  0  0  0  0  0
  160.6550  209.0450  150.7430 C   0  0  2  0  0  3  0  0  0  0  0  0
  161.0420  205.5940  149.8370 C   0  0  1  0  0  3  0  0  0  0  0  0
  162.3330  210.6990  149.7830 C   0  0  0  0  0  2  0  0  0  0  0  0
  160.2410  208.3860  151.9210 O   0  0  0  0  0  0  0  0  0  0  0  0
  162.7640  207.5780  148.0340 C   0  0  0  0  0  2  0  0  0  0  0  0
  162.3090  209.7390  148.6730 N   0  0  0  0  0  2  0  0  0  0  0  0
  162.5920  204.8930  152.1480 O   0  0  0  0  0  0  0  0  0  0  0  0
  162.1020  204.0120  151.1630 C   0  0  0  0  0  2  0  0  0  0  0  0
  162.4840  208.4390  149.1820 N   0  0  1  0  0  0  0  0  0  0  0  0
  160.5110  207.0440  151.7970 N   0  0  2  0  0  0  0  0  0  0  0  0
  161.9240  205.3570  148.6740 N   0  0  0  0  0  0  0  0  0  0  0  0
  161.5450  205.1410  153.0470 C   0  0  0  0  0  2  0  0  0  0  0  0
  161.1920  206.6320  153.0430 C   0  0  2  0  0  3  0  0  0  0  0  0
  163.1350  206.1640  148.4810 C   0  0  0  0  0  2  0  0  0  0  0  0
  161.2120  204.8910  146.3480 C   0  0  0  0  0  3  0  0  0  0  0  0
  161.5220  204.4330  147.6410 C   0  0  0  0  0  0  0  0  0  0  0  0
  161.4330  203.0560  147.9070 C   0  0  0  0  0  3  0  0  0  0  0  0
  160.9400  200.4490  147.2620 Cl  0  0  0  0  0  0  0  0  0  0  0  0
  160.7400  202.6290  145.6290 C   0  0  0  0  0  3  0  0  0  0  0  0
  161.0440  202.1590  146.9090 C   0  0  0  0  0  0  0  0  0  0  0  0
  160.8230  203.9940  145.3480 C   0  0  0  0  0  3  0  0  0  0  0  0
  160.2760  206.9160  154.2510 C   0  0  0  0  0  2  0  0  0  0  0  0
  160.7000  208.0390  155.1020 N   0  0  0  0  0  0  0  0  0  0  0  0
  159.3240  209.9810  155.1370 N   0  0  0  0  0  1  0  0  0  0  0  0
  159.5450  208.6720  155.7270 C   0  0  0  0  0  2  0  0  0  0  0  0
  161.5930  207.5710  156.1540 C   0  0  0  0  0  2  0  0  0  0  0  0
  161.6870  208.6080  157.2590 C   0  0  0  0  0  2  0  0  0  0  0  0
  162.7280  209.4970  156.9930 O   0  0  0  0  0  1  0  0  0  0  0  0
  162.6560  209.6970  151.9450 O   0  0  0  0  0  0  0  0  0  0  0  0
  162.5100  210.3790  153.1690 C   0  0  0  0  0  0  0  0  0  0  0  0
  161.4670  211.2910  153.1060 F   0  0  0  0  0  0  0  0  0  0  0  0
  162.2900  209.4880  154.2080 F   0  0  0  0  0  0  0  0  0  0  0  0
  163.6750  211.0750  153.4270 F   0  0  0  0  0  0  0  0  0  0  0  0
  1  4  1  0  0  0  0
  1  5  1  0  0  0  0
  2 12  1  0  0  0  0
  3 33  1  0  0  0  0
  4 14  1  0  0  0  0
  5  3  1  0  0  0  0
  5  8  1  0  0  0  0
  6  2  1  0  0  0  0
  6  4  1  0  0  0  0
  7  3  1  0  0  0  0
  9 18  1  0  0  0  0
  9 13  1  0  0  0  0
 10 13  1  0  0  0  0
 10  7  1  0  0  0  0
 11 16  1  0  0  0  0
 12 11  1  0  0  0  0
 13  1  1  0  0  0  0
 14  8  1  0  0  0  0
 14 17  1  0  0  0  0
 15  6  1  0  0  0  0
 17 16  1  0  0  0  0
 17 26  1  0  0  0  0
 18 15  1  0  0  0  0
 19 20  1  0  0  0  0
 20 21  2  0  0  0  0
 20 15  1  0  0  0  0
 23 24  2  0  0  0  0
 24 22  1  0  0  0  0
 24 21  1  0  0  0  0
 25 23  1  0  0  0  0
 25 19  2  0  0  0  0
 26 27  1  0  0  0  0
 27 29  1  0  0  0  0
 27 30  1  0  0  0  0
 28 29  1  0  0  0  0
 30 31  1  0  0  0  0
 32 31  1  0  0  0  0
 33 34  1  0  0  0  0
 34 37  1  0  0  0  0
 34 36  1  0  0  0  0
 35 34  1  0  0  0  0
M  END
>  <MODEL>
8

>  <REMARK>
 VINA RESULT:      -2.3      2.306      4.968
  Name = 
  8 active torsions:
  status: ('A' for Active; 'I' for Inactive)
    1  A    between atoms: C_1  and  N_4
    2  A    between atoms: C_1  and  C_27
    3  A    between atoms: C_2  and  O_22
    4  A    between atoms: N_4  and  C_12
    5  A    between atoms: N_4  and  C_37
    6  A    between atoms: C_6  and  O_22
    7  A    between atoms: C_8  and  C_12
    8  A    between atoms: N_23  and  C_30
                            x       y       z     vdW  Elec       q    Type
                         _______ _______ _______ _____ _____    ______ ____

>  <TORSDO>
F 8

$$$$
