=
 OpenBabel11122413543D

 37 44  0  0  1  0  0  0  0  0999 V2000
  159.8690  210.7760  153.7960 C   0  0  0  0  0  0  0  0  0  0  0  0
  161.6660  207.6740  152.6550 C   0  0  1  0  0  3  0  0  0  0  0  0
  162.8160  207.5580  149.5620 O   0  0  0  0  0  0  0  0  0  0  0  0
  161.2450  209.1670  154.7400 C   0  0  2  0  0  3  0  0  0  0  0  0
  161.2630  208.1630  151.2690 C   0  0  2  0  0  3  0  0  0  0  0  0
  161.9530  208.9800  153.3990 C   0  0  2  0  0  3  0  0  0  0  0  0
  161.5810  207.2030  150.1230 C   0  0  2  0  0  3  0  0  0  0  0  0
  161.2820  207.8540  155.5070 C   0  0  0  0  0  2  0  0  0  0  0  0
  161.6360  210.0920  152.4030 C   0  0  2  0  0  3  0  0  0  0  0  0
  160.6600  211.9450  154.3980 C   0  0  0  0  0  1  0  0  0  0  0  0
  160.6600  205.4280  152.7460 N   0  0  0  0  0  2  0  0  0  0  0  0
  160.5160  206.7420  154.7850 C   0  0  0  0  0  2  0  0  0  0  0  0
  160.2690  210.4760  152.4730 O   0  0  0  0  0  0  0  0  0  0  0  0
  161.3160  208.6790  148.0570 O   0  0  0  0  0  0  0  0  0  0  0  0
  162.6470  208.3310  148.3790 C   0  0  1  0  0  3  0  0  0  0  0  0
  160.5450  206.7970  153.2470 C   0  0  1  0  0  3  0  0  0  0  0  0
  161.9130  209.4650  151.1040 N   0  0  2  0  0  0  0  0  0  0  0  0
  159.9140  209.6140  154.6020 O   0  0  0  0  0  0  0  0  0  0  0  0
  161.5240  205.7110  150.4770 C   0  0  1  0  0  3  0  0  0  0  0  0
  158.4240  211.2250  153.7360 C   0  0  0  0  0  1  0  0  0  0  0  0
  162.0970  209.7160  148.6110 C   0  0  2  0  0  3  0  0  0  0  0  0
  161.3930  210.1760  149.9160 C   0  0  2  0  0  3  0  0  0  0  0  0
  160.3010  205.3760  151.3320 C   0  0  0  0  0  2  0  0  0  0  0  0
  161.1420  203.5320  149.3150 C   0  0  0  0  0  3  0  0  0  0  0  0
  161.5430  204.8700  149.2380 C   0  0  0  0  0  0  0  0  0  0  0  0
  161.9630  205.3990  148.0070 C   0  0  0  0  0  3  0  0  0  0  0  0
  162.3870  205.1050  145.6800 F   0  0  0  0  0  0  0  0  0  0  0  0
  161.5780  203.2550  146.9480 C   0  0  0  0  0  3  0  0  0  0  0  0
  161.9800  204.5920  146.8660 C   0  0  0  0  0  0  0  0  0  0  0  0
  161.1590  202.7260  148.1720 C   0  0  0  0  0  3  0  0  0  0  0  0
  161.6390  211.7020  150.0040 C   0  0  1  0  0  3  0  0  0  0  0  0
  161.4670  212.4510  148.7240 N   0  0  0  0  0  0  0  0  0  0  0  0
  160.4290  212.4810  149.7610 C   0  0  2  0  0  3  0  0  0  0  0  0
  160.5330  214.0500  150.6620 S   0  0  0  0  0  0  0  0  0  0  0  0
  158.8230  213.9010  151.2470 C   0  0  0  0  0  1  0  0  0  0  0  0
  160.0390  212.5710  146.7620 C   0  0  0  0  0  1  0  0  0  0  0  0
  160.8910  211.6710  147.6320 C   0  0  0  0  0  2  0  0  0  0  0  0
  1 10  1  0  0  0  0
  1 18  1  0  0  0  0
  2 16  1  0  0  0  0
  2  6  1  0  0  0  0
  3  7  1  0  0  0  0
  4  8  1  0  0  0  0
  5  2  1  0  0  0  0
  6  4  1  0  0  0  0
  7 19  1  0  0  0  0
  7  5  1  0  0  0  0
  9 13  1  0  0  0  0
  9  6  1  0  0  0  0
 11 16  1  0  0  0  0
 12  8  1  0  0  0  0
 13  1  1  0  0  0  0
 14 15  1  0  0  0  0
 14 21  1  0  0  0  0
 15 21  1  0  0  0  0
 15  3  1  0  0  0  0
 16 12  1  0  0  0  0
 17  5  1  0  0  0  0
 17  9  1  0  0  0  0
 18  4  1  0  0  0  0
 19 23  1  0  0  0  0
 20  1  1  0  0  0  0
 21 22  1  0  0  0  0
 22 31  1  0  0  0  0
 22 17  1  0  0  0  0
 23 11  1  0  0  0  0
 25 24  1  0  0  0  0
 25 19  1  0  0  0  0
 26 25  2  0  0  0  0
 27 29  1  0  0  0  0
 28 30  1  0  0  0  0
 29 28  2  0  0  0  0
 29 26  1  0  0  0  0
 30 24  2  0  0  0  0
 32 33  1  0  0  0  0
 32 31  1  0  0  0  0
 33 31  1  0  0  0  0
 33 34  1  0  0  0  0
 34 35  1  0  0  0  0
 36 37  1  0  0  0  0
 37 32  1  0  0  0  0
M  END
>  <MODEL>
1

>  <REMARK>
 VINA RESULT:      -6.6      0.000      0.000
  Name = 
  4 active torsions:
  status: ('A' for Active; 'I' for Inactive)
    1  A    between atoms: C_1  and  C_27
    2  A    between atoms: N_4  and  C_37
    3  A    between atoms: S_8  and  C_12
    4  A    between atoms: C_23  and  C_30
                            x       y       z     vdW  Elec       q    Type
                         _______ _______ _______ _____ _____    ______ ____

>  <TORSDO>
F 4

$$$$
=
 OpenBabel11122413543D

 37 44  0  0  1  0  0  0  0  0999 V2000
  159.7510  211.0380  154.3130 C   0  0  0  0  0  0  0  0  0  0  0  0
  161.6530  208.0530  153.0360 C   0  0  1  0  0  3  0  0  0  0  0  0
  162.7290  208.0790  149.9140 O   0  0  0  0  0  0  0  0  0  0  0  0
  161.2190  209.4640  155.1740 C   0  0  2  0  0  3  0  0  0  0  0  0
  161.1940  208.5640  151.6750 C   0  0  2  0  0  3  0  0  0  0  0  0
  161.9010  209.3490  153.8120 C   0  0  2  0  0  3  0  0  0  0  0  0
  161.5250  207.6540  150.4930 C   0  0  2  0  0  3  0  0  0  0  0  0
  161.3330  208.1330  155.9000 C   0  0  0  0  0  2  0  0  0  0  0  0
  161.5110  210.4750  152.8580 C   0  0  2  0  0  3  0  0  0  0  0  0
  160.5050  212.2230  154.9300 C   0  0  0  0  0  1  0  0  0  0  0  0
  160.7480  205.7630  153.0820 N   0  0  0  0  0  2  0  0  0  0  0  0
  160.5990  207.0090  155.1630 C   0  0  0  0  0  2  0  0  0  0  0  0
  160.1300  210.7950  152.9710 O   0  0  0  0  0  0  0  0  0  0  0  0
  161.1450  209.1760  148.4800 O   0  0  0  0  0  0  0  0  0  0  0  0
  162.4970  208.8780  148.7600 C   0  0  1  0  0  3  0  0  0  0  0  0
  160.5870  207.1110  153.6270 C   0  0  1  0  0  3  0  0  0  0  0  0
  161.7820  209.8980  151.5340 N   0  0  2  0  0  0  0  0  0  0  0  0
  159.8670  209.8560  155.0810 O   0  0  0  0  0  0  0  0  0  0  0  0
  161.5420  206.1500  150.8030 C   0  0  1  0  0  3  0  0  0  0  0  0
  158.2870  211.4230  154.3000 C   0  0  0  0  0  1  0  0  0  0  0  0
  161.8930  210.2300  149.0460 C   0  0  2  0  0  3  0  0  0  0  0  0
  161.2020  210.6200  150.3810 C   0  0  2  0  0  3  0  0  0  0  0  0
  160.3570  205.7370  151.6770 C   0  0  0  0  0  2  0  0  0  0  0  0
  161.6750  206.0120  148.3120 C   0  0  0  0  0  3  0  0  0  0  0  0
  161.5670  205.3480  149.5390 C   0  0  0  0  0  0  0  0  0  0  0  0
  161.4770  203.9480  149.5640 C   0  0  0  0  0  3  0  0  0  0  0  0
  161.4070  201.8700  148.3990 F   0  0  0  0  0  0  0  0  0  0  0  0
  161.6020  203.8890  147.1470 C   0  0  0  0  0  3  0  0  0  0  0  0
  161.4940  203.2220  148.3700 C   0  0  0  0  0  0  0  0  0  0  0  0
  161.6930  205.2840  147.1180 C   0  0  0  0  0  3  0  0  0  0  0  0
  161.3830  212.1520  150.5090 C   0  0  1  0  0  3  0  0  0  0  0  0
  161.3170  212.9120  149.2260 N   0  0  0  0  0  0  0  0  0  0  0  0
  160.1770  212.8920  150.1500 C   0  0  2  0  0  3  0  0  0  0  0  0
  160.1320  214.4520  151.0730 S   0  0  0  0  0  0  0  0  0  0  0  0
  158.3460  214.3060  151.3560 C   0  0  0  0  0  1  0  0  0  0  0  0
  160.2190  213.0380  147.0630 C   0  0  0  0  0  1  0  0  0  0  0  0
  160.8850  212.1280  148.0730 C   0  0  0  0  0  2  0  0  0  0  0  0
  1 10  1  0  0  0  0
  1 18  1  0  0  0  0
  2 16  1  0  0  0  0
  2  6  1  0  0  0  0
  3  7  1  0  0  0  0
  4  8  1  0  0  0  0
  5  2  1  0  0  0  0
  6  4  1  0  0  0  0
  7 19  1  0  0  0  0
  7  5  1  0  0  0  0
  9 13  1  0  0  0  0
  9  6  1  0  0  0  0
 11 16  1  0  0  0  0
 12  8  1  0  0  0  0
 13  1  1  0  0  0  0
 14 15  1  0  0  0  0
 14 21  1  0  0  0  0
 15 21  1  0  0  0  0
 15  3  1  0  0  0  0
 16 12  1  0  0  0  0
 17  5  1  0  0  0  0
 17  9  1  0  0  0  0
 18  4  1  0  0  0  0
 19 23  1  0  0  0  0
 20  1  1  0  0  0  0
 21 22  1  0  0  0  0
 22 31  1  0  0  0  0
 22 17  1  0  0  0  0
 23 11  1  0  0  0  0
 24 25  1  0  0  0  0
 25 26  2  0  0  0  0
 25 19  1  0  0  0  0
 28 29  2  0  0  0  0
 29 27  1  0  0  0  0
 29 26  1  0  0  0  0
 30 28  1  0  0  0  0
 30 24  2  0  0  0  0
 32 33  1  0  0  0  0
 32 31  1  0  0  0  0
 33 31  1  0  0  0  0
 33 34  1  0  0  0  0
 34 35  1  0  0  0  0
 36 37  1  0  0  0  0
 37 32  1  0  0  0  0
M  END
>  <MODEL>
2

>  <REMARK>
 VINA RESULT:      -5.2      0.935      1.219
  Name = 
  4 active torsions:
  status: ('A' for Active; 'I' for Inactive)
    1  A    between atoms: C_1  and  C_27
    2  A    between atoms: N_4  and  C_37
    3  A    between atoms: S_8  and  C_12
    4  A    between atoms: C_23  and  C_30
                            x       y       z     vdW  Elec       q    Type
                         _______ _______ _______ _____ _____    ______ ____

>  <TORSDO>
F 4

$$$$
=
 OpenBabel11122413543D

 37 44  0  0  1  0  0  0  0  0999 V2000
  161.6820  208.3350  149.1940 C   0  0  0  0  0  0  0  0  0  0  0  0
  161.2860  211.6120  150.9990 C   0  0  1  0  0  3  0  0  0  0  0  0
  160.7910  211.5720  154.2630 O   0  0  0  0  0  0  0  0  0  0  0  0
  162.5010  210.4940  148.9930 C   0  0  2  0  0  3  0  0  0  0  0  0
  160.5660  210.7540  152.0330 C   0  0  2  0  0  3  0  0  0  0  0  0
  162.3940  210.6800  150.5050 C   0  0  2  0  0  3  0  0  0  0  0  0
  159.9080  211.5270  153.1760 C   0  0  2  0  0  3  0  0  0  0  0  0
  162.3080  211.8410  148.3130 C   0  0  0  0  0  2  0  0  0  0  0  0
  162.1800  209.3650  151.2490 C   0  0  2  0  0  3  0  0  0  0  0  0
  163.0690  207.6930  149.0640 C   0  0  0  0  0  1  0  0  0  0  0  0
  159.5730  213.2770  150.4000 N   0  0  0  0  0  2  0  0  0  0  0  0
  160.9120  212.4190  148.5630 C   0  0  0  0  0  2  0  0  0  0  0  0
  161.2910  208.5090  150.5430 O   0  0  0  0  0  0  0  0  0  0  0  0
  159.4210  209.7010  154.8910 O   0  0  0  0  0  0  0  0  0  0  0  0
  160.4680  210.5850  155.2360 C   0  0  1  0  0  3  0  0  0  0  0  0
  160.2840  212.0890  149.9290 C   0  0  1  0  0  3  0  0  0  0  0  0
  161.5630  209.7930  152.5120 N   0  0  2  0  0  0  0  0  0  0  0  0
  161.5770  209.5560  148.4870 O   0  0  0  0  0  0  0  0  0  0  0  0
  159.3830  212.9230  152.8110 C   0  0  1  0  0  3  0  0  0  0  0  0
  160.7020  207.3660  148.5660 C   0  0  0  0  0  1  0  0  0  0  0  0
  160.7230  209.1650  154.7950 C   0  0  2  0  0  3  0  0  0  0  0  0
  160.9330  208.7270  153.3200 C   0  0  2  0  0  3  0  0  0  0  0  0
  158.6470  212.9210  151.4700 C   0  0  0  0  0  2  0  0  0  0  0  0
  159.0780  213.9560  155.0650 C   0  0  0  0  0  3  0  0  0  0  0  0
  158.4980  213.4570  153.8940 C   0  0  0  0  0  0  0  0  0  0  0  0
  157.1010  213.4570  153.7580 C   0  0  0  0  0  3  0  0  0  0  0  0
  154.9470  213.9510  154.6520 F   0  0  0  0  0  0  0  0  0  0  0  0
  156.8800  214.4510  155.9540 C   0  0  0  0  0  3  0  0  0  0  0  0
  156.2960  213.9530  154.7870 C   0  0  0  0  0  0  0  0  0  0  0  0
  158.2710  214.4530  156.0930 C   0  0  0  0  0  3  0  0  0  0  0  0
  161.8150  207.4570  153.3870 C   0  0  1  0  0  3  0  0  0  0  0  0
  161.3900  206.4360  154.3910 N   0  0  0  0  0  0  0  0  0  0  0  0
  161.1030  206.2550  152.9640 C   0  0  2  0  0  3  0  0  0  0  0  0
  162.2850  205.0710  152.2650 S   0  0  0  0  0  0  0  0  0  0  0  0
  161.1020  204.5420  150.9960 C   0  0  0  0  0  1  0  0  0  0  0  0
  160.2520  206.7480  156.5150 C   0  0  0  0  0  1  0  0  0  0  0  0
  160.0930  206.6920  155.0100 C   0  0  0  0  0  2  0  0  0  0  0  0
  1 13  1  0  0  0  0
  2  5  1  0  0  0  0
  3 15  1  0  0  0  0
  4  6  1  0  0  0  0
  5 17  1  0  0  0  0
  5  7  1  0  0  0  0
  6  2  1  0  0  0  0
  6  9  1  0  0  0  0
  7  3  1  0  0  0  0
  8 12  1  0  0  0  0
  8  4  1  0  0  0  0
  9 17  1  0  0  0  0
 10  1  1  0  0  0  0
 11 23  1  0  0  0  0
 12 16  1  0  0  0  0
 13  9  1  0  0  0  0
 14 15  1  0  0  0  0
 16 11  1  0  0  0  0
 16  2  1  0  0  0  0
 17 22  1  0  0  0  0
 18  4  1  0  0  0  0
 18  1  1  0  0  0  0
 19  7  1  0  0  0  0
 19 25  1  0  0  0  0
 20  1  1  0  0  0  0
 21 14  1  0  0  0  0
 21 15  1  0  0  0  0
 22 31  1  0  0  0  0
 22 21  1  0  0  0  0
 23 19  1  0  0  0  0
 24 30  1  0  0  0  0
 25 24  2  0  0  0  0
 26 25  1  0  0  0  0
 26 29  2  0  0  0  0
 27 29  1  0  0  0  0
 28 30  2  0  0  0  0
 29 28  1  0  0  0  0
 31 32  1  0  0  0  0
 32 37  1  0  0  0  0
 33 31  1  0  0  0  0
 33 32  1  0  0  0  0
 34 33  1  0  0  0  0
 35 34  1  0  0  0  0
 37 36  1  0  0  0  0
M  END
>  <MODEL>
3

>  <REMARK>
 VINA RESULT:      -4.3      3.376      8.387
  Name = 
  4 active torsions:
  status: ('A' for Active; 'I' for Inactive)
    1  A    between atoms: C_1  and  C_27
    2  A    between atoms: N_4  and  C_37
    3  A    between atoms: S_8  and  C_12
    4  A    between atoms: C_23  and  C_30
                            x       y       z     vdW  Elec       q    Type
                         _______ _______ _______ _____ _____    ______ ____

>  <TORSDO>
F 4

$$$$
