=
 OpenBabel11122414273D

 34 41  0  0  1  0  0  0  0  0999 V2000
  161.8170  207.9670  150.4000 C   0  0  0  0  0  0  0  0  0  0  0  0
  161.2240  206.5440  148.3850 C   0  0  0  0  0  2  0  0  0  0  0  0
  161.4650  209.1520  157.0270 C   0  0  1  0  0  3  0  0  0  0  0  0
  161.0120  209.2710  152.3870 C   0  0  2  0  0  3  0  0  0  0  0  0
  161.3150  208.1440  154.6380 C   0  0  1  0  0  3  0  0  0  0  0  0
  159.2270  208.1960  156.2580 C   0  0  0  0  0  1  0  0  0  0  0  0
  161.5510  207.6340  157.1580 C   0  0  0  0  0  2  0  0  0  0  0  0
  162.3380  210.7630  155.7340 C   0  0  0  0  0  2  0  0  0  0  0  0
  161.5780  205.4520  150.5180 C   0  0  1  0  0  3  0  0  0  0  0  0
  161.3550  202.5280  151.1300 C   0  0  0  0  0  2  0  0  0  0  0  0
  160.7080  207.0480  153.8840 N   0  0  0  0  0  2  0  0  0  0  0  0
  162.3350  210.4070  154.2490 C   0  0  0  0  0  2  0  0  0  0  0  0
  160.8640  205.6460  151.8680 C   0  0  2  0  0  3  0  0  0  0  0  0
  160.9330  205.0680  148.2060 C   0  0  0  0  0  2  0  0  0  0  0  0
  161.1580  209.4900  153.9030 C   0  0  1  0  0  3  0  0  0  0  0  0
  162.6710  209.6340  156.4940 O   0  0  0  0  0  0  0  0  0  0  0  0
  161.2280  203.0540  149.6960 C   0  0  2  0  0  3  0  0  0  0  0  0
  161.8520  208.0760  151.9000 C   0  0  1  0  0  3  0  0  0  0  0  0
  160.7290  208.2390  156.0470 C   0  0  2  0  0  0  0  0  0  0  0  0
  161.5140  206.7760  152.6840 C   0  0  1  0  0  3  0  0  0  0  0  0
  162.1080  210.4080  150.3590 C   0  0  0  0  0  2  0  0  0  0  0  0
  160.3330  203.1360  152.0820 C   0  0  0  0  0  2  0  0  0  0  0  0
  161.1380  210.5550  151.5390 C   0  0  0  0  0  2  0  0  0  0  0  0
  160.9330  204.3760  152.7310 C   0  0  0  0  0  2  0  0  0  0  0  0
  160.7800  204.5170  149.6160 C   0  0  1  0  0  3  0  0  0  0  0  0
  161.9210  209.0860  149.6740 C   0  0  0  0  0  3  0  0  0  0  0  0
  161.6310  206.6950  149.7720 N   0  0  0  0  0  0  0  0  0  0  0  0
  160.3290  202.2520  148.9890 O   0  0  0  0  0  0  0  0  0  0  0  0
  161.0560  201.1020  148.6550 C   0  0  0  0  0  2  0  0  0  0  0  0
  160.4830  199.7400  145.6540 O   0  0  0  0  0  0  0  0  0  0  0  0
  160.6400  201.9870  146.3610 C   0  0  0  0  0  2  0  0  0  0  0  0
  161.5580  201.1640  147.2150 C   0  0  2  0  0  3  0  0  0  0  0  0
  160.2960  201.0600  145.2210 C   0  0  0  0  0  2  0  0  0  0  0  0
  161.5460  199.7950  146.5680 C   0  0  0  0  0  2  0  0  0  0  0  0
  2 27  1  0  0  0  0
  3  7  1  1  0  0  0
  4 23  1  6  0  0  0
  4 15  1  0  0  0  0
  5 11  1  6  0  0  0
  5 19  1  0  0  0  0
  8 16  1  0  0  0  0
  9 27  1  6  0  0  0
  9 13  1  0  0  0  0
 10 22  1  0  0  0  0
 12  8  1  0  0  0  0
 13 20  1  0  0  0  0
 13 24  1  1  0  0  0
 14  2  1  0  0  0  0
 15 12  1  6  0  0  0
 15  5  1  0  0  0  0
 16  3  1  0  0  0  0
 17 28  1  6  0  0  0
 17 10  1  0  0  0  0
 18  1  1  6  0  0  0
 18  4  1  0  0  0  0
 18 20  1  0  0  0  0
 19  6  1  1  0  0  0
 19  3  1  0  0  0  0
 19  7  1  0  0  0  0
 20 11  1  1  0  0  0
 21 23  1  0  0  0  0
 22 24  1  0  0  0  0
 25 14  1  6  0  0  0
 25 17  1  0  0  0  0
 25  9  1  0  0  0  0
 26 21  1  0  0  0  0
 26  1  2  0  0  0  0
 27  1  1  0  0  0  0
 29 28  1  0  0  0  0
 30 34  1  0  0  0  0
 31 32  1  0  0  0  0
 32 29  1  1  0  0  0
 33 30  1  0  0  0  0
 33 31  1  0  0  0  0
 34 32  1  0  0  0  0
M  END
>  <MODEL>
1

>  <REMARK>
 VINA RESULT:      -9.4      0.000      0.000
  Name = 
  3 active torsions:
  status: ('A' for Active; 'I' for Inactive)
    1  A    between atoms: C_17  and  O_28
    2  A    between atoms: O_28  and  C_29
    3  A    between atoms: C_29  and  C_32
                            x       y       z     vdW  Elec       q    Type
                         _______ _______ _______ _____ _____    ______ ____

>  <TORSDO>
F 3

$$$$
=
 OpenBabel11122414273D

 34 41  0  0  1  0  0  0  0  0999 V2000
  161.3150  204.9810  151.7550 C   0  0  0  0  0  0  0  0  0  0  0  0
  160.8410  206.3200  153.8570 C   0  0  0  0  0  2  0  0  0  0  0  0
  161.7300  204.6000  145.0360 C   0  0  1  0  0  3  0  0  0  0  0  0
  160.5020  204.1880  149.5170 C   0  0  2  0  0  3  0  0  0  0  0  0
  161.4910  205.3720  147.5040 C   0  0  1  0  0  3  0  0  0  0  0  0
  159.7760  206.1270  145.6390 C   0  0  0  0  0  1  0  0  0  0  0  0
  162.2780  206.0210  145.1330 C   0  0  0  0  0  2  0  0  0  0  0  0
  161.8660  202.6820  146.1910 C   0  0  0  0  0  2  0  0  0  0  0  0
  161.8470  207.4450  151.9620 C   0  0  1  0  0  3  0  0  0  0  0  0
  162.5970  210.3370  151.7440 C   0  0  0  0  0  2  0  0  0  0  0  0
  161.1160  206.5260  148.3210 N   0  0  0  0  0  2  0  0  0  0  0  0
  161.7230  202.8790  147.6990 C   0  0  0  0  0  2  0  0  0  0  0  0
  161.3410  207.6120  150.5180 C   0  0  2  0  0  3  0  0  0  0  0  0
  160.9720  207.7890  154.2030 C   0  0  0  0  0  2  0  0  0  0  0  0
  160.8260  204.0790  148.0170 C   0  0  1  0  0  3  0  0  0  0  0  0
  162.6360  203.7180  145.6470 O   0  0  0  0  0  0  0  0  0  0  0  0
  162.0860  209.7430  153.0620 C   0  0  2  0  0  3  0  0  0  0  0  0
  161.5630  205.0090  150.2720 C   0  0  1  0  0  3  0  0  0  0  0  0
  161.1430  205.5990  146.0330 C   0  0  2  0  0  0  0  0  0  0  0  0
  161.7570  206.4180  149.6410 C   0  0  1  0  0  3  0  0  0  0  0  0
  160.8670  202.5790  151.4880 C   0  0  0  0  0  2  0  0  0  0  0  0
  161.6140  210.1700  150.5930 C   0  0  0  0  0  2  0  0  0  0  0  0
  160.1050  202.8530  150.1850 C   0  0  0  0  0  2  0  0  0  0  0  0
  161.9220  208.8730  149.8580 C   0  0  0  0  0  2  0  0  0  0  0  0
  161.2220  208.4920  152.8770 C   0  0  1  0  0  3  0  0  0  0  0  0
  160.9650  203.8220  152.3230 C   0  0  0  0  0  3  0  0  0  0  0  0
  161.4090  206.1820  152.5270 N   0  0  0  0  0  0  0  0  0  0  0  0
  161.3590  210.7140  153.7540 O   0  0  0  0  0  0  0  0  0  0  0  0
  161.9430  210.7650  155.0260 C   0  0  0  0  0  2  0  0  0  0  0  0
  158.7780  211.8040  155.3450 O   0  0  0  0  0  0  0  0  0  0  0  0
  160.1410  210.4540  156.7220 C   0  0  0  0  0  2  0  0  0  0  0  0
  161.0210  211.4520  156.0300 C   0  0  2  0  0  3  0  0  0  0  0  0
  158.7500  210.9880  156.4850 C   0  0  0  0  0  2  0  0  0  0  0  0
  160.0540  212.3890  155.3380 C   0  0  0  0  0  2  0  0  0  0  0  0
  1 26  2  0  0  0  0
  1 27  1  0  0  0  0
  2 14  1  0  0  0  0
  3  7  1  6  0  0  0
  3 16  1  0  0  0  0
  3 19  1  0  0  0  0
  4 23  1  1  0  0  0
  4 18  1  0  0  0  0
  5 15  1  0  0  0  0
  5 11  1  1  0  0  0
  7 19  1  0  0  0  0
  8 12  1  0  0  0  0
  9 27  1  1  0  0  0
  9 25  1  0  0  0  0
 10 17  1  0  0  0  0
 13 24  1  6  0  0  0
 13  9  1  0  0  0  0
 15 12  1  1  0  0  0
 15  4  1  0  0  0  0
 16  8  1  0  0  0  0
 17 28  1  6  0  0  0
 18  1  1  1  0  0  0
 19  6  1  6  0  0  0
 19  5  1  0  0  0  0
 20 11  1  6  0  0  0
 20 18  1  0  0  0  0
 20 13  1  0  0  0  0
 21 26  1  0  0  0  0
 22 10  1  0  0  0  0
 23 21  1  0  0  0  0
 24 22  1  0  0  0  0
 25 17  1  0  0  0  0
 25 14  1  1  0  0  0
 27  2  1  0  0  0  0
 28 29  1  0  0  0  0
 30 33  1  0  0  0  0
 32 29  1  6  0  0  0
 32 31  1  0  0  0  0
 33 31  1  0  0  0  0
 34 30  1  0  0  0  0
 34 32  1  0  0  0  0
M  END
>  <MODEL>
2

>  <REMARK>
 VINA RESULT:      -8.9      1.992      9.319
  Name = 
  3 active torsions:
  status: ('A' for Active; 'I' for Inactive)
    1  A    between atoms: C_17  and  O_28
    2  A    between atoms: O_28  and  C_29
    3  A    between atoms: C_29  and  C_32
                            x       y       z     vdW  Elec       q    Type
                         _______ _______ _______ _____ _____    ______ ____

>  <TORSDO>
F 3

$$$$
=
 OpenBabel11122414273D

 34 41  0  0  1  0  0  0  0  0999 V2000
  161.4520  207.3080  148.6680 C   0  0  0  0  0  0  0  0  0  0  0  0
  162.1230  209.6200  149.4690 C   0  0  0  0  0  2  0  0  0  0  0  0
  160.5090  200.7440  149.8890 C   0  0  1  0  0  3  0  0  0  0  0  0
  162.0680  204.8870  148.4190 C   0  0  2  0  0  3  0  0  0  0  0  0
  160.9590  203.2970  150.0540 C   0  0  1  0  0  3  0  0  0  0  0  0
  162.5450  201.5280  151.2140 C   0  0  0  0  0  1  0  0  0  0  0  0
  160.0090  201.2170  151.2510 C   0  0  0  0  0  2  0  0  0  0  0  0
  160.4110  201.4240  147.7530 C   0  0  0  0  0  2  0  0  0  0  0  0
  161.0050  208.1300  151.0180 C   0  0  1  0  0  3  0  0  0  0  0  0
  160.3190  208.6600  153.8850 C   0  0  0  0  0  2  0  0  0  0  0  0
  161.4280  204.3280  150.9790 N   0  0  0  0  0  2  0  0  0  0  0  0
  160.6750  202.9180  147.5870 C   0  0  0  0  0  2  0  0  0  0  0  0
  161.4020  206.7300  151.5170 C   0  0  2  0  0  3  0  0  0  0  0  0
  162.0600  210.3100  150.8150 C   0  0  0  0  0  2  0  0  0  0  0  0
  161.6260  203.4360  148.6710 C   0  0  1  0  0  3  0  0  0  0  0  0
  159.6290  201.2020  148.8950 O   0  0  0  0  0  0  0  0  0  0  0  0
  160.9140  209.7550  152.9930 C   0  0  2  0  0  3  0  0  0  0  0  0
  161.0910  205.8980  149.0480 C   0  0  1  0  0  3  0  0  0  0  0  0
  161.1980  201.8970  150.6190 C   0  0  2  0  0  0  0  0  0  0  0  0
  160.8880  205.6340  150.5680 C   0  0  1  0  0  3  0  0  0  0  0  0
  161.8130  206.4490  146.3940 C   0  0  0  0  0  2  0  0  0  0  0  0
  161.2060  207.4250  153.9870 C   0  0  0  0  0  2  0  0  0  0  0  0
  162.4790  205.1890  146.9620 C   0  0  0  0  0  2  0  0  0  0  0  0
  160.8070  206.4340  152.9030 C   0  0  0  0  0  2  0  0  0  0  0  0
  161.7280  209.2110  151.8130 C   0  0  1  0  0  3  0  0  0  0  0  0
  161.8130  207.5580  147.4050 C   0  0  0  0  0  3  0  0  0  0  0  0
  161.4510  208.3450  149.6530 N   0  0  0  0  0  0  0  0  0  0  0  0
  161.7190  210.5940  153.7670 O   0  0  0  0  0  0  0  0  0  0  0  0
  160.8330  211.2450  154.6350 C   0  0  0  0  0  2  0  0  0  0  0  0
  161.3380  209.2350  157.2610 O   0  0  0  0  0  0  0  0  0  0  0  0
  162.7710  210.7200  156.1140 C   0  0  0  0  0  2  0  0  0  0  0  0
  161.3800  211.2780  156.0590 C   0  0  2  0  0  3  0  0  0  0  0  0
  162.6760  209.6420  157.1660 C   0  0  0  0  0  2  0  0  0  0  0  0
  160.5780  210.3810  156.9780 C   0  0  0  0  0  2  0  0  0  0  0  0
  1 27  1  0  0  0  0
  2 27  1  0  0  0  0
  2 14  1  0  0  0  0
  3 19  1  0  0  0  0
  3  7  1  1  0  0  0
  4 23  1  6  0  0  0
  4 15  1  0  0  0  0
  4 18  1  0  0  0  0
  5 19  1  0  0  0  0
  5 11  1  1  0  0  0
  8 16  1  0  0  0  0
  9 27  1  6  0  0  0
  9 13  1  0  0  0  0
  9 25  1  0  0  0  0
 10 22  1  0  0  0  0
 12  8  1  0  0  0  0
 13 24  1  1  0  0  0
 15 12  1  6  0  0  0
 15  5  1  0  0  0  0
 16  3  1  0  0  0  0
 17 28  1  1  0  0  0
 17 10  1  0  0  0  0
 18  1  1  1  0  0  0
 18 20  1  0  0  0  0
 19  6  1  1  0  0  0
 19  7  1  0  0  0  0
 20 11  1  1  0  0  0
 20 13  1  0  0  0  0
 21 23  1  0  0  0  0
 21 26  1  0  0  0  0
 24 22  1  0  0  0  0
 25 14  1  6  0  0  0
 25 17  1  0  0  0  0
 26  1  2  0  0  0  0
 28 29  1  0  0  0  0
 31 33  1  0  0  0  0
 32 29  1  6  0  0  0
 32 31  1  0  0  0  0
 32 34  1  0  0  0  0
 33 30  1  0  0  0  0
 34 30  1  0  0  0  0
M  END
>  <MODEL>
3

>  <REMARK>
 VINA RESULT:      -7.1      1.711      8.570
  Name = 
  3 active torsions:
  status: ('A' for Active; 'I' for Inactive)
    1  A    between atoms: C_17  and  O_28
    2  A    between atoms: O_28  and  C_29
    3  A    between atoms: C_29  and  C_32
                            x       y       z     vdW  Elec       q    Type
                         _______ _______ _______ _____ _____    ______ ____

>  <TORSDO>
F 3

$$$$
=
 OpenBabel11122414273D

 34 41  0  0  1  0  0  0  0  0999 V2000
  160.9020  207.5000  152.1680 C   0  0  0  0  0  0  0  0  0  0  0  0
  161.3250  205.0110  152.4170 C   0  0  0  0  0  2  0  0  0  0  0  0
  161.4580  213.1950  148.6030 C   0  0  1  0  0  3  0  0  0  0  0  0
  161.8590  209.7840  151.7570 C   0  0  2  0  0  3  0  0  0  0  0  0
  161.4750  210.7360  149.4390 C   0  0  1  0  0  3  0  0  0  0  0  0
  163.5790  211.8180  148.2610 C   0  0  0  0  0  1  0  0  0  0  0  0
  161.2230  212.2930  147.3940 C   0  0  0  0  0  2  0  0  0  0  0  0
  160.7320  213.3660  150.7180 C   0  0  0  0  0  2  0  0  0  0  0  0
  160.8920  205.9030  150.2070 C   0  0  1  0  0  3  0  0  0  0  0  0
  160.8310  204.4040  147.6140 C   0  0  0  0  0  2  0  0  0  0  0  0
  161.9610  209.4020  149.0890 N   0  0  0  0  0  2  0  0  0  0  0  0
  160.6790  212.0240  151.4440 C   0  0  0  0  0  2  0  0  0  0  0  0
  161.6390  206.9820  149.4030 C   0  0  2  0  0  3  0  0  0  0  0  0
  161.4650  203.8780  151.4220 C   0  0  0  0  0  2  0  0  0  0  0  0
  161.7550  211.0680  150.9180 C   0  0  1  0  0  3  0  0  0  0  0  0
  160.2980  213.2090  149.3950 O   0  0  0  0  0  0  0  0  0  0  0  0
  160.9910  203.6750  148.9530 C   0  0  2  0  0  3  0  0  0  0  0  0
  160.8980  208.6920  151.2510 C   0  0  1  0  0  3  0  0  0  0  0  0
  162.0860  211.8040  148.5310 C   0  0  2  0  0  0  0  0  0  0  0  0
  161.1150  208.3890  149.7400 C   0  0  1  0  0  3  0  0  0  0  0  0
  160.8540  209.1100  154.0250 C   0  0  0  0  0  2  0  0  0  0  0  0
  161.9210  205.4380  147.3640 C   0  0  0  0  0  2  0  0  0  0  0  0
  161.8490  210.0130  153.2840 C   0  0  0  0  0  2  0  0  0  0  0  0
  161.4560  206.7890  147.8900 C   0  0  0  0  0  2  0  0  0  0  0  0
  161.5810  204.5510  150.0630 C   0  0  1  0  0  3  0  0  0  0  0  0
  160.9000  207.7090  153.4890 C   0  0  0  0  0  3  0  0  0  0  0  0
  160.9530  206.1750  151.6310 N   0  0  0  0  0  0  0  0  0  0  0  0
  161.7960  202.5470  148.7710 O   0  0  0  0  0  0  0  0  0  0  0  0
  160.9660  201.6070  148.1480 C   0  0  0  0  0  2  0  0  0  0  0  0
  160.4560  199.4430  145.6470 O   0  0  0  0  0  0  0  0  0  0  0  0
  160.4290  201.8030  145.7200 C   0  0  0  0  0  2  0  0  0  0  0  0
  161.4320  201.3160  146.7240 C   0  0  2  0  0  3  0  0  0  0  0  0
  160.1450  200.5780  144.8850 C   0  0  0  0  0  2  0  0  0  0  0  0
  161.5280  199.8280  146.4680 C   0  0  0  0  0  2  0  0  0  0  0  0
  1 26  2  0  0  0  0
  3  7  1  6  0  0  0
  3 16  1  0  0  0  0
  4 23  1  1  0  0  0
  5 11  1  6  0  0  0
  5 15  1  0  0  0  0
  7 19  1  0  0  0  0
  8 12  1  0  0  0  0
  9 27  1  1  0  0  0
 10 17  1  0  0  0  0
 13 24  1  6  0  0  0
 13 20  1  0  0  0  0
 13  9  1  0  0  0  0
 14  2  1  0  0  0  0
 15 12  1  1  0  0  0
 15  4  1  0  0  0  0
 16  8  1  0  0  0  0
 17 28  1  6  0  0  0
 17 25  1  0  0  0  0
 18  4  1  0  0  0  0
 18  1  1  1  0  0  0
 19  6  1  6  0  0  0
 19  3  1  0  0  0  0
 19  5  1  0  0  0  0
 20 11  1  1  0  0  0
 20 18  1  0  0  0  0
 22 10  1  0  0  0  0
 22 24  1  0  0  0  0
 23 21  1  0  0  0  0
 25  9  1  0  0  0  0
 25 14  1  1  0  0  0
 26 21  1  0  0  0  0
 27  1  1  0  0  0  0
 27  2  1  0  0  0  0
 29 28  1  0  0  0  0
 30 34  1  0  0  0  0
 31 32  1  0  0  0  0
 32 29  1  1  0  0  0
 33 30  1  0  0  0  0
 33 31  1  0  0  0  0
 34 32  1  0  0  0  0
M  END
>  <MODEL>
4

>  <REMARK>
 VINA RESULT:      -6.7      2.130      4.685
  Name = 
  3 active torsions:
  status: ('A' for Active; 'I' for Inactive)
    1  A    between atoms: C_17  and  O_28
    2  A    between atoms: O_28  and  C_29
    3  A    between atoms: C_29  and  C_32
                            x       y       z     vdW  Elec       q    Type
                         _______ _______ _______ _____ _____    ______ ____

>  <TORSDO>
F 3

$$$$
=
 OpenBabel11122414273D

 34 41  0  0  1  0  0  0  0  0999 V2000
  161.3540  207.7960  149.8220 C   0  0  0  0  0  0  0  0  0  0  0  0
  161.9390  209.9430  151.0390 C   0  0  0  0  0  2  0  0  0  0  0  0
  160.5790  201.0980  149.8270 C   0  0  1  0  0  3  0  0  0  0  0  0
  162.0450  205.4750  149.1610 C   0  0  2  0  0  3  0  0  0  0  0  0
  160.9500  203.5910  150.4570 C   0  0  1  0  0  3  0  0  0  0  0  0
  162.5620  201.6830  151.3240 C   0  0  0  0  0  1  0  0  0  0  0  0
  160.0360  201.3060  151.2380 C   0  0  0  0  0  2  0  0  0  0  0  0
  160.5060  202.1460  147.8450 C   0  0  0  0  0  2  0  0  0  0  0  0
  160.8330  208.1730  152.2680 C   0  0  1  0  0  3  0  0  0  0  0  0
  160.0710  208.1640  155.1650 C   0  0  0  0  0  2  0  0  0  0  0  0
  161.3680  204.4510  151.5630 N   0  0  0  0  0  2  0  0  0  0  0  0
  160.7290  203.6530  147.9550 C   0  0  0  0  0  2  0  0  0  0  0  0
  161.2600  206.7170  152.5200 C   0  0  2  0  0  3  0  0  0  0  0  0
  161.8270  210.3800  152.4850 C   0  0  0  0  0  2  0  0  0  0  0  0
  161.6420  203.9910  149.1390 C   0  0  1  0  0  3  0  0  0  0  0  0
  159.7070  201.7050  148.9080 O   0  0  0  0  0  0  0  0  0  0  0  0
  160.6520  209.4150  154.4980 C   0  0  2  0  0  3  0  0  0  0  0  0
  161.0260  206.3320  149.9340 C   0  0  1  0  0  3  0  0  0  0  0  0
  161.2180  202.1180  150.7690 C   0  0  2  0  0  0  0  0  0  0  0  0
  160.7990  205.7950  151.3770 C   0  0  1  0  0  3  0  0  0  0  0  0
  161.7880  207.3670  147.4400 C   0  0  0  0  0  2  0  0  0  0  0  0
  160.9920  206.9540  155.0680 C   0  0  0  0  0  2  0  0  0  0  0  0
  162.4790  206.0430  147.7920 C   0  0  0  0  0  2  0  0  0  0  0  0
  160.6450  206.1620  153.8140 C   0  0  0  0  0  2  0  0  0  0  0  0
  161.5060  209.1120  153.2620 C   0  0  1  0  0  3  0  0  0  0  0  0
  161.7340  208.2770  148.6330 C   0  0  0  0  0  3  0  0  0  0  0  0
  161.3010  208.6400  150.9760 N   0  0  0  0  0  0  0  0  0  0  0  0
  161.4160  210.1220  155.4300 O   0  0  0  0  0  0  0  0  0  0  0  0
  160.4800  210.7660  156.2500 C   0  0  0  0  0  2  0  0  0  0  0  0
  157.7400  212.6500  156.6190 O   0  0  0  0  0  0  0  0  0  0  0  0
  159.7070  212.9600  155.3500 C   0  0  0  0  0  2  0  0  0  0  0  0
  159.4230  211.4880  155.4190 C   0  0  2  0  0  3  0  0  0  0  0  0
  158.4220  213.5880  155.8320 C   0  0  0  0  0  2  0  0  0  0  0  0
  158.0570  211.3990  156.0670 C   0  0  0  0  0  2  0  0  0  0  0  0
  1 27  1  0  0  0  0
  2 14  1  0  0  0  0
  3 19  1  0  0  0  0
  3  7  1  1  0  0  0
  4 23  1  6  0  0  0
  4 18  1  0  0  0  0
  5 19  1  0  0  0  0
  5 11  1  1  0  0  0
  8 12  1  0  0  0  0
  8 16  1  0  0  0  0
  9 27  1  6  0  0  0
  9 13  1  0  0  0  0
  9 25  1  0  0  0  0
 13 24  1  1  0  0  0
 15 12  1  6  0  0  0
 15  4  1  0  0  0  0
 15  5  1  0  0  0  0
 16  3  1  0  0  0  0
 17 10  1  0  0  0  0
 17 28  1  1  0  0  0
 18  1  1  1  0  0  0
 18 20  1  0  0  0  0
 19  7  1  0  0  0  0
 19  6  1  1  0  0  0
 20 11  1  6  0  0  0
 20 13  1  0  0  0  0
 21 23  1  0  0  0  0
 21 26  1  0  0  0  0
 22 10  1  0  0  0  0
 24 22  1  0  0  0  0
 25 14  1  6  0  0  0
 25 17  1  0  0  0  0
 26  1  2  0  0  0  0
 27  2  1  0  0  0  0
 28 29  1  0  0  0  0
 31 32  1  0  0  0  0
 31 33  1  0  0  0  0
 32 34  1  0  0  0  0
 32 29  1  1  0  0  0
 33 30  1  0  0  0  0
 34 30  1  0  0  0  0
M  END
>  <MODEL>
5

>  <REMARK>
 VINA RESULT:      -6.7      2.060      8.736
  Name = 
  3 active torsions:
  status: ('A' for Active; 'I' for Inactive)
    1  A    between atoms: C_17  and  O_28
    2  A    between atoms: O_28  and  C_29
    3  A    between atoms: C_29  and  C_32
                            x       y       z     vdW  Elec       q    Type
                         _______ _______ _______ _____ _____    ______ ____

>  <TORSDO>
F 3

$$$$
