=
 OpenBabel11122412383D

 30 35  0  0  1  0  0  0  0  0999 V2000
  161.2410  205.7530  149.9150 C   0  0  0  0  0  0  0  0  0  0  0  0
  161.2290  203.2390  149.6900 C   0  0  0  0  0  0  0  0  0  0  0  0
  160.8790  205.4740  154.0060 N   0  0  0  0  0  2  0  0  0  0  0  0
  161.2240  206.9120  150.7540 C   0  0  0  0  0  0  0  0  0  0  0  0
  161.3290  205.9320  148.5730 N   0  0  0  0  0  0  0  0  0  0  0  0
  161.6630  209.4210  148.2970 O   0  0  0  0  0  0  0  0  0  0  0  0
  160.4920  209.7300  151.8260 C   0  0  1  0  0  3  0  0  0  0  0  0
  161.5110  208.2830  148.8240 C   0  0  0  0  0  0  0  0  0  0  0  0
  160.3770  208.9820  153.1410 C   0  0  2  0  0  3  0  0  0  0  0  0
  160.7500  206.7930  154.2540 C   0  0  0  0  0  0  0  0  0  0  0  0
  161.4350  207.1560  148.0060 C   0  0  0  0  0  0  0  0  0  0  0  0
  161.4370  208.1490  150.1850 N   0  0  0  0  0  0  0  0  0  0  0  0
  161.1980  201.9900  150.3160 C   0  0  0  0  0  3  0  0  0  0  0  0
  161.0830  209.8450  154.1660 C   0  0  0  0  0  2  0  0  0  0  0  0
  160.5870  211.2000  152.2030 C   0  0  0  0  0  2  0  0  0  0  0  0
  161.3090  203.1870  147.9310 Cl  0  0  0  0  0  0  0  0  0  0  0  0
  161.0530  205.4400  152.6730 C   0  0  0  0  0  0  0  0  0  0  0  0
  161.1300  201.8830  151.7030 C   0  0  0  0  0  3  0  0  0  0  0  0
  161.1940  204.4340  150.4720 C   0  0  0  0  0  0  0  0  0  0  0  0
  161.0550  206.7060  152.1440 C   0  0  0  0  0  0  0  0  0  0  0  0
  160.5050  207.2340  155.4090 O   0  0  0  0  0  0  0  0  0  0  0  0
  160.8500  207.5880  153.1580 N   0  0  0  0  0  0  0  0  0  0  0  0
  160.8540  211.2670  153.7000 C   0  0  0  0  0  2  0  0  0  0  0  0
  163.0380  209.2680  151.7140 C   0  0  0  0  0  1  0  0  0  0  0  0
  161.0900  203.0310  152.4850 C   0  0  0  0  0  3  0  0  0  0  0  0
  161.1240  204.2960  151.8870 C   0  0  0  0  0  0  0  0  0  0  0  0
  161.6980  209.3450  150.9830 C   0  0  2  0  0  3  0  0  0  0  0  0
  161.5110  207.2860  146.5860 N   0  0  0  0  0  2  0  0  0  0  0  0
  160.1010  206.0940  145.2340 C   0  0  0  0  0  1  0  0  0  0  0  0
  161.4540  206.1620  145.7520 N   0  0  0  0  0  2  0  0  0  0  0  0
  1 19  2  0  0  0  0
  1  4  1  0  0  0  0
  2 13  2  0  0  0  0
  2 19  1  0  0  0  0
  3 10  1  0  0  0  0
  4 20  2  0  0  0  0
  5  1  1  0  0  0  0
  6  8  2  0  0  0  0
  7 15  1  1  0  0  0
  7  9  1  0  0  0  0
  8 12  1  0  0  0  0
  9 22  1  0  0  0  0
  9 14  1  1  0  0  0
 10 21  2  0  0  0  0
 11  5  2  0  0  0  0
 11  8  1  0  0  0  0
 12  4  1  0  0  0  0
 12 27  1  0  0  0  0
 13 18  1  0  0  0  0
 15 23  1  0  0  0  0
 16  2  1  0  0  0  0
 17  3  1  0  0  0  0
 18 25  2  0  0  0  0
 19 26  1  0  0  0  0
 20 17  1  0  0  0  0
 20 22  1  0  0  0  0
 22 10  1  0  0  0  0
 23 14  1  0  0  0  0
 26 25  1  0  0  0  0
 26 17  2  0  0  0  0
 27 24  1  1  0  0  0
 27  7  1  0  0  0  0
 28 11  1  0  0  0  0
 29 30  1  0  0  0  0
 30 28  1  0  0  0  0
M  END
>  <MODEL>
1

>  <REMARK>
 VINA RESULT:      -8.0      0.000      0.000
  Name = 
  1 active torsions:
  status: ('A' for Active; 'I' for Inactive)
    1  A    between atoms: N_28  and  N_30
                            x       y       z     vdW  Elec       q    Type
                         _______ _______ _______ _____ _____    ______ ____

>  <TORSDO>
F 1

$$$$
=
 OpenBabel11122412383D

 30 35  0  0  1  0  0  0  0  0999 V2000
  161.2980  207.9080  151.5580 C   0  0  0  0  0  0  0  0  0  0  0  0
  161.6420  210.3610  151.0740 C   0  0  0  0  0  0  0  0  0  0  0  0
  161.8150  206.9630  147.5850 N   0  0  0  0  0  2  0  0  0  0  0  0
  161.2650  206.5560  151.0910 C   0  0  0  0  0  0  0  0  0  0  0  0
  161.0850  208.1370  152.8780 N   0  0  0  0  0  0  0  0  0  0  0  0
  160.7960  204.8820  154.1740 O   0  0  0  0  0  0  0  0  0  0  0  0
  160.3240  203.6270  150.6930 C   0  0  1  0  0  3  0  0  0  0  0  0
  160.9360  205.8150  153.3340 C   0  0  0  0  0  0  0  0  0  0  0  0
  160.5960  203.9460  149.2350 C   0  0  2  0  0  3  0  0  0  0  0  0
  161.5300  205.6490  147.6850 C   0  0  0  0  0  0  0  0  0  0  0  0
  160.8780  207.1390  153.7680 C   0  0  0  0  0  0  0  0  0  0  0  0
  161.1590  205.5360  152.0120 N   0  0  0  0  0  0  0  0  0  0  0  0
  161.9380  211.3580  150.1390 C   0  0  0  0  0  3  0  0  0  0  0  0
  161.3470  202.7510  148.6860 C   0  0  0  0  0  2  0  0  0  0  0  0
  160.2570  202.1090  150.7680 C   0  0  0  0  0  2  0  0  0  0  0  0
  161.3740  210.9370  152.7170 Cl  0  0  0  0  0  0  0  0  0  0  0  0
  161.7210  207.3840  148.8580 C   0  0  0  0  0  0  0  0  0  0  0  0
  162.1680  211.0450  148.8030 C   0  0  0  0  0  3  0  0  0  0  0  0
  161.5750  208.9940  150.6660 C   0  0  0  0  0  0  0  0  0  0  0  0
  161.4150  206.3450  149.7000 C   0  0  0  0  0  0  0  0  0  0  0  0
  161.4550  204.9020  146.6730 O   0  0  0  0  0  0  0  0  0  0  0  0
  161.2790  205.2190  148.9490 N   0  0  0  0  0  0  0  0  0  0  0  0
  160.8050  201.5660  149.4570 C   0  0  0  0  0  2  0  0  0  0  0  0
  162.8360  203.8610  151.2790 C   0  0  0  0  0  1  0  0  0  0  0  0
  162.1030  209.7220  148.3800 C   0  0  0  0  0  3  0  0  0  0  0  0
  161.8140  208.7010  149.2930 C   0  0  0  0  0  0  0  0  0  0  0  0
  161.3810  204.1350  151.6610 C   0  0  2  0  0  3  0  0  0  0  0  0
  160.6450  207.4410  155.1440 N   0  0  0  0  0  2  0  0  0  0  0  0
  161.7520  208.9470  156.4650 C   0  0  0  0  0  1  0  0  0  0  0  0
  160.6020  208.7660  155.5990 N   0  0  0  0  0  2  0  0  0  0  0  0
  1  5  1  0  0  0  0
  2 16  1  0  0  0  0
  3 10  1  0  0  0  0
  3 17  1  0  0  0  0
  4  1  1  0  0  0  0
  4 12  1  0  0  0  0
  5 11  2  0  0  0  0
  7 15  1  6  0  0  0
  7 27  1  0  0  0  0
  8 11  1  0  0  0  0
  8  6  2  0  0  0  0
  9 14  1  1  0  0  0
  9  7  1  0  0  0  0
 10 22  1  0  0  0  0
 11 28  1  0  0  0  0
 12  8  1  0  0  0  0
 13  2  2  0  0  0  0
 14 23  1  0  0  0  0
 17 26  2  0  0  0  0
 17 20  1  0  0  0  0
 18 13  1  0  0  0  0
 19  2  1  0  0  0  0
 19  1  2  0  0  0  0
 20  4  2  0  0  0  0
 21 10  2  0  0  0  0
 22  9  1  0  0  0  0
 22 20  1  0  0  0  0
 23 15  1  0  0  0  0
 25 18  2  0  0  0  0
 25 26  1  0  0  0  0
 26 19  1  0  0  0  0
 27 24  1  6  0  0  0
 27 12  1  0  0  0  0
 28 30  1  0  0  0  0
 30 29  1  0  0  0  0
M  END
>  <MODEL>
2

>  <REMARK>
 VINA RESULT:      -6.8      2.441      7.153
  Name = 
  1 active torsions:
  status: ('A' for Active; 'I' for Inactive)
    1  A    between atoms: N_28  and  N_30
                            x       y       z     vdW  Elec       q    Type
                         _______ _______ _______ _____ _____    ______ ____

>  <TORSDO>
F 1

$$$$
=
 OpenBabel11122412383D

 30 35  0  0  1  0  0  0  0  0999 V2000
  161.4930  208.0100  151.1600 C   0  0  0  0  0  0  0  0  0  0  0  0
  161.4080  209.0660  153.4510 C   0  0  0  0  0  0  0  0  0  0  0  0
  160.8040  204.2810  152.7610 N   0  0  0  0  0  2  0  0  0  0  0  0
  161.3700  206.8450  150.3390 C   0  0  0  0  0  0  0  0  0  0  0  0
  161.7530  209.1970  150.5570 N   0  0  0  0  0  0  0  0  0  0  0  0
  161.7110  208.3380  147.1480 O   0  0  0  0  0  0  0  0  0  0  0  0
  161.9800  204.7500  148.1340 C   0  0  1  0  0  3  0  0  0  0  0  0
  161.6570  208.2090  148.4040 C   0  0  0  0  0  0  0  0  0  0  0  0
  161.7180  203.7740  149.2650 C   0  0  2  0  0  3  0  0  0  0  0  0
  160.9460  203.5780  151.6190 C   0  0  0  0  0  0  0  0  0  0  0  0
  161.8660  209.3230  149.2150 C   0  0  0  0  0  0  0  0  0  0  0  0
  161.3810  206.9920  148.9680 N   0  0  0  0  0  0  0  0  0  0  0  0
  161.2060  208.9100  154.8250 C   0  0  0  0  0  3  0  0  0  0  0  0
  160.8310  202.6950  148.6790 C   0  0  0  0  0  2  0  0  0  0  0  0
  161.8830  203.9260  146.8590 C   0  0  0  0  0  2  0  0  0  0  0  0
  161.7670  210.7120  152.9350 Cl  0  0  0  0  0  0  0  0  0  0  0  0
  160.9660  205.5500  152.3490 C   0  0  0  0  0  0  0  0  0  0  0  0
  160.9190  207.6620  155.3720 C   0  0  0  0  0  3  0  0  0  0  0  0
  161.3190  207.9370  152.5810 C   0  0  0  0  0  0  0  0  0  0  0  0
  161.1730  205.6060  150.9940 C   0  0  0  0  0  0  0  0  0  0  0  0
  160.9220  202.3180  151.6020 O   0  0  0  0  0  0  0  0  0  0  0  0
  161.1720  204.3340  150.5130 N   0  0  0  0  0  0  0  0  0  0  0  0
  161.2560  202.5900  147.2290 C   0  0  0  0  0  2  0  0  0  0  0  0
  159.5200  205.5580  148.1750 C   0  0  0  0  0  1  0  0  0  0  0  0
  160.8320  206.5480  154.5450 C   0  0  0  0  0  3  0  0  0  0  0  0
  161.0240  206.6740  153.1650 C   0  0  0  0  0  0  0  0  0  0  0  0
  161.0020  205.9120  148.0600 C   0  0  2  0  0  3  0  0  0  0  0  0
  162.1560  210.5970  148.6360 N   0  0  0  0  0  2  0  0  0  0  0  0
  161.3740  212.7150  149.0110 C   0  0  0  0  0  1  0  0  0  0  0  0
  162.3510  211.7300  149.4360 N   0  0  0  0  0  2  0  0  0  0  0  0
  1 19  1  0  0  0  0
  2 13  1  0  0  0  0
  4 20  1  0  0  0  0
  4  1  2  0  0  0  0
  5  1  1  0  0  0  0
  6  8  2  0  0  0  0
  7 15  1  6  0  0  0
  7  9  1  0  0  0  0
  8 12  1  0  0  0  0
  8 11  1  0  0  0  0
  9 14  1  6  0  0  0
  9 22  1  0  0  0  0
 10  3  1  0  0  0  0
 11  5  2  0  0  0  0
 12  4  1  0  0  0  0
 13 18  2  0  0  0  0
 15 23  1  0  0  0  0
 16  2  1  0  0  0  0
 17  3  1  0  0  0  0
 17 26  1  0  0  0  0
 19 26  1  0  0  0  0
 19  2  2  0  0  0  0
 20 17  2  0  0  0  0
 21 10  2  0  0  0  0
 22 20  1  0  0  0  0
 22 10  1  0  0  0  0
 23 14  1  0  0  0  0
 25 18  1  0  0  0  0
 26 25  2  0  0  0  0
 27  7  1  0  0  0  0
 27 24  1  1  0  0  0
 27 12  1  0  0  0  0
 28 11  1  0  0  0  0
 28 30  1  0  0  0  0
 29 30  1  0  0  0  0
M  END
>  <MODEL>
3

>  <REMARK>
 VINA RESULT:      -6.5      2.671      5.614
  Name = 
  1 active torsions:
  status: ('A' for Active; 'I' for Inactive)
    1  A    between atoms: N_28  and  N_30
                            x       y       z     vdW  Elec       q    Type
                         _______ _______ _______ _____ _____    ______ ____

>  <TORSDO>
F 1

$$$$
=
 OpenBabel11122412383D

 30 35  0  0  1  0  0  0  0  0999 V2000
  161.0340  209.1540  151.7460 C   0  0  0  0  0  0  0  0  0  0  0  0
  161.2210  211.4760  150.7750 C   0  0  0  0  0  0  0  0  0  0  0  0
  161.9250  207.4660  148.0990 N   0  0  0  0  0  2  0  0  0  0  0  0
  161.1430  207.7380  151.5740 C   0  0  0  0  0  0  0  0  0  0  0  0
  160.7040  209.6290  152.9730 N   0  0  0  0  0  0  0  0  0  0  0  0
  160.5730  206.6970  154.9090 O   0  0  0  0  0  0  0  0  0  0  0  0
  160.4680  204.7150  151.7500 C   0  0  1  0  0  3  0  0  0  0  0  0
  160.7040  207.4470  153.9000 C   0  0  0  0  0  0  0  0  0  0  0  0
  160.8250  204.7520  150.2750 C   0  0  2  0  0  3  0  0  0  0  0  0
  161.7370  206.1790  148.4580 C   0  0  0  0  0  0  0  0  0  0  0  0
  160.5090  208.8210  154.0400 C   0  0  0  0  0  0  0  0  0  0  0  0
  161.0480  206.9230  152.6820 N   0  0  0  0  0  0  0  0  0  0  0  0
  161.5070  212.2830  149.6700 C   0  0  0  0  0  3  0  0  0  0  0  0
  161.7070  203.5440  150.0360 C   0  0  0  0  0  2  0  0  0  0  0  0
  160.5150  203.2460  152.1400 C   0  0  0  0  0  2  0  0  0  0  0  0
  160.7840  212.3500  152.2410 Cl  0  0  0  0  0  0  0  0  0  0  0  0
  161.7020  208.1290  149.2470 C   0  0  0  0  0  0  0  0  0  0  0  0
  161.8630  211.7250  148.4450 C   0  0  0  0  0  3  0  0  0  0  0  0
  161.2930  210.0550  150.6620 C   0  0  0  0  0  0  0  0  0  0  0  0
  161.4150  207.2600  150.2700 C   0  0  0  0  0  0  0  0  0  0  0  0
  161.7980  205.2370  147.6230 O   0  0  0  0  0  0  0  0  0  0  0  0
  161.4250  205.9970  149.7670 N   0  0  0  0  0  0  0  0  0  0  0  0
  161.2020  202.4980  151.0070 C   0  0  0  0  0  2  0  0  0  0  0  0
  162.9020  205.2970  152.4180 C   0  0  0  0  0  1  0  0  0  0  0  0
  161.9340  210.3430  148.3090 C   0  0  0  0  0  3  0  0  0  0  0  0
  161.6580  209.5100  149.3990 C   0  0  0  0  0  0  0  0  0  0  0  0
  161.4060  205.5070  152.6480 C   0  0  2  0  0  3  0  0  0  0  0  0
  160.1490  209.3760  155.3050 N   0  0  0  0  0  2  0  0  0  0  0  0
  159.8580  210.9990  156.8930 C   0  0  0  0  0  1  0  0  0  0  0  0
  159.9680  210.7560  155.4670 N   0  0  0  0  0  2  0  0  0  0  0  0
  1  5  1  0  0  0  0
  2 16  1  0  0  0  0
  3 10  1  0  0  0  0
  3 17  1  0  0  0  0
  4  1  1  0  0  0  0
  4 12  1  0  0  0  0
  5 11  2  0  0  0  0
  7 15  1  1  0  0  0
  7 27  1  0  0  0  0
  8 11  1  0  0  0  0
  8  6  2  0  0  0  0
  9 14  1  1  0  0  0
  9  7  1  0  0  0  0
 10 22  1  0  0  0  0
 11 28  1  0  0  0  0
 12  8  1  0  0  0  0
 13  2  2  0  0  0  0
 14 23  1  0  0  0  0
 17 26  2  0  0  0  0
 17 20  1  0  0  0  0
 18 13  1  0  0  0  0
 19  2  1  0  0  0  0
 19  1  2  0  0  0  0
 20  4  2  0  0  0  0
 21 10  2  0  0  0  0
 22 20  1  0  0  0  0
 22  9  1  0  0  0  0
 23 15  1  0  0  0  0
 25 18  2  0  0  0  0
 25 26  1  0  0  0  0
 26 19  1  0  0  0  0
 27 24  1  6  0  0  0
 27 12  1  0  0  0  0
 28 30  1  0  0  0  0
 30 29  1  0  0  0  0
M  END
>  <MODEL>
4

>  <REMARK>
 VINA RESULT:      -6.1      2.625      7.140
  Name = 
  1 active torsions:
  status: ('A' for Active; 'I' for Inactive)
    1  A    between atoms: N_28  and  N_30
                            x       y       z     vdW  Elec       q    Type
                         _______ _______ _______ _____ _____    ______ ____

>  <TORSDO>
F 1

$$$$
=
 OpenBabel11122412383D

 30 35  0  0  1  0  0  0  0  0999 V2000
  161.2050  208.4800  151.3820 C   0  0  0  0  0  0  0  0  0  0  0  0
  161.6330  206.4370  149.9640 C   0  0  0  0  0  0  0  0  0  0  0  0
  160.5690  206.1430  154.7090 N   0  0  0  0  0  2  0  0  0  0  0  0
  160.9260  209.0500  152.6650 C   0  0  0  0  0  0  0  0  0  0  0  0
  161.3690  209.3190  150.3280 N   0  0  0  0  0  0  0  0  0  0  0  0
  161.1330  212.4850  151.8390 O   0  0  0  0  0  0  0  0  0  0  0  0
  159.6490  210.8490  154.8460 C   0  0  1  0  0  3  0  0  0  0  0  0
  161.1330  211.2280  151.7150 C   0  0  0  0  0  0  0  0  0  0  0  0
  159.5560  209.5340  155.5960 C   0  0  2  0  0  3  0  0  0  0  0  0
  160.2010  207.1350  155.5450 C   0  0  0  0  0  0  0  0  0  0  0  0
  161.3130  210.6650  150.4520 C   0  0  0  0  0  0  0  0  0  0  0  0
  160.9730  210.4200  152.8100 N   0  0  0  0  0  0  0  0  0  0  0  0
  161.7620  205.0470  149.8900 C   0  0  0  0  0  3  0  0  0  0  0  0
  160.0240  209.8320  157.0050 C   0  0  0  0  0  2  0  0  0  0  0  0
  159.4650  211.9290  155.9000 C   0  0  0  0  0  2  0  0  0  0  0  0
  161.8610  207.2870  148.4370 Cl  0  0  0  0  0  0  0  0  0  0  0  0
  160.8530  206.8030  153.5730 C   0  0  0  0  0  0  0  0  0  0  0  0
  161.6030  204.2500  151.0200 C   0  0  0  0  0  3  0  0  0  0  0  0
  161.3360  207.0640  151.2120 C   0  0  0  0  0  0  0  0  0  0  0  0
  160.6850  208.1550  153.7340 C   0  0  0  0  0  0  0  0  0  0  0  0
  159.7940  206.9060  156.7160 O   0  0  0  0  0  0  0  0  0  0  0  0
  160.2540  208.3800  155.0040 N   0  0  0  0  0  0  0  0  0  0  0  0
  159.5970  211.2620  157.2600 C   0  0  0  0  0  2  0  0  0  0  0  0
  162.2370  210.7780  154.9130 C   0  0  0  0  0  1  0  0  0  0  0  0
  161.3080  204.8370  152.2450 C   0  0  0  0  0  3  0  0  0  0  0  0
  161.1780  206.2260  152.3510 C   0  0  0  0  0  0  0  0  0  0  0  0
  160.9660  211.0710  154.1170 C   0  0  2  0  0  3  0  0  0  0  0  0
  161.4790  211.5000  149.3050 N   0  0  0  0  0  2  0  0  0  0  0  0
  161.0160  211.8310  147.0880 C   0  0  0  0  0  1  0  0  0  0  0  0
  161.6780  210.9500  148.0320 N   0  0  0  0  0  2  0  0  0  0  0  0
  1  4  1  0  0  0  0
  2 19  1  0  0  0  0
  3 10  1  0  0  0  0
  4 12  1  0  0  0  0
  4 20  2  0  0  0  0
  5 11  2  0  0  0  0
  5  1  1  0  0  0  0
  7  9  1  0  0  0  0
  7 15  1  1  0  0  0
  8  6  2  0  0  0  0
  8 12  1  0  0  0  0
  9 14  1  1  0  0  0
 10 21  2  0  0  0  0
 11  8  1  0  0  0  0
 12 27  1  0  0  0  0
 13  2  2  0  0  0  0
 13 18  1  0  0  0  0
 14 23  1  0  0  0  0
 15 23  1  0  0  0  0
 16  2  1  0  0  0  0
 17 20  1  0  0  0  0
 17  3  1  0  0  0  0
 18 25  2  0  0  0  0
 19  1  2  0  0  0  0
 19 26  1  0  0  0  0
 20 22  1  0  0  0  0
 22 10  1  0  0  0  0
 22  9  1  0  0  0  0
 25 26  1  0  0  0  0
 26 17  2  0  0  0  0
 27  7  1  0  0  0  0
 27 24  1  1  0  0  0
 28 11  1  0  0  0  0
 29 30  1  0  0  0  0
 30 28  1  0  0  0  0
M  END
>  <MODEL>
5

>  <REMARK>
 VINA RESULT:      -5.9      2.394      3.428
  Name = 
  1 active torsions:
  status: ('A' for Active; 'I' for Inactive)
    1  A    between atoms: N_28  and  N_30
                            x       y       z     vdW  Elec       q    Type
                         _______ _______ _______ _____ _____    ______ ____

>  <TORSDO>
F 1

$$$$
=
 OpenBabel11122412383D

 30 35  0  0  1  0  0  0  0  0999 V2000
  161.4450  206.1450  150.3640 C   0  0  0  0  0  0  0  0  0  0  0  0
  161.1710  205.3580  152.7470 C   0  0  0  0  0  0  0  0  0  0  0  0
  160.7970  202.3380  148.9420 N   0  0  0  0  0  2  0  0  0  0  0  0
  161.4210  205.8550  148.9640 C   0  0  0  0  0  0  0  0  0  0  0  0
  161.6990  207.4200  150.7520 N   0  0  0  0  0  0  0  0  0  0  0  0
  161.9110  209.1160  147.6800 O   0  0  0  0  0  0  0  0  0  0  0  0
  162.2530  205.8150  145.9750 C   0  0  1  0  0  3  0  0  0  0  0  0
  161.7810  208.1670  148.5030 C   0  0  0  0  0  0  0  0  0  0  0  0
  161.9550  204.3340  146.1170 C   0  0  2  0  0  3  0  0  0  0  0  0
  161.0410  202.5990  147.6420 C   0  0  0  0  0  0  0  0  0  0  0  0
  161.8940  208.4260  149.8690 C   0  0  0  0  0  0  0  0  0  0  0  0
  161.5160  206.8960  148.0660 N   0  0  0  0  0  0  0  0  0  0  0  0
  160.8860  204.3100  153.6270 C   0  0  0  0  0  3  0  0  0  0  0  0
  161.1510  203.9590  144.8890 C   0  0  0  0  0  2  0  0  0  0  0  0
  162.2710  206.0830  144.4790 C   0  0  0  0  0  2  0  0  0  0  0  0
  161.4990  206.9080  153.5170 Cl  0  0  0  0  0  0  0  0  0  0  0  0
  160.9370  203.5440  149.5180 C   0  0  0  0  0  0  0  0  0  0  0  0
  160.6120  203.0300  153.1550 C   0  0  0  0  0  3  0  0  0  0  0  0
  161.1820  205.1270  151.3380 C   0  0  0  0  0  0  0  0  0  0  0  0
  161.2290  204.5050  148.5830 C   0  0  0  0  0  0  0  0  0  0  0  0
  161.0650  201.6890  146.7700 O   0  0  0  0  0  0  0  0  0  0  0  0
  161.3080  203.9020  147.3670 N   0  0  0  0  0  0  0  0  0  0  0  0
  161.6730  204.8630  143.7930 C   0  0  0  0  0  2  0  0  0  0  0  0
  159.7660  206.4180  146.3740 C   0  0  0  0  0  1  0  0  0  0  0  0
  160.6220  202.7790  151.7880 C   0  0  0  0  0  3  0  0  0  0  0  0
  160.8990  203.8090  150.8820 C   0  0  0  0  0  0  0  0  0  0  0  0
  161.2380  206.7320  146.6410 C   0  0  2  0  0  3  0  0  0  0  0  0
  162.1720  209.7470  150.3340 N   0  0  0  0  0  2  0  0  0  0  0  0
  160.9920  210.5810  152.1090 C   0  0  0  0  0  1  0  0  0  0  0  0
  162.2700  210.0280  151.7030 N   0  0  0  0  0  2  0  0  0  0  0  0
  1  5  1  0  0  0  0
  1 19  1  0  0  0  0
  2 16  1  0  0  0  0
  2 13  1  0  0  0  0
  3 17  1  0  0  0  0
  4  1  2  0  0  0  0
  6  8  2  0  0  0  0
  7 15  1  6  0  0  0
  7  9  1  0  0  0  0
  7 27  1  0  0  0  0
  8 11  1  0  0  0  0
  9 14  1  6  0  0  0
  9 22  1  0  0  0  0
 10  3  1  0  0  0  0
 11 28  1  0  0  0  0
 11  5  2  0  0  0  0
 12  8  1  0  0  0  0
 12  4  1  0  0  0  0
 17 26  1  0  0  0  0
 18 13  2  0  0  0  0
 19  2  2  0  0  0  0
 20  4  1  0  0  0  0
 20 17  2  0  0  0  0
 21 10  2  0  0  0  0
 22 10  1  0  0  0  0
 22 20  1  0  0  0  0
 23 15  1  0  0  0  0
 23 14  1  0  0  0  0
 25 18  1  0  0  0  0
 26 19  1  0  0  0  0
 26 25  2  0  0  0  0
 27 24  1  1  0  0  0
 27 12  1  0  0  0  0
 28 30  1  0  0  0  0
 30 29  1  0  0  0  0
M  END
>  <MODEL>
6

>  <REMARK>
 VINA RESULT:      -5.8      2.506      5.988
  Name = 
  1 active torsions:
  status: ('A' for Active; 'I' for Inactive)
    1  A    between atoms: N_28  and  N_30
                            x       y       z     vdW  Elec       q    Type
                         _______ _______ _______ _____ _____    ______ ____

>  <TORSDO>
F 1

$$$$
