=
 OpenBabel11122412323D

 30 35  0  0  1  0  0  0  0  0999 V2000
  161.3140  207.6190  151.5330 C   0  0  1  0  0  3  0  0  0  0  0  0
  162.1440  209.9900  150.9830 C   0  0  0  0  0  0  0  0  0  0  0  0
  161.6100  206.7060  147.4660 N   0  0  0  0  0  2  0  0  0  0  0  0
  161.5890  206.2300  150.9470 C   0  0  1  0  0  3  0  0  0  0  0  0
  162.0140  207.7300  152.8120 N   0  0  0  0  0  2  0  0  0  0  0  0
  161.0410  204.5590  154.1790 O   0  0  0  0  0  0  0  0  0  0  0  0
  160.2130  203.3430  150.5460 C   0  0  1  0  0  3  0  0  0  0  0  0
  161.2170  205.4750  153.3320 C   0  0  0  0  0  0  0  0  0  0  0  0
  160.4470  203.6830  149.1270 N   0  0  2  0  0  0  0  0  0  0  0  0
  161.4150  205.2650  147.4760 C   0  0  1  0  0  3  0  0  0  0  0  0
  161.3450  206.8910  153.8100 C   0  0  2  0  0  3  0  0  0  0  0  0
  161.2700  205.1670  151.9240 N   0  0  0  0  0  0  0  0  0  0  0  0
  162.4610  210.9740  150.0430 C   0  0  0  0  0  3  0  0  0  0  0  0
  161.0410  202.4850  148.5470 C   0  0  0  0  0  2  0  0  0  0  0  0
  159.9920  201.8440  150.6160 C   0  0  0  0  0  2  0  0  0  0  0  0
  162.2470  210.3130  152.3310 O   0  0  0  0  0  1  0  0  0  0  0  0
  160.9180  207.1990  148.6520 C   0  0  1  0  0  3  0  0  0  0  0  0
  162.3200  210.7220  148.6820 C   0  0  0  0  0  3  0  0  0  0  0  0
  161.7170  208.7070  150.5570 C   0  0  0  0  0  0  0  0  0  0  0  0
  160.7980  206.0460  149.6540 C   0  0  1  0  0  3  0  0  0  0  0  0
  162.5920  204.6000  146.7890 C   0  0  0  0  0  1  0  0  0  0  0  0
  161.3380  204.8350  148.9300 C   0  0  1  0  0  3  0  0  0  0  0  0
  160.4540  201.3000  149.2830 C   0  0  0  0  0  2  0  0  0  0  0  0
  162.7350  203.3100  151.1720 C   0  0  0  0  0  1  0  0  0  0  0  0
  161.8460  209.4860  148.2500 C   0  0  0  0  0  3  0  0  0  0  0  0
  161.5430  208.4740  149.1710 C   0  0  0  0  0  0  0  0  0  0  0  0
  161.3230  203.7490  151.5480 C   0  0  2  0  0  3  0  0  0  0  0  0
  159.9810  207.4610  154.1980 C   0  0  0  0  0  2  0  0  0  0  0  0
  160.1110  207.0170  156.6490 C   0  0  0  0  0  1  0  0  0  0  0  0
  160.0190  208.0910  155.5810 C   0  0  0  0  0  2  0  0  0  0  0  0
  1 19  1  6  0  0  0
  1  5  1  0  0  0  0
  2 16  1  0  0  0  0
  3 10  1  0  0  0  0
  4  1  1  0  0  0  0
  4 12  1  1  0  0  0
  5 11  1  0  0  0  0
  7 15  1  6  0  0  0
  7 27  1  0  0  0  0
  8 11  1  0  0  0  0
  8  6  2  0  0  0  0
  9 14  1  6  0  0  0
  9  7  1  0  0  0  0
 10 21  1  1  0  0  0
 10 22  1  0  0  0  0
 11 28  1  6  0  0  0
 12  8  1  0  0  0  0
 13  2  2  0  0  0  0
 14 23  1  0  0  0  0
 17  3  1  6  0  0  0
 17 26  1  0  0  0  0
 17 20  1  0  0  0  0
 18 13  1  0  0  0  0
 19  2  1  0  0  0  0
 20  4  1  0  0  0  0
 22  9  1  0  0  0  0
 22 20  1  0  0  0  0
 23 15  1  0  0  0  0
 24 27  1  0  0  0  0
 25 18  2  0  0  0  0
 25 26  1  0  0  0  0
 26 19  2  0  0  0  0
 27 12  1  0  0  0  0
 28 30  1  0  0  0  0
 30 29  1  0  0  0  0
M  END
>  <MODEL>
1

>  <REMARK>
 VINA RESULT:      -5.3      0.000      0.000
  Name = 
  2 active torsions:
  status: ('A' for Active; 'I' for Inactive)
    1  A    between atoms: C_11  and  C_28
    2  A    between atoms: C_28  and  C_30
                            x       y       z     vdW  Elec       q    Type
                         _______ _______ _______ _____ _____    ______ ____

>  <TORSDO>
F 2

$$$$
=
 OpenBabel11122412323D

 30 35  0  0  1  0  0  0  0  0999 V2000
  161.2220  206.0760  149.8430 C   0  0  1  0  0  3  0  0  0  0  0  0
  161.6070  203.5370  149.7060 C   0  0  0  0  0  0  0  0  0  0  0  0
  160.7860  205.6620  153.9780 N   0  0  0  0  0  2  0  0  0  0  0  0
  161.5470  207.1490  150.8870 C   0  0  1  0  0  3  0  0  0  0  0  0
  162.1510  206.2210  148.7230 N   0  0  0  0  0  2  0  0  0  0  0  0
  161.8990  209.7800  148.3380 O   0  0  0  0  0  0  0  0  0  0  0  0
  160.5020  209.9900  151.9940 C   0  0  1  0  0  3  0  0  0  0  0  0
  161.7760  208.6360  148.8550 C   0  0  0  0  0  0  0  0  0  0  0  0
  160.3920  209.2050  153.2420 N   0  0  2  0  0  0  0  0  0  0  0  0
  160.7850  207.0500  154.4120 C   0  0  1  0  0  3  0  0  0  0  0  0
  161.8160  207.4300  147.9650 C   0  0  2  0  0  3  0  0  0  0  0  0
  161.5760  208.4950  150.2750 N   0  0  0  0  0  0  0  0  0  0  0  0
  161.5940  202.2760  150.3080 C   0  0  0  0  0  3  0  0  0  0  0  0
  161.0030  210.0420  154.2670 C   0  0  0  0  0  2  0  0  0  0  0  0
  160.4950  211.4550  152.3870 C   0  0  0  0  0  2  0  0  0  0  0  0
  161.9440  203.6160  148.3600 O   0  0  0  0  0  1  0  0  0  0  0  0
  160.2970  205.6850  152.6040 C   0  0  1  0  0  3  0  0  0  0  0  0
  161.2070  202.1320  151.6370 C   0  0  0  0  0  3  0  0  0  0  0  0
  161.2700  204.6910  150.4580 C   0  0  0  0  0  0  0  0  0  0  0  0
  160.5360  207.0850  152.0300 C   0  0  1  0  0  3  0  0  0  0  0  0
  161.8710  207.2460  155.4520 C   0  0  0  0  0  1  0  0  0  0  0  0
  161.0660  207.9000  153.1860 C   0  0  1  0  0  3  0  0  0  0  0  0
  160.7380  211.4800  153.8800 C   0  0  0  0  0  2  0  0  0  0  0  0
  163.0820  209.7330  151.8120 C   0  0  0  0  0  1  0  0  0  0  0  0
  160.8190  203.2500  152.3720 C   0  0  0  0  0  3  0  0  0  0  0  0
  160.8450  204.5280  151.7990 C   0  0  0  0  0  0  0  0  0  0  0  0
  161.7330  209.7000  151.1000 C   0  0  2  0  0  3  0  0  0  0  0  0
  160.5000  207.2690  147.2050 C   0  0  0  0  0  2  0  0  0  0  0  0
  160.4560  206.2020  144.9510 C   0  0  0  0  0  1  0  0  0  0  0  0
  160.4570  205.9520  146.4470 C   0  0  0  0  0  2  0  0  0  0  0  0
  1  5  1  6  0  0  0
  1 19  1  0  0  0  0
  1  4  1  0  0  0  0
  2 13  2  0  0  0  0
  2 19  1  0  0  0  0
  3 10  1  0  0  0  0
  4 12  1  6  0  0  0
  4 20  1  0  0  0  0
  6  8  2  0  0  0  0
  7 15  1  1  0  0  0
  7  9  1  0  0  0  0
  8 12  1  0  0  0  0
  9 14  1  1  0  0  0
 10 21  1  1  0  0  0
 11 28  1  1  0  0  0
 11  5  1  0  0  0  0
 11  8  1  0  0  0  0
 12 27  1  0  0  0  0
 13 18  1  0  0  0  0
 15 23  1  0  0  0  0
 16  2  1  0  0  0  0
 17 26  1  6  0  0  0
 17  3  1  0  0  0  0
 18 25  2  0  0  0  0
 19 26  2  0  0  0  0
 20 17  1  0  0  0  0
 20 22  1  0  0  0  0
 22  9  1  0  0  0  0
 22 10  1  0  0  0  0
 23 14  1  0  0  0  0
 26 25  1  0  0  0  0
 27 24  1  0  0  0  0
 27  7  1  0  0  0  0
 29 30  1  0  0  0  0
 30 28  1  0  0  0  0
M  END
>  <MODEL>
2

>  <REMARK>
 VINA RESULT:      -4.8      2.141      7.106
  Name = 
  2 active torsions:
  status: ('A' for Active; 'I' for Inactive)
    1  A    between atoms: C_11  and  C_28
    2  A    between atoms: C_28  and  C_30
                            x       y       z     vdW  Elec       q    Type
                         _______ _______ _______ _____ _____    ______ ____

>  <TORSDO>
F 2

$$$$
=
 OpenBabel11122412323D

 30 35  0  0  1  0  0  0  0  0999 V2000
  161.0920  208.8680  153.6160 C   0  0  1  0  0  3  0  0  0  0  0  0
  161.9610  207.4660  151.6430 C   0  0  0  0  0  0  0  0  0  0  0  0
  160.3510  211.9750  150.9220 N   0  0  0  0  0  2  0  0  0  0  0  0
  160.0090  209.9410  153.7660 C   0  0  1  0  0  3  0  0  0  0  0  0
  160.6000  207.6250  154.2100 N   0  0  0  0  0  2  0  0  0  0  0  0
  159.3210  209.0150  157.2610 O   0  0  0  0  0  0  0  0  0  0  0  0
  159.2510  212.5310  155.5290 C   0  0  1  0  0  3  0  0  0  0  0  0
  159.7800  208.9640  156.0870 C   0  0  0  0  0  0  0  0  0  0  0  0
  159.3080  213.1700  154.1980 N   0  0  2  0  0  0  0  0  0  0  0  0
  159.5890  212.8990  151.7450 C   0  0  1  0  0  3  0  0  0  0  0  0
  160.5700  207.7600  155.6690 C   0  0  2  0  0  3  0  0  0  0  0  0
  159.5670  210.0580  155.1720 N   0  0  0  0  0  0  0  0  0  0  0  0
  162.3550  207.3710  150.3060 C   0  0  0  0  0  3  0  0  0  0  0  0
  158.0990  213.9800  154.1180 C   0  0  0  0  0  2  0  0  0  0  0  0
  158.4710  213.4620  156.4380 C   0  0  0  0  0  2  0  0  0  0  0  0
  162.0650  206.3310  152.4380 O   0  0  0  0  0  1  0  0  0  0  0  0
  161.1790  211.2170  151.8540 C   0  0  1  0  0  3  0  0  0  0  0  0
  162.3270  208.4910  149.4800 C   0  0  0  0  0  3  0  0  0  0  0  0
  161.4860  208.6970  152.1610 C   0  0  0  0  0  0  0  0  0  0  0  0
  160.5250  211.2770  153.2380 C   0  0  1  0  0  3  0  0  0  0  0  0
  158.2680  213.1990  151.0630 C   0  0  0  0  0  1  0  0  0  0  0  0
  159.3520  212.2170  153.0810 C   0  0  1  0  0  3  0  0  0  0  0  0
  157.7910  214.4530  155.5220 C   0  0  0  0  0  2  0  0  0  0  0  0
  157.2690  210.9630  154.9230 C   0  0  0  0  0  1  0  0  0  0  0  0
  161.9170  209.7200  149.9910 C   0  0  0  0  0  3  0  0  0  0  0  0
  161.4960  209.8370  151.3220 C   0  0  0  0  0  0  0  0  0  0  0  0
  158.6330  211.1110  155.5890 C   0  0  2  0  0  3  0  0  0  0  0  0
  161.9790  207.8010  156.2570 C   0  0  0  0  0  2  0  0  0  0  0  0
  162.8750  210.1130  156.5310 C   0  0  0  0  0  1  0  0  0  0  0  0
  162.1450  208.9710  157.2140 C   0  0  0  0  0  2  0  0  0  0  0  0
  1 19  1  6  0  0  0
  1  4  1  0  0  0  0
  1  5  1  0  0  0  0
  2 19  1  0  0  0  0
  2 16  1  0  0  0  0
  3 10  1  0  0  0  0
  4 12  1  1  0  0  0
  5 11  1  0  0  0  0
  7 27  1  0  0  0  0
  7 15  1  1  0  0  0
  8  6  2  0  0  0  0
  9 14  1  6  0  0  0
  9  7  1  0  0  0  0
 10 21  1  6  0  0  0
 10 22  1  0  0  0  0
 11  8  1  0  0  0  0
 11 28  1  6  0  0  0
 12 27  1  0  0  0  0
 12  8  1  0  0  0  0
 13  2  2  0  0  0  0
 14 23  1  0  0  0  0
 17  3  1  6  0  0  0
 17 20  1  0  0  0  0
 18 25  2  0  0  0  0
 18 13  1  0  0  0  0
 20  4  1  0  0  0  0
 22 20  1  0  0  0  0
 22  9  1  0  0  0  0
 23 15  1  0  0  0  0
 24 27  1  0  0  0  0
 25 26  1  0  0  0  0
 26 17  1  0  0  0  0
 26 19  2  0  0  0  0
 28 30  1  0  0  0  0
 29 30  1  0  0  0  0
M  END
>  <MODEL>
3

>  <REMARK>
 VINA RESULT:      -4.7      3.655      7.215
  Name = 
  2 active torsions:
  status: ('A' for Active; 'I' for Inactive)
    1  A    between atoms: C_11  and  C_28
    2  A    between atoms: C_28  and  C_30
                            x       y       z     vdW  Elec       q    Type
                         _______ _______ _______ _____ _____    ______ ____

>  <TORSDO>
F 2

$$$$
=
 OpenBabel11122412323D

 30 35  0  0  1  0  0  0  0  0999 V2000
  160.9920  205.0360  148.5840 C   0  0  1  0  0  3  0  0  0  0  0  0
  161.2760  202.5250  148.1040 C   0  0  0  0  0  0  0  0  0  0  0  0
  160.7580  204.1080  152.6510 N   0  0  0  0  0  2  0  0  0  0  0  0
  161.4100  205.9560  149.7350 C   0  0  1  0  0  3  0  0  0  0  0  0
  161.8660  205.2960  147.4400 N   0  0  0  0  0  2  0  0  0  0  0  0
  161.7250  208.8810  147.5250 O   0  0  0  0  0  0  0  0  0  0  0  0
  160.5290  208.6610  151.2510 C   0  0  1  0  0  3  0  0  0  0  0  0
  161.5870  207.6850  147.8980 C   0  0  0  0  0  0  0  0  0  0  0  0
  160.4560  207.7250  152.3930 N   0  0  2  0  0  0  0  0  0  0  0  0
  160.8300  205.4270  153.2560 C   0  0  1  0  0  3  0  0  0  0  0  0
  161.5360  206.6020  146.8610 C   0  0  2  0  0  3  0  0  0  0  0  0
  161.4570  207.3680  149.2980 N   0  0  0  0  0  0  0  0  0  0  0  0
  161.2470  201.1990  148.5420 C   0  0  0  0  0  3  0  0  0  0  0  0
  161.1500  208.4050  153.4800 C   0  0  0  0  0  2  0  0  0  0  0  0
  160.5970  210.0630  151.8260 C   0  0  0  0  0  2  0  0  0  0  0  0
  161.5440  202.7670  146.7630 O   0  0  0  0  0  1  0  0  0  0  0  0
  160.1990  204.3210  151.3200 C   0  0  1  0  0  3  0  0  0  0  0  0
  160.9260  200.8970  149.8620 C   0  0  0  0  0  3  0  0  0  0  0  0
  161.0210  203.5820  149.0150 C   0  0  0  0  0  0  0  0  0  0  0  0
  160.4590  205.7750  150.9160 C   0  0  1  0  0  3  0  0  0  0  0  0
  161.9760  205.4560  154.2500 C   0  0  0  0  0  1  0  0  0  0  0  0
  161.0780  206.4200  152.1340 C   0  0  1  0  0  3  0  0  0  0  0  0
  160.9190  209.8880  153.2930 C   0  0  0  0  0  2  0  0  0  0  0  0
  163.0850  208.3530  150.8920 C   0  0  0  0  0  1  0  0  0  0  0  0
  160.6180  201.9220  150.7530 C   0  0  0  0  0  3  0  0  0  0  0  0
  160.6610  203.2610  150.3460 C   0  0  0  0  0  0  0  0  0  0  0  0
  161.7010  208.4520  150.2590 C   0  0  2  0  0  3  0  0  0  0  0  0
  160.1780  206.5790  146.1630 C   0  0  0  0  0  2  0  0  0  0  0  0
  161.2200  205.5700  144.1340 C   0  0  0  0  0  1  0  0  0  0  0  0
  160.0970  205.4510  145.1470 C   0  0  0  0  0  2  0  0  0  0  0  0
  1  5  1  6  0  0  0
  1 19  1  0  0  0  0
  1  4  1  0  0  0  0
  2 13  2  0  0  0  0
  2 19  1  0  0  0  0
  3 10  1  0  0  0  0
  4 12  1  6  0  0  0
  4 20  1  0  0  0  0
  6  8  2  0  0  0  0
  7 15  1  1  0  0  0
  7  9  1  0  0  0  0
  8 12  1  0  0  0  0
  9 14  1  1  0  0  0
 10 21  1  1  0  0  0
 11 28  1  1  0  0  0
 11  5  1  0  0  0  0
 11  8  1  0  0  0  0
 12 27  1  0  0  0  0
 13 18  1  0  0  0  0
 15 23  1  0  0  0  0
 16  2  1  0  0  0  0
 17 26  1  6  0  0  0
 17  3  1  0  0  0  0
 18 25  2  0  0  0  0
 19 26  2  0  0  0  0
 20 17  1  0  0  0  0
 20 22  1  0  0  0  0
 22  9  1  0  0  0  0
 22 10  1  0  0  0  0
 23 14  1  0  0  0  0
 26 25  1  0  0  0  0
 27 24  1  0  0  0  0
 27  7  1  0  0  0  0
 29 30  1  0  0  0  0
 30 28  1  0  0  0  0
M  END
>  <MODEL>
4

>  <REMARK>
 VINA RESULT:      -4.4      2.336      7.087
  Name = 
  2 active torsions:
  status: ('A' for Active; 'I' for Inactive)
    1  A    between atoms: C_11  and  C_28
    2  A    between atoms: C_28  and  C_30
                            x       y       z     vdW  Elec       q    Type
                         _______ _______ _______ _____ _____    ______ ____

>  <TORSDO>
F 2

$$$$
=
 OpenBabel11122412323D

 30 35  0  0  1  0  0  0  0  0999 V2000
  161.1760  203.6700  147.8730 C   0  0  1  0  0  3  0  0  0  0  0  0
  161.0720  201.1950  148.5650 C   0  0  0  0  0  0  0  0  0  0  0  0
  160.9700  204.6830  151.9220 N   0  0  0  0  0  2  0  0  0  0  0  0
  161.7700  204.9310  148.5090 C   0  0  1  0  0  3  0  0  0  0  0  0
  162.0330  203.2640  146.7590 N   0  0  0  0  0  2  0  0  0  0  0  0
  162.4200  206.4930  145.2420 O   0  0  0  0  0  0  0  0  0  0  0  0
  161.3540  208.1250  148.6420 C   0  0  1  0  0  3  0  0  0  0  0  0
  162.1240  205.6210  146.1020 C   0  0  0  0  0  0  0  0  0  0  0  0
  161.1900  207.8140  150.0780 N   0  0  2  0  0  0  0  0  0  0  0  0
  161.2590  206.1070  151.8810 C   0  0  1  0  0  3  0  0  0  0  0  0
  161.8750  204.2120  145.6520 C   0  0  2  0  0  3  0  0  0  0  0  0
  162.0050  205.9790  147.4940 N   0  0  0  0  0  0  0  0  0  0  0  0
  160.8670  200.2200  149.5440 C   0  0  0  0  0  3  0  0  0  0  0  0
  162.0190  208.7930  150.7700 C   0  0  0  0  0  2  0  0  0  0  0  0
  161.6490  209.6090  148.5380 C   0  0  0  0  0  2  0  0  0  0  0  0
  161.3190  200.7750  147.2640 O   0  0  0  0  0  1  0  0  0  0  0  0
  160.3960  204.3660  150.6180 C   0  0  1  0  0  3  0  0  0  0  0  0
  160.5570  200.5850  150.8510 C   0  0  0  0  0  3  0  0  0  0  0  0
  161.0100  202.5710  148.9050 C   0  0  0  0  0  0  0  0  0  0  0  0
  160.8500  205.4350  149.6190 C   0  0  1  0  0  3  0  0  0  0  0  0
  162.4350  206.4030  152.7920 C   0  0  0  0  0  1  0  0  0  0  0  0
  161.6040  206.4520  150.4430 C   0  0  1  0  0  3  0  0  0  0  0  0
  161.9990  210.0560  149.9390 C   0  0  0  0  0  2  0  0  0  0  0  0
  163.8210  207.3140  148.5330 C   0  0  0  0  0  1  0  0  0  0  0  0
  160.4370  201.9310  151.1860 C   0  0  0  0  0  3  0  0  0  0  0  0
  160.6600  202.9290  150.2290 C   0  0  0  0  0  0  0  0  0  0  0  0
  162.4420  207.3270  147.8810 C   0  0  2  0  0  3  0  0  0  0  0  0
  160.5010  204.0840  144.9970 C   0  0  0  0  0  2  0  0  0  0  0  0
  159.0690  202.0510  145.1840 C   0  0  0  0  0  1  0  0  0  0  0  0
  160.2620  202.6730  144.4840 C   0  0  0  0  0  2  0  0  0  0  0  0
  1  5  1  6  0  0  0
  1  4  1  0  0  0  0
  1 19  1  0  0  0  0
  2 19  2  0  0  0  0
  2 13  1  0  0  0  0
  4 12  1  6  0  0  0
  4 20  1  0  0  0  0
  6  8  2  0  0  0  0
  7 15  1  1  0  0  0
  7  9  1  0  0  0  0
  8 12  1  0  0  0  0
  9 22  1  0  0  0  0
  9 14  1  1  0  0  0
 10  3  1  0  0  0  0
 10 21  1  1  0  0  0
 11 28  1  1  0  0  0
 11  8  1  0  0  0  0
 11  5  1  0  0  0  0
 12 27  1  0  0  0  0
 13 18  2  0  0  0  0
 15 23  1  0  0  0  0
 16  2  1  0  0  0  0
 17 26  1  6  0  0  0
 17  3  1  0  0  0  0
 18 25  1  0  0  0  0
 19 26  1  0  0  0  0
 20 22  1  0  0  0  0
 20 17  1  0  0  0  0
 22 10  1  0  0  0  0
 23 14  1  0  0  0  0
 26 25  2  0  0  0  0
 27 24  1  0  0  0  0
 27  7  1  0  0  0  0
 30 28  1  0  0  0  0
 30 29  1  0  0  0  0
M  END
>  <MODEL>
5

>  <REMARK>
 VINA RESULT:      -3.8      2.690      7.520
  Name = 
  2 active torsions:
  status: ('A' for Active; 'I' for Inactive)
    1  A    between atoms: C_11  and  C_28
    2  A    between atoms: C_28  and  C_30
                            x       y       z     vdW  Elec       q    Type
                         _______ _______ _______ _____ _____    ______ ____

>  <TORSDO>
F 2

$$$$
=
 OpenBabel11122412323D

 30 35  0  0  1  0  0  0  0  0999 V2000
  161.4660  208.2210  149.0850 C   0  0  1  0  0  3  0  0  0  0  0  0
  161.9490  206.1580  147.6280 C   0  0  0  0  0  0  0  0  0  0  0  0
  160.8990  205.6460  152.3260 N   0  0  0  0  0  2  0  0  0  0  0  0
  161.7140  208.5690  150.5570 C   0  0  1  0  0  3  0  0  0  0  0  0
  162.4280  208.9560  148.2650 N   0  0  0  0  0  2  0  0  0  0  0  0
  162.0600  212.1610  149.8370 O   0  0  0  0  0  0  0  0  0  0  0  0
  160.5270  210.3580  152.9610 C   0  0  1  0  0  3  0  0  0  0  0  0
  161.9610  210.9180  149.6530 C   0  0  0  0  0  0  0  0  0  0  0  0
  160.4010  209.0240  153.5860 N   0  0  2  0  0  0  0  0  0  0  0  0
  160.8310  206.5830  153.4360 C   0  0  1  0  0  3  0  0  0  0  0  0
  162.0770  210.3790  148.2580 C   0  0  2  0  0  3  0  0  0  0  0  0
  161.7160  210.0330  150.7640 N   0  0  0  0  0  0  0  0  0  0  0  0
  161.9600  204.7710  147.4590 C   0  0  0  0  0  3  0  0  0  0  0  0
  160.9440  209.1870  154.9280 C   0  0  0  0  0  2  0  0  0  0  0  0
  160.4530  211.3830  154.0770 C   0  0  0  0  0  2  0  0  0  0  0  0
  162.3300  206.9520  146.5530 O   0  0  0  0  0  1  0  0  0  0  0  0
  160.4590  206.3970  151.1560 C   0  0  1  0  0  3  0  0  0  0  0  0
  161.5320  203.9310  148.4830 C   0  0  0  0  0  3  0  0  0  0  0  0
  161.5430  206.7230  148.8640 C   0  0  0  0  0  0  0  0  0  0  0  0
  160.6670  207.8890  151.4350 C   0  0  1  0  0  3  0  0  0  0  0  0
  161.8720  206.2030  154.4720 C   0  0  0  0  0  1  0  0  0  0  0  0
  161.1250  207.9620  152.8730 C   0  0  1  0  0  3  0  0  0  0  0  0
  160.6410  210.6050  155.3600 C   0  0  0  0  0  2  0  0  0  0  0  0
  163.1190  210.2700  152.7980 C   0  0  0  0  0  1  0  0  0  0  0  0
  161.0770  204.4740  149.6810 C   0  0  0  0  0  3  0  0  0  0  0  0
  161.0770  205.8600  149.8850 C   0  0  0  0  0  0  0  0  0  0  0  0
  161.7990  210.6080  152.1130 C   0  0  2  0  0  3  0  0  0  0  0  0
  160.7960  210.6360  147.4660 C   0  0  0  0  0  2  0  0  0  0  0  0
  159.6800  212.8580  147.2710 C   0  0  0  0  0  1  0  0  0  0  0  0
  160.8290  211.9950  146.7860 C   0  0  0  0  0  2  0  0  0  0  0  0
  1  5  1  6  0  0  0
  1  4  1  0  0  0  0
  2 19  1  0  0  0  0
  3 10  1  0  0  0  0
  4 12  1  6  0  0  0
  4 20  1  0  0  0  0
  7  9  1  0  0  0  0
  7 15  1  1  0  0  0
  8  6  2  0  0  0  0
  8 12  1  0  0  0  0
  9 14  1  1  0  0  0
 10 21  1  1  0  0  0
 11 28  1  1  0  0  0
 11  5  1  0  0  0  0
 11  8  1  0  0  0  0
 12 27  1  0  0  0  0
 13  2  2  0  0  0  0
 13 18  1  0  0  0  0
 14 23  1  0  0  0  0
 15 23  1  0  0  0  0
 16  2  1  0  0  0  0
 17 26  1  6  0  0  0
 17 20  1  0  0  0  0
 17  3  1  0  0  0  0
 18 25  2  0  0  0  0
 19  1  1  0  0  0  0
 19 26  2  0  0  0  0
 20 22  1  0  0  0  0
 22 10  1  0  0  0  0
 22  9  1  0  0  0  0
 25 26  1  0  0  0  0
 27 24  1  0  0  0  0
 27  7  1  0  0  0  0
 30 29  1  0  0  0  0
 30 28  1  0  0  0  0
M  END
>  <MODEL>
6

>  <REMARK>
 VINA RESULT:      -3.6      2.292      6.782
  Name = 
  2 active torsions:
  status: ('A' for Active; 'I' for Inactive)
    1  A    between atoms: C_11  and  C_28
    2  A    between atoms: C_28  and  C_30
                            x       y       z     vdW  Elec       q    Type
                         _______ _______ _______ _____ _____    ______ ____

>  <TORSDO>
F 2

$$$$
=
 OpenBabel11122412323D

 30 35  0  0  1  0  0  0  0  0999 V2000
  160.3530  211.4800  153.0380 C   0  0  1  0  0  3  0  0  0  0  0  0
  161.6650  210.9360  150.8940 C   0  0  0  0  0  0  0  0  0  0  0  0
  158.0260  214.1290  150.7950 N   0  0  0  0  0  2  0  0  0  0  0  0
  158.8970  211.8580  153.3310 C   0  0  1  0  0  3  0  0  0  0  0  0
  160.5660  210.0940  153.4530 N   0  0  0  0  0  2  0  0  0  0  0  0
  158.9720  210.2960  156.6620 O   0  0  0  0  0  0  0  0  0  0  0  0
  157.0930  213.5080  155.4310 C   0  0  1  0  0  3  0  0  0  0  0  0
  159.3210  210.6190  155.4940 C   0  0  0  0  0  0  0  0  0  0  0  0
  156.7470  214.2500  154.2000 N   0  0  2  0  0  0  0  0  0  0  0  0
  156.9660  214.4530  151.7350 C   0  0  1  0  0  3  0  0  0  0  0  0
  160.5680  210.0180  154.9160 C   0  0  2  0  0  3  0  0  0  0  0  0
  158.5460  211.5710  154.7380 N   0  0  0  0  0  0  0  0  0  0  0  0
  161.9680  211.2110  149.5580 C   0  0  0  0  0  3  0  0  0  0  0  0
  155.2940  214.3670  154.2290 C   0  0  0  0  0  2  0  0  0  0  0  0
  156.0190  213.8180  156.4570 C   0  0  0  0  0  2  0  0  0  0  0  0
  162.3570  209.9100  151.5250 O   0  0  0  0  0  1  0  0  0  0  0  0
  159.1760  213.7660  151.6170 C   0  0  1  0  0  3  0  0  0  0  0  0
  161.3470  212.2650  148.8950 C   0  0  0  0  0  3  0  0  0  0  0  0
  160.6860  211.7030  151.5750 C   0  0  0  0  0  0  0  0  0  0  0  0
  158.6650  213.3290  152.9940 C   0  0  1  0  0  3  0  0  0  0  0  0
  155.6240  214.1480  151.0960 C   0  0  0  0  0  1  0  0  0  0  0  0
  157.1760  213.5850  152.9630 C   0  0  1  0  0  3  0  0  0  0  0  0
  154.8860  214.4530  155.6830 C   0  0  0  0  0  2  0  0  0  0  0  0
  156.0870  211.2570  154.6070 C   0  0  0  0  0  1  0  0  0  0  0  0
  160.4260  213.0630  149.5690 C   0  0  0  0  0  3  0  0  0  0  0  0
  160.0870  212.7950  150.9010 C   0  0  0  0  0  0  0  0  0  0  0  0
  157.2470  211.9720  155.2930 C   0  0  2  0  0  3  0  0  0  0  0  0
  161.8140  210.6710  155.5100 C   0  0  0  0  0  2  0  0  0  0  0  0
  161.9240  208.3880  156.5090 C   0  0  0  0  0  1  0  0  0  0  0  0
  162.4080  209.8220  156.6220 C   0  0  0  0  0  2  0  0  0  0  0  0
  1 19  1  6  0  0  0
  1  4  1  0  0  0  0
  1  5  1  0  0  0  0
  2 16  1  0  0  0  0
  2 19  1  0  0  0  0
  3 10  1  0  0  0  0
  4 12  1  1  0  0  0
  5 11  1  0  0  0  0
  7 15  1  1  0  0  0
  8  6  2  0  0  0  0
  9 14  1  6  0  0  0
  9  7  1  0  0  0  0
 10 21  1  6  0  0  0
 10 22  1  0  0  0  0
 11  8  1  0  0  0  0
 11 28  1  1  0  0  0
 12 27  1  0  0  0  0
 12  8  1  0  0  0  0
 13  2  2  0  0  0  0
 14 23  1  0  0  0  0
 17  3  1  6  0  0  0
 17 20  1  0  0  0  0
 18 13  1  0  0  0  0
 18 25  2  0  0  0  0
 20  4  1  0  0  0  0
 22 20  1  0  0  0  0
 22  9  1  0  0  0  0
 23 15  1  0  0  0  0
 24 27  1  0  0  0  0
 25 26  1  0  0  0  0
 26 19  2  0  0  0  0
 26 17  1  0  0  0  0
 27  7  1  0  0  0  0
 28 30  1  0  0  0  0
 29 30  1  0  0  0  0
M  END
>  <MODEL>
7

>  <REMARK>
 VINA RESULT:      -3.6      5.403      8.263
  Name = 
  2 active torsions:
  status: ('A' for Active; 'I' for Inactive)
    1  A    between atoms: C_11  and  C_28
    2  A    between atoms: C_28  and  C_30
                            x       y       z     vdW  Elec       q    Type
                         _______ _______ _______ _____ _____    ______ ____

>  <TORSDO>
F 2

$$$$
=
 OpenBabel11122412323D

 30 35  0  0  1  0  0  0  0  0999 V2000
  160.1890  210.7420  153.5900 C   0  0  1  0  0  3  0  0  0  0  0  0
  160.0370  208.5150  154.8660 C   0  0  0  0  0  0  0  0  0  0  0  0
  162.0900  208.6920  150.4850 N   0  0  0  0  0  2  0  0  0  0  0  0
  160.1460  211.1270  152.1070 C   0  0  1  0  0  3  0  0  0  0  0  0
  158.9160  211.1170  154.2040 N   0  0  0  0  0  2  0  0  0  0  0  0
  158.6580  214.4170  152.8170 O   0  0  0  0  0  0  0  0  0  0  0  0
  161.2220  213.3610  150.0480 C   0  0  1  0  0  3  0  0  0  0  0  0
  159.0690  213.2380  152.9910 C   0  0  0  0  0  0  0  0  0  0  0  0
  161.8420  212.1670  149.4340 N   0  0  2  0  0  0  0  0  0  0  0  0
  162.1040  209.6980  149.4360 C   0  0  1  0  0  3  0  0  0  0  0  0
  158.8400  212.5760  154.3170 C   0  0  2  0  0  3  0  0  0  0  0  0
  159.7680  212.5460  151.9360 N   0  0  0  0  0  0  0  0  0  0  0  0
  160.3890  207.1690  154.9990 C   0  0  0  0  0  3  0  0  0  0  0  0
  161.5500  212.2830  148.0110 C   0  0  0  0  0  2  0  0  0  0  0  0
  161.2190  214.4530  148.9950 C   0  0  0  0  0  2  0  0  0  0  0  0
  159.2430  209.0850  155.8540 O   0  0  0  0  0  1  0  0  0  0  0  0
  162.0600  209.4380  151.7380 C   0  0  1  0  0  3  0  0  0  0  0  0
  161.2300  206.5640  154.0700 C   0  0  0  0  0  3  0  0  0  0  0  0
  160.5000  209.2680  153.7570 C   0  0  0  0  0  0  0  0  0  0  0  0
  161.4950  210.8330  151.4550 C   0  0  1  0  0  3  0  0  0  0  0  0
  161.4390  209.1320  148.1960 C   0  0  0  0  0  1  0  0  0  0  0  0
  161.3260  210.8940  149.9550 C   0  0  1  0  0  3  0  0  0  0  0  0
  161.5150  213.7590  147.6850 C   0  0  0  0  0  2  0  0  0  0  0  0
  158.7830  212.5530  149.6580 C   0  0  0  0  0  1  0  0  0  0  0  0
  161.7380  207.3060  153.0070 C   0  0  0  0  0  3  0  0  0  0  0  0
  161.3830  208.6510  152.8380 C   0  0  0  0  0  0  0  0  0  0  0  0
  159.7910  213.1840  150.6140 C   0  0  2  0  0  3  0  0  0  0  0  0
  159.8130  213.1090  155.3670 C   0  0  0  0  0  2  0  0  0  0  0  0
  160.8350  211.8460  157.2590 C   0  0  0  0  0  1  0  0  0  0  0  0
  159.5620  212.4760  156.7260 C   0  0  0  0  0  2  0  0  0  0  0  0
  1 19  1  6  0  0  0
  1  5  1  0  0  0  0
  2 13  1  0  0  0  0
  2 16  1  0  0  0  0
  4 12  1  1  0  0  0
  4  1  1  0  0  0  0
  5 11  1  0  0  0  0
  6  8  2  0  0  0  0
  7 15  1  6  0  0  0
  7 27  1  0  0  0  0
  8 11  1  0  0  0  0
  9 14  1  6  0  0  0
  9 22  1  0  0  0  0
  9  7  1  0  0  0  0
 10 21  1  6  0  0  0
 10 22  1  0  0  0  0
 10  3  1  0  0  0  0
 11 28  1  1  0  0  0
 12  8  1  0  0  0  0
 17  3  1  6  0  0  0
 17 26  1  0  0  0  0
 18 13  2  0  0  0  0
 19  2  2  0  0  0  0
 20 17  1  0  0  0  0
 20  4  1  0  0  0  0
 22 20  1  0  0  0  0
 23 14  1  0  0  0  0
 23 15  1  0  0  0  0
 24 27  1  0  0  0  0
 25 18  1  0  0  0  0
 26 25  2  0  0  0  0
 26 19  1  0  0  0  0
 27 12  1  0  0  0  0
 28 30  1  0  0  0  0
 30 29  1  0  0  0  0
M  END
>  <MODEL>
8

>  <REMARK>
 VINA RESULT:      -3.4      3.649      7.139
  Name = 
  2 active torsions:
  status: ('A' for Active; 'I' for Inactive)
    1  A    between atoms: C_11  and  C_28
    2  A    between atoms: C_28  and  C_30
                            x       y       z     vdW  Elec       q    Type
                         _______ _______ _______ _____ _____    ______ ____

>  <TORSDO>
F 2

$$$$
=
 OpenBabel11122412323D

 30 35  0  0  1  0  0  0  0  0999 V2000
  161.6210  208.8890  151.3840 C   0  0  1  0  0  3  0  0  0  0  0  0
  160.9890  209.5930  153.7750 C   0  0  0  0  0  0  0  0  0  0  0  0
  161.2380  204.9060  152.5860 N   0  0  0  0  0  2  0  0  0  0  0  0
  161.2290  207.7170  150.4780 C   0  0  1  0  0  3  0  0  0  0  0  0
  160.9370  210.0910  150.9090 N   0  0  0  0  0  2  0  0  0  0  0  0
  161.6470  209.7080  147.4130 O   0  0  0  0  0  0  0  0  0  0  0  0
  162.3600  205.9090  148.0610 C   0  0  1  0  0  3  0  0  0  0  0  0
  161.5460  209.4190  148.6350 C   0  0  0  0  0  0  0  0  0  0  0  0
  162.1500  204.8430  149.0640 N   0  0  2  0  0  0  0  0  0  0  0  0
  161.3120  204.2080  151.3130 C   0  0  1  0  0  3  0  0  0  0  0  0
  161.5370  210.5280  149.6460 C   0  0  2  0  0  3  0  0  0  0  0  0
  161.4630  208.0420  149.0550 N   0  0  0  0  0  0  0  0  0  0  0  0
  160.7520  209.2610  155.1120 C   0  0  0  0  0  3  0  0  0  0  0  0
  161.4560  203.7820  148.3430 C   0  0  0  0  0  2  0  0  0  0  0  0
  162.4550  205.2340  146.7050 C   0  0  0  0  0  2  0  0  0  0  0  0
  160.9180  210.9310  153.4100 O   0  0  0  0  0  1  0  0  0  0  0  0
  161.9710  206.1510  152.3900 C   0  0  1  0  0  3  0  0  0  0  0  0
  160.8680  207.9440  155.5440 C   0  0  0  0  0  3  0  0  0  0  0  0
  161.3070  208.5800  152.8350 C   0  0  0  0  0  0  0  0  0  0  0  0
  161.9980  206.4630  150.8900 C   0  0  1  0  0  3  0  0  0  0  0  0
  160.0810  203.3370  151.1510 C   0  0  0  0  0  1  0  0  0  0  0  0
  161.3580  205.2670  150.2260 C   0  0  1  0  0  3  0  0  0  0  0  0
  161.9450  203.8260  146.9130 C   0  0  0  0  0  2  0  0  0  0  0  0
  159.8450  206.5490  147.9070 C   0  0  0  0  0  1  0  0  0  0  0  0
  161.2360  206.9470  154.6430 C   0  0  0  0  0  3  0  0  0  0  0  0
  161.4570  207.2490  153.2940 C   0  0  0  0  0  0  0  0  0  0  0  0
  161.2900  207.0290  148.0070 C   0  0  2  0  0  3  0  0  0  0  0  0
  162.9450  211.0840  149.8560 C   0  0  0  0  0  2  0  0  0  0  0  0
  162.3390  212.9370  148.3000 C   0  0  0  0  0  1  0  0  0  0  0  0
  163.3970  211.9110  148.6640 C   0  0  0  0  0  2  0  0  0  0  0  0
  1  5  1  6  0  0  0
  1 19  1  0  0  0  0
  2 13  1  0  0  0  0
  4 12  1  6  0  0  0
  4 20  1  0  0  0  0
  4  1  1  0  0  0  0
  6  8  2  0  0  0  0
  7 15  1  6  0  0  0
  7  9  1  0  0  0  0
  8 12  1  0  0  0  0
  8 11  1  0  0  0  0
  9 14  1  6  0  0  0
  9 22  1  0  0  0  0
 10 21  1  6  0  0  0
 10  3  1  0  0  0  0
 11 28  1  1  0  0  0
 11  5  1  0  0  0  0
 13 18  2  0  0  0  0
 15 23  1  0  0  0  0
 16  2  1  0  0  0  0
 17  3  1  6  0  0  0
 17 26  1  0  0  0  0
 19 26  1  0  0  0  0
 19  2  2  0  0  0  0
 20 17  1  0  0  0  0
 22 20  1  0  0  0  0
 22 10  1  0  0  0  0
 23 14  1  0  0  0  0
 24 27  1  0  0  0  0
 25 18  1  0  0  0  0
 26 25  2  0  0  0  0
 27  7  1  0  0  0  0
 27 12  1  0  0  0  0
 29 30  1  0  0  0  0
 30 28  1  0  0  0  0
M  END
>  <MODEL>
9

>  <REMARK>
 VINA RESULT:      -3.2      1.808      5.119
  Name = 
  2 active torsions:
  status: ('A' for Active; 'I' for Inactive)
    1  A    between atoms: C_11  and  C_28
    2  A    between atoms: C_28  and  C_30
                            x       y       z     vdW  Elec       q    Type
                         _______ _______ _______ _____ _____    ______ ____

>  <TORSDO>
F 2

$$$$
