=
 OpenBabel11122414273D

 34 41  0  0  1  0  0  0  0  0999 V2000
  161.0780  204.9230  152.1110 C   0  0  0  0  0  0  0  0  0  0  0  0
  161.1460  206.3100  154.1040 C   0  0  0  0  0  3  0  0  0  0  0  0
  162.2050  203.9000  145.8560 C   0  0  2  0  0  3  0  0  0  0  0  0
  161.0210  203.7230  149.9710 C   0  0  0  0  0  0  0  0  0  0  0  0
  161.4080  204.9100  147.9340 C   0  0  0  0  0  0  0  0  0  0  0  0
  162.1610  206.0180  145.6680 C   0  0  0  0  0  2  0  0  0  0  0  0
  162.7890  204.8820  144.8650 C   0  0  0  0  0  2  0  0  0  0  0  0
  160.3550  202.3850  146.5460 C   0  0  0  0  0  2  0  0  0  0  0  0
  161.4890  207.2750  152.1640 C   0  0  0  0  0  0  0  0  0  0  0  0
  162.1810  210.2970  151.7290 C   0  0  0  0  0  2  0  0  0  0  0  0
  161.5420  206.1080  148.6400 C   0  0  0  0  0  3  0  0  0  0  0  0
  161.0790  202.4030  147.9100 C   0  0  0  0  0  2  0  0  0  0  0  0
  161.5980  207.3420  150.7540 C   0  0  0  0  0  0  0  0  0  0  0  0
  161.3340  207.6570  154.3670 C   0  0  0  0  0  3  0  0  0  0  0  0
  161.1260  203.7240  148.5980 N   0  0  0  0  0  0  0  0  0  0  0  0
  161.2770  202.8010  145.3790 C   0  0  0  0  0  2  0  0  0  0  0  0
  161.7060  209.6930  152.9620 N   0  0  0  0  0  0  0  0  0  0  0  0
  161.1790  204.9250  150.7040 C   0  0  0  0  0  0  0  0  0  0  0  0
  161.3540  204.9880  146.4380 C   0  0  1  0  0  3  0  0  0  0  0  0
  161.4440  206.1340  150.0300 C   0  0  0  0  0  0  0  0  0  0  0  0
  160.6560  202.5390  152.0760 C   0  0  0  0  0  3  0  0  0  0  0  0
  161.3450  209.8450  150.5580 C   0  0  0  0  0  2  0  0  0  0  0  0
  160.7580  202.5360  150.6830 C   0  0  0  0  0  3  0  0  0  0  0  0
  161.9810  208.5920  150.0060 C   0  0  0  0  0  2  0  0  0  0  0  0
  161.5590  208.2690  153.1380 C   0  0  0  0  0  0  0  0  0  0  0  0
  160.8140  203.7260  152.7880 C   0  0  0  0  0  3  0  0  0  0  0  0
  161.2360  206.1000  152.7760 N   0  0  0  0  0  0  0  0  0  0  0  0
  161.3700  210.6070  154.0470 C   0  0  0  0  0  2  0  0  0  0  0  0
  160.3690  211.6480  153.5680 C   0  0  0  0  0  2  0  0  0  0  0  0
  157.9720  211.6650  155.9850 N   0  0  0  0  0  2  0  0  0  0  0  0
  157.9840  212.3290  153.6940 C   0  0  0  0  0  2  0  0  0  0  0  0
  158.9510  211.1780  153.8370 C   0  0  2  0  0  3  0  0  0  0  0  0
  157.1620  212.3030  154.9610 C   0  0  0  0  0  2  0  0  0  0  0  0
  158.8310  210.7250  155.2780 C   0  0  0  0  0  2  0  0  0  0  0  0
  1 27  1  0  0  0  0
  1 26  1  0  0  0  0
  2 14  2  0  0  0  0
  3  7  1  6  0  0  0
  3 19  1  0  0  0  0
  4 23  2  0  0  0  0
  4 18  1  0  0  0  0
  5 15  1  0  0  0  0
  5 11  2  0  0  0  0
  7  6  1  0  0  0  0
  8 12  1  0  0  0  0
  9 27  1  0  0  0  0
  9 25  2  0  0  0  0
 10 17  1  0  0  0  0
 11 20  1  0  0  0  0
 12 15  1  0  0  0  0
 13  9  1  0  0  0  0
 15  4  1  0  0  0  0
 16  3  1  0  0  0  0
 16  8  1  0  0  0  0
 17 25  1  0  0  0  0
 17 28  1  0  0  0  0
 18  1  2  0  0  0  0
 19  6  1  1  0  0  0
 19  5  1  0  0  0  0
 20 18  1  0  0  0  0
 20 13  2  0  0  0  0
 21 26  2  0  0  0  0
 22 10  1  0  0  0  0
 23 21  1  0  0  0  0
 24 22  1  0  0  0  0
 24 13  1  0  0  0  0
 25 14  1  0  0  0  0
 27  2  1  0  0  0  0
 29 28  1  0  0  0  0
 31 32  1  0  0  0  0
 31 33  1  0  0  0  0
 32 29  1  1  0  0  0
 32 34  1  0  0  0  0
 33 30  1  0  0  0  0
 34 30  1  0  0  0  0
M  END
>  <MODEL>
1

>  <REMARK>
 VINA RESULT:      -9.8      0.000      0.000
  Name = 
  3 active torsions:
  status: ('A' for Active; 'I' for Inactive)
    1  A    between atoms: N_17  and  C_28
    2  A    between atoms: C_28  and  C_29
    3  A    between atoms: C_29  and  C_32
                            x       y       z     vdW  Elec       q    Type
                         _______ _______ _______ _____ _____    ______ ____

>  <TORSDO>
F 3

$$$$
=
 OpenBabel11122414273D

 34 41  0  0  1  0  0  0  0  0999 V2000
  161.5450  207.6010  149.7590 C   0  0  0  0  0  0  0  0  0  0  0  0
  161.4720  205.9080  148.0200 C   0  0  0  0  0  3  0  0  0  0  0  0
  161.9450  209.4020  155.9270 C   0  0  2  0  0  3  0  0  0  0  0  0
  161.5440  209.1440  151.6680 C   0  0  0  0  0  0  0  0  0  0  0  0
  161.2010  208.3000  153.8770 C   0  0  0  0  0  0  0  0  0  0  0  0
  161.1890  207.4650  156.3730 C   0  0  0  0  0  2  0  0  0  0  0  0
  162.0170  208.4960  157.1360 C   0  0  0  0  0  2  0  0  0  0  0  0
  160.8170  211.2360  154.6780 C   0  0  0  0  0  2  0  0  0  0  0  0
  161.1760  205.2670  150.0970 C   0  0  0  0  0  0  0  0  0  0  0  0
  160.7760  202.3120  151.0510 C   0  0  0  0  0  2  0  0  0  0  0  0
  161.0500  207.0060  153.3740 C   0  0  0  0  0  3  0  0  0  0  0  0
  161.7010  210.7520  153.5090 C   0  0  0  0  0  2  0  0  0  0  0  0
  161.0340  205.4360  151.4950 C   0  0  0  0  0  0  0  0  0  0  0  0
  161.2540  204.5410  147.9780 C   0  0  0  0  0  3  0  0  0  0  0  0
  161.4260  209.3700  153.0210 N   0  0  0  0  0  0  0  0  0  0  0  0
  161.3600  210.7950  156.0550 C   0  0  0  0  0  2  0  0  0  0  0  0
  160.7210  202.7860  149.6790 N   0  0  0  0  0  0  0  0  0  0  0  0
  161.4180  207.8340  151.1450 C   0  0  0  0  0  0  0  0  0  0  0  0
  160.8910  208.5230  155.3260 C   0  0  1  0  0  3  0  0  0  0  0  0
  161.1680  206.7490  152.0100 C   0  0  0  0  0  0  0  0  0  0  0  0
  161.9160  209.9670  149.3980 C   0  0  0  0  0  3  0  0  0  0  0  0
  159.9580  203.2000  151.9550 C   0  0  0  0  0  2  0  0  0  0  0  0
  161.7950  210.2000  150.7700 C   0  0  0  0  0  3  0  0  0  0  0  0
  160.8710  204.2920  152.4610 C   0  0  0  0  0  2  0  0  0  0  0  0
  161.0720  204.1310  149.2940 C   0  0  0  0  0  0  0  0  0  0  0  0
  161.7920  208.6740  148.8940 C   0  0  0  0  0  3  0  0  0  0  0  0
  161.4160  206.3270  149.2990 N   0  0  0  0  0  0  0  0  0  0  0  0
  160.2830  201.8250  148.6750 C   0  0  0  0  0  2  0  0  0  0  0  0
  161.4040  200.8480  148.3560 C   0  0  0  0  0  2  0  0  0  0  0  0
  160.2700  199.5790  145.4080 N   0  0  0  0  0  2  0  0  0  0  0  0
  160.7600  201.7920  146.1510 C   0  0  0  0  0  2  0  0  0  0  0  0
  161.7030  200.8550  146.8680 C   0  0  2  0  0  3  0  0  0  0  0  0
  160.1930  200.9760  145.0150 C   0  0  0  0  0  2  0  0  0  0  0  0
  161.4260  199.4820  146.2880 C   0  0  0  0  0  2  0  0  0  0  0  0
  1 18  1  0  0  0  0
  2 27  1  0  0  0  0
  3 16  1  1  0  0  0
  3  7  1  0  0  0  0
  4 15  1  0  0  0  0
  5 19  1  0  0  0  0
  6  7  1  0  0  0  0
  8 16  1  0  0  0  0
  9 13  1  0  0  0  0
 10 22  1  0  0  0  0
 11  5  2  0  0  0  0
 12  8  1  0  0  0  0
 13 20  2  0  0  0  0
 13 24  1  0  0  0  0
 14  2  2  0  0  0  0
 14 25  1  0  0  0  0
 15 12  1  0  0  0  0
 15  5  1  0  0  0  0
 17 10  1  0  0  0  0
 18  4  2  0  0  0  0
 18 20  1  0  0  0  0
 19  3  1  0  0  0  0
 19  6  1  1  0  0  0
 20 11  1  0  0  0  0
 21 23  2  0  0  0  0
 22 24  1  0  0  0  0
 23  4  1  0  0  0  0
 25 17  1  0  0  0  0
 25  9  2  0  0  0  0
 26 21  1  0  0  0  0
 26  1  2  0  0  0  0
 27  1  1  0  0  0  0
 27  9  1  0  0  0  0
 28 17  1  0  0  0  0
 29 28  1  0  0  0  0
 30 34  1  0  0  0  0
 31 32  1  0  0  0  0
 32 29  1  1  0  0  0
 33 30  1  0  0  0  0
 33 31  1  0  0  0  0
 34 32  1  0  0  0  0
M  END
>  <MODEL>
2

>  <REMARK>
 VINA RESULT:      -9.6      1.847      9.271
  Name = 
  3 active torsions:
  status: ('A' for Active; 'I' for Inactive)
    1  A    between atoms: N_17  and  C_28
    2  A    between atoms: C_28  and  C_29
    3  A    between atoms: C_29  and  C_32
                            x       y       z     vdW  Elec       q    Type
                         _______ _______ _______ _____ _____    ______ ____

>  <TORSDO>
F 3

$$$$
=
 OpenBabel11122414273D

 34 41  0  0  1  0  0  0  0  0999 V2000
  161.6060  208.4960  150.2640 C   0  0  0  0  0  0  0  0  0  0  0  0
  161.6270  210.3550  151.8270 C   0  0  0  0  0  3  0  0  0  0  0  0
  160.2770  202.3930  148.7060 C   0  0  2  0  0  3  0  0  0  0  0  0
  161.5730  206.4740  148.8730 C   0  0  0  0  0  0  0  0  0  0  0  0
  161.1570  204.3480  149.8800 C   0  0  0  0  0  0  0  0  0  0  0  0
  160.3650  202.0110  150.7960 C   0  0  0  0  0  2  0  0  0  0  0  0
  159.6880  201.3310  149.6090 C   0  0  0  0  0  2  0  0  0  0  0  0
  162.1110  203.1700  147.2130 C   0  0  0  0  0  2  0  0  0  0  0  0
  161.2510  208.3440  152.6200 C   0  0  0  0  0  0  0  0  0  0  0  0
  160.6160  207.6530  155.6080 C   0  0  0  0  0  2  0  0  0  0  0  0
  161.0700  204.9440  151.1390 C   0  0  0  0  0  3  0  0  0  0  0  0
  161.4270  204.5440  147.3730 C   0  0  0  0  0  2  0  0  0  0  0  0
  161.1030  206.9370  152.5620 C   0  0  0  0  0  0  0  0  0  0  0  0
  161.4770  210.4980  153.1970 C   0  0  0  0  0  3  0  0  0  0  0  0
  161.4300  205.1100  148.7520 N   0  0  0  0  0  0  0  0  0  0  0  0
  161.1650  201.9940  147.5440 C   0  0  0  0  0  2  0  0  0  0  0  0
  161.1130  208.9240  155.1060 N   0  0  0  0  0  0  0  0  0  0  0  0
  161.4640  207.0980  150.1400 C   0  0  0  0  0  0  0  0  0  0  0  0
  161.1690  202.8500  149.8200 C   0  0  1  0  0  3  0  0  0  0  0  0
  161.2080  206.3230  151.2890 C   0  0  0  0  0  0  0  0  0  0  0  0
  161.9720  208.6690  147.8760 C   0  0  0  0  0  3  0  0  0  0  0  0
  161.4080  206.5070  155.0300 C   0  0  0  0  0  2  0  0  0  0  0  0
  161.8290  207.2850  147.7500 C   0  0  0  0  0  3  0  0  0  0  0  0
  160.7280  206.0890  153.7480 C   0  0  0  0  0  2  0  0  0  0  0  0
  161.2320  209.2250  153.7000 C   0  0  0  0  0  0  0  0  0  0  0  0
  161.8610  209.2730  149.1270 C   0  0  0  0  0  3  0  0  0  0  0  0
  161.4940  209.0540  151.5000 N   0  0  0  0  0  0  0  0  0  0  0  0
  161.5000  209.9110  156.1060 C   0  0  0  0  0  2  0  0  0  0  0  0
  160.5080  209.9100  157.2590 C   0  0  0  0  0  2  0  0  0  0  0  0
  160.0400  212.7580  155.4520 N   0  0  0  0  0  2  0  0  0  0  0  0
  158.5660  211.0370  156.1970 C   0  0  0  0  0  2  0  0  0  0  0  0
  159.6620  211.1700  157.2270 C   0  0  2  0  0  3  0  0  0  0  0  0
  158.6680  212.2880  155.3590 C   0  0  0  0  0  2  0  0  0  0  0  0
  160.5100  212.3390  156.7660 C   0  0  0  0  0  2  0  0  0  0  0  0
  1 27  1  0  0  0  0
  2 14  2  0  0  0  0
  3 16  1  6  0  0  0
  3  7  1  0  0  0  0
  3 19  1  0  0  0  0
  4 18  2  0  0  0  0
  5 11  2  0  0  0  0
  7  6  1  0  0  0  0
  8 12  1  0  0  0  0
  8 16  1  0  0  0  0
  9 25  2  0  0  0  0
 11 20  1  0  0  0  0
 12 15  1  0  0  0  0
 13  9  1  0  0  0  0
 13 24  1  0  0  0  0
 14 25  1  0  0  0  0
 15  4  1  0  0  0  0
 15  5  1  0  0  0  0
 17 10  1  0  0  0  0
 17 28  1  0  0  0  0
 18  1  1  0  0  0  0
 18 20  1  0  0  0  0
 19  5  1  0  0  0  0
 19  6  1  1  0  0  0
 20 13  2  0  0  0  0
 21 26  1  0  0  0  0
 22 10  1  0  0  0  0
 23 21  2  0  0  0  0
 23  4  1  0  0  0  0
 24 22  1  0  0  0  0
 25 17  1  0  0  0  0
 26  1  2  0  0  0  0
 27  2  1  0  0  0  0
 27  9  1  0  0  0  0
 28 29  1  0  0  0  0
 30 34  1  0  0  0  0
 31 32  1  0  0  0  0
 32 29  1  6  0  0  0
 33 30  1  0  0  0  0
 33 31  1  0  0  0  0
 34 32  1  0  0  0  0
M  END
>  <MODEL>
3

>  <REMARK>
 VINA RESULT:      -9.1      1.474      3.852
  Name = 
  3 active torsions:
  status: ('A' for Active; 'I' for Inactive)
    1  A    between atoms: N_17  and  C_28
    2  A    between atoms: C_28  and  C_29
    3  A    between atoms: C_29  and  C_32
                            x       y       z     vdW  Elec       q    Type
                         _______ _______ _______ _____ _____    ______ ____

>  <TORSDO>
F 3

$$$$
=
 OpenBabel11122414273D

 34 41  0  0  1  0  0  0  0  0999 V2000
  161.1040  204.9440  152.0130 C   0  0  0  0  0  0  0  0  0  0  0  0
  161.1760  206.3840  153.9680 C   0  0  0  0  0  3  0  0  0  0  0  0
  162.1490  203.7800  145.7690 C   0  0  2  0  0  3  0  0  0  0  0  0
  161.0360  203.6880  149.9060 C   0  0  0  0  0  0  0  0  0  0  0  0
  161.3660  204.8290  147.8330 C   0  0  0  0  0  0  0  0  0  0  0  0
  162.0600  205.8910  145.5270 C   0  0  0  0  0  2  0  0  0  0  0  0
  162.6980  204.7470  144.7420 C   0  0  0  0  0  2  0  0  0  0  0  0
  160.3410  202.2490  146.5280 C   0  0  0  0  0  2  0  0  0  0  0  0
  161.4690  207.3040  151.9980 C   0  0  0  0  0  0  0  0  0  0  0  0
  162.0950  210.3270  151.4740 C   0  0  0  0  0  2  0  0  0  0  0  0
  161.4880  206.0460  148.5050 C   0  0  0  0  0  3  0  0  0  0  0  0
  161.0860  202.3160  147.8780 C   0  0  0  0  0  2  0  0  0  0  0  0
  161.5540  207.3360  150.5850 C   0  0  0  0  0  0  0  0  0  0  0  0
  161.3420  207.7400  154.1920 C   0  0  0  0  0  3  0  0  0  0  0  0
  161.1180  203.6550  148.5310 N   0  0  0  0  0  0  0  0  0  0  0  0
  161.2360  202.6510  145.3350 C   0  0  0  0  0  2  0  0  0  0  0  0
  161.6510  209.7460  152.7300 N   0  0  0  0  0  0  0  0  0  0  0  0
  161.1820  204.9110  150.6040 C   0  0  0  0  0  0  0  0  0  0  0  0
  161.2870  204.8660  146.3360 C   0  0  1  0  0  3  0  0  0  0  0  0
  161.4120  206.1070  149.8950 C   0  0  0  0  0  0  0  0  0  0  0  0
  160.7280  202.5520  152.0470 C   0  0  0  0  0  3  0  0  0  0  0  0
  161.2480  209.8280  150.3290 C   0  0  0  0  0  2  0  0  0  0  0  0
  160.8080  202.5150  150.6530 C   0  0  0  0  0  3  0  0  0  0  0  0
  161.9000  208.5730  149.7990 C   0  0  0  0  0  2  0  0  0  0  0  0
  161.5350  208.3250  152.9450 C   0  0  0  0  0  0  0  0  0  0  0  0
  160.8750  203.7610  152.7250 C   0  0  0  0  0  3  0  0  0  0  0  0
  161.2490  206.1410  152.6440 N   0  0  0  0  0  0  0  0  0  0  0  0
  161.3150  210.6810  153.7960 C   0  0  0  0  0  2  0  0  0  0  0  0
  160.0550  210.2270  154.5170 C   0  0  0  0  0  2  0  0  0  0  0  0
  162.0690  210.1330  157.2610 N   0  0  0  0  0  2  0  0  0  0  0  0
  160.9360  211.9000  156.1280 C   0  0  0  0  0  2  0  0  0  0  0  0
  160.0980  210.6540  155.9740 C   0  0  2  0  0  3  0  0  0  0  0  0
  161.9100  211.5780  157.2350 C   0  0  0  0  0  2  0  0  0  0  0  0
  160.8010  209.5900  156.7940 C   0  0  0  0  0  2  0  0  0  0  0  0
  1 27  1  0  0  0  0
  1 26  1  0  0  0  0
  2 14  2  0  0  0  0
  3  7  1  6  0  0  0
  3 19  1  0  0  0  0
  4 18  1  0  0  0  0
  4 23  2  0  0  0  0
  5 11  2  0  0  0  0
  5 15  1  0  0  0  0
  7  6  1  0  0  0  0
  8 12  1  0  0  0  0
  9 27  1  0  0  0  0
  9 25  2  0  0  0  0
 10 17  1  0  0  0  0
 11 20  1  0  0  0  0
 12 15  1  0  0  0  0
 13  9  1  0  0  0  0
 15  4  1  0  0  0  0
 16  3  1  0  0  0  0
 16  8  1  0  0  0  0
 17 25  1  0  0  0  0
 17 28  1  0  0  0  0
 18  1  2  0  0  0  0
 19  6  1  6  0  0  0
 19  5  1  0  0  0  0
 20 13  2  0  0  0  0
 20 18  1  0  0  0  0
 21 26  2  0  0  0  0
 22 10  1  0  0  0  0
 23 21  1  0  0  0  0
 24 22  1  0  0  0  0
 24 13  1  0  0  0  0
 25 14  1  0  0  0  0
 27  2  1  0  0  0  0
 28 29  1  0  0  0  0
 31 33  1  0  0  0  0
 32 29  1  6  0  0  0
 32 31  1  0  0  0  0
 32 34  1  0  0  0  0
 33 30  1  0  0  0  0
 34 30  1  0  0  0  0
M  END
>  <MODEL>
4

>  <REMARK>
 VINA RESULT:      -8.5      1.211      1.546
  Name = 
  3 active torsions:
  status: ('A' for Active; 'I' for Inactive)
    1  A    between atoms: N_17  and  C_28
    2  A    between atoms: C_28  and  C_29
    3  A    between atoms: C_29  and  C_32
                            x       y       z     vdW  Elec       q    Type
                         _______ _______ _______ _____ _____    ______ ____

>  <TORSDO>
F 3

$$$$
=
 OpenBabel11122414273D

 34 41  0  0  1  0  0  0  0  0999 V2000
  160.7530  207.1690  154.1960 C   0  0  0  0  0  0  0  0  0  0  0  0
  161.2900  205.1600  152.9410 C   0  0  0  0  0  3  0  0  0  0  0  0
  158.8320  213.3030  154.5560 C   0  0  2  0  0  3  0  0  0  0  0  0
  160.2500  209.3220  155.2630 C   0  0  0  0  0  0  0  0  0  0  0  0
  160.0790  211.2960  153.9290 C   0  0  0  0  0  0  0  0  0  0  0  0
  159.5160  213.4650  152.5480 C   0  0  0  0  0  2  0  0  0  0  0  0
  158.4990  214.2220  153.4000 C   0  0  0  0  0  2  0  0  0  0  0  0
  160.1720  212.8120  156.5940 C   0  0  0  0  0  2  0  0  0  0  0  0
  161.0980  207.0460  151.8370 C   0  0  0  0  0  0  0  0  0  0  0  0
  161.3450  207.3710  148.7320 C   0  0  0  0  0  2  0  0  0  0  0  0
  160.3840  210.5650  152.7800 C   0  0  0  0  0  3  0  0  0  0  0  0
  159.6090  211.3870  156.4130 C   0  0  0  0  0  2  0  0  0  0  0  0
  160.8950  208.4390  151.6790 C   0  0  0  0  0  0  0  0  0  0  0  0
  161.5530  204.8630  151.6140 C   0  0  0  0  0  3  0  0  0  0  0  0
  160.0340  210.6790  155.1720 N   0  0  0  0  0  0  0  0  0  0  0  0
  159.3280  213.8810  155.8660 C   0  0  0  0  0  2  0  0  0  0  0  0
  161.7130  206.1970  149.5050 N   0  0  0  0  0  0  0  0  0  0  0  0
  160.5360  208.5610  154.1030 C   0  0  0  0  0  0  0  0  0  0  0  0
  160.0250  212.7900  153.8080 C   0  0  1  0  0  3  0  0  0  0  0  0
  160.6040  209.1900  152.8440 C   0  0  0  0  0  0  0  0  0  0  0  0
  160.4090  207.2770  156.5910 C   0  0  0  0  0  3  0  0  0  0  0  0
  161.8950  208.6230  149.3690 C   0  0  0  0  0  2  0  0  0  0  0  0
  160.1910  208.6540  156.5020 C   0  0  0  0  0  3  0  0  0  0  0  0
  160.8570  209.1290  150.3420 C   0  0  0  0  0  2  0  0  0  0  0  0
  161.4250  206.0560  150.9110 C   0  0  0  0  0  0  0  0  0  0  0  0
  160.6890  206.5370  155.4430 C   0  0  0  0  0  3  0  0  0  0  0  0
  161.0260  206.4770  153.0570 N   0  0  0  0  0  0  0  0  0  0  0  0
  162.4080  205.1370  148.7860 C   0  0  0  0  0  2  0  0  0  0  0  0
  161.4530  204.4350  147.8310 C   0  0  0  0  0  2  0  0  0  0  0  0
  160.6050  204.1910  144.5430 N   0  0  0  0  0  2  0  0  0  0  0  0
  162.0360  205.6660  145.7540 C   0  0  0  0  0  2  0  0  0  0  0  0
  162.0740  204.3260  146.4500 C   0  0  2  0  0  3  0  0  0  0  0  0
  161.4250  205.3830  144.4030 C   0  0  0  0  0  2  0  0  0  0  0  0
  161.2370  203.4000  145.5900 C   0  0  0  0  0  2  0  0  0  0  0  0
  1 26  1  0  0  0  0
  2 27  1  0  0  0  0
  3  7  1  6  0  0  0
  3 16  1  0  0  0  0
  4 23  2  0  0  0  0
  5 15  1  0  0  0  0
  6  7  1  0  0  0  0
  9 27  1  0  0  0  0
 10 22  1  0  0  0  0
 10 17  1  0  0  0  0
 11 20  1  0  0  0  0
 11  5  2  0  0  0  0
 12  8  1  0  0  0  0
 13  9  1  0  0  0  0
 13 20  2  0  0  0  0
 14  2  2  0  0  0  0
 15  4  1  0  0  0  0
 15 12  1  0  0  0  0
 16  8  1  0  0  0  0
 17 25  1  0  0  0  0
 18  1  2  0  0  0  0
 18  4  1  0  0  0  0
 19  6  1  6  0  0  0
 19  5  1  0  0  0  0
 19  3  1  0  0  0  0
 20 18  1  0  0  0  0
 22 24  1  0  0  0  0
 23 21  1  0  0  0  0
 24 13  1  0  0  0  0
 25 14  1  0  0  0  0
 25  9  2  0  0  0  0
 26 21  2  0  0  0  0
 27  1  1  0  0  0  0
 28 17  1  0  0  0  0
 29 28  1  0  0  0  0
 30 34  1  0  0  0  0
 31 32  1  0  0  0  0
 32 29  1  1  0  0  0
 33 30  1  0  0  0  0
 33 31  1  0  0  0  0
 34 32  1  0  0  0  0
M  END
>  <MODEL>
5

>  <REMARK>
 VINA RESULT:      -7.5      1.705      8.773
  Name = 
  3 active torsions:
  status: ('A' for Active; 'I' for Inactive)
    1  A    between atoms: N_17  and  C_28
    2  A    between atoms: C_28  and  C_29
    3  A    between atoms: C_29  and  C_32
                            x       y       z     vdW  Elec       q    Type
                         _______ _______ _______ _____ _____    ______ ____

>  <TORSDO>
F 3

$$$$
=
 OpenBabel11122414273D

 34 41  0  0  1  0  0  0  0  0999 V2000
  161.0500  205.6500  152.2880 C   0  0  0  0  0  0  0  0  0  0  0  0
  161.3300  203.7020  150.8650 C   0  0  0  0  0  3  0  0  0  0  0  0
  159.7900  211.8990  153.1890 C   0  0  2  0  0  3  0  0  0  0  0  0
  160.8120  207.7510  153.5340 C   0  0  0  0  0  0  0  0  0  0  0  0
  160.7990  209.8320  152.3600 C   0  0  0  0  0  0  0  0  0  0  0  0
  160.4150  212.1490  151.1710 C   0  0  0  0  0  2  0  0  0  0  0  0
  159.5140  212.9340  152.1210 C   0  0  0  0  0  2  0  0  0  0  0  0
  161.1440  211.1160  155.1250 C   0  0  0  0  0  2  0  0  0  0  0  0
  161.2960  205.6790  149.9130 C   0  0  0  0  0  0  0  0  0  0  0  0
  161.4630  206.2210  146.8340 C   0  0  0  0  0  2  0  0  0  0  0  0
  160.9850  209.1660  151.1470 C   0  0  0  0  0  3  0  0  0  0  0  0
  160.4300  209.7730  154.8620 C   0  0  0  0  0  2  0  0  0  0  0  0
  161.2330  207.0920  149.8700 C   0  0  0  0  0  0  0  0  0  0  0  0
  161.5130  203.4850  149.5090 C   0  0  0  0  0  3  0  0  0  0  0  0
  160.7350  209.1260  153.5540 N   0  0  0  0  0  0  0  0  0  0  0  0
  160.3900  212.3190  154.5160 C   0  0  0  0  0  2  0  0  0  0  0  0
  161.7350  204.9590  147.5000 N   0  0  0  0  0  0  0  0  0  0  0  0
  160.9760  207.0590  152.3090 C   0  0  0  0  0  0  0  0  0  0  0  0
  160.8960  211.3280  152.3540 C   0  0  1  0  0  3  0  0  0  0  0  0
  161.0630  207.7760  151.0990 C   0  0  0  0  0  0  0  0  0  0  0  0
  160.8050  205.6030  154.6970 C   0  0  0  0  0  3  0  0  0  0  0  0
  162.1640  207.3560  147.5380 C   0  0  0  0  0  2  0  0  0  0  0  0
  160.7290  206.9970  154.7210 C   0  0  0  0  0  3  0  0  0  0  0  0
  161.2180  207.8870  148.5900 C   0  0  0  0  0  2  0  0  0  0  0  0
  161.4850  204.7360  148.9030 C   0  0  0  0  0  0  0  0  0  0  0  0
  160.9650  204.9310  153.4860 C   0  0  0  0  0  3  0  0  0  0  0  0
  161.2090  205.0250  151.0900 N   0  0  0  0  0  0  0  0  0  0  0  0
  162.2900  203.8940  146.6740 C   0  0  0  0  0  2  0  0  0  0  0  0
  161.2660  203.4380  145.6460 C   0  0  0  0  0  2  0  0  0  0  0  0
  160.4840  200.1950  144.9630 N   0  0  0  0  0  2  0  0  0  0  0  0
  161.3640  201.2910  146.8900 C   0  0  0  0  0  2  0  0  0  0  0  0
  160.4580  202.2720  146.1870 C   0  0  2  0  0  3  0  0  0  0  0  0
  161.0210  199.9480  146.2910 C   0  0  0  0  0  2  0  0  0  0  0  0
  159.8440  201.5020  145.0340 C   0  0  0  0  0  2  0  0  0  0  0  0
  1 18  2  0  0  0  0
  1 26  1  0  0  0  0
  2 27  1  0  0  0  0
  3  7  1  6  0  0  0
  3 16  1  0  0  0  0
  4 15  1  0  0  0  0
  4 23  2  0  0  0  0
  5 15  1  0  0  0  0
  6  7  1  0  0  0  0
  9 27  1  0  0  0  0
 10 17  1  0  0  0  0
 10 22  1  0  0  0  0
 11  5  2  0  0  0  0
 12  8  1  0  0  0  0
 13  9  1  0  0  0  0
 13 20  2  0  0  0  0
 14  2  2  0  0  0  0
 15 12  1  0  0  0  0
 16  8  1  0  0  0  0
 17 25  1  0  0  0  0
 18  4  1  0  0  0  0
 19  6  1  6  0  0  0
 19  5  1  0  0  0  0
 19  3  1  0  0  0  0
 20 11  1  0  0  0  0
 20 18  1  0  0  0  0
 21 23  1  0  0  0  0
 22 24  1  0  0  0  0
 24 13  1  0  0  0  0
 25 14  1  0  0  0  0
 25  9  2  0  0  0  0
 26 21  2  0  0  0  0
 27  1  1  0  0  0  0
 28 17  1  0  0  0  0
 29 28  1  0  0  0  0
 30 34  1  0  0  0  0
 30 33  1  0  0  0  0
 32 29  1  6  0  0  0
 32 31  1  0  0  0  0
 33 31  1  0  0  0  0
 34 32  1  0  0  0  0
M  END
>  <MODEL>
6

>  <REMARK>
 VINA RESULT:      -7.4      1.603      8.564
  Name = 
  3 active torsions:
  status: ('A' for Active; 'I' for Inactive)
    1  A    between atoms: N_17  and  C_28
    2  A    between atoms: C_28  and  C_29
    3  A    between atoms: C_29  and  C_32
                            x       y       z     vdW  Elec       q    Type
                         _______ _______ _______ _____ _____    ______ ____

>  <TORSDO>
F 3

$$$$
=
 OpenBabel11122414273D

 34 41  0  0  1  0  0  0  0  0999 V2000
  160.8790  206.4480  153.4290 C   0  0  0  0  0  0  0  0  0  0  0  0
  161.2740  204.4310  152.1340 C   0  0  0  0  0  3  0  0  0  0  0  0
  159.2210  212.6480  153.9300 C   0  0  2  0  0  3  0  0  0  0  0  0
  160.5140  208.6080  154.5360 C   0  0  0  0  0  0  0  0  0  0  0  0
  160.3560  210.6000  153.2280 C   0  0  0  0  0  0  0  0  0  0  0  0
  159.8120  212.8030  151.8930 C   0  0  0  0  0  2  0  0  0  0  0  0
  158.8690  213.5900  152.8000 C   0  0  0  0  0  2  0  0  0  0  0  0
  160.6400  212.0850  155.8970 C   0  0  0  0  0  2  0  0  0  0  0  0
  161.1030  206.3340  151.0550 C   0  0  0  0  0  0  0  0  0  0  0  0
  161.2090  206.6790  147.9440 C   0  0  0  0  0  2  0  0  0  0  0  0
  160.5750  209.8680  152.0590 C   0  0  0  0  0  3  0  0  0  0  0  0
  160.0130  210.6850  155.7320 C   0  0  0  0  0  2  0  0  0  0  0  0
  160.9470  207.7340  150.9180 C   0  0  0  0  0  0  0  0  0  0  0  0
  161.4590  204.1360  150.7930 C   0  0  0  0  0  3  0  0  0  0  0  0
  160.3480  209.9730  154.4660 N   0  0  0  0  0  0  0  0  0  0  0  0
  159.8040  213.1940  155.2190 C   0  0  0  0  0  2  0  0  0  0  0  0
  161.5680  205.4840  148.6890 N   0  0  0  0  0  0  0  0  0  0  0  0
  160.7130  207.8470  153.3580 C   0  0  0  0  0  0  0  0  0  0  0  0
  160.3550  212.0960  153.1210 C   0  0  1  0  0  3  0  0  0  0  0  0
  160.7430  208.4860  152.1020 C   0  0  0  0  0  0  0  0  0  0  0  0
  160.6570  206.5450  155.8380 C   0  0  0  0  0  3  0  0  0  0  0  0
  161.8390  207.9020  148.5630 C   0  0  0  0  0  2  0  0  0  0  0  0
  160.4900  207.9300  155.7710 C   0  0  0  0  0  3  0  0  0  0  0  0
  160.8700  208.4390  149.5890 C   0  0  0  0  0  2  0  0  0  0  0  0
  161.3440  205.3400  150.1060 C   0  0  0  0  0  0  0  0  0  0  0  0
  160.8510  205.8060  154.6730 C   0  0  0  0  0  3  0  0  0  0  0  0
  161.0680  205.7560  152.2720 N   0  0  0  0  0  0  0  0  0  0  0  0
  162.1840  204.4040  147.9280 C   0  0  0  0  0  2  0  0  0  0  0  0
  163.1220  204.9720  146.8730 C   0  0  0  0  0  2  0  0  0  0  0  0
  160.4190  204.0240  145.0330 N   0  0  0  0  0  2  0  0  0  0  0  0
  162.1940  205.5700  144.6480 C   0  0  0  0  0  2  0  0  0  0  0  0
  162.7460  204.4510  145.4980 C   0  0  2  0  0  3  0  0  0  0  0  0
  160.8910  205.0370  144.1040 C   0  0  0  0  0  2  0  0  0  0  0  0
  161.6170  203.4470  145.6270 C   0  0  0  0  0  2  0  0  0  0  0  0
  1 26  1  0  0  0  0
  2 27  1  0  0  0  0
  3  7  1  6  0  0  0
  3 16  1  0  0  0  0
  4 23  2  0  0  0  0
  5 15  1  0  0  0  0
  6  7  1  0  0  0  0
  9 27  1  0  0  0  0
 10 22  1  0  0  0  0
 10 17  1  0  0  0  0
 11 20  1  0  0  0  0
 11  5  2  0  0  0  0
 12  8  1  0  0  0  0
 13  9  1  0  0  0  0
 13 20  2  0  0  0  0
 14  2  2  0  0  0  0
 15  4  1  0  0  0  0
 15 12  1  0  0  0  0
 16  8  1  0  0  0  0
 17 25  1  0  0  0  0
 18  1  2  0  0  0  0
 18  4  1  0  0  0  0
 19  6  1  6  0  0  0
 19  5  1  0  0  0  0
 19  3  1  0  0  0  0
 20 18  1  0  0  0  0
 22 24  1  0  0  0  0
 23 21  1  0  0  0  0
 24 13  1  0  0  0  0
 25 14  1  0  0  0  0
 25  9  2  0  0  0  0
 26 21  2  0  0  0  0
 27  1  1  0  0  0  0
 28 17  1  0  0  0  0
 29 28  1  0  0  0  0
 30 34  1  0  0  0  0
 31 32  1  0  0  0  0
 32 34  1  0  0  0  0
 32 29  1  1  0  0  0
 33 31  1  0  0  0  0
 33 30  1  0  0  0  0
M  END
>  <MODEL>
7

>  <REMARK>
 VINA RESULT:      -7.2      1.510      8.471
  Name = 
  3 active torsions:
  status: ('A' for Active; 'I' for Inactive)
    1  A    between atoms: N_17  and  C_28
    2  A    between atoms: C_28  and  C_29
    3  A    between atoms: C_29  and  C_32
                            x       y       z     vdW  Elec       q    Type
                         _______ _______ _______ _____ _____    ______ ____

>  <TORSDO>
F 3

$$$$
=
 OpenBabel11122414273D

 34 41  0  0  1  0  0  0  0  0999 V2000
  161.7480  207.8440  149.8390 C   0  0  0  0  0  0  0  0  0  0  0  0
  162.0560  206.3520  147.9480 C   0  0  0  0  0  3  0  0  0  0  0  0
  161.1660  208.9780  156.1490 C   0  0  2  0  0  3  0  0  0  0  0  0
  161.3590  209.1630  151.8720 C   0  0  0  0  0  0  0  0  0  0  0  0
  160.8000  208.0570  153.9150 C   0  0  0  0  0  0  0  0  0  0  0  0
  160.5290  206.9540  156.2890 C   0  0  0  0  0  2  0  0  0  0  0  0
  161.1550  207.9510  157.2610 C   0  0  0  0  0  2  0  0  0  0  0  0
  160.0580  210.8510  154.9410 C   0  0  0  0  0  2  0  0  0  0  0  0
  161.5430  205.4660  149.8880 C   0  0  0  0  0  0  0  0  0  0  0  0
  161.2790  202.4020  150.4780 C   0  0  0  0  0  2  0  0  0  0  0  0
  160.8300  206.8190  153.2710 C   0  0  0  0  0  3  0  0  0  0  0  0
  161.1290  210.5640  153.8670 C   0  0  0  0  0  2  0  0  0  0  0  0
  161.2020  205.4690  151.2620 C   0  0  0  0  0  0  0  0  0  0  0  0
  161.9650  204.9860  147.7400 C   0  0  0  0  0  3  0  0  0  0  0  0
  161.0420  209.2290  153.2110 N   0  0  0  0  0  0  0  0  0  0  0  0
  160.4490  210.3010  156.3310 C   0  0  0  0  0  2  0  0  0  0  0  0
  161.3660  203.0200  149.1660 N   0  0  0  0  0  0  0  0  0  0  0  0
  161.4180  207.9130  151.2090 C   0  0  0  0  0  0  0  0  0  0  0  0
  160.2820  208.0960  155.3210 C   0  0  1  0  0  3  0  0  0  0  0  0
  161.1510  206.7240  151.9180 C   0  0  0  0  0  0  0  0  0  0  0  0
  161.9560  210.2560  149.7710 C   0  0  0  0  0  3  0  0  0  0  0  0
  160.2730  203.1240  151.3410 C   0  0  0  0  0  2  0  0  0  0  0  0
  161.6330  210.3270  151.1280 C   0  0  0  0  0  3  0  0  0  0  0  0
  161.0120  204.2170  152.0760 C   0  0  0  0  0  2  0  0  0  0  0  0
  161.6460  204.4210  148.9700 C   0  0  0  0  0  0  0  0  0  0  0  0
  162.0140  209.0210  149.1280 C   0  0  0  0  0  3  0  0  0  0  0  0
  161.7930  206.6220  149.2410 N   0  0  0  0  0  0  0  0  0  0  0  0
  161.1500  202.1460  148.0200 C   0  0  0  0  0  2  0  0  0  0  0  0
  160.1710  202.7850  147.0460 C   0  0  0  0  0  2  0  0  0  0  0  0
  160.2660  204.5670  144.1470 N   0  0  0  0  0  2  0  0  0  0  0  0
  161.9550  203.5790  145.5110 C   0  0  0  0  0  2  0  0  0  0  0  0
  160.7170  202.7220  145.6310 C   0  0  2  0  0  3  0  0  0  0  0  0
  161.7060  204.4500  144.3040 C   0  0  0  0  0  2  0  0  0  0  0  0
  159.7110  203.3270  144.6720 C   0  0  0  0  0  2  0  0  0  0  0  0
  1 18  1  0  0  0  0
  2 27  1  0  0  0  0
  3 16  1  1  0  0  0
  3  7  1  0  0  0  0
  4 15  1  0  0  0  0
  5 19  1  0  0  0  0
  6  7  1  0  0  0  0
  8 16  1  0  0  0  0
  9 13  1  0  0  0  0
 10 22  1  0  0  0  0
 11  5  2  0  0  0  0
 12  8  1  0  0  0  0
 13 20  2  0  0  0  0
 13 24  1  0  0  0  0
 14  2  2  0  0  0  0
 14 25  1  0  0  0  0
 15 12  1  0  0  0  0
 15  5  1  0  0  0  0
 17 10  1  0  0  0  0
 18  4  2  0  0  0  0
 18 20  1  0  0  0  0
 19  3  1  0  0  0  0
 19  6  1  1  0  0  0
 20 11  1  0  0  0  0
 21 23  2  0  0  0  0
 22 24  1  0  0  0  0
 23  4  1  0  0  0  0
 25 17  1  0  0  0  0
 25  9  2  0  0  0  0
 26 21  1  0  0  0  0
 26  1  2  0  0  0  0
 27  1  1  0  0  0  0
 27  9  1  0  0  0  0
 28 17  1  0  0  0  0
 29 28  1  0  0  0  0
 30 33  1  0  0  0  0
 30 34  1  0  0  0  0
 31 32  1  0  0  0  0
 32 29  1  1  0  0  0
 33 31  1  0  0  0  0
 34 32  1  0  0  0  0
M  END
>  <MODEL>
8

>  <REMARK>
 VINA RESULT:      -6.8      1.548      8.929
  Name = 
  3 active torsions:
  status: ('A' for Active; 'I' for Inactive)
    1  A    between atoms: N_17  and  C_28
    2  A    between atoms: C_28  and  C_29
    3  A    between atoms: C_29  and  C_32
                            x       y       z     vdW  Elec       q    Type
                         _______ _______ _______ _____ _____    ______ ____

>  <TORSDO>
F 3

$$$$
