=
 OpenBabel11122413303D

 31 35  0  0  1  0  0  0  0  0999 V2000
  160.8120  209.1340  154.6700 C   0  0  0  0  0  0  0  0  0  0  0  0
  162.1650  209.8310  151.2450 C   0  0  2  0  0  3  0  0  0  0  0  0
  161.7380  208.6460  150.3940 C   0  0  0  0  0  0  0  0  0  0  0  0
  160.9490  206.3540  150.1940 C   0  0  0  0  0  0  0  0  0  0  0  0
  161.3420  209.9690  152.5060 C   0  0  0  0  0  0  0  0  0  0  0  0
  159.7910  210.0750  154.8120 C   0  0  0  0  0  3  0  0  0  0  0  0
  161.3120  207.4460  150.9860 C   0  0  0  0  0  3  0  0  0  0  0  0
  160.7550  211.6590  150.2280 C   0  0  2  0  0  3  0  0  0  0  0  0
  161.0810  208.1620  155.7610 C   0  0  0  0  0  1  0  0  0  0  0  0
  162.3050  209.8800  148.3710 O   0  0  0  0  0  0  0  0  0  0  0  0
  160.4860  205.0960  150.8340 C   0  0  0  0  0  1  0  0  0  0  0  0
  160.1120  211.9990  151.5740 C   0  0  0  0  0  2  0  0  0  0  0  0
  162.1850  211.1490  150.4430 C   0  0  2  0  0  3  0  0  0  0  0  0
  161.5560  209.1020  153.5330 N   0  0  0  0  0  0  0  0  0  0  0  0
  161.0190  206.4450  148.8020 C   0  0  0  0  0  3  0  0  0  0  0  0
  160.3170  210.9330  152.6120 C   0  0  0  0  0  0  0  0  0  0  0  0
  159.5530  210.9820  153.7790 C   0  0  0  0  0  3  0  0  0  0  0  0
  162.9160  210.9320  149.1160 C   0  0  0  0  0  2  0  0  0  0  0  0
  161.8420  208.7160  148.9890 C   0  0  0  0  0  0  0  0  0  0  0  0
  161.4680  207.6230  148.2020 C   0  0  0  0  0  3  0  0  0  0  0  0
  160.0400  211.7180  147.4690 O   0  0  0  0  0  0  0  0  0  0  0  0
  160.3820  212.8070  148.0050 C   0  0  0  0  0  0  0  0  0  0  0  0
  160.7580  212.8450  149.3840 N   0  0  0  0  0  2  0  0  0  0  0  0
  161.2150  213.7310  144.4240 N   0  0  0  0  0  0  0  0  0  0  0  0
  159.4030  214.0400  146.0550 C   0  0  0  0  0  2  0  0  0  0  0  0
  162.8780  214.4000  147.7650 C   0  0  0  0  0  1  0  0  0  0  0  0
  161.6470  212.8790  143.3320 C   0  0  0  0  0  1  0  0  0  0  0  0
  159.9370  213.1980  144.8920 C   0  0  0  0  0  2  0  0  0  0  0  0
  161.8130  214.4530  146.6820 C   0  0  2  0  0  3  0  0  0  0  0  0
  160.4150  214.0800  147.2050 C   0  0  2  0  0  3  0  0  0  0  0  0
  162.2020  213.5800  145.4910 C   0  0  0  0  0  2  0  0  0  0  0  0
  1  6  1  0  0  0  0
  1  9  1  0  0  0  0
  2  3  1  6  0  0  0
  2  5  1  0  0  0  0
  3  7  1  0  0  0  0
  4 11  1  0  0  0  0
  4  7  2  0  0  0  0
  5 16  2  0  0  0  0
  5 14  1  0  0  0  0
  8 23  1  6  0  0  0
  8 13  1  0  0  0  0
  8 12  1  0  0  0  0
 10 19  1  0  0  0  0
 10 18  1  0  0  0  0
 12 16  1  0  0  0  0
 13 18  1  6  0  0  0
 13  2  1  0  0  0  0
 14  1  2  0  0  0  0
 15  4  1  0  0  0  0
 16 17  1  0  0  0  0
 17  6  2  0  0  0  0
 19  3  2  0  0  0  0
 20 15  2  0  0  0  0
 20 19  1  0  0  0  0
 21 22  2  0  0  0  0
 22 23  1  0  0  0  0
 24 28  1  0  0  0  0
 24 31  1  0  0  0  0
 25 30  1  0  0  0  0
 27 24  1  0  0  0  0
 28 25  1  0  0  0  0
 29 30  1  0  0  0  0
 29 26  1  1  0  0  0
 30 22  1  6  0  0  0
 31 29  1  0  0  0  0
M  END
>  <MODEL>
1

>  <REMARK>
 VINA RESULT:      -6.1      0.000      0.000
  Name = 
  2 active torsions:
  status: ('A' for Active; 'I' for Inactive)
    1  A    between atoms: C_5  and  C_30
    2  A    between atoms: C_10  and  N_16
                            x       y       z     vdW  Elec       q    Type
                         _______ _______ _______ _____ _____    ______ ____

>  <TORSDO>
F 2

$$$$
=
 OpenBabel11122413303D

 31 35  0  0  1  0  0  0  0  0999 V2000
  160.8880  208.6130  156.1780 C   0  0  0  0  0  0  0  0  0  0  0  0
  161.9410  209.4190  152.6730 C   0  0  2  0  0  3  0  0  0  0  0  0
  161.5900  208.1870  151.8540 C   0  0  0  0  0  0  0  0  0  0  0  0
  161.0420  205.8210  151.7110 C   0  0  0  0  0  0  0  0  0  0  0  0
  161.1880  209.4800  153.9830 C   0  0  0  0  0  0  0  0  0  0  0  0
  159.7830  209.4400  156.3820 C   0  0  0  0  0  3  0  0  0  0  0  0
  161.3340  206.9540  152.4750 C   0  0  0  0  0  3  0  0  0  0  0  0
  160.2800  211.0740  151.7430 C   0  0  2  0  0  3  0  0  0  0  0  0
  161.3280  207.6860  157.2530 C   0  0  0  0  0  1  0  0  0  0  0  0
  161.8930  209.4550  149.7960 O   0  0  0  0  0  0  0  0  0  0  0  0
  160.7580  204.5260  152.3820 C   0  0  0  0  0  1  0  0  0  0  0  0
  159.6910  211.3570  153.1250 C   0  0  0  0  0  2  0  0  0  0  0  0
  161.7670  210.7240  151.8680 C   0  0  2  0  0  3  0  0  0  0  0  0
  161.5590  208.6500  154.9970 N   0  0  0  0  0  0  0  0  0  0  0  0
  161.0150  205.9060  150.3170 C   0  0  0  0  0  3  0  0  0  0  0  0
  160.0740  210.3280  154.1510 C   0  0  0  0  0  0  0  0  0  0  0  0
  159.3840  210.3060  155.3640 C   0  0  0  0  0  3  0  0  0  0  0  0
  162.4330  210.5730  150.4980 C   0  0  0  0  0  2  0  0  0  0  0  0
  161.5980  208.2540  150.4450 C   0  0  0  0  0  0  0  0  0  0  0  0
  161.2950  207.1200  149.6860 C   0  0  0  0  0  3  0  0  0  0  0  0
  157.8950  212.6250  151.5590 O   0  0  0  0  0  0  0  0  0  0  0  0
  158.8780  212.9840  150.8550 C   0  0  0  0  0  0  0  0  0  0  0  0
  160.1020  212.2470  150.8970 N   0  0  0  0  0  2  0  0  0  0  0  0
  157.8030  213.5890  147.2710 N   0  0  0  0  0  0  0  0  0  0  0  0
  157.3300  214.4400  149.5260 C   0  0  0  0  0  2  0  0  0  0  0  0
  161.1320  213.7500  149.0780 C   0  0  0  0  0  1  0  0  0  0  0  0
  157.3370  212.6380  146.2780 C   0  0  0  0  0  1  0  0  0  0  0  0
  156.9090  213.4680  148.4200 C   0  0  0  0  0  2  0  0  0  0  0  0
  159.7000  214.1140  148.7210 C   0  0  2  0  0  3  0  0  0  0  0  0
  158.7790  214.1820  149.9520 C   0  0  2  0  0  3  0  0  0  0  0  0
  159.1400  213.1550  147.6720 C   0  0  0  0  0  2  0  0  0  0  0  0
  1  6  1  0  0  0  0
  1  9  1  0  0  0  0
  2  3  1  6  0  0  0
  2  5  1  0  0  0  0
  3  7  1  0  0  0  0
  4 11  1  0  0  0  0
  4  7  2  0  0  0  0
  5 16  2  0  0  0  0
  5 14  1  0  0  0  0
  8 23  1  6  0  0  0
  8 13  1  0  0  0  0
  8 12  1  0  0  0  0
 10 19  1  0  0  0  0
 10 18  1  0  0  0  0
 12 16  1  0  0  0  0
 13 18  1  6  0  0  0
 13  2  1  0  0  0  0
 14  1  2  0  0  0  0
 15  4  1  0  0  0  0
 16 17  1  0  0  0  0
 17  6  2  0  0  0  0
 19  3  2  0  0  0  0
 20 15  2  0  0  0  0
 20 19  1  0  0  0  0
 22 23  1  0  0  0  0
 22 21  2  0  0  0  0
 24 31  1  0  0  0  0
 24 28  1  0  0  0  0
 25 30  1  0  0  0  0
 27 24  1  0  0  0  0
 28 25  1  0  0  0  0
 29 26  1  1  0  0  0
 29 30  1  0  0  0  0
 30 22  1  6  0  0  0
 31 29  1  0  0  0  0
M  END
>  <MODEL>
2

>  <REMARK>
 VINA RESULT:      -6.0      2.041      2.607
  Name = 
  2 active torsions:
  status: ('A' for Active; 'I' for Inactive)
    1  A    between atoms: C_5  and  C_30
    2  A    between atoms: C_10  and  N_16
                            x       y       z     vdW  Elec       q    Type
                         _______ _______ _______ _____ _____    ______ ____

>  <TORSDO>
F 2

$$$$
=
 OpenBabel11122413303D

 31 35  0  0  1  0  0  0  0  0999 V2000
  160.9320  206.2550  146.5450 C   0  0  0  0  0  0  0  0  0  0  0  0
  160.2480  205.0190  150.0160 C   0  0  2  0  0  3  0  0  0  0  0  0
  160.7100  203.5710  150.0270 C   0  0  0  0  0  0  0  0  0  0  0  0
  161.3220  201.5310  148.8500 C   0  0  0  0  0  0  0  0  0  0  0  0
  160.8520  205.8150  148.8820 C   0  0  0  0  0  0  0  0  0  0  0  0
  161.9900  207.1470  146.7220 C   0  0  0  0  0  3  0  0  0  0  0  0
  160.9240  202.8710  148.8290 C   0  0  0  0  0  3  0  0  0  0  0  0
  161.9640  206.0590  151.5450 C   0  0  2  0  0  3  0  0  0  0  0  0
  160.3970  206.0000  145.1820 C   0  0  0  0  0  1  0  0  0  0  0  0
  160.6060  203.5430  152.4610 O   0  0  0  0  0  0  0  0  0  0  0  0
  161.5580  200.8070  147.5750 C   0  0  0  0  0  1  0  0  0  0  0  0
  162.3940  207.0690  150.4800 C   0  0  0  0  0  2  0  0  0  0  0  0
  160.4790  205.7160  151.3740 C   0  0  2  0  0  3  0  0  0  0  0  0
  160.3920  205.6160  147.6160 N   0  0  0  0  0  0  0  0  0  0  0  0
  161.4980  200.8740  150.0700 C   0  0  0  0  0  3  0  0  0  0  0  0
  161.9240  206.7070  149.1000 C   0  0  0  0  0  0  0  0  0  0  0  0
  162.4790  207.3770  148.0090 C   0  0  0  0  0  3  0  0  0  0  0  0
  159.9700  204.8190  152.5040 C   0  0  0  0  0  2  0  0  0  0  0  0
  160.8540  202.8880  151.2520 C   0  0  0  0  0  0  0  0  0  0  0  0
  161.2620  201.5510  151.2680 C   0  0  0  0  0  3  0  0  0  0  0  0
  160.5250  208.2340  152.6990 O   0  0  0  0  0  0  0  0  0  0  0  0
  161.4450  207.7120  153.3880 C   0  0  0  0  0  0  0  0  0  0  0  0
  162.2070  206.6230  152.8660 N   0  0  0  0  0  2  0  0  0  0  0  0
  159.6450  209.8380  155.9600 N   0  0  0  0  0  0  0  0  0  0  0  0
  160.7960  207.6720  155.8090 C   0  0  0  0  0  2  0  0  0  0  0  0
  162.6830  210.3860  153.7600 C   0  0  0  0  0  1  0  0  0  0  0  0
  158.3310  210.4500  155.8900 C   0  0  0  0  0  1  0  0  0  0  0  0
  159.4520  208.4040  155.7530 C   0  0  0  0  0  2  0  0  0  0  0  0
  161.8210  209.7700  154.8490 C   0  0  2  0  0  3  0  0  0  0  0  0
  161.7640  208.2340  154.7620 C   0  0  2  0  0  3  0  0  0  0  0  0
  160.4180  210.3710  154.8400 C   0  0  0  0  0  2  0  0  0  0  0  0
  1  6  2  0  0  0  0
  1 14  1  0  0  0  0
  2  5  1  6  0  0  0
  2  3  1  0  0  0  0
  2 13  1  0  0  0  0
  3 19  1  0  0  0  0
  4 15  2  0  0  0  0
  5 16  1  0  0  0  0
  6 17  1  0  0  0  0
  7  4  1  0  0  0  0
  7  3  2  0  0  0  0
  8 23  1  1  0  0  0
  9  1  1  0  0  0  0
 10 18  1  0  0  0  0
 11  4  1  0  0  0  0
 12  8  1  0  0  0  0
 13  8  1  0  0  0  0
 13 18  1  1  0  0  0
 14  5  2  0  0  0  0
 15 20  1  0  0  0  0
 16 12  1  0  0  0  0
 17 16  2  0  0  0  0
 19 20  2  0  0  0  0
 19 10  1  0  0  0  0
 21 22  2  0  0  0  0
 23 22  1  0  0  0  0
 27 24  1  0  0  0  0
 28 25  1  0  0  0  0
 28 24  1  0  0  0  0
 29 26  1  6  0  0  0
 30 22  1  6  0  0  0
 30 29  1  0  0  0  0
 30 25  1  0  0  0  0
 31 29  1  0  0  0  0
 31 24  1  0  0  0  0
M  END
>  <MODEL>
3

>  <REMARK>
 VINA RESULT:      -6.0      4.621      8.024
  Name = 
  2 active torsions:
  status: ('A' for Active; 'I' for Inactive)
    1  A    between atoms: C_5  and  C_30
    2  A    between atoms: C_10  and  N_16
                            x       y       z     vdW  Elec       q    Type
                         _______ _______ _______ _____ _____    ______ ____

>  <TORSDO>
F 2

$$$$
=
 OpenBabel11122413303D

 31 35  0  0  1  0  0  0  0  0999 V2000
  161.2080  203.7850  145.9060 C   0  0  0  0  0  0  0  0  0  0  0  0
  160.5170  205.8330  148.9680 C   0  0  2  0  0  3  0  0  0  0  0  0
  160.8880  204.9400  150.1420 C   0  0  0  0  0  0  0  0  0  0  0  0
  161.3470  202.7380  151.0700 C   0  0  0  0  0  0  0  0  0  0  0  0
  161.1480  205.3800  147.6710 C   0  0  0  0  0  0  0  0  0  0  0  0
  162.3240  204.4090  145.3460 C   0  0  0  0  0  3  0  0  0  0  0  0
  161.0340  203.5530  149.9790 C   0  0  0  0  0  3  0  0  0  0  0  0
  162.3250  207.5840  149.1350 C   0  0  2  0  0  3  0  0  0  0  0  0
  160.6320  202.5770  145.2610 C   0  0  0  0  0  1  0  0  0  0  0  0
  160.8310  206.8630  151.6370 O   0  0  0  0  0  0  0  0  0  0  0  0
  161.5120  201.2740  150.8790 C   0  0  0  0  0  1  0  0  0  0  0  0
  162.7960  207.3250  147.7040 C   0  0  0  0  0  2  0  0  0  0  0  0
  160.8190  207.3200  149.2480 C   0  0  2  0  0  3  0  0  0  0  0  0
  160.6510  204.2790  147.0430 N   0  0  0  0  0  0  0  0  0  0  0  0
  161.5050  203.3000  152.3380 C   0  0  0  0  0  3  0  0  0  0  0  0
  162.2770  206.0350  147.1360 C   0  0  0  0  0  0  0  0  0  0  0  0
  162.8520  205.5430  145.9620 C   0  0  0  0  0  3  0  0  0  0  0  0
  160.2770  207.7030  150.6270 C   0  0  0  0  0  2  0  0  0  0  0  0
  161.0130  205.4930  151.4330 C   0  0  0  0  0  0  0  0  0  0  0  0
  161.3360  204.6740  152.5200 C   0  0  0  0  0  3  0  0  0  0  0  0
  161.2260  209.8990  147.8860 O   0  0  0  0  0  0  0  0  0  0  0  0
  162.0390  210.0790  148.8340 C   0  0  0  0  0  0  0  0  0  0  0  0
  162.6300  208.9610  149.4990 N   0  0  0  0  0  2  0  0  0  0  0  0
  161.0200  213.5930  147.8410 N   0  0  0  0  0  0  0  0  0  0  0  0
  161.2040  212.2080  149.8620 C   0  0  0  0  0  2  0  0  0  0  0  0
  164.2120  211.5810  147.4770 C   0  0  0  0  0  1  0  0  0  0  0  0
  160.0790  214.0240  146.8240 C   0  0  0  0  0  1  0  0  0  0  0  0
  160.2830  212.7160  148.7490 C   0  0  0  0  0  2  0  0  0  0  0  0
  163.0760  212.3140  148.1720 C   0  0  2  0  0  3  0  0  0  0  0  0
  162.4100  211.4680  149.2730 C   0  0  2  0  0  3  0  0  0  0  0  0
  162.0440  212.8040  147.1590 C   0  0  0  0  0  2  0  0  0  0  0  0
  1 14  1  0  0  0  0
  2  5  1  6  0  0  0
  2 13  1  0  0  0  0
  2  3  1  0  0  0  0
  3 19  1  0  0  0  0
  4 15  2  0  0  0  0
  6  1  2  0  0  0  0
  6 17  1  0  0  0  0
  7  3  2  0  0  0  0
  7  4  1  0  0  0  0
  8 13  1  0  0  0  0
  8 23  1  6  0  0  0
  9  1  1  0  0  0  0
 11  4  1  0  0  0  0
 12  8  1  0  0  0  0
 13 18  1  1  0  0  0
 14  5  2  0  0  0  0
 15 20  1  0  0  0  0
 16  5  1  0  0  0  0
 16 12  1  0  0  0  0
 17 16  2  0  0  0  0
 18 10  1  0  0  0  0
 19 10  1  0  0  0  0
 19 20  2  0  0  0  0
 21 22  2  0  0  0  0
 22 23  1  0  0  0  0
 24 28  1  0  0  0  0
 27 24  1  0  0  0  0
 28 25  1  0  0  0  0
 29 26  1  6  0  0  0
 29 30  1  0  0  0  0
 30 22  1  6  0  0  0
 30 25  1  0  0  0  0
 31 24  1  0  0  0  0
 31 29  1  0  0  0  0
M  END
>  <MODEL>
4

>  <REMARK>
 VINA RESULT:      -5.4      2.822      5.836
  Name = 
  2 active torsions:
  status: ('A' for Active; 'I' for Inactive)
    1  A    between atoms: C_5  and  C_30
    2  A    between atoms: C_10  and  N_16
                            x       y       z     vdW  Elec       q    Type
                         _______ _______ _______ _____ _____    ______ ____

>  <TORSDO>
F 2

$$$$
=
 OpenBabel11122413303D

 31 35  0  0  1  0  0  0  0  0999 V2000
  160.8350  204.3310  145.1240 C   0  0  0  0  0  0  0  0  0  0  0  0
  160.4210  205.1430  148.7590 C   0  0  2  0  0  3  0  0  0  0  0  0
  160.8520  203.8900  149.5030 C   0  0  0  0  0  0  0  0  0  0  0  0
  161.3190  201.5020  149.5440 C   0  0  0  0  0  0  0  0  0  0  0  0
  160.9440  205.1870  147.3410 C   0  0  0  0  0  0  0  0  0  0  0  0
  161.9230  205.1160  144.7390 C   0  0  0  0  0  3  0  0  0  0  0  0
  160.9490  202.6540  148.8440 C   0  0  0  0  0  3  0  0  0  0  0  0
  162.2820  206.7210  149.4020 C   0  0  2  0  0  3  0  0  0  0  0  0
  160.1820  203.4340  144.1360 C   0  0  0  0  0  1  0  0  0  0  0  0
  160.9540  205.1480  151.5870 O   0  0  0  0  0  0  0  0  0  0  0  0
  161.4310  200.2040  148.8310 C   0  0  0  0  0  1  0  0  0  0  0  0
  162.6410  206.9930  147.9410 C   0  0  0  0  0  2  0  0  0  0  0  0
  160.7810  206.4320  149.5280 C   0  0  2  0  0  3  0  0  0  0  0  0
  160.3750  204.3840  146.4010 N   0  0  0  0  0  0  0  0  0  0  0  0
  161.5830  201.5730  150.9140 C   0  0  0  0  0  3  0  0  0  0  0  0
  162.0490  205.9920  146.9900 C   0  0  0  0  0  0  0  0  0  0  0  0
  162.5240  205.9540  145.6780 C   0  0  0  0  0  3  0  0  0  0  0  0
  160.3500  206.2940  150.9900 C   0  0  0  0  0  2  0  0  0  0  0  0
  161.0850  203.9430  150.8930 C   0  0  0  0  0  0  0  0  0  0  0  0
  161.4640  202.7900  151.5870 C   0  0  0  0  0  3  0  0  0  0  0  0
  161.3870  209.3910  148.9570 O   0  0  0  0  0  0  0  0  0  0  0  0
  162.1590  209.1910  149.9350 C   0  0  0  0  0  0  0  0  0  0  0  0
  162.6480  207.8760  150.2090 N   0  0  0  0  0  2  0  0  0  0  0  0
  160.4510  211.4580  152.4470 N   0  0  0  0  0  0  0  0  0  0  0  0
  162.4090  209.9810  152.3000 C   0  0  0  0  0  2  0  0  0  0  0  0
  161.9560  212.0060  149.0110 C   0  0  0  0  0  1  0  0  0  0  0  0
  159.0610  211.4890  152.8610 C   0  0  0  0  0  1  0  0  0  0  0  0
  160.9390  210.1060  152.7130 C   0  0  0  0  0  2  0  0  0  0  0  0
  161.9030  211.6670  150.4910 C   0  0  2  0  0  3  0  0  0  0  0  0
  162.5890  210.3280  150.8190 C   0  0  2  0  0  3  0  0  0  0  0  0
  160.4650  211.6840  151.0030 C   0  0  0  0  0  2  0  0  0  0  0  0
  1 14  1  0  0  0  0
  2  5  1  6  0  0  0
  2  3  1  0  0  0  0
  2 13  1  0  0  0  0
  3 19  1  0  0  0  0
  4 15  2  0  0  0  0
  6  1  2  0  0  0  0
  6 17  1  0  0  0  0
  7  3  2  0  0  0  0
  7  4  1  0  0  0  0
  8 13  1  0  0  0  0
  8 23  1  1  0  0  0
  9  1  1  0  0  0  0
 11  4  1  0  0  0  0
 12  8  1  0  0  0  0
 13 18  1  1  0  0  0
 14  5  2  0  0  0  0
 15 20  1  0  0  0  0
 16  5  1  0  0  0  0
 16 12  1  0  0  0  0
 17 16  2  0  0  0  0
 18 10  1  0  0  0  0
 19 20  2  0  0  0  0
 19 10  1  0  0  0  0
 21 22  2  0  0  0  0
 22 23  1  0  0  0  0
 24 28  1  0  0  0  0
 24 27  1  0  0  0  0
 25 28  1  0  0  0  0
 29 26  1  6  0  0  0
 29 30  1  0  0  0  0
 29 31  1  0  0  0  0
 30 22  1  6  0  0  0
 30 25  1  0  0  0  0
 31 24  1  0  0  0  0
M  END
>  <MODEL>
5

>  <REMARK>
 VINA RESULT:      -4.8      3.177      7.046
  Name = 
  2 active torsions:
  status: ('A' for Active; 'I' for Inactive)
    1  A    between atoms: C_5  and  C_30
    2  A    between atoms: C_10  and  N_16
                            x       y       z     vdW  Elec       q    Type
                         _______ _______ _______ _____ _____    ______ ____

>  <TORSDO>
F 2

$$$$
=
 OpenBabel11122413303D

 31 35  0  0  1  0  0  0  0  0999 V2000
  161.9690  213.1090  147.9210 C   0  0  0  0  0  0  0  0  0  0  0  0
  159.6750  214.0320  150.7370 C   0  0  2  0  0  3  0  0  0  0  0  0
  158.2790  214.0290  150.1360 C   0  0  0  0  0  0  0  0  0  0  0  0
  156.8000  214.1000  148.2050 C   0  0  0  0  0  0  0  0  0  0  0  0
  160.6670  213.2490  149.9070 C   0  0  0  0  0  0  0  0  0  0  0  0
  162.3980  211.8260  148.2610 C   0  0  0  0  0  3  0  0  0  0  0  0
  158.0890  214.0740  148.7460 C   0  0  0  0  0  3  0  0  0  0  0  0
  159.5170  212.0370  152.2730 C   0  0  2  0  0  3  0  0  0  0  0  0
  162.4350  213.7370  146.6570 C   0  0  0  0  0  1  0  0  0  0  0  0
  157.3050  214.0640  152.3700 O   0  0  0  0  0  0  0  0  0  0  0  0
  156.6150  214.1320  146.7320 C   0  0  0  0  0  1  0  0  0  0  0  0
  160.7140  211.3530  151.6120 C   0  0  0  0  0  2  0  0  0  0  0  0
  159.6790  213.5600  152.2060 C   0  0  2  0  0  3  0  0  0  0  0  0
  161.1230  213.7850  148.7420 N   0  0  0  0  0  0  0  0  0  0  0  0
  155.6880  214.0950  149.0500 C   0  0  0  0  0  3  0  0  0  0  0  0
  161.0760  211.9510  150.2820 C   0  0  0  0  0  0  0  0  0  0  0  0
  161.9530  211.2520  149.4520 C   0  0  0  0  0  3  0  0  0  0  0  0
  158.5750  214.2830  152.9810 C   0  0  0  0  0  2  0  0  0  0  0  0
  157.1500  214.0630  150.9810 C   0  0  0  0  0  0  0  0  0  0  0  0
  155.8630  214.0790  150.4350 C   0  0  0  0  0  3  0  0  0  0  0  0
  160.0860  209.4030  153.2060 O   0  0  0  0  0  0  0  0  0  0  0  0
  159.7210  210.2580  154.0590 C   0  0  0  0  0  0  0  0  0  0  0  0
  159.4150  211.5940  153.6570 N   0  0  0  0  0  2  0  0  0  0  0  0
  162.0010  210.3160  157.0870 N   0  0  0  0  0  0  0  0  0  0  0  0
  159.7720  211.1050  156.4180 C   0  0  0  0  0  2  0  0  0  0  0  0
  160.4580  207.5430  155.0140 C   0  0  0  0  0  1  0  0  0  0  0  0
  163.3880  210.7330  157.1860 C   0  0  0  0  0  1  0  0  0  0  0  0
  161.2560  211.4580  156.5590 C   0  0  0  0  0  2  0  0  0  0  0  0
  160.5200  208.7400  155.9480 C   0  0  2  0  0  3  0  0  0  0  0  0
  159.5880  209.8840  155.5100 C   0  0  2  0  0  3  0  0  0  0  0  0
  161.9560  209.2340  156.1060 C   0  0  0  0  0  2  0  0  0  0  0  0
  1  6  2  0  0  0  0
  1 14  1  0  0  0  0
  2  5  1  6  0  0  0
  2 13  1  0  0  0  0
  3  2  1  0  0  0  0
  3 19  1  0  0  0  0
  4  7  1  0  0  0  0
  4 15  2  0  0  0  0
  5 16  1  0  0  0  0
  6 17  1  0  0  0  0
  7  3  2  0  0  0  0
  8 23  1  1  0  0  0
  9  1  1  0  0  0  0
 10 18  1  0  0  0  0
 11  4  1  0  0  0  0
 12  8  1  0  0  0  0
 13  8  1  0  0  0  0
 13 18  1  1  0  0  0
 14  5  2  0  0  0  0
 15 20  1  0  0  0  0
 16 12  1  0  0  0  0
 17 16  2  0  0  0  0
 19 10  1  0  0  0  0
 20 19  2  0  0  0  0
 21 22  2  0  0  0  0
 23 22  1  0  0  0  0
 24 27  1  0  0  0  0
 25 28  1  0  0  0  0
 28 24  1  0  0  0  0
 29 26  1  6  0  0  0
 29 31  1  0  0  0  0
 30 22  1  6  0  0  0
 30 29  1  0  0  0  0
 30 25  1  0  0  0  0
 31 24  1  0  0  0  0
M  END
>  <MODEL>
6

>  <REMARK>
 VINA RESULT:      -4.7      2.959      8.361
  Name = 
  2 active torsions:
  status: ('A' for Active; 'I' for Inactive)
    1  A    between atoms: C_5  and  C_30
    2  A    between atoms: C_10  and  N_16
                            x       y       z     vdW  Elec       q    Type
                         _______ _______ _______ _____ _____    ______ ____

>  <TORSDO>
F 2

$$$$
=
 OpenBabel11122413303D

 31 35  0  0  1  0  0  0  0  0999 V2000
  161.9080  206.4880  147.5390 C   0  0  0  0  0  0  0  0  0  0  0  0
  162.4180  209.1060  150.1710 C   0  0  2  0  0  3  0  0  0  0  0  0
  161.8050  210.3750  149.6010 C   0  0  0  0  0  0  0  0  0  0  0  0
  160.9940  211.6760  147.7110 C   0  0  0  0  0  0  0  0  0  0  0  0
  161.9140  207.8570  149.4840 C   0  0  0  0  0  0  0  0  0  0  0  0
  160.9490  205.6460  148.1020 C   0  0  0  0  0  3  0  0  0  0  0  0
  161.5320  210.4940  148.2280 C   0  0  0  0  0  3  0  0  0  0  0  0
  160.8050  208.6210  152.0480 C   0  0  2  0  0  3  0  0  0  0  0  0
  162.4280  206.2110  146.1740 C   0  0  0  0  0  1  0  0  0  0  0  0
  161.8780  211.4140  151.8030 O   0  0  0  0  0  0  0  0  0  0  0  0
  160.6970  211.7810  146.2590 C   0  0  0  0  0  1  0  0  0  0  0  0
  160.4960  207.2240  151.5070 C   0  0  0  0  0  2  0  0  0  0  0  0
  162.2460  209.0120  151.7010 C   0  0  2  0  0  3  0  0  0  0  0  0
  162.3650  207.5620  148.2340 N   0  0  0  0  0  0  0  0  0  0  0  0
  160.7360  212.7550  148.5580 C   0  0  0  0  0  3  0  0  0  0  0  0
  160.9410  207.0310  150.0850 C   0  0  0  0  0  0  0  0  0  0  0  0
  160.4720  205.9180  149.3840 C   0  0  0  0  0  3  0  0  0  0  0  0
  162.6450  210.3410  152.3460 C   0  0  0  0  0  2  0  0  0  0  0  0
  161.5750  211.4840  150.4410 C   0  0  0  0  0  0  0  0  0  0  0  0
  161.0290  212.6600  149.9200 C   0  0  0  0  0  3  0  0  0  0  0  0
  159.3240  210.5810  153.4940 O   0  0  0  0  0  0  0  0  0  0  0  0
  159.8470  209.6430  154.1550 C   0  0  0  0  0  0  0  0  0  0  0  0
  160.6070  208.6310  153.4910 N   0  0  0  0  0  2  0  0  0  0  0  0
  162.1030  210.2720  157.1360 N   0  0  0  0  0  0  0  0  0  0  0  0
  159.8990  210.9540  156.2900 C   0  0  0  0  0  2  0  0  0  0  0  0
  160.5120  207.1660  155.6540 C   0  0  0  0  0  1  0  0  0  0  0  0
  163.4980  210.6700  157.1650 C   0  0  0  0  0  1  0  0  0  0  0  0
  161.3890  211.2960  156.3750 C   0  0  0  0  0  2  0  0  0  0  0  0
  160.5940  208.5280  156.3240 C   0  0  2  0  0  3  0  0  0  0  0  0
  159.6940  209.5780  155.6490 C   0  0  2  0  0  3  0  0  0  0  0  0
  162.0400  209.0130  156.3960 C   0  0  0  0  0  2  0  0  0  0  0  0
  1  6  2  0  0  0  0
  1 14  1  0  0  0  0
  2  5  1  6  0  0  0
  2 13  1  0  0  0  0
  3  2  1  0  0  0  0
  3 19  1  0  0  0  0
  4  7  1  0  0  0  0
  4 15  2  0  0  0  0
  5 16  1  0  0  0  0
  6 17  1  0  0  0  0
  7  3  2  0  0  0  0
  8 23  1  1  0  0  0
  9  1  1  0  0  0  0
 10 18  1  0  0  0  0
 11  4  1  0  0  0  0
 12  8  1  0  0  0  0
 13  8  1  0  0  0  0
 13 18  1  1  0  0  0
 14  5  2  0  0  0  0
 15 20  1  0  0  0  0
 16 12  1  0  0  0  0
 17 16  2  0  0  0  0
 19 10  1  0  0  0  0
 20 19  2  0  0  0  0
 21 22  2  0  0  0  0
 23 22  1  0  0  0  0
 24 27  1  0  0  0  0
 25 28  1  0  0  0  0
 28 24  1  0  0  0  0
 29 26  1  6  0  0  0
 29 31  1  0  0  0  0
 30 22  1  6  0  0  0
 30 25  1  0  0  0  0
 30 29  1  0  0  0  0
 31 24  1  0  0  0  0
M  END
>  <MODEL>
7

>  <REMARK>
 VINA RESULT:      -4.4      2.529      7.687
  Name = 
  2 active torsions:
  status: ('A' for Active; 'I' for Inactive)
    1  A    between atoms: C_5  and  C_30
    2  A    between atoms: C_10  and  N_16
                            x       y       z     vdW  Elec       q    Type
                         _______ _______ _______ _____ _____    ______ ____

>  <TORSDO>
F 2

$$$$
=
 OpenBabel11122413303D

 31 35  0  0  1  0  0  0  0  0999 V2000
  160.8080  201.6690  148.7690 C   0  0  0  0  0  0  0  0  0  0  0  0
  162.3200  204.8970  149.9240 C   0  0  2  0  0  3  0  0  0  0  0  0
  161.8140  205.9500  148.9510 C   0  0  0  0  0  0  0  0  0  0  0  0
  160.8310  206.5620  146.8110 C   0  0  0  0  0  0  0  0  0  0  0  0
  161.4750  203.6440  149.9160 C   0  0  0  0  0  0  0  0  0  0  0  0
  159.8720  201.3770  149.7610 C   0  0  0  0  0  3  0  0  0  0  0  0
  161.2660  205.5850  147.7110 C   0  0  0  0  0  3  0  0  0  0  0  0
  161.1070  205.5960  152.0230 C   0  0  2  0  0  3  0  0  0  0  0  0
  160.9580  200.7620  147.6010 C   0  0  0  0  0  1  0  0  0  0  0  0
  162.5480  207.7150  150.4610 O   0  0  0  0  0  0  0  0  0  0  0  0
  160.2400  206.1600  145.5090 C   0  0  0  0  0  1  0  0  0  0  0  0
  160.4580  204.2200  152.1820 C   0  0  0  0  0  2  0  0  0  0  0  0
  162.4800  205.4550  151.3550 C   0  0  2  0  0  3  0  0  0  0  0  0
  161.5800  202.7820  148.8670 N   0  0  0  0  0  0  0  0  0  0  0  0
  160.9510  207.9140  147.1370 C   0  0  0  0  0  3  0  0  0  0  0  0
  160.5360  203.3840  150.9370 C   0  0  0  0  0  0  0  0  0  0  0  0
  159.7450  202.2370  150.8520 C   0  0  0  0  0  3  0  0  0  0  0  0
  163.2270  206.7890  151.3050 C   0  0  0  0  0  2  0  0  0  0  0  0
  161.9660  207.3190  149.2540 C   0  0  0  0  0  0  0  0  0  0  0  0
  161.5200  208.2920  148.3550 C   0  0  0  0  0  3  0  0  0  0  0  0
  160.4560  208.3030  152.6350 O   0  0  0  0  0  0  0  0  0  0  0  0
  160.8900  207.5820  153.5750 C   0  0  0  0  0  0  0  0  0  0  0  0
  161.2400  206.2170  153.3340 N   0  0  0  0  0  2  0  0  0  0  0  0
  158.9700  210.0120  155.7610 N   0  0  0  0  0  0  0  0  0  0  0  0
  159.8980  207.7390  155.8710 C   0  0  0  0  0  2  0  0  0  0  0  0
  162.3350  210.1390  154.0190 C   0  0  0  0  0  1  0  0  0  0  0  0
  157.7510  210.7440  155.4700 C   0  0  0  0  0  1  0  0  0  0  0  0
  158.6600  208.5940  155.5860 C   0  0  0  0  0  2  0  0  0  0  0  0
  161.2650  209.6700  154.9910 C   0  0  2  0  0  3  0  0  0  0  0  0
  161.0600  208.1450  154.9590 C   0  0  2  0  0  3  0  0  0  0  0  0
  159.9480  210.4040  154.7480 C   0  0  0  0  0  2  0  0  0  0  0  0
  1 14  2  0  0  0  0
  1  6  1  0  0  0  0
  2  3  1  6  0  0  0
  2 13  1  0  0  0  0
  3 19  1  0  0  0  0
  4 15  2  0  0  0  0
  4  7  1  0  0  0  0
  5  2  1  0  0  0  0
  5 16  2  0  0  0  0
  6 17  2  0  0  0  0
  7  3  2  0  0  0  0
  8 12  1  0  0  0  0
  8 23  1  1  0  0  0
  9  1  1  0  0  0  0
 10 18  1  0  0  0  0
 11  4  1  0  0  0  0
 13 18  1  6  0  0  0
 13  8  1  0  0  0  0
 14  5  1  0  0  0  0
 15 20  1  0  0  0  0
 16 12  1  0  0  0  0
 17 16  1  0  0  0  0
 19 10  1  0  0  0  0
 20 19  2  0  0  0  0
 21 22  2  0  0  0  0
 23 22  1  0  0  0  0
 27 24  1  0  0  0  0
 28 24  1  0  0  0  0
 28 25  1  0  0  0  0
 29 26  1  6  0  0  0
 30 22  1  6  0  0  0
 30 29  1  0  0  0  0
 30 25  1  0  0  0  0
 31 29  1  0  0  0  0
 31 24  1  0  0  0  0
M  END
>  <MODEL>
8

>  <REMARK>
 VINA RESULT:      -4.3      4.430      7.873
  Name = 
  2 active torsions:
  status: ('A' for Active; 'I' for Inactive)
    1  A    between atoms: C_5  and  C_30
    2  A    between atoms: C_10  and  N_16
                            x       y       z     vdW  Elec       q    Type
                         _______ _______ _______ _____ _____    ______ ____

>  <TORSDO>
F 2

$$$$
=
 OpenBabel11122413303D

 31 35  0  0  1  0  0  0  0  0999 V2000
  162.0930  212.7460  148.0440 C   0  0  0  0  0  0  0  0  0  0  0  0
  159.6310  213.9850  150.5840 C   0  0  2  0  0  3  0  0  0  0  0  0
  158.2920  214.0140  149.8660 C   0  0  0  0  0  0  0  0  0  0  0  0
  156.9860  214.0280  147.8130 C   0  0  0  0  0  0  0  0  0  0  0  0
  160.6410  213.0940  149.8970 C   0  0  0  0  0  0  0  0  0  0  0  0
  162.4160  211.4690  148.5040 C   0  0  0  0  0  3  0  0  0  0  0  0
  158.2210  213.9710  148.4640 C   0  0  0  0  0  3  0  0  0  0  0  0
  159.2290  212.1140  152.2280 C   0  0  2  0  0  3  0  0  0  0  0  0
  162.6980  213.2570  146.7870 C   0  0  0  0  0  1  0  0  0  0  0  0
  157.1400  214.2580  151.9990 O   0  0  0  0  0  0  0  0  0  0  0  0
  156.9260  213.9660  146.3300 C   0  0  0  0  0  1  0  0  0  0  0  0
  160.4350  211.3230  151.7200 C   0  0  0  0  0  2  0  0  0  0  0  0
  159.4860  213.6180  152.0760 C   0  0  2  0  0  3  0  0  0  0  0  0
  161.2230  213.5220  148.7430 N   0  0  0  0  0  0  0  0  0  0  0  0
  155.8090  214.1410  148.5570 C   0  0  0  0  0  3  0  0  0  0  0  0
  160.9400  211.8060  150.3900 C   0  0  0  0  0  0  0  0  0  0  0  0
  161.8410  211.0050  149.6870 C   0  0  0  0  0  3  0  0  0  0  0  0
  158.3660  214.4520  152.7030 C   0  0  0  0  0  2  0  0  0  0  0  0
  157.1010  214.1670  150.6060 C   0  0  0  0  0  0  0  0  0  0  0  0
  155.8670  214.2140  149.9500 C   0  0  0  0  0  3  0  0  0  0  0  0
  161.2450  211.4780  154.1410 O   0  0  0  0  0  0  0  0  0  0  0  0
  160.0460  211.4720  154.5340 C   0  0  0  0  0  0  0  0  0  0  0  0
  158.9870  211.7760  153.6240 N   0  0  0  0  0  2  0  0  0  0  0  0
  156.9570  211.7310  156.7170 N   0  0  0  0  0  0  0  0  0  0  0  0
  158.6190  210.0560  156.0320 C   0  0  0  0  0  2  0  0  0  0  0  0
  160.3130  213.4940  156.6930 C   0  0  0  0  0  1  0  0  0  0  0  0
  155.6410  212.2460  156.3890 C   0  0  0  0  0  1  0  0  0  0  0  0
  157.2390  210.6610  155.7610 C   0  0  0  0  0  2  0  0  0  0  0  0
  159.3200  212.3510  156.8160 C   0  0  2  0  0  3  0  0  0  0  0  0
  159.7080  211.1320  155.9590 C   0  0  2  0  0  3  0  0  0  0  0  0
  157.9040  212.8210  156.4900 C   0  0  0  0  0  2  0  0  0  0  0  0
  1  6  2  0  0  0  0
  1 14  1  0  0  0  0
  2  3  1  6  0  0  0
  2 13  1  0  0  0  0
  3 19  1  0  0  0  0
  4  7  1  0  0  0  0
  4 15  2  0  0  0  0
  5 16  1  0  0  0  0
  5  2  1  0  0  0  0
  6 17  1  0  0  0  0
  7  3  2  0  0  0  0
  8 23  1  1  0  0  0
  9  1  1  0  0  0  0
 10 18  1  0  0  0  0
 11  4  1  0  0  0  0
 12  8  1  0  0  0  0
 13  8  1  0  0  0  0
 13 18  1  6  0  0  0
 14  5  2  0  0  0  0
 15 20  1  0  0  0  0
 16 12  1  0  0  0  0
 17 16  2  0  0  0  0
 19 10  1  0  0  0  0
 20 19  2  0  0  0  0
 21 22  2  0  0  0  0
 23 22  1  0  0  0  0
 27 24  1  0  0  0  0
 28 25  1  0  0  0  0
 28 24  1  0  0  0  0
 29 26  1  6  0  0  0
 30 22  1  6  0  0  0
 30 25  1  0  0  0  0
 30 29  1  0  0  0  0
 31 24  1  0  0  0  0
 31 29  1  0  0  0  0
M  END
>  <MODEL>
9

>  <REMARK>
 VINA RESULT:      -3.8      3.218      8.297
  Name = 
  2 active torsions:
  status: ('A' for Active; 'I' for Inactive)
    1  A    between atoms: C_5  and  C_30
    2  A    between atoms: C_10  and  N_16
                            x       y       z     vdW  Elec       q    Type
                         _______ _______ _______ _____ _____    ______ ____

>  <TORSDO>
F 2

$$$$
