=
 OpenBabel11122413313D

 31 35  0  0  1  0  0  0  0  0999 V2000
  161.0930  204.1860  145.4950 C   0  0  0  0  0  0  0  0  0  0  0  0
  160.4870  205.7950  148.8920 C   0  0  2  0  0  3  0  0  0  0  0  0
  160.8690  204.7930  149.9660 C   0  0  0  0  0  0  0  0  0  0  0  0
  161.3160  202.5180  150.6950 C   0  0  0  0  0  0  0  0  0  0  0  0
  161.1010  205.4800  147.5480 C   0  0  0  0  0  0  0  0  0  0  0  0
  162.2410  204.8560  145.0650 C   0  0  0  0  0  3  0  0  0  0  0  0
  160.9840  203.4230  149.6840 C   0  0  0  0  0  3  0  0  0  0  0  0
  162.3230  207.5260  149.2310 C   0  0  2  0  0  3  0  0  0  0  0  0
  160.5320  203.2320  144.7140 F   0  0  0  0  0  0  0  0  0  0  0  0
  160.8900  206.6240  151.5900 N   0  0  0  0  0  2  0  0  0  0  0  0
  161.4370  201.2000  150.4110 F   0  0  0  0  0  0  0  0  0  0  0  0
  162.8180  207.2100  147.8940 N   0  0  0  0  0  2  0  0  0  0  0  0
  160.8160  207.2430  149.3230 C   0  0  2  0  0  3  0  0  0  0  0  0
  160.5230  204.4980  146.7320 C   0  0  0  0  0  3  0  0  0  0  0  0
  161.5260  202.9740  152.0010 C   0  0  0  0  0  3  0  0  0  0  0  0
  162.2580  206.1540  147.1090 C   0  0  0  0  0  0  0  0  0  0  0  0
  162.8190  205.8430  145.8670 C   0  0  0  0  0  3  0  0  0  0  0  0
  160.3010  207.5140  150.6700 N   0  0  0  0  0  2  0  0  0  0  0  0
  161.0420  205.2360  151.2880 C   0  0  0  0  0  0  0  0  0  0  0  0
  161.3880  204.3330  152.2960 C   0  0  0  0  0  3  0  0  0  0  0  0
  161.2990  209.7510  147.7740 O   0  0  0  0  0  0  0  0  0  0  0  0
  162.0380  209.9940  148.7680 C   0  0  0  0  0  0  0  0  0  0  0  0
  162.5920  208.9240  149.5350 N   0  0  0  0  0  2  0  0  0  0  0  0
  160.8100  213.0180  147.3460 C   0  0  0  0  0  0  0  0  0  0  0  0
  161.0880  212.1550  149.6010 C   0  0  0  0  0  2  0  0  0  0  0  0
  164.2600  212.0630  147.8700 O   0  0  0  0  0  0  0  0  0  0  0  0
  159.9350  213.5440  146.2660 C   0  0  0  0  0  1  0  0  0  0  0  0
  160.2830  212.6140  148.4640 N   0  0  0  0  0  0  0  0  0  0  0  0
  163.0150  212.1430  148.0340 C   0  0  0  0  0  0  0  0  0  0  0  0
  162.3500  211.4050  149.1560 C   0  0  2  0  0  3  0  0  0  0  0  0
  162.2180  212.8990  147.1230 N   0  0  0  0  0  2  0  0  0  0  0  0
  1 14  1  0  0  0  0
  2  5  1  6  0  0  0
  2 13  1  0  0  0  0
  2  3  1  0  0  0  0
  3 19  1  0  0  0  0
  4 15  2  0  0  0  0
  6  1  2  0  0  0  0
  6 17  1  0  0  0  0
  7  3  2  0  0  0  0
  7  4  1  0  0  0  0
  8 13  1  0  0  0  0
  8 23  1  6  0  0  0
  9  1  1  0  0  0  0
 11  4  1  0  0  0  0
 12  8  1  0  0  0  0
 13 18  1  1  0  0  0
 14  5  2  0  0  0  0
 15 20  1  0  0  0  0
 16  5  1  0  0  0  0
 16 12  1  0  0  0  0
 17 16  2  0  0  0  0
 18 10  1  0  0  0  0
 19 10  1  0  0  0  0
 19 20  2  0  0  0  0
 21 22  2  0  0  0  0
 22 23  1  0  0  0  0
 24 28  2  0  0  0  0
 26 29  2  0  0  0  0
 27 24  1  0  0  0  0
 28 25  1  0  0  0  0
 29 30  1  0  0  0  0
 30 22  1  6  0  0  0
 30 25  1  0  0  0  0
 31 24  1  0  0  0  0
 31 29  1  0  0  0  0
M  END
>  <MODEL>
1

>  <REMARK>
 VINA RESULT:      -7.5      0.000      0.000
  Name = 
  2 active torsions:
  status: ('A' for Active; 'I' for Inactive)
    1  A    between atoms: C_5  and  C_30
    2  A    between atoms: C_10  and  N_16
                            x       y       z     vdW  Elec       q    Type
                         _______ _______ _______ _____ _____    ______ ____

>  <TORSDO>
F 2

$$$$
=
 OpenBabel11122413313D

 31 35  0  0  1  0  0  0  0  0999 V2000
  160.9220  204.5620  145.0830 C   0  0  0  0  0  0  0  0  0  0  0  0
  160.4450  205.2260  148.8010 C   0  0  2  0  0  3  0  0  0  0  0  0
  160.8260  203.9690  149.5600 C   0  0  0  0  0  0  0  0  0  0  0  0
  161.2290  201.5740  149.6490 C   0  0  0  0  0  0  0  0  0  0  0  0
  161.0160  205.2660  147.4040 C   0  0  0  0  0  0  0  0  0  0  0  0
  162.0770  205.2990  144.8090 C   0  0  0  0  0  3  0  0  0  0  0  0
  160.8960  202.7200  148.9240 C   0  0  0  0  0  3  0  0  0  0  0  0
  162.3360  206.7690  149.5280 C   0  0  2  0  0  3  0  0  0  0  0  0
  160.3160  203.8600  144.0960 F   0  0  0  0  0  0  0  0  0  0  0  0
  160.9380  205.3040  151.6090 N   0  0  0  0  0  2  0  0  0  0  0  0
  161.3070  200.3750  149.0240 F   0  0  0  0  0  0  0  0  0  0  0  0
  162.7880  206.8080  148.1400 N   0  0  0  0  0  2  0  0  0  0  0  0
  160.8240  206.5020  149.5880 C   0  0  2  0  0  3  0  0  0  0  0  0
  160.3920  204.5470  146.3760 C   0  0  0  0  0  3  0  0  0  0  0  0
  161.4830  201.6640  151.0210 C   0  0  0  0  0  3  0  0  0  0  0  0
  162.1800  206.0090  147.1220 C   0  0  0  0  0  0  0  0  0  0  0  0
  162.7010  206.0270  145.8250 C   0  0  0  0  0  3  0  0  0  0  0  0
  160.3500  206.4170  150.9750 N   0  0  0  0  0  2  0  0  0  0  0  0
  161.0440  204.0420  150.9460 C   0  0  0  0  0  0  0  0  0  0  0  0
  161.3900  202.8980  151.6690 C   0  0  0  0  0  3  0  0  0  0  0  0
  161.5080  209.3410  148.6200 O   0  0  0  0  0  0  0  0  0  0  0  0
  162.1950  209.2880  149.6780 C   0  0  0  0  0  0  0  0  0  0  0  0
  162.6500  208.0320  150.1810 N   0  0  0  0  0  2  0  0  0  0  0  0
  160.3210  211.0060  152.1710 C   0  0  0  0  0  0  0  0  0  0  0  0
  162.6320  210.2930  151.9290 C   0  0  0  0  0  2  0  0  0  0  0  0
  161.7040  212.3650  149.1170 O   0  0  0  0  0  0  0  0  0  0  0  0
  159.0330  210.9710  152.9100 C   0  0  0  0  0  1  0  0  0  0  0  0
  161.3090  210.2560  152.5610 N   0  0  0  0  0  0  0  0  0  0  0  0
  161.5660  211.6350  150.1320 C   0  0  0  0  0  0  0  0  0  0  0  0
  162.5480  210.5400  150.4180 C   0  0  2  0  0  3  0  0  0  0  0  0
  160.4430  211.8120  150.9960 N   0  0  0  0  0  2  0  0  0  0  0  0
  1 14  1  0  0  0  0
  2  5  1  6  0  0  0
  2  3  1  0  0  0  0
  2 13  1  0  0  0  0
  3 19  1  0  0  0  0
  4 15  2  0  0  0  0
  6  1  2  0  0  0  0
  6 17  1  0  0  0  0
  7  3  2  0  0  0  0
  7  4  1  0  0  0  0
  8 13  1  0  0  0  0
  8 23  1  6  0  0  0
  9  1  1  0  0  0  0
 11  4  1  0  0  0  0
 12  8  1  0  0  0  0
 13 18  1  1  0  0  0
 14  5  2  0  0  0  0
 15 20  1  0  0  0  0
 16  5  1  0  0  0  0
 16 12  1  0  0  0  0
 17 16  2  0  0  0  0
 18 10  1  0  0  0  0
 19 10  1  0  0  0  0
 19 20  2  0  0  0  0
 21 22  2  0  0  0  0
 22 23  1  0  0  0  0
 24 28  2  0  0  0  0
 24 27  1  0  0  0  0
 25 28  1  0  0  0  0
 26 29  2  0  0  0  0
 29 30  1  0  0  0  0
 29 31  1  0  0  0  0
 30 22  1  6  0  0  0
 30 25  1  0  0  0  0
 31 24  1  0  0  0  0
M  END
>  <MODEL>
2

>  <REMARK>
 VINA RESULT:      -7.1      1.729      2.368
  Name = 
  2 active torsions:
  status: ('A' for Active; 'I' for Inactive)
    1  A    between atoms: C_5  and  C_30
    2  A    between atoms: C_10  and  N_16
                            x       y       z     vdW  Elec       q    Type
                         _______ _______ _______ _____ _____    ______ ____

>  <TORSDO>
F 2

$$$$
=
 OpenBabel11122413313D

 31 35  0  0  1  0  0  0  0  0999 V2000
  160.8760  207.5120  156.2800 C   0  0  0  0  0  0  0  0  0  0  0  0
  161.8790  208.5810  152.7670 C   0  0  2  0  0  3  0  0  0  0  0  0
  161.4360  207.5010  151.7970 C   0  0  0  0  0  0  0  0  0  0  0  0
  160.7440  205.2210  151.3190 C   0  0  0  0  0  0  0  0  0  0  0  0
  161.1530  208.5190  154.0900 C   0  0  0  0  0  0  0  0  0  0  0  0
  159.8000  208.3640  156.5400 C   0  0  0  0  0  3  0  0  0  0  0  0
  161.1300  206.2030  152.2350 C   0  0  0  0  0  3  0  0  0  0  0  0
  160.3020  210.4600  152.0840 C   0  0  2  0  0  3  0  0  0  0  0  0
  161.2640  206.6070  157.2110 F   0  0  0  0  0  0  0  0  0  0  0  0
  161.7430  209.0950  149.9650 N   0  0  0  0  0  2  0  0  0  0  0  0
  160.4390  203.9740  151.7520 F   0  0  0  0  0  0  0  0  0  0  0  0
  159.6950  210.3820  153.4100 N   0  0  0  0  0  2  0  0  0  0  0  0
  161.7640  209.9900  152.1400 C   0  0  2  0  0  3  0  0  0  0  0  0
  161.5520  207.5900  155.0590 C   0  0  0  0  0  3  0  0  0  0  0  0
  160.6710  205.5250  149.9560 C   0  0  0  0  0  3  0  0  0  0  0  0
  160.0690  209.3780  154.3570 C   0  0  0  0  0  0  0  0  0  0  0  0
  159.4010  209.3000  155.5820 C   0  0  0  0  0  3  0  0  0  0  0  0
  162.3870  210.0200  150.8110 N   0  0  0  0  0  2  0  0  0  0  0  0
  161.3980  207.7860  150.4220 C   0  0  0  0  0  0  0  0  0  0  0  0
  160.9980  206.8070  149.5090 C   0  0  0  0  0  3  0  0  0  0  0  0
  157.9420  212.0560  151.9900 O   0  0  0  0  0  0  0  0  0  0  0  0
  159.0170  212.5780  151.5820 C   0  0  0  0  0  0  0  0  0  0  0  0
  160.2330  211.8290  151.5940 N   0  0  0  0  0  2  0  0  0  0  0  0
  158.0790  213.8060  148.3750 C   0  0  0  0  0  0  0  0  0  0  0  0
  157.6300  214.4530  150.6740 C   0  0  0  0  0  2  0  0  0  0  0  0
  161.2000  214.3460  150.1230 O   0  0  0  0  0  0  0  0  0  0  0  0
  157.5930  213.3690  147.0410 C   0  0  0  0  0  1  0  0  0  0  0  0
  157.2350  213.9530  149.3530 N   0  0  0  0  0  0  0  0  0  0  0  0
  159.9760  214.1380  149.9220 C   0  0  0  0  0  0  0  0  0  0  0  0
  159.0340  213.9860  151.0770 C   0  0  2  0  0  3  0  0  0  0  0  0
  159.4800  213.9970  148.5910 N   0  0  0  0  0  2  0  0  0  0  0  0
  1  6  1  0  0  0  0
  1  9  1  0  0  0  0
  2  3  1  6  0  0  0
  2  5  1  0  0  0  0
  3  7  1  0  0  0  0
  4 11  1  0  0  0  0
  4  7  2  0  0  0  0
  5 16  2  0  0  0  0
  5 14  1  0  0  0  0
  8 23  1  1  0  0  0
  8 13  1  0  0  0  0
  8 12  1  0  0  0  0
 10 19  1  0  0  0  0
 10 18  1  0  0  0  0
 12 16  1  0  0  0  0
 13 18  1  6  0  0  0
 13  2  1  0  0  0  0
 14  1  2  0  0  0  0
 15  4  1  0  0  0  0
 16 17  1  0  0  0  0
 17  6  2  0  0  0  0
 19  3  2  0  0  0  0
 20 15  2  0  0  0  0
 20 19  1  0  0  0  0
 22 23  1  0  0  0  0
 22 21  2  0  0  0  0
 24 31  1  0  0  0  0
 24 28  2  0  0  0  0
 25 30  1  0  0  0  0
 27 24  1  0  0  0  0
 28 25  1  0  0  0  0
 29 26  2  0  0  0  0
 29 30  1  0  0  0  0
 30 22  1  6  0  0  0
 31 29  1  0  0  0  0
M  END
>  <MODEL>
3

>  <REMARK>
 VINA RESULT:      -6.8      3.813      6.124
  Name = 
  2 active torsions:
  status: ('A' for Active; 'I' for Inactive)
    1  A    between atoms: C_5  and  C_30
    2  A    between atoms: C_10  and  N_16
                            x       y       z     vdW  Elec       q    Type
                         _______ _______ _______ _____ _____    ______ ____

>  <TORSDO>
F 2

$$$$
=
 OpenBabel11122413313D

 31 35  0  0  1  0  0  0  0  0999 V2000
  160.8860  206.7560  146.8590 C   0  0  0  0  0  0  0  0  0  0  0  0
  160.2810  205.1250  150.2450 C   0  0  2  0  0  3  0  0  0  0  0  0
  160.7340  203.6800  150.1640 C   0  0  0  0  0  0  0  0  0  0  0  0
  161.3050  201.6950  148.8820 C   0  0  0  0  0  0  0  0  0  0  0  0
  160.8780  205.9920  149.1620 C   0  0  0  0  0  0  0  0  0  0  0  0
  161.9910  207.5670  147.1280 C   0  0  0  0  0  3  0  0  0  0  0  0
  160.9070  203.0340  148.9300 C   0  0  0  0  0  3  0  0  0  0  0  0
  162.0400  206.0480  151.8380 C   0  0  2  0  0  3  0  0  0  0  0  0
  160.3530  206.7270  145.6140 F   0  0  0  0  0  0  0  0  0  0  0  0
  160.7050  203.5880  152.6090 N   0  0  0  0  0  2  0  0  0  0  0  0
  161.4820  201.0840  147.6860 F   0  0  0  0  0  0  0  0  0  0  0  0
  162.5190  206.9030  150.7560 N   0  0  0  0  0  2  0  0  0  0  0  0
  160.5500  205.7270  151.6440 C   0  0  2  0  0  3  0  0  0  0  0  0
  160.3300  205.9720  147.8730 C   0  0  0  0  0  3  0  0  0  0  0  0
  161.5220  200.9870  150.0680 C   0  0  0  0  0  3  0  0  0  0  0  0
  161.9920  206.8130  149.4290 C   0  0  0  0  0  0  0  0  0  0  0  0
  162.5390  207.6010  148.4130 C   0  0  0  0  0  3  0  0  0  0  0  0
  160.0530  204.8340  152.6980 N   0  0  0  0  0  2  0  0  0  0  0  0
  160.9150  202.9480  151.3490 C   0  0  0  0  0  0  0  0  0  0  0  0
  161.3270  201.6140  151.3010 C   0  0  0  0  0  3  0  0  0  0  0  0
  160.6550  208.3760  152.7260 O   0  0  0  0  0  0  0  0  0  0  0  0
  161.5130  207.8740  153.5040 C   0  0  0  0  0  0  0  0  0  0  0  0
  162.2490  206.7140  153.1160 N   0  0  0  0  0  2  0  0  0  0  0  0
  159.4000  209.9890  155.4380 C   0  0  0  0  0  0  0  0  0  0  0  0
  160.7520  208.0200  155.8850 C   0  0  0  0  0  2  0  0  0  0  0  0
  162.8200  210.6040  154.4320 O   0  0  0  0  0  0  0  0  0  0  0  0
  158.0790  210.6680  155.4220 C   0  0  0  0  0  1  0  0  0  0  0  0
  159.4770  208.7350  155.7740 N   0  0  0  0  0  0  0  0  0  0  0  0
  161.7760  209.9850  154.7630 C   0  0  0  0  0  0  0  0  0  0  0  0
  161.7750  208.4890  154.8430 C   0  0  2  0  0  3  0  0  0  0  0  0
  160.5680  210.7010  155.0190 N   0  0  0  0  0  2  0  0  0  0  0  0
  1  6  2  0  0  0  0
  1 14  1  0  0  0  0
  2  5  1  6  0  0  0
  2 13  1  0  0  0  0
  3  2  1  0  0  0  0
  3 19  1  0  0  0  0
  4  7  1  0  0  0  0
  4 15  2  0  0  0  0
  5 16  1  0  0  0  0
  6 17  1  0  0  0  0
  7  3  2  0  0  0  0
  8 23  1  1  0  0  0
  9  1  1  0  0  0  0
 10 18  1  0  0  0  0
 11  4  1  0  0  0  0
 12  8  1  0  0  0  0
 13  8  1  0  0  0  0
 13 18  1  1  0  0  0
 14  5  2  0  0  0  0
 15 20  1  0  0  0  0
 16 12  1  0  0  0  0
 17 16  2  0  0  0  0
 19 10  1  0  0  0  0
 20 19  2  0  0  0  0
 21 22  2  0  0  0  0
 23 22  1  0  0  0  0
 24 28  2  0  0  0  0
 26 29  2  0  0  0  0
 27 24  1  0  0  0  0
 28 25  1  0  0  0  0
 29 30  1  0  0  0  0
 29 31  1  0  0  0  0
 30 22  1  6  0  0  0
 30 25  1  0  0  0  0
 31 24  1  0  0  0  0
M  END
>  <MODEL>
4

>  <REMARK>
 VINA RESULT:      -6.7      3.525      4.815
  Name = 
  2 active torsions:
  status: ('A' for Active; 'I' for Inactive)
    1  A    between atoms: C_5  and  C_30
    2  A    between atoms: C_10  and  N_16
                            x       y       z     vdW  Elec       q    Type
                         _______ _______ _______ _____ _____    ______ ____

>  <TORSDO>
F 2

$$$$
=
 OpenBabel11122413313D

 31 35  0  0  1  0  0  0  0  0999 V2000
  162.1350  206.3240  147.5690 C   0  0  0  0  0  0  0  0  0  0  0  0
  162.4650  209.1110  150.1410 C   0  0  2  0  0  3  0  0  0  0  0  0
  161.8420  210.3670  149.5630 C   0  0  0  0  0  0  0  0  0  0  0  0
  161.0620  211.6830  147.6730 C   0  0  0  0  0  0  0  0  0  0  0  0
  162.0010  207.8510  149.4510 C   0  0  0  0  0  0  0  0  0  0  0  0
  161.1320  205.5340  148.1340 C   0  0  0  0  0  3  0  0  0  0  0  0
  161.6180  210.5070  148.1840 C   0  0  0  0  0  3  0  0  0  0  0  0
  160.7970  208.6080  151.9990 C   0  0  2  0  0  3  0  0  0  0  0  0
  162.6880  205.9730  146.3830 F   0  0  0  0  0  0  0  0  0  0  0  0
  161.8070  211.3240  151.8150 N   0  0  0  0  0  2  0  0  0  0  0  0
  160.8380  211.8030  146.3430 F   0  0  0  0  0  0  0  0  0  0  0  0
  160.4490  207.3730  151.3020 N   0  0  0  0  0  2  0  0  0  0  0  0
  162.2410  209.0170  151.6690 C   0  0  2  0  0  3  0  0  0  0  0  0
  162.5710  207.4790  148.2260 C   0  0  0  0  0  3  0  0  0  0  0  0
  160.7350  212.7340  148.5350 C   0  0  0  0  0  3  0  0  0  0  0  0
  160.9900  207.0500  150.0180 C   0  0  0  0  0  0  0  0  0  0  0  0
  160.5640  205.8920  149.3600 C   0  0  0  0  0  3  0  0  0  0  0  0
  162.6030  210.2790  152.3250 N   0  0  0  0  0  2  0  0  0  0  0  0
  161.5480  211.4440  150.4150 C   0  0  0  0  0  0  0  0  0  0  0  0
  160.9780  212.6140  149.9060 C   0  0  0  0  0  3  0  0  0  0  0  0
  159.5020  210.4300  153.7670 O   0  0  0  0  0  0  0  0  0  0  0  0
  159.9740  209.3700  154.2630 C   0  0  0  0  0  0  0  0  0  0  0  0
  160.6430  208.4200  153.4340 N   0  0  0  0  0  2  0  0  0  0  0  0
  162.2360  210.1750  156.8930 C   0  0  0  0  0  0  0  0  0  0  0  0
  159.8400  210.3920  156.5450 C   0  0  0  0  0  2  0  0  0  0  0  0
  160.8200  206.9400  156.1080 O   0  0  0  0  0  0  0  0  0  0  0  0
  163.5600  210.7930  157.1620 C   0  0  0  0  0  1  0  0  0  0  0  0
  161.1900  210.9320  156.7370 N   0  0  0  0  0  0  0  0  0  0  0  0
  160.9360  208.1880  156.2100 C   0  0  0  0  0  0  0  0  0  0  0  0
  159.8440  209.0930  155.7280 C   0  0  2  0  0  3  0  0  0  0  0  0
  162.1330  208.7560  156.7420 N   0  0  0  0  0  2  0  0  0  0  0  0
  1  6  2  0  0  0  0
  1 14  1  0  0  0  0
  2  5  1  6  0  0  0
  2 13  1  0  0  0  0
  3  2  1  0  0  0  0
  3 19  1  0  0  0  0
  4  7  1  0  0  0  0
  4 15  2  0  0  0  0
  5 16  1  0  0  0  0
  6 17  1  0  0  0  0
  7  3  2  0  0  0  0
  8 23  1  1  0  0  0
  9  1  1  0  0  0  0
 10 18  1  0  0  0  0
 11  4  1  0  0  0  0
 12  8  1  0  0  0  0
 13  8  1  0  0  0  0
 13 18  1  1  0  0  0
 14  5  2  0  0  0  0
 15 20  1  0  0  0  0
 16 12  1  0  0  0  0
 17 16  2  0  0  0  0
 19 10  1  0  0  0  0
 20 19  2  0  0  0  0
 21 22  2  0  0  0  0
 23 22  1  0  0  0  0
 24 27  1  0  0  0  0
 25 28  1  0  0  0  0
 26 29  2  0  0  0  0
 28 24  2  0  0  0  0
 29 31  1  0  0  0  0
 30 22  1  6  0  0  0
 30 29  1  0  0  0  0
 30 25  1  0  0  0  0
 31 24  1  0  0  0  0
M  END
>  <MODEL>
5

>  <REMARK>
 VINA RESULT:      -5.9      4.441      7.025
  Name = 
  2 active torsions:
  status: ('A' for Active; 'I' for Inactive)
    1  A    between atoms: C_5  and  C_30
    2  A    between atoms: C_10  and  N_16
                            x       y       z     vdW  Elec       q    Type
                         _______ _______ _______ _____ _____    ______ ____

>  <TORSDO>
F 2

$$$$
=
 OpenBabel11122413313D

 31 35  0  0  1  0  0  0  0  0999 V2000
  162.0800  213.7860  147.2680 C   0  0  0  0  0  0  0  0  0  0  0  0
  159.7780  214.4020  150.2360 C   0  0  2  0  0  3  0  0  0  0  0  0
  158.3430  214.3110  149.7510 C   0  0  0  0  0  0  0  0  0  0  0  0
  156.6900  214.3570  147.9710 C   0  0  0  0  0  0  0  0  0  0  0  0
  160.7590  213.7340  149.3020 C   0  0  0  0  0  0  0  0  0  0  0  0
  162.5540  212.5010  147.5380 C   0  0  0  0  0  3  0  0  0  0  0  0
  158.0210  214.4230  148.3900 C   0  0  0  0  0  3  0  0  0  0  0  0
  159.8810  212.3200  151.6990 C   0  0  2  0  0  3  0  0  0  0  0  0
  162.4850  214.4380  146.1500 F   0  0  0  0  0  0  0  0  0  0  0  0
  157.6240  214.1070  152.0820 N   0  0  0  0  0  2  0  0  0  0  0  0
  156.3890  214.4530  146.6540 F   0  0  0  0  0  0  0  0  0  0  0  0
  160.8740  211.7690  150.7820 N   0  0  0  0  0  2  0  0  0  0  0  0
  159.9270  213.8560  151.6760 C   0  0  2  0  0  3  0  0  0  0  0  0
  161.1860  214.4030  148.1480 C   0  0  0  0  0  3  0  0  0  0  0  0
  155.6680  214.1900  148.9110 C   0  0  0  0  0  3  0  0  0  0  0  0
  161.2410  212.4370  149.5720 C   0  0  0  0  0  0  0  0  0  0  0  0
  162.1410  211.8290  148.6910 C   0  0  0  0  0  3  0  0  0  0  0  0
  158.9090  214.4360  152.5590 N   0  0  0  0  0  2  0  0  0  0  0  0
  157.3070  214.1840  150.6910 C   0  0  0  0  0  0  0  0  0  0  0  0
  155.9770  214.1040  150.2700 C   0  0  0  0  0  3  0  0  0  0  0  0
  160.0210  209.5740  152.4510 O   0  0  0  0  0  0  0  0  0  0  0  0
  160.2000  210.4380  153.3550 C   0  0  0  0  0  0  0  0  0  0  0  0
  160.1340  211.8300  153.0460 N   0  0  0  0  0  2  0  0  0  0  0  0
  159.4420  212.1450  156.3860 C   0  0  0  0  0  0  0  0  0  0  0  0
  159.1870  209.8690  155.5730 C   0  0  0  0  0  2  0  0  0  0  0  0
  162.6510  210.8670  155.3120 O   0  0  0  0  0  0  0  0  0  0  0  0
  158.8450  213.3980  156.9160 C   0  0  0  0  0  1  0  0  0  0  0  0
  158.6680  211.1620  156.0320 N   0  0  0  0  0  0  0  0  0  0  0  0
  161.4050  210.9790  155.4440 C   0  0  0  0  0  0  0  0  0  0  0  0
  160.4810  210.0160  154.7630 C   0  0  2  0  0  3  0  0  0  0  0  0
  160.8580  212.0550  156.2060 N   0  0  0  0  0  2  0  0  0  0  0  0
  1  6  2  0  0  0  0
  1 14  1  0  0  0  0
  2  5  1  6  0  0  0
  2 13  1  0  0  0  0
  3  2  1  0  0  0  0
  3 19  1  0  0  0  0
  4  7  1  0  0  0  0
  4 15  2  0  0  0  0
  5 16  1  0  0  0  0
  6 17  1  0  0  0  0
  7  3  2  0  0  0  0
  8 23  1  1  0  0  0
  9  1  1  0  0  0  0
 10 18  1  0  0  0  0
 11  4  1  0  0  0  0
 12  8  1  0  0  0  0
 13  8  1  0  0  0  0
 13 18  1  1  0  0  0
 14  5  2  0  0  0  0
 15 20  1  0  0  0  0
 16 12  1  0  0  0  0
 17 16  2  0  0  0  0
 19 10  1  0  0  0  0
 20 19  2  0  0  0  0
 21 22  2  0  0  0  0
 23 22  1  0  0  0  0
 24 27  1  0  0  0  0
 25 28  1  0  0  0  0
 26 29  2  0  0  0  0
 28 24  2  0  0  0  0
 29 31  1  0  0  0  0
 30 22  1  6  0  0  0
 30 29  1  0  0  0  0
 30 25  1  0  0  0  0
 31 24  1  0  0  0  0
M  END
>  <MODEL>
6

>  <REMARK>
 VINA RESULT:      -5.6      6.282      8.973
  Name = 
  2 active torsions:
  status: ('A' for Active; 'I' for Inactive)
    1  A    between atoms: C_5  and  C_30
    2  A    between atoms: C_10  and  N_16
                            x       y       z     vdW  Elec       q    Type
                         _______ _______ _______ _____ _____    ______ ____

>  <TORSDO>
F 2

$$$$
=
 OpenBabel11122413313D

 31 35  0  0  1  0  0  0  0  0999 V2000
  161.9600  213.2180  147.9850 C   0  0  0  0  0  0  0  0  0  0  0  0
  159.6490  214.1120  150.8740 C   0  0  2  0  0  3  0  0  0  0  0  0
  158.2210  214.0960  150.3620 C   0  0  0  0  0  0  0  0  0  0  0  0
  156.6080  214.1730  148.5450 C   0  0  0  0  0  0  0  0  0  0  0  0
  160.6000  213.3410  149.9910 C   0  0  0  0  0  0  0  0  0  0  0  0
  162.3420  211.9170  148.3190 C   0  0  0  0  0  3  0  0  0  0  0  0
  157.9320  214.1690  148.9900 C   0  0  0  0  0  3  0  0  0  0  0  0
  159.5840  212.0930  152.4250 C   0  0  2  0  0  3  0  0  0  0  0  0
  162.4290  213.7920  146.8510 F   0  0  0  0  0  0  0  0  0  0  0  0
  157.4450  214.0410  152.6830 N   0  0  0  0  0  2  0  0  0  0  0  0
  156.3400  214.2320  147.2190 F   0  0  0  0  0  0  0  0  0  0  0  0
  160.5560  211.4390  151.5540 N   0  0  0  0  0  2  0  0  0  0  0  0
  159.7330  213.6200  152.3380 C   0  0  2  0  0  3  0  0  0  0  0  0
  161.0930  213.9300  148.8190 C   0  0  0  0  0  3  0  0  0  0  0  0
  155.5590  214.1150  149.4690 C   0  0  0  0  0  3  0  0  0  0  0  0
  160.9890  212.0290  150.3250 C   0  0  0  0  0  0  0  0  0  0  0  0
  161.8630  211.3250  149.4910 C   0  0  0  0  0  3  0  0  0  0  0  0
  158.7390  214.3040  153.1740 N   0  0  0  0  0  2  0  0  0  0  0  0
  157.1600  214.0780  151.2830 C   0  0  0  0  0  0  0  0  0  0  0  0
  155.8360  214.0680  150.8370 C   0  0  0  0  0  3  0  0  0  0  0  0
  157.5310  211.1060  154.1380 O   0  0  0  0  0  0  0  0  0  0  0  0
  158.7050  211.1530  154.6000 C   0  0  0  0  0  0  0  0  0  0  0  0
  159.7770  211.6470  153.7970 N   0  0  0  0  0  2  0  0  0  0  0  0
  161.8510  210.8130  156.2340 C   0  0  0  0  0  0  0  0  0  0  0  0
  159.7000  211.7880  156.8080 C   0  0  0  0  0  2  0  0  0  0  0  0
  159.2510  208.3190  155.9000 O   0  0  0  0  0  0  0  0  0  0  0  0
  163.3130  210.9550  156.0170 C   0  0  0  0  0  1  0  0  0  0  0  0
  161.1340  211.8620  156.5070 N   0  0  0  0  0  0  0  0  0  0  0  0
  159.8080  209.4420  156.0010 C   0  0  0  0  0  0  0  0  0  0  0  0
  158.9910  210.6970  155.9960 C   0  0  2  0  0  3  0  0  0  0  0  0
  161.2310  209.5330  156.0740 N   0  0  0  0  0  2  0  0  0  0  0  0
  1  6  2  0  0  0  0
  1 14  1  0  0  0  0
  2  5  1  6  0  0  0
  2 13  1  0  0  0  0
  3  2  1  0  0  0  0
  3 19  1  0  0  0  0
  4  7  1  0  0  0  0
  4 15  2  0  0  0  0
  5 16  1  0  0  0  0
  6 17  1  0  0  0  0
  7  3  2  0  0  0  0
  8 23  1  1  0  0  0
  9  1  1  0  0  0  0
 10 18  1  0  0  0  0
 11  4  1  0  0  0  0
 12  8  1  0  0  0  0
 13  8  1  0  0  0  0
 13 18  1  1  0  0  0
 14  5  2  0  0  0  0
 15 20  1  0  0  0  0
 16 12  1  0  0  0  0
 17 16  2  0  0  0  0
 19 10  1  0  0  0  0
 20 19  2  0  0  0  0
 21 22  2  0  0  0  0
 23 22  1  0  0  0  0
 24 28  2  0  0  0  0
 26 29  2  0  0  0  0
 27 24  1  0  0  0  0
 28 25  1  0  0  0  0
 29 31  1  0  0  0  0
 30 22  1  6  0  0  0
 30 29  1  0  0  0  0
 30 25  1  0  0  0  0
 31 24  1  0  0  0  0
M  END
>  <MODEL>
7

>  <REMARK>
 VINA RESULT:      -5.3      6.390      9.173
  Name = 
  2 active torsions:
  status: ('A' for Active; 'I' for Inactive)
    1  A    between atoms: C_5  and  C_30
    2  A    between atoms: C_10  and  N_16
                            x       y       z     vdW  Elec       q    Type
                         _______ _______ _______ _____ _____    ______ ____

>  <TORSDO>
F 2

$$$$
=
 OpenBabel11122413313D

 31 35  0  0  1  0  0  0  0  0999 V2000
  160.9260  201.7270  150.1630 C   0  0  0  0  0  0  0  0  0  0  0  0
  162.1810  204.6230  148.0360 C   0  0  2  0  0  3  0  0  0  0  0  0
  161.4380  204.5980  146.7130 C   0  0  0  0  0  0  0  0  0  0  0  0
  160.1110  203.4410  145.0380 C   0  0  0  0  0  0  0  0  0  0  0  0
  161.4750  203.8490  149.1230 C   0  0  0  0  0  0  0  0  0  0  0  0
  160.1460  202.3890  151.1130 C   0  0  0  0  0  3  0  0  0  0  0  0
  160.7700  203.4460  146.2690 C   0  0  0  0  0  3  0  0  0  0  0  0
  161.2170  206.7540  149.0410 C   0  0  2  0  0  3  0  0  0  0  0  0
  161.0380  200.3770  150.2000 F   0  0  0  0  0  0  0  0  0  0  0  0
  162.1880  206.8920  146.3080 N   0  0  0  0  0  2  0  0  0  0  0  0
  159.4580  202.3290  144.6230 F   0  0  0  0  0  0  0  0  0  0  0  0
  160.6190  205.9420  150.0970 N   0  0  0  0  0  2  0  0  0  0  0  0
  162.4790  206.0700  148.4930 C   0  0  2  0  0  3  0  0  0  0  0  0
  161.5900  202.4540  149.1720 C   0  0  0  0  0  3  0  0  0  0  0  0
  160.1230  204.5850  144.2330 C   0  0  0  0  0  3  0  0  0  0  0  0
  160.6880  204.5140  150.0850 C   0  0  0  0  0  0  0  0  0  0  0  0
  160.0320  203.7820  151.0790 C   0  0  0  0  0  3  0  0  0  0  0  0
  163.0770  206.8470  147.4010 N   0  0  0  0  0  2  0  0  0  0  0  0
  161.4790  205.7280  145.8800 C   0  0  0  0  0  0  0  0  0  0  0  0
  160.8080  205.7280  144.6550 C   0  0  0  0  0  3  0  0  0  0  0  0
  162.5100  207.2580  151.5310 O   0  0  0  0  0  0  0  0  0  0  0  0
  162.2050  208.2550  150.8190 C   0  0  0  0  0  0  0  0  0  0  0  0
  161.5470  208.0720  149.5650 N   0  0  0  0  0  2  0  0  0  0  0  0
  160.0910  210.5980  152.4670 C   0  0  0  0  0  0  0  0  0  0  0  0
  162.3570  209.7820  152.7970 C   0  0  0  0  0  2  0  0  0  0  0  0
  162.0200  211.1030  149.4490 O   0  0  0  0  0  0  0  0  0  0  0  0
  158.7050  210.7880  152.9660 C   0  0  0  0  0  1  0  0  0  0  0  0
  160.9530  209.9440  153.1890 N   0  0  0  0  0  0  0  0  0  0  0  0
  161.6770  210.6570  150.5740 C   0  0  0  0  0  0  0  0  0  0  0  0
  162.5250  209.6420  151.2780 C   0  0  2  0  0  3  0  0  0  0  0  0
  160.4490  211.0780  151.1680 N   0  0  0  0  0  2  0  0  0  0  0  0
  1  9  1  0  0  0  0
  1  6  1  0  0  0  0
  2  3  1  6  0  0  0
  2 13  1  0  0  0  0
  2  5  1  0  0  0  0
  4  7  2  0  0  0  0
  5 14  1  0  0  0  0
  5 16  2  0  0  0  0
  7  3  1  0  0  0  0
  8 23  1  1  0  0  0
  8 12  1  0  0  0  0
 10 18  1  0  0  0  0
 11  4  1  0  0  0  0
 13 18  1  6  0  0  0
 13  8  1  0  0  0  0
 14  1  2  0  0  0  0
 15 20  2  0  0  0  0
 15  4  1  0  0  0  0
 16 12  1  0  0  0  0
 16 17  1  0  0  0  0
 17  6  2  0  0  0  0
 19 10  1  0  0  0  0
 19  3  2  0  0  0  0
 20 19  1  0  0  0  0
 22 21  2  0  0  0  0
 23 22  1  0  0  0  0
 24 27  1  0  0  0  0
 24 28  2  0  0  0  0
 25 28  1  0  0  0  0
 26 29  2  0  0  0  0
 29 31  1  0  0  0  0
 29 30  1  0  0  0  0
 30 22  1  6  0  0  0
 30 25  1  0  0  0  0
 31 24  1  0  0  0  0
M  END
>  <MODEL>
8

>  <REMARK>
 VINA RESULT:      -5.1      2.187      4.818
  Name = 
  2 active torsions:
  status: ('A' for Active; 'I' for Inactive)
    1  A    between atoms: C_5  and  C_30
    2  A    between atoms: C_10  and  N_16
                            x       y       z     vdW  Elec       q    Type
                         _______ _______ _______ _____ _____    ______ ____

>  <TORSDO>
F 2

$$$$
=
 OpenBabel11122413313D

 31 35  0  0  1  0  0  0  0  0999 V2000
  161.0750  207.0620  154.7320 C   0  0  0  0  0  0  0  0  0  0  0  0
  162.4190  207.1620  151.1720 C   0  0  2  0  0  3  0  0  0  0  0  0
  161.7380  206.0640  150.3770 C   0  0  0  0  0  0  0  0  0  0  0  0
  160.4930  203.9810  150.2550 C   0  0  0  0  0  0  0  0  0  0  0  0
  161.6650  207.5350  152.4260 C   0  0  0  0  0  0  0  0  0  0  0  0
  160.2500  208.1890  154.7560 C   0  0  0  0  0  3  0  0  0  0  0  0
  161.0950  204.9900  151.0110 C   0  0  0  0  0  3  0  0  0  0  0  0
  161.4040  209.2120  150.0520 C   0  0  2  0  0  3  0  0  0  0  0  0
  161.1890  206.2830  155.8340 F   0  0  0  0  0  0  0  0  0  0  0  0
  162.5000  207.1540  148.3210 N   0  0  0  0  0  2  0  0  0  0  0  0
  159.8630  202.9550  150.8760 F   0  0  0  0  0  0  0  0  0  0  0  0
  160.7600  209.5400  151.3210 N   0  0  0  0  0  2  0  0  0  0  0  0
  162.6910  208.4110  150.3000 C   0  0  2  0  0  3  0  0  0  0  0  0
  161.7830  206.7370  153.5720 C   0  0  0  0  0  3  0  0  0  0  0  0
  160.5390  204.0300  148.8590 C   0  0  0  0  0  3  0  0  0  0  0  0
  160.8340  208.6720  152.4550 C   0  0  0  0  0  0  0  0  0  0  0  0
  160.1350  208.9970  153.6210 C   0  0  0  0  0  3  0  0  0  0  0  0
  163.3380  208.0320  149.0380 N   0  0  0  0  0  2  0  0  0  0  0  0
  161.8150  206.0840  148.9740 C   0  0  0  0  0  0  0  0  0  0  0  0
  161.2000  205.0810  148.2190 C   0  0  0  0  0  3  0  0  0  0  0  0
  160.6960  211.8410  150.8940 O   0  0  0  0  0  0  0  0  0  0  0  0
  161.3290  211.7260  149.8080 C   0  0  0  0  0  0  0  0  0  0  0  0
  161.7060  210.4360  149.3250 N   0  0  0  0  0  2  0  0  0  0  0  0
  160.0040  212.8170  146.6890 C   0  0  0  0  0  0  0  0  0  0  0  0
  160.4880  213.8690  148.8250 C   0  0  0  0  0  2  0  0  0  0  0  0
  163.4770  212.2860  147.5500 O   0  0  0  0  0  0  0  0  0  0  0  0
  159.0350  212.4470  145.6250 C   0  0  0  0  0  1  0  0  0  0  0  0
  159.5830  213.4070  147.7680 N   0  0  0  0  0  0  0  0  0  0  0  0
  162.2550  212.5580  147.6730 C   0  0  0  0  0  0  0  0  0  0  0  0
  161.6920  212.9370  149.0090 C   0  0  2  0  0  3  0  0  0  0  0  0
  161.3820  212.4620  146.5470 N   0  0  0  0  0  2  0  0  0  0  0  0
  1  6  1  0  0  0  0
  1  9  1  0  0  0  0
  2  3  1  6  0  0  0
  2  5  1  0  0  0  0
  3  7  1  0  0  0  0
  4 11  1  0  0  0  0
  4  7  2  0  0  0  0
  5 16  2  0  0  0  0
  5 14  1  0  0  0  0
  8 23  1  1  0  0  0
  8 13  1  0  0  0  0
  8 12  1  0  0  0  0
 10 19  1  0  0  0  0
 10 18  1  0  0  0  0
 12 16  1  0  0  0  0
 13 18  1  6  0  0  0
 13  2  1  0  0  0  0
 14  1  2  0  0  0  0
 15  4  1  0  0  0  0
 16 17  1  0  0  0  0
 17  6  2  0  0  0  0
 19  3  2  0  0  0  0
 20 15  2  0  0  0  0
 20 19  1  0  0  0  0
 22 21  2  0  0  0  0
 23 22  1  0  0  0  0
 24 28  2  0  0  0  0
 25 30  1  0  0  0  0
 26 29  2  0  0  0  0
 27 24  1  0  0  0  0
 28 25  1  0  0  0  0
 29 30  1  0  0  0  0
 30 22  1  6  0  0  0
 31 24  1  0  0  0  0
 31 29  1  0  0  0  0
M  END
>  <MODEL>
9

>  <REMARK>
 VINA RESULT:      -4.9      2.505      4.712
  Name = 
  2 active torsions:
  status: ('A' for Active; 'I' for Inactive)
    1  A    between atoms: C_5  and  C_30
    2  A    between atoms: C_10  and  N_16
                            x       y       z     vdW  Elec       q    Type
                         _______ _______ _______ _____ _____    ______ ____

>  <TORSDO>
F 2

$$$$
