=
 OpenBabel11122412413D

 30 35  0  0  1  0  0  0  0  0999 V2000
  161.3430  206.0430  150.1690 C   0  0  0  0  0  0  0  0  0  0  0  0
  161.0460  203.5590  150.0290 C   0  0  0  0  0  0  0  0  0  0  0  0
  161.0450  205.9030  154.3630 N   0  0  0  0  0  2  0  0  0  0  0  0
  161.4280  207.2300  150.9610 C   0  0  0  0  0  0  0  0  0  0  0  0
  161.4620  206.1670  148.7840 C   0  0  0  0  0  3  0  0  0  0  0  0
  161.8660  209.6740  148.4260 O   0  0  0  0  0  0  0  0  0  0  0  0
  160.3870  209.9590  151.9680 C   0  0  1  0  0  3  0  0  0  0  0  0
  161.7050  208.5500  148.9810 C   0  0  0  0  0  0  0  0  0  0  0  0
  160.3370  209.1820  153.2870 C   0  0  2  0  0  3  0  0  0  0  0  0
  161.2330  207.2810  154.6510 C   0  0  0  0  0  0  0  0  0  0  0  0
  161.6430  207.4030  148.1850 C   0  0  0  0  0  0  0  0  0  0  0  0
  161.5880  208.4620  150.3460 N   0  0  0  0  0  0  0  0  0  0  0  0
  160.8450  202.3390  150.6790 C   0  0  0  0  0  3  0  0  0  0  0  0
  160.4140  210.1530  154.3720 N   0  0  0  0  0  2  0  0  0  0  0  0
  160.2630  211.4140  152.3490 C   0  0  0  0  0  2  0  0  0  0  0  0
  161.1460  203.5370  148.6770 F   0  0  0  0  0  0  0  0  0  0  0  0
  161.1200  205.8470  152.9460 C   0  0  0  0  0  0  0  0  0  0  0  0
  160.7340  202.2820  152.0670 C   0  0  0  0  0  3  0  0  0  0  0  0
  161.1410  204.7650  150.7760 C   0  0  0  0  0  0  0  0  0  0  0  0
  161.3230  207.0830  152.3630 C   0  0  0  0  0  0  0  0  0  0  0  0
  161.2660  207.7220  155.8300 O   0  0  0  0  0  0  0  0  0  0  0  0
  161.4350  208.1280  153.4320 C   0  0  1  0  0  3  0  0  0  0  0  0
  159.9100  211.3990  153.8160 C   0  0  0  0  0  2  0  0  0  0  0  0
  162.9800  209.9940  151.7400 C   0  0  0  0  0  1  0  0  0  0  0  0
  160.8240  203.4500  152.8180 C   0  0  0  0  0  3  0  0  0  0  0  0
  161.0250  204.6840  152.1890 C   0  0  0  0  0  0  0  0  0  0  0  0
  161.6260  209.7330  151.0850 C   0  0  2  0  0  3  0  0  0  0  0  0
  161.7860  207.4730  146.6990 C   0  0  0  0  0  2  0  0  0  0  0  0
  160.3590  206.0480  145.2650 C   0  0  0  0  0  1  0  0  0  0  0  0
  161.6260  206.0920  146.0930 C   0  0  0  0  0  2  0  0  0  0  0  0
  1 19  2  0  0  0  0
  1  4  1  0  0  0  0
  2 13  2  0  0  0  0
  2 19  1  0  0  0  0
  3 10  1  0  0  0  0
  4 20  2  0  0  0  0
  5  1  1  0  0  0  0
  6  8  2  0  0  0  0
  7 15  1  1  0  0  0
  7  9  1  0  0  0  0
  8 12  1  0  0  0  0
  9 22  1  0  0  0  0
  9 14  1  1  0  0  0
 10 21  2  0  0  0  0
 11  5  2  0  0  0  0
 11  8  1  0  0  0  0
 12  4  1  0  0  0  0
 12 27  1  0  0  0  0
 13 18  1  0  0  0  0
 15 23  1  0  0  0  0
 16  2  1  0  0  0  0
 17  3  1  0  0  0  0
 18 25  2  0  0  0  0
 19 26  1  0  0  0  0
 20 17  1  0  0  0  0
 22 20  1  6  0  0  0
 22 10  1  0  0  0  0
 23 14  1  0  0  0  0
 26 25  1  0  0  0  0
 26 17  2  0  0  0  0
 27 24  1  1  0  0  0
 27  7  1  0  0  0  0
 28 11  1  0  0  0  0
 29 30  1  0  0  0  0
 30 28  1  0  0  0  0
M  END
>  <MODEL>
1

>  <REMARK>
 VINA RESULT:      -8.1      0.000      0.000
  Name = 
  2 active torsions:
  status: ('A' for Active; 'I' for Inactive)
    1  A    between atoms: C_11  and  C_28
    2  A    between atoms: C_28  and  C_30
                            x       y       z     vdW  Elec       q    Type
                         _______ _______ _______ _____ _____    ______ ____

>  <TORSDO>
F 2

$$$$
=
 OpenBabel11122412413D

 30 35  0  0  1  0  0  0  0  0999 V2000
  161.4680  208.0090  151.5210 C   0  0  0  0  0  0  0  0  0  0  0  0
  161.5940  210.4430  150.9360 C   0  0  0  0  0  0  0  0  0  0  0  0
  162.2790  206.9480  147.5310 N   0  0  0  0  0  2  0  0  0  0  0  0
  161.5390  206.6410  151.1140 C   0  0  0  0  0  0  0  0  0  0  0  0
  161.2060  208.2830  152.8630 C   0  0  0  0  0  3  0  0  0  0  0  0
  160.8720  205.0120  154.1950 O   0  0  0  0  0  0  0  0  0  0  0  0
  160.3200  203.8560  150.5660 C   0  0  1  0  0  3  0  0  0  0  0  0
  161.0620  205.9350  153.3530 C   0  0  0  0  0  0  0  0  0  0  0  0
  160.7470  204.2140  149.1400 C   0  0  2  0  0  3  0  0  0  0  0  0
  162.2850  205.5350  147.6670 C   0  0  0  0  0  0  0  0  0  0  0  0
  161.0050  207.2650  153.7800 C   0  0  0  0  0  0  0  0  0  0  0  0
  161.3150  205.6330  152.0390 N   0  0  0  0  0  0  0  0  0  0  0  0
  161.7850  211.4340  149.9700 C   0  0  0  0  0  3  0  0  0  0  0  0
  160.9230  202.9660  148.4070 N   0  0  0  0  0  2  0  0  0  0  0  0
  160.0390  202.3730  150.5450 C   0  0  0  0  0  2  0  0  0  0  0  0
  161.3470  210.8490  152.2060 F   0  0  0  0  0  0  0  0  0  0  0  0
  161.9990  207.4080  148.8450 C   0  0  0  0  0  0  0  0  0  0  0  0
  162.0440  211.0940  148.6440 C   0  0  0  0  0  3  0  0  0  0  0  0
  161.6590  209.0680  150.5790 C   0  0  0  0  0  0  0  0  0  0  0  0
  161.8230  206.3820  149.7530 C   0  0  0  0  0  0  0  0  0  0  0  0
  162.5380  204.7680  146.7020 O   0  0  0  0  0  0  0  0  0  0  0  0
  162.0160  205.0650  149.0640 C   0  0  1  0  0  3  0  0  0  0  0  0
  160.0810  201.9940  149.0840 C   0  0  0  0  0  2  0  0  0  0  0  0
  162.7190  203.6290  151.5490 C   0  0  0  0  0  1  0  0  0  0  0  0
  162.1130  209.7540  148.2720 C   0  0  0  0  0  3  0  0  0  0  0  0
  161.9230  208.7450  149.2220 C   0  0  0  0  0  0  0  0  0  0  0  0
  161.3120  204.2030  151.6880 C   0  0  2  0  0  3  0  0  0  0  0  0
  160.7490  207.6180  155.2090 C   0  0  0  0  0  2  0  0  0  0  0  0
  162.0690  208.9610  156.8130 C   0  0  0  0  0  1  0  0  0  0  0  0
  161.2950  208.9990  155.5120 C   0  0  0  0  0  2  0  0  0  0  0  0
  1  5  1  0  0  0  0
  2 16  1  0  0  0  0
  3 10  1  0  0  0  0
  3 17  1  0  0  0  0
  4  1  1  0  0  0  0
  4 12  1  0  0  0  0
  5 11  2  0  0  0  0
  7 15  1  6  0  0  0
  7 27  1  0  0  0  0
  8 11  1  0  0  0  0
  8  6  2  0  0  0  0
  9 14  1  6  0  0  0
  9  7  1  0  0  0  0
 11 28  1  0  0  0  0
 12  8  1  0  0  0  0
 13  2  2  0  0  0  0
 14 23  1  0  0  0  0
 17 26  2  0  0  0  0
 17 20  1  0  0  0  0
 18 13  1  0  0  0  0
 19  2  1  0  0  0  0
 19  1  2  0  0  0  0
 20  4  2  0  0  0  0
 21 10  2  0  0  0  0
 22 10  1  6  0  0  0
 22  9  1  0  0  0  0
 22 20  1  0  0  0  0
 23 15  1  0  0  0  0
 25 18  2  0  0  0  0
 25 26  1  0  0  0  0
 26 19  1  0  0  0  0
 27 24  1  6  0  0  0
 27 12  1  0  0  0  0
 28 30  1  0  0  0  0
 30 29  1  0  0  0  0
M  END
>  <MODEL>
2

>  <REMARK>
 VINA RESULT:      -6.9      2.588      7.195
  Name = 
  2 active torsions:
  status: ('A' for Active; 'I' for Inactive)
    1  A    between atoms: C_11  and  C_28
    2  A    between atoms: C_28  and  C_30
                            x       y       z     vdW  Elec       q    Type
                         _______ _______ _______ _____ _____    ______ ____

>  <TORSDO>
F 2

$$$$
=
 OpenBabel11122412413D

 30 35  0  0  1  0  0  0  0  0999 V2000
  161.5520  208.0520  149.8240 C   0  0  0  0  0  0  0  0  0  0  0  0
  161.5150  206.0740  148.2870 C   0  0  0  0  0  0  0  0  0  0  0  0
  160.9210  205.5550  153.1500 N   0  0  0  0  0  2  0  0  0  0  0  0
  161.4530  208.5850  151.1460 C   0  0  0  0  0  0  0  0  0  0  0  0
  161.7720  208.9410  148.7720 C   0  0  0  0  0  3  0  0  0  0  0  0
  161.8560  212.0480  150.4850 O   0  0  0  0  0  0  0  0  0  0  0  0
  160.0670  210.2280  153.3650 C   0  0  1  0  0  3  0  0  0  0  0  0
  161.7620  210.8020  150.2930 C   0  0  0  0  0  0  0  0  0  0  0  0
  159.9850  208.8400  154.0090 C   0  0  2  0  0  3  0  0  0  0  0  0
  160.9470  206.5330  154.1790 C   0  0  0  0  0  0  0  0  0  0  0  0
  161.8800  210.3050  148.9920 C   0  0  0  0  0  0  0  0  0  0  0  0
  161.5410  209.9540  151.3490 N   0  0  0  0  0  0  0  0  0  0  0  0
  161.3820  204.6940  148.1140 C   0  0  0  0  0  3  0  0  0  0  0  0
  159.8740  209.0300  155.4500 N   0  0  0  0  0  2  0  0  0  0  0  0
  159.7680  211.2080  154.4740 C   0  0  0  0  0  2  0  0  0  0  0  0
  161.7290  206.8240  147.1770 F   0  0  0  0  0  0  0  0  0  0  0  0
  161.1190  206.3120  151.9650 C   0  0  0  0  0  0  0  0  0  0  0  0
  161.1620  203.8590  149.2080 C   0  0  0  0  0  3  0  0  0  0  0  0
  161.4280  206.6480  149.5840 C   0  0  0  0  0  0  0  0  0  0  0  0
  161.2460  207.6670  152.2020 C   0  0  0  0  0  0  0  0  0  0  0  0
  160.8380  206.2320  155.3960 O   0  0  0  0  0  0  0  0  0  0  0  0
  161.1660  207.9280  153.6760 C   0  0  1  0  0  3  0  0  0  0  0  0
  159.2980  210.3530  155.6260 C   0  0  0  0  0  2  0  0  0  0  0  0
  162.6530  210.4760  153.5210 C   0  0  0  0  0  1  0  0  0  0  0  0
  161.0730  204.3990  150.4870 C   0  0  0  0  0  3  0  0  0  0  0  0
  161.2030  205.7790  150.6830 C   0  0  0  0  0  0  0  0  0  0  0  0
  161.3910  210.5850  152.6700 C   0  0  2  0  0  3  0  0  0  0  0  0
  162.1380  211.2080  147.8290 C   0  0  0  0  0  2  0  0  0  0  0  0
  161.0980  213.3820  147.2700 C   0  0  0  0  0  1  0  0  0  0  0  0
  160.8530  211.8940  147.4060 C   0  0  0  0  0  2  0  0  0  0  0  0
  1  4  1  0  0  0  0
  2 19  1  0  0  0  0
  3 10  1  0  0  0  0
  4 12  1  0  0  0  0
  4 20  2  0  0  0  0
  5 11  2  0  0  0  0
  5  1  1  0  0  0  0
  7  9  1  0  0  0  0
  7 15  1  1  0  0  0
  8  6  2  0  0  0  0
  8 12  1  0  0  0  0
  9 14  1  1  0  0  0
 10 21  2  0  0  0  0
 11  8  1  0  0  0  0
 12 27  1  0  0  0  0
 13  2  2  0  0  0  0
 13 18  1  0  0  0  0
 14 23  1  0  0  0  0
 15 23  1  0  0  0  0
 16  2  1  0  0  0  0
 17 20  1  0  0  0  0
 17  3  1  0  0  0  0
 18 25  2  0  0  0  0
 19  1  2  0  0  0  0
 19 26  1  0  0  0  0
 22 20  1  6  0  0  0
 22  9  1  0  0  0  0
 22 10  1  0  0  0  0
 25 26  1  0  0  0  0
 26 17  2  0  0  0  0
 27  7  1  0  0  0  0
 27 24  1  1  0  0  0
 28 11  1  0  0  0  0
 29 30  1  0  0  0  0
 30 28  1  0  0  0  0
M  END
>  <MODEL>
3

>  <REMARK>
 VINA RESULT:      -6.8      1.917      2.843
  Name = 
  2 active torsions:
  status: ('A' for Active; 'I' for Inactive)
    1  A    between atoms: C_11  and  C_28
    2  A    between atoms: C_28  and  C_30
                            x       y       z     vdW  Elec       q    Type
                         _______ _______ _______ _____ _____    ______ ____

>  <TORSDO>
F 2

$$$$
=
 OpenBabel11122412413D

 30 35  0  0  1  0  0  0  0  0999 V2000
  161.2060  209.3860  151.6350 C   0  0  0  0  0  0  0  0  0  0  0  0
  161.1130  211.7630  150.8470 C   0  0  0  0  0  0  0  0  0  0  0  0
  162.2170  208.0810  147.7650 N   0  0  0  0  0  2  0  0  0  0  0  0
  161.4180  208.0020  151.3480 C   0  0  0  0  0  0  0  0  0  0  0  0
  160.8840  209.7440  152.9440 C   0  0  0  0  0  3  0  0  0  0  0  0
  160.8310  206.5780  154.5440 O   0  0  0  0  0  0  0  0  0  0  0  0
  160.4860  205.0750  151.0190 C   0  0  1  0  0  3  0  0  0  0  0  0
  160.9530  207.4420  153.6300 C   0  0  0  0  0  0  0  0  0  0  0  0
  160.9140  205.3530  149.5750 C   0  0  2  0  0  3  0  0  0  0  0  0
  162.3560  206.6910  148.0220 C   0  0  0  0  0  0  0  0  0  0  0  0
  160.7580  208.7910  153.9410 C   0  0  0  0  0  0  0  0  0  0  0  0
  161.2670  207.0570  152.3510 N   0  0  0  0  0  0  0  0  0  0  0  0
  161.2340  212.6840  149.8040 C   0  0  0  0  0  3  0  0  0  0  0  0
  161.2270  204.0720  148.9540 N   0  0  0  0  0  2  0  0  0  0  0  0
  160.3490  203.5750  151.1190 C   0  0  0  0  0  2  0  0  0  0  0  0
  160.7970  212.2470  152.0740 F   0  0  0  0  0  0  0  0  0  0  0  0
  161.8610  208.6180  149.0310 C   0  0  0  0  0  0  0  0  0  0  0  0
  161.5580  212.2610  148.5160 C   0  0  0  0  0  3  0  0  0  0  0  0
  161.3190  210.3760  150.6100 C   0  0  0  0  0  0  0  0  0  0  0  0
  161.7610  207.6600  150.0190 C   0  0  0  0  0  0  0  0  0  0  0  0
  162.7060  205.8740  147.1300 O   0  0  0  0  0  0  0  0  0  0  0  0
  162.0970  206.3140  149.4490 C   0  0  1  0  0  3  0  0  0  0  0  0
  160.4640  203.0820  149.6970 C   0  0  0  0  0  2  0  0  0  0  0  0
  162.8700  205.1660  152.0590 C   0  0  0  0  0  1  0  0  0  0  0  0
  161.7650  210.9090  148.2610 C   0  0  0  0  0  3  0  0  0  0  0  0
  161.6480  209.9680  149.2900 C   0  0  0  0  0  0  0  0  0  0  0  0
  161.4110  205.6100  152.1240 C   0  0  2  0  0  3  0  0  0  0  0  0
  160.4320  209.2340  155.3310 C   0  0  0  0  0  2  0  0  0  0  0  0
  162.3300  209.2040  156.9180 C   0  0  0  0  0  1  0  0  0  0  0  0
  161.5810  210.0420  155.9040 C   0  0  0  0  0  2  0  0  0  0  0  0
  1  5  1  0  0  0  0
  2 16  1  0  0  0  0
  3 10  1  0  0  0  0
  3 17  1  0  0  0  0
  4  1  1  0  0  0  0
  4 12  1  0  0  0  0
  5 11  2  0  0  0  0
  7 15  1  6  0  0  0
  7 27  1  0  0  0  0
  8 11  1  0  0  0  0
  8  6  2  0  0  0  0
  9 14  1  1  0  0  0
  9  7  1  0  0  0  0
 11 28  1  0  0  0  0
 12  8  1  0  0  0  0
 13  2  2  0  0  0  0
 14 23  1  0  0  0  0
 17 26  2  0  0  0  0
 17 20  1  0  0  0  0
 18 13  1  0  0  0  0
 19  2  1  0  0  0  0
 19  1  2  0  0  0  0
 20  4  2  0  0  0  0
 21 10  2  0  0  0  0
 22 10  1  6  0  0  0
 22  9  1  0  0  0  0
 22 20  1  0  0  0  0
 23 15  1  0  0  0  0
 25 18  2  0  0  0  0
 25 26  1  0  0  0  0
 26 19  1  0  0  0  0
 27 24  1  6  0  0  0
 27 12  1  0  0  0  0
 28 30  1  0  0  0  0
 30 29  1  0  0  0  0
M  END
>  <MODEL>
4

>  <REMARK>
 VINA RESULT:      -6.8      2.670      7.206
  Name = 
  2 active torsions:
  status: ('A' for Active; 'I' for Inactive)
    1  A    between atoms: C_11  and  C_28
    2  A    between atoms: C_28  and  C_30
                            x       y       z     vdW  Elec       q    Type
                         _______ _______ _______ _____ _____    ______ ____

>  <TORSDO>
F 2

$$$$
=
 OpenBabel11122412413D

 30 35  0  0  1  0  0  0  0  0999 V2000
  161.4780  208.0780  151.1910 C   0  0  0  0  0  0  0  0  0  0  0  0
  161.4150  208.2920  153.6870 C   0  0  0  0  0  0  0  0  0  0  0  0
  160.5710  203.9780  151.4610 N   0  0  0  0  0  2  0  0  0  0  0  0
  161.3600  207.2630  150.0220 C   0  0  0  0  0  0  0  0  0  0  0  0
  161.7700  209.4310  151.0220 C   0  0  0  0  0  3  0  0  0  0  0  0
  162.0290  209.6580  147.4910 O   0  0  0  0  0  0  0  0  0  0  0  0
  162.4870  205.8370  147.5250 C   0  0  1  0  0  3  0  0  0  0  0  0
  161.8530  209.1540  148.6370 C   0  0  0  0  0  0  0  0  0  0  0  0
  162.0470  204.6070  148.3240 C   0  0  2  0  0  3  0  0  0  0  0  0
  160.5250  203.6630  150.0770 C   0  0  0  0  0  0  0  0  0  0  0  0
  161.9560  209.9760  149.7620 C   0  0  0  0  0  0  0  0  0  0  0  0
  161.5700  207.8180  148.7700 N   0  0  0  0  0  0  0  0  0  0  0  0
  161.2360  207.6920  154.9360 C   0  0  0  0  0  3  0  0  0  0  0  0
  161.8230  203.5230  147.3750 N   0  0  0  0  0  2  0  0  0  0  0  0
  162.7240  205.3430  146.1180 C   0  0  0  0  0  2  0  0  0  0  0  0
  161.6930  209.6190  153.6660 F   0  0  0  0  0  0  0  0  0  0  0  0
  160.8860  205.3630  151.4760 C   0  0  0  0  0  0  0  0  0  0  0  0
  160.9460  206.3330  155.0370 C   0  0  0  0  0  3  0  0  0  0  0  0
  161.3030  207.5230  152.4970 C   0  0  0  0  0  0  0  0  0  0  0  0
  161.0460  205.8970  150.2130 C   0  0  0  0  0  0  0  0  0  0  0  0
  160.2330  202.5120  149.6590 O   0  0  0  0  0  0  0  0  0  0  0  0
  160.8030  204.8340  149.1840 C   0  0  1  0  0  3  0  0  0  0  0  0
  162.6470  203.8390  146.2200 C   0  0  0  0  0  2  0  0  0  0  0  0
  160.0980  206.7580  147.0550 C   0  0  0  0  0  1  0  0  0  0  0  0
  160.8320  205.5600  153.8850 C   0  0  0  0  0  3  0  0  0  0  0  0
  161.0070  206.1400  152.6240 C   0  0  0  0  0  0  0  0  0  0  0  0
  161.5240  207.0350  147.5240 C   0  0  2  0  0  3  0  0  0  0  0  0
  162.2460  211.4370  149.6400 C   0  0  0  0  0  2  0  0  0  0  0  0
  160.8150  212.9610  148.3160 C   0  0  0  0  0  1  0  0  0  0  0  0
  160.9510  212.2270  149.6340 C   0  0  0  0  0  2  0  0  0  0  0  0
  1 19  1  0  0  0  0
  2 13  1  0  0  0  0
  3 17  1  0  0  0  0
  4 20  1  0  0  0  0
  4  1  2  0  0  0  0
  5  1  1  0  0  0  0
  6  8  2  0  0  0  0
  7 15  1  6  0  0  0
  7  9  1  0  0  0  0
  8 12  1  0  0  0  0
  8 11  1  0  0  0  0
  9 14  1  6  0  0  0
  9 22  1  0  0  0  0
 10  3  1  0  0  0  0
 11  5  2  0  0  0  0
 12  4  1  0  0  0  0
 13 18  2  0  0  0  0
 15 23  1  0  0  0  0
 16  2  1  0  0  0  0
 17 26  1  0  0  0  0
 19 26  1  0  0  0  0
 19  2  2  0  0  0  0
 20 17  2  0  0  0  0
 21 10  2  0  0  0  0
 22 10  1  1  0  0  0
 22 20  1  0  0  0  0
 23 14  1  0  0  0  0
 25 18  1  0  0  0  0
 26 25  2  0  0  0  0
 27 24  1  1  0  0  0
 27  7  1  0  0  0  0
 27 12  1  0  0  0  0
 28 11  1  0  0  0  0
 29 30  1  0  0  0  0
 30 28  1  0  0  0  0
M  END
>  <MODEL>
5

>  <REMARK>
 VINA RESULT:      -6.3      2.814      5.648
  Name = 
  2 active torsions:
  status: ('A' for Active; 'I' for Inactive)
    1  A    between atoms: C_11  and  C_28
    2  A    between atoms: C_28  and  C_30
                            x       y       z     vdW  Elec       q    Type
                         _______ _______ _______ _____ _____    ______ ____

>  <TORSDO>
F 2

$$$$
=
 OpenBabel11122412413D

 30 35  0  0  1  0  0  0  0  0999 V2000
  161.1380  209.1350  151.9480 C   0  0  0  0  0  0  0  0  0  0  0  0
  162.0660  209.1360  149.6200 C   0  0  0  0  0  0  0  0  0  0  0  0
  160.0240  213.1750  151.5690 N   0  0  0  0  0  2  0  0  0  0  0  0
  160.5020  209.8350  153.0190 C   0  0  0  0  0  0  0  0  0  0  0  0
  161.4690  207.7950  152.1430 C   0  0  0  0  0  3  0  0  0  0  0  0
  160.3620  207.2780  155.4750 O   0  0  0  0  0  0  0  0  0  0  0  0
  160.4370  211.1090  155.8330 C   0  0  1  0  0  3  0  0  0  0  0  0
  160.5960  207.8670  154.3810 C   0  0  0  0  0  0  0  0  0  0  0  0
  160.2260  212.3730  154.9940 C   0  0  2  0  0  3  0  0  0  0  0  0
  159.4180  213.3640  152.8390 C   0  0  0  0  0  0  0  0  0  0  0  0
  161.2040  207.1550  153.3430 C   0  0  0  0  0  0  0  0  0  0  0  0
  160.2620  209.1890  154.2210 N   0  0  0  0  0  0  0  0  0  0  0  0
  162.3280  209.8300  148.4360 C   0  0  0  0  0  3  0  0  0  0  0  0
  159.5510  213.3520  155.8360 N   0  0  0  0  0  2  0  0  0  0  0  0
  160.0630  211.4920  157.2440 C   0  0  0  0  0  2  0  0  0  0  0  0
  162.4380  207.8340  149.6760 F   0  0  0  0  0  0  0  0  0  0  0  0
  160.4500  211.8200  151.6030 C   0  0  0  0  0  0  0  0  0  0  0  0
  161.9730  211.1710  148.3040 C   0  0  0  0  0  3  0  0  0  0  0  0
  161.4300  209.7900  150.7110 C   0  0  0  0  0  0  0  0  0  0  0  0
  160.1590  211.1890  152.7960 C   0  0  0  0  0  0  0  0  0  0  0  0
  158.8800  214.4530  153.1710 O   0  0  0  0  0  0  0  0  0  0  0  0
  159.4380  212.1410  153.7040 C   0  0  1  0  0  3  0  0  0  0  0  0
  159.8900  212.9910  157.2030 C   0  0  0  0  0  2  0  0  0  0  0  0
  158.1500  209.9970  155.2760 C   0  0  0  0  0  1  0  0  0  0  0  0
  161.3500  211.8310  149.3590 C   0  0  0  0  0  3  0  0  0  0  0  0
  161.0780  211.1570  150.5540 C   0  0  0  0  0  0  0  0  0  0  0  0
  159.6660  209.8550  155.3900 C   0  0  2  0  0  3  0  0  0  0  0  0
  161.5600  205.7110  153.4890 C   0  0  0  0  0  2  0  0  0  0  0  0
  160.8300  203.7370  152.1880 C   0  0  0  0  0  1  0  0  0  0  0  0
  161.5950  205.0420  152.1280 C   0  0  0  0  0  2  0  0  0  0  0  0
  1  5  1  0  0  0  0
  1  4  1  0  0  0  0
  2 16  1  0  0  0  0
  2 19  1  0  0  0  0
  3 17  1  0  0  0  0
  3 10  1  0  0  0  0
  4 12  1  0  0  0  0
  5 11  2  0  0  0  0
  7 15  1  1  0  0  0
  8  6  2  0  0  0  0
  9  7  1  0  0  0  0
  9 14  1  1  0  0  0
 10 21  2  0  0  0  0
 10 22  1  0  0  0  0
 11 28  1  0  0  0  0
 11  8  1  0  0  0  0
 12  8  1  0  0  0  0
 12 27  1  0  0  0  0
 13  2  2  0  0  0  0
 14 23  1  0  0  0  0
 17 20  1  0  0  0  0
 18 13  1  0  0  0  0
 18 25  2  0  0  0  0
 19  1  2  0  0  0  0
 20  4  2  0  0  0  0
 22 20  1  6  0  0  0
 22  9  1  0  0  0  0
 23 15  1  0  0  0  0
 25 26  1  0  0  0  0
 26 19  1  0  0  0  0
 26 17  2  0  0  0  0
 27 24  1  6  0  0  0
 27  7  1  0  0  0  0
 30 29  1  0  0  0  0
 30 28  1  0  0  0  0
M  END
>  <MODEL>
6

>  <REMARK>
 VINA RESULT:      -5.9      2.642      5.928
  Name = 
  2 active torsions:
  status: ('A' for Active; 'I' for Inactive)
    1  A    between atoms: C_11  and  C_28
    2  A    between atoms: C_28  and  C_30
                            x       y       z     vdW  Elec       q    Type
                         _______ _______ _______ _____ _____    ______ ____

>  <TORSDO>
F 2

$$$$
=
 OpenBabel11122412413D

 30 35  0  0  1  0  0  0  0  0999 V2000
  160.7610  210.7120  151.7480 C   0  0  0  0  0  0  0  0  0  0  0  0
  161.9360  208.8800  150.5070 C   0  0  0  0  0  0  0  0  0  0  0  0
  160.4990  208.2980  155.1830 N   0  0  0  0  0  2  0  0  0  0  0  0
  160.1360  211.1850  152.9440 C   0  0  0  0  0  0  0  0  0  0  0  0
  160.8200  211.5740  150.6530 C   0  0  0  0  0  3  0  0  0  0  0  0
  159.1620  214.4410  151.9260 O   0  0  0  0  0  0  0  0  0  0  0  0
  157.7030  212.1030  154.6110 C   0  0  1  0  0  3  0  0  0  0  0  0
  159.6580  213.2790  151.8840 C   0  0  0  0  0  0  0  0  0  0  0  0
  158.0740  210.8440  155.4020 C   0  0  2  0  0  3  0  0  0  0  0  0
  159.8620  209.2160  156.0600 C   0  0  0  0  0  0  0  0  0  0  0  0
  160.2790  212.8480  150.7080 C   0  0  0  0  0  0  0  0  0  0  0  0
  159.5810  212.4540  152.9780 N   0  0  0  0  0  0  0  0  0  0  0  0
  162.4500  207.5810  150.4940 C   0  0  0  0  0  3  0  0  0  0  0  0
  157.5590  211.0080  156.7560 N   0  0  0  0  0  2  0  0  0  0  0  0
  156.7640  212.8790  155.5020 C   0  0  0  0  0  2  0  0  0  0  0  0
  162.0620  209.6120  149.3720 F   0  0  0  0  0  0  0  0  0  0  0  0
  160.6250  209.0280  153.9720 C   0  0  0  0  0  0  0  0  0  0  0  0
  162.3590  206.7690  151.6230 C   0  0  0  0  0  3  0  0  0  0  0  0
  161.3100  209.3940  151.6740 C   0  0  0  0  0  0  0  0  0  0  0  0
  160.1010  210.3030  154.0490 C   0  0  0  0  0  0  0  0  0  0  0  0
  159.6100  208.9340  157.2610 O   0  0  0  0  0  0  0  0  0  0  0  0
  159.5740  210.5450  155.4310 C   0  0  1  0  0  3  0  0  0  0  0  0
  156.4480  211.9390  156.6400 C   0  0  0  0  0  2  0  0  0  0  0  0
  159.8190  213.4840  155.2390 C   0  0  0  0  0  1  0  0  0  0  0  0
  161.7500  207.2520  152.7770 C   0  0  0  0  0  3  0  0  0  0  0  0
  161.2270  208.5490  152.8130 C   0  0  0  0  0  0  0  0  0  0  0  0
  158.8700  212.9910  154.1490 C   0  0  2  0  0  3  0  0  0  0  0  0
  160.3900  213.7350  149.5110 C   0  0  0  0  0  2  0  0  0  0  0  0
  162.4270  213.9410  148.1210 C   0  0  0  0  0  1  0  0  0  0  0  0
  161.2330  213.0670  148.4420 C   0  0  0  0  0  2  0  0  0  0  0  0
  1  4  1  0  0  0  0
  2 19  1  0  0  0  0
  3 10  1  0  0  0  0
  4 12  1  0  0  0  0
  4 20  2  0  0  0  0
  5 11  2  0  0  0  0
  5  1  1  0  0  0  0
  7  9  1  0  0  0  0
  7 15  1  1  0  0  0
  8  6  2  0  0  0  0
  8 12  1  0  0  0  0
  9 22  1  0  0  0  0
  9 14  1  1  0  0  0
 10 21  2  0  0  0  0
 11  8  1  0  0  0  0
 12 27  1  0  0  0  0
 13  2  2  0  0  0  0
 13 18  1  0  0  0  0
 15 23  1  0  0  0  0
 16  2  1  0  0  0  0
 17 20  1  0  0  0  0
 17  3  1  0  0  0  0
 18 25  2  0  0  0  0
 19  1  2  0  0  0  0
 19 26  1  0  0  0  0
 22 20  1  6  0  0  0
 22 10  1  0  0  0  0
 23 14  1  0  0  0  0
 25 26  1  0  0  0  0
 26 17  2  0  0  0  0
 27  7  1  0  0  0  0
 27 24  1  1  0  0  0
 28 11  1  0  0  0  0
 29 30  1  0  0  0  0
 30 28  1  0  0  0  0
M  END
>  <MODEL>
7

>  <REMARK>
 VINA RESULT:      -5.8      3.236      5.116
  Name = 
  2 active torsions:
  status: ('A' for Active; 'I' for Inactive)
    1  A    between atoms: C_11  and  C_28
    2  A    between atoms: C_28  and  C_30
                            x       y       z     vdW  Elec       q    Type
                         _______ _______ _______ _____ _____    ______ ____

>  <TORSDO>
F 2

$$$$
=
 OpenBabel11122412413D

 30 35  0  0  1  0  0  0  0  0999 V2000
  161.3920  204.4520  148.7450 C   0  0  0  0  0  0  0  0  0  0  0  0
  160.8000  202.0600  148.2920 C   0  0  0  0  0  0  0  0  0  0  0  0
  160.8640  203.8620  152.8770 N   0  0  0  0  0  2  0  0  0  0  0  0
  161.5810  205.5170  149.6790 C   0  0  0  0  0  0  0  0  0  0  0  0
  161.5960  204.7210  147.3920 C   0  0  0  0  0  3  0  0  0  0  0  0
  162.4450  208.1650  147.4810 O   0  0  0  0  0  0  0  0  0  0  0  0
  160.8330  208.2200  150.9750 C   0  0  1  0  0  3  0  0  0  0  0  0
  162.1190  207.0130  147.8880 C   0  0  0  0  0  0  0  0  0  0  0  0
  160.6200  207.3080  152.1870 C   0  0  2  0  0  3  0  0  0  0  0  0
  161.2050  205.1600  153.3390 C   0  0  0  0  0  0  0  0  0  0  0  0
  161.9580  205.9850  146.9550 C   0  0  0  0  0  0  0  0  0  0  0  0
  161.9230  206.7820  149.2260 N   0  0  0  0  0  0  0  0  0  0  0  0
  160.4170  200.8080  148.7800 C   0  0  0  0  0  3  0  0  0  0  0  0
  160.7600  208.1270  153.3840 N   0  0  0  0  0  2  0  0  0  0  0  0
  160.8690  209.6250  151.5270 C   0  0  0  0  0  2  0  0  0  0  0  0
  160.9650  202.1840  146.9510 F   0  0  0  0  0  0  0  0  0  0  0  0
  161.0040  203.9630  151.4680 C   0  0  0  0  0  0  0  0  0  0  0  0
  160.2290  200.6040  150.1450 C   0  0  0  0  0  3  0  0  0  0  0  0
  161.0040  203.1480  149.1840 C   0  0  0  0  0  0  0  0  0  0  0  0
  161.3870  205.2220  151.0490 C   0  0  0  0  0  0  0  0  0  0  0  0
  161.2310  205.4530  154.5630 O   0  0  0  0  0  0  0  0  0  0  0  0
  161.5720  206.1110  152.2410 C   0  0  1  0  0  3  0  0  0  0  0  0
  160.4420  209.4830  152.9680 C   0  0  0  0  0  2  0  0  0  0  0  0
  163.4190  207.9490  150.8470 C   0  0  0  0  0  1  0  0  0  0  0  0
  160.4230  201.6550  151.0370 C   0  0  0  0  0  3  0  0  0  0  0  0
  160.8060  202.9180  150.5710 C   0  0  0  0  0  0  0  0  0  0  0  0
  162.0780  207.9430  150.1170 C   0  0  2  0  0  3  0  0  0  0  0  0
  162.1840  206.2100  145.4950 C   0  0  0  0  0  2  0  0  0  0  0  0
  161.4620  205.5940  143.2100 C   0  0  0  0  0  1  0  0  0  0  0  0
  161.1420  205.4630  144.6840 C   0  0  0  0  0  2  0  0  0  0  0  0
  1 19  2  0  0  0  0
  1  4  1  0  0  0  0
  2 13  2  0  0  0  0
  2 19  1  0  0  0  0
  3 10  1  0  0  0  0
  4 20  2  0  0  0  0
  5  1  1  0  0  0  0
  6  8  2  0  0  0  0
  7 15  1  1  0  0  0
  7  9  1  0  0  0  0
  8 12  1  0  0  0  0
  9 22  1  0  0  0  0
  9 14  1  1  0  0  0
 10 21  2  0  0  0  0
 11  5  2  0  0  0  0
 11  8  1  0  0  0  0
 12  4  1  0  0  0  0
 12 27  1  0  0  0  0
 13 18  1  0  0  0  0
 15 23  1  0  0  0  0
 16  2  1  0  0  0  0
 17  3  1  0  0  0  0
 18 25  2  0  0  0  0
 19 26  1  0  0  0  0
 20 17  1  0  0  0  0
 22 20  1  6  0  0  0
 22 10  1  0  0  0  0
 23 14  1  0  0  0  0
 26 25  1  0  0  0  0
 26 17  2  0  0  0  0
 27 24  1  1  0  0  0
 27  7  1  0  0  0  0
 28 11  1  0  0  0  0
 29 30  1  0  0  0  0
 30 28  1  0  0  0  0
M  END
>  <MODEL>
8

>  <REMARK>
 VINA RESULT:      -5.6      1.584      2.227
  Name = 
  2 active torsions:
  status: ('A' for Active; 'I' for Inactive)
    1  A    between atoms: C_11  and  C_28
    2  A    between atoms: C_28  and  C_30
                            x       y       z     vdW  Elec       q    Type
                         _______ _______ _______ _____ _____    ______ ____

>  <TORSDO>
F 2

$$$$
=
 OpenBabel11122412413D

 30 35  0  0  1  0  0  0  0  0999 V2000
  161.3090  209.8170  151.2310 C   0  0  0  0  0  0  0  0  0  0  0  0
  161.9560  210.4030  148.8820 C   0  0  0  0  0  0  0  0  0  0  0  0
  159.6570  213.6450  151.7950 N   0  0  0  0  0  2  0  0  0  0  0  0
  160.7160  210.1950  152.4750 C   0  0  0  0  0  0  0  0  0  0  0  0
  161.8270  208.5270  151.1150 C   0  0  0  0  0  3  0  0  0  0  0  0
  161.1840  207.2200  154.3510 O   0  0  0  0  0  0  0  0  0  0  0  0
  160.8130  210.8780  155.4870 C   0  0  1  0  0  3  0  0  0  0  0  0
  161.2150  208.0370  153.3870 C   0  0  0  0  0  0  0  0  0  0  0  0
  160.3490  212.2350  154.9490 C   0  0  2  0  0  3  0  0  0  0  0  0
  159.1810  213.4940  153.1240 C   0  0  0  0  0  0  0  0  0  0  0  0
  161.7840  207.6350  152.1750 C   0  0  0  0  0  0  0  0  0  0  0  0
  160.7000  209.3000  153.5340 N   0  0  0  0  0  0  0  0  0  0  0  0
  161.9910  211.3430  147.8490 C   0  0  0  0  0  3  0  0  0  0  0  0
  159.6570  212.9230  156.0310 N   0  0  0  0  0  2  0  0  0  0  0  0
  160.5580  210.9220  156.9740 C   0  0  0  0  0  2  0  0  0  0  0  0
  162.4940  209.1830  148.6350 F   0  0  0  0  0  0  0  0  0  0  0  0
  160.2510  212.3860  151.5110 C   0  0  0  0  0  0  0  0  0  0  0  0
  161.4560  212.6180  148.0290 C   0  0  0  0  0  3  0  0  0  0  0  0
  161.3720  210.7330  150.1360 C   0  0  0  0  0  0  0  0  0  0  0  0
  160.1810  211.5010  152.5680 C   0  0  0  0  0  0  0  0  0  0  0  0
  158.5510  214.4070  153.7200 O   0  0  0  0  0  0  0  0  0  0  0  0
  159.4550  212.1430  153.7120 C   0  0  1  0  0  3  0  0  0  0  0  0
  160.1940  212.3590  157.2590 C   0  0  0  0  0  2  0  0  0  0  0  0
  158.6370  209.5700  154.9120 C   0  0  0  0  0  1  0  0  0  0  0  0
  160.8800  212.9630  149.2480 C   0  0  0  0  0  3  0  0  0  0  0  0
  160.8340  212.0380  150.2970 C   0  0  0  0  0  0  0  0  0  0  0  0
  160.1620  209.6330  154.8620 C   0  0  2  0  0  3  0  0  0  0  0  0
  162.3350  206.2590  151.9870 C   0  0  0  0  0  2  0  0  0  0  0  0
  160.8810  204.2650  151.8050 C   0  0  0  0  0  1  0  0  0  0  0  0
  161.4380  205.4600  151.0610 C   0  0  0  0  0  2  0  0  0  0  0  0
  1  4  1  0  0  0  0
  2 19  1  0  0  0  0
  3 10  1  0  0  0  0
  4 20  2  0  0  0  0
  4 12  1  0  0  0  0
  5  1  1  0  0  0  0
  5 11  2  0  0  0  0
  7 15  1  1  0  0  0
  8 12  1  0  0  0  0
  8  6  2  0  0  0  0
  9  7  1  0  0  0  0
  9 14  1  1  0  0  0
 10 22  1  0  0  0  0
 10 21  2  0  0  0  0
 11  8  1  0  0  0  0
 12 27  1  0  0  0  0
 13 18  1  0  0  0  0
 13  2  2  0  0  0  0
 14 23  1  0  0  0  0
 15 23  1  0  0  0  0
 16  2  1  0  0  0  0
 17  3  1  0  0  0  0
 17 20  1  0  0  0  0
 18 25  2  0  0  0  0
 19 26  1  0  0  0  0
 19  1  2  0  0  0  0
 22 20  1  6  0  0  0
 22  9  1  0  0  0  0
 25 26  1  0  0  0  0
 26 17  2  0  0  0  0
 27 24  1  6  0  0  0
 27  7  1  0  0  0  0
 28 11  1  0  0  0  0
 30 29  1  0  0  0  0
 30 28  1  0  0  0  0
M  END
>  <MODEL>
9

>  <REMARK>
 VINA RESULT:      -5.5      2.741      6.043
  Name = 
  2 active torsions:
  status: ('A' for Active; 'I' for Inactive)
    1  A    between atoms: C_11  and  C_28
    2  A    between atoms: C_28  and  C_30
                            x       y       z     vdW  Elec       q    Type
                         _______ _______ _______ _____ _____    ______ ____

>  <TORSDO>
F 2

$$$$
