=
 OpenBabel11122412583D

 32 37  0  0  1  0  0  0  0  0999 V2000
  162.2580  206.7460  148.9900 C   0  0  0  0  0  2  0  0  0  0  0  0
  161.7520  210.8310  152.5840 C   0  0  1  0  0  3  0  0  0  0  0  0
  160.8460  209.7270  157.2600 C   0  0  0  0  0  3  0  0  0  0  0  0
  159.7290  210.5650  157.2610 C   0  0  0  0  0  3  0  0  0  0  0  0
  159.9910  212.2020  151.2780 C   0  0  0  0  0  0  0  0  0  0  0  0
  158.7390  212.8150  151.2620 C   0  0  0  0  0  0  0  0  0  0  0  0
  161.6080  209.2180  150.7070 N   0  0  2  0  0  0  0  0  0  0  0  0
  161.0740  208.4380  152.9880 C   0  0  0  0  0  2  0  0  0  0  0  0
  156.7850  213.4610  152.0730 N   0  0  0  0  0  0  0  0  0  0  0  0
  160.8240  206.9070  151.1050 C   0  0  0  0  0  2  0  0  0  0  0  0
  161.5180  209.4580  156.0650 C   0  0  0  0  0  3  0  0  0  0  0  0
  161.7590  209.6650  153.5850 C   0  0  2  0  0  3  0  0  0  0  0  0
  161.0840  210.0370  154.8680 C   0  0  0  0  0  0  0  0  0  0  0  0
  159.5200  211.5130  153.5910 C   0  0  0  0  0  0  0  0  0  0  0  0
  156.8940  213.9270  150.8100 C   0  0  0  0  0  3  0  0  0  0  0  0
  161.6090  207.9550  148.7210 O   0  0  0  0  0  0  0  0  0  0  0  0
  161.6710  208.0670  151.6310 C   0  0  1  0  0  3  0  0  0  0  0  0
  158.1190  213.5410  150.2600 C   0  0  0  0  0  3  0  0  0  0  0  0
  162.3210  208.8970  149.4710 C   0  0  0  0  0  2  0  0  0  0  0  0
  161.5830  205.9920  150.1390 C   0  0  1  0  0  3  0  0  0  0  0  0
  159.2860  211.1380  156.0660 C   0  0  0  0  0  3  0  0  0  0  0  0
  159.9550  210.8800  154.8600 C   0  0  0  0  0  0  0  0  0  0  0  0
  158.2680  212.1600  153.5290 C   0  0  0  0  0  3  0  0  0  0  0  0
  162.3680  210.3330  151.2730 C   0  0  0  0  0  2  0  0  0  0  0  0
  160.8230  212.3180  150.1690 O   0  0  0  0  0  1  0  0  0  0  0  0
  155.6550  213.6740  152.9630 C   0  0  0  0  0  1  0  0  0  0  0  0
  160.3810  211.4910  152.4480 C   0  0  0  0  0  0  0  0  0  0  0  0
  157.9110  212.7870  152.3410 C   0  0  0  0  0  0  0  0  0  0  0  0
  160.6760  204.9950  149.5920 N   0  0  0  0  0  2  0  0  0  0  0  0
  160.7220  203.6180  149.9710 C   0  0  0  0  0  0  0  0  0  0  0  0
  161.5860  203.2050  150.7890 O   0  0  0  0  0  0  0  0  0  0  0  0
  159.7450  202.6620  149.3880 C   0  0  0  0  0  1  0  0  0  0  0  0
  1 20  1  0  0  0  0
  2 24  1  6  0  0  0
  2 12  1  0  0  0  0
  3  4  1  0  0  0  0
  5 27  1  0  0  0  0
  6  5  2  0  0  0  0
  6 28  1  0  0  0  0
  7 19  1  6  0  0  0
  7 24  1  0  0  0  0
  7 17  1  0  0  0  0
  9 28  1  0  0  0  0
  9 26  1  0  0  0  0
 11  3  2  0  0  0  0
 12  8  1  6  0  0  0
 12 13  1  0  0  0  0
 13 11  1  0  0  0  0
 14 22  1  0  0  0  0
 15  9  1  0  0  0  0
 16  1  1  0  0  0  0
 16 19  1  0  0  0  0
 17 10  1  6  0  0  0
 17  8  1  0  0  0  0
 18 15  2  0  0  0  0
 18  6  1  0  0  0  0
 20 29  1  6  0  0  0
 20 10  1  0  0  0  0
 21  4  2  0  0  0  0
 22 13  2  0  0  0  0
 22 21  1  0  0  0  0
 23 14  1  0  0  0  0
 25  5  1  0  0  0  0
 27  2  1  0  0  0  0
 27 14  2  0  0  0  0
 28 23  2  0  0  0  0
 29 30  1  0  0  0  0
 30 31  2  0  0  0  0
 32 30  1  0  0  0  0
M  END
>  <MODEL>
1

>  <REMARK>
 VINA RESULT:      -5.8      0.000      0.000
  Name = 
  1 active torsions:
  status: ('A' for Active; 'I' for Inactive)
    1  A    between atoms: C_20  and  N_29
                            x       y       z     vdW  Elec       q    Type
                         _______ _______ _______ _____ _____    ______ ____

>  <TORSDO>
F 1

$$$$
=
 OpenBabel11122412583D

 32 37  0  0  1  0  0  0  0  0999 V2000
  158.7310  211.2620  156.7370 C   0  0  0  0  0  2  0  0  0  0  0  0
  162.2240  209.4170  152.9620 C   0  0  1  0  0  3  0  0  0  0  0  0
  162.1020  211.4080  148.4980 C   0  0  0  0  0  3  0  0  0  0  0  0
  161.9520  210.1460  147.9190 C   0  0  0  0  0  3  0  0  0  0  0  0
  161.6740  206.9020  153.2060 C   0  0  0  0  0  0  0  0  0  0  0  0
  161.2730  205.7130  152.6000 C   0  0  0  0  0  0  0  0  0  0  0  0
  160.4950  209.7680  154.7040 N   0  0  2  0  0  0  0  0  0  0  0  0
  160.2050  210.8540  152.5060 C   0  0  0  0  0  2  0  0  0  0  0  0
  160.6530  204.3880  150.9400 N   0  0  0  0  0  0  0  0  0  0  0  0
  158.4620  211.0820  154.1970 C   0  0  0  0  0  2  0  0  0  0  0  0
  162.0370  211.5530  149.8860 C   0  0  0  0  0  3  0  0  0  0  0  0
  161.6780  210.6220  152.1790 C   0  0  2  0  0  3  0  0  0  0  0  0
  161.8360  210.4340  150.7020 C   0  0  0  0  0  0  0  0  0  0  0  0
  161.4980  207.9750  150.9990 C   0  0  0  0  0  0  0  0  0  0  0  0
  160.7140  203.6500  152.0700 C   0  0  0  0  0  3  0  0  0  0  0  0
  159.0780  209.9170  156.5770 O   0  0  0  0  0  0  0  0  0  0  0  0
  159.9760  210.9660  154.0130 C   0  0  1  0  0  3  0  0  0  0  0  0
  161.1050  204.4520  153.1460 C   0  0  0  0  0  3  0  0  0  0  0  0
  160.4100  209.9590  156.1510 C   0  0  0  0  0  2  0  0  0  0  0  0
  158.0630  211.8210  155.4780 C   0  0  1  0  0  3  0  0  0  0  0  0
  161.7420  209.0270  148.7290 C   0  0  0  0  0  3  0  0  0  0  0  0
  161.6810  209.1590  150.1250 C   0  0  0  0  0  0  0  0  0  0  0  0
  161.1090  206.7430  150.4320 C   0  0  0  0  0  3  0  0  0  0  0  0
  161.9310  209.6470  154.4470 C   0  0  0  0  0  2  0  0  0  0  0  0
  162.0080  206.9040  154.5560 O   0  0  0  0  0  1  0  0  0  0  0  0
  160.2940  203.8940  149.6210 C   0  0  0  0  0  1  0  0  0  0  0  0
  161.7450  208.0780  152.4050 C   0  0  0  0  0  0  0  0  0  0  0  0
  160.9950  205.6400  151.2700 C   0  0  0  0  0  0  0  0  0  0  0  0
  156.6180  211.7770  155.6400 N   0  0  0  0  0  2  0  0  0  0  0  0
  155.9080  212.6770  156.4930 C   0  0  0  0  0  0  0  0  0  0  0  0
  156.5250  213.5420  157.1700 O   0  0  0  0  0  0  0  0  0  0  0  0
  154.4280  212.5880  156.5870 C   0  0  0  0  0  1  0  0  0  0  0  0
  2 24  1  1  0  0  0
  3 11  1  0  0  0  0
  4  3  2  0  0  0  0
  4 21  1  0  0  0  0
  5 25  1  0  0  0  0
  6 18  1  0  0  0  0
  6  5  1  0  0  0  0
  7 24  1  1  0  0  0
  7 19  1  0  0  0  0
  9 28  1  0  0  0  0
  9 15  1  0  0  0  0
 10 20  1  0  0  0  0
 11 13  2  0  0  0  0
 12  8  1  6  0  0  0
 12  2  1  0  0  0  0
 13 12  1  0  0  0  0
 14 27  1  0  0  0  0
 15 18  2  0  0  0  0
 16  1  1  0  0  0  0
 17  8  1  6  0  0  0
 17 10  1  0  0  0  0
 17  7  1  0  0  0  0
 19 16  1  0  0  0  0
 20 29  1  1  0  0  0
 20  1  1  0  0  0  0
 21 22  2  0  0  0  0
 22 13  1  0  0  0  0
 22 14  1  0  0  0  0
 23 14  2  0  0  0  0
 23 28  1  0  0  0  0
 26  9  1  0  0  0  0
 27  2  1  0  0  0  0
 27  5  2  0  0  0  0
 28  6  2  0  0  0  0
 29 30  1  0  0  0  0
 30 32  1  0  0  0  0
 30 31  2  0  0  0  0
M  END
>  <MODEL>
2

>  <REMARK>
 VINA RESULT:      -5.0      2.866      7.988
  Name = 
  1 active torsions:
  status: ('A' for Active; 'I' for Inactive)
    1  A    between atoms: C_20  and  N_29
                            x       y       z     vdW  Elec       q    Type
                         _______ _______ _______ _____ _____    ______ ____

>  <TORSDO>
F 1

$$$$
=
 OpenBabel11122412583D

 32 37  0  0  1  0  0  0  0  0999 V2000
  162.6150  206.6330  148.1910 C   0  0  0  0  0  2  0  0  0  0  0  0
  161.8330  210.6270  151.8370 C   0  0  1  0  0  3  0  0  0  0  0  0
  159.9890  209.4640  156.2140 C   0  0  0  0  0  3  0  0  0  0  0  0
  158.9710  210.4080  156.0560 C   0  0  0  0  0  3  0  0  0  0  0  0
  160.4730  212.2080  150.3070 C   0  0  0  0  0  0  0  0  0  0  0  0
  159.3070  212.9410  150.0980 C   0  0  0  0  0  0  0  0  0  0  0  0
  161.8890  209.0990  149.8860 N   0  0  2  0  0  0  0  0  0  0  0  0
  160.8770  208.3010  151.9920 C   0  0  0  0  0  2  0  0  0  0  0  0
  157.3040  213.7500  150.5780 N   0  0  0  0  0  0  0  0  0  0  0  0
  160.8390  206.8640  150.0210 C   0  0  0  0  0  2  0  0  0  0  0  0
  160.8410  209.1700  155.1470 C   0  0  0  0  0  3  0  0  0  0  0  0
  161.5510  209.4330  152.7630 C   0  0  2  0  0  3  0  0  0  0  0  0
  160.6880  209.8280  153.9220 C   0  0  0  0  0  0  0  0  0  0  0  0
  159.5260  211.4920  152.4620 C   0  0  0  0  0  0  0  0  0  0  0  0
  157.6840  214.2440  149.3790 C   0  0  0  0  0  3  0  0  0  0  0  0
  162.1390  207.9080  147.8710 O   0  0  0  0  0  0  0  0  0  0  0  0
  161.6770  207.9170  150.7470 C   0  0  1  0  0  3  0  0  0  0  0  0
  158.9490  213.7570  149.0390 C   0  0  0  0  0  3  0  0  0  0  0  0
  162.7840  208.7500  148.7840 C   0  0  0  0  0  2  0  0  0  0  0  0
  161.6750  205.9120  149.1610 C   0  0  1  0  0  3  0  0  0  0  0  0
  158.8080  211.0610  154.8320 C   0  0  0  0  0  3  0  0  0  0  0  0
  159.6620  210.7780  153.7540 C   0  0  0  0  0  0  0  0  0  0  0  0
  158.3700  212.2610  152.2090 C   0  0  0  0  0  3  0  0  0  0  0  0
  162.6310  210.1140  150.6350 C   0  0  0  0  0  2  0  0  0  0  0  0
  161.5020  212.2770  149.3730 O   0  0  0  0  0  1  0  0  0  0  0  0
  156.0540  214.0430  151.2600 C   0  0  0  0  0  1  0  0  0  0  0  0
  160.5760  211.4230  151.4920 C   0  0  0  0  0  0  0  0  0  0  0  0
  158.2950  212.9590  151.0090 C   0  0  0  0  0  0  0  0  0  0  0  0
  160.7960  205.0270  148.4110 N   0  0  0  0  0  2  0  0  0  0  0  0
  161.1740  203.7030  148.0310 C   0  0  0  0  0  0  0  0  0  0  0  0
  162.3160  203.2540  148.3150 O   0  0  0  0  0  0  0  0  0  0  0  0
  160.2120  202.8490  147.2870 C   0  0  0  0  0  1  0  0  0  0  0  0
  1 20  1  0  0  0  0
  2 24  1  6  0  0  0
  2 12  1  0  0  0  0
  4  3  1  0  0  0  0
  5 27  1  0  0  0  0
  6  5  2  0  0  0  0
  6 28  1  0  0  0  0
  7 19  1  6  0  0  0
  7 24  1  0  0  0  0
  7 17  1  0  0  0  0
  9 28  1  0  0  0  0
  9 26  1  0  0  0  0
 11  3  2  0  0  0  0
 12  8  1  6  0  0  0
 12 13  1  0  0  0  0
 13 11  1  0  0  0  0
 14 22  1  0  0  0  0
 15  9  1  0  0  0  0
 16  1  1  0  0  0  0
 16 19  1  0  0  0  0
 17 10  1  6  0  0  0
 17  8  1  0  0  0  0
 18 15  2  0  0  0  0
 18  6  1  0  0  0  0
 20 29  1  6  0  0  0
 20 10  1  0  0  0  0
 21  4  2  0  0  0  0
 22 13  2  0  0  0  0
 22 21  1  0  0  0  0
 23 14  1  0  0  0  0
 25  5  1  0  0  0  0
 27  2  1  0  0  0  0
 27 14  2  0  0  0  0
 28 23  2  0  0  0  0
 30 31  2  0  0  0  0
 30 29  1  0  0  0  0
 32 30  1  0  0  0  0
M  END
>  <MODEL>
3

>  <REMARK>
 VINA RESULT:      -4.2      1.220      1.324
  Name = 
  1 active torsions:
  status: ('A' for Active; 'I' for Inactive)
    1  A    between atoms: C_20  and  N_29
                            x       y       z     vdW  Elec       q    Type
                         _______ _______ _______ _____ _____    ______ ____

>  <TORSDO>
F 1

$$$$
=
 OpenBabel11122412583D

 32 37  0  0  1  0  0  0  0  0999 V2000
  159.3860  210.1800  155.9060 C   0  0  0  0  0  2  0  0  0  0  0  0
  162.4900  210.0420  151.4110 C   0  0  1  0  0  3  0  0  0  0  0  0
  161.7810  213.4520  147.9790 C   0  0  0  0  0  3  0  0  0  0  0  0
  161.6140  212.4640  147.0060 C   0  0  0  0  0  3  0  0  0  0  0  0
  162.0680  207.5660  150.7950 C   0  0  0  0  0  0  0  0  0  0  0  0
  161.6450  206.6360  149.8470 C   0  0  0  0  0  0  0  0  0  0  0  0
  160.9610  209.6290  153.3180 N   0  0  2  0  0  0  0  0  0  0  0  0
  160.3790  211.3890  151.6870 C   0  0  0  0  0  2  0  0  0  0  0  0
  160.8890  205.9330  147.8900 N   0  0  0  0  0  0  0  0  0  0  0  0
  158.8350  210.8790  153.5050 C   0  0  0  0  0  2  0  0  0  0  0  0
  161.8710  213.0980  149.3280 C   0  0  0  0  0  3  0  0  0  0  0  0
  161.8120  211.3990  151.1620 C   0  0  2  0  0  3  0  0  0  0  0  0
  161.8070  211.7520  149.7070 C   0  0  0  0  0  0  0  0  0  0  0  0
  161.5990  209.3260  149.1410 C   0  0  0  0  0  0  0  0  0  0  0  0
  161.1070  204.8530  148.6730 C   0  0  0  0  0  3  0  0  0  0  0  0
  159.7640  209.0060  155.2460 O   0  0  0  0  0  0  0  0  0  0  0  0
  160.3210  210.9500  153.1500 C   0  0  1  0  0  3  0  0  0  0  0  0
  161.5880  205.2550  149.9210 C   0  0  0  0  0  3  0  0  0  0  0  0
  161.0350  209.2960  154.7390 C   0  0  0  0  0  2  0  0  0  0  0  0
  158.5580  211.0910  154.9970 C   0  0  1  0  0  3  0  0  0  0  0  0
  161.5400  211.1200  147.3810 C   0  0  0  0  0  3  0  0  0  0  0  0
  161.6350  210.7510  148.7320 C   0  0  0  0  0  0  0  0  0  0  0  0
  161.1940  208.3440  148.2120 C   0  0  0  0  0  3  0  0  0  0  0  0
  162.3610  209.7160  152.9020 C   0  0  0  0  0  2  0  0  0  0  0  0
  162.5540  207.1220  152.0200 O   0  0  0  0  0  1  0  0  0  0  0  0
  160.4000  205.9050  146.5210 C   0  0  0  0  0  1  0  0  0  0  0  0
  162.0010  208.9500  150.4620 C   0  0  0  0  0  0  0  0  0  0  0  0
  161.2190  207.0130  148.6100 C   0  0  0  0  0  0  0  0  0  0  0  0
  157.1430  210.8840  155.2680 N   0  0  0  0  0  2  0  0  0  0  0  0
  156.4470  211.5690  156.3100 C   0  0  0  0  0  0  0  0  0  0  0  0
  157.0530  212.3760  157.0640 O   0  0  0  0  0  0  0  0  0  0  0  0
  154.9960  211.3240  156.5100 C   0  0  0  0  0  1  0  0  0  0  0  0
  2 24  1  1  0  0  0
  3 11  1  0  0  0  0
  4 21  1  0  0  0  0
  4  3  2  0  0  0  0
  5 25  1  0  0  0  0
  6 18  1  0  0  0  0
  6  5  2  0  0  0  0
  7 24  1  1  0  0  0
  7 19  1  0  0  0  0
  9 28  1  0  0  0  0
  9 15  1  0  0  0  0
 10 20  1  0  0  0  0
 11 13  2  0  0  0  0
 12  2  1  0  0  0  0
 12  8  1  6  0  0  0
 13 12  1  0  0  0  0
 14 27  2  0  0  0  0
 15 18  2  0  0  0  0
 16  1  1  0  0  0  0
 17  8  1  6  0  0  0
 17  7  1  0  0  0  0
 17 10  1  0  0  0  0
 19 16  1  0  0  0  0
 20 29  1  6  0  0  0
 20  1  1  0  0  0  0
 21 22  2  0  0  0  0
 22 14  1  0  0  0  0
 22 13  1  0  0  0  0
 23 28  2  0  0  0  0
 23 14  1  0  0  0  0
 26  9  1  0  0  0  0
 27  5  1  0  0  0  0
 27  2  1  0  0  0  0
 28  6  1  0  0  0  0
 29 30  1  0  0  0  0
 30 32  1  0  0  0  0
 30 31  2  0  0  0  0
M  END
>  <MODEL>
4

>  <REMARK>
 VINA RESULT:      -4.0      2.847      7.605
  Name = 
  1 active torsions:
  status: ('A' for Active; 'I' for Inactive)
    1  A    between atoms: C_20  and  N_29
                            x       y       z     vdW  Elec       q    Type
                         _______ _______ _______ _____ _____    ______ ____

>  <TORSDO>
F 1

$$$$
