=
 OpenBabel11122413353D

 37 43  0  0  1  0  0  0  0  0999 V2000
  161.8010  209.8050  154.8070 C   0  0  0  0  0  2  0  0  0  0  0  0
  162.3230  207.4490  150.5890 C   0  0  0  0  0  0  0  0  0  0  0  0
  160.3680  210.9690  151.7320 C   0  0  0  0  0  0  0  0  0  0  0  0
  162.2380  209.7060  156.2670 C   0  0  2  0  0  3  0  0  0  0  0  0
  157.7500  210.6090  154.2970 O   0  0  0  0  0  0  0  0  0  0  0  0
  161.7460  209.8220  150.1090 C   0  0  0  0  0  0  0  0  0  0  0  0
  159.6560  210.6180  152.8030 C   0  0  0  0  0  0  0  0  0  0  0  0
  160.1510  211.2320  156.6740 C   0  0  2  0  0  3  0  0  0  0  0  0
  161.0830  209.8830  151.3150 C   0  0  0  0  0  0  0  0  0  0  0  0
  158.5530  211.3620  153.4350 C   0  0  0  0  0  0  0  0  0  0  0  0
  161.7880  210.9760  149.3190 C   0  0  0  0  0  3  0  0  0  0  0  0
  161.4680  210.6520  157.2090 C   0  0  0  0  0  2  0  0  0  0  0  0
  160.9050  208.7570  152.1240 N   0  0  0  0  0  0  0  0  0  0  0  0
  163.6140  207.4690  151.3870 C   0  0  0  0  0  1  0  0  0  0  0  0
  159.8570  213.3010  151.3580 C   0  0  0  0  0  3  0  0  0  0  0  0
  161.1320  212.1420  149.7680 C   0  0  0  0  0  3  0  0  0  0  0  0
  161.1220  207.4240  151.5690 C   0  0  0  0  0  2  0  0  0  0  0  0
  159.0810  210.1870  156.3040 C   0  0  1  0  0  3  0  0  0  0  0  0
  157.8000  210.7710  155.7110 C   0  0  0  0  0  2  0  0  0  0  0  0
  160.4010  212.1510  150.9790 C   0  0  0  0  0  0  0  0  0  0  0  0
  159.9380  209.1520  153.1400 C   0  0  1  0  0  3  0  0  0  0  0  0
  162.2910  208.5940  149.7100 O   0  0  0  0  0  0  0  0  0  0  0  0
  158.3010  212.6820  153.2600 C   0  0  0  0  0  0  0  0  0  0  0  0
  162.2970  206.1870  149.7530 C   0  0  0  0  0  1  0  0  0  0  0  0
  159.5310  208.8580  155.6740 C   0  0  0  0  0  2  0  0  0  0  0  0
  160.3910  212.1390  155.6390 O   0  0  0  0  0  1  0  0  0  0  0  0
  160.5550  208.9540  154.5330 C   0  0  2  0  0  3  0  0  0  0  0  0
  159.0960  213.5540  152.5010 O   0  0  0  0  0  0  0  0  0  0  0  0
  155.9960  213.6220  153.1830 C   0  0  0  0  0  3  0  0  0  0  0  0
  157.1460  213.3260  153.9300 C   0  0  0  0  0  0  0  0  0  0  0  0
  157.1460  213.5780  155.3130 C   0  0  0  0  0  3  0  0  0  0  0  0
  156.0420  214.3940  157.2600 F   0  0  0  0  0  0  0  0  0  0  0  0
  154.8940  214.4530  155.1720 C   0  0  0  0  0  3  0  0  0  0  0  0
  156.0280  214.1460  155.9290 C   0  0  0  0  0  0  0  0  0  0  0  0
  154.8770  214.1880  153.8010 C   0  0  0  0  0  3  0  0  0  0  0  0
  163.6860  211.3010  156.7670 C   0  0  0  0  0  1  0  0  0  0  0  0
  163.6050  209.9660  156.3680 O   0  0  0  0  0  0  0  0  0  0  0  0
  1  4  1  0  0  0  0
  2 14  1  0  0  0  0
  2 17  1  0  0  0  0
  3  7  2  0  0  0  0
  4 37  1  6  0  0  0
  4 12  1  0  0  0  0
  5 19  1  0  0  0  0
  6  9  2  0  0  0  0
  7 10  1  0  0  0  0
  8 26  1  6  0  0  0
  8 12  1  0  0  0  0
  9  3  1  0  0  0  0
  9 13  1  0  0  0  0
 10  5  1  0  0  0  0
 11 16  2  0  0  0  0
 11  6  1  0  0  0  0
 13 21  1  0  0  0  0
 15 28  1  0  0  0  0
 16 20  1  0  0  0  0
 17 13  1  0  0  0  0
 18 25  1  6  0  0  0
 18  8  1  0  0  0  0
 19 18  1  0  0  0  0
 20 15  2  0  0  0  0
 20  3  1  0  0  0  0
 21  7  1  6  0  0  0
 21 27  1  0  0  0  0
 22  6  1  0  0  0  0
 22  2  1  0  0  0  0
 23 10  2  0  0  0  0
 23 30  1  0  0  0  0
 24  2  1  0  0  0  0
 27  1  1  1  0  0  0
 27 25  1  0  0  0  0
 28 23  1  0  0  0  0
 29 35  2  0  0  0  0
 29 30  1  0  0  0  0
 30 31  2  0  0  0  0
 31 34  1  0  0  0  0
 33 34  2  0  0  0  0
 34 32  1  0  0  0  0
 35 33  1  0  0  0  0
 37 36  1  0  0  0  0
M  END
>  <MODEL>
1

>  <REMARK>
 VINA RESULT:      -0.4      0.000      0.000
  Name = 
  2 active torsions:
  status: ('A' for Active; 'I' for Inactive)
    1  A    between atoms: C_4  and  O_37
    2  A    between atoms: C_23  and  C_30
                            x       y       z     vdW  Elec       q    Type
                         _______ _______ _______ _____ _____    ______ ____

>  <TORSDO>
F 2

$$$$
=
 OpenBabel11122413353D

 37 43  0  0  1  0  0  0  0  0999 V2000
  160.4570  210.2850  150.9600 C   0  0  0  0  0  2  0  0  0  0  0  0
  158.2150  213.3760  153.9650 C   0  0  0  0  0  0  0  0  0  0  0  0
  158.6010  213.1280  149.8050 C   0  0  0  0  0  0  0  0  0  0  0  0
  161.2800  208.9990  151.0010 C   0  0  2  0  0  3  0  0  0  0  0  0
  162.0380  213.2350  148.4870 O   0  0  0  0  0  0  0  0  0  0  0  0
  157.1770  213.5640  151.7110 C   0  0  0  0  0  0  0  0  0  0  0  0
  159.9070  212.9560  149.6050 C   0  0  0  0  0  0  0  0  0  0  0  0
  162.0850  209.8040  148.6430 C   0  0  2  0  0  3  0  0  0  0  0  0
  158.3730  213.1720  151.1510 C   0  0  0  0  0  0  0  0  0  0  0  0
  160.6530  213.1080  148.3430 C   0  0  0  0  0  0  0  0  0  0  0  0
  156.0990  213.8190  150.8570 C   0  0  0  0  0  3  0  0  0  0  0  0
  161.9680  208.6610  149.6640 C   0  0  0  0  0  2  0  0  0  0  0  0
  159.5290  212.9910  151.9160 N   0  0  0  0  0  0  0  0  0  0  0  0
  158.0380  211.9330  154.4050 C   0  0  0  0  0  1  0  0  0  0  0  0
  157.6180  213.2080  147.5990 C   0  0  0  0  0  3  0  0  0  0  0  0
  156.2810  213.6930  149.4630 C   0  0  0  0  0  3  0  0  0  0  0  0
  159.5930  213.5280  153.2710 C   0  0  0  0  0  2  0  0  0  0  0  0
  162.8800  211.0300  149.1280 C   0  0  1  0  0  3  0  0  0  0  0  0
  162.9340  212.1870  148.1310 C   0  0  0  0  0  2  0  0  0  0  0  0
  157.5410  213.3570  148.9160 C   0  0  0  0  0  0  0  0  0  0  0  0
  160.6190  212.8630  150.9570 C   0  0  1  0  0  3  0  0  0  0  0  0
  157.1200  213.7440  153.1000 O   0  0  0  0  0  0  0  0  0  0  0  0
  160.1010  213.1020  147.1050 C   0  0  0  0  0  0  0  0  0  0  0  0
  158.1870  214.2580  155.1960 C   0  0  0  0  0  1  0  0  0  0  0  0
  162.7580  211.4590  150.5990 C   0  0  0  0  0  2  0  0  0  0  0  0
  160.8290  210.1470  148.1360 O   0  0  0  0  0  1  0  0  0  0  0  0
  161.3360  211.5230  151.1780 C   0  0  2  0  0  3  0  0  0  0  0  0
  158.7420  212.8830  146.8370 O   0  0  0  0  0  0  0  0  0  0  0  0
  161.9390  214.2770  145.9030 C   0  0  0  0  0  3  0  0  0  0  0  0
  160.9460  213.2860  145.9010 C   0  0  0  0  0  0  0  0  0  0  0  0
  160.8280  212.4400  144.7850 C   0  0  0  0  0  3  0  0  0  0  0  0
  161.5360  211.7930  142.6040 F   0  0  0  0  0  0  0  0  0  0  0  0
  162.6400  213.6090  143.6850 C   0  0  0  0  0  3  0  0  0  0  0  0
  161.6660  212.6060  143.6790 C   0  0  0  0  0  0  0  0  0  0  0  0
  162.7780  214.4410  144.7980 C   0  0  0  0  0  3  0  0  0  0  0  0
  161.1780  207.2850  152.3950 C   0  0  0  0  0  1  0  0  0  0  0  0
  160.4660  207.9320  151.3830 O   0  0  0  0  0  0  0  0  0  0  0  0
  1  4  1  0  0  0  0
  1 27  1  0  0  0  0
  2 14  1  0  0  0  0
  2 24  1  0  0  0  0
  3  9  1  0  0  0  0
  4 37  1  6  0  0  0
  6 22  1  0  0  0  0
  7  3  2  0  0  0  0
  8 26  1  1  0  0  0
  8 18  1  0  0  0  0
  8 12  1  0  0  0  0
  9  6  2  0  0  0  0
  9 13  1  0  0  0  0
 10  5  1  0  0  0  0
 10  7  1  0  0  0  0
 11  6  1  0  0  0  0
 12  4  1  0  0  0  0
 13 17  1  0  0  0  0
 15 20  2  0  0  0  0
 16 11  2  0  0  0  0
 17  2  1  0  0  0  0
 18 19  1  6  0  0  0
 18 25  1  0  0  0  0
 19  5  1  0  0  0  0
 20 16  1  0  0  0  0
 20  3  1  0  0  0  0
 21  7  1  6  0  0  0
 21 27  1  0  0  0  0
 21 13  1  0  0  0  0
 22  2  1  0  0  0  0
 23 10  2  0  0  0  0
 27 25  1  6  0  0  0
 28 23  1  0  0  0  0
 28 15  1  0  0  0  0
 30 29  1  0  0  0  0
 30 23  1  0  0  0  0
 31 30  2  0  0  0  0
 32 34  1  0  0  0  0
 33 35  1  0  0  0  0
 34 33  2  0  0  0  0
 34 31  1  0  0  0  0
 35 29  2  0  0  0  0
 37 36  1  0  0  0  0
M  END
>  <MODEL>
2

>  <REMARK>
 VINA RESULT:       0.2      4.052      7.936
  Name = 
  2 active torsions:
  status: ('A' for Active; 'I' for Inactive)
    1  A    between atoms: C_4  and  O_37
    2  A    between atoms: C_23  and  C_30
                            x       y       z     vdW  Elec       q    Type
                         _______ _______ _______ _____ _____    ______ ____

>  <TORSDO>
F 2

$$$$
=
 OpenBabel11122413353D

 37 43  0  0  1  0  0  0  0  0999 V2000
  160.7840  207.5860  151.1720 C   0  0  0  0  0  2  0  0  0  0  0  0
  160.8620  208.7370  155.8930 C   0  0  0  0  0  0  0  0  0  0  0  0
  160.0470  210.8790  152.3910 C   0  0  0  0  0  0  0  0  0  0  0  0
  160.9810  206.3810  150.2560 C   0  0  2  0  0  3  0  0  0  0  0  0
  162.7640  211.0220  149.9100 O   0  0  0  0  0  0  0  0  0  0  0  0
  159.4630  210.4070  154.6900 C   0  0  0  0  0  0  0  0  0  0  0  0
  161.0680  210.5910  151.5840 C   0  0  0  0  0  0  0  0  0  0  0  0
  161.4240  208.2190  148.4450 C   0  0  2  0  0  3  0  0  0  0  0  0
  160.2050  210.1780  153.5530 C   0  0  0  0  0  0  0  0  0  0  0  0
  161.4640  211.2900  150.3490 C   0  0  0  0  0  0  0  0  0  0  0  0
  158.4100  211.3250  154.6190 C   0  0  0  0  0  3  0  0  0  0  0  0
  161.1060  206.7500  148.7650 C   0  0  0  0  0  2  0  0  0  0  0  0
  161.3340  209.3540  153.5540 N   0  0  0  0  0  0  0  0  0  0  0  0
  160.2210  207.3810  155.6530 C   0  0  0  0  0  1  0  0  0  0  0  0
  158.6630  212.4240  151.1520 C   0  0  0  0  0  3  0  0  0  0  0  0
  158.1660  211.9990  153.4020 C   0  0  0  0  0  3  0  0  0  0  0  0
  161.9540  208.9770  154.8210 C   0  0  0  0  0  2  0  0  0  0  0  0
  162.7500  208.7410  149.0300 C   0  0  1  0  0  3  0  0  0  0  0  0
  163.0240  210.2190  148.7620 C   0  0  0  0  0  2  0  0  0  0  0  0
  158.9910  211.7920  152.2720 C   0  0  0  0  0  0  0  0  0  0  0  0
  161.9920  209.5860  152.2750 C   0  0  1  0  0  3  0  0  0  0  0  0
  159.8380  209.7540  155.8720 O   0  0  0  0  0  0  0  0  0  0  0  0
  160.6670  212.1180  149.6300 C   0  0  0  0  0  0  0  0  0  0  0  0
  161.5130  208.7220  157.2600 C   0  0  0  0  0  1  0  0  0  0  0  0
  163.1910  208.2490  150.4180 C   0  0  0  0  0  2  0  0  0  0  0  0
  160.3400  209.0420  148.7610 O   0  0  0  0  0  1  0  0  0  0  0  0
  162.1200  208.2550  151.5200 C   0  0  2  0  0  3  0  0  0  0  0  0
  159.3200  212.3800  149.9190 O   0  0  0  0  0  0  0  0  0  0  0  0
  162.1040  213.8340  148.5390 C   0  0  0  0  0  3  0  0  0  0  0  0
  161.1780  212.7880  148.4110 C   0  0  0  0  0  0  0  0  0  0  0  0
  160.8160  212.3510  147.1260 C   0  0  0  0  0  3  0  0  0  0  0  0
  160.9810  212.5490  144.7570 F   0  0  0  0  0  0  0  0  0  0  0  0
  162.2530  214.0250  146.1310 C   0  0  0  0  0  3  0  0  0  0  0  0
  161.3450  212.9710  145.9910 C   0  0  0  0  0  0  0  0  0  0  0  0
  162.6340  214.4530  147.4040 C   0  0  0  0  0  3  0  0  0  0  0  0
  160.5330  204.2690  150.7370 C   0  0  0  0  0  1  0  0  0  0  0  0
  159.9250  205.4850  150.4230 O   0  0  0  0  0  0  0  0  0  0  0  0
  1 27  1  0  0  0  0
  2 24  1  0  0  0  0
  3  9  1  0  0  0  0
  4 37  1  6  0  0  0
  4  1  1  0  0  0  0
  5 10  1  0  0  0  0
  6 22  1  0  0  0  0
  7  3  2  0  0  0  0
  8 26  1  1  0  0  0
  8 12  1  0  0  0  0
  8 18  1  0  0  0  0
  9 13  1  0  0  0  0
  9  6  2  0  0  0  0
 10  7  1  0  0  0  0
 11  6  1  0  0  0  0
 12  4  1  0  0  0  0
 13 17  1  0  0  0  0
 14  2  1  0  0  0  0
 15 20  2  0  0  0  0
 16 11  2  0  0  0  0
 17  2  1  0  0  0  0
 18 19  1  1  0  0  0
 18 25  1  0  0  0  0
 19  5  1  0  0  0  0
 20  3  1  0  0  0  0
 20 16  1  0  0  0  0
 21  7  1  6  0  0  0
 21 13  1  0  0  0  0
 22  2  1  0  0  0  0
 23 28  1  0  0  0  0
 23 10  2  0  0  0  0
 27 25  1  6  0  0  0
 27 21  1  0  0  0  0
 28 15  1  0  0  0  0
 30 29  1  0  0  0  0
 30 23  1  0  0  0  0
 31 30  2  0  0  0  0
 32 34  1  0  0  0  0
 33 35  1  0  0  0  0
 34 33  2  0  0  0  0
 34 31  1  0  0  0  0
 35 29  2  0  0  0  0
 37 36  1  0  0  0  0
M  END
>  <MODEL>
3

>  <REMARK>
 VINA RESULT:       1.1      3.057      6.928
  Name = 
  2 active torsions:
  status: ('A' for Active; 'I' for Inactive)
    1  A    between atoms: C_4  and  O_37
    2  A    between atoms: C_23  and  C_30
                            x       y       z     vdW  Elec       q    Type
                         _______ _______ _______ _____ _____    ______ ____

>  <TORSDO>
F 2

$$$$
