=
 OpenBabel11122414223D

 34 42  0  0  1  0  0  0  0  0999 V2000
  161.0040  207.9540  154.0820 C   0  0  0  0  0  0  0  0  0  0  0  0
  162.3950  206.2100  152.9460 C   0  0  0  0  0  2  0  0  0  0  0  0
  159.6460  213.2690  155.8700 C   0  0  2  0  0  0  0  0  0  0  0  0
  159.1760  209.3860  154.7230 C   0  0  0  0  0  0  0  0  0  0  0  0
  159.0540  211.7690  153.7900 C   0  0  1  0  0  3  0  0  0  0  0  0
  160.4680  211.9870  155.9610 C   0  0  2  0  0  3  0  0  0  0  0  0
  160.6630  213.0930  156.9780 C   0  0  0  0  0  2  0  0  0  0  0  0
  157.7880  211.6420  156.7180 C   0  0  0  0  0  2  0  0  0  0  0  0
  162.4250  208.4730  152.0350 N   0  0  2  0  0  0  0  0  0  0  0  0
  161.5200  208.4820  148.9100 C   0  0  0  0  0  2  0  0  0  0  0  0
  159.7270  211.1990  152.5420 C   0  0  0  0  0  2  0  0  0  0  0  0
  157.2430  210.9340  155.4940 C   0  0  0  0  0  2  0  0  0  0  0  0
  161.3280  209.4110  151.6860 C   0  0  1  0  0  3  0  0  0  0  0  0
  163.0950  206.1790  151.6170 C   0  0  0  0  0  2  0  0  0  0  0  0
  158.3210  210.5960  154.4650 C   0  0  2  0  0  3  0  0  0  0  0  0
  158.1940  213.0650  156.3510 C   0  0  0  0  0  2  0  0  0  0  0  0
  161.6400  207.2990  149.8880 C   0  0  1  0  0  3  0  0  0  0  0  0
  160.2980  209.1450  153.9080 C   0  0  0  0  0  0  0  0  0  0  0  0
  160.1140  212.5640  154.5990 C   0  0  2  0  0  3  0  0  0  0  0  0
  160.8030  210.1570  152.9130 C   0  0  2  0  0  3  0  0  0  0  0  0
  159.5120  207.3130  155.8090 C   0  0  0  0  0  3  0  0  0  0  0  0
  162.3130  209.7250  149.3280 C   0  0  0  0  0  2  0  0  0  0  0  0
  158.7980  208.4560  155.6390 N   0  0  0  0  0  0  0  0  0  0  0  0
  161.7610  210.3960  150.5890 C   0  0  0  0  0  2  0  0  0  0  0  0
  162.7400  207.4970  150.9650 C   0  0  1  0  0  3  0  0  0  0  0  0
  160.6060  207.0730  155.0420 N   0  0  0  0  0  0  0  0  0  0  0  0
  162.2550  207.6830  153.2810 C   0  0  1  0  0  3  0  0  0  0  0  0
  160.3940  207.0360  150.4700 O   0  0  0  0  0  0  0  0  0  0  0  0
  159.7700  206.1140  149.6270 C   0  0  0  0  0  2  0  0  0  0  0  0
  160.9780  202.8460  150.9340 C   0  0  0  0  0  3  0  0  0  0  0  0
  160.8700  204.0460  148.9530 N   0  0  0  0  0  0  0  0  0  0  0  0
  160.3330  204.7600  149.8780 C   0  0  0  0  0  0  0  0  0  0  0  0
  161.2990  202.8430  149.5150 N   0  0  0  0  0  2  0  0  0  0  0  0
  160.3270  204.1320  151.1520 N   0  0  0  0  0  0  0  0  0  0  0  0
  1 26  1  0  0  0  0
  2 27  1  0  0  0  0
  3  6  1  0  0  0  0
  3 16  1  1  0  0  0
  3  7  1  0  0  0  0
  4 23  2  0  0  0  0
  5 11  1  6  0  0  0
  5 15  1  0  0  0  0
  5 19  1  0  0  0  0
  6  7  1  1  0  0  0
  9 27  1  0  0  0  0
 10 22  1  0  0  0  0
 10 17  1  0  0  0  0
 11 20  1  0  0  0  0
 12  8  1  0  0  0  0
 13  9  1  0  0  0  0
 13 20  1  0  0  0  0
 14  2  1  0  0  0  0
 15  4  1  0  0  0  0
 15 12  1  0  0  0  0
 16  8  1  0  0  0  0
 17 28  1  0  0  0  0
 17 25  1  0  0  0  0
 18  1  2  0  0  0  0
 18  4  1  0  0  0  0
 19  3  1  0  0  0  0
 19  6  1  0  0  0  0
 20 18  1  0  0  0  0
 22 24  1  0  0  0  0
 23 21  1  0  0  0  0
 24 13  1  0  0  0  0
 25 14  1  0  0  0  0
 25  9  1  0  0  0  0
 26 21  2  0  0  0  0
 27  1  1  0  0  0  0
 29 32  1  0  0  0  0
 29 28  1  0  0  0  0
 30 34  2  0  0  0  0
 31 33  1  0  0  0  0
 31 32  2  0  0  0  0
 32 34  1  0  0  0  0
 33 30  1  0  0  0  0
M  END
>  <MODEL>
1

>  <REMARK>
 VINA RESULT:      -3.1      0.000      0.000
  Name = 
  3 active torsions:
  status: ('A' for Active; 'I' for Inactive)
    1  A    between atoms: C_17  and  O_28
    2  A    between atoms: O_28  and  C_29
    3  A    between atoms: C_29  and  C_32
                            x       y       z     vdW  Elec       q    Type
                         _______ _______ _______ _____ _____    ______ ____

>  <TORSDO>
F 3

$$$$
=
 OpenBabel11122414223D

 34 42  0  0  1  0  0  0  0  0999 V2000
  160.5710  210.1300  152.4140 C   0  0  0  0  0  0  0  0  0  0  0  0
  160.8190  208.5640  154.3510 C   0  0  0  0  0  2  0  0  0  0  0  0
  157.8880  213.9910  149.0700 C   0  0  2  0  0  0  0  0  0  0  0  0
  160.9200  211.9180  150.8380 C   0  0  0  0  0  0  0  0  0  0  0  0
  159.5850  214.0910  151.0800 C   0  0  1  0  0  3  0  0  0  0  0  0
  158.0960  212.5700  149.5860 C   0  0  2  0  0  3  0  0  0  0  0  0
  157.0950  212.8430  148.4820 C   0  0  0  0  0  2  0  0  0  0  0  0
  160.2230  213.5000  148.0080 C   0  0  0  0  0  2  0  0  0  0  0  0
  159.4450  210.5560  154.6570 N   0  0  2  0  0  0  0  0  0  0  0  0
  160.5330  212.3500  157.1440 C   0  0  0  0  0  2  0  0  0  0  0  0
  159.6190  213.8180  152.5830 C   0  0  0  0  0  2  0  0  0  0  0  0
  161.2540  213.7950  149.0790 C   0  0  0  0  0  2  0  0  0  0  0  0
  159.7010  211.9880  154.3540 C   0  0  1  0  0  3  0  0  0  0  0  0
  160.4930  208.6980  155.8120 C   0  0  0  0  0  2  0  0  0  0  0  0
  160.8060  213.3740  150.4780 C   0  0  2  0  0  3  0  0  0  0  0  0
  159.0420  214.4530  148.1560 C   0  0  0  0  0  2  0  0  0  0  0  0
  161.0820  211.0270  156.5810 C   0  0  1  0  0  3  0  0  0  0  0  0
  160.3470  211.4550  152.0370 C   0  0  0  0  0  0  0  0  0  0  0  0
  158.1660  213.7440  150.5510 C   0  0  2  0  0  3  0  0  0  0  0  0
  159.4440  212.3140  152.8820 C   0  0  2  0  0  3  0  0  0  0  0  0
  161.8730  209.7870  150.4630 C   0  0  0  0  0  3  0  0  0  0  0  0
  159.0750  212.6360  156.7660 C   0  0  0  0  0  2  0  0  0  0  0  0
  161.6860  211.0790  150.0910 N   0  0  0  0  0  0  0  0  0  0  0  0
  158.8820  212.9090  155.2720 C   0  0  0  0  0  2  0  0  0  0  0  0
  159.9880  210.1160  155.9640 C   0  0  1  0  0  3  0  0  0  0  0  0
  161.3140  209.3210  151.6090 N   0  0  0  0  0  0  0  0  0  0  0  0
  159.9200  209.5680  153.6550 C   0  0  1  0  0  3  0  0  0  0  0  0
  162.1060  211.2900  155.6640 O   0  0  0  0  0  0  0  0  0  0  0  0
  163.1960  210.5250  156.0850 C   0  0  0  0  0  2  0  0  0  0  0  0
  166.3190  212.5050  155.6620 C   0  0  0  0  0  3  0  0  0  0  0  0
  164.7070  212.0340  157.2610 N   0  0  0  0  0  0  0  0  0  0  0  0
  164.3980  211.3970  156.1880 C   0  0  0  0  0  0  0  0  0  0  0  0
  165.8830  212.7480  157.0290 N   0  0  0  0  0  0  0  0  0  0  0  0
  165.3090  211.6060  155.1180 N   0  0  0  0  0  2  0  0  0  0  0  0
  1 27  1  0  0  0  0
  2 14  1  0  0  0  0
  3 16  1  6  0  0  0
  3  6  1  0  0  0  0
  3 19  1  0  0  0  0
  4 18  2  0  0  0  0
  5 11  1  1  0  0  0
  6  7  1  1  0  0  0
  6 19  1  0  0  0  0
  7  3  1  0  0  0  0
  8 16  1  0  0  0  0
  8 12  1  0  0  0  0
  9 25  1  0  0  0  0
 11 20  1  0  0  0  0
 12 15  1  0  0  0  0
 13  9  1  0  0  0  0
 13 24  1  0  0  0  0
 14 25  1  0  0  0  0
 15  4  1  0  0  0  0
 15  5  1  0  0  0  0
 17 10  1  0  0  0  0
 18  1  1  0  0  0  0
 18 20  1  0  0  0  0
 19  5  1  0  0  0  0
 20 13  1  0  0  0  0
 21 26  1  0  0  0  0
 22 10  1  0  0  0  0
 23 21  2  0  0  0  0
 23  4  1  0  0  0  0
 24 22  1  0  0  0  0
 25 17  1  0  0  0  0
 26  1  2  0  0  0  0
 27  2  1  0  0  0  0
 27  9  1  0  0  0  0
 28 29  1  0  0  0  0
 28 17  1  0  0  0  0
 29 32  1  0  0  0  0
 30 33  2  0  0  0  0
 32 31  2  0  0  0  0
 33 31  1  0  0  0  0
 34 30  1  0  0  0  0
 34 32  1  0  0  0  0
M  END
>  <MODEL>
2

>  <REMARK>
 VINA RESULT:      -2.2      3.581      7.253
  Name = 
  3 active torsions:
  status: ('A' for Active; 'I' for Inactive)
    1  A    between atoms: C_17  and  O_28
    2  A    between atoms: O_28  and  C_29
    3  A    between atoms: C_29  and  C_32
                            x       y       z     vdW  Elec       q    Type
                         _______ _______ _______ _____ _____    ______ ____

>  <TORSDO>
F 3

$$$$
=
 OpenBabel11122414223D

 34 42  0  0  1  0  0  0  0  0999 V2000
  159.3470  210.8610  152.8430 C   0  0  0  0  0  0  0  0  0  0  0  0
  158.9890  209.6760  155.0180 C   0  0  0  0  0  2  0  0  0  0  0  0
  157.8120  213.8900  148.1780 C   0  0  2  0  0  0  0  0  0  0  0  0
  160.1550  212.3680  151.1460 C   0  0  0  0  0  0  0  0  0  0  0  0
  158.7890  214.4530  150.5570 C   0  0  1  0  0  3  0  0  0  0  0  0
  157.8620  212.5980  148.9880 C   0  0  2  0  0  3  0  0  0  0  0  0
  157.2560  212.6050  147.5990 C   0  0  0  0  0  2  0  0  0  0  0  0
  160.3670  213.3830  147.9960 C   0  0  0  0  0  2  0  0  0  0  0  0
  157.5680  211.5920  154.5100 N   0  0  2  0  0  0  0  0  0  0  0  0
  157.7980  213.8610  156.8310 C   0  0  0  0  0  2  0  0  0  0  0  0
  158.3510  214.4490  152.0200 C   0  0  0  0  0  2  0  0  0  0  0  0
  161.0060  213.9290  149.2580 C   0  0  0  0  0  2  0  0  0  0  0  0
  157.8910  212.9630  154.0390 C   0  0  1  0  0  3  0  0  0  0  0  0
  158.2180  210.0390  156.2560 C   0  0  0  0  0  2  0  0  0  0  0  0
  160.1450  213.7280  150.5030 C   0  0  2  0  0  3  0  0  0  0  0  0
  159.1900  214.2640  147.5930 C   0  0  0  0  0  2  0  0  0  0  0  0
  158.5110  212.5010  156.7210 C   0  0  1  0  0  3  0  0  0  0  0  0
  159.2380  212.0820  152.1750 C   0  0  0  0  0  0  0  0  0  0  0  0
  157.6130  213.9230  149.6910 C   0  0  2  0  0  3  0  0  0  0  0  0
  158.1060  213.0110  152.5260 C   0  0  2  0  0  3  0  0  0  0  0  0
  161.2010  210.2750  151.4860 C   0  0  0  0  0  3  0  0  0  0  0  0
  156.5300  213.9760  155.9770 C   0  0  0  0  0  2  0  0  0  0  0  0
  161.1260  211.4670  150.8410 N   0  0  0  0  0  0  0  0  0  0  0  0
  156.8150  213.9710  154.4720 C   0  0  0  0  0  2  0  0  0  0  0  0
  157.6760  211.4230  155.9780 C   0  0  1  0  0  3  0  0  0  0  0  0
  160.3140  209.9770  152.4710 N   0  0  0  0  0  0  0  0  0  0  0  0
  158.3440  210.4800  153.9050 C   0  0  1  0  0  3  0  0  0  0  0  0
  159.7690  212.6700  156.1310 O   0  0  0  0  0  0  0  0  0  0  0  0
  160.6690  212.8000  157.1910 C   0  0  0  0  0  2  0  0  0  0  0  0
  162.4220  209.5170  157.2290 C   0  0  0  0  0  3  0  0  0  0  0  0
  162.8830  211.7860  157.0990 N   0  0  0  0  0  0  0  0  0  0  0  0
  161.6090  211.6460  157.1820 C   0  0  0  0  0  0  0  0  0  0  0  0
  163.4700  210.5200  157.1210 N   0  0  0  0  0  2  0  0  0  0  0  0
  161.1870  210.2910  157.2610 N   0  0  0  0  0  0  0  0  0  0  0  0
  1 27  1  0  0  0  0
  2 14  1  0  0  0  0
  3 16  1  6  0  0  0
  3  6  1  0  0  0  0
  3 19  1  0  0  0  0
  4 18  1  0  0  0  0
  5 11  1  1  0  0  0
  6  7  1  6  0  0  0
  6 19  1  0  0  0  0
  7  3  1  0  0  0  0
  8 12  1  0  0  0  0
  9 25  1  0  0  0  0
 11 20  1  0  0  0  0
 12 15  1  0  0  0  0
 13 24  1  0  0  0  0
 13  9  1  0  0  0  0
 15  5  1  0  0  0  0
 15  4  1  0  0  0  0
 16  8  1  0  0  0  0
 17 10  1  0  0  0  0
 18 20  1  0  0  0  0
 18  1  2  0  0  0  0
 19  5  1  0  0  0  0
 20 13  1  0  0  0  0
 21 26  2  0  0  0  0
 22 10  1  0  0  0  0
 23  4  2  0  0  0  0
 23 21  1  0  0  0  0
 24 22  1  0  0  0  0
 25 14  1  0  0  0  0
 25 17  1  0  0  0  0
 26  1  1  0  0  0  0
 27  9  1  0  0  0  0
 27  2  1  0  0  0  0
 28 17  1  0  0  0  0
 28 29  1  0  0  0  0
 30 34  2  0  0  0  0
 31 33  1  0  0  0  0
 31 32  2  0  0  0  0
 32 29  1  0  0  0  0
 32 34  1  0  0  0  0
 33 30  1  0  0  0  0
M  END
>  <MODEL>
3

>  <REMARK>
 VINA RESULT:      -2.2      3.760      7.575
  Name = 
  3 active torsions:
  status: ('A' for Active; 'I' for Inactive)
    1  A    between atoms: C_17  and  O_28
    2  A    between atoms: O_28  and  C_29
    3  A    between atoms: C_29  and  C_32
                            x       y       z     vdW  Elec       q    Type
                         _______ _______ _______ _____ _____    ______ ____

>  <TORSDO>
F 3

$$$$
=
 OpenBabel11122414223D

 34 42  0  0  1  0  0  0  0  0999 V2000
  162.1740  209.0030  150.1160 C   0  0  0  0  0  0  0  0  0  0  0  0
  162.6410  210.4650  152.0940 C   0  0  0  0  0  2  0  0  0  0  0  0
  162.3090  204.1460  147.0060 C   0  0  2  0  0  0  0  0  0  0  0  0
  161.0550  207.7760  148.3720 C   0  0  0  0  0  0  0  0  0  0  0  0
  160.6140  205.2700  148.6770 C   0  0  1  0  0  3  0  0  0  0  0  0
  162.9700  205.3930  147.5840 C   0  0  2  0  0  3  0  0  0  0  0  0
  163.7430  204.4800  146.6530 C   0  0  0  0  0  2  0  0  0  0  0  0
  161.0750  205.9640  145.5950 C   0  0  0  0  0  2  0  0  0  0  0  0
  162.3340  208.0770  152.4810 N   0  0  2  0  0  0  0  0  0  0  0  0
  159.9210  207.5420  154.5980 C   0  0  0  0  0  2  0  0  0  0  0  0
  160.4900  205.5830  150.1670 C   0  0  0  0  0  2  0  0  0  0  0  0
  159.9220  206.4610  146.4440 C   0  0  0  0  0  2  0  0  0  0  0  0
  161.2810  207.1310  152.0300 C   0  0  1  0  0  3  0  0  0  0  0  0
  162.5330  210.2330  153.5740 C   0  0  0  0  0  2  0  0  0  0  0  0
  160.2720  206.5700  147.9270 C   0  0  2  0  0  3  0  0  0  0  0  0
  161.3180  204.4840  145.8720 C   0  0  0  0  0  2  0  0  0  0  0  0
  160.4620  208.8750  154.0500 C   0  0  1  0  0  3  0  0  0  0  0  0
  161.5610  207.8260  149.6840 C   0  0  0  0  0  0  0  0  0  0  0  0
  161.9910  204.5950  148.4300 C   0  0  2  0  0  3  0  0  0  0  0  0
  161.5300  206.6360  150.6060 C   0  0  2  0  0  3  0  0  0  0  0  0
  161.7770  209.9960  148.0000 C   0  0  0  0  0  3  0  0  0  0  0  0
  160.8940  206.3660  154.4580 C   0  0  0  0  0  2  0  0  0  0  0  0
  161.1570  208.8680  147.5690 N   0  0  0  0  0  0  0  0  0  0  0  0
  161.1340  205.9510  153.0040 C   0  0  0  0  0  2  0  0  0  0  0  0
  161.9740  208.8340  153.7030 C   0  0  1  0  0  3  0  0  0  0  0  0
  162.2850  210.0550  149.2580 N   0  0  0  0  0  0  0  0  0  0  0  0
  162.7950  209.0820  151.4900 C   0  0  1  0  0  3  0  0  0  0  0  0
  159.6960  209.2820  152.9510 O   0  0  0  0  0  0  0  0  0  0  0  0
  158.7810  210.2110  153.4520 C   0  0  0  0  0  2  0  0  0  0  0  0
  158.9940  213.7790  152.4150 C   0  0  0  0  0  3  0  0  0  0  0  0
  159.7730  211.6880  151.7850 N   0  0  0  0  0  0  0  0  0  0  0  0
  159.0370  211.5380  152.8290 C   0  0  0  0  0  0  0  0  0  0  0  0
  159.8040  213.0440  151.4570 N   0  0  0  0  0  2  0  0  0  0  0  0
  158.4980  212.7550  153.3260 N   0  0  0  0  0  0  0  0  0  0  0  0
  1 27  1  0  0  0  0
  2 14  1  0  0  0  0
  3 16  1  6  0  0  0
  3  6  1  0  0  0  0
  3 19  1  0  0  0  0
  4 18  2  0  0  0  0
  5 11  1  1  0  0  0
  6  7  1  1  0  0  0
  6 19  1  0  0  0  0
  7  3  1  0  0  0  0
  8 16  1  0  0  0  0
  8 12  1  0  0  0  0
  9 25  1  0  0  0  0
 11 20  1  0  0  0  0
 12 15  1  0  0  0  0
 13  9  1  0  0  0  0
 13 24  1  0  0  0  0
 14 25  1  0  0  0  0
 15  4  1  0  0  0  0
 15  5  1  0  0  0  0
 17 10  1  0  0  0  0
 18  1  1  0  0  0  0
 18 20  1  0  0  0  0
 19  5  1  0  0  0  0
 20 13  1  0  0  0  0
 21 26  1  0  0  0  0
 22 10  1  0  0  0  0
 23 21  2  0  0  0  0
 23  4  1  0  0  0  0
 24 22  1  0  0  0  0
 25 17  1  0  0  0  0
 26  1  2  0  0  0  0
 27  2  1  0  0  0  0
 27  9  1  0  0  0  0
 28 29  1  0  0  0  0
 28 17  1  0  0  0  0
 30 34  2  0  0  0  0
 31 32  2  0  0  0  0
 32 34  1  0  0  0  0
 32 29  1  0  0  0  0
 33 31  1  0  0  0  0
 33 30  1  0  0  0  0
M  END
>  <MODEL>
4

>  <REMARK>
 VINA RESULT:      -2.1      2.742      8.021
  Name = 
  3 active torsions:
  status: ('A' for Active; 'I' for Inactive)
    1  A    between atoms: C_17  and  O_28
    2  A    between atoms: O_28  and  C_29
    3  A    between atoms: C_29  and  C_32
                            x       y       z     vdW  Elec       q    Type
                         _______ _______ _______ _____ _____    ______ ____

>  <TORSDO>
F 3

$$$$
