=
 OpenBabel11122413313D

 31 35  0  0  1  0  0  0  0  0999 V2000
  161.5100  206.3480  152.1370 C   0  0  0  0  0  0  0  0  0  0  0  0
  160.0230  209.7430  153.0080 C   0  0  2  0  0  3  0  0  0  0  0  0
  160.6040  210.1940  154.3410 C   0  0  0  0  0  0  0  0  0  0  0  0
  161.7640  209.7000  156.4230 C   0  0  0  0  0  0  0  0  0  0  0  0
  160.8520  208.6750  152.3360 C   0  0  0  0  0  0  0  0  0  0  0  0
  162.4180  206.6870  151.1310 C   0  0  0  0  0  3  0  0  0  0  0  0
  161.2640  209.2860  155.1850 C   0  0  0  0  0  3  0  0  0  0  0  0
  161.1070  211.4490  151.4740 C   0  0  2  0  0  3  0  0  0  0  0  0
  161.3880  205.0590  152.5320 F   0  0  0  0  0  0  0  0  0  0  0  0
  159.7090  212.4590  153.9640 N   0  0  0  0  0  2  0  0  0  0  0  0
  162.4420  208.7730  157.2600 N   0  0  0  0  0  1  0  0  0  0  0  0
  161.8520  210.3600  150.8460 N   0  0  0  0  0  2  0  0  0  0  0  0
  159.7790  210.9280  152.0440 C   0  0  2  0  0  3  0  0  0  0  0  0
  160.7270  207.3390  152.7370 C   0  0  0  0  0  3  0  0  0  0  0  0
  161.5960  211.0230  156.8370 C   0  0  0  0  0  3  0  0  0  0  0  0
  161.7670  209.0130  151.3200 C   0  0  0  0  0  0  0  0  0  0  0  0
  162.5430  208.0170  150.7190 C   0  0  0  0  0  3  0  0  0  0  0  0
  159.0030  212.0350  152.7600 C   0  0  0  0  0  2  0  0  0  0  0  0
  160.4070  211.5190  154.7860 C   0  0  0  0  0  0  0  0  0  0  0  0
  160.9180  211.9300  156.0190 C   0  0  0  0  0  3  0  0  0  0  0  0
  162.1990  211.5330  148.8420 O   0  0  0  0  0  0  0  0  0  0  0  0
  161.4330  212.4750  149.1870 C   0  0  0  0  0  0  0  0  0  0  0  0
  160.8610  212.4990  150.4950 N   0  0  0  0  0  2  0  0  0  0  0  0
  158.5690  212.8810  147.1120 C   0  0  0  0  0  0  0  0  0  0  0  0
  159.8230  214.3080  148.6280 C   0  0  0  0  0  2  0  0  0  0  0  0
  162.0470  212.9570  146.1200 O   0  0  0  0  0  0  0  0  0  0  0  0
  157.2960  212.2240  146.7170 C   0  0  0  0  0  1  0  0  0  0  0  0
  158.6240  213.5710  148.2130 N   0  0  0  0  0  0  0  0  0  0  0  0
  161.0140  213.0810  146.8280 C   0  0  0  0  0  0  0  0  0  0  0  0
  161.1160  213.5850  148.2340 C   0  0  2  0  0  3  0  0  0  0  0  0
  159.7400  212.6950  146.3130 N   0  0  0  0  0  2  0  0  0  0  0  0
  1  9  1  0  0  0  0
  1 14  1  0  0  0  0
  2  5  1  6  0  0  0
  2  3  1  0  0  0  0
  3 19  2  0  0  0  0
  3  7  1  0  0  0  0
  4 15  1  0  0  0  0
  4 11  1  0  0  0  0
  5 14  2  0  0  0  0
  6  1  2  0  0  0  0
  7  4  2  0  0  0  0
  8 23  1  6  0  0  0
  8 13  1  0  0  0  0
 10 19  1  0  0  0  0
 12 16  1  0  0  0  0
 12  8  1  0  0  0  0
 13 18  1  1  0  0  0
 13  2  1  0  0  0  0
 16  5  1  0  0  0  0
 17  6  1  0  0  0  0
 17 16  2  0  0  0  0
 18 10  1  0  0  0  0
 19 20  1  0  0  0  0
 20 15  2  0  0  0  0
 21 22  2  0  0  0  0
 22 23  1  0  0  0  0
 24 28  2  0  0  0  0
 26 29  2  0  0  0  0
 27 24  1  0  0  0  0
 28 25  1  0  0  0  0
 29 30  1  0  0  0  0
 30 25  1  0  0  0  0
 30 22  1  1  0  0  0
 31 29  1  0  0  0  0
 31 24  1  0  0  0  0
M  END
>  <MODEL>
1

>  <REMARK>
 VINA RESULT:      -7.2      0.000      0.000
  Name = 
  2 active torsions:
  status: ('A' for Active; 'I' for Inactive)
    1  A    between atoms: C_5  and  C_30
    2  A    between atoms: C_10  and  N_16
                            x       y       z     vdW  Elec       q    Type
                         _______ _______ _______ _____ _____    ______ ____

>  <TORSDO>
F 2

$$$$
=
 OpenBabel11122413313D

 31 35  0  0  1  0  0  0  0  0999 V2000
  160.8970  204.6780  144.9600 C   0  0  0  0  0  0  0  0  0  0  0  0
  160.4500  205.2570  148.6970 C   0  0  2  0  0  3  0  0  0  0  0  0
  160.8450  203.9830  149.4300 C   0  0  0  0  0  0  0  0  0  0  0  0
  161.3040  201.5930  149.4300 C   0  0  0  0  0  0  0  0  0  0  0  0
  161.0090  205.3270  147.2950 C   0  0  0  0  0  0  0  0  0  0  0  0
  162.0600  205.4080  144.6990 C   0  0  0  0  0  3  0  0  0  0  0  0
  160.9750  202.7650  148.7440 C   0  0  0  0  0  3  0  0  0  0  0  0
  162.3340  206.7810  149.4470 C   0  0  2  0  0  3  0  0  0  0  0  0
  160.2790  204.0090  143.9590 F   0  0  0  0  0  0  0  0  0  0  0  0
  160.8410  205.2130  151.5650 N   0  0  0  0  0  2  0  0  0  0  0  0
  161.4450  200.3700  148.7190 N   0  0  0  0  0  1  0  0  0  0  0  0
  162.7990  206.8300  148.0630 N   0  0  0  0  0  2  0  0  0  0  0  0
  160.8190  206.5300  149.4920 C   0  0  2  0  0  3  0  0  0  0  0  0
  160.3710  204.6390  146.2550 C   0  0  0  0  0  3  0  0  0  0  0  0
  161.4910  201.6230  150.8130 C   0  0  0  0  0  3  0  0  0  0  0  0
  162.1800  206.0610  147.0280 C   0  0  0  0  0  0  0  0  0  0  0  0
  162.6980  206.1030  145.7300 C   0  0  0  0  0  3  0  0  0  0  0  0
  160.3120  206.4150  150.9310 C   0  0  0  0  0  2  0  0  0  0  0  0
  161.0010  203.9950  150.8330 C   0  0  0  0  0  0  0  0  0  0  0  0
  161.3390  202.8230  151.5130 C   0  0  0  0  0  3  0  0  0  0  0  0
  161.4790  209.3670  148.6060 O   0  0  0  0  0  0  0  0  0  0  0  0
  162.1900  209.2960  149.6460 C   0  0  0  0  0  0  0  0  0  0  0  0
  162.6600  208.0330  150.1160 N   0  0  0  0  0  2  0  0  0  0  0  0
  160.3540  210.9830  152.1870 C   0  0  0  0  0  0  0  0  0  0  0  0
  162.6580  210.2640  151.9070 C   0  0  0  0  0  2  0  0  0  0  0  0
  161.7080  212.3830  149.1370 O   0  0  0  0  0  0  0  0  0  0  0  0
  159.0740  210.9440  152.9400 C   0  0  0  0  0  1  0  0  0  0  0  0
  161.3420  210.2240  152.5550 N   0  0  0  0  0  0  0  0  0  0  0  0
  161.5780  211.6380  150.1440 C   0  0  0  0  0  0  0  0  0  0  0  0
  162.5570  210.5360  150.4010 C   0  0  2  0  0  3  0  0  0  0  0  0
  160.4660  211.8080  151.0230 N   0  0  0  0  0  2  0  0  0  0  0  0
  1 14  1  0  0  0  0
  2  5  1  6  0  0  0
  2  3  1  0  0  0  0
  2 13  1  0  0  0  0
  3 19  1  0  0  0  0
  4 15  2  0  0  0  0
  6  1  2  0  0  0  0
  6 17  1  0  0  0  0
  7  4  1  0  0  0  0
  7  3  2  0  0  0  0
  8 13  1  0  0  0  0
  8 23  1  6  0  0  0
  9  1  1  0  0  0  0
 11  4  1  0  0  0  0
 12  8  1  0  0  0  0
 13 18  1  1  0  0  0
 14  5  2  0  0  0  0
 15 20  1  0  0  0  0
 16  5  1  0  0  0  0
 16 12  1  0  0  0  0
 17 16  2  0  0  0  0
 18 10  1  0  0  0  0
 19 20  2  0  0  0  0
 19 10  1  0  0  0  0
 21 22  2  0  0  0  0
 22 23  1  0  0  0  0
 24 28  2  0  0  0  0
 24 27  1  0  0  0  0
 25 28  1  0  0  0  0
 26 29  2  0  0  0  0
 29 30  1  0  0  0  0
 29 31  1  0  0  0  0
 30 22  1  6  0  0  0
 30 25  1  0  0  0  0
 31 24  1  0  0  0  0
M  END
>  <MODEL>
2

>  <REMARK>
 VINA RESULT:      -7.0      4.312      6.918
  Name = 
  2 active torsions:
  status: ('A' for Active; 'I' for Inactive)
    1  A    between atoms: C_5  and  C_30
    2  A    between atoms: C_10  and  N_16
                            x       y       z     vdW  Elec       q    Type
                         _______ _______ _______ _____ _____    ______ ____

>  <TORSDO>
F 2

$$$$
=
 OpenBabel11122413313D

 31 35  0  0  1  0  0  0  0  0999 V2000
  160.8980  204.3770  145.3450 C   0  0  0  0  0  0  0  0  0  0  0  0
  160.4520  205.8210  148.8390 C   0  0  2  0  0  3  0  0  0  0  0  0
  160.8270  204.7510  149.8530 C   0  0  0  0  0  0  0  0  0  0  0  0
  161.2530  202.4220  150.4160 C   0  0  0  0  0  0  0  0  0  0  0  0
  161.0150  205.5530  147.4630 C   0  0  0  0  0  0  0  0  0  0  0  0
  162.0720  205.0090  144.9260 C   0  0  0  0  0  3  0  0  0  0  0  0
  160.9420  203.4040  149.4720 C   0  0  0  0  0  3  0  0  0  0  0  0
  162.3550  207.4540  149.2200 C   0  0  2  0  0  3  0  0  0  0  0  0
  160.2730  203.4990  144.5250 F   0  0  0  0  0  0  0  0  0  0  0  0
  160.8370  206.4470  151.6400 N   0  0  0  0  0  2  0  0  0  0  0  0
  161.3790  201.0640  150.0120 N   0  0  0  0  0  1  0  0  0  0  0  0
  162.8240  207.1720  147.8660 N   0  0  0  0  0  2  0  0  0  0  0  0
  160.8370  207.2410  149.3150 C   0  0  2  0  0  3  0  0  0  0  0  0
  160.3700  204.6490  146.6100 C   0  0  0  0  0  3  0  0  0  0  0  0
  161.4380  202.7730  151.7540 C   0  0  0  0  0  3  0  0  0  0  0  0
  162.1960  206.1890  147.0370 C   0  0  0  0  0  0  0  0  0  0  0  0
  162.7180  205.9190  145.7690 C   0  0  0  0  0  3  0  0  0  0  0  0
  160.3250  207.4740  150.7380 C   0  0  0  0  0  2  0  0  0  0  0  0
  160.9800  205.0890  151.2140 C   0  0  0  0  0  0  0  0  0  0  0  0
  161.3020  204.1050  152.1520 C   0  0  0  0  0  3  0  0  0  0  0  0
  161.3990  209.7900  147.8950 O   0  0  0  0  0  0  0  0  0  0  0  0
  162.1750  209.9520  148.8770 C   0  0  0  0  0  0  0  0  0  0  0  0
  162.6980  208.8240  149.5790 N   0  0  0  0  0  2  0  0  0  0  0  0
  160.5240  213.0430  148.2490 C   0  0  0  0  0  0  0  0  0  0  0  0
  161.4800  211.9590  150.2030 C   0  0  0  0  0  2  0  0  0  0  0  0
  163.9890  212.2180  147.6130 O   0  0  0  0  0  0  0  0  0  0  0  0
  159.3570  213.6350  147.5450 C   0  0  0  0  0  1  0  0  0  0  0  0
  160.3630  212.4950  149.4170 N   0  0  0  0  0  0  0  0  0  0  0  0
  162.8480  212.2150  148.1470 C   0  0  0  0  0  0  0  0  0  0  0  0
  162.5630  211.3280  149.3190 C   0  0  2  0  0  3  0  0  0  0  0  0
  161.8020  213.0220  147.6080 N   0  0  0  0  0  2  0  0  0  0  0  0
  1 14  1  0  0  0  0
  2  5  1  6  0  0  0
  2 13  1  0  0  0  0
  2  3  1  0  0  0  0
  3 19  1  0  0  0  0
  4 15  2  0  0  0  0
  6  1  2  0  0  0  0
  6 17  1  0  0  0  0
  7  3  2  0  0  0  0
  7  4  1  0  0  0  0
  8 13  1  0  0  0  0
  8 23  1  6  0  0  0
  9  1  1  0  0  0  0
 11  4  1  0  0  0  0
 12  8  1  0  0  0  0
 13 18  1  1  0  0  0
 14  5  2  0  0  0  0
 15 20  1  0  0  0  0
 16  5  1  0  0  0  0
 16 12  1  0  0  0  0
 17 16  2  0  0  0  0
 18 10  1  0  0  0  0
 19 10  1  0  0  0  0
 19 20  2  0  0  0  0
 21 22  2  0  0  0  0
 22 23  1  0  0  0  0
 24 28  2  0  0  0  0
 26 29  2  0  0  0  0
 27 24  1  0  0  0  0
 28 25  1  0  0  0  0
 29 30  1  0  0  0  0
 30 22  1  6  0  0  0
 30 25  1  0  0  0  0
 31 29  1  0  0  0  0
 31 24  1  0  0  0  0
M  END
>  <MODEL>
3

>  <REMARK>
 VINA RESULT:      -7.0      3.972      5.928
  Name = 
  2 active torsions:
  status: ('A' for Active; 'I' for Inactive)
    1  A    between atoms: C_5  and  C_30
    2  A    between atoms: C_10  and  N_16
                            x       y       z     vdW  Elec       q    Type
                         _______ _______ _______ _____ _____    ______ ____

>  <TORSDO>
F 2

$$$$
=
 OpenBabel11122413313D

 31 35  0  0  1  0  0  0  0  0999 V2000
  160.8370  207.2560  156.3460 C   0  0  0  0  0  0  0  0  0  0  0  0
  161.9040  208.5090  152.9130 C   0  0  2  0  0  3  0  0  0  0  0  0
  161.5070  207.4670  151.8770 C   0  0  0  0  0  0  0  0  0  0  0  0
  160.8310  205.2000  151.3030 C   0  0  0  0  0  0  0  0  0  0  0  0
  161.1460  208.3660  154.2120 C   0  0  0  0  0  0  0  0  0  0  0  0
  159.7220  208.0570  156.6050 C   0  0  0  0  0  3  0  0  0  0  0  0
  161.1600  206.1610  152.2620 C   0  0  0  0  0  3  0  0  0  0  0  0
  160.3080  210.3740  152.2700 C   0  0  2  0  0  3  0  0  0  0  0  0
  161.2290  206.3290  157.2520 F   0  0  0  0  0  0  0  0  0  0  0  0
  161.9530  209.0880  150.0760 N   0  0  0  0  0  2  0  0  0  0  0  0
  160.4680  203.8870  151.7090 N   0  0  0  0  0  1  0  0  0  0  0  0
  159.6430  210.2040  153.5600 N   0  0  0  0  0  2  0  0  0  0  0  0
  161.7820  209.9520  152.3690 C   0  0  2  0  0  3  0  0  0  0  0  0
  161.5490  207.4110  155.1530 C   0  0  0  0  0  3  0  0  0  0  0  0
  160.8610  205.5290  149.9460 C   0  0  0  0  0  3  0  0  0  0  0  0
  160.0220  209.1720  154.4770 C   0  0  0  0  0  0  0  0  0  0  0  0
  159.3180  209.0180  155.6740 C   0  0  0  0  0  3  0  0  0  0  0  0
  162.4900  210.0640  151.0180 C   0  0  0  0  0  2  0  0  0  0  0  0
  161.5700  207.7770  150.5020 C   0  0  0  0  0  0  0  0  0  0  0  0
  161.2300  206.8160  149.5480 C   0  0  0  0  0  3  0  0  0  0  0  0
  157.9620  211.9840  152.4580 O   0  0  0  0  0  0  0  0  0  0  0  0
  159.0010  212.5180  151.9810 C   0  0  0  0  0  0  0  0  0  0  0  0
  160.2070  211.7650  151.8500 N   0  0  0  0  0  2  0  0  0  0  0  0
  157.7170  213.9040  148.9640 C   0  0  0  0  0  0  0  0  0  0  0  0
  157.5530  214.4520  151.3260 C   0  0  0  0  0  2  0  0  0  0  0  0
  161.0320  214.3210  150.3540 O   0  0  0  0  0  0  0  0  0  0  0  0
  157.0700  213.5360  147.6780 C   0  0  0  0  0  1  0  0  0  0  0  0
  156.9960  214.0190  150.0390 N   0  0  0  0  0  0  0  0  0  0  0  0
  159.7880  214.1400  150.2900 C   0  0  0  0  0  0  0  0  0  0  0  0
  158.9860  213.9480  151.5400 C   0  0  2  0  0  3  0  0  0  0  0  0
  159.1370  214.0670  149.0210 N   0  0  0  0  0  2  0  0  0  0  0  0
  1  6  1  0  0  0  0
  1  9  1  0  0  0  0
  2  3  1  6  0  0  0
  2  5  1  0  0  0  0
  3  7  1  0  0  0  0
  4 11  1  0  0  0  0
  4  7  2  0  0  0  0
  5 16  2  0  0  0  0
  5 14  1  0  0  0  0
  8 23  1  1  0  0  0
  8 13  1  0  0  0  0
  8 12  1  0  0  0  0
 10 19  1  0  0  0  0
 10 18  1  0  0  0  0
 12 16  1  0  0  0  0
 13 18  1  6  0  0  0
 13  2  1  0  0  0  0
 14  1  2  0  0  0  0
 15  4  1  0  0  0  0
 16 17  1  0  0  0  0
 17  6  2  0  0  0  0
 19  3  2  0  0  0  0
 20 15  2  0  0  0  0
 20 19  1  0  0  0  0
 22 21  2  0  0  0  0
 23 22  1  0  0  0  0
 24 31  1  0  0  0  0
 24 28  2  0  0  0  0
 25 30  1  0  0  0  0
 27 24  1  0  0  0  0
 28 25  1  0  0  0  0
 29 26  2  0  0  0  0
 29 30  1  0  0  0  0
 30 22  1  6  0  0  0
 31 29  1  0  0  0  0
M  END
>  <MODEL>
4

>  <REMARK>
 VINA RESULT:      -6.9      2.523      4.649
  Name = 
  2 active torsions:
  status: ('A' for Active; 'I' for Inactive)
    1  A    between atoms: C_5  and  C_30
    2  A    between atoms: C_10  and  N_16
                            x       y       z     vdW  Elec       q    Type
                         _______ _______ _______ _____ _____    ______ ____

>  <TORSDO>
F 2

$$$$
=
 OpenBabel11122413313D

 31 35  0  0  1  0  0  0  0  0999 V2000
  160.8340  206.7600  146.8360 C   0  0  0  0  0  0  0  0  0  0  0  0
  160.2710  205.1170  150.2230 C   0  0  2  0  0  3  0  0  0  0  0  0
  160.7240  203.6670  150.1350 C   0  0  0  0  0  0  0  0  0  0  0  0
  161.3230  201.7100  148.8170 C   0  0  0  0  0  0  0  0  0  0  0  0
  160.8560  205.9840  149.1340 C   0  0  0  0  0  0  0  0  0  0  0  0
  161.9580  207.5510  147.0890 C   0  0  0  0  0  3  0  0  0  0  0  0
  160.9410  203.0520  148.8910 C   0  0  0  0  0  3  0  0  0  0  0  0
  162.0450  206.0210  151.7960 C   0  0  2  0  0  3  0  0  0  0  0  0
  160.2790  206.7490  145.6010 F   0  0  0  0  0  0  0  0  0  0  0  0
  160.6010  203.4790  152.5890 N   0  0  0  0  0  2  0  0  0  0  0  0
  161.5520  201.1060  147.5500 N   0  0  0  0  0  1  0  0  0  0  0  0
  162.5370  206.8580  150.7050 N   0  0  0  0  0  2  0  0  0  0  0  0
  160.5460  205.7330  151.6150 C   0  0  2  0  0  3  0  0  0  0  0  0
  160.2830  205.9790  147.8560 C   0  0  0  0  0  3  0  0  0  0  0  0
  161.4780  200.9630  149.9860 C   0  0  0  0  0  3  0  0  0  0  0  0
  161.9870  206.7840  149.3860 C   0  0  0  0  0  0  0  0  0  0  0  0
  162.5310  207.5680  148.3640 C   0  0  0  0  0  3  0  0  0  0  0  0
  160.0150  204.8100  152.7120 C   0  0  0  0  0  2  0  0  0  0  0  0
  160.8480  202.8920  151.3080 C   0  0  0  0  0  0  0  0  0  0  0  0
  161.2400  201.5540  151.2290 C   0  0  0  0  0  3  0  0  0  0  0  0
  160.6630  208.3370  152.7200 O   0  0  0  0  0  0  0  0  0  0  0  0
  161.5450  207.8430  153.4750 C   0  0  0  0  0  0  0  0  0  0  0  0
  162.2820  206.6890  153.0680 N   0  0  0  0  0  2  0  0  0  0  0  0
  159.4600  209.9260  155.4720 C   0  0  0  0  0  0  0  0  0  0  0  0
  160.8540  207.9760  155.8770 C   0  0  0  0  0  2  0  0  0  0  0  0
  162.8410  210.5910  154.3650 O   0  0  0  0  0  0  0  0  0  0  0  0
  158.1300  210.5860  155.4960 C   0  0  0  0  0  1  0  0  0  0  0  0
  159.5650  208.6730  155.8050 N   0  0  0  0  0  0  0  0  0  0  0  0
  161.8150  209.9560  154.7280 C   0  0  0  0  0  0  0  0  0  0  0  0
  161.8390  208.4610  154.8060 C   0  0  2  0  0  3  0  0  0  0  0  0
  160.6050  210.6540  155.0200 N   0  0  0  0  0  2  0  0  0  0  0  0
  1  6  2  0  0  0  0
  1 14  1  0  0  0  0
  2  5  1  6  0  0  0
  2 13  1  0  0  0  0
  3  2  1  0  0  0  0
  3 19  1  0  0  0  0
  4  7  1  0  0  0  0
  4 15  2  0  0  0  0
  5 16  1  0  0  0  0
  6 17  1  0  0  0  0
  7  3  2  0  0  0  0
  8 23  1  1  0  0  0
  9  1  1  0  0  0  0
 10 18  1  0  0  0  0
 11  4  1  0  0  0  0
 12  8  1  0  0  0  0
 13  8  1  0  0  0  0
 13 18  1  1  0  0  0
 14  5  2  0  0  0  0
 15 20  1  0  0  0  0
 16 12  1  0  0  0  0
 17 16  2  0  0  0  0
 19 10  1  0  0  0  0
 20 19  2  0  0  0  0
 21 22  2  0  0  0  0
 23 22  1  0  0  0  0
 24 27  1  0  0  0  0
 24 28  2  0  0  0  0
 26 29  2  0  0  0  0
 28 25  1  0  0  0  0
 29 30  1  0  0  0  0
 29 31  1  0  0  0  0
 30 22  1  6  0  0  0
 30 25  1  0  0  0  0
 31 24  1  0  0  0  0
M  END
>  <MODEL>
5

>  <REMARK>
 VINA RESULT:      -6.3      4.501      7.863
  Name = 
  2 active torsions:
  status: ('A' for Active; 'I' for Inactive)
    1  A    between atoms: C_5  and  C_30
    2  A    between atoms: C_10  and  N_16
                            x       y       z     vdW  Elec       q    Type
                         _______ _______ _______ _____ _____    ______ ____

>  <TORSDO>
F 2

$$$$
=
 OpenBabel11122413313D

 31 35  0  0  1  0  0  0  0  0999 V2000
  162.2640  213.6510  147.2750 C   0  0  0  0  0  0  0  0  0  0  0  0
  159.8920  214.2680  150.1880 C   0  0  2  0  0  3  0  0  0  0  0  0
  158.4630  214.1740  149.6720 C   0  0  0  0  0  0  0  0  0  0  0  0
  156.8710  214.1710  147.8320 C   0  0  0  0  0  0  0  0  0  0  0  0
  160.8920  213.5990  149.2750 C   0  0  0  0  0  0  0  0  0  0  0  0
  162.7130  212.3550  147.5460 C   0  0  0  0  0  3  0  0  0  0  0  0
  158.1880  214.2220  148.2960 C   0  0  0  0  0  3  0  0  0  0  0  0
  159.9510  212.1950  151.6510 C   0  0  2  0  0  3  0  0  0  0  0  0
  162.7070  214.3040  146.1750 F   0  0  0  0  0  0  0  0  0  0  0  0
  157.6300  214.1120  151.9900 N   0  0  0  0  0  2  0  0  0  0  0  0
  156.6090  214.2050  146.4340 N   0  0  0  0  0  1  0  0  0  0  0  0
  160.9420  211.6240  150.7430 N   0  0  0  0  0  2  0  0  0  0  0  0
  160.0300  213.7300  151.6320 C   0  0  2  0  0  3  0  0  0  0  0  0
  161.3570  214.2720  148.1380 C   0  0  0  0  0  3  0  0  0  0  0  0
  155.8130  214.0870  148.7390 C   0  0  0  0  0  3  0  0  0  0  0  0
  161.3480  212.2950  149.5460 C   0  0  0  0  0  0  0  0  0  0  0  0
  162.2600  211.6800  148.6830 C   0  0  0  0  0  3  0  0  0  0  0  0
  158.9630  214.3580  152.5300 C   0  0  0  0  0  2  0  0  0  0  0  0
  157.3850  214.1270  150.5810 C   0  0  0  0  0  0  0  0  0  0  0  0
  156.0710  214.0660  150.1110 C   0  0  0  0  0  3  0  0  0  0  0  0
  160.0840  209.4430  152.3820 O   0  0  0  0  0  0  0  0  0  0  0  0
  160.2430  210.2990  153.2950 C   0  0  0  0  0  0  0  0  0  0  0  0
  160.1790  211.6940  152.9990 N   0  0  0  0  0  2  0  0  0  0  0  0
  159.4380  211.9880  156.3240 C   0  0  0  0  0  0  0  0  0  0  0  0
  159.1880  209.7190  155.4900 C   0  0  0  0  0  2  0  0  0  0  0  0
  162.6610  210.7010  155.2980 O   0  0  0  0  0  0  0  0  0  0  0  0
  158.8390  213.2400  156.8530 C   0  0  0  0  0  1  0  0  0  0  0  0
  158.6660  211.0110  155.9510 N   0  0  0  0  0  0  0  0  0  0  0  0
  161.4120  210.8180  155.4100 C   0  0  0  0  0  0  0  0  0  0  0  0
  160.4970  209.8650  154.7060 C   0  0  2  0  0  3  0  0  0  0  0  0
  160.8570  211.8910  156.1700 N   0  0  0  0  0  2  0  0  0  0  0  0
  1  6  2  0  0  0  0
  1 14  1  0  0  0  0
  2  5  1  6  0  0  0
  2 13  1  0  0  0  0
  3  2  1  0  0  0  0
  3 19  1  0  0  0  0
  4  7  1  0  0  0  0
  4 15  2  0  0  0  0
  5 16  1  0  0  0  0
  6 17  1  0  0  0  0
  7  3  2  0  0  0  0
  8 23  1  1  0  0  0
  9  1  1  0  0  0  0
 10 18  1  0  0  0  0
 11  4  1  0  0  0  0
 12  8  1  0  0  0  0
 13  8  1  0  0  0  0
 13 18  1  1  0  0  0
 14  5  2  0  0  0  0
 15 20  1  0  0  0  0
 16 12  1  0  0  0  0
 17 16  2  0  0  0  0
 19 10  1  0  0  0  0
 20 19  2  0  0  0  0
 21 22  2  0  0  0  0
 23 22  1  0  0  0  0
 24 27  1  0  0  0  0
 25 28  1  0  0  0  0
 26 29  2  0  0  0  0
 28 24  2  0  0  0  0
 29 31  1  0  0  0  0
 30 22  1  6  0  0  0
 30 29  1  0  0  0  0
 30 25  1  0  0  0  0
 31 24  1  0  0  0  0
M  END
>  <MODEL>
6

>  <REMARK>
 VINA RESULT:      -5.9      3.366      7.562
  Name = 
  2 active torsions:
  status: ('A' for Active; 'I' for Inactive)
    1  A    between atoms: C_5  and  C_30
    2  A    between atoms: C_10  and  N_16
                            x       y       z     vdW  Elec       q    Type
                         _______ _______ _______ _____ _____    ______ ____

>  <TORSDO>
F 2

$$$$
=
 OpenBabel11122413313D

 31 35  0  0  1  0  0  0  0  0999 V2000
  161.2450  210.0640  154.7780 C   0  0  0  0  0  0  0  0  0  0  0  0
  162.3110  209.9950  151.1240 C   0  0  2  0  0  3  0  0  0  0  0  0
  161.8190  208.6950  150.5050 C   0  0  0  0  0  0  0  0  0  0  0  0
  160.9740  206.4240  150.7360 C   0  0  0  0  0  0  0  0  0  0  0  0
  161.5770  210.3580  152.3930 C   0  0  0  0  0  0  0  0  0  0  0  0
  160.1940  210.9850  154.7480 C   0  0  0  0  0  3  0  0  0  0  0  0
  161.3910  207.6270  151.3110 C   0  0  0  0  0  3  0  0  0  0  0  0
  160.8330  211.6430  149.8840 C   0  0  2  0  0  3  0  0  0  0  0  0
  161.5930  209.4730  155.9460 F   0  0  0  0  0  0  0  0  0  0  0  0
  162.3310  209.5710  148.2600 N   0  0  0  0  0  2  0  0  0  0  0  0
  160.5300  205.3580  151.5650 N   0  0  0  0  0  1  0  0  0  0  0  0
  160.1900  211.9700  151.1540 N   0  0  0  0  0  2  0  0  0  0  0  0
  162.2760  211.1720  150.1220 C   0  0  2  0  0  3  0  0  0  0  0  0
  161.9360  209.7530  153.6040 C   0  0  0  0  0  3  0  0  0  0  0  0
  160.9930  206.2700  149.3480 C   0  0  0  0  0  3  0  0  0  0  0  0
  160.5180  211.2860  152.3670 C   0  0  0  0  0  0  0  0  0  0  0  0
  159.8340  211.6000  153.5450 C   0  0  0  0  0  3  0  0  0  0  0  0
  162.9570  210.7670  148.8130 C   0  0  0  0  0  2  0  0  0  0  0  0
  161.8690  208.5150  149.1060 C   0  0  0  0  0  0  0  0  0  0  0  0
  161.4400  207.3140  148.5360 C   0  0  0  0  0  3  0  0  0  0  0  0
  160.0870  211.6380  147.1320 O   0  0  0  0  0  0  0  0  0  0  0  0
  160.4240  212.7410  147.6450 C   0  0  0  0  0  0  0  0  0  0  0  0
  160.8180  212.8120  149.0150 N   0  0  0  0  0  2  0  0  0  0  0  0
  160.1430  213.0860  144.1120 C   0  0  0  0  0  0  0  0  0  0  0  0
  159.1110  214.1450  146.0410 C   0  0  0  0  0  2  0  0  0  0  0  0
  162.7050  214.4530  146.2710 O   0  0  0  0  0  0  0  0  0  0  0  0
  160.0250  212.3020  142.8560 C   0  0  0  0  0  1  0  0  0  0  0  0
  159.0840  213.3160  144.8310 N   0  0  0  0  0  0  0  0  0  0  0  0
  161.5860  214.0270  145.8830 C   0  0  0  0  0  0  0  0  0  0  0  0
  160.4210  213.9920  146.8230 C   0  0  2  0  0  3  0  0  0  0  0  0
  161.4290  213.5280  144.5550 N   0  0  0  0  0  2  0  0  0  0  0  0
  1  9  1  0  0  0  0
  2  3  1  6  0  0  0
  2  5  1  0  0  0  0
  3  7  1  0  0  0  0
  4  7  2  0  0  0  0
  4 11  1  0  0  0  0
  5 14  1  0  0  0  0
  6  1  1  0  0  0  0
  8 23  1  6  0  0  0
  8 13  1  0  0  0  0
  8 12  1  0  0  0  0
 10 18  1  0  0  0  0
 10 19  1  0  0  0  0
 12 16  1  0  0  0  0
 13 18  1  6  0  0  0
 13  2  1  0  0  0  0
 14  1  2  0  0  0  0
 15  4  1  0  0  0  0
 16  5  2  0  0  0  0
 16 17  1  0  0  0  0
 17  6  2  0  0  0  0
 19  3  2  0  0  0  0
 20 19  1  0  0  0  0
 20 15  2  0  0  0  0
 21 22  2  0  0  0  0
 22 23  1  0  0  0  0
 24 31  1  0  0  0  0
 24 28  2  0  0  0  0
 25 30  1  0  0  0  0
 27 24  1  0  0  0  0
 28 25  1  0  0  0  0
 29 26  2  0  0  0  0
 29 30  1  0  0  0  0
 30 22  1  6  0  0  0
 31 29  1  0  0  0  0
M  END
>  <MODEL>
7

>  <REMARK>
 VINA RESULT:      -5.5      2.287      4.583
  Name = 
  2 active torsions:
  status: ('A' for Active; 'I' for Inactive)
    1  A    between atoms: C_5  and  C_30
    2  A    between atoms: C_10  and  N_16
                            x       y       z     vdW  Elec       q    Type
                         _______ _______ _______ _____ _____    ______ ____

>  <TORSDO>
F 2

$$$$
=
 OpenBabel11122413313D

 31 35  0  0  1  0  0  0  0  0999 V2000
  162.1550  206.4600  147.5190 C   0  0  0  0  0  0  0  0  0  0  0  0
  162.4670  209.1850  150.1590 C   0  0  2  0  0  3  0  0  0  0  0  0
  161.8210  210.4530  149.6190 C   0  0  0  0  0  0  0  0  0  0  0  0
  160.9700  211.7710  147.7580 C   0  0  0  0  0  0  0  0  0  0  0  0
  162.0130  207.9390  149.4360 C   0  0  0  0  0  0  0  0  0  0  0  0
  161.1470  205.6560  148.0610 C   0  0  0  0  0  3  0  0  0  0  0  0
  161.5310  210.5900  148.2510 C   0  0  0  0  0  3  0  0  0  0  0  0
  160.8220  208.6260  152.0080 C   0  0  2  0  0  3  0  0  0  0  0  0
  162.7110  206.1360  146.3280 F   0  0  0  0  0  0  0  0  0  0  0  0
  161.9020  211.4530  151.8690 N   0  0  0  0  0  2  0  0  0  0  0  0
  160.6690  211.8880  146.3730 N   0  0  0  0  0  1  0  0  0  0  0  0
  160.4560  207.4190  151.2700 N   0  0  0  0  0  2  0  0  0  0  0  0
  162.2690  209.0310  151.6850 C   0  0  2  0  0  3  0  0  0  0  0  0
  162.5870  207.5980  148.2060 C   0  0  0  0  0  3  0  0  0  0  0  0
  160.7070  212.8340  148.6230 C   0  0  0  0  0  3  0  0  0  0  0  0
  160.9990  207.1270  149.9790 C   0  0  0  0  0  0  0  0  0  0  0  0
  160.5740  205.9860  149.2920 C   0  0  0  0  0  3  0  0  0  0  0  0
  162.6620  210.3250  152.3990 C   0  0  0  0  0  2  0  0  0  0  0  0
  161.5860  211.5480  150.4780 C   0  0  0  0  0  0  0  0  0  0  0  0
  161.0150  212.7220  149.9810 C   0  0  0  0  0  3  0  0  0  0  0  0
  159.4680  210.3530  153.8270 O   0  0  0  0  0  0  0  0  0  0  0  0
  159.9700  209.2920  154.2920 C   0  0  0  0  0  0  0  0  0  0  0  0
  160.6700  208.3890  153.4370 N   0  0  0  0  0  2  0  0  0  0  0  0
  162.2110  210.0650  156.9490 C   0  0  0  0  0  0  0  0  0  0  0  0
  159.8110  210.2390  156.6040 C   0  0  0  0  0  2  0  0  0  0  0  0
  160.8670  206.8250  156.0600 O   0  0  0  0  0  0  0  0  0  0  0  0
  163.5200  210.7030  157.2390 C   0  0  0  0  0  1  0  0  0  0  0  0
  161.1490  210.8030  156.8160 N   0  0  0  0  0  0  0  0  0  0  0  0
  160.9560  208.0730  156.2020 C   0  0  0  0  0  0  0  0  0  0  0  0
  159.8440  208.9670  155.7480 C   0  0  2  0  0  3  0  0  0  0  0  0
  162.1390  208.6500  156.7530 N   0  0  0  0  0  2  0  0  0  0  0  0
  1  6  2  0  0  0  0
  1 14  1  0  0  0  0
  2  5  1  6  0  0  0
  2 13  1  0  0  0  0
  3  2  1  0  0  0  0
  3 19  1  0  0  0  0
  4  7  1  0  0  0  0
  4 15  2  0  0  0  0
  5 16  1  0  0  0  0
  6 17  1  0  0  0  0
  7  3  2  0  0  0  0
  8 23  1  1  0  0  0
  9  1  1  0  0  0  0
 10 18  1  0  0  0  0
 11  4  1  0  0  0  0
 12  8  1  0  0  0  0
 13  8  1  0  0  0  0
 13 18  1  1  0  0  0
 14  5  2  0  0  0  0
 15 20  1  0  0  0  0
 16 12  1  0  0  0  0
 17 16  2  0  0  0  0
 19 10  1  0  0  0  0
 20 19  2  0  0  0  0
 21 22  2  0  0  0  0
 23 22  1  0  0  0  0
 24 27  1  0  0  0  0
 25 28  1  0  0  0  0
 26 29  2  0  0  0  0
 28 24  2  0  0  0  0
 29 31  1  0  0  0  0
 30 22  1  6  0  0  0
 30 29  1  0  0  0  0
 30 25  1  0  0  0  0
 31 24  1  0  0  0  0
M  END
>  <MODEL>
8

>  <REMARK>
 VINA RESULT:      -5.4      2.914      7.198
  Name = 
  2 active torsions:
  status: ('A' for Active; 'I' for Inactive)
    1  A    between atoms: C_5  and  C_30
    2  A    between atoms: C_10  and  N_16
                            x       y       z     vdW  Elec       q    Type
                         _______ _______ _______ _____ _____    ______ ____

>  <TORSDO>
F 2

$$$$
=
 OpenBabel11122413313D

 31 35  0  0  1  0  0  0  0  0999 V2000
  160.9080  201.4990  149.1580 C   0  0  0  0  0  0  0  0  0  0  0  0
  162.2850  204.9240  150.0850 C   0  0  2  0  0  3  0  0  0  0  0  0
  161.7700  205.9390  149.0740 C   0  0  0  0  0  0  0  0  0  0  0  0
  160.7690  206.4610  146.9180 C   0  0  0  0  0  0  0  0  0  0  0  0
  161.4660  203.6560  150.1160 C   0  0  0  0  0  0  0  0  0  0  0  0
  159.9220  201.3170  150.1320 C   0  0  0  0  0  3  0  0  0  0  0  0
  161.2080  205.5230  147.8560 C   0  0  0  0  0  3  0  0  0  0  0  0
  161.0270  205.7020  152.1460 C   0  0  2  0  0  3  0  0  0  0  0  0
  161.1150  200.5440  148.2190 F   0  0  0  0  0  0  0  0  0  0  0  0
  162.5320  207.7750  150.5290 N   0  0  0  0  0  2  0  0  0  0  0  0
  160.1900  206.0250  145.6950 N   0  0  0  0  0  1  0  0  0  0  0  0
  160.2960  204.4380  152.1350 N   0  0  0  0  0  2  0  0  0  0  0  0
  162.4120  205.5240  151.5050 C   0  0  2  0  0  3  0  0  0  0  0  0
  161.6790  202.6640  149.1500 C   0  0  0  0  0  3  0  0  0  0  0  0
  160.9010  207.8260  147.1810 C   0  0  0  0  0  3  0  0  0  0  0  0
  160.4740  203.4690  151.0970 C   0  0  0  0  0  0  0  0  0  0  0  0
  159.7090  202.2990  151.1040 C   0  0  0  0  0  3  0  0  0  0  0  0
  163.1790  206.8460  151.4490 C   0  0  0  0  0  2  0  0  0  0  0  0
  161.9320  207.3200  149.3130 C   0  0  0  0  0  0  0  0  0  0  0  0
  161.4820  208.2540  148.3770 C   0  0  0  0  0  3  0  0  0  0  0  0
  160.5820  208.3820  153.0120 O   0  0  0  0  0  0  0  0  0  0  0  0
  160.9140  207.5330  153.8850 C   0  0  0  0  0  0  0  0  0  0  0  0
  161.1610  206.1760  153.5170 N   0  0  0  0  0  2  0  0  0  0  0  0
  159.0550  209.9540  155.7170 C   0  0  0  0  0  0  0  0  0  0  0  0
  159.7720  207.6650  156.1090 C   0  0  0  0  0  2  0  0  0  0  0  0
  162.6500  209.7240  155.3700 O   0  0  0  0  0  0  0  0  0  0  0  0
  157.9690  210.9590  155.5790 C   0  0  0  0  0  1  0  0  0  0  0  0
  158.7560  208.7010  155.8900 N   0  0  0  0  0  0  0  0  0  0  0  0
  161.4410  209.3780  155.4420 C   0  0  0  0  0  0  0  0  0  0  0  0
  161.0580  207.9360  155.3190 C   0  0  2  0  0  3  0  0  0  0  0  0
  160.4200  210.3640  155.5930 N   0  0  0  0  0  2  0  0  0  0  0  0
  1  6  1  0  0  0  0
  2  3  1  6  0  0  0
  2  5  1  0  0  0  0
  2 13  1  0  0  0  0
  3 19  1  0  0  0  0
  4 15  2  0  0  0  0
  4  7  1  0  0  0  0
  5 16  2  0  0  0  0
  6 17  2  0  0  0  0
  7  3  2  0  0  0  0
  8 23  1  1  0  0  0
  9  1  1  0  0  0  0
 10 18  1  0  0  0  0
 11  4  1  0  0  0  0
 12  8  1  0  0  0  0
 13 18  1  6  0  0  0
 13  8  1  0  0  0  0
 14  1  2  0  0  0  0
 14  5  1  0  0  0  0
 15 20  1  0  0  0  0
 16 17  1  0  0  0  0
 16 12  1  0  0  0  0
 19 10  1  0  0  0  0
 20 19  2  0  0  0  0
 21 22  2  0  0  0  0
 23 22  1  0  0  0  0
 24 28  2  0  0  0  0
 26 29  2  0  0  0  0
 27 24  1  0  0  0  0
 28 25  1  0  0  0  0
 29 31  1  0  0  0  0
 30 22  1  6  0  0  0
 30 29  1  0  0  0  0
 30 25  1  0  0  0  0
 31 24  1  0  0  0  0
M  END
>  <MODEL>
9

>  <REMARK>
 VINA RESULT:      -4.9      4.219      7.831
  Name = 
  2 active torsions:
  status: ('A' for Active; 'I' for Inactive)
    1  A    between atoms: C_5  and  C_30
    2  A    between atoms: C_10  and  N_16
                            x       y       z     vdW  Elec       q    Type
                         _______ _______ _______ _____ _____    ______ ____

>  <TORSDO>
F 2

$$$$
