=
 OpenBabel11122413363D

 37 42  0  0  1  0  0  0  0  0999 V2000
  159.4280  211.0210  154.4060 C   0  0  0  0  0  0  0  0  0  0  0  0
  161.6010  208.3060  152.0920 C   0  0  0  0  0  0  0  0  0  0  0  0
  159.9360  207.5740  149.8700 F   0  0  0  0  0  0  0  0  0  0  0  0
  160.5170  208.7200  154.1850 C   0  0  0  0  0  0  0  0  0  0  0  0
  161.7030  208.9420  150.7400 C   0  0  1  0  0  3  0  0  0  0  0  0
  160.8830  209.1080  152.9100 C   0  0  0  0  0  0  0  0  0  0  0  0
  161.2420  207.9790  149.6430 C   0  0  1  0  0  3  0  0  0  0  0  0
  160.9150  207.4920  154.6260 N   0  0  0  0  0  0  0  0  0  0  0  0
  160.4210  210.2690  152.2770 N   0  0  0  0  0  0  0  0  0  0  0  0
  160.6150  211.8500  154.8690 C   0  0  0  0  0  1  0  0  0  0  0  0
  162.6350  206.0430  151.5830 C   0  0  0  0  0  2  0  0  0  0  0  0
  161.6480  206.6510  153.8280 C   0  0  0  0  0  3  0  0  0  0  0  0
  159.3430  211.0580  152.8640 C   0  0  0  0  0  2  0  0  0  0  0  0
  162.0100  207.0370  152.5210 C   0  0  0  0  0  0  0  0  0  0  0  0
  160.7900  210.1970  150.8620 C   0  0  1  0  0  3  0  0  0  0  0  0
  159.5570  209.5800  154.9630 C   0  0  0  0  0  2  0  0  0  0  0  0
  162.1250  206.8030  149.5660 N   0  0  0  0  0  0  0  0  0  0  0  0
  158.1690  211.6420  154.9710 C   0  0  0  0  0  1  0  0  0  0  0  0
  163.1630  206.6740  150.4430 O   0  0  0  0  0  0  0  0  0  0  0  0
  161.9740  211.5530  148.9920 C   0  0  0  0  0  2  0  0  0  0  0  0
  162.4240  212.9080  148.6910 N   0  0  0  0  0  0  0  0  0  0  0  0
  159.9250  213.4400  148.7600 C   0  0  2  0  0  3  0  0  0  0  0  0
  161.3230  213.7290  148.1690 C   0  0  0  0  0  2  0  0  0  0  0  0
  159.8300  213.4420  150.2370 N   0  0  0  0  0  0  0  0  0  0  0  0
  158.6370  212.9320  150.6310 O   0  0  0  0  0  1  0  0  0  0  0  0
  160.8990  212.7900  151.0130 C   0  0  0  0  0  2  0  0  0  0  0  0
  159.2200  212.2780  148.0650 C   0  0  0  0  0  1  0  0  0  0  0  0
  161.4920  211.4900  150.4410 C   0  0  1  0  0  3  0  0  0  0  0  0
  162.7760  213.0980  146.3480 N   0  0  0  0  0  1  0  0  0  0  0  0
  163.4060  212.8060  147.6240 C   0  0  0  0  0  2  0  0  0  0  0  0
  162.3820  206.1890  147.1940 C   0  0  0  0  0  3  0  0  0  0  0  0
  161.9840  205.8490  148.4950 C   0  0  0  0  0  0  0  0  0  0  0  0
  161.4420  204.5750  148.7290 C   0  0  0  0  0  3  0  0  0  0  0  0
  160.7820  202.4320  147.9200 F   0  0  0  0  0  0  0  0  0  0  0  0
  161.7070  204.0080  146.3910 C   0  0  0  0  0  3  0  0  0  0  0  0
  161.3050  203.6590  147.6830 C   0  0  0  0  0  0  0  0  0  0  0  0
  162.2450  205.2740  146.1470 C   0  0  0  0  0  3  0  0  0  0  0  0
  1 10  1  0  0  0  0
  1 16  1  0  0  0  0
  1 18  1  0  0  0  0
  2 14  2  0  0  0  0
  2  6  1  0  0  0  0
  4  8  1  0  0  0  0
  4 16  1  0  0  0  0
  5 15  1  0  0  0  0
  5  2  1  1  0  0  0
  6  4  2  0  0  0  0
  7  3  1  1  0  0  0
  7  5  1  0  0  0  0
  9 13  1  0  0  0  0
  9  6  1  0  0  0  0
 11 14  1  0  0  0  0
 12  8  2  0  0  0  0
 13  1  1  0  0  0  0
 14 12  1  0  0  0  0
 15  9  1  1  0  0  0
 17  7  1  0  0  0  0
 17 19  1  0  0  0  0
 19 11  1  0  0  0  0
 21 20  1  0  0  0  0
 22 27  1  1  0  0  0
 22 24  1  0  0  0  0
 23 21  1  0  0  0  0
 23 22  1  0  0  0  0
 24 25  1  0  0  0  0
 24 26  1  0  0  0  0
 28 20  1  6  0  0  0
 28 15  1  0  0  0  0
 28 26  1  0  0  0  0
 29 30  1  0  0  0  0
 30 21  1  0  0  0  0
 31 32  1  0  0  0  0
 32 33  2  0  0  0  0
 32 17  1  0  0  0  0
 35 36  2  0  0  0  0
 36 34  1  0  0  0  0
 36 33  1  0  0  0  0
 37 35  1  0  0  0  0
 37 31  2  0  0  0  0
M  END
>  <MODEL>
1

>  <REMARK>
 VINA RESULT:      -4.8      0.000      0.000
  Name = 
  3 active torsions:
  status: ('A' for Active; 'I' for Inactive)
    1  A    between atoms: N_4  and  C_37
    2  A    between atoms: C_21  and  C_27
    3  A    between atoms: N_23  and  C_30
                            x       y       z     vdW  Elec       q    Type
                         _______ _______ _______ _____ _____    ______ ____

>  <TORSDO>
F 3

$$$$
=
 OpenBabel11122413363D

 37 42  0  0  1  0  0  0  0  0999 V2000
  157.9200  213.3280  155.9100 C   0  0  0  0  0  0  0  0  0  0  0  0
  160.5470  210.5220  154.2760 C   0  0  0  0  0  0  0  0  0  0  0  0
  159.0290  208.9170  152.4410 F   0  0  0  0  0  0  0  0  0  0  0  0
  159.4270  211.2920  156.2450 C   0  0  0  0  0  0  0  0  0  0  0  0
  160.5110  210.7680  152.8000 C   0  0  1  0  0  3  0  0  0  0  0  0
  159.6990  211.3740  154.8930 C   0  0  0  0  0  0  0  0  0  0  0  0
  160.2310  209.4740  152.0320 C   0  0  1  0  0  3  0  0  0  0  0  0
  160.0580  210.3260  156.9730 N   0  0  0  0  0  0  0  0  0  0  0  0
  159.0160  212.2120  154.0020 N   0  0  0  0  0  0  0  0  0  0  0  0
  158.9310  214.4530  156.0580 C   0  0  0  0  0  1  0  0  0  0  0  0
  161.9910  208.4320  154.3280 C   0  0  0  0  0  2  0  0  0  0  0  0
  160.9300  209.4450  156.3850 C   0  0  0  0  0  3  0  0  0  0  0  0
  157.8130  212.9230  154.4230 C   0  0  0  0  0  2  0  0  0  0  0  0
  161.1970  209.5160  155.0020 C   0  0  0  0  0  0  0  0  0  0  0  0
  159.3760  211.8220  152.6370 C   0  0  1  0  0  3  0  0  0  0  0  0
  158.3290  212.1440  156.8240 C   0  0  0  0  0  2  0  0  0  0  0  0
  161.3220  208.5030  152.2170 N   0  0  0  0  0  0  0  0  0  0  0  0
  156.5720  213.8420  156.3660 C   0  0  0  0  0  1  0  0  0  0  0  0
  162.3750  208.8100  153.0290 O   0  0  0  0  0  0  0  0  0  0  0  0
  160.3480  212.7920  150.4350 C   0  0  0  0  0  2  0  0  0  0  0  0
  160.5180  214.0620  149.7380 N   0  0  0  0  0  0  0  0  0  0  0  0
  157.9640  214.0380  149.6740 C   0  0  2  0  0  3  0  0  0  0  0  0
  159.3000  214.4360  149.0080 C   0  0  0  0  0  2  0  0  0  0  0  0
  157.7910  214.4520  151.0850 N   0  0  0  0  0  0  0  0  0  0  0  0
  156.7120  213.8350  151.6260 O   0  0  0  0  0  1  0  0  0  0  0  0
  158.9300  214.3040  152.0070 C   0  0  0  0  0  2  0  0  0  0  0  0
  157.5560  212.5990  149.3660 C   0  0  0  0  0  1  0  0  0  0  0  0
  159.8120  213.0540  151.8420 C   0  0  1  0  0  3  0  0  0  0  0  0
  161.7140  212.4480  148.4680 N   0  0  0  0  0  1  0  0  0  0  0  0
  161.5560  213.8670  148.7400 C   0  0  0  0  0  2  0  0  0  0  0  0
  161.2700  207.3270  150.0530 C   0  0  0  0  0  3  0  0  0  0  0  0
  161.3550  207.2820  151.4530 C   0  0  0  0  0  0  0  0  0  0  0  0
  161.4630  206.0340  152.0880 C   0  0  0  0  0  3  0  0  0  0  0  0
  161.5940  203.6570  151.9600 F   0  0  0  0  0  0  0  0  0  0  0  0
  161.4050  204.9130  149.9430 C   0  0  0  0  0  3  0  0  0  0  0  0
  161.4890  204.8560  151.3370 C   0  0  0  0  0  0  0  0  0  0  0  0
  161.2950  206.1490  149.3020 C   0  0  0  0  0  3  0  0  0  0  0  0
  1 10  1  0  0  0  0
  1 18  1  0  0  0  0
  1 16  1  0  0  0  0
  2  6  2  0  0  0  0
  2 14  1  0  0  0  0
  4 16  1  0  0  0  0
  4  8  2  0  0  0  0
  5  2  1  1  0  0  0
  6  4  1  0  0  0  0
  7 17  1  0  0  0  0
  7  3  1  1  0  0  0
  7  5  1  0  0  0  0
  9 13  1  0  0  0  0
  9  6  1  0  0  0  0
 11 14  1  0  0  0  0
 12  8  1  0  0  0  0
 13  1  1  0  0  0  0
 14 12  2  0  0  0  0
 15  5  1  0  0  0  0
 15  9  1  1  0  0  0
 17 19  1  0  0  0  0
 19 11  1  0  0  0  0
 21 20  1  0  0  0  0
 22 27  1  1  0  0  0
 22 24  1  0  0  0  0
 23 22  1  0  0  0  0
 23 21  1  0  0  0  0
 24 25  1  0  0  0  0
 24 26  1  0  0  0  0
 28 20  1  6  0  0  0
 28 26  1  0  0  0  0
 28 15  1  0  0  0  0
 29 30  1  0  0  0  0
 30 21  1  0  0  0  0
 31 32  1  0  0  0  0
 32 33  2  0  0  0  0
 32 17  1  0  0  0  0
 35 36  2  0  0  0  0
 36 34  1  0  0  0  0
 36 33  1  0  0  0  0
 37 35  1  0  0  0  0
 37 31  2  0  0  0  0
M  END
>  <MODEL>
2

>  <REMARK>
 VINA RESULT:      -4.2      2.077      3.136
  Name = 
  3 active torsions:
  status: ('A' for Active; 'I' for Inactive)
    1  A    between atoms: N_4  and  C_37
    2  A    between atoms: C_21  and  C_27
    3  A    between atoms: N_23  and  C_30
                            x       y       z     vdW  Elec       q    Type
                         _______ _______ _______ _____ _____    ______ ____

>  <TORSDO>
F 3

$$$$
=
 OpenBabel11122413363D

 37 42  0  0  1  0  0  0  0  0999 V2000
  159.5440  210.6710  154.6910 C   0  0  0  0  0  0  0  0  0  0  0  0
  161.6630  208.1650  152.1080 C   0  0  0  0  0  0  0  0  0  0  0  0
  159.9150  207.5460  149.9140 F   0  0  0  0  0  0  0  0  0  0  0  0
  160.6650  208.4140  154.2680 C   0  0  0  0  0  0  0  0  0  0  0  0
  161.6930  208.8910  150.7980 C   0  0  1  0  0  3  0  0  0  0  0  0
  160.9680  208.8940  153.0080 C   0  0  0  0  0  0  0  0  0  0  0  0
  161.2020  207.9940  149.6590 C   0  0  1  0  0  3  0  0  0  0  0  0
  161.1060  207.1690  154.6070 N   0  0  0  0  0  0  0  0  0  0  0  0
  160.4560  210.0850  152.4750 N   0  0  0  0  0  0  0  0  0  0  0  0
  160.7340  211.4930  155.1570 C   0  0  0  0  0  1  0  0  0  0  0  0
  162.7160  205.9640  151.4020 C   0  0  0  0  0  2  0  0  0  0  0  0
  161.8190  206.3990  153.7230 C   0  0  0  0  0  3  0  0  0  0  0  0
  159.3900  210.8090  153.1600 C   0  0  0  0  0  2  0  0  0  0  0  0
  162.1150  206.8800  152.4310 C   0  0  0  0  0  0  0  0  0  0  0  0
  160.7630  210.1160  151.0440 C   0  0  1  0  0  3  0  0  0  0  0  0
  159.7250  209.1990  155.1430 C   0  0  0  0  0  2  0  0  0  0  0  0
  162.1030  206.8450  149.4650 N   0  0  0  0  0  0  0  0  0  0  0  0
  158.3000  211.2250  155.3500 C   0  0  0  0  0  1  0  0  0  0  0  0
  163.1810  206.6810  150.2860 O   0  0  0  0  0  0  0  0  0  0  0  0
  161.8240  211.6240  149.2180 C   0  0  0  0  0  2  0  0  0  0  0  0
  162.2360  213.0060  148.9920 N   0  0  0  0  0  0  0  0  0  0  0  0
  159.7360  213.4820  149.2280 C   0  0  2  0  0  3  0  0  0  0  0  0
  161.0960  213.8400  148.5880 C   0  0  0  0  0  2  0  0  0  0  0  0
  159.7190  213.3770  150.7040 N   0  0  0  0  0  0  0  0  0  0  0  0
  158.5570  212.8170  151.1210 O   0  0  0  0  0  1  0  0  0  0  0  0
  160.8380  212.6930  151.3750 C   0  0  0  0  0  2  0  0  0  0  0  0
  159.0140  212.3590  148.4880 C   0  0  0  0  0  1  0  0  0  0  0  0
  161.4200  211.4490  150.6810 C   0  0  1  0  0  3  0  0  0  0  0  0
  162.4760  212.5530  146.6710 N   0  0  0  0  0  1  0  0  0  0  0  0
  163.1620  212.9990  147.8720 C   0  0  0  0  0  2  0  0  0  0  0  0
  161.6290  204.6090  148.5480 C   0  0  0  0  0  3  0  0  0  0  0  0
  161.9330  205.9630  148.3400 C   0  0  0  0  0  0  0  0  0  0  0  0
  162.0760  206.4320  147.0240 C   0  0  0  0  0  3  0  0  0  0  0  0
  162.0530  206.0300  144.6740 F   0  0  0  0  0  0  0  0  0  0  0  0
  161.6090  204.2210  146.1590 C   0  0  0  0  0  3  0  0  0  0  0  0
  161.9130  205.5660  145.9390 C   0  0  0  0  0  0  0  0  0  0  0  0
  161.4670  203.7420  147.4640 C   0  0  0  0  0  3  0  0  0  0  0  0
  1 16  1  0  0  0  0
  1 10  1  0  0  0  0
  1 18  1  0  0  0  0
  2 14  2  0  0  0  0
  2  6  1  0  0  0  0
  4  8  1  0  0  0  0
  4 16  1  0  0  0  0
  5 15  1  0  0  0  0
  5  2  1  1  0  0  0
  6  4  2  0  0  0  0
  7  3  1  1  0  0  0
  7  5  1  0  0  0  0
  9  6  1  0  0  0  0
  9 13  1  0  0  0  0
 11 14  1  0  0  0  0
 12  8  2  0  0  0  0
 13  1  1  0  0  0  0
 14 12  1  0  0  0  0
 15  9  1  1  0  0  0
 17  7  1  0  0  0  0
 17 19  1  0  0  0  0
 19 11  1  0  0  0  0
 21 20  1  0  0  0  0
 22 27  1  6  0  0  0
 22 24  1  0  0  0  0
 23 21  1  0  0  0  0
 23 22  1  0  0  0  0
 24 25  1  0  0  0  0
 24 26  1  0  0  0  0
 28 20  1  6  0  0  0
 28 15  1  0  0  0  0
 28 26  1  0  0  0  0
 29 30  1  0  0  0  0
 30 21  1  0  0  0  0
 32 31  1  0  0  0  0
 32 17  1  0  0  0  0
 33 32  2  0  0  0  0
 34 36  1  0  0  0  0
 35 37  1  0  0  0  0
 36 35  2  0  0  0  0
 36 33  1  0  0  0  0
 37 31  2  0  0  0  0
M  END
>  <MODEL>
3

>  <REMARK>
 VINA RESULT:      -4.1      0.900      1.194
  Name = 
  3 active torsions:
  status: ('A' for Active; 'I' for Inactive)
    1  A    between atoms: N_4  and  C_37
    2  A    between atoms: C_21  and  C_27
    3  A    between atoms: N_23  and  C_30
                            x       y       z     vdW  Elec       q    Type
                         _______ _______ _______ _____ _____    ______ ____

>  <TORSDO>
F 3

$$$$
=
 OpenBabel11122413363D

 37 42  0  0  1  0  0  0  0  0999 V2000
  158.7790  211.5120  155.2710 C   0  0  0  0  0  0  0  0  0  0  0  0
  161.2160  209.0270  152.9620 C   0  0  0  0  0  0  0  0  0  0  0  0
  159.6080  208.0570  150.7880 F   0  0  0  0  0  0  0  0  0  0  0  0
  160.1300  209.3520  155.0690 C   0  0  0  0  0  0  0  0  0  0  0  0
  161.2160  209.6430  151.5970 C   0  0  1  0  0  3  0  0  0  0  0  0
  160.4240  209.7550  153.7800 C   0  0  0  0  0  0  0  0  0  0  0  0
  160.8520  208.6100  150.5270 C   0  0  1  0  0  3  0  0  0  0  0  0
  160.6790  208.1890  155.5230 N   0  0  0  0  0  0  0  0  0  0  0  0
  159.8150  210.8400  153.1360 N   0  0  0  0  0  0  0  0  0  0  0  0
  159.8680  212.4850  155.6940 C   0  0  0  0  0  1  0  0  0  0  0  0
  162.5020  206.8920  152.4720 C   0  0  0  0  0  2  0  0  0  0  0  0
  161.4920  207.4250  154.7260 C   0  0  0  0  0  3  0  0  0  0  0  0
  158.6620  211.5070  153.7310 C   0  0  0  0  0  2  0  0  0  0  0  0
  161.7810  207.8250  153.4040 C   0  0  0  0  0  0  0  0  0  0  0  0
  160.1630  210.7830  151.7150 C   0  0  1  0  0  3  0  0  0  0  0  0
  159.0890  210.1080  155.8510 C   0  0  0  0  0  2  0  0  0  0  0  0
  161.8680  207.5450  150.4520 N   0  0  0  0  0  0  0  0  0  0  0  0
  157.4660  211.9910  155.8520 C   0  0  0  0  0  1  0  0  0  0  0  0
  162.9300  207.5580  151.3090 O   0  0  0  0  0  0  0  0  0  0  0  0
  161.0110  212.2730  149.7660 C   0  0  0  0  0  2  0  0  0  0  0  0
  161.3040  213.6680  149.4540 N   0  0  0  0  0  0  0  0  0  0  0  0
  158.7910  213.9710  149.8070 C   0  0  2  0  0  3  0  0  0  0  0  0
  160.0850  214.3960  149.0770 C   0  0  0  0  0  2  0  0  0  0  0  0
  158.8590  213.9390  151.2860 N   0  0  0  0  0  0  0  0  0  0  0  0
  157.7660  213.3160  151.7910 O   0  0  0  0  0  1  0  0  0  0  0  0
  160.0600  213.3720  151.9230 C   0  0  0  0  0  2  0  0  0  0  0  0
  158.1180  212.7630  149.1610 C   0  0  0  0  0  1  0  0  0  0  0  0
  160.6980  212.1420  151.2560 C   0  0  1  0  0  3  0  0  0  0  0  0
  162.3240  212.3180  147.7850 N   0  0  0  0  0  1  0  0  0  0  0  0
  162.1680  213.6730  148.2860 C   0  0  0  0  0  2  0  0  0  0  0  0
  162.3520  206.8550  148.1370 C   0  0  0  0  0  3  0  0  0  0  0  0
  161.8210  206.5600  149.4030 C   0  0  0  0  0  0  0  0  0  0  0  0
  161.2410  205.2990  149.6200 C   0  0  0  0  0  3  0  0  0  0  0  0
  160.6360  203.1390  148.8130 F   0  0  0  0  0  0  0  0  0  0  0  0
  161.7300  204.6570  147.3380 C   0  0  0  0  0  3  0  0  0  0  0  0
  161.1970  204.3520  148.5930 C   0  0  0  0  0  0  0  0  0  0  0  0
  162.3070  205.9090  147.1100 C   0  0  0  0  0  3  0  0  0  0  0  0
  1 10  1  0  0  0  0
  1 16  1  0  0  0  0
  1 18  1  0  0  0  0
  2 14  2  0  0  0  0
  2  6  1  0  0  0  0
  4  8  1  0  0  0  0
  4 16  1  0  0  0  0
  5 15  1  0  0  0  0
  5  2  1  1  0  0  0
  6  4  2  0  0  0  0
  7  3  1  1  0  0  0
  7  5  1  0  0  0  0
  9 13  1  0  0  0  0
  9  6  1  0  0  0  0
 11 14  1  0  0  0  0
 12  8  2  0  0  0  0
 13  1  1  0  0  0  0
 14 12  1  0  0  0  0
 15  9  1  1  0  0  0
 17  7  1  0  0  0  0
 17 19  1  0  0  0  0
 19 11  1  0  0  0  0
 21 20  1  0  0  0  0
 22 27  1  6  0  0  0
 22 24  1  0  0  0  0
 23 21  1  0  0  0  0
 23 22  1  0  0  0  0
 24 25  1  0  0  0  0
 24 26  1  0  0  0  0
 28 20  1  6  0  0  0
 28 15  1  0  0  0  0
 28 26  1  0  0  0  0
 29 30  1  0  0  0  0
 30 21  1  0  0  0  0
 31 32  1  0  0  0  0
 32 33  2  0  0  0  0
 32 17  1  0  0  0  0
 35 36  2  0  0  0  0
 36 34  1  0  0  0  0
 36 33  1  0  0  0  0
 37 35  1  0  0  0  0
 37 31  2  0  0  0  0
M  END
>  <MODEL>
4

>  <REMARK>
 VINA RESULT:      -3.2      1.136      1.300
  Name = 
  3 active torsions:
  status: ('A' for Active; 'I' for Inactive)
    1  A    between atoms: N_4  and  C_37
    2  A    between atoms: C_21  and  C_27
    3  A    between atoms: N_23  and  C_30
                            x       y       z     vdW  Elec       q    Type
                         _______ _______ _______ _____ _____    ______ ____

>  <TORSDO>
F 3

$$$$
=
 OpenBabel11122413363D

 37 42  0  0  1  0  0  0  0  0999 V2000
  162.2600  213.2270  147.7170 C   0  0  0  0  0  0  0  0  0  0  0  0
  161.0650  210.4370  150.5860 C   0  0  0  0  0  0  0  0  0  0  0  0
  162.4430  211.0900  153.0200 F   0  0  0  0  0  0  0  0  0  0  0  0
  162.2340  210.8050  148.5310 C   0  0  0  0  0  0  0  0  0  0  0  0
  160.4560  211.2480  151.6870 C   0  0  1  0  0  3  0  0  0  0  0  0
  161.5100  211.2640  149.6150 C   0  0  0  0  0  0  0  0  0  0  0  0
  161.0720  210.8900  153.0420 C   0  0  1  0  0  3  0  0  0  0  0  0
  162.4850  209.4670  148.4430 N   0  0  0  0  0  0  0  0  0  0  0  0
  161.3090  212.6190  149.9100 N   0  0  0  0  0  0  0  0  0  0  0  0
  160.9410  213.2840  146.9640 C   0  0  0  0  0  1  0  0  0  0  0  0
  161.0180  208.1390  151.6680 C   0  0  0  0  0  2  0  0  0  0  0  0
  162.0460  208.5930  149.4060 C   0  0  0  0  0  3  0  0  0  0  0  0
  162.0360  213.6550  149.1840 C   0  0  0  0  0  2  0  0  0  0  0  0
  161.3210  209.0620  150.5210 C   0  0  0  0  0  0  0  0  0  0  0  0
  160.7520  212.7160  151.2610 C   0  0  1  0  0  3  0  0  0  0  0  0
  162.8620  211.8030  147.5950 C   0  0  0  0  0  2  0  0  0  0  0  0
  160.7750  209.4930  153.4050 N   0  0  0  0  0  0  0  0  0  0  0  0
  163.2150  214.2070  147.0710 C   0  0  0  0  0  1  0  0  0  0  0  0
  160.0720  208.7020  152.5430 O   0  0  0  0  0  0  0  0  0  0  0  0
  158.2600  212.9960  150.5950 C   0  0  0  0  0  2  0  0  0  0  0  0
  157.1130  213.8630  150.8460 N   0  0  0  0  0  0  0  0  0  0  0  0
  157.3240  212.9610  153.2280 C   0  0  2  0  0  3  0  0  0  0  0  0
  156.4230  213.4840  152.0870 C   0  0  0  0  0  2  0  0  0  0  0  0
  158.4750  213.8170  153.5940 N   0  0  0  0  0  0  0  0  0  0  0  0
  159.3190  213.1430  154.4130 O   0  0  0  0  0  1  0  0  0  0  0  0
  159.2620  214.4380  152.5140 C   0  0  0  0  0  2  0  0  0  0  0  0
  157.6380  211.4730  153.0970 C   0  0  0  0  0  1  0  0  0  0  0  0
  159.5030  213.6000  151.2470 C   0  0  1  0  0  3  0  0  0  0  0  0
  154.8410  214.0680  150.1800 N   0  0  0  0  0  1  0  0  0  0  0  0
  156.1670  213.6460  149.7640 C   0  0  0  0  0  2  0  0  0  0  0  0
  161.9720  209.7160  155.5470 C   0  0  0  0  0  3  0  0  0  0  0  0
  161.1090  208.9890  154.7120 C   0  0  0  0  0  0  0  0  0  0  0  0
  160.5900  207.7670  155.1700 C   0  0  0  0  0  3  0  0  0  0  0  0
  160.4170  206.1040  156.8700 F   0  0  0  0  0  0  0  0  0  0  0  0
  161.7830  208.0170  157.2610 C   0  0  0  0  0  3  0  0  0  0  0  0
  160.9240  207.2840  156.4380 C   0  0  0  0  0  0  0  0  0  0  0  0
  162.3070  209.2330  156.8140 C   0  0  0  0  0  3  0  0  0  0  0  0
  1 13  1  0  0  0  0
  4  6  1  0  0  0  0
  5  2  1  6  0  0  0
  5  7  1  0  0  0  0
  6  9  1  0  0  0  0
  6  2  2  0  0  0  0
  7  3  1  6  0  0  0
  7 17  1  0  0  0  0
  8  4  2  0  0  0  0
  8 12  1  0  0  0  0
 10  1  1  0  0  0  0
 11 19  1  0  0  0  0
 12 14  2  0  0  0  0
 13  9  1  0  0  0  0
 14  2  1  0  0  0  0
 14 11  1  0  0  0  0
 15  9  1  6  0  0  0
 15  5  1  0  0  0  0
 16  1  1  0  0  0  0
 16  4  1  0  0  0  0
 17 32  1  0  0  0  0
 18  1  1  0  0  0  0
 19 17  1  0  0  0  0
 20 21  1  0  0  0  0
 21 23  1  0  0  0  0
 22 27  1  6  0  0  0
 22 24  1  0  0  0  0
 23 22  1  0  0  0  0
 24 25  1  0  0  0  0
 26 24  1  0  0  0  0
 28 20  1  1  0  0  0
 28 15  1  0  0  0  0
 28 26  1  0  0  0  0
 30 29  1  0  0  0  0
 30 21  1  0  0  0  0
 31 37  1  0  0  0  0
 32 33  1  0  0  0  0
 32 31  2  0  0  0  0
 33 36  2  0  0  0  0
 36 34  1  0  0  0  0
 36 35  1  0  0  0  0
 37 35  2  0  0  0  0
M  END
>  <MODEL>
5

>  <REMARK>
 VINA RESULT:      -2.0      3.116      6.444
  Name = 
  3 active torsions:
  status: ('A' for Active; 'I' for Inactive)
    1  A    between atoms: N_4  and  C_37
    2  A    between atoms: C_21  and  C_27
    3  A    between atoms: N_23  and  C_30
                            x       y       z     vdW  Elec       q    Type
                         _______ _______ _______ _____ _____    ______ ____

>  <TORSDO>
F 3

$$$$
=
 OpenBabel11122413363D

 37 42  0  0  1  0  0  0  0  0999 V2000
  159.8580  209.5780  154.9280 C   0  0  0  0  0  0  0  0  0  0  0  0
  161.5930  207.3670  151.8390 C   0  0  0  0  0  0  0  0  0  0  0  0
  159.6520  207.2020  149.7290 F   0  0  0  0  0  0  0  0  0  0  0  0
  160.7740  207.3460  154.0860 C   0  0  0  0  0  0  0  0  0  0  0  0
  161.5840  208.2820  150.6530 C   0  0  1  0  0  3  0  0  0  0  0  0
  161.0210  207.9930  152.8910 C   0  0  0  0  0  0  0  0  0  0  0  0
  160.9470  207.6020  149.4380 C   0  0  1  0  0  3  0  0  0  0  0  0
  161.1430  206.0380  154.2010 N   0  0  0  0  0  0  0  0  0  0  0  0
  160.5620  209.2810  152.5830 N   0  0  0  0  0  0  0  0  0  0  0  0
  161.1360  210.2430  155.4110 C   0  0  0  0  0  1  0  0  0  0  0  0
  162.4260  205.2380  150.7330 C   0  0  0  0  0  2  0  0  0  0  0  0
  161.7320  205.3690  153.1580 C   0  0  0  0  0  3  0  0  0  0  0  0
  159.6050  209.9580  153.4520 C   0  0  0  0  0  2  0  0  0  0  0  0
  161.9700  206.0220  151.9310 C   0  0  0  0  0  0  0  0  0  0  0  0
  160.7680  209.5100  151.1510 C   0  0  1  0  0  3  0  0  0  0  0  0
  159.9600  208.0460  155.1420 C   0  0  0  0  0  2  0  0  0  0  0  0
  161.7440  206.4420  149.0030 N   0  0  0  0  0  0  0  0  0  0  0  0
  158.7090  210.1030  155.7620 C   0  0  0  0  0  1  0  0  0  0  0  0
  162.8620  206.0860  149.7000 O   0  0  0  0  0  0  0  0  0  0  0  0
  161.7390  211.2460  149.4840 C   0  0  0  0  0  2  0  0  0  0  0  0
  162.2430  212.6140  149.4430 N   0  0  0  0  0  0  0  0  0  0  0  0
  159.8420  213.2100  150.0830 C   0  0  2  0  0  3  0  0  0  0  0  0
  161.1440  213.5830  149.3400 C   0  0  0  0  0  2  0  0  0  0  0  0
  159.9880  212.8430  151.5090 N   0  0  0  0  0  0  0  0  0  0  0  0
  158.8380  212.2970  151.9740 O   0  0  0  0  0  1  0  0  0  0  0  0
  161.1130  211.9750  151.9010 C   0  0  0  0  0  2  0  0  0  0  0  0
  158.9400  212.2890  149.2650 C   0  0  0  0  0  1  0  0  0  0  0  0
  161.4950  210.8390  150.9360 C   0  0  1  0  0  3  0  0  0  0  0  0
  162.1450  212.7460  147.0720 N   0  0  0  0  0  1  0  0  0  0  0  0
  163.0270  212.7460  148.2260 C   0  0  0  0  0  2  0  0  0  0  0  0
  160.8730  206.4580  146.6990 C   0  0  0  0  0  3  0  0  0  0  0  0
  161.4280  205.7530  147.7780 C   0  0  0  0  0  0  0  0  0  0  0  0
  161.6600  204.3750  147.6430 C   0  0  0  0  0  3  0  0  0  0  0  0
  161.5730  202.3850  146.3320 F   0  0  0  0  0  0  0  0  0  0  0  0
  160.7940  204.4280  145.3830 C   0  0  0  0  0  3  0  0  0  0  0  0
  161.3460  203.7160  146.4510 C   0  0  0  0  0  0  0  0  0  0  0  0
  160.5580  205.7990  145.5080 C   0  0  0  0  0  3  0  0  0  0  0  0
  1 16  1  0  0  0  0
  1 10  1  0  0  0  0
  1 18  1  0  0  0  0
  2 14  2  0  0  0  0
  2  6  1  0  0  0  0
  4  8  1  0  0  0  0
  4 16  1  0  0  0  0
  5 15  1  0  0  0  0
  5  2  1  1  0  0  0
  6  4  2  0  0  0  0
  7  3  1  1  0  0  0
  7  5  1  0  0  0  0
  9  6  1  0  0  0  0
  9 13  1  0  0  0  0
 11 14  1  0  0  0  0
 12  8  2  0  0  0  0
 13  1  1  0  0  0  0
 14 12  1  0  0  0  0
 15  9  1  1  0  0  0
 17  7  1  0  0  0  0
 17 19  1  0  0  0  0
 19 11  1  0  0  0  0
 21 20  1  0  0  0  0
 22 27  1  6  0  0  0
 22 24  1  0  0  0  0
 23 21  1  0  0  0  0
 23 22  1  0  0  0  0
 24 26  1  0  0  0  0
 24 25  1  0  0  0  0
 28 20  1  6  0  0  0
 28 15  1  0  0  0  0
 28 26  1  0  0  0  0
 29 30  1  0  0  0  0
 30 21  1  0  0  0  0
 31 32  1  0  0  0  0
 32 17  1  0  0  0  0
 33 32  2  0  0  0  0
 34 36  1  0  0  0  0
 35 37  1  0  0  0  0
 35 36  2  0  0  0  0
 36 33  1  0  0  0  0
 37 31  2  0  0  0  0
M  END
>  <MODEL>
6

>  <REMARK>
 VINA RESULT:      -1.9      1.147      1.246
  Name = 
  3 active torsions:
  status: ('A' for Active; 'I' for Inactive)
    1  A    between atoms: N_4  and  C_37
    2  A    between atoms: C_21  and  C_27
    3  A    between atoms: N_23  and  C_30
                            x       y       z     vdW  Elec       q    Type
                         _______ _______ _______ _____ _____    ______ ____

>  <TORSDO>
F 3

$$$$
