=
 OpenBabel11122413233D

 31 35  0  0  1  0  0  0  0  0999 V2000
  161.0510  204.3530  145.4380 C   0  0  0  0  0  0  0  0  0  0  0  0
  160.5280  205.9040  148.8770 C   0  0  2  0  0  3  0  0  0  0  0  0
  160.8860  204.8660  149.9220 C   0  0  0  0  0  0  0  0  0  0  0  0
  161.0980  202.5370  150.6410 C   0  0  0  0  0  0  0  0  0  0  0  0
  161.1080  205.6160  147.5100 C   0  0  0  0  0  0  0  0  0  0  0  0
  162.1610  205.0620  144.9710 C   0  0  0  0  0  3  0  0  0  0  0  0
  160.8450  203.5630  149.6230 C   0  0  0  0  0  3  0  0  0  0  0  0
  162.3530  207.6660  149.1730 C   0  0  2  0  0  3  0  0  0  0  0  0
  160.4860  203.3950  144.6660 F   0  0  0  0  0  0  0  0  0  0  0  0
  161.1760  206.7510  151.6650 C   0  0  0  0  0  2  0  0  0  0  0  0
  161.0730  201.3220  150.3170 O   0  0  0  0  0  0  0  0  0  0  0  0
  162.7850  207.3950  147.8060 N   0  0  0  0  0  2  0  0  0  0  0  0
  160.8580  207.3380  149.3420 C   0  0  2  0  0  3  0  0  0  0  0  0
  160.5230  204.6330  146.7020 C   0  0  0  0  0  3  0  0  0  0  0  0
  161.3830  202.9170  152.0660 C   0  0  0  0  0  2  0  0  0  0  0  0
  162.2240  206.3320  147.0330 C   0  0  0  0  0  0  0  0  0  0  0  0
  162.7420  206.0540  145.7650 C   0  0  0  0  0  3  0  0  0  0  0  0
  160.3980  207.5560  150.7200 N   0  0  0  0  0  2  0  0  0  0  0  0
  161.1170  205.2940  151.3270 C   0  0  0  0  0  0  0  0  0  0  0  0
  161.3610  204.4050  152.2950 C   0  0  0  0  0  3  0  0  0  0  0  0
  161.2870  209.8930  147.7510 O   0  0  0  0  0  0  0  0  0  0  0  0
  162.0260  210.1350  148.7450 C   0  0  0  0  0  0  0  0  0  0  0  0
  162.5990  209.0640  149.4950 N   0  0  0  0  0  2  0  0  0  0  0  0
  160.9680  213.4900  147.4890 C   0  0  1  0  0  3  0  0  0  0  0  0
  161.0470  212.3020  149.5510 C   0  0  0  0  0  2  0  0  0  0  0  0
  164.1870  211.6170  147.6080 O   0  0  0  0  0  1  0  0  0  0  0  0
  160.0760  213.9190  146.3440 C   0  0  0  0  0  1  0  0  0  0  0  0
  160.2230  212.5970  148.3770 N   0  0  0  0  0  2  0  0  0  0  0  0
  163.0970  212.3450  148.0880 C   0  0  2  0  0  3  0  0  0  0  0  0
  162.3220  211.5500  149.1510 C   0  0  2  0  0  3  0  0  0  0  0  0
  162.1930  212.7710  146.9330 C   0  0  0  0  0  2  0  0  0  0  0  0
  1 14  1  0  0  0  0
  2  5  1  6  0  0  0
  2 13  1  0  0  0  0
  2  3  1  0  0  0  0
  3 19  1  0  0  0  0
  4 15  1  0  0  0  0
  6  1  2  0  0  0  0
  6 17  1  0  0  0  0
  7  3  2  0  0  0  0
  7  4  1  0  0  0  0
  8 13  1  0  0  0  0
  8 23  1  6  0  0  0
  9  1  1  0  0  0  0
 11  4  2  0  0  0  0
 12  8  1  0  0  0  0
 13 18  1  1  0  0  0
 14  5  2  0  0  0  0
 15 20  1  0  0  0  0
 16  5  1  0  0  0  0
 16 12  1  0  0  0  0
 17 16  2  0  0  0  0
 18 10  1  0  0  0  0
 19 10  1  0  0  0  0
 19 20  2  0  0  0  0
 21 22  2  0  0  0  0
 22 23  1  0  0  0  0
 24 27  1  6  0  0  0
 24 28  1  0  0  0  0
 28 25  1  0  0  0  0
 29 26  1  6  0  0  0
 29 30  1  0  0  0  0
 30 22  1  6  0  0  0
 30 25  1  0  0  0  0
 31 24  1  0  0  0  0
 31 29  1  0  0  0  0
M  END
>  <MODEL>
1

>  <REMARK>
 VINA RESULT:      -7.7      0.000      0.000
  Name = 
  2 active torsions:
  status: ('A' for Active; 'I' for Inactive)
    1  A    between atoms: C_5  and  C_30
    2  A    between atoms: C_10  and  N_16
                            x       y       z     vdW  Elec       q    Type
                         _______ _______ _______ _____ _____    ______ ____

>  <TORSDO>
F 2

$$$$
=
 OpenBabel11122413233D

 31 35  0  0  1  0  0  0  0  0999 V2000
  160.9500  206.8430  146.8080 C   0  0  0  0  0  0  0  0  0  0  0  0
  160.3270  205.0780  150.1250 C   0  0  2  0  0  3  0  0  0  0  0  0
  160.7670  203.6340  149.9820 C   0  0  0  0  0  0  0  0  0  0  0  0
  161.1600  201.6410  148.6180 C   0  0  0  0  0  0  0  0  0  0  0  0
  160.9210  206.0010  149.0850 C   0  0  0  0  0  0  0  0  0  0  0  0
  162.0020  207.7030  147.1360 C   0  0  0  0  0  3  0  0  0  0  0  0
  160.8250  203.0620  148.7740 C   0  0  0  0  0  3  0  0  0  0  0  0
  162.0140  206.0280  151.7910 C   0  0  2  0  0  3  0  0  0  0  0  0
  160.4560  206.8270  145.5480 F   0  0  0  0  0  0  0  0  0  0  0  0
  160.9220  203.4480  152.5540 C   0  0  0  0  0  2  0  0  0  0  0  0
  161.2250  201.1430  147.4650 O   0  0  0  0  0  0  0  0  0  0  0  0
  162.4600  206.9540  150.7550 N   0  0  0  0  0  2  0  0  0  0  0  0
  160.5500  205.6170  151.5540 C   0  0  2  0  0  3  0  0  0  0  0  0
  160.4090  205.9980  147.7810 C   0  0  0  0  0  3  0  0  0  0  0  0
  161.4220  200.7730  149.8150 C   0  0  0  0  0  2  0  0  0  0  0  0
  161.9770  206.8740  149.4120 C   0  0  0  0  0  0  0  0  0  0  0  0
  162.5090  207.7230  148.4380 C   0  0  0  0  0  3  0  0  0  0  0  0
  160.0810  204.6470  152.5540 N   0  0  0  0  0  2  0  0  0  0  0  0
  160.9720  202.8090  151.2010 C   0  0  0  0  0  0  0  0  0  0  0  0
  161.2880  201.5130  151.1200 C   0  0  0  0  0  3  0  0  0  0  0  0
  160.5490  208.2970  152.6960 O   0  0  0  0  0  0  0  0  0  0  0  0
  161.3820  207.7850  153.4930 C   0  0  0  0  0  0  0  0  0  0  0  0
  162.1550  206.6510  153.0990 N   0  0  0  0  0  2  0  0  0  0  0  0
  159.3680  210.0210  155.7050 C   0  0  1  0  0  3  0  0  0  0  0  0
  160.4770  207.9180  155.8310 C   0  0  0  0  0  2  0  0  0  0  0  0
  162.6150  210.3280  153.9030 O   0  0  0  0  0  1  0  0  0  0  0  0
  158.0290  210.7030  155.5240 C   0  0  0  0  0  1  0  0  0  0  0  0
  159.2090  208.5800  155.5160 N   0  0  0  0  0  2  0  0  0  0  0  0
  161.7120  209.8930  154.8750 C   0  0  2  0  0  3  0  0  0  0  0  0
  161.5810  208.3620  154.8650 C   0  0  2  0  0  3  0  0  0  0  0  0
  160.3600  210.5760  154.6870 C   0  0  0  0  0  2  0  0  0  0  0  0
  1  6  2  0  0  0  0
  1 14  1  0  0  0  0
  2  5  1  6  0  0  0
  2 13  1  0  0  0  0
  3  2  1  0  0  0  0
  3 19  1  0  0  0  0
  4  7  1  0  0  0  0
  4 15  1  0  0  0  0
  5 16  1  0  0  0  0
  6 17  1  0  0  0  0
  7  3  2  0  0  0  0
  8 23  1  1  0  0  0
  9  1  1  0  0  0  0
 10 18  1  0  0  0  0
 11  4  2  0  0  0  0
 12  8  1  0  0  0  0
 13  8  1  0  0  0  0
 13 18  1  1  0  0  0
 14  5  2  0  0  0  0
 15 20  1  0  0  0  0
 16 12  1  0  0  0  0
 17 16  2  0  0  0  0
 19 10  1  0  0  0  0
 20 19  2  0  0  0  0
 21 22  2  0  0  0  0
 23 22  1  0  0  0  0
 24 27  1  6  0  0  0
 28 24  1  0  0  0  0
 28 25  1  0  0  0  0
 29 26  1  6  0  0  0
 30 22  1  6  0  0  0
 30 29  1  0  0  0  0
 30 25  1  0  0  0  0
 31 29  1  0  0  0  0
 31 24  1  0  0  0  0
M  END
>  <MODEL>
2

>  <REMARK>
 VINA RESULT:      -7.1      3.401      4.887
  Name = 
  2 active torsions:
  status: ('A' for Active; 'I' for Inactive)
    1  A    between atoms: C_5  and  C_30
    2  A    between atoms: C_10  and  N_16
                            x       y       z     vdW  Elec       q    Type
                         _______ _______ _______ _____ _____    ______ ____

>  <TORSDO>
F 2

$$$$
=
 OpenBabel11122413233D

 31 35  0  0  1  0  0  0  0  0999 V2000
  160.8270  207.1100  156.3140 C   0  0  0  0  0  0  0  0  0  0  0  0
  161.9300  208.0220  152.7840 C   0  0  2  0  0  3  0  0  0  0  0  0
  161.4700  206.9220  151.8470 C   0  0  0  0  0  0  0  0  0  0  0  0
  160.8770  204.5870  151.4140 C   0  0  0  0  0  0  0  0  0  0  0  0
  161.1900  208.0450  154.1030 C   0  0  0  0  0  0  0  0  0  0  0  0
  159.8370  208.0660  156.5590 C   0  0  0  0  0  3  0  0  0  0  0  0
  161.2340  205.6900  152.3140 C   0  0  0  0  0  3  0  0  0  0  0  0
  160.5080  210.0170  152.0630 C   0  0  2  0  0  3  0  0  0  0  0  0
  161.1300  206.1910  157.2610 F   0  0  0  0  0  0  0  0  0  0  0  0
  161.6950  208.5520  149.8560 C   0  0  0  0  0  2  0  0  0  0  0  0
  160.6420  203.4490  151.8920 O   0  0  0  0  0  0  0  0  0  0  0  0
  159.9170  210.0310  153.3970 N   0  0  0  0  0  2  0  0  0  0  0  0
  161.9200  209.4070  152.1050 C   0  0  2  0  0  3  0  0  0  0  0  0
  161.5040  207.1030  155.0910 C   0  0  0  0  0  3  0  0  0  0  0  0
  160.7930  204.7990  149.9300 C   0  0  0  0  0  2  0  0  0  0  0  0
  160.1960  209.0100  154.3570 C   0  0  0  0  0  0  0  0  0  0  0  0
  159.5280  209.0180  155.5850 C   0  0  0  0  0  3  0  0  0  0  0  0
  162.5300  209.3360  150.7700 N   0  0  0  0  0  2  0  0  0  0  0  0
  161.4460  207.1730  150.3820 C   0  0  0  0  0  0  0  0  0  0  0  0
  161.1190  206.2090  149.5150 C   0  0  0  0  0  3  0  0  0  0  0  0
  158.3750  211.9030  152.1570 O   0  0  0  0  0  0  0  0  0  0  0  0
  159.4570  212.2730  151.6250 C   0  0  0  0  0  0  0  0  0  0  0  0
  160.5630  211.3740  151.5380 N   0  0  0  0  0  2  0  0  0  0  0  0
  157.7850  214.1690  148.8750 C   0  0  1  0  0  3  0  0  0  0  0  0
  158.2930  214.4530  151.1830 C   0  0  0  0  0  2  0  0  0  0  0  0
  161.2250  212.8620  149.4600 O   0  0  0  0  0  1  0  0  0  0  0  0
  156.7030  213.7940  147.8850 C   0  0  0  0  0  1  0  0  0  0  0  0
  157.2930  213.9570  150.2360 N   0  0  0  0  0  2  0  0  0  0  0  0
  160.1130  213.6900  149.6180 C   0  0  2  0  0  3  0  0  0  0  0  0
  159.6000  213.6600  151.0670 C   0  0  2  0  0  3  0  0  0  0  0  0
  159.0190  213.3080  148.6250 C   0  0  0  0  0  2  0  0  0  0  0  0
  1  6  1  0  0  0  0
  1  9  1  0  0  0  0
  2  3  1  6  0  0  0
  2  5  1  0  0  0  0
  3  7  2  0  0  0  0
  4 11  2  0  0  0  0
  4  7  1  0  0  0  0
  5 16  2  0  0  0  0
  5 14  1  0  0  0  0
  8 23  1  1  0  0  0
  8 13  1  0  0  0  0
  8 12  1  0  0  0  0
 10 19  1  0  0  0  0
 10 18  1  0  0  0  0
 12 16  1  0  0  0  0
 13 18  1  6  0  0  0
 13  2  1  0  0  0  0
 14  1  2  0  0  0  0
 15  4  1  0  0  0  0
 16 17  1  0  0  0  0
 17  6  2  0  0  0  0
 19  3  1  0  0  0  0
 20 15  1  0  0  0  0
 20 19  2  0  0  0  0
 22 21  2  0  0  0  0
 23 22  1  0  0  0  0
 24 27  1  6  0  0  0
 24 28  1  0  0  0  0
 28 25  1  0  0  0  0
 29 26  1  1  0  0  0
 29 30  1  0  0  0  0
 30 25  1  0  0  0  0
 30 22  1  6  0  0  0
 31 24  1  0  0  0  0
 31 29  1  0  0  0  0
M  END
>  <MODEL>
3

>  <REMARK>
 VINA RESULT:      -6.7      3.825      5.940
  Name = 
  2 active torsions:
  status: ('A' for Active; 'I' for Inactive)
    1  A    between atoms: C_5  and  C_30
    2  A    between atoms: C_10  and  N_16
                            x       y       z     vdW  Elec       q    Type
                         _______ _______ _______ _____ _____    ______ ____

>  <TORSDO>
F 2

$$$$
=
 OpenBabel11122413233D

 31 35  0  0  1  0  0  0  0  0999 V2000
  161.0130  204.8010  145.1200 C   0  0  0  0  0  0  0  0  0  0  0  0
  160.5460  205.1900  148.8800 C   0  0  2  0  0  3  0  0  0  0  0  0
  160.8990  203.8710  149.5390 C   0  0  0  0  0  0  0  0  0  0  0  0
  161.0850  201.4320  149.4810 C   0  0  0  0  0  0  0  0  0  0  0  0
  161.1080  205.3430  147.4840 C   0  0  0  0  0  0  0  0  0  0  0  0
  162.1290  205.6090  144.8860 C   0  0  0  0  0  3  0  0  0  0  0  0
  160.8370  202.7300  148.8430 C   0  0  0  0  0  3  0  0  0  0  0  0
  162.3990  206.7490  149.6930 C   0  0  2  0  0  3  0  0  0  0  0  0
  160.4260  204.1420  144.0930 F   0  0  0  0  0  0  0  0  0  0  0  0
  161.2340  205.1050  151.7840 C   0  0  0  0  0  2  0  0  0  0  0  0
  161.0380  200.3830  148.7900 O   0  0  0  0  0  0  0  0  0  0  0  0
  162.8140  206.9190  148.3050 N   0  0  0  0  0  2  0  0  0  0  0  0
  160.9020  206.4000  149.7700 C   0  0  2  0  0  3  0  0  0  0  0  0
  160.5020  204.6720  146.4150 C   0  0  0  0  0  3  0  0  0  0  0  0
  161.3890  201.3390  150.9490 C   0  0  0  0  0  2  0  0  0  0  0  0
  162.2300  206.1610  147.2430 C   0  0  0  0  0  0  0  0  0  0  0  0
  162.7310  206.2930  145.9450 C   0  0  0  0  0  3  0  0  0  0  0  0
  160.4590  206.1760  151.1530 N   0  0  0  0  0  2  0  0  0  0  0  0
  161.1500  203.8300  151.0030 C   0  0  0  0  0  0  0  0  0  0  0  0
  161.3910  202.6780  151.6370 C   0  0  0  0  0  3  0  0  0  0  0  0
  161.4930  209.3500  148.9670 O   0  0  0  0  0  0  0  0  0  0  0  0
  162.1770  209.2440  150.0220 C   0  0  0  0  0  0  0  0  0  0  0  0
  162.6690  207.9700  150.4380 N   0  0  0  0  0  2  0  0  0  0  0  0
  160.2240  211.3620  152.4000 C   0  0  1  0  0  3  0  0  0  0  0  0
  162.2910  210.1810  152.3490 C   0  0  0  0  0  2  0  0  0  0  0  0
  161.7670  211.8980  149.0510 O   0  0  0  0  0  1  0  0  0  0  0  0
  158.7850  211.3140  152.8670 C   0  0  0  0  0  1  0  0  0  0  0  0
  160.8670  210.0770  152.6750 N   0  0  0  0  0  2  0  0  0  0  0  0
  161.7110  211.7090  150.4320 C   0  0  2  0  0  3  0  0  0  0  0  0
  162.4910  210.4540  150.8530 C   0  0  2  0  0  3  0  0  0  0  0  0
  160.2600  211.6540  150.9030 C   0  0  0  0  0  2  0  0  0  0  0  0
  1 14  1  0  0  0  0
  2  5  1  6  0  0  0
  2  3  1  0  0  0  0
  2 13  1  0  0  0  0
  3 19  1  0  0  0  0
  4 15  1  0  0  0  0
  6  1  2  0  0  0  0
  6 17  1  0  0  0  0
  7  4  1  0  0  0  0
  7  3  2  0  0  0  0
  8 13  1  0  0  0  0
  8 23  1  1  0  0  0
  9  1  1  0  0  0  0
 11  4  2  0  0  0  0
 12  8  1  0  0  0  0
 13 18  1  1  0  0  0
 14  5  2  0  0  0  0
 15 20  1  0  0  0  0
 16  5  1  0  0  0  0
 16 12  1  0  0  0  0
 17 16  2  0  0  0  0
 18 10  1  0  0  0  0
 19 20  2  0  0  0  0
 19 10  1  0  0  0  0
 21 22  2  0  0  0  0
 22 23  1  0  0  0  0
 24 28  1  0  0  0  0
 24 27  1  6  0  0  0
 25 28  1  0  0  0  0
 29 26  1  6  0  0  0
 29 30  1  0  0  0  0
 29 31  1  0  0  0  0
 30 22  1  6  0  0  0
 30 25  1  0  0  0  0
 31 24  1  0  0  0  0
M  END
>  <MODEL>
4

>  <REMARK>
 VINA RESULT:      -6.7      1.951      2.500
  Name = 
  2 active torsions:
  status: ('A' for Active; 'I' for Inactive)
    1  A    between atoms: C_5  and  C_30
    2  A    between atoms: C_10  and  N_16
                            x       y       z     vdW  Elec       q    Type
                         _______ _______ _______ _____ _____    ______ ____

>  <TORSDO>
F 2

$$$$
=
 OpenBabel11122413233D

 31 35  0  0  1  0  0  0  0  0999 V2000
  160.8230  210.1170  154.8190 C   0  0  0  0  0  0  0  0  0  0  0  0
  162.1180  209.9850  151.2400 C   0  0  2  0  0  3  0  0  0  0  0  0
  161.6520  208.6850  150.6160 C   0  0  0  0  0  0  0  0  0  0  0  0
  160.9750  206.3410  150.8080 C   0  0  0  0  0  0  0  0  0  0  0  0
  161.3240  210.3950  152.4600 C   0  0  0  0  0  0  0  0  0  0  0  0
  159.8670  211.1340  154.7390 C   0  0  0  0  0  3  0  0  0  0  0  0
  161.3400  207.6380  151.3890 C   0  0  0  0  0  3  0  0  0  0  0  0
  160.8200  211.7480  149.9240 C   0  0  2  0  0  3  0  0  0  0  0  0
  161.0430  209.4860  155.9970 F   0  0  0  0  0  0  0  0  0  0  0  0
  162.0370  209.6950  148.2700 C   0  0  0  0  0  2  0  0  0  0  0  0
  160.6680  205.3860  151.5660 O   0  0  0  0  0  0  0  0  0  0  0  0
  160.1720  212.1470  151.1690 N   0  0  0  0  0  2  0  0  0  0  0  0
  162.2010  211.1300  150.2080 C   0  0  2  0  0  3  0  0  0  0  0  0
  161.5520  209.7520  153.6840 C   0  0  0  0  0  3  0  0  0  0  0  0
  160.9650  206.1380  149.3200 C   0  0  0  0  0  2  0  0  0  0  0  0
  160.3630  211.4230  152.3860 C   0  0  0  0  0  0  0  0  0  0  0  0
  159.6430  211.7890  153.5260 C   0  0  0  0  0  3  0  0  0  0  0  0
  162.8640  210.6740  148.9790 N   0  0  0  0  0  2  0  0  0  0  0  0
  161.7030  208.5230  149.1400 C   0  0  0  0  0  0  0  0  0  0  0  0
  161.3720  207.3680  148.5540 C   0  0  0  0  0  3  0  0  0  0  0  0
  159.9550  211.8740  147.2120 O   0  0  0  0  0  0  0  0  0  0  0  0
  160.4950  212.9040  147.7010 C   0  0  0  0  0  0  0  0  0  0  0  0
  160.9580  212.9050  149.0510 N   0  0  0  0  0  2  0  0  0  0  0  0
  161.7040  213.5780  144.2320 C   0  0  1  0  0  3  0  0  0  0  0  0
  159.8200  214.0910  145.5940 C   0  0  0  0  0  2  0  0  0  0  0  0
  162.9470  214.3700  147.6540 O   0  0  0  0  0  1  0  0  0  0  0  0
  162.2280  212.6740  143.1370 C   0  0  0  0  0  1  0  0  0  0  0  0
  160.3730  213.1290  144.6380 N   0  0  0  0  0  2  0  0  0  0  0  0
  162.1330  214.4530  146.5240 C   0  0  2  0  0  3  0  0  0  0  0  0
  160.6680  214.1440  146.8700 C   0  0  2  0  0  3  0  0  0  0  0  0
  162.6570  213.5350  145.4230 C   0  0  0  0  0  2  0  0  0  0  0  0
  1  9  1  0  0  0  0
  2  3  1  6  0  0  0
  2  5  1  0  0  0  0
  3  7  2  0  0  0  0
  4  7  1  0  0  0  0
  4 11  2  0  0  0  0
  5 14  1  0  0  0  0
  6  1  1  0  0  0  0
  8 23  1  6  0  0  0
  8 13  1  0  0  0  0
  8 12  1  0  0  0  0
 10 18  1  0  0  0  0
 10 19  1  0  0  0  0
 12 16  1  0  0  0  0
 13 18  1  6  0  0  0
 13  2  1  0  0  0  0
 14  1  2  0  0  0  0
 15  4  1  0  0  0  0
 16  5  2  0  0  0  0
 16 17  1  0  0  0  0
 17  6  2  0  0  0  0
 19  3  1  0  0  0  0
 20 19  2  0  0  0  0
 20 15  1  0  0  0  0
 21 22  2  0  0  0  0
 22 23  1  0  0  0  0
 24 27  1  6  0  0  0
 24 28  1  0  0  0  0
 24 31  1  0  0  0  0
 25 30  1  0  0  0  0
 28 25  1  0  0  0  0
 29 30  1  0  0  0  0
 29 26  1  1  0  0  0
 30 22  1  6  0  0  0
 31 29  1  0  0  0  0
M  END
>  <MODEL>
5

>  <REMARK>
 VINA RESULT:      -6.1      3.480      5.976
  Name = 
  2 active torsions:
  status: ('A' for Active; 'I' for Inactive)
    1  A    between atoms: C_5  and  C_30
    2  A    between atoms: C_10  and  N_16
                            x       y       z     vdW  Elec       q    Type
                         _______ _______ _______ _____ _____    ______ ____

>  <TORSDO>
F 2

$$$$
=
 OpenBabel11122413233D

 31 35  0  0  1  0  0  0  0  0999 V2000
  160.5010  208.0010  155.3860 C   0  0  0  0  0  0  0  0  0  0  0  0
  161.9820  208.6050  151.9290 C   0  0  2  0  0  3  0  0  0  0  0  0
  161.4430  207.5420  150.9920 C   0  0  0  0  0  0  0  0  0  0  0  0
  160.5600  205.2960  150.5850 C   0  0  0  0  0  0  0  0  0  0  0  0
  161.1570  208.7850  153.1840 C   0  0  0  0  0  0  0  0  0  0  0  0
  159.6400  209.0940  155.5220 C   0  0  0  0  0  3  0  0  0  0  0  0
  161.0010  206.3750  151.4760 C   0  0  0  0  0  3  0  0  0  0  0  0
  160.9140  210.7470  151.0370 C   0  0  2  0  0  3  0  0  0  0  0  0
  160.5990  207.0890  156.3810 F   0  0  0  0  0  0  0  0  0  0  0  0
  162.0450  209.0420  148.9770 C   0  0  0  0  0  2  0  0  0  0  0  0
  160.1310  204.2220  151.0770 O   0  0  0  0  0  0  0  0  0  0  0  0
  160.2330  210.8970  152.3180 N   0  0  0  0  0  2  0  0  0  0  0  0
  162.2190  209.9500  151.2100 C   0  0  2  0  0  3  0  0  0  0  0  0
  161.2600  207.8500  154.2220 C   0  0  0  0  0  3  0  0  0  0  0  0
  160.6180  205.4560  149.0920 C   0  0  0  0  0  2  0  0  0  0  0  0
  160.2920  209.8880  153.3280 C   0  0  0  0  0  0  0  0  0  0  0  0
  159.5420  210.0390  154.4980 C   0  0  0  0  0  3  0  0  0  0  0  0
  162.9110  209.7390  149.9300 N   0  0  0  0  0  2  0  0  0  0  0  0
  161.5640  207.7330  149.5230 C   0  0  0  0  0  0  0  0  0  0  0  0
  161.1700  206.7890  148.6630 C   0  0  0  0  0  3  0  0  0  0  0  0
  160.6370  211.4590  148.2920 O   0  0  0  0  0  0  0  0  0  0  0  0
  161.0310  212.3530  149.0900 C   0  0  0  0  0  0  0  0  0  0  0  0
  161.1990  212.0600  150.4770 N   0  0  0  0  0  2  0  0  0  0  0  0
  160.6420  214.1030  145.8130 C   0  0  1  0  0  3  0  0  0  0  0  0
  160.0760  214.4530  148.0990 C   0  0  0  0  0  2  0  0  0  0  0  0
  163.5380  213.0120  147.8890 O   0  0  0  0  0  1  0  0  0  0  0  0
  160.1200  213.6490  144.4660 C   0  0  0  0  0  1  0  0  0  0  0  0
  159.6150  213.8830  146.8310 N   0  0  0  0  0  2  0  0  0  0  0  0
  162.4310  213.7760  147.5140 C   0  0  2  0  0  3  0  0  0  0  0  0
  161.3380  213.7370  148.5950 C   0  0  2  0  0  3  0  0  0  0  0  0
  161.9000  213.3130  146.1600 C   0  0  0  0  0  2  0  0  0  0  0  0
  1  6  1  0  0  0  0
  1  9  1  0  0  0  0
  2  3  1  6  0  0  0
  2  5  1  0  0  0  0
  3  7  2  0  0  0  0
  4 11  2  0  0  0  0
  4  7  1  0  0  0  0
  5 16  2  0  0  0  0
  5 14  1  0  0  0  0
  8 23  1  1  0  0  0
  8 13  1  0  0  0  0
  8 12  1  0  0  0  0
 10 19  1  0  0  0  0
 10 18  1  0  0  0  0
 12 16  1  0  0  0  0
 13 18  1  6  0  0  0
 13  2  1  0  0  0  0
 14  1  2  0  0  0  0
 15  4  1  0  0  0  0
 16 17  1  0  0  0  0
 17  6  2  0  0  0  0
 19  3  1  0  0  0  0
 20 15  1  0  0  0  0
 20 19  2  0  0  0  0
 21 22  2  0  0  0  0
 22 23  1  0  0  0  0
 24 27  1  6  0  0  0
 24 31  1  0  0  0  0
 24 28  1  0  0  0  0
 25 30  1  0  0  0  0
 28 25  1  0  0  0  0
 29 26  1  1  0  0  0
 29 30  1  0  0  0  0
 30 22  1  6  0  0  0
 31 29  1  0  0  0  0
M  END
>  <MODEL>
6

>  <REMARK>
 VINA RESULT:      -5.9      3.158      5.417
  Name = 
  2 active torsions:
  status: ('A' for Active; 'I' for Inactive)
    1  A    between atoms: C_5  and  C_30
    2  A    between atoms: C_10  and  N_16
                            x       y       z     vdW  Elec       q    Type
                         _______ _______ _______ _____ _____    ______ ____

>  <TORSDO>
F 2

$$$$
=
 OpenBabel11122413233D

 31 35  0  0  1  0  0  0  0  0999 V2000
  162.1100  206.4870  147.6070 C   0  0  0  0  0  0  0  0  0  0  0  0
  162.3290  209.3120  150.1520 C   0  0  2  0  0  3  0  0  0  0  0  0
  161.6960  210.5470  149.5420 C   0  0  0  0  0  0  0  0  0  0  0  0
  161.0870  211.9030  147.5970 C   0  0  0  0  0  0  0  0  0  0  0  0
  161.9190  208.0220  149.4780 C   0  0  0  0  0  0  0  0  0  0  0  0
  161.1770  205.6360  148.2060 C   0  0  0  0  0  3  0  0  0  0  0  0
  161.6120  210.6780  148.2130 C   0  0  0  0  0  3  0  0  0  0  0  0
  160.7200  208.7210  152.0450 C   0  0  2  0  0  3  0  0  0  0  0  0
  162.6530  206.1620  146.4100 F   0  0  0  0  0  0  0  0  0  0  0  0
  161.4020  211.5400  151.9090 C   0  0  0  0  0  2  0  0  0  0  0  0
  161.0040  211.9800  146.3450 O   0  0  0  0  0  0  0  0  0  0  0  0
  160.4570  207.4520  151.3760 N   0  0  0  0  0  2  0  0  0  0  0  0
  162.1210  209.2440  151.6790 C   0  0  2  0  0  3  0  0  0  0  0  0
  162.4820  207.6740  148.2440 C   0  0  0  0  0  3  0  0  0  0  0  0
  160.6520  213.0660  148.4420 C   0  0  0  0  0  2  0  0  0  0  0  0
  160.9830  207.1580  150.0800 C   0  0  0  0  0  0  0  0  0  0  0  0
  160.6210  205.9680  149.4430 C   0  0  0  0  0  3  0  0  0  0  0  0
  162.4030  210.5460  152.3010 N   0  0  0  0  0  2  0  0  0  0  0  0
  161.3230  211.6870  150.4200 C   0  0  0  0  0  0  0  0  0  0  0  0
  160.8310  212.8230  149.9170 C   0  0  0  0  0  3  0  0  0  0  0  0
  159.1460  210.3400  153.7820 O   0  0  0  0  0  0  0  0  0  0  0  0
  159.7960  209.3910  154.3000 C   0  0  0  0  0  0  0  0  0  0  0  0
  160.6110  208.5470  153.4870 N   0  0  0  0  0  2  0  0  0  0  0  0
  162.0840  210.0710  157.1730 C   0  0  1  0  0  3  0  0  0  0  0  0
  159.8080  210.4410  156.5800 C   0  0  0  0  0  2  0  0  0  0  0  0
  160.8300  207.0010  155.4740 O   0  0  0  0  0  1  0  0  0  0  0  0
  163.4560  210.7040  157.2610 C   0  0  0  0  0  1  0  0  0  0  0  0
  161.1580  211.0050  156.5330 N   0  0  0  0  0  2  0  0  0  0  0  0
  160.7890  208.1410  156.2790 C   0  0  2  0  0  3  0  0  0  0  0  0
  159.7310  209.1360  155.7780 C   0  0  2  0  0  3  0  0  0  0  0  0
  162.1720  208.7830  156.3610 C   0  0  0  0  0  2  0  0  0  0  0  0
  1  6  2  0  0  0  0
  1 14  1  0  0  0  0
  2  5  1  6  0  0  0
  2 13  1  0  0  0  0
  3  2  1  0  0  0  0
  3 19  1  0  0  0  0
  4  7  1  0  0  0  0
  4 15  1  0  0  0  0
  5 16  1  0  0  0  0
  6 17  1  0  0  0  0
  7  3  2  0  0  0  0
  8 23  1  1  0  0  0
  9  1  1  0  0  0  0
 10 18  1  0  0  0  0
 11  4  2  0  0  0  0
 12  8  1  0  0  0  0
 13  8  1  0  0  0  0
 13 18  1  6  0  0  0
 14  5  2  0  0  0  0
 15 20  1  0  0  0  0
 16 12  1  0  0  0  0
 17 16  2  0  0  0  0
 19 10  1  0  0  0  0
 20 19  2  0  0  0  0
 21 22  2  0  0  0  0
 23 22  1  0  0  0  0
 24 27  1  6  0  0  0
 28 25  1  0  0  0  0
 28 24  1  0  0  0  0
 29 26  1  6  0  0  0
 29 31  1  0  0  0  0
 30 22  1  6  0  0  0
 30 29  1  0  0  0  0
 30 25  1  0  0  0  0
 31 24  1  0  0  0  0
M  END
>  <MODEL>
7

>  <REMARK>
 VINA RESULT:      -5.0      3.779      7.076
  Name = 
  2 active torsions:
  status: ('A' for Active; 'I' for Inactive)
    1  A    between atoms: C_5  and  C_30
    2  A    between atoms: C_10  and  N_16
                            x       y       z     vdW  Elec       q    Type
                         _______ _______ _______ _____ _____    ______ ____

>  <TORSDO>
F 2

$$$$
=
 OpenBabel11122413233D

 31 35  0  0  1  0  0  0  0  0999 V2000
  161.6630  213.0620  148.1830 C   0  0  0  0  0  0  0  0  0  0  0  0
  159.4570  214.0610  151.1230 C   0  0  2  0  0  3  0  0  0  0  0  0
  158.0170  214.0700  150.6510 C   0  0  0  0  0  0  0  0  0  0  0  0
  156.3450  214.3290  148.8820 C   0  0  0  0  0  0  0  0  0  0  0  0
  160.3830  213.2580  150.2360 C   0  0  0  0  0  0  0  0  0  0  0  0
  162.1010  211.7930  148.5730 C   0  0  0  0  0  3  0  0  0  0  0  0
  157.7310  214.2250  149.3530 C   0  0  0  0  0  3  0  0  0  0  0  0
  159.5060  212.1110  152.7730 C   0  0  2  0  0  3  0  0  0  0  0  0
  162.0650  213.5820  146.9990 F   0  0  0  0  0  0  0  0  0  0  0  0
  157.2320  213.8870  153.1050 C   0  0  0  0  0  2  0  0  0  0  0  0
  156.1150  214.4530  147.6530 O   0  0  0  0  0  0  0  0  0  0  0  0
  160.4750  211.4500  151.9060 N   0  0  0  0  0  2  0  0  0  0  0  0
  159.5830  213.6390  152.6020 C   0  0  2  0  0  3  0  0  0  0  0  0
  160.8100  213.7930  149.0140 C   0  0  0  0  0  3  0  0  0  0  0  0
  155.1970  214.2920  149.8500 C   0  0  0  0  0  2  0  0  0  0  0  0
  160.8310  211.9810  150.6280 C   0  0  0  0  0  0  0  0  0  0  0  0
  161.6910  211.2570  149.7960 C   0  0  0  0  0  3  0  0  0  0  0  0
  158.5880  214.3380  153.4280 N   0  0  0  0  0  2  0  0  0  0  0  0
  156.9190  214.0750  151.6530 C   0  0  0  0  0  0  0  0  0  0  0  0
  155.6380  214.1570  151.2830 C   0  0  0  0  0  3  0  0  0  0  0  0
  157.6570  210.7930  154.4930 O   0  0  0  0  0  0  0  0  0  0  0  0
  158.7910  211.0800  154.9650 C   0  0  0  0  0  0  0  0  0  0  0  0
  159.7610  211.7480  154.1590 N   0  0  0  0  0  2  0  0  0  0  0  0
  161.9800  210.8590  156.8980 C   0  0  1  0  0  3  0  0  0  0  0  0
  159.8440  211.8910  157.0960 C   0  0  0  0  0  2  0  0  0  0  0  0
  159.4140  208.4080  155.7610 O   0  0  0  0  0  1  0  0  0  0  0  0
  163.4270  211.0780  156.5130 C   0  0  0  0  0  1  0  0  0  0  0  0
  161.2080  212.0620  156.5910 N   0  0  0  0  0  2  0  0  0  0  0  0
  159.9670  209.4430  156.5160 C   0  0  2  0  0  3  0  0  0  0  0  0
  159.1380  210.7310  156.3840 C   0  0  2  0  0  3  0  0  0  0  0  0
  161.4240  209.6690  156.1220 C   0  0  0  0  0  2  0  0  0  0  0  0
  1  6  2  0  0  0  0
  1 14  1  0  0  0  0
  2  5  1  6  0  0  0
  2 13  1  0  0  0  0
  3  2  1  0  0  0  0
  3 19  1  0  0  0  0
  4  7  1  0  0  0  0
  4 15  1  0  0  0  0
  5 16  1  0  0  0  0
  6 17  1  0  0  0  0
  7  3  2  0  0  0  0
  8 23  1  1  0  0  0
  9  1  1  0  0  0  0
 10 18  1  0  0  0  0
 11  4  2  0  0  0  0
 12  8  1  0  0  0  0
 13  8  1  0  0  0  0
 13 18  1  1  0  0  0
 14  5  2  0  0  0  0
 15 20  1  0  0  0  0
 16 12  1  0  0  0  0
 17 16  2  0  0  0  0
 19 10  1  0  0  0  0
 20 19  2  0  0  0  0
 21 22  2  0  0  0  0
 23 22  1  0  0  0  0
 24 27  1  6  0  0  0
 28 24  1  0  0  0  0
 28 25  1  0  0  0  0
 29 26  1  6  0  0  0
 30 22  1  6  0  0  0
 30 29  1  0  0  0  0
 30 25  1  0  0  0  0
 31 29  1  0  0  0  0
 31 24  1  0  0  0  0
M  END
>  <MODEL>
8

>  <REMARK>
 VINA RESULT:      -4.9      5.989      9.248
  Name = 
  2 active torsions:
  status: ('A' for Active; 'I' for Inactive)
    1  A    between atoms: C_5  and  C_30
    2  A    between atoms: C_10  and  N_16
                            x       y       z     vdW  Elec       q    Type
                         _______ _______ _______ _____ _____    ______ ____

>  <TORSDO>
F 2

$$$$
