=
 OpenBabel11122414383D

 34 40  0  0  1  0  0  0  0  0999 V2000
  161.5870  207.8390  154.7680 C   0  0  1  0  0  3  0  0  0  0  0  0
  160.6260  206.0080  153.2450 C   0  0  0  0  0  2  0  0  0  0  0  0
  156.9750  212.2530  154.8030 C   0  0  0  0  0  0  0  0  0  0  0  0
  160.2950  209.6540  155.9410 C   0  0  2  0  0  3  0  0  0  0  0  0
  159.4110  211.5990  154.6060 C   0  0  2  0  0  3  0  0  0  0  0  0
  158.4550  213.5040  153.1690 C   0  0  0  0  0  1  0  0  0  0  0  0
  156.1150  212.0830  153.8980 O   0  0  0  0  0  0  0  0  0  0  0  0
  157.5870  212.1560  157.2610 C   0  0  0  0  0  2  0  0  0  0  0  0
  161.8630  207.8220  152.2210 C   0  0  2  0  0  3  0  0  0  0  0  0
  161.9370  208.3880  149.1560 C   0  0  0  0  0  2  0  0  0  0  0  0
  159.5160  210.7540  153.3360 C   0  0  0  0  0  2  0  0  0  0  0  0
  158.9550  211.4610  157.1150 C   0  0  0  0  0  2  0  0  0  0  0  0
  160.8470  208.9980  152.1360 C   0  0  1  0  0  3  0  0  0  0  0  0
  160.6590  205.7400  151.7520 C   0  0  0  0  0  2  0  0  0  0  0  0
  159.1530  210.6700  155.8130 C   0  0  2  0  0  3  0  0  0  0  0  0
  156.6640  211.9000  156.1530 N   0  0  0  0  0  2  0  0  0  0  0  0
  161.0420  207.3240  149.7970 C   0  0  2  0  0  3  0  0  0  0  0  0
  160.4340  208.8380  154.6400 C   0  0  1  0  0  3  0  0  0  0  0  0
  158.3640  212.7210  154.4730 C   0  0  1  0  0  3  0  0  0  0  0  0
  160.6850  209.7740  153.4510 C   0  0  2  0  0  3  0  0  0  0  0  0
  161.2540  207.7670  157.2610 C   0  0  0  0  0  2  0  0  0  0  0  0
  162.3180  209.5490  150.0780 C   0  0  0  0  0  2  0  0  0  0  0  0
  160.0630  208.7050  157.1180 C   0  0  0  0  0  2  0  0  0  0  0  0
  161.1760  209.9890  150.9960 C   0  0  0  0  0  2  0  0  0  0  0  0
  161.5990  206.7730  151.1280 C   0  0  1  0  0  3  0  0  0  0  0  0
  161.4160  206.9360  155.9930 C   0  0  0  0  0  2  0  0  0  0  0  0
  161.7440  207.0010  153.4980 C   0  0  1  0  0  3  0  0  0  0  0  0
  160.8350  206.2110  148.7810 C   0  0  0  0  0  2  0  0  0  0  0  0
  161.3560  206.6440  147.4210 C   0  0  0  0  0  2  0  0  0  0  0  0
  161.2040  203.4030  146.5370 N   0  0  0  0  0  2  0  0  0  0  0  0
  161.8750  205.3760  145.3710 C   0  0  0  0  0  2  0  0  0  0  0  0
  162.2360  205.5600  146.8230 C   0  0  2  0  0  3  0  0  0  0  0  0
  161.5680  203.9040  145.2230 C   0  0  0  0  0  2  0  0  0  0  0  0
  161.9480  204.2240  147.4820 C   0  0  0  0  0  2  0  0  0  0  0  0
  1 26  1  1  0  0  0
  2 27  1  0  0  0  0
  3 16  1  0  0  0  0
  4 23  1  1  0  0  0
  5 11  1  6  0  0  0
  5 15  1  0  0  0  0
  6 19  1  0  0  0  0
  7  3  2  0  0  0  0
  9 27  1  0  0  0  0
 10 17  1  0  0  0  0
 10 22  1  0  0  0  0
 11 20  1  0  0  0  0
 12  8  1  0  0  0  0
 13  9  1  0  0  0  0
 13 20  1  0  0  0  0
 14  2  1  0  0  0  0
 15  4  1  0  0  0  0
 15 12  1  0  0  0  0
 16  8  1  0  0  0  0
 17 25  1  0  0  0  0
 18  1  1  0  0  0  0
 18  4  1  0  0  0  0
 19  5  1  0  0  0  0
 19  3  1  0  0  0  0
 20 18  1  0  0  0  0
 22 24  1  0  0  0  0
 23 21  1  0  0  0  0
 24 13  1  0  0  0  0
 25 14  1  0  0  0  0
 25  9  1  0  0  0  0
 26 21  1  0  0  0  0
 27  1  1  0  0  0  0
 28 17  1  0  0  0  0
 29 28  1  0  0  0  0
 30 34  1  0  0  0  0
 31 32  1  0  0  0  0
 32 29  1  0  0  0  0
 32 34  1  0  0  0  0
 33 31  1  0  0  0  0
 33 30  1  0  0  0  0
M  END
>  <MODEL>
1

>  <REMARK>
 VINA RESULT:      -8.3      0.000      0.000
  Name = 
  3 active torsions:
  status: ('A' for Active; 'I' for Inactive)
    1  A    between atoms: C_17  and  C_28
    2  A    between atoms: C_28  and  C_29
    3  A    between atoms: C_29  and  C_32
                            x       y       z     vdW  Elec       q    Type
                         _______ _______ _______ _____ _____    ______ ____

>  <TORSDO>
F 3

$$$$
=
 OpenBabel11122414383D

 34 40  0  0  1  0  0  0  0  0999 V2000
  161.7470  207.3580  153.5310 C   0  0  1  0  0  3  0  0  0  0  0  0
  160.3900  205.6130  152.2240 C   0  0  0  0  0  2  0  0  0  0  0  0
  158.3720  212.7150  152.7110 C   0  0  0  0  0  0  0  0  0  0  0  0
  160.9230  209.5830  154.3720 C   0  0  2  0  0  3  0  0  0  0  0  0
  160.5740  211.4680  152.7370 C   0  0  2  0  0  3  0  0  0  0  0  0
  160.1460  213.3170  151.0030 C   0  0  0  0  0  1  0  0  0  0  0  0
  157.5140  212.6280  151.7920 O   0  0  0  0  0  0  0  0  0  0  0  0
  158.8960  212.8330  155.1880 C   0  0  0  0  0  2  0  0  0  0  0  0
  162.0560  206.9020  151.0290 C   0  0  2  0  0  3  0  0  0  0  0  0
  162.3240  206.9790  147.9240 C   0  0  0  0  0  2  0  0  0  0  0  0
  160.4890  210.4470  151.6030 C   0  0  0  0  0  2  0  0  0  0  0  0
  160.0510  211.8130  155.2130 C   0  0  0  0  0  2  0  0  0  0  0  0
  161.3650  208.2640  150.7290 C   0  0  1  0  0  3  0  0  0  0  0  0
  160.3830  205.1290  150.7860 C   0  0  0  0  0  2  0  0  0  0  0  0
  160.0710  210.8170  154.0450 C   0  0  2  0  0  3  0  0  0  0  0  0
  157.9590  212.6490  154.0780 N   0  0  0  0  0  2  0  0  0  0  0  0
  161.1820  206.2690  148.6560 C   0  0  2  0  0  3  0  0  0  0  0  0
  160.8790  208.5770  153.2050 C   0  0  1  0  0  3  0  0  0  0  0  0
  159.8400  212.7780  152.3950 C   0  0  1  0  0  3  0  0  0  0  0  0
  161.3760  209.2400  151.9140 C   0  0  2  0  0  3  0  0  0  0  0  0
  161.3600  207.7340  155.9880 C   0  0  0  0  0  2  0  0  0  0  0  0
  162.9640  208.1340  148.6970 C   0  0  0  0  0  2  0  0  0  0  0  0
  160.4420  208.9020  155.6540 C   0  0  0  0  0  2  0  0  0  0  0  0
  161.9500  208.9680  149.4830 C   0  0  0  0  0  2  0  0  0  0  0  0
  161.5610  205.8000  150.0770 C   0  0  1  0  0  3  0  0  0  0  0  0
  161.3340  206.7130  154.8580 C   0  0  0  0  0  2  0  0  0  0  0  0
  161.7150  206.3310  152.3980 C   0  0  1  0  0  3  0  0  0  0  0  0
  160.7240  205.1030  147.7920 C   0  0  0  0  0  2  0  0  0  0  0  0
  161.5290  203.8590  148.1280 C   0  0  0  0  0  2  0  0  0  0  0  0
  161.5640  200.5070  147.8540 N   0  0  0  0  0  2  0  0  0  0  0  0
  160.9340  201.9870  149.6190 C   0  0  0  0  0  2  0  0  0  0  0  0
  160.6050  202.6680  148.3140 C   0  0  2  0  0  3  0  0  0  0  0  0
  161.1920  200.5430  149.2580 C   0  0  0  0  0  2  0  0  0  0  0  0
  160.8630  201.6270  147.2400 C   0  0  0  0  0  2  0  0  0  0  0  0
  1 26  1  1  0  0  0
  2 27  1  0  0  0  0
  3 16  1  0  0  0  0
  4 23  1  1  0  0  0
  5 11  1  6  0  0  0
  5 15  1  0  0  0  0
  6 19  1  0  0  0  0
  7  3  2  0  0  0  0
  8 12  1  0  0  0  0
  9 27  1  0  0  0  0
 10 17  1  0  0  0  0
 10 22  1  0  0  0  0
 11 20  1  0  0  0  0
 13  9  1  0  0  0  0
 13 20  1  0  0  0  0
 14  2  1  0  0  0  0
 15  4  1  0  0  0  0
 15 12  1  0  0  0  0
 16  8  1  0  0  0  0
 17 25  1  0  0  0  0
 18  1  1  0  0  0  0
 18  4  1  0  0  0  0
 19  3  1  0  0  0  0
 19  5  1  0  0  0  0
 20 18  1  0  0  0  0
 22 24  1  0  0  0  0
 23 21  1  0  0  0  0
 24 13  1  0  0  0  0
 25 14  1  0  0  0  0
 25  9  1  0  0  0  0
 26 21  1  0  0  0  0
 27  1  1  0  0  0  0
 28 29  1  0  0  0  0
 28 17  1  0  0  0  0
 29 32  1  0  0  0  0
 30 33  1  0  0  0  0
 32 31  1  0  0  0  0
 33 31  1  0  0  0  0
 34 30  1  0  0  0  0
 34 32  1  0  0  0  0
M  END
>  <MODEL>
2

>  <REMARK>
 VINA RESULT:      -8.3      1.717      2.422
  Name = 
  3 active torsions:
  status: ('A' for Active; 'I' for Inactive)
    1  A    between atoms: C_17  and  C_28
    2  A    between atoms: C_28  and  C_29
    3  A    between atoms: C_29  and  C_32
                            x       y       z     vdW  Elec       q    Type
                         _______ _______ _______ _____ _____    ______ ____

>  <TORSDO>
F 3

$$$$
=
 OpenBabel11122414383D

 34 40  0  0  1  0  0  0  0  0999 V2000
  161.6850  209.1190  154.9030 C   0  0  1  0  0  3  0  0  0  0  0  0
  160.5980  206.9260  154.1270 C   0  0  0  0  0  2  0  0  0  0  0  0
  157.3150  213.5130  153.3690 C   0  0  0  0  0  0  0  0  0  0  0  0
  160.5140  211.3010  155.3560 C   0  0  2  0  0  3  0  0  0  0  0  0
  159.7090  212.6960  153.4190 C   0  0  2  0  0  3  0  0  0  0  0  0
  158.8270  214.0200  151.3990 C   0  0  0  0  0  1  0  0  0  0  0  0
  156.4300  213.0830  152.5820 O   0  0  0  0  0  0  0  0  0  0  0  0
  157.9680  214.2570  155.7030 C   0  0  0  0  0  2  0  0  0  0  0  0
  161.9100  208.1870  152.5280 C   0  0  2  0  0  3  0  0  0  0  0  0
  161.9540  207.6280  149.4610 C   0  0  0  0  0  2  0  0  0  0  0  0
  159.7440  211.4520  152.5300 C   0  0  0  0  0  2  0  0  0  0  0  0
  159.2940  213.4790  155.8130 C   0  0  0  0  0  2  0  0  0  0  0  0
  160.9560  209.3120  152.0310 C   0  0  1  0  0  3  0  0  0  0  0  0
  160.5890  206.1460  152.8260 C   0  0  0  0  0  2  0  0  0  0  0  0
  159.4250  212.2700  154.8770 C   0  0  2  0  0  3  0  0  0  0  0  0
  157.0120  213.6780  154.7570 N   0  0  0  0  0  2  0  0  0  0  0  0
  161.0170  206.9120  150.4370 C   0  0  2  0  0  3  0  0  0  0  0  0
  160.5840  210.0720  154.4290 C   0  0  1  0  0  3  0  0  0  0  0  0
  158.7200  213.7550  152.8970 C   0  0  1  0  0  3  0  0  0  0  0  0
  160.8610  210.5110  152.9860 C   0  0  2  0  0  3  0  0  0  0  0  0
  161.3970  209.9530  157.2600 C   0  0  0  0  0  2  0  0  0  0  0  0
  162.4140  209.0160  149.9120 C   0  0  0  0  0  2  0  0  0  0  0  0
  160.2550  210.8450  156.7930 C   0  0  0  0  0  2  0  0  0  0  0  0
  161.3150  209.8160  150.6140 C   0  0  0  0  0  2  0  0  0  0  0  0
  161.5700  206.8360  151.8770 C   0  0  1  0  0  3  0  0  0  0  0  0
  161.4890  208.7200  156.3690 C   0  0  0  0  0  2  0  0  0  0  0  0
  161.7730  207.8790  154.0120 C   0  0  1  0  0  3  0  0  0  0  0  0
  160.7320  205.5250  149.8800 C   0  0  0  0  0  2  0  0  0  0  0  0
  160.7590  205.5570  148.3620 C   0  0  0  0  0  2  0  0  0  0  0  0
  161.3140  203.3470  145.8890 N   0  0  0  0  0  2  0  0  0  0  0  0
  162.4830  205.2970  146.6180 C   0  0  0  0  0  2  0  0  0  0  0  0
  161.8620  204.6570  147.8340 C   0  0  2  0  0  3  0  0  0  0  0  0
  162.3920  204.2530  145.5300 C   0  0  0  0  0  2  0  0  0  0  0  0
  161.2820  203.3430  147.3440 C   0  0  0  0  0  2  0  0  0  0  0  0
  1 26  1  1  0  0  0
  3 16  1  0  0  0  0
  4 23  1  1  0  0  0
  5 11  1  6  0  0  0
  5 15  1  0  0  0  0
  6 19  1  0  0  0  0
  7  3  2  0  0  0  0
  8 12  1  0  0  0  0
  9 27  1  0  0  0  0
 10 22  1  0  0  0  0
 10 17  1  0  0  0  0
 11 20  1  0  0  0  0
 13  9  1  0  0  0  0
 13 20  1  0  0  0  0
 14  2  1  0  0  0  0
 15  4  1  0  0  0  0
 15 12  1  0  0  0  0
 16  8  1  0  0  0  0
 17 25  1  0  0  0  0
 18  1  1  0  0  0  0
 18  4  1  0  0  0  0
 19  3  1  0  0  0  0
 19  5  1  0  0  0  0
 20 18  1  0  0  0  0
 22 24  1  0  0  0  0
 23 21  1  0  0  0  0
 24 13  1  0  0  0  0
 25  9  1  0  0  0  0
 25 14  1  0  0  0  0
 26 21  1  0  0  0  0
 27  2  1  0  0  0  0
 27  1  1  0  0  0  0
 28 17  1  0  0  0  0
 29 28  1  0  0  0  0
 30 34  1  0  0  0  0
 31 32  1  0  0  0  0
 32 29  1  0  0  0  0
 33 30  1  0  0  0  0
 33 31  1  0  0  0  0
 34 32  1  0  0  0  0
M  END
>  <MODEL>
3

>  <REMARK>
 VINA RESULT:      -7.7      1.223      1.501
  Name = 
  3 active torsions:
  status: ('A' for Active; 'I' for Inactive)
    1  A    between atoms: C_17  and  C_28
    2  A    between atoms: C_28  and  C_29
    3  A    between atoms: C_29  and  C_32
                            x       y       z     vdW  Elec       q    Type
                         _______ _______ _______ _____ _____    ______ ____

>  <TORSDO>
F 3

$$$$
=
 OpenBabel11122414383D

 34 40  0  0  1  0  0  0  0  0999 V2000
  161.6560  210.7310  151.3160 C   0  0  1  0  0  3  0  0  0  0  0  0
  159.3660  211.4960  152.1910 C   0  0  0  0  0  2  0  0  0  0  0  0
  160.6540  204.6050  149.8230 C   0  0  0  0  0  0  0  0  0  0  0  0
  162.1220  208.7180  149.8770 C   0  0  2  0  0  3  0  0  0  0  0  0
  162.0440  206.4200  150.9070 C   0  0  2  0  0  3  0  0  0  0  0  0
  161.8520  204.1010  152.0000 C   0  0  0  0  0  1  0  0  0  0  0  0
  159.5840  204.1430  150.3020 O   0  0  0  0  0  0  0  0  0  0  0  0
  161.9620  205.4010  147.8030 C   0  0  0  0  0  2  0  0  0  0  0  0
  160.9170  210.4920  153.7570 C   0  0  2  0  0  3  0  0  0  0  0  0
  160.1580  209.5780  156.6390 C   0  0  0  0  0  2  0  0  0  0  0  0
  161.1890  206.9770  152.0450 C   0  0  0  0  0  2  0  0  0  0  0  0
  162.5480  206.6860  148.4180 C   0  0  0  0  0  2  0  0  0  0  0  0
  160.7740  208.9580  153.5290 C   0  0  1  0  0  3  0  0  0  0  0  0
  158.6940  211.5020  153.5510 C   0  0  0  0  0  2  0  0  0  0  0  0
  161.7820  207.2430  149.6260 C   0  0  2  0  0  3  0  0  0  0  0  0
  160.7230  204.9450  148.4360 N   0  0  0  0  0  2  0  0  0  0  0  0
  159.1360  210.0830  155.6170 C   0  0  2  0  0  3  0  0  0  0  0  0
  161.2970  209.2650  151.0590 C   0  0  1  0  0  3  0  0  0  0  0  0
  161.8310  204.9080  150.7070 C   0  0  1  0  0  3  0  0  0  0  0  0
  161.5650  208.4350  152.3210 C   0  0  2  0  0  3  0  0  0  0  0  0
  162.2830  211.0050  148.8950 C   0  0  0  0  0  2  0  0  0  0  0  0
  161.4230  208.9640  156.0360 C   0  0  0  0  0  2  0  0  0  0  0  0
  161.8570  209.5670  148.6330 C   0  0  0  0  0  2  0  0  0  0  0  0
  161.1490  208.1320  154.7810 C   0  0  0  0  0  2  0  0  0  0  0  0
  159.7380  211.0490  154.5730 C   0  0  1  0  0  3  0  0  0  0  0  0
  161.4790  211.5820  150.0540 C   0  0  0  0  0  2  0  0  0  0  0  0
  160.8440  211.3100  152.4760 C   0  0  1  0  0  3  0  0  0  0  0  0
  157.9940  210.7360  156.3800 C   0  0  0  0  0  2  0  0  0  0  0  0
  158.4850  211.9910  157.0820 C   0  0  0  0  0  2  0  0  0  0  0  0
  157.2780  214.3760  155.0410 N   0  0  0  0  0  2  0  0  0  0  0  0
  156.2470  212.5800  156.2300 C   0  0  0  0  0  2  0  0  0  0  0  0
  157.4110  213.0650  157.0570 C   0  0  2  0  0  3  0  0  0  0  0  0
  156.0270  213.6520  155.1890 C   0  0  0  0  0  2  0  0  0  0  0  0
  157.9220  214.3050  156.3450 C   0  0  0  0  0  2  0  0  0  0  0  0
  1 26  1  6  0  0  0
  1 27  1  0  0  0  0
  2 27  1  0  0  0  0
  2 14  1  0  0  0  0
  3  7  2  0  0  0  0
  3 19  1  0  0  0  0
  4 23  1  6  0  0  0
  4 18  1  0  0  0  0
  5 11  1  1  0  0  0
  8 12  1  0  0  0  0
  8 16  1  0  0  0  0
  9 25  1  0  0  0  0
 11 20  1  0  0  0  0
 12 15  1  0  0  0  0
 13  9  1  0  0  0  0
 13 24  1  0  0  0  0
 14 25  1  0  0  0  0
 15  4  1  0  0  0  0
 15  5  1  0  0  0  0
 16  3  1  0  0  0  0
 17 28  1  0  0  0  0
 17 10  1  0  0  0  0
 18  1  1  0  0  0  0
 18 20  1  0  0  0  0
 19  5  1  0  0  0  0
 19  6  1  0  0  0  0
 20 13  1  0  0  0  0
 21 26  1  0  0  0  0
 22 10  1  0  0  0  0
 23 21  1  0  0  0  0
 24 22  1  0  0  0  0
 25 17  1  0  0  0  0
 27  9  1  0  0  0  0
 28 29  1  0  0  0  0
 30 33  1  0  0  0  0
 30 34  1  0  0  0  0
 31 32  1  0  0  0  0
 32 29  1  0  0  0  0
 33 31  1  0  0  0  0
 34 32  1  0  0  0  0
M  END
>  <MODEL>
4

>  <REMARK>
 VINA RESULT:      -7.1      2.154      8.930
  Name = 
  3 active torsions:
  status: ('A' for Active; 'I' for Inactive)
    1  A    between atoms: C_17  and  C_28
    2  A    between atoms: C_28  and  C_29
    3  A    between atoms: C_29  and  C_32
                            x       y       z     vdW  Elec       q    Type
                         _______ _______ _______ _____ _____    ______ ____

>  <TORSDO>
F 3

$$$$
