=
 OpenBabel11122413073D

 31 35  0  0  1  0  0  0  0  0999 V2000
  160.6550  207.6320  156.2120 C   0  0  0  0  0  0  0  0  0  0  0  0
  161.4880  208.6410  152.7510 N   0  0  0  0  0  0  0  0  0  0  0  0
  161.3690  207.4550  151.9240 C   0  0  0  0  0  0  0  0  0  0  0  0
  161.0790  205.0510  151.6760 C   0  0  0  0  0  0  0  0  0  0  0  0
  160.9890  208.6880  154.1040 C   0  0  0  0  0  0  0  0  0  0  0  0
  160.0450  208.7790  156.7200 C   0  0  0  0  0  3  0  0  0  0  0  0
  161.1930  206.1810  152.4880 C   0  0  0  0  0  3  0  0  0  0  0  0
  160.7740  210.9250  152.3380 C   0  0  0  0  0  0  0  0  0  0  0  0
  160.7950  206.5360  156.9960 F   0  0  0  0  0  0  0  0  0  0  0  0
  161.5550  208.9160  149.8830 C   0  0  0  0  0  2  0  0  0  0  0  0
  160.8960  203.7100  152.2910 C   0  0  0  0  0  1  0  0  0  0  0  0
  160.2160  211.0960  153.7270 C   0  0  0  0  0  2  0  0  0  0  0  0
  161.8890  209.9310  152.1660 C   0  0  2  0  0  3  0  0  0  0  0  0
  160.3580  211.6270  151.3220 N   0  0  0  0  0  0  0  0  0  0  0  0
  161.1100  207.6120  154.9310 N   0  0  0  0  0  0  0  0  0  0  0  0
  161.1340  205.1800  150.2870 C   0  0  0  0  0  3  0  0  0  0  0  0
  160.3800  209.8680  154.5870 C   0  0  0  0  0  0  0  0  0  0  0  0
  159.9090  209.8990  155.9000 C   0  0  0  0  0  3  0  0  0  0  0  0
  162.4390  209.8110  150.7370 C   0  0  0  0  0  2  0  0  0  0  0  0
  161.4330  207.5710  150.5200 C   0  0  0  0  0  0  0  0  0  0  0  0
  161.3040  206.4390  149.7100 C   0  0  0  0  0  3  0  0  0  0  0  0
  158.3080  212.5340  152.0410 O   0  0  0  0  0  0  0  0  0  0  0  0
  159.3280  212.6300  151.3060 C   0  0  0  0  0  0  0  0  0  0  0  0
  158.0080  213.2310  147.9340 C   0  0  0  0  0  0  0  0  0  0  0  0
  158.0820  214.4520  150.1010 C   0  0  0  0  0  2  0  0  0  0  0  0
  161.4290  212.9100  149.3350 O   0  0  0  0  0  1  0  0  0  0  0  0
  157.3830  213.0200  146.8370 N   0  0  0  0  0  2  0  0  0  0  0  0
  157.2290  213.6000  149.1600 C   0  0  0  0  0  2  0  0  0  0  0  0
  160.1970  213.5140  149.0760 C   0  0  2  0  0  3  0  0  0  0  0  0
  159.4450  213.8100  150.3860 C   0  0  2  0  0  3  0  0  0  0  0  0
  159.3810  212.6530  148.1120 C   0  0  0  0  0  2  0  0  0  0  0  0
  1  6  1  0  0  0  0
  1  9  1  0  0  0  0
  2  5  1  0  0  0  0
  3  7  1  0  0  0  0
  3  2  1  0  0  0  0
  4 11  1  0  0  0  0
  4  7  2  0  0  0  0
  5 17  2  0  0  0  0
  5 15  1  0  0  0  0
  8 12  1  0  0  0  0
 10 20  1  0  0  0  0
 10 19  1  0  0  0  0
 12 17  1  0  0  0  0
 13 19  1  6  0  0  0
 13  8  1  0  0  0  0
 13  2  1  0  0  0  0
 14  8  2  0  0  0  0
 15  1  2  0  0  0  0
 16  4  1  0  0  0  0
 17 18  1  0  0  0  0
 18  6  2  0  0  0  0
 20  3  2  0  0  0  0
 21 16  2  0  0  0  0
 21 20  1  0  0  0  0
 23 14  1  0  0  0  0
 23 22  2  0  0  0  0
 24 31  1  0  0  0  0
 24 28  1  0  0  0  0
 25 30  1  0  0  0  0
 27 24  2  0  0  0  0
 28 25  1  0  0  0  0
 29 26  1  1  0  0  0
 29 30  1  0  0  0  0
 30 23  1  6  0  0  0
 31 29  1  0  0  0  0
M  END
>  <MODEL>
1

>  <REMARK>
 VINA RESULT:      -8.2      0.000      0.000
  Name = 
  2 active torsions:
  status: ('A' for Active; 'I' for Inactive)
    1  A    between atoms: C_5  and  N_16
    2  A    between atoms: C_5  and  C_30
                            x       y       z     vdW  Elec       q    Type
                         _______ _______ _______ _____ _____    ______ ____

>  <TORSDO>
F 2

$$$$
=
 OpenBabel11122413073D

 31 35  0  0  1  0  0  0  0  0999 V2000
  160.7970  207.1100  154.6200 C   0  0  0  0  0  0  0  0  0  0  0  0
  161.6120  208.8160  151.4390 N   0  0  0  0  0  0  0  0  0  0  0  0
  161.4610  207.8350  150.3820 C   0  0  0  0  0  0  0  0  0  0  0  0
  161.1220  205.5430  149.6340 C   0  0  0  0  0  0  0  0  0  0  0  0
  161.1290  208.5830  152.7790 C   0  0  0  0  0  0  0  0  0  0  0  0
  160.2150  208.1340  155.3680 C   0  0  0  0  0  3  0  0  0  0  0  0
  161.2660  206.4740  150.6660 C   0  0  0  0  0  3  0  0  0  0  0  0
  160.9390  211.1480  151.5300 C   0  0  0  0  0  0  0  0  0  0  0  0
  160.9230  205.8710  155.1510 F   0  0  0  0  0  0  0  0  0  0  0  0
  161.6540  209.6920  148.6940 C   0  0  0  0  0  2  0  0  0  0  0  0
  160.9180  204.1060  149.9540 C   0  0  0  0  0  1  0  0  0  0  0  0
  160.3990  211.0290  152.9320 C   0  0  0  0  0  2  0  0  0  0  0  0
  162.0320  210.1940  151.1360 C   0  0  2  0  0  3  0  0  0  0  0  0
  160.5260  212.0570  150.6920 N   0  0  0  0  0  0  0  0  0  0  0  0
  161.2380  207.3550  153.3570 N   0  0  0  0  0  0  0  0  0  0  0  0
  161.1640  205.9630  148.3030 C   0  0  0  0  0  3  0  0  0  0  0  0
  160.5490  209.6450  153.5090 C   0  0  0  0  0  0  0  0  0  0  0  0
  160.0930  209.4040  154.8060 C   0  0  0  0  0  3  0  0  0  0  0  0
  162.5640  210.3710  149.7050 C   0  0  0  0  0  2  0  0  0  0  0  0
  161.5120  208.2450  149.0330 C   0  0  0  0  0  0  0  0  0  0  0  0
  161.3520  207.3130  148.0040 C   0  0  0  0  0  3  0  0  0  0  0  0
  158.7750  213.0360  151.9240 O   0  0  0  0  0  0  0  0  0  0  0  0
  159.5150  213.0570  150.9040 C   0  0  0  0  0  0  0  0  0  0  0  0
  158.0740  213.0010  147.5290 C   0  0  0  0  0  0  0  0  0  0  0  0
  157.8280  214.3780  149.5870 C   0  0  0  0  0  2  0  0  0  0  0  0
  161.4620  213.7130  148.8640 O   0  0  0  0  0  1  0  0  0  0  0  0
  157.5230  212.5400  146.4690 N   0  0  0  0  0  2  0  0  0  0  0  0
  157.2290  213.2540  148.7400 C   0  0  0  0  0  2  0  0  0  0  0  0
  160.1130  213.9470  148.5880 C   0  0  2  0  0  3  0  0  0  0  0  0
  159.3140  214.1440  149.8890 C   0  0  2  0  0  3  0  0  0  0  0  0
  159.5510  212.8220  147.7180 C   0  0  0  0  0  2  0  0  0  0  0  0
  1  9  1  0  0  0  0
  1  6  1  0  0  0  0
  2  5  1  0  0  0  0
  3  7  1  0  0  0  0
  3  2  1  0  0  0  0
  4 11  1  0  0  0  0
  4  7  2  0  0  0  0
  5 15  1  0  0  0  0
  5 17  2  0  0  0  0
  8 12  1  0  0  0  0
 10 20  1  0  0  0  0
 10 19  1  0  0  0  0
 12 17  1  0  0  0  0
 13 19  1  6  0  0  0
 13  2  1  0  0  0  0
 13  8  1  0  0  0  0
 14 23  1  0  0  0  0
 14  8  2  0  0  0  0
 15  1  2  0  0  0  0
 16  4  1  0  0  0  0
 17 18  1  0  0  0  0
 18  6  2  0  0  0  0
 20  3  2  0  0  0  0
 21 16  2  0  0  0  0
 21 20  1  0  0  0  0
 23 22  2  0  0  0  0
 24 31  1  0  0  0  0
 24 28  1  0  0  0  0
 25 30  1  0  0  0  0
 27 24  2  0  0  0  0
 28 25  1  0  0  0  0
 29 26  1  1  0  0  0
 29 30  1  0  0  0  0
 30 23  1  1  0  0  0
 31 29  1  0  0  0  0
M  END
>  <MODEL>
2

>  <REMARK>
 VINA RESULT:      -7.7      1.123      1.335
  Name = 
  2 active torsions:
  status: ('A' for Active; 'I' for Inactive)
    1  A    between atoms: C_5  and  N_16
    2  A    between atoms: C_5  and  C_30
                            x       y       z     vdW  Elec       q    Type
                         _______ _______ _______ _____ _____    ______ ____

>  <TORSDO>
F 2

$$$$
=
 OpenBabel11122413073D

 31 35  0  0  1  0  0  0  0  0999 V2000
  161.1900  212.7950  148.9290 C   0  0  0  0  0  0  0  0  0  0  0  0
  161.0530  210.9700  152.1450 N   0  0  0  0  0  0  0  0  0  0  0  0
  159.8590  211.4180  152.8360 C   0  0  0  0  0  0  0  0  0  0  0  0
  157.9590  212.9260  153.0480 C   0  0  0  0  0  0  0  0  0  0  0  0
  161.2950  211.2700  150.7540 C   0  0  0  0  0  0  0  0  0  0  0  0
  161.7760  211.8580  148.0780 C   0  0  0  0  0  3  0  0  0  0  0  0
  159.1080  212.5090  152.3710 C   0  0  0  0  0  3  0  0  0  0  0  0
  161.9850  208.7410  151.8960 C   0  0  0  0  0  0  0  0  0  0  0  0
  160.8430  214.0150  148.4560 F   0  0  0  0  0  0  0  0  0  0  0  0
  160.1700  209.5480  154.4910 C   0  0  0  0  0  2  0  0  0  0  0  0
  157.1790  214.0850  152.5420 C   0  0  0  0  0  1  0  0  0  0  0  0
  162.2870  208.9340  150.4330 C   0  0  0  0  0  2  0  0  0  0  0  0
  161.9490  209.9740  152.7560 C   0  0  2  0  0  3  0  0  0  0  0  0
  161.8030  207.5650  152.4270 N   0  0  0  0  0  0  0  0  0  0  0  0
  160.9660  212.4850  150.2340 N   0  0  0  0  0  0  0  0  0  0  0  0
  157.5430  212.2510  154.1970 C   0  0  0  0  0  3  0  0  0  0  0  0
  161.8960  210.2980  149.9220 C   0  0  0  0  0  0  0  0  0  0  0  0
  162.1290  210.6060  148.5820 C   0  0  0  0  0  3  0  0  0  0  0  0
  161.6600  209.7210  154.2440 C   0  0  0  0  0  2  0  0  0  0  0  0
  159.4330  210.7510  154.0030 C   0  0  0  0  0  0  0  0  0  0  0  0
  158.2760  211.1620  154.6700 C   0  0  0  0  0  3  0  0  0  0  0  0
  162.9110  205.7240  151.4650 O   0  0  0  0  0  0  0  0  0  0  0  0
  161.8250  206.2870  151.7680 C   0  0  0  0  0  0  0  0  0  0  0  0
  161.1400  203.1010  150.0790 C   0  0  0  0  0  0  0  0  0  0  0  0
  160.3740  204.2670  152.1400 C   0  0  0  0  0  2  0  0  0  0  0  0
  160.4810  206.6530  149.2310 O   0  0  0  0  0  1  0  0  0  0  0  0
  161.3600  201.9860  149.4910 N   0  0  0  0  0  2  0  0  0  0  0  0
  161.2910  203.1850  151.5680 C   0  0  0  0  0  2  0  0  0  0  0  0
  160.3130  205.4380  149.8970 C   0  0  2  0  0  3  0  0  0  0  0  0
  160.5360  205.6060  151.4110 C   0  0  2  0  0  3  0  0  0  0  0  0
  161.2210  204.3710  149.2850 C   0  0  0  0  0  2  0  0  0  0  0  0
  1 15  1  0  0  0  0
  2 13  1  0  0  0  0
  2  3  1  0  0  0  0
  3 20  1  0  0  0  0
  4 16  2  0  0  0  0
  5  2  1  0  0  0  0
  6 18  1  0  0  0  0
  6  1  2  0  0  0  0
  7  3  2  0  0  0  0
  7  4  1  0  0  0  0
  8 14  2  0  0  0  0
  8 13  1  0  0  0  0
  9  1  1  0  0  0  0
 11  4  1  0  0  0  0
 12  8  1  0  0  0  0
 13 19  1  1  0  0  0
 15  5  2  0  0  0  0
 16 21  1  0  0  0  0
 17 12  1  0  0  0  0
 17  5  1  0  0  0  0
 18 17  2  0  0  0  0
 19 10  1  0  0  0  0
 20 10  1  0  0  0  0
 20 21  2  0  0  0  0
 22 23  2  0  0  0  0
 23 14  1  0  0  0  0
 24 28  1  0  0  0  0
 27 24  2  0  0  0  0
 28 25  1  0  0  0  0
 29 26  1  6  0  0  0
 29 30  1  0  0  0  0
 30 23  1  6  0  0  0
 30 25  1  0  0  0  0
 31 29  1  0  0  0  0
 31 24  1  0  0  0  0
M  END
>  <MODEL>
3

>  <REMARK>
 VINA RESULT:      -7.7      3.345      7.662
  Name = 
  2 active torsions:
  status: ('A' for Active; 'I' for Inactive)
    1  A    between atoms: C_5  and  N_16
    2  A    between atoms: C_5  and  C_30
                            x       y       z     vdW  Elec       q    Type
                         _______ _______ _______ _____ _____    ______ ____

>  <TORSDO>
F 2

$$$$
=
 OpenBabel11122413073D

 31 35  0  0  1  0  0  0  0  0999 V2000
  161.9350  210.9030  149.6580 C   0  0  0  0  0  0  0  0  0  0  0  0
  161.9580  207.9310  151.8610 N   0  0  0  0  0  0  0  0  0  0  0  0
  161.1800  208.2700  153.0380 C   0  0  0  0  0  0  0  0  0  0  0  0
  160.0000  209.8920  154.4180 C   0  0  0  0  0  0  0  0  0  0  0  0
  161.9510  208.7500  150.6730 C   0  0  0  0  0  0  0  0  0  0  0  0
  161.9560  210.3330  148.3850 C   0  0  0  0  0  3  0  0  0  0  0  0
  160.7490  209.5840  153.2800 C   0  0  0  0  0  3  0  0  0  0  0  0
  162.0040  205.8950  150.5390 C   0  0  0  0  0  0  0  0  0  0  0  0
  161.9140  212.2500  149.7950 F   0  0  0  0  0  0  0  0  0  0  0  0
  161.2290  205.8460  153.7120 C   0  0  0  0  0  2  0  0  0  0  0  0
  159.5560  211.2900  154.6580 C   0  0  0  0  0  1  0  0  0  0  0  0
  161.9990  206.6400  149.2290 C   0  0  0  0  0  2  0  0  0  0  0  0
  162.5860  206.6060  151.7280 C   0  0  2  0  0  3  0  0  0  0  0  0
  161.5700  204.6710  150.6530 N   0  0  0  0  0  0  0  0  0  0  0  0
  161.9340  210.1090  150.7620 N   0  0  0  0  0  0  0  0  0  0  0  0
  159.6650  208.8870  155.3260 C   0  0  0  0  0  3  0  0  0  0  0  0
  161.9780  208.1370  149.3990 C   0  0  0  0  0  0  0  0  0  0  0  0
  161.9780  208.9440  148.2610 C   0  0  0  0  0  3  0  0  0  0  0  0
  162.5880  205.7960  153.0340 C   0  0  0  0  0  2  0  0  0  0  0  0
  160.8430  207.2650  153.9680 C   0  0  0  0  0  0  0  0  0  0  0  0
  160.0810  207.5740  155.0980 C   0  0  0  0  0  3  0  0  0  0  0  0
  159.7720  203.8480  149.3740 O   0  0  0  0  0  0  0  0  0  0  0  0
  161.0070  203.8360  149.6260 C   0  0  0  0  0  0  0  0  0  0  0  0
  160.5570  202.2080  146.3680 C   0  0  0  0  0  0  0  0  0  0  0  0
  162.3310  203.5260  147.5110 C   0  0  0  0  0  2  0  0  0  0  0  0
  160.8840  200.9520  149.8440 O   0  0  0  0  0  1  0  0  0  0  0  0
  160.0070  201.8740  145.2610 N   0  0  0  0  0  2  0  0  0  0  0  0
  161.1930  203.5590  146.4900 C   0  0  0  0  0  2  0  0  0  0  0  0
  161.3020  201.5040  148.6320 C   0  0  2  0  0  3  0  0  0  0  0  0
  161.8930  202.9100  148.8450 C   0  0  2  0  0  3  0  0  0  0  0  0
  160.1520  201.4970  147.6250 C   0  0  0  0  0  2  0  0  0  0  0  0
  1  9  1  0  0  0  0
  1 15  1  0  0  0  0
  2  3  1  0  0  0  0
  3  7  2  0  0  0  0
  3 20  1  0  0  0  0
  4 11  1  0  0  0  0
  4 16  2  0  0  0  0
  5 15  2  0  0  0  0
  5  2  1  0  0  0  0
  6  1  2  0  0  0  0
  7  4  1  0  0  0  0
  8 14  2  0  0  0  0
  8 13  1  0  0  0  0
 10 20  1  0  0  0  0
 12 17  1  0  0  0  0
 12  8  1  0  0  0  0
 13  2  1  0  0  0  0
 13 19  1  1  0  0  0
 17  5  1  0  0  0  0
 18  6  1  0  0  0  0
 18 17  2  0  0  0  0
 19 10  1  0  0  0  0
 20 21  2  0  0  0  0
 21 16  1  0  0  0  0
 22 23  2  0  0  0  0
 23 14  1  0  0  0  0
 24 28  1  0  0  0  0
 24 31  1  0  0  0  0
 25 30  1  0  0  0  0
 27 24  2  0  0  0  0
 28 25  1  0  0  0  0
 29 30  1  0  0  0  0
 29 26  1  1  0  0  0
 30 23  1  6  0  0  0
 31 29  1  0  0  0  0
M  END
>  <MODEL>
4

>  <REMARK>
 VINA RESULT:      -7.4      4.309      7.972
  Name = 
  2 active torsions:
  status: ('A' for Active; 'I' for Inactive)
    1  A    between atoms: C_5  and  N_16
    2  A    between atoms: C_5  and  C_30
                            x       y       z     vdW  Elec       q    Type
                         _______ _______ _______ _____ _____    ______ ____

>  <TORSDO>
F 2

$$$$
=
 OpenBabel11122413073D

 31 35  0  0  1  0  0  0  0  0999 V2000
  161.6410  211.5390  150.0850 C   0  0  0  0  0  0  0  0  0  0  0  0
  162.0700  208.1330  151.4660 N   0  0  0  0  0  0  0  0  0  0  0  0
  161.3480  208.0920  152.7240 C   0  0  0  0  0  0  0  0  0  0  0  0
  160.1300  209.1980  154.5190 C   0  0  0  0  0  0  0  0  0  0  0  0
  161.9120  209.2140  150.5240 C   0  0  0  0  0  0  0  0  0  0  0  0
  161.6240  211.3040  148.7100 C   0  0  0  0  0  3  0  0  0  0  0  0
  160.8230  209.2570  153.3070 C   0  0  0  0  0  3  0  0  0  0  0  0
  162.2010  206.5010  149.6730 C   0  0  0  0  0  0  0  0  0  0  0  0
  161.5130  212.8010  150.5570 F   0  0  0  0  0  0  0  0  0  0  0  0
  161.6510  205.5950  152.7640 C   0  0  0  0  0  2  0  0  0  0  0  0
  159.5850  210.4420  155.1220 C   0  0  0  0  0  1  0  0  0  0  0  0
  162.0430  207.5410  148.5950 C   0  0  0  0  0  2  0  0  0  0  0  0
  162.7990  206.9520  150.9760 C   0  0  2  0  0  3  0  0  0  0  0  0
  161.8830  205.2490  149.4950 N   0  0  0  0  0  0  0  0  0  0  0  0
  161.7840  210.5010  150.9520 N   0  0  0  0  0  0  0  0  0  0  0  0
  159.9460  207.9710  155.1590 C   0  0  0  0  0  3  0  0  0  0  0  0
  161.9040  208.9400  149.1370 C   0  0  0  0  0  0  0  0  0  0  0  0
  161.7570  209.9980  148.2390 C   0  0  0  0  0  3  0  0  0  0  0  0
  162.9610  205.8490  152.0350 C   0  0  0  0  0  2  0  0  0  0  0  0
  161.1630  206.8610  153.3860 C   0  0  0  0  0  0  0  0  0  0  0  0
  160.4570  206.8040  154.5900 C   0  0  0  0  0  3  0  0  0  0  0  0
  160.0820  204.6220  148.1150 O   0  0  0  0  0  0  0  0  0  0  0  0
  161.3260  204.6400  148.3180 C   0  0  0  0  0  0  0  0  0  0  0  0
  161.4960  204.9190  144.6620 C   0  0  0  0  0  0  0  0  0  0  0  0
  163.0920  205.0190  146.5690 C   0  0  0  0  0  2  0  0  0  0  0  0
  160.7020  202.1430  146.9930 O   0  0  0  0  0  1  0  0  0  0  0  0
  161.2100  205.3040  143.4750 N   0  0  0  0  0  2  0  0  0  0  0  0
  162.2800  205.8300  145.5570 C   0  0  0  0  0  2  0  0  0  0  0  0
  161.5030  203.0650  146.3180 C   0  0  2  0  0  3  0  0  0  0  0  0
  162.2300  203.9910  147.3110 C   0  0  2  0  0  3  0  0  0  0  0  0
  160.6700  203.8390  145.2960 C   0  0  0  0  0  2  0  0  0  0  0  0
  1  9  1  0  0  0  0
  1 15  1  0  0  0  0
  2  3  1  0  0  0  0
  3  7  2  0  0  0  0
  3 20  1  0  0  0  0
  4 11  1  0  0  0  0
  4 16  2  0  0  0  0
  5 15  2  0  0  0  0
  5  2  1  0  0  0  0
  6  1  2  0  0  0  0
  7  4  1  0  0  0  0
  8 13  1  0  0  0  0
 10 20  1  0  0  0  0
 12 17  1  0  0  0  0
 12  8  1  0  0  0  0
 13  2  1  0  0  0  0
 13 19  1  1  0  0  0
 14  8  2  0  0  0  0
 17  5  1  0  0  0  0
 18  6  1  0  0  0  0
 18 17  2  0  0  0  0
 19 10  1  0  0  0  0
 20 21  2  0  0  0  0
 21 16  1  0  0  0  0
 22 23  2  0  0  0  0
 23 14  1  0  0  0  0
 24 31  1  0  0  0  0
 24 28  1  0  0  0  0
 25 30  1  0  0  0  0
 27 24  2  0  0  0  0
 28 25  1  0  0  0  0
 29 26  1  1  0  0  0
 29 30  1  0  0  0  0
 30 23  1  6  0  0  0
 31 29  1  0  0  0  0
M  END
>  <MODEL>
5

>  <REMARK>
 VINA RESULT:      -7.1      4.209      7.341
  Name = 
  2 active torsions:
  status: ('A' for Active; 'I' for Inactive)
    1  A    between atoms: C_5  and  N_16
    2  A    between atoms: C_5  and  C_30
                            x       y       z     vdW  Elec       q    Type
                         _______ _______ _______ _____ _____    ______ ____

>  <TORSDO>
F 2

$$$$
=
 OpenBabel11122413073D

 31 35  0  0  1  0  0  0  0  0999 V2000
  159.1680  213.0060  153.4870 C   0  0  0  0  0  0  0  0  0  0  0  0
  161.1400  211.7120  150.6350 N   0  0  0  0  0  0  0  0  0  0  0  0
  161.4040  210.3120  150.9030 C   0  0  0  0  0  0  0  0  0  0  0  0
  161.3720  208.3840  152.3910 C   0  0  0  0  0  0  0  0  0  0  0  0
  160.1810  212.4740  151.3990 C   0  0  0  0  0  0  0  0  0  0  0  0
  158.3450  213.9530  152.8780 C   0  0  0  0  0  3  0  0  0  0  0  0
  161.1130  209.7350  152.1510 C   0  0  0  0  0  3  0  0  0  0  0  0
  160.4860  212.8250  148.5780 C   0  0  0  0  0  0  0  0  0  0  0  0
  159.0800  212.7920  154.8210 F   0  0  0  0  0  0  0  0  0  0  0  0
  162.2290  210.0620  148.5400 C   0  0  0  0  0  2  0  0  0  0  0  0
  161.0600  207.7930  153.7180 C   0  0  0  0  0  1  0  0  0  0  0  0
  159.4510  213.6780  149.2640 C   0  0  0  0  0  2  0  0  0  0  0  0
  161.6460  212.3540  149.4110 C   0  0  2  0  0  3  0  0  0  0  0  0
  160.4250  212.5300  147.3100 N   0  0  0  0  0  0  0  0  0  0  0  0
  160.0590  212.2960  152.7440 N   0  0  0  0  0  0  0  0  0  0  0  0
  161.9210  207.5890  151.3830 C   0  0  0  0  0  3  0  0  0  0  0  0
  159.3670  213.4290  150.7480 C   0  0  0  0  0  0  0  0  0  0  0  0
  158.4490  214.1620  151.5020 C   0  0  0  0  0  3  0  0  0  0  0  0
  162.6840  211.5070  148.6600 C   0  0  0  0  0  2  0  0  0  0  0  0
  161.9660  209.5000  149.8980 C   0  0  0  0  0  0  0  0  0  0  0  0
  162.2110  208.1440  150.1360 C   0  0  0  0  0  3  0  0  0  0  0  0
  158.2530  212.4150  146.4090 O   0  0  0  0  0  0  0  0  0  0  0  0
  159.4120  212.9100  146.3640 C   0  0  0  0  0  0  0  0  0  0  0  0
  161.1830  212.5390  143.1700 C   0  0  0  0  0  0  0  0  0  0  0  0
  159.0450  213.5410  143.9570 C   0  0  0  0  0  2  0  0  0  0  0  0
  161.8650  214.4440  146.2810 O   0  0  0  0  0  1  0  0  0  0  0  0
  161.8220  211.9800  142.2130 N   0  0  0  0  0  2  0  0  0  0  0  0
  159.7020  212.3400  143.2750 C   0  0  0  0  0  2  0  0  0  0  0  0
  161.2370  214.1390  145.0720 C   0  0  2  0  0  3  0  0  0  0  0  0
  159.7310  213.8990  145.2810 C   0  0  2  0  0  3  0  0  0  0  0  0
  161.9330  212.9530  144.4020 C   0  0  0  0  0  2  0  0  0  0  0  0
  1  9  1  0  0  0  0
  2  3  1  0  0  0  0
  2  5  1  0  0  0  0
  3  7  1  0  0  0  0
  4 11  1  0  0  0  0
  5 15  1  0  0  0  0
  6  1  1  0  0  0  0
  7  4  2  0  0  0  0
  8 12  1  0  0  0  0
  8 13  1  0  0  0  0
 10 19  1  0  0  0  0
 10 20  1  0  0  0  0
 12 17  1  0  0  0  0
 13 19  1  6  0  0  0
 13  2  1  0  0  0  0
 14  8  2  0  0  0  0
 15  1  2  0  0  0  0
 16  4  1  0  0  0  0
 17  5  2  0  0  0  0
 17 18  1  0  0  0  0
 18  6  2  0  0  0  0
 20 21  1  0  0  0  0
 20  3  2  0  0  0  0
 21 16  2  0  0  0  0
 23 22  2  0  0  0  0
 23 14  1  0  0  0  0
 24 28  1  0  0  0  0
 24 31  1  0  0  0  0
 25 30  1  0  0  0  0
 27 24  2  0  0  0  0
 28 25  1  0  0  0  0
 29 30  1  0  0  0  0
 29 26  1  1  0  0  0
 30 23  1  1  0  0  0
 31 29  1  0  0  0  0
M  END
>  <MODEL>
6

>  <REMARK>
 VINA RESULT:      -6.4      3.030      4.772
  Name = 
  2 active torsions:
  status: ('A' for Active; 'I' for Inactive)
    1  A    between atoms: C_5  and  N_16
    2  A    between atoms: C_5  and  C_30
                            x       y       z     vdW  Elec       q    Type
                         _______ _______ _______ _____ _____    ______ ____

>  <TORSDO>
F 2

$$$$
=
 OpenBabel11122413073D

 31 35  0  0  1  0  0  0  0  0999 V2000
  161.5560  213.1100  149.0110 C   0  0  0  0  0  0  0  0  0  0  0  0
  161.6040  210.1590  151.2430 N   0  0  0  0  0  0  0  0  0  0  0  0
  160.7140  210.4510  152.3500 C   0  0  0  0  0  0  0  0  0  0  0  0
  159.3200  211.9960  153.6130 C   0  0  0  0  0  0  0  0  0  0  0  0
  161.6370  210.9690  150.0480 C   0  0  0  0  0  0  0  0  0  0  0  0
  161.7180  212.5350  147.7500 C   0  0  0  0  0  3  0  0  0  0  0  0
  160.1770  211.7340  152.5410 C   0  0  0  0  0  3  0  0  0  0  0  0
  161.8950  208.1230  149.9510 C   0  0  0  0  0  0  0  0  0  0  0  0
  161.4330  214.4530  149.1310 F   0  0  0  0  0  0  0  0  0  0  0  0
  160.8730  208.0400  153.0530 C   0  0  0  0  0  2  0  0  0  0  0  0
  158.7640  213.3620  153.8010 C   0  0  0  0  0  1  0  0  0  0  0  0
  161.9450  208.8590  148.6370 C   0  0  0  0  0  2  0  0  0  0  0  0
  162.3300  208.8800  151.1750 C   0  0  2  0  0  3  0  0  0  0  0  0
  161.5370  206.8730  150.0440 N   0  0  0  0  0  0  0  0  0  0  0  0
  161.5210  212.3240  150.1200 N   0  0  0  0  0  0  0  0  0  0  0  0
  158.9820  210.9760  154.5030 C   0  0  0  0  0  3  0  0  0  0  0  0
  161.8080  210.3520  148.7880 C   0  0  0  0  0  0  0  0  0  0  0  0
  161.8440  211.1500  147.6440 C   0  0  0  0  0  3  0  0  0  0  0  0
  162.2830  208.0790  152.4860 C   0  0  0  0  0  2  0  0  0  0  0  0
  160.3730  209.4310  153.2620 C   0  0  0  0  0  0  0  0  0  0  0  0
  159.5030  209.6930  154.3240 C   0  0  0  0  0  3  0  0  0  0  0  0
  159.9150  205.9520  148.6080 O   0  0  0  0  0  0  0  0  0  0  0  0
  161.1170  205.9950  148.9860 C   0  0  0  0  0  0  0  0  0  0  0  0
  161.1320  204.3950  145.6830 C   0  0  0  0  0  0  0  0  0  0  0  0
  162.7160  205.7290  147.0630 C   0  0  0  0  0  2  0  0  0  0  0  0
  161.0140  203.1080  149.1600 O   0  0  0  0  0  1  0  0  0  0  0  0
  160.7400  204.0660  144.5090 N   0  0  0  0  0  2  0  0  0  0  0  0
  161.7230  205.7550  145.9000 C   0  0  0  0  0  2  0  0  0  0  0  0
  161.5810  203.6800  148.0200 C   0  0  2  0  0  3  0  0  0  0  0  0
  162.1150  205.0920  148.3220 C   0  0  2  0  0  3  0  0  0  0  0  0
  160.5750  203.6650  146.8680 C   0  0  0  0  0  2  0  0  0  0  0  0
  1  9  1  0  0  0  0
  1 15  1  0  0  0  0
  2  3  1  0  0  0  0
  3  7  2  0  0  0  0
  3 20  1  0  0  0  0
  4 11  1  0  0  0  0
  4 16  2  0  0  0  0
  5 15  2  0  0  0  0
  5  2  1  0  0  0  0
  6  1  2  0  0  0  0
  7  4  1  0  0  0  0
  8 14  2  0  0  0  0
  8 13  1  0  0  0  0
 10 20  1  0  0  0  0
 12 17  1  0  0  0  0
 12  8  1  0  0  0  0
 13  2  1  0  0  0  0
 13 19  1  1  0  0  0
 17  5  1  0  0  0  0
 18  6  1  0  0  0  0
 18 17  2  0  0  0  0
 19 10  1  0  0  0  0
 20 21  2  0  0  0  0
 21 16  1  0  0  0  0
 22 23  2  0  0  0  0
 23 14  1  0  0  0  0
 24 28  1  0  0  0  0
 24 31  1  0  0  0  0
 25 30  1  0  0  0  0
 27 24  2  0  0  0  0
 28 25  1  0  0  0  0
 29 30  1  0  0  0  0
 29 26  1  1  0  0  0
 30 23  1  6  0  0  0
 31 29  1  0  0  0  0
M  END
>  <MODEL>
7

>  <REMARK>
 VINA RESULT:      -6.4      3.992      7.506
  Name = 
  2 active torsions:
  status: ('A' for Active; 'I' for Inactive)
    1  A    between atoms: C_5  and  N_16
    2  A    between atoms: C_5  and  C_30
                            x       y       z     vdW  Elec       q    Type
                         _______ _______ _______ _____ _____    ______ ____

>  <TORSDO>
F 2

$$$$
=
 OpenBabel11122413073D

 31 35  0  0  1  0  0  0  0  0999 V2000
  161.1290  202.5060  151.0810 C   0  0  0  0  0  0  0  0  0  0  0  0
  161.9940  205.8090  149.6550 N   0  0  0  0  0  0  0  0  0  0  0  0
  161.6090  205.7810  148.2570 C   0  0  0  0  0  0  0  0  0  0  0  0
  160.8410  204.5810  146.2820 C   0  0  0  0  0  0  0  0  0  0  0  0
  161.5730  204.7930  150.5900 C   0  0  0  0  0  0  0  0  0  0  0  0
  160.7790  202.8280  152.3920 C   0  0  0  0  0  3  0  0  0  0  0  0
  161.2090  204.5890  147.6300 C   0  0  0  0  0  3  0  0  0  0  0  0
  161.7260  207.5500  151.3260 C   0  0  0  0  0  0  0  0  0  0  0  0
  161.0840  201.2180  150.6660 F   0  0  0  0  0  0  0  0  0  0  0  0
  161.9900  208.2650  148.1490 C   0  0  0  0  0  2  0  0  0  0  0  0
  160.4240  203.3100  145.6350 C   0  0  0  0  0  1  0  0  0  0  0  0
  161.2730  206.5840  152.3900 C   0  0  0  0  0  2  0  0  0  0  0  0
  162.6150  207.0070  150.2420 C   0  0  2  0  0  3  0  0  0  0  0  0
  161.4130  208.8160  151.3460 N   0  0  0  0  0  0  0  0  0  0  0  0
  161.5160  203.4830  150.2180 N   0  0  0  0  0  0  0  0  0  0  0  0
  160.8590  205.7670  145.5460 C   0  0  0  0  0  3  0  0  0  0  0  0
  161.2300  205.1550  151.9120 C   0  0  0  0  0  0  0  0  0  0  0  0
  160.8310  204.1590  152.8040 C   0  0  0  0  0  3  0  0  0  0  0  0
  163.0680  208.0370  149.1960 C   0  0  0  0  0  2  0  0  0  0  0  0
  161.6330  206.9700  147.5000 C   0  0  0  0  0  0  0  0  0  0  0  0
  161.2490  206.9610  146.1560 C   0  0  0  0  0  3  0  0  0  0  0  0
  159.3580  209.3050  152.3860 O   0  0  0  0  0  0  0  0  0  0  0  0
  160.6000  209.5080  152.3100 C   0  0  0  0  0  0  0  0  0  0  0  0
  159.4790  210.8830  155.5220 C   0  0  0  0  0  0  0  0  0  0  0  0
  161.5670  209.8920  154.5990 C   0  0  0  0  0  2  0  0  0  0  0  0
  160.0810  212.3520  152.1680 O   0  0  0  0  0  1  0  0  0  0  0  0
  158.7420  211.0770  156.5510 N   0  0  0  0  0  2  0  0  0  0  0  0
  160.3190  209.6440  155.4480 C   0  0  0  0  0  2  0  0  0  0  0  0
  160.4100  211.8020  153.4090 C   0  0  2  0  0  3  0  0  0  0  0  0
  161.2260  210.5080  153.2370 C   0  0  2  0  0  3  0  0  0  0  0  0
  159.1460  211.5930  154.2440 C   0  0  0  0  0  2  0  0  0  0  0  0
  1  6  1  0  0  0  0
  2 13  1  0  0  0  0
  2  5  1  0  0  0  0
  3  2  1  0  0  0  0
  4  7  2  0  0  0  0
  5 17  2  0  0  0  0
  6 18  2  0  0  0  0
  7  3  1  0  0  0  0
  8 14  2  0  0  0  0
  8 12  1  0  0  0  0
  9  1  1  0  0  0  0
 10 19  1  0  0  0  0
 11  4  1  0  0  0  0
 13 19  1  6  0  0  0
 13  8  1  0  0  0  0
 14 23  1  0  0  0  0
 15  5  1  0  0  0  0
 15  1  2  0  0  0  0
 16 21  2  0  0  0  0
 16  4  1  0  0  0  0
 17 12  1  0  0  0  0
 17 18  1  0  0  0  0
 20 10  1  0  0  0  0
 20  3  2  0  0  0  0
 21 20  1  0  0  0  0
 23 22  2  0  0  0  0
 24 27  2  0  0  0  0
 25 28  1  0  0  0  0
 28 24  1  0  0  0  0
 29 26  1  6  0  0  0
 29 31  1  0  0  0  0
 30 23  1  6  0  0  0
 30 29  1  0  0  0  0
 30 25  1  0  0  0  0
 31 24  1  0  0  0  0
M  END
>  <MODEL>
8

>  <REMARK>
 VINA RESULT:      -6.3      3.363      5.577
  Name = 
  2 active torsions:
  status: ('A' for Active; 'I' for Inactive)
    1  A    between atoms: C_5  and  N_16
    2  A    between atoms: C_5  and  C_30
                            x       y       z     vdW  Elec       q    Type
                         _______ _______ _______ _____ _____    ______ ____

>  <TORSDO>
F 2

$$$$
=
 OpenBabel11122413073D

 31 35  0  0  1  0  0  0  0  0999 V2000
  160.9380  202.0910  149.9760 C   0  0  0  0  0  0  0  0  0  0  0  0
  161.8930  205.6410  150.3910 N   0  0  0  0  0  0  0  0  0  0  0  0
  161.5580  206.3170  149.1520 C   0  0  0  0  0  0  0  0  0  0  0  0
  160.8480  206.2710  146.8230 C   0  0  0  0  0  0  0  0  0  0  0  0
  161.4260  204.3090  150.6900 C   0  0  0  0  0  0  0  0  0  0  0  0
  160.5440  201.7330  151.2660 C   0  0  0  0  0  3  0  0  0  0  0  0
  161.1680  205.6030  148.0080 C   0  0  0  0  0  3  0  0  0  0  0  0
  161.5850  206.3390  152.6970 C   0  0  0  0  0  0  0  0  0  0  0  0
  160.8930  201.1770  148.9780 F   0  0  0  0  0  0  0  0  0  0  0  0
  161.9720  208.5200  150.2960 C   0  0  0  0  0  2  0  0  0  0  0  0
  160.4400  205.4970  145.6220 C   0  0  0  0  0  1  0  0  0  0  0  0
  161.0820  204.9860  153.1320 C   0  0  0  0  0  2  0  0  0  0  0  0
  162.5060  206.3760  151.5090 C   0  0  2  0  0  3  0  0  0  0  0  0
  161.2860  207.4370  153.3310 N   0  0  0  0  0  0  0  0  0  0  0  0
  161.3670  203.3550  149.7190 N   0  0  0  0  0  0  0  0  0  0  0  0
  160.9080  207.6640  146.7700 C   0  0  0  0  0  3  0  0  0  0  0  0
  161.0390  203.9810  152.0090 C   0  0  0  0  0  0  0  0  0  0  0  0
  160.5970  202.6860  152.2830 C   0  0  0  0  0  3  0  0  0  0  0  0
  163.0090  207.7750  151.1200 C   0  0  0  0  0  2  0  0  0  0  0  0
  161.6240  207.7240  149.0820 C   0  0  0  0  0  0  0  0  0  0  0  0
  161.2890  208.3900  147.8990 C   0  0  0  0  0  3  0  0  0  0  0  0
  160.0030  206.5840  155.1110 O   0  0  0  0  0  0  0  0  0  0  0  0
  160.4470  207.5870  154.4890 C   0  0  0  0  0  0  0  0  0  0  0  0
  162.4770  210.3810  155.7290 C   0  0  0  0  0  0  0  0  0  0  0  0
  160.6490  210.0580  154.0720 C   0  0  0  0  0  2  0  0  0  0  0  0
  159.8890  208.2080  157.2610 O   0  0  0  0  0  1  0  0  0  0  0  0
  163.5140  211.0490  156.0720 N   0  0  0  0  0  2  0  0  0  0  0  0
  162.1560  210.2290  154.2730 C   0  0  0  0  0  2  0  0  0  0  0  0
  160.4000  209.2210  156.4470 C   0  0  2  0  0  3  0  0  0  0  0  0
  160.0670  208.9570  154.9670 C   0  0  2  0  0  3  0  0  0  0  0  0
  161.9000  209.3870  156.6920 C   0  0  0  0  0  2  0  0  0  0  0  0
  1  6  1  0  0  0  0
  2  5  1  0  0  0  0
  2 13  1  0  0  0  0
  3  2  1  0  0  0  0
  4  7  1  0  0  0  0
  5 17  2  0  0  0  0
  6 18  2  0  0  0  0
  7  3  2  0  0  0  0
  8 12  1  0  0  0  0
  8 14  2  0  0  0  0
  9  1  1  0  0  0  0
 10 19  1  0  0  0  0
 11  4  1  0  0  0  0
 13 19  1  6  0  0  0
 13  8  1  0  0  0  0
 14 23  1  0  0  0  0
 15  1  2  0  0  0  0
 15  5  1  0  0  0  0
 16  4  2  0  0  0  0
 16 21  1  0  0  0  0
 17 18  1  0  0  0  0
 17 12  1  0  0  0  0
 20  3  1  0  0  0  0
 20 10  1  0  0  0  0
 21 20  2  0  0  0  0
 23 22  2  0  0  0  0
 24 27  2  0  0  0  0
 24 31  1  0  0  0  0
 25 28  1  0  0  0  0
 25 30  1  0  0  0  0
 28 24  1  0  0  0  0
 29 31  1  0  0  0  0
 29 26  1  1  0  0  0
 30 23  1  6  0  0  0
 30 29  1  0  0  0  0
M  END
>  <MODEL>
9

>  <REMARK>
 VINA RESULT:      -6.1      4.295      6.651
  Name = 
  2 active torsions:
  status: ('A' for Active; 'I' for Inactive)
    1  A    between atoms: C_5  and  N_16
    2  A    between atoms: C_5  and  C_30
                            x       y       z     vdW  Elec       q    Type
                         _______ _______ _______ _____ _____    ______ ____

>  <TORSDO>
F 2

$$$$
