=
 OpenBabel11122414103D

 28 32  0  0  1  0  0  0  0  0999 V2000
  160.5620  209.7030  156.2470 C   0  0  0  0  0  0  0  0  0  0  0  0
  155.5810  210.4200  154.9320 C   0  0  0  0  0  1  0  0  0  0  0  0
  161.4660  211.2640  152.0540 O   0  0  0  0  0  0  0  0  0  0  0  0
  161.4540  212.1940  157.0770 C   0  0  0  0  0  3  0  0  0  0  0  0
  159.4460  212.4720  152.5760 C   0  0  2  0  0  3  0  0  0  0  0  0
  160.1050  208.4750  155.7710 O   0  0  0  0  0  0  0  0  0  0  0  0
  155.8020  211.1880  157.2580 C   0  0  0  0  0  1  0  0  0  0  0  0
  156.0370  211.5820  155.8130 C   0  0  0  0  0  0  0  0  0  0  0  0
  155.5180  213.3530  154.1410 C   0  0  1  0  0  3  0  0  0  0  0  0
  157.5410  211.9390  155.6450 C   0  0  2  0  0  3  0  0  0  0  0  0
  162.3410  209.1100  153.7700 O   0  0  0  0  0  1  0  0  0  0  0  0
  158.5010  210.5850  153.8510 C   0  0  1  0  0  3  0  0  0  0  0  0
  156.8700  213.8990  154.1780 N   0  0  0  0  0  2  0  0  0  0  0  0
  155.1610  212.7900  155.5080 C   0  0  0  0  0  2  0  0  0  0  0  0
  161.2850  208.2040  153.6530 C   0  0  2  0  0  3  0  0  0  0  0  0
  159.7620  210.8410  156.0880 C   0  0  0  0  0  0  0  0  0  0  0  0
  160.3440  211.2990  152.6250 C   0  0  0  0  0  0  0  0  0  0  0  0
  154.5420  214.4530  153.7820 C   0  0  0  0  0  1  0  0  0  0  0  0
  160.0830  208.8220  152.9240 C   0  0  0  0  0  2  0  0  0  0  0  0
  160.2330  212.0550  156.4960 N   0  0  0  0  0  0  0  0  0  0  0  0
  161.8250  209.8290  156.8370 C   0  0  0  0  0  3  0  0  0  0  0  0
  162.2730  211.0790  157.2610 C   0  0  0  0  0  3  0  0  0  0  0  0
  160.9300  207.5990  155.0140 C   0  0  0  0  0  2  0  0  0  0  0  0
  158.1780  211.9720  153.2660 C   0  0  1  0  0  3  0  0  0  0  0  0
  159.8110  210.1980  153.3420 N   0  0  0  0  0  0  0  0  0  0  0  0
  157.8620  212.8560  154.4590 C   0  0  2  0  0  3  0  0  0  0  0  0
  159.1540  212.7890  151.2490 O   0  0  0  0  0  1  0  0  0  0  0  0
  158.4230  210.7150  155.3940 C   0  0  1  0  0  3  0  0  0  0  0  0
  1 21  1  0  0  0  0
  2  8  1  0  0  0  0
  3 17  2  0  0  0  0
  4 22  1  0  0  0  0
  5 27  1  6  0  0  0
  5 17  1  0  0  0  0
  5 24  1  0  0  0  0
  6  1  1  0  0  0  0
  8  7  1  0  0  0  0
  9 18  1  1  0  0  0
  9 13  1  0  0  0  0
  9 14  1  0  0  0  0
 10  8  1  6  0  0  0
 12 25  1  1  0  0  0
 12 28  1  0  0  0  0
 13 26  1  0  0  0  0
 14  8  1  0  0  0  0
 15 11  1  1  0  0  0
 15 23  1  0  0  0  0
 16  1  2  0  0  0  0
 16 20  1  0  0  0  0
 17 25  1  0  0  0  0
 19 25  1  0  0  0  0
 19 15  1  0  0  0  0
 20  4  2  0  0  0  0
 21 22  2  0  0  0  0
 23  6  1  0  0  0  0
 24 12  1  0  0  0  0
 24 26  1  0  0  0  0
 26 10  1  0  0  0  0
 28 10  1  0  0  0  0
 28 16  1  0  0  0  0
M  END
>  <MODEL>
1

>  <REMARK>
 VINA RESULT:      -3.0      0.000      0.000
  Name = 
  0 active torsions:
  status: ('A' for Active; 'I' for Inactive)
                            x       y       z     vdW  Elec       q    Type
                         _______ _______ _______ _____ _____    ______ ____

>  <TORSDO>
F 0

$$$$
=
 OpenBabel11122414103D

 28 32  0  0  1  0  0  0  0  0999 V2000
  157.3480  211.6040  156.3680 C   0  0  0  0  0  0  0  0  0  0  0  0
  161.9280  209.2240  155.7140 C   0  0  0  0  0  1  0  0  0  0  0  0
  158.4160  213.8230  152.5260 O   0  0  0  0  0  0  0  0  0  0  0  0
  155.5750  210.2090  154.7550 C   0  0  0  0  0  3  0  0  0  0  0  0
  159.4980  211.7000  152.1550 C   0  0  2  0  0  3  0  0  0  0  0  0
  158.2720  212.3220  157.1270 O   0  0  0  0  0  0  0  0  0  0  0  0
  160.3440  207.4920  156.4470 C   0  0  0  0  0  1  0  0  0  0  0  0
  160.8090  208.2940  155.2480 C   0  0  0  0  0  0  0  0  0  0  0  0
  161.6730  208.0480  152.9250 C   0  0  1  0  0  3  0  0  0  0  0  0
  159.5810  209.0410  154.6550 C   0  0  2  0  0  3  0  0  0  0  0  0
  157.3350  214.4520  155.1300 O   0  0  0  0  0  1  0  0  0  0  0  0
  160.0660  211.4340  154.5390 C   0  0  1  0  0  3  0  0  0  0  0  0
  160.4150  208.4790  152.3240 N   0  0  0  0  0  2  0  0  0  0  0  0
  161.3890  207.3200  154.2290 C   0  0  0  0  0  2  0  0  0  0  0  0
  158.4800  214.4360  155.9270 C   0  0  2  0  0  3  0  0  0  0  0  0
  157.8060  210.6220  155.4810 C   0  0  0  0  0  0  0  0  0  0  0  0
  159.0260  212.8230  152.9910 C   0  0  0  0  0  0  0  0  0  0  0  0
  162.3870  207.1120  151.9730 C   0  0  0  0  0  1  0  0  0  0  0  0
  159.6910  213.8680  155.1720 C   0  0  0  0  0  2  0  0  0  0  0  0
  156.9100  209.9610  154.6920 N   0  0  0  0  0  0  0  0  0  0  0  0
  155.9780  211.8780  156.4420 C   0  0  0  0  0  3  0  0  0  0  0  0
  155.0840  211.1740  155.6360 C   0  0  0  0  0  3  0  0  0  0  0  0
  158.2080  213.7360  157.2610 C   0  0  0  0  0  2  0  0  0  0  0  0
  160.2960  210.8420  153.1360 C   0  0  1  0  0  3  0  0  0  0  0  0
  159.3570  212.6950  154.3640 N   0  0  0  0  0  0  0  0  0  0  0  0
  159.7140  209.4420  153.1820 C   0  0  2  0  0  3  0  0  0  0  0  0
  160.3510  212.1760  151.1590 O   0  0  0  0  0  1  0  0  0  0  0  0
  159.2930  210.3680  155.3570 C   0  0  1  0  0  3  0  0  0  0  0  0
  1 21  1  0  0  0  0
  1  6  1  0  0  0  0
  3 17  2  0  0  0  0
  4 22  1  0  0  0  0
  5 27  1  6  0  0  0
  5 17  1  0  0  0  0
  5 24  1  0  0  0  0
  6 23  1  0  0  0  0
  8  2  1  0  0  0  0
  8  7  1  0  0  0  0
  9 18  1  6  0  0  0
  9 14  1  0  0  0  0
 10  8  1  1  0  0  0
 10 28  1  0  0  0  0
 12 25  1  6  0  0  0
 12 28  1  0  0  0  0
 13  9  1  0  0  0  0
 13 26  1  0  0  0  0
 14  8  1  0  0  0  0
 15 11  1  6  0  0  0
 15 23  1  0  0  0  0
 16  1  2  0  0  0  0
 17 25  1  0  0  0  0
 19 15  1  0  0  0  0
 20  4  2  0  0  0  0
 20 16  1  0  0  0  0
 22 21  2  0  0  0  0
 24 26  1  0  0  0  0
 24 12  1  0  0  0  0
 25 19  1  0  0  0  0
 26 10  1  0  0  0  0
 28 16  1  0  0  0  0
M  END
>  <MODEL>
2

>  <REMARK>
 VINA RESULT:      -2.5      2.071      5.561
  Name = 
  0 active torsions:
  status: ('A' for Active; 'I' for Inactive)
                            x       y       z     vdW  Elec       q    Type
                         _______ _______ _______ _____ _____    ______ ____

>  <TORSDO>
F 0

$$$$
=
 OpenBabel11122414103D

 28 32  0  0  1  0  0  0  0  0999 V2000
  160.9770  209.3190  156.5070 C   0  0  0  0  0  0  0  0  0  0  0  0
  157.1350  211.6370  153.8760 C   0  0  0  0  0  1  0  0  0  0  0  0
  162.3780  207.8990  152.4020 O   0  0  0  0  0  0  0  0  0  0  0  0
  163.1230  211.0670  156.3380 C   0  0  0  0  0  3  0  0  0  0  0  0
  161.3720  210.0180  151.8440 C   0  0  2  0  0  3  0  0  0  0  0  0
  159.9010  208.4320  156.5280 O   0  0  0  0  0  0  0  0  0  0  0  0
  157.8530  213.2320  155.6040 C   0  0  0  0  0  1  0  0  0  0  0  0
  158.1940  212.6780  154.2350 C   0  0  0  0  0  0  0  0  0  0  0  0
  158.6430  213.3650  151.8840 C   0  0  1  0  0  3  0  0  0  0  0  0
  159.6390  212.1060  154.2870 C   0  0  2  0  0  3  0  0  0  0  0  0
  162.0190  206.7850  155.0440 O   0  0  0  0  0  1  0  0  0  0  0  0
  159.6150  209.7740  153.5570 C   0  0  1  0  0  3  0  0  0  0  0  0
  160.0740  213.1060  151.9940 N   0  0  0  0  0  2  0  0  0  0  0  0
  158.1040  213.8200  153.2310 C   0  0  0  0  0  2  0  0  0  0  0  0
  160.6370  206.6020  155.0920 C   0  0  2  0  0  3  0  0  0  0  0  0
  160.9200  210.4460  155.6790 C   0  0  0  0  0  0  0  0  0  0  0  0
  161.4860  208.7620  152.6160 C   0  0  0  0  0  0  0  0  0  0  0  0
  158.4090  214.4530  150.8570 C   0  0  0  0  0  1  0  0  0  0  0  0
  159.9320  207.2740  153.9050 C   0  0  0  0  0  2  0  0  0  0  0  0
  161.9960  211.2820  155.6080 N   0  0  0  0  0  0  0  0  0  0  0  0
  162.1320  209.0780  157.2610 C   0  0  0  0  0  3  0  0  0  0  0  0
  163.2100  209.9590  157.1830 C   0  0  0  0  0  3  0  0  0  0  0  0
  160.0770  207.0230  156.4530 C   0  0  0  0  0  2  0  0  0  0  0  0
  160.0720  210.6310  152.3630 C   0  0  1  0  0  3  0  0  0  0  0  0
  160.4760  208.5980  153.5960 N   0  0  0  0  0  0  0  0  0  0  0  0
  160.3490  212.0110  152.9320 C   0  0  2  0  0  3  0  0  0  0  0  0
  161.2350  209.7280  150.4870 O   0  0  0  0  0  1  0  0  0  0  0  0
  159.6970  210.6730  154.8170 C   0  0  1  0  0  3  0  0  0  0  0  0
  1  6  1  0  0  0  0
  1 21  1  0  0  0  0
  2  8  1  0  0  0  0
  3 17  2  0  0  0  0
  4 22  1  0  0  0  0
  5 27  1  6  0  0  0
  5 24  1  0  0  0  0
  5 17  1  0  0  0  0
  8  7  1  0  0  0  0
  9 18  1  6  0  0  0
  9 13  1  0  0  0  0
  9 14  1  0  0  0  0
 10  8  1  6  0  0  0
 10 28  1  0  0  0  0
 12 25  1  1  0  0  0
 12 28  1  0  0  0  0
 13 26  1  0  0  0  0
 14  8  1  0  0  0  0
 15 11  1  1  0  0  0
 15 23  1  0  0  0  0
 16  1  2  0  0  0  0
 17 25  1  0  0  0  0
 19 15  1  0  0  0  0
 20 16  1  0  0  0  0
 20  4  2  0  0  0  0
 22 21  2  0  0  0  0
 23  6  1  0  0  0  0
 24 26  1  0  0  0  0
 24 12  1  0  0  0  0
 25 19  1  0  0  0  0
 26 10  1  0  0  0  0
 28 16  1  0  0  0  0
M  END
>  <MODEL>
3

>  <REMARK>
 VINA RESULT:      -2.2      2.036      2.674
  Name = 
  0 active torsions:
  status: ('A' for Active; 'I' for Inactive)
                            x       y       z     vdW  Elec       q    Type
                         _______ _______ _______ _____ _____    ______ ____

>  <TORSDO>
F 0

$$$$
