=
 OpenBabel11122412413D

 30 36  0  0  1  0  0  0  0  0999 V2000
  161.8120  208.3960  151.2420 C   0  0  0  0  0  0  0  0  0  0  0  0
  161.5760  209.1530  153.5660 C   0  0  0  0  0  0  0  0  0  0  0  0
  160.4030  204.5790  152.3010 N   0  0  0  0  0  2  0  0  0  0  0  0
  161.8220  207.2880  150.1980 C   0  0  2  0  0  3  0  0  0  0  0  0
  162.3390  209.7180  150.7660 C   0  0  0  0  0  2  0  0  0  0  0  0
  163.3210  208.8390  148.1520 C   0  0  0  0  0  1  0  0  0  0  0  0
  162.2030  205.5900  147.8710 C   0  0  1  0  0  3  0  0  0  0  0  0
  161.8910  209.0500  148.4050 N   0  0  0  0  0  0  0  0  0  0  0  0
  161.8510  204.5190  148.9170 C   0  0  2  0  0  3  0  0  0  0  0  0
  160.4570  203.8420  151.0420 C   0  0  2  0  0  3  0  0  0  0  0  0
  161.6840  210.0860  149.4320 C   0  0  2  0  0  3  0  0  0  0  0  0
  161.2520  207.8010  148.8540 C   0  0  1  0  0  3  0  0  0  0  0  0
  161.2620  208.8500  154.8930 C   0  0  0  0  0  3  0  0  0  0  0  0
  161.4320  203.3320  148.0930 C   0  0  0  0  0  2  0  0  0  0  0  0
  162.3890  204.9300  146.5820 N   0  0  0  0  0  2  0  0  0  0  0  0
  161.9840  210.4540  153.2950 O   0  0  0  0  0  1  0  0  0  0  0  0
  160.8390  205.8970  152.0310 C   0  0  0  0  0  0  0  0  0  0  0  0
  160.8380  207.5760  155.2540 C   0  0  0  0  0  3  0  0  0  0  0  0
  161.4780  208.1540  152.5510 C   0  0  0  0  0  0  0  0  0  0  0  0
  161.0800  206.1240  150.6680 N   0  0  0  0  0  0  0  0  0  0  0  0
  161.5040  202.8320  151.1340 N   0  0  0  0  0  1  0  0  0  0  0  0
  160.7640  204.9020  149.9400 C   0  0  1  0  0  3  0  0  0  0  0  0
  162.1960  203.5020  146.8030 C   0  0  0  0  0  2  0  0  0  0  0  0
  159.7910  206.3370  147.3960 C   0  0  0  0  0  1  0  0  0  0  0  0
  160.7100  206.5890  154.2850 C   0  0  0  0  0  3  0  0  0  0  0  0
  161.0120  206.8590  152.9440 C   0  0  0  0  0  0  0  0  0  0  0  0
  161.2150  206.7650  147.7170 C   0  0  2  0  0  3  0  0  0  0  0  0
  162.1480  211.4550  148.9520 C   0  0  0  0  0  3  0  0  0  0  0  0
  161.1930  211.9680  147.8920 C   0  0  0  0  0  2  0  0  0  0  0  0
  161.1040  212.4940  149.3090 C   0  0  0  0  0  2  0  0  0  0  0  0
  1 19  2  0  0  0  0
  2 13  2  0  0  0  0
  4 20  1  0  0  0  0
  4  1  1  1  0  0  0
  5  1  1  0  0  0  0
  6  8  1  0  0  0  0
  7 15  1  6  0  0  0
  7  9  1  0  0  0  0
  8 11  1  0  0  0  0
  9 14  1  6  0  0  0
  9 22  1  0  0  0  0
 10 21  1  1  0  0  0
 10  3  1  0  0  0  0
 11 28  1  6  0  0  0
 11  5  1  0  0  0  0
 12  8  1  6  0  0  0
 12  4  1  0  0  0  0
 13 18  1  0  0  0  0
 15 23  1  0  0  0  0
 16  2  1  0  0  0  0
 17  3  1  0  0  0  0
 17 26  2  0  0  0  0
 19 26  1  0  0  0  0
 19  2  1  0  0  0  0
 20 17  1  0  0  0  0
 22 20  1  1  0  0  0
 22 10  1  0  0  0  0
 23 14  1  0  0  0  0
 25 18  2  0  0  0  0
 26 25  1  0  0  0  0
 27 24  1  1  0  0  0
 27  7  1  0  0  0  0
 27 12  1  0  0  0  0
 28 30  1  0  0  0  0
 29 28  1  0  0  0  0
 29 30  1  0  0  0  0
M  END
>  <MODEL>
1

>  <REMARK>
 VINA RESULT:      -6.4      0.000      0.000
  Name = 
  1 active torsions:
  status: ('A' for Active; 'I' for Inactive)
    1  A    between atoms: C_11  and  C_28
                            x       y       z     vdW  Elec       q    Type
                         _______ _______ _______ _____ _____    ______ ____

>  <TORSDO>
F 1

$$$$
=
 OpenBabel11122412413D

 30 36  0  0  1  0  0  0  0  0999 V2000
  161.0480  208.5310  151.2760 C   0  0  0  0  0  0  0  0  0  0  0  0
  161.3040  206.6190  149.7570 C   0  0  0  0  0  0  0  0  0  0  0  0
  160.9390  205.9390  154.5850 N   0  0  0  0  0  2  0  0  0  0  0  0
  160.7580  209.1050  152.6560 C   0  0  2  0  0  3  0  0  0  0  0  0
  161.0600  209.5370  150.1620 C   0  0  0  0  0  2  0  0  0  0  0  0
  160.0950  211.8380  151.6930 C   0  0  0  0  0  1  0  0  0  0  0  0
  160.0420  210.7290  154.9570 C   0  0  1  0  0  3  0  0  0  0  0  0
  161.4770  211.3610  151.8110 N   0  0  0  0  0  0  0  0  0  0  0  0
  159.8980  209.3280  155.5750 C   0  0  2  0  0  3  0  0  0  0  0  0
  160.7560  206.8470  155.7140 C   0  0  2  0  0  3  0  0  0  0  0  0
  161.9290  210.7350  150.5570 C   0  0  2  0  0  3  0  0  0  0  0  0
  161.5980  210.3800  152.9040 C   0  0  1  0  0  3  0  0  0  0  0  0
  161.3620  205.2340  149.5830 C   0  0  0  0  0  3  0  0  0  0  0  0
  159.9580  209.5790  157.0570 C   0  0  0  0  0  2  0  0  0  0  0  0
  159.7660  211.7200  155.9930 N   0  0  0  0  0  2  0  0  0  0  0  0
  161.4000  207.4040  148.6150 O   0  0  0  0  0  1  0  0  0  0  0  0
  161.0150  206.7360  153.4180 C   0  0  0  0  0  0  0  0  0  0  0  0
  161.2820  204.3730  150.6700 C   0  0  0  0  0  3  0  0  0  0  0  0
  161.1490  207.1790  151.0610 C   0  0  0  0  0  0  0  0  0  0  0  0
  161.0010  208.1100  153.6940 N   0  0  0  0  0  0  0  0  0  0  0  0
  159.4220  206.6480  156.2630 N   0  0  0  0  0  1  0  0  0  0  0  0
  160.9440  208.2850  155.1400 C   0  0  1  0  0  3  0  0  0  0  0  0
  159.4300  210.9840  157.2070 C   0  0  0  0  0  2  0  0  0  0  0  0
  162.5970  210.8820  155.1740 C   0  0  0  0  0  1  0  0  0  0  0  0
  161.1540  204.8890  151.9540 C   0  0  0  0  0  3  0  0  0  0  0  0
  161.0980  206.2720  152.1670 C   0  0  0  0  0  0  0  0  0  0  0  0
  161.3850  211.0540  154.2710 C   0  0  2  0  0  3  0  0  0  0  0  0
  162.0170  211.7470  149.4220 C   0  0  0  0  0  3  0  0  0  0  0  0
  163.0880  211.3130  148.4400 C   0  0  0  0  0  2  0  0  0  0  0  0
  161.6280  211.0770  148.1190 C   0  0  0  0  0  2  0  0  0  0  0  0
  2 19  1  0  0  0  0
  3 10  1  0  0  0  0
  4  1  1  6  0  0  0
  4 12  1  0  0  0  0
  4 20  1  0  0  0  0
  5 11  1  0  0  0  0
  5  1  1  0  0  0  0
  6  8  1  0  0  0  0
  7  9  1  0  0  0  0
  7 15  1  1  0  0  0
  9 14  1  1  0  0  0
 10 21  1  6  0  0  0
 11 28  1  6  0  0  0
 11  8  1  0  0  0  0
 12  8  1  6  0  0  0
 12 27  1  0  0  0  0
 13  2  2  0  0  0  0
 13 18  1  0  0  0  0
 14 23  1  0  0  0  0
 15 23  1  0  0  0  0
 16  2  1  0  0  0  0
 17 20  1  0  0  0  0
 17  3  1  0  0  0  0
 18 25  2  0  0  0  0
 19  1  2  0  0  0  0
 19 26  1  0  0  0  0
 22 20  1  6  0  0  0
 22  9  1  0  0  0  0
 22 10  1  0  0  0  0
 25 26  1  0  0  0  0
 26 17  2  0  0  0  0
 27  7  1  0  0  0  0
 27 24  1  1  0  0  0
 29 28  1  0  0  0  0
 30 29  1  0  0  0  0
 30 28  1  0  0  0  0
M  END
>  <MODEL>
2

>  <REMARK>
 VINA RESULT:      -5.5      2.659      6.081
  Name = 
  1 active torsions:
  status: ('A' for Active; 'I' for Inactive)
    1  A    between atoms: C_11  and  C_28
                            x       y       z     vdW  Elec       q    Type
                         _______ _______ _______ _____ _____    ______ ____

>  <TORSDO>
F 1

$$$$
=
 OpenBabel11122412413D

 30 36  0  0  1  0  0  0  0  0999 V2000
  160.7910  209.4990  152.5850 C   0  0  0  0  0  0  0  0  0  0  0  0
  160.7000  211.8920  152.0400 C   0  0  0  0  0  0  0  0  0  0  0  0
  161.8190  208.5920  148.6110 N   0  0  0  0  0  2  0  0  0  0  0  0
  160.8870  208.0400  152.1610 C   0  0  2  0  0  3  0  0  0  0  0  0
  160.4130  209.7170  154.0220 C   0  0  0  0  0  2  0  0  0  0  0  0
  159.8070  206.9340  154.7000 C   0  0  0  0  0  1  0  0  0  0  0  0
  160.7870  205.1460  151.9200 C   0  0  1  0  0  3  0  0  0  0  0  0
  161.1890  207.4120  154.5770 N   0  0  0  0  0  0  0  0  0  0  0  0
  160.9160  205.5250  150.4360 C   0  0  2  0  0  3  0  0  0  0  0  0
  161.9240  207.1350  148.6180 C   0  0  2  0  0  3  0  0  0  0  0  0
  161.2860  208.8410  154.9250 C   0  0  2  0  0  3  0  0  0  0  0  0
  161.6850  207.2210  153.2030 C   0  0  1  0  0  3  0  0  0  0  0  0
  160.7870  212.8990  151.0770 C   0  0  0  0  0  3  0  0  0  0  0  0
  161.3970  204.2580  149.7800 C   0  0  0  0  0  2  0  0  0  0  0  0
  160.7710  203.6900  152.0240 N   0  0  0  0  0  2  0  0  0  0  0  0
  160.4070  212.2850  153.3410 O   0  0  0  0  0  1  0  0  0  0  0  0
  161.4990  208.9920  149.9300 C   0  0  0  0  0  0  0  0  0  0  0  0
  161.0830  212.5980  149.7520 C   0  0  0  0  0  3  0  0  0  0  0  0
  160.9040  210.5250  151.6810 C   0  0  0  0  0  0  0  0  0  0  0  0
  161.4850  207.9230  150.8370 N   0  0  0  0  0  0  0  0  0  0  0  0
  160.8260  206.5830  147.8370 N   0  0  0  0  0  1  0  0  0  0  0  0
  161.8480  206.7090  150.1160 C   0  0  1  0  0  3  0  0  0  0  0  0
  160.8530  203.1650  150.6660 C   0  0  0  0  0  2  0  0  0  0  0  0
  163.2780  205.3860  152.4990 C   0  0  0  0  0  1  0  0  0  0  0  0
  161.3100  211.2800  149.3770 C   0  0  0  0  0  3  0  0  0  0  0  0
  161.2360  210.2440  150.3170 C   0  0  0  0  0  0  0  0  0  0  0  0
  161.8460  205.7250  152.8820 C   0  0  2  0  0  3  0  0  0  0  0  0
  160.9740  209.0850  156.3950 C   0  0  0  0  0  3  0  0  0  0  0  0
  162.2430  209.4890  157.1200 C   0  0  0  0  0  2  0  0  0  0  0  0
  161.2280  210.5420  156.7290 C   0  0  0  0  0  2  0  0  0  0  0  0
  1  5  1  0  0  0  0
  2 16  1  0  0  0  0
  3 10  1  0  0  0  0
  3 17  1  0  0  0  0
  4  1  1  1  0  0  0
  4 12  1  0  0  0  0
  5 11  1  0  0  0  0
  7 15  1  6  0  0  0
  7 27  1  0  0  0  0
  8  6  1  0  0  0  0
  8 11  1  0  0  0  0
  9 14  1  6  0  0  0
  9  7  1  0  0  0  0
 10 21  1  6  0  0  0
 10 22  1  0  0  0  0
 11 28  1  1  0  0  0
 12  8  1  1  0  0  0
 13  2  2  0  0  0  0
 14 23  1  0  0  0  0
 17 26  2  0  0  0  0
 17 20  1  0  0  0  0
 18 13  1  0  0  0  0
 19  2  1  0  0  0  0
 19  1  2  0  0  0  0
 20  4  1  0  0  0  0
 22  9  1  0  0  0  0
 22 20  1  1  0  0  0
 23 15  1  0  0  0  0
 25 18  2  0  0  0  0
 25 26  1  0  0  0  0
 26 19  1  0  0  0  0
 27 24  1  6  0  0  0
 27 12  1  0  0  0  0
 28 30  1  0  0  0  0
 28 29  1  0  0  0  0
 30 29  1  0  0  0  0
M  END
>  <MODEL>
3

>  <REMARK>
 VINA RESULT:      -5.0      1.661      5.184
  Name = 
  1 active torsions:
  status: ('A' for Active; 'I' for Inactive)
    1  A    between atoms: C_11  and  C_28
                            x       y       z     vdW  Elec       q    Type
                         _______ _______ _______ _____ _____    ______ ____

>  <TORSDO>
F 1

$$$$
=
 OpenBabel11122412413D

 30 36  0  0  1  0  0  0  0  0999 V2000
  161.8500  207.2410  150.7200 C   0  0  0  0  0  0  0  0  0  0  0  0
  161.5370  207.3960  153.1500 C   0  0  0  0  0  0  0  0  0  0  0  0
  160.4000  203.2950  150.7460 N   0  0  0  0  0  2  0  0  0  0  0  0
  161.8930  206.4290  149.4330 C   0  0  2  0  0  3  0  0  0  0  0  0
  162.3950  208.6350  150.6060 C   0  0  0  0  0  2  0  0  0  0  0  0
  163.4620  208.4260  147.8890 C   0  0  0  0  0  1  0  0  0  0  0  0
  162.3490  205.3610  146.7690 C   0  0  1  0  0  3  0  0  0  0  0  0
  162.0250  208.5820  148.1400 N   0  0  0  0  0  0  0  0  0  0  0  0
  161.9600  204.0670  147.5030 C   0  0  2  0  0  3  0  0  0  0  0  0
  160.4950  202.8950  149.3450 C   0  0  2  0  0  3  0  0  0  0  0  0
  161.7850  209.3310  149.3860 C   0  0  2  0  0  3  0  0  0  0  0  0
  161.3700  207.2660  148.2420 C   0  0  1  0  0  3  0  0  0  0  0  0
  161.1790  206.7750  154.3480 C   0  0  0  0  0  3  0  0  0  0  0  0
  161.5680  203.1270  146.3950 C   0  0  0  0  0  2  0  0  0  0  0  0
  162.5770  205.0420  145.3620 N   0  0  0  0  0  2  0  0  0  0  0  0
  161.9560  208.7200  153.2260 O   0  0  0  0  0  1  0  0  0  0  0  0
  160.8470  204.6340  150.8280 C   0  0  0  0  0  0  0  0  0  0  0  0
  160.7410  205.4560  154.3660 C   0  0  0  0  0  3  0  0  0  0  0  0
  161.4720  206.6830  151.9150 C   0  0  0  0  0  0  0  0  0  0  0  0
  161.1340  205.1920  149.5740 N   0  0  0  0  0  0  0  0  0  0  0  0
  161.5360  201.8840  149.2160 N   0  0  0  0  0  1  0  0  0  0  0  0
  160.8410  204.1930  148.5530 C   0  0  1  0  0  3  0  0  0  0  0  0
  162.3750  203.6060  145.2130 C   0  0  0  0  0  2  0  0  0  0  0  0
  159.9560  206.2270  146.4180 C   0  0  0  0  0  1  0  0  0  0  0  0
  160.6440  204.7430  153.1780 C   0  0  0  0  0  3  0  0  0  0  0  0
  160.9900  205.3360  151.9570 C   0  0  0  0  0  0  0  0  0  0  0  0
  161.3690  206.5480  146.8810 C   0  0  2  0  0  3  0  0  0  0  0  0
  162.2670  210.7720  149.2780 C   0  0  0  0  0  3  0  0  0  0  0  0
  161.2690  211.5790  148.4720 C   0  0  0  0  0  2  0  0  0  0  0  0
  161.2840  211.6860  149.9810 C   0  0  0  0  0  2  0  0  0  0  0  0
  1 19  2  0  0  0  0
  2 16  1  0  0  0  0
  2 13  2  0  0  0  0
  3 17  1  0  0  0  0
  4 20  1  0  0  0  0
  4  1  1  1  0  0  0
  5  1  1  0  0  0  0
  6  8  1  0  0  0  0
  7 15  1  6  0  0  0
  7 27  1  0  0  0  0
  7  9  1  0  0  0  0
  8 11  1  0  0  0  0
  9 14  1  6  0  0  0
  9 22  1  0  0  0  0
 10 21  1  1  0  0  0
 10  3  1  0  0  0  0
 11 28  1  6  0  0  0
 11  5  1  0  0  0  0
 12  8  1  6  0  0  0
 12  4  1  0  0  0  0
 13 18  1  0  0  0  0
 17 26  2  0  0  0  0
 19 26  1  0  0  0  0
 19  2  1  0  0  0  0
 20 17  1  0  0  0  0
 22 10  1  0  0  0  0
 22 20  1  1  0  0  0
 23 15  1  0  0  0  0
 23 14  1  0  0  0  0
 25 18  2  0  0  0  0
 26 25  1  0  0  0  0
 27 24  1  1  0  0  0
 27 12  1  0  0  0  0
 28 30  1  0  0  0  0
 29 28  1  0  0  0  0
 29 30  1  0  0  0  0
M  END
>  <MODEL>
4

>  <REMARK>
 VINA RESULT:      -4.7      1.123      1.496
  Name = 
  1 active torsions:
  status: ('A' for Active; 'I' for Inactive)
    1  A    between atoms: C_11  and  C_28
                            x       y       z     vdW  Elec       q    Type
                         _______ _______ _______ _____ _____    ______ ____

>  <TORSDO>
F 1

$$$$
=
 OpenBabel11122412413D

 30 36  0  0  1  0  0  0  0  0999 V2000
  158.8070  212.0200  152.9770 C   0  0  0  0  0  0  0  0  0  0  0  0
  158.4400  213.8480  151.3790 C   0  0  0  0  0  0  0  0  0  0  0  0
  161.8860  210.4770  150.5660 N   0  0  0  0  0  2  0  0  0  0  0  0
  159.4480  210.6920  153.3560 C   0  0  2  0  0  3  0  0  0  0  0  0
  157.7160  212.4810  153.8990 C   0  0  0  0  0  2  0  0  0  0  0  0
  157.5310  210.0640  155.5390 C   0  0  0  0  0  1  0  0  0  0  0  0
  160.1740  208.1160  154.4880 C   0  0  1  0  0  3  0  0  0  0  0  0
  158.6250  211.0260  155.7090 N   0  0  0  0  0  0  0  0  0  0  0  0
  160.9420  208.0400  153.1580 C   0  0  2  0  0  3  0  0  0  0  0  0
  162.3150  209.2860  151.2940 C   0  0  2  0  0  3  0  0  0  0  0  0
  158.1920  212.3880  155.3510 C   0  0  2  0  0  3  0  0  0  0  0  0
  159.7770  210.6570  154.8670 C   0  0  1  0  0  3  0  0  0  0  0  0
  158.7600  214.4470  150.1590 C   0  0  0  0  0  3  0  0  0  0  0  0
  161.9730  206.9690  153.3970 C   0  0  0  0  0  2  0  0  0  0  0  0
  160.4540  206.9030  155.2510 N   0  0  0  0  0  2  0  0  0  0  0  0
  157.4460  214.4530  152.1380 O   0  0  0  0  0  1  0  0  0  0  0  0
  160.8580  211.0830  151.3260 C   0  0  0  0  0  0  0  0  0  0  0  0
  159.7470  213.9140  149.3380 C   0  0  0  0  0  3  0  0  0  0  0  0
  159.1150  212.6640  151.8050 C   0  0  0  0  0  0  0  0  0  0  0  0
  160.6420  210.4450  152.5560 N   0  0  0  0  0  0  0  0  0  0  0  0
  161.9310  208.1070  150.5310 N   0  0  0  0  0  1  0  0  0  0  0  0
  161.5950  209.3490  152.6760 C   0  0  1  0  0  3  0  0  0  0  0  0
  161.3330  206.0780  154.4320 C   0  0  0  0  0  2  0  0  0  0  0  0
  161.8910  209.5670  155.7320 C   0  0  0  0  0  1  0  0  0  0  0  0
  160.4380  212.7760  149.7370 C   0  0  0  0  0  3  0  0  0  0  0  0
  160.1470  212.1520  150.9560 C   0  0  0  0  0  0  0  0  0  0  0  0
  160.4280  209.3560  155.3690 C   0  0  2  0  0  3  0  0  0  0  0  0
  157.1300  212.9110  156.3110 C   0  0  0  0  0  3  0  0  0  0  0  0
  157.6820  214.0980  157.0750 C   0  0  0  0  0  2  0  0  0  0  0  0
  156.7400  214.3190  155.9110 C   0  0  0  0  0  2  0  0  0  0  0  0
  1  5  1  0  0  0  0
  2 19  1  0  0  0  0
  2 16  1  0  0  0  0
  3 10  1  0  0  0  0
  3 17  1  0  0  0  0
  4  1  1  6  0  0  0
  4 12  1  0  0  0  0
  5 11  1  0  0  0  0
  6  8  1  0  0  0  0
  7 15  1  1  0  0  0
  7 27  1  0  0  0  0
  9 14  1  1  0  0  0
  9  7  1  0  0  0  0
 10 21  1  6  0  0  0
 10 22  1  0  0  0  0
 11  8  1  0  0  0  0
 11 28  1  1  0  0  0
 12 27  1  0  0  0  0
 12  8  1  1  0  0  0
 13  2  2  0  0  0  0
 14 23  1  0  0  0  0
 17 20  1  0  0  0  0
 18 25  2  0  0  0  0
 18 13  1  0  0  0  0
 19  1  2  0  0  0  0
 20  4  1  0  0  0  0
 22 20  1  6  0  0  0
 22  9  1  0  0  0  0
 23 15  1  0  0  0  0
 25 26  1  0  0  0  0
 26 17  2  0  0  0  0
 26 19  1  0  0  0  0
 27 24  1  6  0  0  0
 28 29  1  0  0  0  0
 30 28  1  0  0  0  0
 30 29  1  0  0  0  0
M  END
>  <MODEL>
5

>  <REMARK>
 VINA RESULT:      -4.4      3.735      7.143
  Name = 
  1 active torsions:
  status: ('A' for Active; 'I' for Inactive)
    1  A    between atoms: C_11  and  C_28
                            x       y       z     vdW  Elec       q    Type
                         _______ _______ _______ _____ _____    ______ ____

>  <TORSDO>
F 1

$$$$
=
 OpenBabel11122412413D

 30 36  0  0  1  0  0  0  0  0999 V2000
  161.1740  204.5890  148.9350 C   0  0  0  0  0  0  0  0  0  0  0  0
  160.9120  202.1500  148.8250 C   0  0  0  0  0  0  0  0  0  0  0  0
  161.2060  204.4350  153.1360 N   0  0  0  0  0  2  0  0  0  0  0  0
  161.1870  205.8920  149.7220 C   0  0  2  0  0  3  0  0  0  0  0  0
  161.1590  204.7520  147.4430 C   0  0  0  0  0  2  0  0  0  0  0  0
  160.7850  207.6540  147.3630 C   0  0  0  0  0  1  0  0  0  0  0  0
  161.0780  208.6420  150.6520 C   0  0  1  0  0  3  0  0  0  0  0  0
  162.0850  207.0550  147.6820 N   0  0  0  0  0  0  0  0  0  0  0  0
  160.8310  207.9110  151.9820 C   0  0  2  0  0  3  0  0  0  0  0  0
  161.3340  205.8380  153.5210 C   0  0  2  0  0  3  0  0  0  0  0  0
  162.2420  205.7480  147.0200 C   0  0  2  0  0  3  0  0  0  0  0  0
  162.2310  206.8720  149.1370 C   0  0  1  0  0  3  0  0  0  0  0  0
  160.7420  200.9380  149.4970 C   0  0  0  0  0  3  0  0  0  0  0  0
  161.1560  208.9420  153.0290 C   0  0  0  0  0  2  0  0  0  0  0  0
  161.1120  210.0780  150.9170 N   0  0  0  0  0  2  0  0  0  0  0  0
  160.9420  202.1040  147.4360 O   0  0  0  0  0  1  0  0  0  0  0  0
  161.2140  204.3880  151.7220 C   0  0  0  0  0  0  0  0  0  0  0  0
  160.7080  200.8890  150.8860 C   0  0  0  0  0  3  0  0  0  0  0  0
  161.0440  203.3710  149.5530 C   0  0  0  0  0  0  0  0  0  0  0  0
  161.4420  205.6420  151.1360 N   0  0  0  0  0  0  0  0  0  0  0  0
  160.0860  206.2710  154.1350 N   0  0  0  0  0  1  0  0  0  0  0  0
  161.6360  206.6160  152.2030 C   0  0  1  0  0  3  0  0  0  0  0  0
  160.8660  210.2540  152.3430 C   0  0  0  0  0  2  0  0  0  0  0  0
  163.6310  208.3570  150.6330 C   0  0  0  0  0  1  0  0  0  0  0  0
  160.8570  202.0570  151.6220 C   0  0  0  0  0  3  0  0  0  0  0  0
  161.0340  203.2900  150.9820 C   0  0  0  0  0  0  0  0  0  0  0  0
  162.3320  208.2310  149.8520 C   0  0  2  0  0  3  0  0  0  0  0  0
  162.2970  205.8880  145.5040 C   0  0  0  0  0  3  0  0  0  0  0  0
  162.8560  204.6150  144.9000 C   0  0  0  0  0  2  0  0  0  0  0  0
  161.3650  204.8750  144.8710 C   0  0  0  0  0  2  0  0  0  0  0  0
  1 19  2  0  0  0  0
  2 13  2  0  0  0  0
  2 19  1  0  0  0  0
  3 10  1  0  0  0  0
  4  1  1  6  0  0  0
  4 20  1  0  0  0  0
  5  1  1  0  0  0  0
  6  8  1  0  0  0  0
  7 15  1  1  0  0  0
  7  9  1  0  0  0  0
  9 22  1  0  0  0  0
  9 14  1  1  0  0  0
 10 21  1  6  0  0  0
 11 28  1  6  0  0  0
 11  5  1  0  0  0  0
 11  8  1  0  0  0  0
 12  8  1  6  0  0  0
 12  4  1  0  0  0  0
 12 27  1  0  0  0  0
 13 18  1  0  0  0  0
 15 23  1  0  0  0  0
 16  2  1  0  0  0  0
 17  3  1  0  0  0  0
 18 25  2  0  0  0  0
 19 26  1  0  0  0  0
 20 17  1  0  0  0  0
 22 20  1  6  0  0  0
 22 10  1  0  0  0  0
 23 14  1  0  0  0  0
 26 25  1  0  0  0  0
 26 17  2  0  0  0  0
 27 24  1  1  0  0  0
 27  7  1  0  0  0  0
 29 28  1  0  0  0  0
 30 29  1  0  0  0  0
 30 28  1  0  0  0  0
M  END
>  <MODEL>
6

>  <REMARK>
 VINA RESULT:      -4.1      2.648      5.776
  Name = 
  1 active torsions:
  status: ('A' for Active; 'I' for Inactive)
    1  A    between atoms: C_11  and  C_28
                            x       y       z     vdW  Elec       q    Type
                         _______ _______ _______ _____ _____    ______ ____

>  <TORSDO>
F 1

$$$$
=
 OpenBabel11122412413D

 30 36  0  0  1  0  0  0  0  0999 V2000
  160.5270  210.7820  151.5460 C   0  0  0  0  0  0  0  0  0  0  0  0
  161.8920  209.2830  150.1610 C   0  0  0  0  0  0  0  0  0  0  0  0
  160.9270  208.1810  154.8250 N   0  0  0  0  0  2  0  0  0  0  0  0
  159.7480  211.0750  152.8210 C   0  0  2  0  0  3  0  0  0  0  0  0
  160.3110  211.7670  150.4330 C   0  0  0  0  0  2  0  0  0  0  0  0
  158.1500  213.3030  151.6740 C   0  0  0  0  0  1  0  0  0  0  0  0
  157.9540  212.0600  154.8830 C   0  0  1  0  0  3  0  0  0  0  0  0
  159.5480  213.4710  152.0860 N   0  0  0  0  0  0  0  0  0  0  0  0
  158.3250  210.6980  155.4930 C   0  0  2  0  0  3  0  0  0  0  0  0
  160.1450  208.8380  155.8690 C   0  0  2  0  0  3  0  0  0  0  0  0
  160.4660  213.1930  150.9680 C   0  0  2  0  0  3  0  0  0  0  0  0
  159.8720  212.5680  153.2040 C   0  0  1  0  0  3  0  0  0  0  0  0
  162.5880  208.0790  150.0370 C   0  0  0  0  0  3  0  0  0  0  0  0
  157.9760  210.8470  156.9490 C   0  0  0  0  0  2  0  0  0  0  0  0
  157.0710  212.7570  155.8150 N   0  0  0  0  0  2  0  0  0  0  0  0
  161.8540  210.1080  149.0430 O   0  0  0  0  0  1  0  0  0  0  0  0
  160.8700  209.0090  153.6790 C   0  0  0  0  0  0  0  0  0  0  0  0
  162.6850  207.1960  151.1060 C   0  0  0  0  0  3  0  0  0  0  0  0
  161.2530  209.6280  151.3900 C   0  0  0  0  0  0  0  0  0  0  0  0
  160.1970  210.2170  153.9120 N   0  0  0  0  0  0  0  0  0  0  0  0
  158.9560  208.0390  156.1360 N   0  0  0  0  0  1  0  0  0  0  0  0
  159.7870  210.2490  155.3100 C   0  0  1  0  0  3  0  0  0  0  0  0
  156.8640  211.8660  156.9510 C   0  0  0  0  0  2  0  0  0  0  0  0
  160.0810  213.2980  155.6190 C   0  0  0  0  0  1  0  0  0  0  0  0
  162.0940  207.5150  152.3220 C   0  0  0  0  0  3  0  0  0  0  0  0
  161.3920  208.7160  152.4840 C   0  0  0  0  0  0  0  0  0  0  0  0
  159.1210  212.9850  154.4810 C   0  0  2  0  0  3  0  0  0  0  0  0
  160.3180  214.2170  149.8500 C   0  0  0  0  0  3  0  0  0  0  0  0
  161.5810  214.2330  149.0110 C   0  0  0  0  0  2  0  0  0  0  0  0
  160.3500  213.5080  148.5110 C   0  0  0  0  0  2  0  0  0  0  0  0
  2 19  1  0  0  0  0
  3 10  1  0  0  0  0
  4  1  1  6  0  0  0
  4 12  1  0  0  0  0
  4 20  1  0  0  0  0
  5 11  1  0  0  0  0
  5  1  1  0  0  0  0
  6  8  1  0  0  0  0
  7  9  1  0  0  0  0
  7 15  1  1  0  0  0
  9 14  1  1  0  0  0
 10 21  1  6  0  0  0
 11 28  1  6  0  0  0
 11  8  1  0  0  0  0
 12  8  1  6  0  0  0
 12 27  1  0  0  0  0
 13  2  2  0  0  0  0
 13 18  1  0  0  0  0
 14 23  1  0  0  0  0
 15 23  1  0  0  0  0
 16  2  1  0  0  0  0
 17 20  1  0  0  0  0
 17  3  1  0  0  0  0
 18 25  2  0  0  0  0
 19  1  2  0  0  0  0
 19 26  1  0  0  0  0
 22 20  1  6  0  0  0
 22  9  1  0  0  0  0
 22 10  1  0  0  0  0
 25 26  1  0  0  0  0
 26 17  2  0  0  0  0
 27  7  1  0  0  0  0
 27 24  1  1  0  0  0
 29 28  1  0  0  0  0
 30 29  1  0  0  0  0
 30 28  1  0  0  0  0
M  END
>  <MODEL>
7

>  <REMARK>
 VINA RESULT:      -3.5      3.740      6.985
  Name = 
  1 active torsions:
  status: ('A' for Active; 'I' for Inactive)
    1  A    between atoms: C_11  and  C_28
                            x       y       z     vdW  Elec       q    Type
                         _______ _______ _______ _____ _____    ______ ____

>  <TORSDO>
F 1

$$$$
