=
 OpenBabel11122413093D

 31 35  0  0  1  0  0  0  0  0999 V2000
  160.9390  206.6960  146.9720 C   0  0  0  0  0  0  0  0  0  0  0  0
  160.7400  204.8950  150.2630 N   0  0  0  0  0  0  0  0  0  0  0  0
  160.8500  203.4690  150.0200 C   0  0  0  0  0  0  0  0  0  0  0  0
  161.1130  201.5720  148.5170 C   0  0  0  0  0  0  0  0  0  0  0  0
  161.0850  205.8610  149.2490 C   0  0  0  0  0  0  0  0  0  0  0  0
  161.7900  207.7540  147.3020 C   0  0  0  0  0  3  0  0  0  0  0  0
  160.9380  202.9430  148.7200 C   0  0  0  0  0  3  0  0  0  0  0  0
  162.1510  205.9690  151.9330 C   0  0  2  0  0  3  0  0  0  0  0  0
  160.4460  206.5800  145.6800 O   0  0  0  0  0  1  0  0  0  0  0  0
  160.8600  203.0910  152.4090 O   0  0  0  0  0  0  0  0  0  0  0  0
  161.2180  200.9360  146.8910 Cl  0  0  0  0  0  0  0  0  0  0  0  0
  162.4280  207.1490  150.9910 C   0  0  0  0  0  2  0  0  0  0  0  0
  160.7580  205.4070  151.6420 C   0  0  2  0  0  3  0  0  0  0  0  0
  160.5850  205.7560  147.9430 C   0  0  0  0  0  3  0  0  0  0  0  0
  161.2220  200.7110  149.6120 C   0  0  0  0  0  3  0  0  0  0  0  0
  161.9390  206.9380  149.5800 C   0  0  0  0  0  0  0  0  0  0  0  0
  162.2830  207.8770  148.6030 C   0  0  0  0  0  3  0  0  0  0  0  0
  160.2810  204.3650  152.6600 C   0  0  0  0  0  2  0  0  0  0  0  0
  160.9440  202.5900  151.1140 C   0  0  0  0  0  0  0  0  0  0  0  0
  161.1400  201.2210  150.9090 C   0  0  0  0  0  3  0  0  0  0  0  0
  162.2550  206.4320  153.3120 N   0  0  0  0  0  2  0  0  0  0  0  0
  160.2800  207.0260  154.5970 C   0  0  0  0  0  1  0  0  0  0  0  0
  161.2520  207.4730  153.5110 C   0  0  1  0  0  3  0  0  0  0  0  0
  159.7740  210.6220  154.6870 C   0  0  1  0  0  3  0  0  0  0  0  0
  161.5490  209.1780  155.3560 C   0  0  0  0  0  2  0  0  0  0  0  0
  161.8120  209.7930  151.6790 O   0  0  0  0  0  1  0  0  0  0  0  0
  158.3100  210.9560  154.8810 C   0  0  0  0  0  1  0  0  0  0  0  0
  160.1120  209.4400  155.4780 N   0  0  0  0  0  2  0  0  0  0  0  0
  161.5110  210.0050  153.0240 C   0  0  2  0  0  3  0  0  0  0  0  0
  161.9100  208.8100  153.9100 C   0  0  2  0  0  3  0  0  0  0  0  0
  160.0420  210.3680  153.2050 C   0  0  0  0  0  2  0  0  0  0  0  0
  1  6  2  0  0  0  0
  1 14  1  0  0  0  0
  2 13  1  0  0  0  0
  3  2  1  0  0  0  0
  3 19  1  0  0  0  0
  4  7  1  0  0  0  0
  4 15  2  0  0  0  0
  5 16  1  0  0  0  0
  5  2  1  0  0  0  0
  6 17  1  0  0  0  0
  7  3  2  0  0  0  0
  8 21  1  1  0  0  0
  9  1  1  0  0  0  0
 10 18  1  0  0  0  0
 11  4  1  0  0  0  0
 12  8  1  0  0  0  0
 13  8  1  0  0  0  0
 13 18  1  1  0  0  0
 14  5  2  0  0  0  0
 15 20  1  0  0  0  0
 16 12  1  0  0  0  0
 17 16  2  0  0  0  0
 19 10  1  0  0  0  0
 20 19  2  0  0  0  0
 21 23  1  0  0  0  0
 23 22  1  1  0  0  0
 24 27  1  6  0  0  0
 24 28  1  0  0  0  0
 25 28  1  0  0  0  0
 29 26  1  6  0  0  0
 29 31  1  0  0  0  0
 29 30  1  0  0  0  0
 30 23  1  6  0  0  0
 30 25  1  0  0  0  0
 31 24  1  0  0  0  0
M  END
>  <MODEL>
1

>  <REMARK>
 VINA RESULT:      -8.0      0.000      0.000
  Name = 
  3 active torsions:
  status: ('A' for Active; 'I' for Inactive)
    1  A    between atoms: C_5  and  N_16
    2  A    between atoms: C_5  and  C_30
    3  A    between atoms: C_10  and  N_16
                            x       y       z     vdW  Elec       q    Type
                         _______ _______ _______ _____ _____    ______ ____

>  <TORSDO>
F 3

$$$$
=
 OpenBabel11122413093D

 31 35  0  0  1  0  0  0  0  0999 V2000
  160.7870  201.7700  149.0340 C   0  0  0  0  0  0  0  0  0  0  0  0
  161.9320  205.1490  150.2110 N   0  0  0  0  0  0  0  0  0  0  0  0
  161.6900  206.1150  149.1570 C   0  0  0  0  0  0  0  0  0  0  0  0
  160.8870  206.6940  146.9320 C   0  0  0  0  0  0  0  0  0  0  0  0
  161.3280  203.8390  150.1860 C   0  0  0  0  0  0  0  0  0  0  0  0
  160.1290  201.3030  150.1740 C   0  0  0  0  0  3  0  0  0  0  0  0
  161.1760  205.7340  147.9060 C   0  0  0  0  0  3  0  0  0  0  0  0
  161.1640  205.5890  152.4800 C   0  0  2  0  0  3  0  0  0  0  0  0
  160.8440  200.9810  147.8940 O   0  0  0  0  0  1  0  0  0  0  0  0
  162.4150  207.8790  150.6450 O   0  0  0  0  0  0  0  0  0  0  0  0
  160.2500  206.2000  145.3800 Cl  0  0  0  0  0  0  0  0  0  0  0  0
  160.6560  204.1480  152.6260 C   0  0  0  0  0  2  0  0  0  0  0  0
  162.3690  205.6060  151.5390 C   0  0  2  0  0  3  0  0  0  0  0  0
  161.3880  203.0310  149.0410 C   0  0  0  0  0  3  0  0  0  0  0  0
  161.0920  208.0490  147.2040 C   0  0  0  0  0  3  0  0  0  0  0  0
  160.6680  203.3580  151.3410 C   0  0  0  0  0  0  0  0  0  0  0  0
  160.0750  202.0930  151.3250 C   0  0  0  0  0  3  0  0  0  0  0  0
  163.0970  206.9550  151.4820 C   0  0  0  0  0  2  0  0  0  0  0  0
  161.9070  207.4810  149.4120 C   0  0  0  0  0  0  0  0  0  0  0  0
  161.5980  208.4420  148.4450 C   0  0  0  0  0  3  0  0  0  0  0  0
  161.5190  206.0990  153.8000 N   0  0  0  0  0  2  0  0  0  0  0  0
  159.9730  206.9690  155.4600 C   0  0  0  0  0  1  0  0  0  0  0  0
  160.6250  207.2110  154.1040 C   0  0  1  0  0  3  0  0  0  0  0  0
  159.6860  210.5000  155.4420 C   0  0  1  0  0  3  0  0  0  0  0  0
  161.5760  209.0500  155.5580 C   0  0  0  0  0  2  0  0  0  0  0  0
  160.5000  209.3510  151.9920 O   0  0  0  0  0  1  0  0  0  0  0  0
  158.3920  210.9030  156.1180 C   0  0  0  0  0  1  0  0  0  0  0  0
  160.2810  209.3740  156.1630 N   0  0  0  0  0  2  0  0  0  0  0  0
  160.7050  209.6840  153.3300 C   0  0  2  0  0  3  0  0  0  0  0  0
  161.3890  208.5510  154.1180 C   0  0  2  0  0  3  0  0  0  0  0  0
  159.4010  210.1150  153.9930 C   0  0  0  0  0  2  0  0  0  0  0  0
  1 14  2  0  0  0  0
  1  6  1  0  0  0  0
  2 13  1  0  0  0  0
  3 19  1  0  0  0  0
  3  2  1  0  0  0  0
  4 15  2  0  0  0  0
  4  7  1  0  0  0  0
  5  2  1  0  0  0  0
  5 16  2  0  0  0  0
  6 17  2  0  0  0  0
  7  3  2  0  0  0  0
  8 12  1  0  0  0  0
  8 21  1  1  0  0  0
  9  1  1  0  0  0  0
 10 18  1  0  0  0  0
 11  4  1  0  0  0  0
 13 18  1  6  0  0  0
 13  8  1  0  0  0  0
 14  5  1  0  0  0  0
 15 20  1  0  0  0  0
 16 12  1  0  0  0  0
 17 16  1  0  0  0  0
 19 10  1  0  0  0  0
 20 19  2  0  0  0  0
 21 23  1  0  0  0  0
 23 22  1  1  0  0  0
 24 27  1  1  0  0  0
 24 28  1  0  0  0  0
 25 28  1  0  0  0  0
 29 26  1  6  0  0  0
 29 31  1  0  0  0  0
 29 30  1  0  0  0  0
 30 23  1  1  0  0  0
 30 25  1  0  0  0  0
 31 24  1  0  0  0  0
M  END
>  <MODEL>
2

>  <REMARK>
 VINA RESULT:      -6.8      1.850      3.984
  Name = 
  3 active torsions:
  status: ('A' for Active; 'I' for Inactive)
    1  A    between atoms: C_5  and  N_16
    2  A    between atoms: C_5  and  C_30
    3  A    between atoms: C_10  and  N_16
                            x       y       z     vdW  Elec       q    Type
                         _______ _______ _______ _____ _____    ______ ____

>  <TORSDO>
F 3

$$$$
=
 OpenBabel11122413093D

 31 35  0  0  1  0  0  0  0  0999 V2000
  161.2050  201.9600  150.5560 C   0  0  0  0  0  0  0  0  0  0  0  0
  161.8110  205.1130  148.6050 N   0  0  0  0  0  0  0  0  0  0  0  0
  161.4670  204.8740  147.2160 C   0  0  0  0  0  0  0  0  0  0  0  0
  160.6620  203.4250  145.4330 C   0  0  0  0  0  0  0  0  0  0  0  0
  161.4040  204.2050  149.6500 C   0  0  0  0  0  0  0  0  0  0  0  0
  160.5850  202.4720  151.6970 C   0  0  0  0  0  3  0  0  0  0  0  0
  161.0540  203.6110  146.7620 C   0  0  0  0  0  3  0  0  0  0  0  0
  160.9140  207.0510  149.7780 C   0  0  2  0  0  3  0  0  0  0  0  0
  161.4130  200.5930  150.4320 O   0  0  0  0  0  1  0  0  0  0  0  0
  161.8800  207.2100  146.7410 O   0  0  0  0  0  0  0  0  0  0  0  0
  160.1540  201.8430  144.8850 Cl  0  0  0  0  0  0  0  0  0  0  0  0
  160.6140  206.2030  151.0220 C   0  0  0  0  0  2  0  0  0  0  0  0
  162.1340  206.4750  149.0570 C   0  0  2  0  0  3  0  0  0  0  0  0
  161.6170  202.8240  149.5380 C   0  0  0  0  0  3  0  0  0  0  0  0
  160.6590  204.5050  144.5480 C   0  0  0  0  0  3  0  0  0  0  0  0
  160.7820  204.7190  150.8110 C   0  0  0  0  0  0  0  0  0  0  0  0
  160.3790  203.8470  151.8260 C   0  0  0  0  0  3  0  0  0  0  0  0
  162.6610  207.3590  147.9200 C   0  0  0  0  0  2  0  0  0  0  0  0
  161.4760  205.9500  146.3110 C   0  0  0  0  0  0  0  0  0  0  0  0
  161.0630  205.7680  144.9870 C   0  0  0  0  0  3  0  0  0  0  0  0
  161.1470  208.4300  150.1910 N   0  0  0  0  0  2  0  0  0  0  0  0
  162.6750  209.4430  151.7860 C   0  0  0  0  0  1  0  0  0  0  0  0
  161.5700  208.4120  151.5870 C   0  0  1  0  0  3  0  0  0  0  0  0
  161.4540  210.1910  154.7980 C   0  0  1  0  0  3  0  0  0  0  0  0
  160.2470  210.2330  152.7420 C   0  0  0  0  0  2  0  0  0  0  0  0
  160.6110  206.6850  153.8570 O   0  0  0  0  0  1  0  0  0  0  0  0
  162.6020  210.8040  155.5720 C   0  0  0  0  0  1  0  0  0  0  0  0
  161.4140  210.7640  153.4530 N   0  0  0  0  0  2  0  0  0  0  0  0
  160.4980  208.0740  153.9230 C   0  0  2  0  0  3  0  0  0  0  0  0
  160.3880  208.7200  152.5290 C   0  0  2  0  0  3  0  0  0  0  0  0
  161.6440  208.6780  154.7280 C   0  0  0  0  0  2  0  0  0  0  0  0
  1  6  1  0  0  0  0
  2 13  1  0  0  0  0
  2  5  1  0  0  0  0
  3  2  1  0  0  0  0
  4  7  2  0  0  0  0
  5 16  2  0  0  0  0
  6 17  2  0  0  0  0
  7  3  1  0  0  0  0
  8 21  1  1  0  0  0
  8 12  1  0  0  0  0
  9  1  1  0  0  0  0
 10 18  1  0  0  0  0
 11  4  1  0  0  0  0
 13 18  1  6  0  0  0
 13  8  1  0  0  0  0
 14  5  1  0  0  0  0
 14  1  2  0  0  0  0
 15 20  2  0  0  0  0
 15  4  1  0  0  0  0
 16 12  1  0  0  0  0
 16 17  1  0  0  0  0
 19 10  1  0  0  0  0
 19  3  2  0  0  0  0
 20 19  1  0  0  0  0
 21 23  1  0  0  0  0
 23 22  1  6  0  0  0
 24 27  1  1  0  0  0
 25 28  1  0  0  0  0
 28 24  1  0  0  0  0
 29 26  1  6  0  0  0
 29 31  1  0  0  0  0
 30 23  1  6  0  0  0
 30 25  1  0  0  0  0
 30 29  1  0  0  0  0
 31 24  1  0  0  0  0
M  END
>  <MODEL>
3

>  <REMARK>
 VINA RESULT:      -6.8      1.957      4.344
  Name = 
  3 active torsions:
  status: ('A' for Active; 'I' for Inactive)
    1  A    between atoms: C_5  and  N_16
    2  A    between atoms: C_5  and  C_30
    3  A    between atoms: C_10  and  N_16
                            x       y       z     vdW  Elec       q    Type
                         _______ _______ _______ _____ _____    ______ ____

>  <TORSDO>
F 3

$$$$
=
 OpenBabel11122413093D

 31 35  0  0  1  0  0  0  0  0999 V2000
  162.2240  210.3710  149.5780 C   0  0  0  0  0  0  0  0  0  0  0  0
  161.6650  208.1880  152.5840 N   0  0  0  0  0  0  0  0  0  0  0  0
  160.9120  208.9380  153.5700 C   0  0  0  0  0  0  0  0  0  0  0  0
  159.7770  210.9630  154.3040 C   0  0  0  0  0  0  0  0  0  0  0  0
  161.7720  208.6350  151.2160 C   0  0  0  0  0  0  0  0  0  0  0  0
  161.9560  209.4700  148.5440 C   0  0  0  0  0  3  0  0  0  0  0  0
  160.5620  210.2840  153.3690 C   0  0  0  0  0  3  0  0  0  0  0  0
  160.9400  205.9580  151.9200 C   0  0  2  0  0  3  0  0  0  0  0  0
  162.5770  211.6800  149.2820 O   0  0  0  0  0  1  0  0  0  0  0  0
  160.7920  206.9540  154.9480 O   0  0  0  0  0  0  0  0  0  0  0  0
  159.3530  212.6400  154.0370 Cl  0  0  0  0  0  0  0  0  0  0  0  0
  161.2050  206.2730  150.4420 C   0  0  0  0  0  2  0  0  0  0  0  0
  161.9160  206.7530  152.7890 C   0  0  2  0  0  3  0  0  0  0  0  0
  162.1360  209.9540  150.9080 C   0  0  0  0  0  3  0  0  0  0  0  0
  159.3170  210.3000  155.4440 C   0  0  0  0  0  3  0  0  0  0  0  0
  161.5090  207.7250  150.1670 C   0  0  0  0  0  0  0  0  0  0  0  0
  161.6050  208.1500  148.8390 C   0  0  0  0  0  3  0  0  0  0  0  0
  161.8930  206.3610  154.2710 C   0  0  0  0  0  2  0  0  0  0  0  0
  160.4570  208.2860  154.7300 C   0  0  0  0  0  0  0  0  0  0  0  0
  159.6550  208.9610  155.6550 C   0  0  0  0  0  3  0  0  0  0  0  0
  161.0920  204.5240  152.1320 N   0  0  0  0  0  2  0  0  0  0  0  0
  162.1170  202.5480  151.1570 C   0  0  0  0  0  1  0  0  0  0  0  0
  161.5460  203.9330  150.8780 C   0  0  1  0  0  3  0  0  0  0  0  0
  160.7920  201.3850  148.3420 C   0  0  1  0  0  3  0  0  0  0  0  0
  159.6050  202.5260  150.0670 C   0  0  0  0  0  2  0  0  0  0  0  0
  161.5410  205.0250  148.0740 O   0  0  0  0  0  1  0  0  0  0  0  0
  161.5830  200.1400  147.9990 C   0  0  0  0  0  1  0  0  0  0  0  0
  160.4470  201.3660  149.7640 N   0  0  0  0  0  2  0  0  0  0  0  0
  160.8310  203.8670  148.3870 C   0  0  2  0  0  3  0  0  0  0  0  0
  160.3890  203.8300  149.8620 C   0  0  2  0  0  3  0  0  0  0  0  0
  161.6250  202.6200  148.0120 C   0  0  0  0  0  2  0  0  0  0  0  0
  1 14  1  0  0  0  0
  2 13  1  0  0  0  0
  2  3  1  0  0  0  0
  3 19  1  0  0  0  0
  4 15  2  0  0  0  0
  5  2  1  0  0  0  0
  6 17  1  0  0  0  0
  6  1  2  0  0  0  0
  7  3  2  0  0  0  0
  7  4  1  0  0  0  0
  8 21  1  6  0  0  0
  8 13  1  0  0  0  0
  9  1  1  0  0  0  0
 11  4  1  0  0  0  0
 12  8  1  0  0  0  0
 13 18  1  1  0  0  0
 14  5  2  0  0  0  0
 15 20  1  0  0  0  0
 16 12  1  0  0  0  0
 16  5  1  0  0  0  0
 17 16  2  0  0  0  0
 18 10  1  0  0  0  0
 19 10  1  0  0  0  0
 19 20  2  0  0  0  0
 23 22  1  1  0  0  0
 23 21  1  0  0  0  0
 24 27  1  1  0  0  0
 24 28  1  0  0  0  0
 28 25  1  0  0  0  0
 29 26  1  1  0  0  0
 29 30  1  0  0  0  0
 30 25  1  0  0  0  0
 30 23  1  1  0  0  0
 31 24  1  0  0  0  0
 31 29  1  0  0  0  0
M  END
>  <MODEL>
4

>  <REMARK>
 VINA RESULT:      -6.0      3.080      7.245
  Name = 
  3 active torsions:
  status: ('A' for Active; 'I' for Inactive)
    1  A    between atoms: C_5  and  N_16
    2  A    between atoms: C_5  and  C_30
    3  A    between atoms: C_10  and  N_16
                            x       y       z     vdW  Elec       q    Type
                         _______ _______ _______ _____ _____    ______ ____

>  <TORSDO>
F 3

$$$$
=
 OpenBabel11122413093D

 31 35  0  0  1  0  0  0  0  0999 V2000
  161.1260  202.1360  150.7440 C   0  0  0  0  0  0  0  0  0  0  0  0
  161.8920  205.3310  148.9220 N   0  0  0  0  0  0  0  0  0  0  0  0
  161.5580  205.1600  147.5210 C   0  0  0  0  0  0  0  0  0  0  0  0
  160.7180  203.8130  145.6740 C   0  0  0  0  0  0  0  0  0  0  0  0
  161.4330  204.4030  149.9260 C   0  0  0  0  0  0  0  0  0  0  0  0
  160.5120  202.6310  151.8960 C   0  0  0  0  0  3  0  0  0  0  0  0
  161.0990  203.9330  147.0140 C   0  0  0  0  0  3  0  0  0  0  0  0
  161.0620  207.2600  150.1560 C   0  0  2  0  0  3  0  0  0  0  0  0
  161.2770  200.7670  150.5710 O   0  0  0  0  0  1  0  0  0  0  0  0
  162.0760  207.4910  147.1410 O   0  0  0  0  0  0  0  0  0  0  0  0
  160.1510  202.2770  145.0600 Cl  0  0  0  0  0  0  0  0  0  0  0  0
  160.7090  206.3800  151.3640 C   0  0  0  0  0  2  0  0  0  0  0  0
  162.2670  206.6610  149.4290 C   0  0  2  0  0  3  0  0  0  0  0  0
  161.5880  203.0190  149.7650 C   0  0  0  0  0  3  0  0  0  0  0  0
  160.7740  204.9250  144.8310 C   0  0  0  0  0  3  0  0  0  0  0  0
  160.8170  204.9000  151.0990 C   0  0  0  0  0  0  0  0  0  0  0  0
  160.3630  204.0080  152.0750 C   0  0  0  0  0  3  0  0  0  0  0  0
  162.8460  207.5630  148.3340 C   0  0  0  0  0  2  0  0  0  0  0  0
  161.6260  206.2670  146.6570 C   0  0  0  0  0  0  0  0  0  0  0  0
  161.2250  206.1520  145.3230 C   0  0  0  0  0  3  0  0  0  0  0  0
  161.3470  208.6120  150.6250 N   0  0  0  0  0  2  0  0  0  0  0  0
  161.6810  207.4980  152.7580 C   0  0  0  0  0  1  0  0  0  0  0  0
  161.0190  208.6710  152.0450 C   0  0  1  0  0  3  0  0  0  0  0  0
  159.3420  210.9630  154.3730 C   0  0  1  0  0  3  0  0  0  0  0  0
  161.4760  209.9130  154.2010 C   0  0  0  0  0  2  0  0  0  0  0  0
  160.6010  211.4210  150.8960 O   0  0  0  0  0  1  0  0  0  0  0  0
  157.9510  210.8510  154.9600 C   0  0  0  0  0  1  0  0  0  0  0  0
  160.1040  209.7570  154.6940 N   0  0  0  0  0  2  0  0  0  0  0  0
  160.6440  211.2260  152.2760 C   0  0  2  0  0  3  0  0  0  0  0  0
  161.4910  210.0010  152.6690 C   0  0  2  0  0  3  0  0  0  0  0  0
  159.2380  211.1420  152.8600 C   0  0  0  0  0  2  0  0  0  0  0  0
  1  6  1  0  0  0  0
  2 13  1  0  0  0  0
  2  5  1  0  0  0  0
  3  2  1  0  0  0  0
  4  7  2  0  0  0  0
  5 16  2  0  0  0  0
  6 17  2  0  0  0  0
  7  3  1  0  0  0  0
  8 21  1  1  0  0  0
  8 12  1  0  0  0  0
  9  1  1  0  0  0  0
 10 18  1  0  0  0  0
 11  4  1  0  0  0  0
 13 18  1  6  0  0  0
 13  8  1  0  0  0  0
 14  5  1  0  0  0  0
 14  1  2  0  0  0  0
 15 20  2  0  0  0  0
 15  4  1  0  0  0  0
 16 12  1  0  0  0  0
 16 17  1  0  0  0  0
 19 10  1  0  0  0  0
 19  3  2  0  0  0  0
 20 19  1  0  0  0  0
 21 23  1  0  0  0  0
 23 22  1  1  0  0  0
 24 28  1  0  0  0  0
 24 27  1  6  0  0  0
 25 28  1  0  0  0  0
 29 26  1  6  0  0  0
 29 30  1  0  0  0  0
 29 31  1  0  0  0  0
 30 23  1  6  0  0  0
 30 25  1  0  0  0  0
 31 24  1  0  0  0  0
M  END
>  <MODEL>
5

>  <REMARK>
 VINA RESULT:      -5.9      1.652      4.023
  Name = 
  3 active torsions:
  status: ('A' for Active; 'I' for Inactive)
    1  A    between atoms: C_5  and  N_16
    2  A    between atoms: C_5  and  C_30
    3  A    between atoms: C_10  and  N_16
                            x       y       z     vdW  Elec       q    Type
                         _______ _______ _______ _____ _____    ______ ____

>  <TORSDO>
F 3

$$$$
=
 OpenBabel11122413093D

 31 35  0  0  1  0  0  0  0  0999 V2000
  161.4550  212.8970  148.7430 C   0  0  0  0  0  0  0  0  0  0  0  0
  161.0760  211.0360  151.9840 N   0  0  0  0  0  0  0  0  0  0  0  0
  159.8680  211.4920  152.6440 C   0  0  0  0  0  0  0  0  0  0  0  0
  157.8810  212.8960  152.7310 C   0  0  0  0  0  0  0  0  0  0  0  0
  161.3340  211.3300  150.5960 C   0  0  0  0  0  0  0  0  0  0  0  0
  161.8320  211.8600  147.8860 C   0  0  0  0  0  3  0  0  0  0  0  0
  159.0760  212.5230  152.1110 C   0  0  0  0  0  3  0  0  0  0  0  0
  161.4830  208.6540  151.6750 C   0  0  2  0  0  3  0  0  0  0  0  0
  161.3220  214.1880  148.2520 O   0  0  0  0  0  1  0  0  0  0  0  0
  160.2040  209.8170  154.3560 O   0  0  0  0  0  0  0  0  0  0  0  0
  156.9090  214.1830  152.0530 Cl  0  0  0  0  0  0  0  0  0  0  0  0
  161.9610  208.8860  150.2350 C   0  0  0  0  0  2  0  0  0  0  0  0
  161.8150  209.8830  152.5220 C   0  0  2  0  0  3  0  0  0  0  0  0
  161.2110  212.6340  150.0930 C   0  0  0  0  0  3  0  0  0  0  0  0
  157.4530  212.2300  153.8820 C   0  0  0  0  0  3  0  0  0  0  0  0
  161.7240  210.2860  149.7260 C   0  0  0  0  0  0  0  0  0  0  0  0
  161.9710  210.5600  148.3780 C   0  0  0  0  0  3  0  0  0  0  0  0
  161.5810  209.6870  154.0250 C   0  0  0  0  0  2  0  0  0  0  0  0
  159.4350  210.8410  153.8130 C   0  0  0  0  0  0  0  0  0  0  0  0
  158.2280  211.2010  154.4200 C   0  0  0  0  0  3  0  0  0  0  0  0
  162.1330  207.4590  152.2010 N   0  0  0  0  0  2  0  0  0  0  0  0
  162.8900  205.2200  151.6360 C   0  0  0  0  0  1  0  0  0  0  0  0
  162.1260  206.4470  151.1510 C   0  0  1  0  0  3  0  0  0  0  0  0
  160.8110  203.4300  149.5220 C   0  0  1  0  0  3  0  0  0  0  0  0
  160.2870  204.7350  151.4480 C   0  0  0  0  0  2  0  0  0  0  0  0
  160.7620  207.0210  148.5310 O   0  0  0  0  0  1  0  0  0  0  0  0
  161.5790  202.2290  149.0120 C   0  0  0  0  0  1  0  0  0  0  0  0
  161.1040  203.6280  150.9410 N   0  0  0  0  0  2  0  0  0  0  0  0
  160.4530  205.8720  149.2560 C   0  0  2  0  0  3  0  0  0  0  0  0
  160.6850  206.0530  150.7680 C   0  0  2  0  0  3  0  0  0  0  0  0
  161.2110  204.6640  148.7170 C   0  0  0  0  0  2  0  0  0  0  0  0
  1 14  1  0  0  0  0
  2 13  1  0  0  0  0
  2  3  1  0  0  0  0
  3 19  1  0  0  0  0
  4 15  2  0  0  0  0
  5  2  1  0  0  0  0
  6 17  1  0  0  0  0
  6  1  2  0  0  0  0
  7  3  2  0  0  0  0
  7  4  1  0  0  0  0
  8 21  1  1  0  0  0
  8 13  1  0  0  0  0
  9  1  1  0  0  0  0
 11  4  1  0  0  0  0
 12  8  1  0  0  0  0
 13 18  1  1  0  0  0
 14  5  2  0  0  0  0
 15 20  1  0  0  0  0
 16 12  1  0  0  0  0
 16  5  1  0  0  0  0
 17 16  2  0  0  0  0
 18 10  1  0  0  0  0
 19 10  1  0  0  0  0
 19 20  2  0  0  0  0
 23 22  1  1  0  0  0
 23 21  1  0  0  0  0
 24 27  1  6  0  0  0
 24 28  1  0  0  0  0
 28 25  1  0  0  0  0
 29 26  1  6  0  0  0
 29 30  1  0  0  0  0
 30 23  1  6  0  0  0
 30 25  1  0  0  0  0
 31 29  1  0  0  0  0
 31 24  1  0  0  0  0
M  END
>  <MODEL>
6

>  <REMARK>
 VINA RESULT:      -5.8      3.628      7.508
  Name = 
  3 active torsions:
  status: ('A' for Active; 'I' for Inactive)
    1  A    between atoms: C_5  and  N_16
    2  A    between atoms: C_5  and  C_30
    3  A    between atoms: C_10  and  N_16
                            x       y       z     vdW  Elec       q    Type
                         _______ _______ _______ _____ _____    ______ ____

>  <TORSDO>
F 3

$$$$
=
 OpenBabel11122413093D

 31 35  0  0  1  0  0  0  0  0999 V2000
  161.4870  206.4110  147.2940 C   0  0  0  0  0  0  0  0  0  0  0  0
  162.0130  209.0930  149.8710 N   0  0  0  0  0  0  0  0  0  0  0  0
  161.6550  210.3730  149.2910 C   0  0  0  0  0  0  0  0  0  0  0  0
  160.8500  211.7260  147.4330 C   0  0  0  0  0  0  0  0  0  0  0  0
  161.6360  207.8490  149.2460 C   0  0  0  0  0  0  0  0  0  0  0  0
  160.8740  205.4210  148.0650 C   0  0  0  0  0  3  0  0  0  0  0  0
  161.2580  210.4930  147.9490 C   0  0  0  0  0  3  0  0  0  0  0  0
  161.0990  208.4220  152.0270 C   0  0  2  0  0  3  0  0  0  0  0  0
  161.7160  206.1950  145.9420 O   0  0  0  0  0  1  0  0  0  0  0  0
  162.0210  211.4190  151.4400 O   0  0  0  0  0  0  0  0  0  0  0  0
  160.3620  211.8560  145.7590 Cl  0  0  0  0  0  0  0  0  0  0  0  0
  160.8310  207.0010  151.5120 C   0  0  0  0  0  2  0  0  0  0  0  0
  162.3190  208.9990  151.3070 C   0  0  2  0  0  3  0  0  0  0  0  0
  161.8710  207.6180  147.8830 C   0  0  0  0  0  3  0  0  0  0  0  0
  160.8180  212.8520  148.2600 C   0  0  0  0  0  3  0  0  0  0  0  0
  161.0210  206.8410  150.0240 C   0  0  0  0  0  0  0  0  0  0  0  0
  160.6470  205.6340  149.4260 C   0  0  0  0  0  3  0  0  0  0  0  0
  162.8160  210.3280  151.8880 C   0  0  0  0  0  2  0  0  0  0  0  0
  161.6330  211.5170  150.1080 C   0  0  0  0  0  0  0  0  0  0  0  0
  161.2060  212.7460  149.5970 C   0  0  0  0  0  3  0  0  0  0  0  0
  161.3150  208.3680  153.4690 N   0  0  0  0  0  2  0  0  0  0  0  0
  159.9520  208.4050  155.4800 C   0  0  0  0  0  1  0  0  0  0  0  0
  160.1910  209.0370  154.1140 C   0  0  1  0  0  3  0  0  0  0  0  0
  158.4030  211.6110  156.0300 C   0  0  1  0  0  3  0  0  0  0  0  0
  160.6650  210.9070  155.7530 C   0  0  0  0  0  2  0  0  0  0  0  0
  159.0780  211.2340  152.3850 O   0  0  0  0  0  1  0  0  0  0  0  0
  157.1530  211.4550  156.8700 C   0  0  0  0  0  1  0  0  0  0  0  0
  159.4300  210.6860  156.5100 N   0  0  0  0  0  2  0  0  0  0  0  0
  159.3400  211.4570  153.7360 C   0  0  2  0  0  3  0  0  0  0  0  0
  160.4620  210.5480  154.2740 C   0  0  2  0  0  3  0  0  0  0  0  0
  158.0690  211.3250  154.5680 C   0  0  0  0  0  2  0  0  0  0  0  0
  1 14  2  0  0  0  0
  1  6  1  0  0  0  0
  2 13  1  0  0  0  0
  3  2  1  0  0  0  0
  3 19  1  0  0  0  0
  4  7  1  0  0  0  0
  4 15  2  0  0  0  0
  5  2  1  0  0  0  0
  5 16  2  0  0  0  0
  6 17  2  0  0  0  0
  7  3  2  0  0  0  0
  8 21  1  1  0  0  0
  9  1  1  0  0  0  0
 10 18  1  0  0  0  0
 11  4  1  0  0  0  0
 12  8  1  0  0  0  0
 13 18  1  1  0  0  0
 13  8  1  0  0  0  0
 14  5  1  0  0  0  0
 15 20  1  0  0  0  0
 16 12  1  0  0  0  0
 17 16  1  0  0  0  0
 19 10  1  0  0  0  0
 20 19  2  0  0  0  0
 21 23  1  0  0  0  0
 23 22  1  1  0  0  0
 24 28  1  0  0  0  0
 24 27  1  1  0  0  0
 25 28  1  0  0  0  0
 29 26  1  6  0  0  0
 29 30  1  0  0  0  0
 29 31  1  0  0  0  0
 30 23  1  1  0  0  0
 30 25  1  0  0  0  0
 31 24  1  0  0  0  0
M  END
>  <MODEL>
7

>  <REMARK>
 VINA RESULT:      -5.5      3.253      5.513
  Name = 
  3 active torsions:
  status: ('A' for Active; 'I' for Inactive)
    1  A    between atoms: C_5  and  N_16
    2  A    between atoms: C_5  and  C_30
    3  A    between atoms: C_10  and  N_16
                            x       y       z     vdW  Elec       q    Type
                         _______ _______ _______ _____ _____    ______ ____

>  <TORSDO>
F 3

$$$$
=
 OpenBabel11122413093D

 31 35  0  0  1  0  0  0  0  0999 V2000
  161.6060  212.9170  148.7820 C   0  0  0  0  0  0  0  0  0  0  0  0
  158.6670  213.6190  151.0150 N   0  0  0  0  0  0  0  0  0  0  0  0
  157.5240  213.9550  150.1870 C   0  0  0  0  0  0  0  0  0  0  0  0
  156.4920  214.3060  148.0100 C   0  0  0  0  0  0  0  0  0  0  0  0
  159.8480  213.0070  150.4570 C   0  0  0  0  0  0  0  0  0  0  0  0
  162.1360  211.7790  149.3940 C   0  0  0  0  0  3  0  0  0  0  0  0
  157.6230  214.0490  148.7890 C   0  0  0  0  0  3  0  0  0  0  0  0
  158.4690  211.9250  152.7550 C   0  0  2  0  0  3  0  0  0  0  0  0
  162.2090  213.4380  147.6460 O   0  0  0  0  0  1  0  0  0  0  0  0
  156.1440  214.0320  152.1720 O   0  0  0  0  0  0  0  0  0  0  0  0
  156.6360  214.4220  146.2710 Cl  0  0  0  0  0  0  0  0  0  0  0  0
  159.8190  211.3110  152.3600 C   0  0  0  0  0  2  0  0  0  0  0  0
  158.4930  213.4270  152.4630 C   0  0  2  0  0  3  0  0  0  0  0  0
  160.4690  213.5310  149.3140 C   0  0  0  0  0  3  0  0  0  0  0  0
  155.2430  214.4530  148.6190 C   0  0  0  0  0  3  0  0  0  0  0  0
  160.3930  211.8590  151.0770 C   0  0  0  0  0  0  0  0  0  0  0  0
  161.5340  211.2560  150.5410 C   0  0  0  0  0  3  0  0  0  0  0  0
  157.2810  214.1880  153.0120 C   0  0  0  0  0  2  0  0  0  0  0  0
  156.2640  214.1220  150.7900 C   0  0  0  0  0  0  0  0  0  0  0  0
  155.1290  214.3580  150.0080 C   0  0  0  0  0  3  0  0  0  0  0  0
  158.2290  211.6670  154.1700 N   0  0  0  0  0  2  0  0  0  0  0  0
  159.7100  213.0260  155.5340 C   0  0  0  0  0  1  0  0  0  0  0  0
  159.5190  211.6770  154.8510 C   0  0  1  0  0  3  0  0  0  0  0  0
  162.3200  210.5360  156.9330 C   0  0  1  0  0  3  0  0  0  0  0  0
  160.0260  211.0970  157.2610 C   0  0  0  0  0  2  0  0  0  0  0  0
  160.3040  208.8240  154.3080 O   0  0  0  0  0  1  0  0  0  0  0  0
  163.7400  211.0610  156.9650 C   0  0  0  0  0  1  0  0  0  0  0  0
  161.3900  211.6310  157.2030 N   0  0  0  0  0  2  0  0  0  0  0  0
  160.5990  209.4220  155.5320 C   0  0  2  0  0  3  0  0  0  0  0  0
  159.6060  210.5420  155.8920 C   0  0  2  0  0  3  0  0  0  0  0  0
  162.0390  209.9220  155.5630 C   0  0  0  0  0  2  0  0  0  0  0  0
  1 14  2  0  0  0  0
  1  6  1  0  0  0  0
  2 13  1  0  0  0  0
  3 19  1  0  0  0  0
  3  2  1  0  0  0  0
  4 15  2  0  0  0  0
  4  7  1  0  0  0  0
  5  2  1  0  0  0  0
  5 16  2  0  0  0  0
  6 17  2  0  0  0  0
  7  3  2  0  0  0  0
  8 21  1  1  0  0  0
  9  1  1  0  0  0  0
 10 18  1  0  0  0  0
 11  4  1  0  0  0  0
 12  8  1  0  0  0  0
 13  8  1  0  0  0  0
 13 18  1  6  0  0  0
 14  5  1  0  0  0  0
 15 20  1  0  0  0  0
 16 12  1  0  0  0  0
 17 16  1  0  0  0  0
 19 10  1  0  0  0  0
 20 19  2  0  0  0  0
 21 23  1  0  0  0  0
 23 22  1  1  0  0  0
 24 27  1  6  0  0  0
 24 28  1  0  0  0  0
 28 25  1  0  0  0  0
 29 26  1  6  0  0  0
 29 31  1  0  0  0  0
 29 30  1  0  0  0  0
 30 23  1  6  0  0  0
 30 25  1  0  0  0  0
 31 24  1  0  0  0  0
M  END
>  <MODEL>
8

>  <REMARK>
 VINA RESULT:      -5.5      6.276      8.411
  Name = 
  3 active torsions:
  status: ('A' for Active; 'I' for Inactive)
    1  A    between atoms: C_5  and  N_16
    2  A    between atoms: C_5  and  C_30
    3  A    between atoms: C_10  and  N_16
                            x       y       z     vdW  Elec       q    Type
                         _______ _______ _______ _____ _____    ______ ____

>  <TORSDO>
F 3

$$$$
=
 OpenBabel11122413093D

 31 35  0  0  1  0  0  0  0  0999 V2000
  161.6190  204.2320  152.0930 C   0  0  0  0  0  0  0  0  0  0  0  0
  162.1610  207.9300  151.7180 N   0  0  0  0  0  0  0  0  0  0  0  0
  161.9830  208.2870  150.3240 C   0  0  0  0  0  0  0  0  0  0  0  0
  161.4890  207.6980  148.0130 C   0  0  0  0  0  0  0  0  0  0  0  0
  161.7240  206.6550  152.2320 C   0  0  0  0  0  0  0  0  0  0  0  0
  160.8440  204.1950  153.2550 C   0  0  0  0  0  3  0  0  0  0  0  0
  161.7250  207.3200  149.3380 C   0  0  0  0  0  3  0  0  0  0  0  0
  160.9900  209.1650  153.4620 C   0  0  2  0  0  3  0  0  0  0  0  0
  161.9510  203.0510  151.4430 O   0  0  0  0  0  1  0  0  0  0  0  0
  162.2480  210.6180  150.9150 O   0  0  0  0  0  0  0  0  0  0  0  0
  161.1730  206.4790  146.8000 Cl  0  0  0  0  0  0  0  0  0  0  0  0
  160.6350  207.8630  154.1940 C   0  0  0  0  0  2  0  0  0  0  0  0
  162.3220  208.9850  152.7300 C   0  0  2  0  0  3  0  0  0  0  0  0
  162.0610  205.4560  151.5860 C   0  0  0  0  0  3  0  0  0  0  0  0
  161.4890  209.0500  147.6620 C   0  0  0  0  0  3  0  0  0  0  0  0
  160.9460  206.6120  153.4110 C   0  0  0  0  0  0  0  0  0  0  0  0
  160.5140  205.3820  153.9140 C   0  0  0  0  0  3  0  0  0  0  0  0
  162.8880  210.2820  152.1390 C   0  0  0  0  0  2  0  0  0  0  0  0
  161.9960  209.6440  149.9540 C   0  0  0  0  0  0  0  0  0  0  0  0
  161.7390  210.0220  148.6330 C   0  0  0  0  0  3  0  0  0  0  0  0
  161.0650  210.2490  154.4350 N   0  0  0  0  0  2  0  0  0  0  0  0
  159.1050  210.3850  155.8650 C   0  0  0  0  0  1  0  0  0  0  0  0
  159.7350  210.8360  154.5520 C   0  0  1  0  0  3  0  0  0  0  0  0
  157.0730  213.3490  154.2570 C   0  0  1  0  0  3  0  0  0  0  0  0
  158.9790  212.9890  155.6450 C   0  0  0  0  0  2  0  0  0  0  0  0
  159.9790  212.5260  152.0750 O   0  0  0  0  0  1  0  0  0  0  0  0
  155.5820  213.1250  154.1190 C   0  0  0  0  0  1  0  0  0  0  0  0
  157.5540  212.6900  155.4710 N   0  0  0  0  0  2  0  0  0  0  0  0
  159.2870  212.9950  153.1900 C   0  0  2  0  0  3  0  0  0  0  0  0
  159.8020  212.3760  154.5030 C   0  0  2  0  0  3  0  0  0  0  0  0
  157.7850  212.7890  153.0280 C   0  0  0  0  0  2  0  0  0  0  0  0
  1  6  1  0  0  0  0
  2  5  1  0  0  0  0
  2 13  1  0  0  0  0
  3  2  1  0  0  0  0
  4  7  1  0  0  0  0
  5 16  2  0  0  0  0
  6 17  2  0  0  0  0
  7  3  2  0  0  0  0
  8 12  1  0  0  0  0
  8 21  1  1  0  0  0
  9  1  1  0  0  0  0
 10 18  1  0  0  0  0
 11  4  1  0  0  0  0
 13 18  1  6  0  0  0
 13  8  1  0  0  0  0
 14  1  2  0  0  0  0
 14  5  1  0  0  0  0
 15  4  2  0  0  0  0
 15 20  1  0  0  0  0
 16 17  1  0  0  0  0
 16 12  1  0  0  0  0
 19  3  1  0  0  0  0
 19 10  1  0  0  0  0
 20 19  2  0  0  0  0
 21 23  1  0  0  0  0
 23 22  1  1  0  0  0
 24 27  1  6  0  0  0
 24 28  1  0  0  0  0
 28 25  1  0  0  0  0
 29 26  1  6  0  0  0
 29 30  1  0  0  0  0
 30 23  1  6  0  0  0
 30 25  1  0  0  0  0
 31 29  1  0  0  0  0
 31 24  1  0  0  0  0
M  END
>  <MODEL>
9

>  <REMARK>
 VINA RESULT:      -5.4      2.559      5.257
  Name = 
  3 active torsions:
  status: ('A' for Active; 'I' for Inactive)
    1  A    between atoms: C_5  and  N_16
    2  A    between atoms: C_5  and  C_30
    3  A    between atoms: C_10  and  N_16
                            x       y       z     vdW  Elec       q    Type
                         _______ _______ _______ _____ _____    ______ ____

>  <TORSDO>
F 3

$$$$
