=
 OpenBabel11122414043D

 28 32  0  0  1  0  0  0  0  0999 V2000
  158.4580  212.3870  152.1560 C   0  0  0  0  0  0  0  0  0  0  0  0
  161.3960  209.7360  149.9190 O   0  0  0  0  0  0  0  0  0  0  0  0
  161.5210  211.7420  157.2610 O   0  0  0  0  0  1  0  0  0  0  0  0
  160.1540  213.5210  150.2360 C   0  0  0  0  0  3  0  0  0  0  0  0
  161.0880  209.6770  156.0710 C   0  0  1  0  0  3  0  0  0  0  0  0
  157.6030  211.8690  153.1270 O   0  0  0  0  0  0  0  0  0  0  0  0
  163.1050  210.2390  151.6270 O   0  0  0  0  0  0  0  0  0  0  0  0
  161.9010  209.4030  151.2940 S   0  0  0  0  0  0  0  0  0  0  0  0
  161.8350  206.9080  152.3060 C   0  0  0  0  0  0  0  0  0  0  0  0
  160.6190  209.6450  152.4880 C   0  0  1  0  0  3  0  0  0  0  0  0
  157.3530  214.4530  155.7950 C   0  0  0  0  0  1  0  0  0  0  0  0
  159.6960  210.7290  154.3660 C   0  0  1  0  0  3  0  0  0  0  0  0
  160.8440  207.3490  153.3640 C   0  0  0  0  0  2  0  0  0  0  0  0
  162.3030  207.7140  151.3890 N   0  0  0  0  0  0  0  0  0  0  0  0
  158.0130  213.3530  154.9910 C   0  0  1  0  0  3  0  0  0  0  0  0
  159.8210  212.0060  152.1130 C   0  0  0  0  0  0  0  0  0  0  0  0
  160.5340  210.9810  156.6280 C   0  0  2  0  0  3  0  0  0  0  0  0
  162.2150  205.5370  152.2720 N   0  0  0  0  0  1  0  0  0  0  0  0
  158.5900  212.3190  155.9490 C   0  0  0  0  0  2  0  0  0  0  0  0
  160.6540  212.5910  151.1490 C   0  0  0  0  0  3  0  0  0  0  0  0
  157.9660  213.3270  151.2400 C   0  0  0  0  0  3  0  0  0  0  0  0
  158.8100  213.8880  150.2810 C   0  0  0  0  0  3  0  0  0  0  0  0
  156.9710  212.7220  154.0720 C   0  0  0  0  0  2  0  0  0  0  0  0
  160.2160  209.3770  154.8480 C   0  0  1  0  0  3  0  0  0  0  0  0
  159.9250  211.7520  155.4700 C   0  0  2  0  0  3  0  0  0  0  0  0
  161.0150  208.8240  153.6760 C   0  0  2  0  0  3  0  0  0  0  0  0
  162.4360  209.8350  155.7180 O   0  0  0  0  0  1  0  0  0  0  0  0
  160.4660  211.0300  153.0750 C   0  0  2  0  0  3  0  0  0  0  0  0
  1  6  1  0  0  0  0
  2  8  2  0  0  0  0
  4 22  2  0  0  0  0
  4 20  1  0  0  0  0
  5 27  1  6  0  0  0
  5 17  1  0  0  0  0
  6 23  1  0  0  0  0
  8 14  1  0  0  0  0
  8  7  2  0  0  0  0
  9 13  1  0  0  0  0
 10  8  1  6  0  0  0
 10 28  1  0  0  0  0
 10 26  1  0  0  0  0
 12 24  1  0  0  0  0
 12 25  1  0  0  0  0
 13 26  1  0  0  0  0
 14  9  2  0  0  0  0
 15 11  1  0  0  0  0
 15 19  1  0  0  0  0
 16  1  1  0  0  0  0
 16 28  1  0  0  0  0
 17  3  1  0  0  0  0
 18  9  1  0  0  0  0
 20 16  2  0  0  0  0
 21  1  2  0  0  0  0
 22 21  1  0  0  0  0
 23 15  1  0  0  0  0
 24  5  1  0  0  0  0
 25 19  1  0  0  0  0
 25 17  1  0  0  0  0
 26 24  1  0  0  0  0
 28 12  1  0  0  0  0
M  END
>  <MODEL>
1

>  <REMARK>
 VINA RESULT:      -5.9      0.000      0.000
  Name = 
  0 active torsions:
  status: ('A' for Active; 'I' for Inactive)
                            x       y       z     vdW  Elec       q    Type
                         _______ _______ _______ _____ _____    ______ ____

>  <TORSDO>
F 0

$$$$
=
 OpenBabel11122414043D

 28 32  0  0  1  0  0  0  0  0999 V2000
  160.6040  209.3910  154.5490 C   0  0  0  0  0  0  0  0  0  0  0  0
  158.4130  212.3080  157.2610 O   0  0  0  0  0  0  0  0  0  0  0  0
  161.0010  213.4880  150.2000 O   0  0  0  0  0  1  0  0  0  0  0  0
  161.8900  210.3850  156.8310 C   0  0  0  0  0  3  0  0  0  0  0  0
  158.8010  213.2690  151.1890 C   0  0  1  0  0  3  0  0  0  0  0  0
  160.0090  208.8780  153.3990 O   0  0  0  0  0  0  0  0  0  0  0  0
  159.3840  214.1810  155.9810 O   0  0  0  0  0  0  0  0  0  0  0  0
  158.3010  213.1390  156.0150 S   0  0  0  0  0  0  0  0  0  0  0  0
  155.9340  213.8070  154.9170 C   0  0  0  0  0  0  0  0  0  0  0  0
  158.3820  212.1030  154.5830 C   0  0  1  0  0  3  0  0  0  0  0  0
  162.7030  208.6340  150.8400 C   0  0  0  0  0  1  0  0  0  0  0  0
  159.4120  211.3710  152.5940 C   0  0  1  0  0  3  0  0  0  0  0  0
  156.2560  212.9800  153.6890 C   0  0  0  0  0  2  0  0  0  0  0  0
  156.7390  213.8990  155.9430 N   0  0  0  0  0  0  0  0  0  0  0  0
  161.6930  209.3340  151.7240 C   0  0  1  0  0  3  0  0  0  0  0  0
  160.4990  210.7660  154.8700 C   0  0  0  0  0  0  0  0  0  0  0  0
  160.0110  212.5770  150.5770 C   0  0  2  0  0  3  0  0  0  0  0  0
  154.6680  214.4530  154.9780 N   0  0  0  0  0  1  0  0  0  0  0  0
  160.8760  210.2980  150.8740 C   0  0  0  0  0  2  0  0  0  0  0  0
  161.1560  211.2450  156.0110 C   0  0  0  0  0  3  0  0  0  0  0  0
  161.3500  208.5380  155.3740 C   0  0  0  0  0  3  0  0  0  0  0  0
  161.9860  209.0320  156.5130 C   0  0  0  0  0  3  0  0  0  0  0  0
  160.7950  208.2860  152.3730 C   0  0  0  0  0  2  0  0  0  0  0  0
  158.2350  212.2510  152.1840 C   0  0  1  0  0  3  0  0  0  0  0  0
  160.5480  211.5970  151.6060 C   0  0  2  0  0  3  0  0  0  0  0  0
  157.7560  212.8950  153.4770 C   0  0  2  0  0  3  0  0  0  0  0  0
  159.1930  214.4530  151.8290 O   0  0  0  0  0  1  0  0  0  0  0  0
  159.7520  211.7830  154.0310 C   0  0  2  0  0  3  0  0  0  0  0  0
  1 16  2  0  0  0  0
  1 21  1  0  0  0  0
  3 17  1  0  0  0  0
  5 27  1  1  0  0  0
  5 24  1  0  0  0  0
  6  1  1  0  0  0  0
  7  8  2  0  0  0  0
  8  2  2  0  0  0  0
  9 18  1  0  0  0  0
  9 14  2  0  0  0  0
 10  8  1  1  0  0  0
 11 15  1  0  0  0  0
 12 28  1  0  0  0  0
 13  9  1  0  0  0  0
 14  8  1  0  0  0  0
 15 23  1  0  0  0  0
 16 20  1  0  0  0  0
 17  5  1  0  0  0  0
 17 25  1  0  0  0  0
 19 25  1  0  0  0  0
 19 15  1  0  0  0  0
 20  4  2  0  0  0  0
 21 22  2  0  0  0  0
 22  4  1  0  0  0  0
 23  6  1  0  0  0  0
 24 12  1  0  0  0  0
 24 26  1  0  0  0  0
 25 12  1  0  0  0  0
 26 13  1  0  0  0  0
 26 10  1  0  0  0  0
 28 10  1  0  0  0  0
 28 16  1  0  0  0  0
M  END
>  <MODEL>
2

>  <REMARK>
 VINA RESULT:      -3.4      3.515      6.699
  Name = 
  0 active torsions:
  status: ('A' for Active; 'I' for Inactive)
                            x       y       z     vdW  Elec       q    Type
                         _______ _______ _______ _____ _____    ______ ____

>  <TORSDO>
F 0

$$$$
