=
 OpenBabel11122414033D

 28 32  0  0  1  0  0  0  0  0999 V2000
  158.6200  211.6770  152.6480 C   0  0  0  0  0  0  0  0  0  0  0  0
  161.0970  209.2400  149.8220 O   0  0  0  0  0  0  0  0  0  0  0  0
  162.3790  210.0640  157.2610 O   0  0  0  0  0  1  0  0  0  0  0  0
  160.1810  212.9840  150.7180 C   0  0  0  0  0  3  0  0  0  0  0  0
  161.4670  208.3220  155.8490 C   0  0  1  0  0  3  0  0  0  0  0  0
  157.7540  211.1010  153.7250 C   0  0  0  0  0  2  0  0  0  0  0  0
  163.0390  209.1780  151.3510 O   0  0  0  0  0  0  0  0  0  0  0  0
  161.6720  208.6230  151.0660 S   0  0  0  0  0  0  0  0  0  0  0  0
  161.1460  206.0270  151.8950 C   0  0  0  0  0  0  0  0  0  0  0  0
  160.5820  208.8670  152.4400 C   0  0  1  0  0  3  0  0  0  0  0  0
  158.7720  213.6670  156.3950 C   0  0  0  0  0  1  0  0  0  0  0  0
  160.1180  209.7440  154.5490 C   0  0  1  0  0  3  0  0  0  0  0  0
  160.7540  206.4840  153.0970 C   0  0  0  0  0  2  0  0  0  0  0  0
  161.7400  206.8940  150.9060 N   0  0  0  0  0  0  0  0  0  0  0  0
  158.9570  212.4420  155.5270 C   0  0  1  0  0  3  0  0  0  0  0  0
  159.9780  211.3000  152.4670 C   0  0  0  0  0  0  0  0  0  0  0  0
  161.2100  209.5730  156.6720 C   0  0  2  0  0  3  0  0  0  0  0  0
  160.9310  204.5950  151.5650 C   0  0  0  0  0  1  0  0  0  0  0  0
  159.4900  211.3050  156.3850 C   0  0  0  0  0  2  0  0  0  0  0  0
  160.7380  211.9700  151.4990 C   0  0  0  0  0  3  0  0  0  0  0  0
  158.0720  212.6950  151.8560 C   0  0  0  0  0  3  0  0  0  0  0  0
  158.8460  213.3420  150.8930 C   0  0  0  0  0  3  0  0  0  0  0  0
  157.6140  212.0720  154.9000 C   0  0  0  0  0  2  0  0  0  0  0  0
  160.4690  208.3310  154.7630 N   0  0  1  0  0  0  0  0  0  0  0  0
  160.6420  210.5800  155.7030 C   0  0  2  0  0  3  0  0  0  0  0  0
  161.0390  207.9010  153.4860 C   0  0  2  0  0  3  0  0  0  0  0  0
  162.7860  208.3220  155.3640 O   0  0  0  0  0  1  0  0  0  0  0  0
  160.6790  210.1660  153.1870 C   0  0  2  0  0  3  0  0  0  0  0  0
  1  6  1  0  0  0  0
  2  8  2  0  0  0  0
  4 22  2  0  0  0  0
  4 20  1  0  0  0  0
  5 27  1  6  0  0  0
  5 17  1  0  0  0  0
  6 23  1  0  0  0  0
  8  7  2  0  0  0  0
  9 13  1  0  0  0  0
 10  8  1  6  0  0  0
 10 28  1  0  0  0  0
 10 26  1  0  0  0  0
 12 24  1  0  0  0  0
 12 25  1  0  0  0  0
 13 26  1  0  0  0  0
 14  8  1  0  0  0  0
 14  9  2  0  0  0  0
 15 19  1  0  0  0  0
 15 11  1  0  0  0  0
 16  1  1  0  0  0  0
 16 28  1  0  0  0  0
 17  3  1  0  0  0  0
 18  9  1  0  0  0  0
 20 16  2  0  0  0  0
 21  1  2  0  0  0  0
 22 21  1  0  0  0  0
 23 15  1  0  0  0  0
 24  5  1  0  0  0  0
 25 19  1  0  0  0  0
 25 17  1  0  0  0  0
 26 24  1  0  0  0  0
 28 12  1  0  0  0  0
M  END
>  <MODEL>
1

>  <REMARK>
 VINA RESULT:      -3.1      0.000      0.000
  Name = 
  0 active torsions:
  status: ('A' for Active; 'I' for Inactive)
                            x       y       z     vdW  Elec       q    Type
                         _______ _______ _______ _____ _____    ______ ____

>  <TORSDO>
F 0

$$$$
=
 OpenBabel11122414033D

 28 32  0  0  1  0  0  0  0  0999 V2000
  160.5690  209.3680  154.6380 C   0  0  0  0  0  0  0  0  0  0  0  0
  159.0160  212.6520  157.2600 O   0  0  0  0  0  0  0  0  0  0  0  0
  160.9920  213.3660  149.9640 O   0  0  0  0  0  1  0  0  0  0  0  0
  162.1820  210.3410  156.7170 C   0  0  0  0  0  3  0  0  0  0  0  0
  158.9050  213.2260  151.1810 C   0  0  1  0  0  3  0  0  0  0  0  0
  159.8110  208.7720  153.4930 C   0  0  0  0  0  2  0  0  0  0  0  0
  159.8590  214.4350  155.7710 O   0  0  0  0  0  0  0  0  0  0  0  0
  158.7940  213.3950  155.9730 S   0  0  0  0  0  0  0  0  0  0  0  0
  156.2900  213.8970  154.8840 C   0  0  0  0  0  0  0  0  0  0  0  0
  158.7300  212.2680  154.6090 C   0  0  1  0  0  3  0  0  0  0  0  0
  162.8180  208.6650  151.1080 C   0  0  0  0  0  1  0  0  0  0  0  0
  159.5600  211.4600  152.5870 C   0  0  1  0  0  3  0  0  0  0  0  0
  156.6750  213.3350  153.7260 C   0  0  0  0  0  3  0  0  0  0  0  0
  157.2180  214.1290  155.9650 N   0  0  0  0  0  2  0  0  0  0  0  0
  161.6810  209.3260  151.8550 C   0  0  1  0  0  3  0  0  0  0  0  0
  160.7300  210.7700  154.8080 C   0  0  0  0  0  0  0  0  0  0  0  0
  160.0340  212.4900  150.4790 C   0  0  2  0  0  3  0  0  0  0  0  0
  154.8620  214.2590  155.0690 C   0  0  0  0  0  1  0  0  0  0  0  0
  160.9280  210.2400  150.9010 C   0  0  0  0  0  2  0  0  0  0  0  0
  161.5450  211.2310  155.8520 C   0  0  0  0  0  3  0  0  0  0  0  0
  161.2130  208.4860  155.5150 C   0  0  0  0  0  3  0  0  0  0  0  0
  162.0120  208.9680  156.5520 C   0  0  0  0  0  3  0  0  0  0  0  0
  160.7610  208.2440  152.4170 C   0  0  0  0  0  2  0  0  0  0  0  0
  158.4210  212.3250  152.2430 N   0  0  1  0  0  0  0  0  0  0  0  0
  160.6430  211.5960  151.5310 C   0  0  2  0  0  3  0  0  0  0  0  0
  158.1230  213.0420  153.4820 C   0  0  2  0  0  3  0  0  0  0  0  0
  159.3680  214.4530  151.6890 O   0  0  0  0  0  1  0  0  0  0  0  0
  160.0320  211.8410  153.9940 C   0  0  2  0  0  3  0  0  0  0  0  0
  1 16  2  0  0  0  0
  1 21  1  0  0  0  0
  3 17  1  0  0  0  0
  5 27  1  1  0  0  0
  5 24  1  0  0  0  0
  6  1  1  0  0  0  0
  7  8  2  0  0  0  0
  8  2  2  0  0  0  0
  9 18  1  0  0  0  0
  9 14  1  0  0  0  0
 10  8  1  1  0  0  0
 11 15  1  0  0  0  0
 12 28  1  0  0  0  0
 13  9  2  0  0  0  0
 14  8  1  0  0  0  0
 15 23  1  0  0  0  0
 16 20  1  0  0  0  0
 17  5  1  0  0  0  0
 17 25  1  0  0  0  0
 19 25  1  0  0  0  0
 19 15  1  0  0  0  0
 20  4  2  0  0  0  0
 21 22  2  0  0  0  0
 22  4  1  0  0  0  0
 23  6  1  0  0  0  0
 24 12  1  0  0  0  0
 24 26  1  0  0  0  0
 25 12  1  0  0  0  0
 26 13  1  0  0  0  0
 26 10  1  0  0  0  0
 28 10  1  0  0  0  0
 28 16  1  0  0  0  0
M  END
>  <MODEL>
2

>  <REMARK>
 VINA RESULT:      -2.8      3.114      6.776
  Name = 
  0 active torsions:
  status: ('A' for Active; 'I' for Inactive)
                            x       y       z     vdW  Elec       q    Type
                         _______ _______ _______ _____ _____    ______ ____

>  <TORSDO>
F 0

$$$$
=
 OpenBabel11122414033D

 28 32  0  0  1  0  0  0  0  0999 V2000
  161.0630  211.0600  137.5720 C   0  0  0  0  0  0  0  0  0  0  0  0
  157.1310  208.9160  137.6100 O   0  0  0  0  0  0  0  0  0  0  0  0
  159.2740  214.3300  142.4830 O   0  0  0  0  0  1  0  0  0  0  0  0
  160.9870  208.3520  138.3000 C   0  0  0  0  0  3  0  0  0  0  0  0
  157.7980  214.2170  140.5680 C   0  0  1  0  0  3  0  0  0  0  0  0
  161.2350  212.5030  137.2120 C   0  0  0  0  0  2  0  0  0  0  0  0
  156.6410  209.5570  139.9470 O   0  0  0  0  0  0  0  0  0  0  0  0
  156.6840  210.0260  138.5200 S   0  0  0  0  0  0  0  0  0  0  0  0
  154.9070  212.0220  137.7710 C   0  0  0  0  0  0  0  0  0  0  0  0
  157.7380  211.4370  138.3400 C   0  0  1  0  0  3  0  0  0  0  0  0
  163.7110  213.2720  140.0460 C   0  0  0  0  0  1  0  0  0  0  0  0
  159.2590  212.9740  139.2070 C   0  0  1  0  0  3  0  0  0  0  0  0
  155.7920  212.9590  138.1480 C   0  0  0  0  0  2  0  0  0  0  0  0
  155.1260  210.6190  138.0270 N   0  0  0  0  0  0  0  0  0  0  0  0
  162.3450  213.0160  139.4470 C   0  0  1  0  0  3  0  0  0  0  0  0
  160.0990  210.6110  138.5130 C   0  0  0  0  0  0  0  0  0  0  0  0
  159.2050  214.4490  141.0920 C   0  0  2  0  0  3  0  0  0  0  0  0
  153.6820  212.4400  137.0420 C   0  0  0  0  0  1  0  0  0  0  0  0
  161.3660  214.0440  139.9930 C   0  0  0  0  0  2  0  0  0  0  0  0
  160.0820  209.2530  138.8630 C   0  0  0  0  0  3  0  0  0  0  0  0
  161.9640  210.1440  137.0120 C   0  0  0  0  0  3  0  0  0  0  0  0
  161.9240  208.7970  137.3700 C   0  0  0  0  0  3  0  0  0  0  0  0
  162.4450  213.1100  137.9260 C   0  0  0  0  0  2  0  0  0  0  0  0
  157.9490  213.6460  139.2170 N   0  0  1  0  0  0  0  0  0  0  0  0
  160.0580  213.3970  140.4270 C   0  0  2  0  0  3  0  0  0  0  0  0
  156.9890  212.5730  138.9600 C   0  0  2  0  0  3  0  0  0  0  0  0
  157.0920  213.3630  141.4340 O   0  0  0  0  0  1  0  0  0  0  0  0
  159.0120  211.4640  139.1340 C   0  0  2  0  0  3  0  0  0  0  0  0
  1 16  1  0  0  0  0
  2  8  2  0  0  0  0
  4 20  1  0  0  0  0
  5 17  1  0  0  0  0
  5 27  1  1  0  0  0
  6  1  1  0  0  0  0
  6 23  1  0  0  0  0
  8  7  2  0  0  0  0
  9 14  2  0  0  0  0
  9 13  1  0  0  0  0
 10  8  1  1  0  0  0
 10 26  1  0  0  0  0
 10 28  1  0  0  0  0
 12 24  1  0  0  0  0
 12 25  1  0  0  0  0
 13 26  1  0  0  0  0
 14  8  1  0  0  0  0
 15 19  1  0  0  0  0
 15 11  1  0  0  0  0
 16 20  2  0  0  0  0
 16 28  1  0  0  0  0
 17  3  1  0  0  0  0
 18  9  1  0  0  0  0
 19 25  1  0  0  0  0
 21 22  1  0  0  0  0
 21  1  2  0  0  0  0
 22  4  2  0  0  0  0
 23 15  1  0  0  0  0
 24  5  1  0  0  0  0
 25 17  1  0  0  0  0
 26 24  1  0  0  0  0
 28 12  1  0  0  0  0
M  END
>  <MODEL>
3

>  <REMARK>
 VINA RESULT:      -2.6     13.579     15.563
  Name = 
  0 active torsions:
  status: ('A' for Active; 'I' for Inactive)
                            x       y       z     vdW  Elec       q    Type
                         _______ _______ _______ _____ _____    ______ ____

>  <TORSDO>
F 0

$$$$
=
 OpenBabel11122414033D

 28 32  0  0  1  0  0  0  0  0999 V2000
  159.4630  213.7760  149.7840 C   0  0  0  0  0  0  0  0  0  0  0  0
  156.3490  214.3540  152.9520 O   0  0  0  0  0  0  0  0  0  0  0  0
  161.0980  208.4530  152.4290 O   0  0  0  0  0  1  0  0  0  0  0  0
  156.7510  213.5670  149.0950 C   0  0  0  0  0  3  0  0  0  0  0  0
  160.9530  210.4340  153.8110 C   0  0  1  0  0  3  0  0  0  0  0  0
  160.9380  213.8520  150.0250 C   0  0  0  0  0  2  0  0  0  0  0  0
  156.3660  211.9700  153.6060 O   0  0  0  0  0  0  0  0  0  0  0  0
  157.0950  213.2820  153.6950 S   0  0  0  0  0  0  0  0  0  0  0  0
  158.6270  213.7460  155.9620 C   0  0  0  0  0  0  0  0  0  0  0  0
  158.7500  213.1390  153.0820 C   0  0  1  0  0  3  0  0  0  0  0  0
  161.7990  210.7920  147.8710 C   0  0  0  0  0  1  0  0  0  0  0  0
  160.4500  211.9180  152.0580 C   0  0  1  0  0  3  0  0  0  0  0  0
  159.6820  213.1530  155.3770 C   0  0  0  0  0  2  0  0  0  0  0  0
  157.3180  213.7430  155.3560 N   0  0  0  0  0  0  0  0  0  0  0  0
  161.2960  211.5030  149.1080 C   0  0  1  0  0  3  0  0  0  0  0  0
  158.5910  212.9900  150.5840 C   0  0  0  0  0  0  0  0  0  0  0  0
  161.4590  209.7990  152.5270 C   0  0  2  0  0  3  0  0  0  0  0  0
  158.8230  214.4520  157.2540 C   0  0  0  0  0  1  0  0  0  0  0  0
  161.8880  210.8310  150.3380 C   0  0  0  0  0  2  0  0  0  0  0  0
  157.2410  212.8980  150.2170 C   0  0  0  0  0  3  0  0  0  0  0  0
  158.9580  214.4440  148.6610 C   0  0  0  0  0  3  0  0  0  0  0  0
  157.6090  214.3450  148.3190 C   0  0  0  0  0  3  0  0  0  0  0  0
  161.7060  212.9730  149.0370 C   0  0  0  0  0  2  0  0  0  0  0  0
  160.7180  211.8580  153.5030 N   0  0  1  0  0  0  0  0  0  0  0  0
  160.8330  210.5980  151.4120 C   0  0  2  0  0  3  0  0  0  0  0  0
  159.4930  212.3620  154.1220 C   0  0  2  0  0  3  0  0  0  0  0  0
  159.7870  209.7830  154.2490 O   0  0  0  0  0  1  0  0  0  0  0  0
  158.9740  212.2830  151.8690 C   0  0  2  0  0  3  0  0  0  0  0  0
  1  6  1  0  0  0  0
  1 16  1  0  0  0  0
  2  8  2  0  0  0  0
  3 17  1  0  0  0  0
  4 20  1  0  0  0  0
  5 27  1  6  0  0  0
  7  8  2  0  0  0  0
  8 14  1  0  0  0  0
  9 18  1  0  0  0  0
 10  8  1  1  0  0  0
 10 26  1  0  0  0  0
 11 15  1  0  0  0  0
 12 24  1  0  0  0  0
 13  9  1  0  0  0  0
 14  9  2  0  0  0  0
 15 19  1  0  0  0  0
 16 28  1  0  0  0  0
 17  5  1  0  0  0  0
 19 25  1  0  0  0  0
 20 16  2  0  0  0  0
 21  1  2  0  0  0  0
 22 21  1  0  0  0  0
 22  4  2  0  0  0  0
 23 15  1  0  0  0  0
 23  6  1  0  0  0  0
 24  5  1  0  0  0  0
 24 26  1  0  0  0  0
 25 12  1  0  0  0  0
 25 17  1  0  0  0  0
 26 13  1  0  0  0  0
 28 12  1  0  0  0  0
 28 10  1  0  0  0  0
M  END
>  <MODEL>
4

>  <REMARK>
 VINA RESULT:      -2.5      3.255      6.037
  Name = 
  0 active torsions:
  status: ('A' for Active; 'I' for Inactive)
                            x       y       z     vdW  Elec       q    Type
                         _______ _______ _______ _____ _____    ______ ____

>  <TORSDO>
F 0

$$$$
=
 OpenBabel11122414033D

 28 32  0  0  1  0  0  0  0  0999 V2000
  160.0370  212.0400  153.7520 C   0  0  0  0  0  0  0  0  0  0  0  0
  162.7760  210.5540  150.5340 O   0  0  0  0  0  0  0  0  0  0  0  0
  155.8540  213.4860  149.4600 O   0  0  0  0  0  1  0  0  0  0  0  0
  160.5340  209.2870  153.5390 C   0  0  0  0  0  3  0  0  0  0  0  0
  158.1250  214.2720  149.1730 C   0  0  1  0  0  3  0  0  0  0  0  0
  159.6850  213.4800  153.9640 C   0  0  0  0  0  2  0  0  0  0  0  0
  160.9520  210.3530  148.8760 O   0  0  0  0  0  0  0  0  0  0  0  0
  161.8670  211.3020  149.5990 S   0  0  0  0  0  0  0  0  0  0  0  0
  162.5780  213.6440  148.2890 C   0  0  0  0  0  0  0  0  0  0  0  0
  160.9490  212.5330  150.4790 C   0  0  1  0  0  3  0  0  0  0  0  0
  155.9510  212.8330  154.5900 C   0  0  0  0  0  1  0  0  0  0  0  0
  158.9320  213.4370  151.2180 C   0  0  1  0  0  3  0  0  0  0  0  0
  161.4880  214.2560  148.7820 C   0  0  0  0  0  2  0  0  0  0  0  0
  162.8010  212.2290  148.4630 N   0  0  0  0  0  0  0  0  0  0  0  0
  157.1950  212.9920  153.7420 C   0  0  1  0  0  3  0  0  0  0  0  0
  159.9530  211.4050  152.4840 C   0  0  0  0  0  0  0  0  0  0  0  0
  156.9290  214.1130  150.0960 C   0  0  2  0  0  3  0  0  0  0  0  0
  163.5970  214.4530  147.5740 C   0  0  0  0  0  1  0  0  0  0  0  0
  156.8650  213.8650  152.5410 C   0  0  0  0  0  2  0  0  0  0  0  0
  160.2020  210.0280  152.4040 C   0  0  0  0  0  3  0  0  0  0  0  0
  160.3730  211.2850  154.8840 C   0  0  0  0  0  3  0  0  0  0  0  0
  160.6250  209.9180  154.7790 C   0  0  0  0  0  3  0  0  0  0  0  0
  158.2970  213.6220  154.5910 C   0  0  0  0  0  2  0  0  0  0  0  0
  159.3210  214.2210  150.0350 N   0  0  1  0  0  0  0  0  0  0  0  0
  157.4230  213.2770  151.2510 C   0  0  2  0  0  3  0  0  0  0  0  0
  160.4060  213.4500  149.4290 C   0  0  2  0  0  3  0  0  0  0  0  0
  158.1250  213.2590  148.1980 O   0  0  0  0  0  1  0  0  0  0  0  0
  159.6850  212.1040  151.1670 C   0  0  2  0  0  3  0  0  0  0  0  0
  1  6  1  0  0  0  0
  1 21  1  0  0  0  0
  3 17  1  0  0  0  0
  4 22  1  0  0  0  0
  5 27  1  6  0  0  0
  5 24  1  0  0  0  0
  5 17  1  0  0  0  0
  6 23  1  0  0  0  0
  7  8  2  0  0  0  0
  8  2  2  0  0  0  0
  9 14  2  0  0  0  0
  9 13  1  0  0  0  0
 10  8  1  6  0  0  0
 10 28  1  0  0  0  0
 12 25  1  0  0  0  0
 13 26  1  0  0  0  0
 14  8  1  0  0  0  0
 15 11  1  0  0  0  0
 15 23  1  0  0  0  0
 16  1  2  0  0  0  0
 17 25  1  0  0  0  0
 18  9  1  0  0  0  0
 19 15  1  0  0  0  0
 20 16  1  0  0  0  0
 20  4  2  0  0  0  0
 22 21  2  0  0  0  0
 24 12  1  0  0  0  0
 25 19  1  0  0  0  0
 26 24  1  0  0  0  0
 26 10  1  0  0  0  0
 28 12  1  0  0  0  0
 28 16  1  0  0  0  0
M  END
>  <MODEL>
5

>  <REMARK>
 VINA RESULT:      -1.9      3.077      6.130
  Name = 
  0 active torsions:
  status: ('A' for Active; 'I' for Inactive)
                            x       y       z     vdW  Elec       q    Type
                         _______ _______ _______ _____ _____    ______ ____

>  <TORSDO>
F 0

$$$$
=
 OpenBabel11122414033D

 28 32  0  0  1  0  0  0  0  0999 V2000
  160.0600  213.3790  150.6560 C   0  0  0  0  0  0  0  0  0  0  0  0
  158.9210  212.3680  154.8690 O   0  0  0  0  0  0  0  0  0  0  0  0
  161.7180  207.5100  149.7470 O   0  0  0  0  0  1  0  0  0  0  0  0
  157.3490  213.3770  151.3800 C   0  0  0  0  0  3  0  0  0  0  0  0
  162.5930  208.6740  151.6810 C   0  0  1  0  0  3  0  0  0  0  0  0
  161.4660  213.4050  150.1440 C   0  0  0  0  0  2  0  0  0  0  0  0
  158.7990  209.9430  154.4060 O   0  0  0  0  0  0  0  0  0  0  0  0
  159.7130  211.1120  154.6420 S   0  0  0  0  0  0  0  0  0  0  0  0
  162.1730  210.5970  155.8200 C   0  0  0  0  0  0  0  0  0  0  0  0
  160.8420  211.3250  153.2940 C   0  0  1  0  0  3  0  0  0  0  0  0
  160.6590  211.6450  146.8270 C   0  0  0  0  0  1  0  0  0  0  0  0
  161.6220  210.7540  151.1740 C   0  0  1  0  0  3  0  0  0  0  0  0
  162.7110  210.3680  154.6100 C   0  0  0  0  0  3  0  0  0  0  0  0
  160.7560  210.8040  155.9980 N   0  0  0  0  0  2  0  0  0  0  0  0
  160.9230  211.7160  148.3160 C   0  0  1  0  0  3  0  0  0  0  0  0
  159.5270  212.2830  151.3870 C   0  0  0  0  0  0  0  0  0  0  0  0
  162.3250  208.6910  150.1860 C   0  0  2  0  0  3  0  0  0  0  0  0
  163.0680  210.6700  157.0030 C   0  0  0  0  0  1  0  0  0  0  0  0
  161.8790  210.5990  148.7020 C   0  0  0  0  0  2  0  0  0  0  0  0
  158.1680  212.3040  151.7340 C   0  0  0  0  0  3  0  0  0  0  0  0
  159.2270  214.4500  150.3080 C   0  0  0  0  0  3  0  0  0  0  0  0
  157.8800  214.4530  150.6710 C   0  0  0  0  0  3  0  0  0  0  0  0
  161.5160  213.0840  148.6490 C   0  0  0  0  0  2  0  0  0  0  0  0
  162.5100  210.0760  152.1320 N   0  0  1  0  0  0  0  0  0  0  0  0
  161.4140  209.8720  149.9560 C   0  0  2  0  0  3  0  0  0  0  0  0
  161.8230  210.2030  153.4170 C   0  0  2  0  0  3  0  0  0  0  0  0
  161.6630  207.8460  152.3320 O   0  0  0  0  0  1  0  0  0  0  0  0
  160.3210  211.1010  151.9040 C   0  0  2  0  0  3  0  0  0  0  0  0
  1 16  1  0  0  0  0
  3 17  1  0  0  0  0
  4 20  1  0  0  0  0
  5 24  1  0  0  0  0
  5 27  1  1  0  0  0
  6  1  1  0  0  0  0
  7  8  2  0  0  0  0
  8  2  2  0  0  0  0
  8 14  1  0  0  0  0
  9 14  1  0  0  0  0
  9 18  1  0  0  0  0
 10 26  1  0  0  0  0
 10  8  1  1  0  0  0
 11 15  1  0  0  0  0
 12 28  1  0  0  0  0
 12 24  1  0  0  0  0
 13  9  2  0  0  0  0
 15 23  1  0  0  0  0
 15 19  1  0  0  0  0
 16 20  2  0  0  0  0
 16 28  1  0  0  0  0
 17  5  1  0  0  0  0
 19 25  1  0  0  0  0
 21  1  2  0  0  0  0
 21 22  1  0  0  0  0
 22  4  2  0  0  0  0
 23  6  1  0  0  0  0
 24 26  1  0  0  0  0
 25 17  1  0  0  0  0
 25 12  1  0  0  0  0
 26 13  1  0  0  0  0
 28 10  1  0  0  0  0
M  END
>  <MODEL>
6

>  <REMARK>
 VINA RESULT:      -1.3      2.712      5.416
  Name = 
  0 active torsions:
  status: ('A' for Active; 'I' for Inactive)
                            x       y       z     vdW  Elec       q    Type
                         _______ _______ _______ _____ _____    ______ ____

>  <TORSDO>
F 0

$$$$
=
 OpenBabel11122414033D

 28 32  0  0  1  0  0  0  0  0999 V2000
  160.5080  205.4680  150.7130 C   0  0  0  0  0  0  0  0  0  0  0  0
  160.4630  206.1850  155.1350 O   0  0  0  0  0  0  0  0  0  0  0  0
  163.6720  210.7030  149.9440 O   0  0  0  0  0  1  0  0  0  0  0  0
  162.0320  203.8100  152.3860 C   0  0  0  0  0  3  0  0  0  0  0  0
  161.6450  210.7600  151.2660 C   0  0  1  0  0  3  0  0  0  0  0  0
  159.7470  206.2860  149.7170 C   0  0  0  0  0  2  0  0  0  0  0  0
  162.3310  207.8020  155.0360 O   0  0  0  0  0  0  0  0  0  0  0  0
  160.8660  207.5880  154.7780 S   0  0  0  0  0  0  0  0  0  0  0  0
  159.1890  209.7880  155.0110 C   0  0  0  0  0  0  0  0  0  0  0  0
  160.4530  207.9430  153.0930 C   0  0  1  0  0  3  0  0  0  0  0  0
  162.6110  206.4720  147.1650 C   0  0  0  0  0  1  0  0  0  0  0  0
  161.0630  208.5090  150.9170 C   0  0  1  0  0  3  0  0  0  0  0  0
  159.4120  210.1010  153.7230 C   0  0  0  0  0  3  0  0  0  0  0  0
  159.9160  208.7340  155.6760 N   0  0  0  0  0  2  0  0  0  0  0  0
  161.8720  206.8510  148.4300 C   0  0  1  0  0  3  0  0  0  0  0  0
  161.3370  206.0460  151.7120 C   0  0  0  0  0  0  0  0  0  0  0  0
  162.3310  210.3130  149.9860 C   0  0  2  0  0  3  0  0  0  0  0  0
  158.1420  210.5280  155.7600 C   0  0  0  0  0  1  0  0  0  0  0  0
  161.8610  208.3660  148.5610 C   0  0  0  0  0  2  0  0  0  0  0  0
  162.0920  205.1960  152.5340 C   0  0  0  0  0  3  0  0  0  0  0  0
  160.4560  204.0740  150.5770 C   0  0  0  0  0  3  0  0  0  0  0  0
  161.2100  203.2490  151.4110 C   0  0  0  0  0  3  0  0  0  0  0  0
  160.4510  206.2970  148.3590 C   0  0  0  0  0  2  0  0  0  0  0  0
  160.6030  209.7550  151.5490 N   0  0  1  0  0  0  0  0  0  0  0  0
  162.2160  208.8090  149.9750 C   0  0  2  0  0  3  0  0  0  0  0  0
  160.5200  209.4320  152.9730 C   0  0  2  0  0  3  0  0  0  0  0  0
  162.5830  210.8660  152.3080 O   0  0  0  0  0  1  0  0  0  0  0  0
  161.4290  207.5240  152.0320 C   0  0  2  0  0  3  0  0  0  0  0  0
  1 16  1  0  0  0  0
  3 17  1  0  0  0  0
  4 20  1  0  0  0  0
  5 24  1  0  0  0  0
  5 27  1  1  0  0  0
  6  1  1  0  0  0  0
  8  7  2  0  0  0  0
  8  2  2  0  0  0  0
  8 14  1  0  0  0  0
  9 14  1  0  0  0  0
  9 18  1  0  0  0  0
 10  8  1  1  0  0  0
 11 15  1  0  0  0  0
 12 24  1  0  0  0  0
 12 28  1  0  0  0  0
 13  9  2  0  0  0  0
 15 19  1  0  0  0  0
 16 28  1  0  0  0  0
 16 20  2  0  0  0  0
 17  5  1  0  0  0  0
 19 25  1  0  0  0  0
 21  1  2  0  0  0  0
 21 22  1  0  0  0  0
 22  4  2  0  0  0  0
 23 15  1  0  0  0  0
 23  6  1  0  0  0  0
 24 26  1  0  0  0  0
 25 17  1  0  0  0  0
 25 12  1  0  0  0  0
 26 10  1  0  0  0  0
 26 13  1  0  0  0  0
 28 10  1  0  0  0  0
M  END
>  <MODEL>
7

>  <REMARK>
 VINA RESULT:      -1.1      2.393      6.751
  Name = 
  0 active torsions:
  status: ('A' for Active; 'I' for Inactive)
                            x       y       z     vdW  Elec       q    Type
                         _______ _______ _______ _____ _____    ______ ____

>  <TORSDO>
F 0

$$$$
=
 OpenBabel11122414033D

 28 32  0  0  1  0  0  0  0  0999 V2000
  160.9770  206.9690  149.5550 C   0  0  0  0  0  0  0  0  0  0  0  0
  162.0820  205.5290  145.4600 O   0  0  0  0  0  0  0  0  0  0  0  0
  162.8340  201.5790  151.9010 O   0  0  0  0  0  1  0  0  0  0  0  0
  163.1800  208.1140  148.2480 C   0  0  0  0  0  3  0  0  0  0  0  0
  161.2950  201.5590  150.0330 C   0  0  1  0  0  3  0  0  0  0  0  0
  159.8330  206.4340  150.3590 C   0  0  0  0  0  2  0  0  0  0  0  0
  163.5350  203.7270  146.3290 O   0  0  0  0  0  0  0  0  0  0  0  0
  162.1170  204.1660  146.0920 S   0  0  0  0  0  0  0  0  0  0  0  0
  160.2250  202.1900  145.6220 C   0  0  0  0  0  0  0  0  0  0  0  0
  161.1830  204.1560  147.5960 C   0  0  1  0  0  3  0  0  0  0  0  0
  161.7650  206.3170  153.6750 C   0  0  0  0  0  1  0  0  0  0  0  0
  161.0340  203.8920  149.9070 C   0  0  1  0  0  3  0  0  0  0  0  0
  160.0110  202.0730  146.9430 C   0  0  0  0  0  2  0  0  0  0  0  0
  161.2830  203.0160  145.0910 N   0  0  0  0  0  0  0  0  0  0  0  0
  161.3670  205.8290  152.2990 C   0  0  1  0  0  3  0  0  0  0  0  0
  161.9450  206.1300  148.9410 C   0  0  0  0  0  0  0  0  0  0  0  0
  161.6500  202.1240  151.3980 C   0  0  2  0  0  3  0  0  0  0  0  0
  159.3260  201.4750  144.6810 C   0  0  0  0  0  1  0  0  0  0  0  0
  161.1330  204.3270  152.3570 C   0  0  0  0  0  2  0  0  0  0  0  0
  163.0390  206.7260  148.2970 C   0  0  0  0  0  3  0  0  0  0  0  0
  161.1290  208.3610  149.4970 C   0  0  0  0  0  3  0  0  0  0  0  0
  162.2210  208.9310  148.8440 C   0  0  0  0  0  3  0  0  0  0  0  0
  160.1030  206.5630  151.8590 C   0  0  0  0  0  2  0  0  0  0  0  0
  160.5670  202.6260  149.3210 N   0  0  1  0  0  0  0  0  0  0  0  0
  161.7970  203.6110  151.1890 C   0  0  2  0  0  3  0  0  0  0  0  0
  160.9550  202.7130  147.9130 C   0  0  2  0  0  3  0  0  0  0  0  0
  162.4600  201.1600  149.3550 O   0  0  0  0  0  1  0  0  0  0  0  0
  161.8690  204.6200  148.8490 C   0  0  2  0  0  3  0  0  0  0  0  0
  1  6  1  0  0  0  0
  2  8  2  0  0  0  0
  4 20  2  0  0  0  0
  4 22  1  0  0  0  0
  5 27  1  6  0  0  0
  5 17  1  0  0  0  0
  6 23  1  0  0  0  0
  8  7  2  0  0  0  0
  9 13  1  0  0  0  0
 10  8  1  6  0  0  0
 10 26  1  0  0  0  0
 10 28  1  0  0  0  0
 12 25  1  0  0  0  0
 13 26  1  0  0  0  0
 14  9  2  0  0  0  0
 14  8  1  0  0  0  0
 15 19  1  0  0  0  0
 15 11  1  0  0  0  0
 16  1  2  0  0  0  0
 17  3  1  0  0  0  0
 18  9  1  0  0  0  0
 20 16  1  0  0  0  0
 21  1  1  0  0  0  0
 22 21  2  0  0  0  0
 23 15  1  0  0  0  0
 24 12  1  0  0  0  0
 24  5  1  0  0  0  0
 25 17  1  0  0  0  0
 25 19  1  0  0  0  0
 26 24  1  0  0  0  0
 28 16  1  0  0  0  0
 28 12  1  0  0  0  0
M  END
>  <MODEL>
8

>  <REMARK>
 VINA RESULT:      -0.8      5.505      7.471
  Name = 
  0 active torsions:
  status: ('A' for Active; 'I' for Inactive)
                            x       y       z     vdW  Elec       q    Type
                         _______ _______ _______ _____ _____    ______ ____

>  <TORSDO>
F 0

$$$$
=
 OpenBabel11122414033D

 28 32  0  0  1  0  0  0  0  0999 V2000
  161.3570  210.0000  155.1810 C   0  0  0  0  0  0  0  0  0  0  0  0
  162.4350  208.1040  151.2690 O   0  0  0  0  0  0  0  0  0  0  0  0
  156.7040  212.9510  152.4160 O   0  0  0  0  0  1  0  0  0  0  0  0
  160.9290  207.2500  154.8270 C   0  0  0  0  0  3  0  0  0  0  0  0
  158.9100  213.0890  151.4300 C   0  0  1  0  0  3  0  0  0  0  0  0
  161.5280  211.4540  155.4910 C   0  0  0  0  0  2  0  0  0  0  0  0
  160.2250  208.5770  150.2670 O   0  0  0  0  0  0  0  0  0  0  0  0
  161.5520  209.1590  150.6640 S   0  0  0  0  0  0  0  0  0  0  0  0
  162.4970  211.3160  149.1950 C   0  0  0  0  0  0  0  0  0  0  0  0
  161.3480  210.5140  151.7860 C   0  0  1  0  0  3  0  0  0  0  0  0
  158.1390  211.8310  157.2570 C   0  0  0  0  0  1  0  0  0  0  0  0
  160.0090  211.8770  153.1190 C   0  0  1  0  0  3  0  0  0  0  0  0
  161.8370  212.1630  150.0030 C   0  0  0  0  0  2  0  0  0  0  0  0
  162.3330  209.8860  149.2920 N   0  0  0  0  0  0  0  0  0  0  0  0
  159.0590  211.7100  156.0610 C   0  0  1  0  0  3  0  0  0  0  0  0
  160.7120  209.5330  154.0040 C   0  0  0  0  0  0  0  0  0  0  0  0
  158.0550  213.1890  152.6820 C   0  0  2  0  0  3  0  0  0  0  0  0
  163.4460  211.8680  148.1940 C   0  0  0  0  0  1  0  0  0  0  0  0
  158.6580  212.7470  155.0230 C   0  0  0  0  0  2  0  0  0  0  0  0
  160.5070  208.1540  153.8520 C   0  0  0  0  0  3  0  0  0  0  0  0
  161.7780  209.0800  156.1510 C   0  0  0  0  0  3  0  0  0  0  0  0
  161.5700  207.7130  155.9740 C   0  0  0  0  0  3  0  0  0  0  0  0
  160.4990  211.9240  156.5210 C   0  0  0  0  0  2  0  0  0  0  0  0
  160.2390  212.6250  151.8730 N   0  0  1  0  0  0  0  0  0  0  0  0
  158.6020  212.1470  153.6240 C   0  0  2  0  0  3  0  0  0  0  0  0
  160.8120  211.6380  150.9580 C   0  0  2  0  0  3  0  0  0  0  0  0
  158.3180  212.2110  150.5060 O   0  0  0  0  0  1  0  0  0  0  0  0
  160.2810  210.3970  152.8370 C   0  0  2  0  0  3  0  0  0  0  0  0
  1  6  1  0  0  0  0
  1 21  1  0  0  0  0
  3 17  1  0  0  0  0
  4 22  1  0  0  0  0
  5 27  1  6  0  0  0
  5 24  1  0  0  0  0
  5 17  1  0  0  0  0
  6 23  1  0  0  0  0
  7  8  2  0  0  0  0
  8  2  2  0  0  0  0
  9 14  2  0  0  0  0
  9 13  1  0  0  0  0
 10  8  1  6  0  0  0
 10 28  1  0  0  0  0
 12 25  1  0  0  0  0
 13 26  1  0  0  0  0
 14  8  1  0  0  0  0
 15 23  1  0  0  0  0
 15 11  1  0  0  0  0
 16  1  2  0  0  0  0
 17 25  1  0  0  0  0
 18  9  1  0  0  0  0
 19 15  1  0  0  0  0
 20 16  1  0  0  0  0
 20  4  2  0  0  0  0
 22 21  2  0  0  0  0
 24 12  1  0  0  0  0
 25 19  1  0  0  0  0
 26 10  1  0  0  0  0
 26 24  1  0  0  0  0
 28 12  1  0  0  0  0
 28 16  1  0  0  0  0
M  END
>  <MODEL>
9

>  <REMARK>
 VINA RESULT:      -0.3      2.303      4.996
  Name = 
  0 active torsions:
  status: ('A' for Active; 'I' for Inactive)
                            x       y       z     vdW  Elec       q    Type
                         _______ _______ _______ _____ _____    ______ ____

>  <TORSDO>
F 0

$$$$
