=
 OpenBabel11122413463D

 37 43  0  0  1  0  0  0  0  0999 V2000
  160.7040  209.0540  151.6040 C   0  0  0  0  0  2  0  0  0  0  0  0
  160.4380  208.1710  156.2330 C   0  0  0  0  0  0  0  0  0  0  0  0
  159.4980  211.7300  154.2360 C   0  0  0  0  0  0  0  0  0  0  0  0
  161.2260  207.9140  150.7470 C   0  0  2  0  0  3  0  0  0  0  0  0
  161.0440  212.5390  150.9710 C   0  0  0  0  0  2  0  0  0  0  0  0
  159.0270  210.2950  156.1150 C   0  0  0  0  0  0  0  0  0  0  0  0
  160.5560  211.8870  153.1770 C   0  0  2  0  0  3  0  0  0  0  0  0
  162.3610  209.4990  149.0540 C   0  0  0  0  0  0  0  0  0  0  0  0
  159.7650  210.6360  154.9930 C   0  0  0  0  0  0  0  0  0  0  0  0
  160.0110  211.9310  151.8060 N   0  0  1  0  0  0  0  0  0  0  0  0
  157.9410  211.1130  156.4620 C   0  0  0  0  0  3  0  0  0  0  0  0
  161.5540  208.3650  149.3970 N   0  0  0  0  0  2  0  0  0  0  0  0
  160.8800  209.9150  154.5460 N   0  0  0  0  0  0  0  0  0  0  0  0
  159.6190  207.2590  155.3330 C   0  0  0  0  0  1  0  0  0  0  0  0
  157.9680  213.6790  153.6190 C   0  0  0  0  0  2  0  0  0  0  0  0
  157.6160  212.2300  155.6580 C   0  0  0  0  0  3  0  0  0  0  0  0
  161.5060  208.9020  155.3910 C   0  0  0  0  0  2  0  0  0  0  0  0
  162.4970  210.6970  149.9450 C   0  0  1  0  0  3  0  0  0  0  0  0
  161.2940  211.6320  149.7790 C   0  0  0  0  0  2  0  0  0  0  0  0
  158.4020  212.5560  154.5340 C   0  0  0  0  0  0  0  0  0  0  0  0
  161.5050  210.6660  153.4600 C   0  0  1  0  0  3  0  0  0  0  0  0
  159.4940  209.1500  156.9740 C   0  0  0  0  0  2  0  0  0  0  0  0
  158.7690  212.7380  151.7360 C   0  0  1  0  0  3  0  0  0  0  0  0
  161.1420  207.3130  157.2610 C   0  0  0  0  0  1  0  0  0  0  0  0
  162.9420  210.3590  151.3770 C   0  0  0  0  0  2  0  0  0  0  0  0
  162.8960  209.5390  147.9150 O   0  0  0  0  0  0  0  0  0  0  0  0
  161.8800  209.7420  152.2940 C   0  0  2  0  0  3  0  0  0  0  0  0
  158.8480  213.8930  152.5380 O   0  0  0  0  0  0  0  0  0  0  0  0
  156.9200  212.9120  150.0550 C   0  0  0  0  0  3  0  0  0  0  0  0
  158.2860  213.0180  150.3400 C   0  0  0  0  0  0  0  0  0  0  0  0
  159.1860  213.3370  149.3120 C   0  0  0  0  0  3  0  0  0  0  0  0
  159.8450  213.9580  146.7360 Cl  0  0  0  0  0  0  0  0  0  0  0  0
  157.3520  213.4580  147.7360 C   0  0  0  0  0  3  0  0  0  0  0  0
  158.7190  213.5590  148.0140 C   0  0  0  0  0  0  0  0  0  0  0  0
  156.4540  213.1340  148.7570 C   0  0  0  0  0  3  0  0  0  0  0  0
  160.5080  205.9290  149.6320 O   0  0  0  0  0  1  0  0  0  0  0  0
  160.1870  206.8110  150.6640 C   0  0  0  0  0  2  0  0  0  0  0  0
  1 27  1  0  0  0  0
  2 22  1  0  0  0  0
  2 24  1  0  0  0  0
  3 20  2  0  0  0  0
  3  9  1  0  0  0  0
  4 37  1  6  0  0  0
  4  1  1  0  0  0  0
  6 11  1  0  0  0  0
  6 22  1  0  0  0  0
  7 21  1  0  0  0  0
  7  3  1  1  0  0  0
  8 12  1  0  0  0  0
  8 18  1  0  0  0  0
  9  6  2  0  0  0  0
 10  5  1  6  0  0  0
 10  7  1  0  0  0  0
 12  4  1  0  0  0  0
 13  9  1  0  0  0  0
 13 17  1  0  0  0  0
 14  2  1  0  0  0  0
 15 20  1  0  0  0  0
 16 11  2  0  0  0  0
 17  2  1  0  0  0  0
 18 19  1  1  0  0  0
 18 25  1  0  0  0  0
 19  5  1  0  0  0  0
 20 16  1  0  0  0  0
 21 13  1  1  0  0  0
 23 30  1  6  0  0  0
 23 10  1  0  0  0  0
 23 28  1  0  0  0  0
 26  8  2  0  0  0  0
 27 25  1  6  0  0  0
 27 21  1  0  0  0  0
 28 15  1  0  0  0  0
 29 30  1  0  0  0  0
 31 30  2  0  0  0  0
 32 34  1  0  0  0  0
 33 34  2  0  0  0  0
 33 35  1  0  0  0  0
 34 31  1  0  0  0  0
 35 29  2  0  0  0  0
 36 37  1  0  0  0  0
M  END
>  <MODEL>
1

>  <REMARK>
 VINA RESULT:      -2.2      0.000      0.000
  Name = 
  2 active torsions:
  status: ('A' for Active; 'I' for Inactive)
    1  A    between atoms: CA_4  and  C_37
    2  A    between atoms: C_23  and  C_30
                            x       y       z     vdW  Elec       q    Type
                         _______ _______ _______ _____ _____    ______ ____

>  <TORSDO>
F 2

$$$$
=
 OpenBabel11122413463D

 37 43  0  0  1  0  0  0  0  0999 V2000
  160.8970  210.3240  148.0810 C   0  0  0  0  0  2  0  0  0  0  0  0
  161.4640  205.9320  146.4490 C   0  0  0  0  0  0  0  0  0  0  0  0
  161.5690  207.2290  150.4290 C   0  0  0  0  0  0  0  0  0  0  0  0
  160.6820  211.3940  147.0260 C   0  0  2  0  0  3  0  0  0  0  0  0
  162.4390  210.7290  151.2610 C   0  0  0  0  0  2  0  0  0  0  0  0
  161.0480  205.4260  148.9150 C   0  0  0  0  0  0  0  0  0  0  0  0
  162.3000  208.5450  150.4030 C   0  0  2  0  0  3  0  0  0  0  0  0
  161.8970  213.2130  148.3990 C   0  0  0  0  0  0  0  0  0  0  0  0
  161.5530  206.6870  149.1840 C   0  0  0  0  0  0  0  0  0  0  0  0
  161.4940  209.6720  150.9120 N   0  0  1  0  0  0  0  0  0  0  0  0
  160.5070  204.6920  149.9830 C   0  0  0  0  0  3  0  0  0  0  0  0
  160.8150  212.7350  147.5870 N   0  0  0  0  0  2  0  0  0  0  0  0
  162.1340  207.5160  148.2160 N   0  0  0  0  0  0  0  0  0  0  0  0
  160.1510  206.6100  146.0920 C   0  0  0  0  0  1  0  0  0  0  0  0
  160.8520  207.1750  152.8790 C   0  0  0  0  0  2  0  0  0  0  0  0
  160.4700  205.2580  151.2770 C   0  0  0  0  0  3  0  0  0  0  0  0
  162.4880  206.9960  146.8990 C   0  0  0  0  0  2  0  0  0  0  0  0
  162.7210  212.3070  149.2650 C   0  0  1  0  0  3  0  0  0  0  0  0
  161.9960  212.0140  150.5820 C   0  0  0  0  0  2  0  0  0  0  0  0
  161.0120  206.5370  151.5170 C   0  0  0  0  0  0  0  0  0  0  0  0
  162.7150  208.6730  148.8910 C   0  0  1  0  0  3  0  0  0  0  0  0
  161.2120  204.8540  147.5320 C   0  0  0  0  0  2  0  0  0  0  0  0
  160.7090  209.2860  152.1090 C   0  0  1  0  0  3  0  0  0  0  0  0
  161.9960  205.2490  145.2080 C   0  0  0  0  0  1  0  0  0  0  0  0
  163.3350  211.1170  148.5100 C   0  0  0  0  0  2  0  0  0  0  0  0
  162.0990  214.4530  148.4710 O   0  0  0  0  0  0  0  0  0  0  0  0
  162.3810  209.9730  148.1470 C   0  0  2  0  0  3  0  0  0  0  0  0
  161.4430  208.4510  152.9730 O   0  0  0  0  0  0  0  0  0  0  0  0
  159.0120  211.1270  152.1770 C   0  0  0  0  0  3  0  0  0  0  0  0
  160.0470  210.4360  152.8160 C   0  0  0  0  0  0  0  0  0  0  0  0
  160.4810  210.8540  154.0830 C   0  0  0  0  0  3  0  0  0  0  0  0
  160.4190  212.4640  156.2870 Cl  0  0  0  0  0  0  0  0  0  0  0  0
  158.8360  212.6310  154.0660 C   0  0  0  0  0  3  0  0  0  0  0  0
  159.8750  211.9470  154.7070 C   0  0  0  0  0  0  0  0  0  0  0  0
  158.4060  212.2210  152.8020 C   0  0  0  0  0  3  0  0  0  0  0  0
  159.1000  212.2380  145.4500 O   0  0  0  0  0  1  0  0  0  0  0  0
  159.3030  211.2470  146.4100 C   0  0  0  0  0  2  0  0  0  0  0  0
  2 17  1  0  0  0  0
  2 22  1  0  0  0  0
  3 20  1  0  0  0  0
  4 37  1  1  0  0  0
  4 12  1  0  0  0  0
  4  1  1  0  0  0  0
  6  9  1  0  0  0  0
  6 11  2  0  0  0  0
  7  3  1  6  0  0  0
  7 10  1  0  0  0  0
  8 26  2  0  0  0  0
  8 18  1  0  0  0  0
  9  3  2  0  0  0  0
 10  5  1  1  0  0  0
 10 23  1  0  0  0  0
 11 16  1  0  0  0  0
 12  8  1  0  0  0  0
 13  9  1  0  0  0  0
 14  2  1  0  0  0  0
 15 28  1  0  0  0  0
 16 20  2  0  0  0  0
 17 13  1  0  0  0  0
 18 25  1  6  0  0  0
 18 19  1  0  0  0  0
 19  5  1  0  0  0  0
 20 15  1  0  0  0  0
 21 13  1  6  0  0  0
 21  7  1  0  0  0  0
 22  6  1  0  0  0  0
 23 30  1  1  0  0  0
 23 28  1  0  0  0  0
 24  2  1  0  0  0  0
 27  1  1  1  0  0  0
 27 25  1  0  0  0  0
 27 21  1  0  0  0  0
 29 35  2  0  0  0  0
 29 30  1  0  0  0  0
 30 31  2  0  0  0  0
 31 34  1  0  0  0  0
 33 34  2  0  0  0  0
 34 32  1  0  0  0  0
 35 33  1  0  0  0  0
 36 37  1  0  0  0  0
M  END
>  <MODEL>
2

>  <REMARK>
 VINA RESULT:      -1.6      3.121      6.624
  Name = 
  2 active torsions:
  status: ('A' for Active; 'I' for Inactive)
    1  A    between atoms: CA_4  and  C_37
    2  A    between atoms: C_23  and  C_30
                            x       y       z     vdW  Elec       q    Type
                         _______ _______ _______ _____ _____    ______ ____

>  <TORSDO>
F 2

$$$$
=
 OpenBabel11122413463D

 37 43  0  0  1  0  0  0  0  0999 V2000
  160.8900  210.2940  148.0600 C   0  0  0  0  0  2  0  0  0  0  0  0
  161.4600  205.9000  146.4340 C   0  0  0  0  0  0  0  0  0  0  0  0
  161.5580  207.2020  150.4120 C   0  0  0  0  0  0  0  0  0  0  0  0
  160.6780  211.3630  147.0030 C   0  0  2  0  0  3  0  0  0  0  0  0
  162.4270  210.7030  151.2420 C   0  0  0  0  0  2  0  0  0  0  0  0
  161.0390  205.3970  148.9000 C   0  0  0  0  0  0  0  0  0  0  0  0
  162.2880  208.5180  150.3860 C   0  0  2  0  0  3  0  0  0  0  0  0
  161.8900  213.1830  148.3760 C   0  0  0  0  0  0  0  0  0  0  0  0
  161.5440  206.6590  149.1690 C   0  0  0  0  0  0  0  0  0  0  0  0
  161.4820  209.6450  150.8930 N   0  0  1  0  0  0  0  0  0  0  0  0
  160.4960  204.6650  149.9680 C   0  0  0  0  0  3  0  0  0  0  0  0
  160.8100  212.7050  147.5630 N   0  0  0  0  0  2  0  0  0  0  0  0
  162.1270  207.4870  148.2000 N   0  0  0  0  0  0  0  0  0  0  0  0
  160.1480  206.5780  146.0740 C   0  0  0  0  0  1  0  0  0  0  0  0
  160.8360  207.1510  152.8610 C   0  0  0  0  0  2  0  0  0  0  0  0
  160.4560  205.2320  151.2610 C   0  0  0  0  0  3  0  0  0  0  0  0
  162.4830  206.9650  146.8840 C   0  0  0  0  0  2  0  0  0  0  0  0
  162.7130  212.2790  149.2450 C   0  0  1  0  0  3  0  0  0  0  0  0
  161.9850  211.9870  150.5610 C   0  0  0  0  0  2  0  0  0  0  0  0
  160.9980  206.5120  151.5000 C   0  0  0  0  0  0  0  0  0  0  0  0
  162.7060  208.6440  148.8750 C   0  0  1  0  0  3  0  0  0  0  0  0
  161.2060  204.8240  147.5180 C   0  0  0  0  0  2  0  0  0  0  0  0
  160.6940  209.2610  152.0880 C   0  0  1  0  0  3  0  0  0  0  0  0
  161.9950  205.2150  145.1950 C   0  0  0  0  0  1  0  0  0  0  0  0
  163.3280  211.0870  148.4930 C   0  0  0  0  0  2  0  0  0  0  0  0
  162.0930  214.4240  148.4470 O   0  0  0  0  0  0  0  0  0  0  0  0
  162.3740  209.9430  148.1290 C   0  0  2  0  0  3  0  0  0  0  0  0
  161.4270  208.4270  152.9550 O   0  0  0  0  0  0  0  0  0  0  0  0
  160.2140  210.5650  154.1720 C   0  0  0  0  0  3  0  0  0  0  0  0
  160.0310  210.4120  152.7930 C   0  0  0  0  0  0  0  0  0  0  0  0
  159.1990  211.3030  152.1010 C   0  0  0  0  0  3  0  0  0  0  0  0
  157.5280  213.4550  151.9150 Cl  0  0  0  0  0  0  0  0  0  0  0  0
  158.7550  212.4980  154.1600 C   0  0  0  0  0  3  0  0  0  0  0  0
  158.5640  212.3450  152.7830 C   0  0  0  0  0  0  0  0  0  0  0  0
  159.5790  211.6070  154.8540 C   0  0  0  0  0  3  0  0  0  0  0  0
  159.1000  212.2040  145.4210 O   0  0  0  0  0  1  0  0  0  0  0  0
  159.3000  211.2150  146.3850 C   0  0  0  0  0  2  0  0  0  0  0  0
  2 17  1  0  0  0  0
  2 22  1  0  0  0  0
  3 20  1  0  0  0  0
  4 37  1  1  0  0  0
  4 12  1  0  0  0  0
  4  1  1  0  0  0  0
  6  9  1  0  0  0  0
  6 11  2  0  0  0  0
  7  3  1  6  0  0  0
  7 10  1  0  0  0  0
  8 26  2  0  0  0  0
  8 18  1  0  0  0  0
  9  3  2  0  0  0  0
 10  5  1  1  0  0  0
 10 23  1  0  0  0  0
 11 16  1  0  0  0  0
 12  8  1  0  0  0  0
 13  9  1  0  0  0  0
 14  2  1  0  0  0  0
 15 28  1  0  0  0  0
 16 20  2  0  0  0  0
 17 13  1  0  0  0  0
 18 25  1  6  0  0  0
 18 19  1  0  0  0  0
 19  5  1  0  0  0  0
 20 15  1  0  0  0  0
 21 13  1  6  0  0  0
 21  7  1  0  0  0  0
 22  6  1  0  0  0  0
 23 30  1  1  0  0  0
 23 28  1  0  0  0  0
 24  2  1  0  0  0  0
 27  1  1  1  0  0  0
 27 25  1  0  0  0  0
 27 21  1  0  0  0  0
 29 35  1  0  0  0  0
 30 29  2  0  0  0  0
 31 34  2  0  0  0  0
 31 30  1  0  0  0  0
 32 34  1  0  0  0  0
 33 35  2  0  0  0  0
 34 33  1  0  0  0  0
 36 37  1  0  0  0  0
M  END
>  <MODEL>
3

>  <REMARK>
 VINA RESULT:      -1.5      2.843      6.524
  Name = 
  2 active torsions:
  status: ('A' for Active; 'I' for Inactive)
    1  A    between atoms: CA_4  and  C_37
    2  A    between atoms: C_23  and  C_30
                            x       y       z     vdW  Elec       q    Type
                         _______ _______ _______ _____ _____    ______ ____

>  <TORSDO>
F 2

$$$$
=
 OpenBabel11122413463D

 37 43  0  0  1  0  0  0  0  0999 V2000
  159.0930  209.9570  155.3440 C   0  0  0  0  0  2  0  0  0  0  0  0
  155.6040  213.0480  156.0870 C   0  0  0  0  0  0  0  0  0  0  0  0
  158.5100  213.1270  153.0730 C   0  0  0  0  0  0  0  0  0  0  0  0
  159.1840  208.8170  156.3430 C   0  0  2  0  0  3  0  0  0  0  0  0
  161.7750  211.4450  153.5410 C   0  0  0  0  0  2  0  0  0  0  0  0
  156.2530  213.6930  153.7050 C   0  0  0  0  0  0  0  0  0  0  0  0
  159.7880  212.6880  153.7360 C   0  0  2  0  0  3  0  0  0  0  0  0
  161.7580  208.6740  156.1810 C   0  0  0  0  0  0  0  0  0  0  0  0
  157.5180  213.2090  153.9960 C   0  0  0  0  0  0  0  0  0  0  0  0
  160.3710  211.4720  153.1370 N   0  0  1  0  0  0  0  0  0  0  0  0
  155.9890  214.0910  152.3850 C   0  0  0  0  0  3  0  0  0  0  0  0
  160.4460  208.0940  156.2170 N   0  0  0  0  0  2  0  0  0  0  0  0
  157.9180  212.7930  155.2730 N   0  0  0  0  0  0  0  0  0  0  0  0
  155.1800  211.6050  155.8650 C   0  0  0  0  0  1  0  0  0  0  0  0
  159.2960  213.2480  150.6470 C   0  0  0  0  0  2  0  0  0  0  0  0
  156.9930  213.9670  151.3980 C   0  0  0  0  0  3  0  0  0  0  0  0
  157.1050  213.0930  156.4470 C   0  0  0  0  0  2  0  0  0  0  0  0
  162.0150  210.0650  155.6840 C   0  0  1  0  0  3  0  0  0  0  0  0
  162.0740  210.0880  154.1530 C   0  0  0  0  0  2  0  0  0  0  0  0
  158.2750  213.4890  151.7360 C   0  0  0  0  0  0  0  0  0  0  0  0
  159.3530  212.5270  155.2390 C   0  0  1  0  0  3  0  0  0  0  0  0
  155.2700  213.8860  154.8280 C   0  0  0  0  0  2  0  0  0  0  0  0
  160.2750  211.4900  151.6580 C   0  0  1  0  0  3  0  0  0  0  0  0
  154.8140  213.5990  157.2540 C   0  0  0  0  0  1  0  0  0  0  0  0
  161.1640  211.1400  156.3790 C   0  0  0  0  0  2  0  0  0  0  0  0
  162.7470  207.9550  156.4810 O   0  0  0  0  0  0  0  0  0  0  0  0
  159.6900  211.2180  155.9650 C   0  0  2  0  0  3  0  0  0  0  0  0
  160.5310  212.7710  151.1310 O   0  0  0  0  0  0  0  0  0  0  0  0
  161.7260  210.6900  149.7800 C   0  0  0  0  0  3  0  0  0  0  0  0
  161.0490  210.4000  150.9700 C   0  0  0  0  0  0  0  0  0  0  0  0
  161.0640  209.0920  151.4750 C   0  0  0  0  0  3  0  0  0  0  0  0
  161.7790  206.4570  151.4350 Cl  0  0  0  0  0  0  0  0  0  0  0  0
  162.4420  208.3840  149.6140 C   0  0  0  0  0  3  0  0  0  0  0  0
  161.7620  208.0870  150.7990 C   0  0  0  0  0  0  0  0  0  0  0  0
  162.4230  209.6850  149.1050 C   0  0  0  0  0  3  0  0  0  0  0  0
  158.5240  206.5980  155.7590 O   0  0  0  0  0  1  0  0  0  0  0  0
  158.0340  207.8500  156.1320 C   0  0  0  0  0  2  0  0  0  0  0  0
  1  4  1  0  0  0  0
  2 17  1  0  0  0  0
  2 24  1  0  0  0  0
  3  9  1  0  0  0  0
  4 37  1  6  0  0  0
  5 19  1  0  0  0  0
  6  9  2  0  0  0  0
  6 22  1  0  0  0  0
  7  3  1  6  0  0  0
  7 21  1  0  0  0  0
  8 12  1  0  0  0  0
  8 26  2  0  0  0  0
  9 13  1  0  0  0  0
 10  5  1  6  0  0  0
 10  7  1  0  0  0  0
 11  6  1  0  0  0  0
 12  4  1  0  0  0  0
 13 17  1  0  0  0  0
 14  2  1  0  0  0  0
 15 28  1  0  0  0  0
 15 20  1  0  0  0  0
 16 20  1  0  0  0  0
 16 11  2  0  0  0  0
 18 19  1  6  0  0  0
 18  8  1  0  0  0  0
 18 25  1  0  0  0  0
 20  3  2  0  0  0  0
 21 13  1  6  0  0  0
 21 27  1  0  0  0  0
 22  2  1  0  0  0  0
 23 30  1  6  0  0  0
 23 10  1  0  0  0  0
 27  1  1  6  0  0  0
 27 25  1  0  0  0  0
 28 23  1  0  0  0  0
 29 30  1  0  0  0  0
 30 31  2  0  0  0  0
 33 34  2  0  0  0  0
 34 32  1  0  0  0  0
 34 31  1  0  0  0  0
 35 33  1  0  0  0  0
 35 29  2  0  0  0  0
 36 37  1  0  0  0  0
M  END
>  <MODEL>
4

>  <REMARK>
 VINA RESULT:       0.1      2.775      5.513
  Name = 
  2 active torsions:
  status: ('A' for Active; 'I' for Inactive)
    1  A    between atoms: CA_4  and  C_37
    2  A    between atoms: C_23  and  C_30
                            x       y       z     vdW  Elec       q    Type
                         _______ _______ _______ _____ _____    ______ ____

>  <TORSDO>
F 2

$$$$
