=
 OpenBabel11122412363D

 30 35  0  0  1  0  0  0  0  0999 V2000
  161.7410  206.0990  150.1790 C   0  0  2  0  0  3  0  0  0  0  0  0
  161.1470  203.5710  149.8590 C   0  0  1  0  0  3  0  0  0  0  0  0
  161.2880  205.6700  154.2990 N   0  0  0  0  0  0  0  0  0  0  0  0
  161.7150  207.2690  151.1660 C   0  0  0  0  0  0  0  0  0  0  0  0
  161.1480  206.5050  148.9720 O   0  0  0  0  0  0  0  0  0  0  0  0
  162.7060  209.7450  148.6010 O   0  0  0  0  0  1  0  0  0  0  0  0
  160.1730  209.6410  152.1110 C   0  0  1  0  0  3  0  0  0  0  0  0
  161.8310  208.7900  149.1220 C   0  0  1  0  0  3  0  0  0  0  0  0
  160.2820  208.8970  153.4510 C   0  0  2  0  0  3  0  0  0  0  0  0
  161.3420  207.0290  154.7270 C   0  0  0  0  0  0  0  0  0  0  0  0
  162.0110  207.4490  148.3950 C   0  0  2  0  0  3  0  0  0  0  0  0
  162.0780  208.6480  150.6300 C   0  0  1  0  0  3  0  0  0  0  0  0
  160.3700  202.5320  150.4160 O   0  0  0  0  0  0  0  0  0  0  0  0
  160.2220  209.9700  154.5160 C   0  0  0  0  0  2  0  0  0  0  0  0
  159.5130  210.9750  152.4240 C   0  0  0  0  0  2  0  0  0  0  0  0
  160.6800  203.7940  148.4320 C   0  0  0  0  0  1  0  0  0  0  0  0
  161.3850  205.6890  153.0130 C   0  0  0  0  0  0  0  0  0  0  0  0
  160.9650  202.1510  151.6330 C   0  0  0  0  0  2  0  0  0  0  0  0
  161.0090  204.8420  150.7270 C   0  0  1  0  0  3  0  0  0  0  0  0
  161.5720  207.0240  152.4780 C   0  0  0  0  0  0  0  0  0  0  0  0
  161.2780  207.3580  155.9400 O   0  0  0  0  0  0  0  0  0  0  0  0
  161.5190  208.0040  153.6010 C   0  0  1  0  0  3  0  0  0  0  0  0
  159.3310  211.0420  153.9300 C   0  0  0  0  0  2  0  0  0  0  0  0
  162.5750  210.5660  152.1980 C   0  0  0  0  0  1  0  0  0  0  0  0
  160.7970  203.2610  152.6680 C   0  0  0  0  0  2  0  0  0  0  0  0
  161.5160  204.4920  152.1350 C   0  0  2  0  0  3  0  0  0  0  0  0
  161.5040  209.8700  151.3670 C   0  0  2  0  0  3  0  0  0  0  0  0
  161.6720  207.5780  146.9190 C   0  0  0  0  0  2  0  0  0  0  0  0
  160.2880  206.2150  145.5500 O   0  0  0  0  0  1  0  0  0  0  0  0
  161.4590  206.2070  146.3050 C   0  0  0  0  0  2  0  0  0  0  0  0
  1  5  1  6  0  0  0
  1 19  1  0  0  0  0
  1  4  1  0  0  0  0
  2 16  1  6  0  0  0
  2 13  1  0  0  0  0
  2 19  1  0  0  0  0
  3 10  1  0  0  0  0
  4 20  2  0  0  0  0
  7 15  1  1  0  0  0
  7  9  1  0  0  0  0
  8  6  1  6  0  0  0
  8 12  1  0  0  0  0
  9 22  1  0  0  0  0
  9 14  1  1  0  0  0
 10 21  2  0  0  0  0
 11 28  1  6  0  0  0
 11  5  1  0  0  0  0
 11  8  1  0  0  0  0
 12  4  1  1  0  0  0
 12 27  1  0  0  0  0
 13 18  1  0  0  0  0
 15 23  1  0  0  0  0
 17  3  2  0  0  0  0
 18 25  1  0  0  0  0
 19 26  1  0  0  0  0
 20 17  1  0  0  0  0
 20 22  1  0  0  0  0
 22 10  1  0  0  0  0
 23 14  1  0  0  0  0
 26 25  1  0  0  0  0
 26 17  1  0  0  0  0
 27  7  1  0  0  0  0
 27 24  1  0  0  0  0
 29 30  1  0  0  0  0
 30 28  1  0  0  0  0
M  END
>  <MODEL>
1

>  <REMARK>
 VINA RESULT:      -6.9      0.000      0.000
  Name = 
  2 active torsions:
  status: ('A' for Active; 'I' for Inactive)
    1  A    between atoms: C_11  and  C_28
    2  A    between atoms: C_28  and  C_30
                            x       y       z     vdW  Elec       q    Type
                         _______ _______ _______ _____ _____    ______ ____

>  <TORSDO>
F 2

$$$$
=
 OpenBabel11122412363D

 30 35  0  0  1  0  0  0  0  0999 V2000
  161.0820  210.1900  152.5220 C   0  0  2  0  0  3  0  0  0  0  0  0
  160.2730  212.5690  151.7950 C   0  0  1  0  0  3  0  0  0  0  0  0
  162.2040  209.3850  148.5910 N   0  0  0  0  0  0  0  0  0  0  0  0
  161.4970  208.8070  152.0150 C   0  0  0  0  0  0  0  0  0  0  0  0
  160.0990  210.0380  153.5140 O   0  0  0  0  0  0  0  0  0  0  0  0
  161.5760  207.3380  155.4110 O   0  0  0  0  0  1  0  0  0  0  0  0
  160.5630  206.0410  151.4050 C   0  0  1  0  0  3  0  0  0  0  0  0
  160.9130  207.9500  154.3450 C   0  0  1  0  0  3  0  0  0  0  0  0
  161.1310  206.3930  150.0220 C   0  0  2  0  0  3  0  0  0  0  0  0
  162.4900  207.9900  148.6650 C   0  0  0  0  0  0  0  0  0  0  0  0
  160.7300  209.4500  154.6210 C   0  0  2  0  0  3  0  0  0  0  0  0
  161.7060  207.7110  153.0520 C   0  0  1  0  0  3  0  0  0  0  0  0
  159.7090  213.2670  150.7050 O   0  0  0  0  0  0  0  0  0  0  0  0
  161.5390  205.0750  149.4030 C   0  0  0  0  0  2  0  0  0  0  0  0
  160.1450  204.5800  151.3280 C   0  0  0  0  0  2  0  0  0  0  0  0
  159.3130  212.6730  152.9670 C   0  0  0  0  0  1  0  0  0  0  0  0
  161.8070  209.7370  149.7660 C   0  0  0  0  0  0  0  0  0  0  0  0
  160.7000  213.3930  149.7130 C   0  0  0  0  0  2  0  0  0  0  0  0
  160.5450  211.1040  151.3860 C   0  0  1  0  0  3  0  0  0  0  0  0
  161.8500  208.6520  150.7280 C   0  0  0  0  0  0  0  0  0  0  0  0
  162.9110  207.3340  147.6760 O   0  0  0  0  0  0  0  0  0  0  0  0
  162.2810  207.4070  150.0310 C   0  0  1  0  0  3  0  0  0  0  0  0
  160.5530  204.0710  149.9560 C   0  0  0  0  0  2  0  0  0  0  0  0
  162.8660  205.5490  152.4500 C   0  0  0  0  0  1  0  0  0  0  0  0
  160.9990  212.0290  149.0950 C   0  0  0  0  0  2  0  0  0  0  0  0
  161.5290  211.1340  150.2050 C   0  0  2  0  0  3  0  0  0  0  0  0
  161.5230  206.2540  152.5930 C   0  0  2  0  0  3  0  0  0  0  0  0
  159.8630  209.6770  155.8490 C   0  0  0  0  0  2  0  0  0  0  0  0
  161.6740  211.1730  156.2140 O   0  0  0  0  0  1  0  0  0  0  0  0
  160.3990  210.8370  156.6660 C   0  0  0  0  0  2  0  0  0  0  0  0
  1  4  1  6  0  0  0
  1  5  1  0  0  0  0
  2 16  1  1  0  0  0
  3 10  1  0  0  0  0
  3 17  2  0  0  0  0
  5 11  1  0  0  0  0
  7 15  1  6  0  0  0
  7 27  1  0  0  0  0
  8 11  1  0  0  0  0
  8  6  1  1  0  0  0
  9 14  1  1  0  0  0
  9 22  1  0  0  0  0
  9  7  1  0  0  0  0
 10 22  1  0  0  0  0
 11 28  1  1  0  0  0
 12  4  1  6  0  0  0
 12  8  1  0  0  0  0
 13  2  1  0  0  0  0
 14 23  1  0  0  0  0
 17 26  1  0  0  0  0
 17 20  1  0  0  0  0
 18 13  1  0  0  0  0
 19  2  1  0  0  0  0
 19  1  1  0  0  0  0
 20  4  2  0  0  0  0
 21 10  2  0  0  0  0
 22 20  1  0  0  0  0
 23 15  1  0  0  0  0
 24 27  1  0  0  0  0
 25 18  1  0  0  0  0
 25 26  1  0  0  0  0
 26 19  1  0  0  0  0
 27 12  1  0  0  0  0
 28 30  1  0  0  0  0
 29 30  1  0  0  0  0
M  END
>  <MODEL>
2

>  <REMARK>
 VINA RESULT:      -6.6      2.377      7.297
  Name = 
  2 active torsions:
  status: ('A' for Active; 'I' for Inactive)
    1  A    between atoms: C_11  and  C_28
    2  A    between atoms: C_28  and  C_30
                            x       y       z     vdW  Elec       q    Type
                         _______ _______ _______ _____ _____    ______ ____

>  <TORSDO>
F 2

$$$$
=
 OpenBabel11122412363D

 30 35  0  0  1  0  0  0  0  0999 V2000
  161.7390  207.2580  150.9250 C   0  0  2  0  0  3  0  0  0  0  0  0
  161.3160  204.9370  149.7930 C   0  0  1  0  0  3  0  0  0  0  0  0
  160.8360  205.5960  154.6380 N   0  0  0  0  0  0  0  0  0  0  0  0
  161.5390  208.0730  152.2040 C   0  0  0  0  0  0  0  0  0  0  0  0
  161.2690  208.0010  149.8290 O   0  0  0  0  0  0  0  0  0  0  0  0
  162.6920  211.2230  150.6410 O   0  0  0  0  0  1  0  0  0  0  0  0
  159.7790  210.0260  153.6130 C   0  0  1  0  0  3  0  0  0  0  0  0
  161.8130  210.1430  150.7390 C   0  0  1  0  0  3  0  0  0  0  0  0
  159.7710  208.9140  154.6730 C   0  0  2  0  0  3  0  0  0  0  0  0
  160.7700  206.7620  155.4550 C   0  0  0  0  0  0  0  0  0  0  0  0
  162.1440  209.0870  149.6740 C   0  0  2  0  0  3  0  0  0  0  0  0
  161.8920  209.5550  152.1550 C   0  0  1  0  0  3  0  0  0  0  0  0
  160.5340  203.7680  149.9120 O   0  0  0  0  0  0  0  0  0  0  0  0
  159.5330  209.6130  155.9930 C   0  0  0  0  0  2  0  0  0  0  0  0
  159.0200  211.1940  154.2240 C   0  0  0  0  0  2  0  0  0  0  0  0
  161.0070  205.5740  148.4500 C   0  0  0  0  0  1  0  0  0  0  0  0
  161.0800  206.0050  153.4400 C   0  0  0  0  0  0  0  0  0  0  0  0
  161.0030  203.0450  151.0250 C   0  0  0  0  0  2  0  0  0  0  0  0
  161.0140  205.8830  150.9760 C   0  0  1  0  0  3  0  0  0  0  0  0
  161.2580  207.4410  153.3550 C   0  0  0  0  0  0  0  0  0  0  0  0
  160.5500  206.7080  156.6940 O   0  0  0  0  0  0  0  0  0  0  0  0
  161.0260  208.0350  154.7040 C   0  0  1  0  0  3  0  0  0  0  0  0
  158.6620  210.8000  155.6470 C   0  0  0  0  0  2  0  0  0  0  0  0
  162.1060  210.9150  154.2730 C   0  0  0  0  0  1  0  0  0  0  0  0
  160.6600  203.7870  152.3150 C   0  0  0  0  0  2  0  0  0  0  0  0
  161.3720  205.1310  152.2680 C   0  0  2  0  0  3  0  0  0  0  0  0
  161.1740  210.4890  153.1450 C   0  0  2  0  0  3  0  0  0  0  0  0
  161.9710  209.6520  148.2740 C   0  0  0  0  0  2  0  0  0  0  0  0
  160.9830  211.6690  147.4980 O   0  0  0  0  0  1  0  0  0  0  0  0
  161.9990  211.1680  148.3090 C   0  0  0  0  0  2  0  0  0  0  0  0
  1  5  1  6  0  0  0
  1 19  1  0  0  0  0
  1  4  1  0  0  0  0
  2 16  1  6  0  0  0
  2 13  1  0  0  0  0
  2 19  1  0  0  0  0
  3 10  1  0  0  0  0
  4 20  2  0  0  0  0
  7 15  1  1  0  0  0
  7  9  1  0  0  0  0
  8  6  1  1  0  0  0
  8 12  1  0  0  0  0
  9 22  1  0  0  0  0
  9 14  1  1  0  0  0
 10 21  2  0  0  0  0
 11 28  1  6  0  0  0
 11  5  1  0  0  0  0
 11  8  1  0  0  0  0
 12  4  1  6  0  0  0
 12 27  1  0  0  0  0
 13 18  1  0  0  0  0
 15 23  1  0  0  0  0
 17  3  2  0  0  0  0
 18 25  1  0  0  0  0
 19 26  1  0  0  0  0
 20 17  1  0  0  0  0
 20 22  1  0  0  0  0
 22 10  1  0  0  0  0
 23 14  1  0  0  0  0
 26 25  1  0  0  0  0
 26 17  1  0  0  0  0
 27  7  1  0  0  0  0
 27 24  1  0  0  0  0
 28 30  1  0  0  0  0
 29 30  1  0  0  0  0
M  END
>  <MODEL>
3

>  <REMARK>
 VINA RESULT:      -6.2      1.577      2.100
  Name = 
  2 active torsions:
  status: ('A' for Active; 'I' for Inactive)
    1  A    between atoms: C_11  and  C_28
    2  A    between atoms: C_28  and  C_30
                            x       y       z     vdW  Elec       q    Type
                         _______ _______ _______ _____ _____    ______ ____

>  <TORSDO>
F 2

$$$$
=
 OpenBabel11122412363D

 30 35  0  0  1  0  0  0  0  0999 V2000
  160.5410  209.6050  153.5130 C   0  0  2  0  0  3  0  0  0  0  0  0
  159.1720  211.7250  154.2030 C   0  0  1  0  0  3  0  0  0  0  0  0
  161.5220  211.4310  149.8990 N   0  0  0  0  0  0  0  0  0  0  0  0
  161.2150  208.8840  152.3430 C   0  0  0  0  0  0  0  0  0  0  0  0
  159.6910  208.7040  154.1780 O   0  0  0  0  0  0  0  0  0  0  0  0
  161.8670  205.8210  154.3130 O   0  0  0  0  0  1  0  0  0  0  0  0
  160.8770  206.8190  150.2180 C   0  0  1  0  0  3  0  0  0  0  0  0
  161.0080  206.7590  153.7380 C   0  0  1  0  0  3  0  0  0  0  0  0
  161.2490  208.0060  149.3170 C   0  0  2  0  0  3  0  0  0  0  0  0
  162.1160  210.3450  149.1920 C   0  0  0  0  0  0  0  0  0  0  0  0
  160.5170  207.7550  154.7990 C   0  0  2  0  0  3  0  0  0  0  0  0
  161.7380  207.4750  152.5920 C   0  0  1  0  0  3  0  0  0  0  0  0
  158.3880  212.7670  153.6620 O   0  0  0  0  0  0  0  0  0  0  0  0
  161.8930  207.3980  148.0910 C   0  0  0  0  0  2  0  0  0  0  0  0
  160.7900  205.6070  149.3020 C   0  0  0  0  0  2  0  0  0  0  0  0
  158.3010  210.9310  155.1610 C   0  0  0  0  0  1  0  0  0  0  0  0
  161.1440  210.9600  151.0380 C   0  0  0  0  0  0  0  0  0  0  0  0
  159.2510  213.6490  152.9830 C   0  0  0  0  0  2  0  0  0  0  0  0
  159.7320  210.8510  153.0580 C   0  0  1  0  0  3  0  0  0  0  0  0
  161.4980  209.5650  151.2210 C   0  0  0  0  0  0  0  0  0  0  0  0
  162.5980  210.4750  148.0350 O   0  0  0  0  0  0  0  0  0  0  0  0
  162.1420  209.0650  149.9730 C   0  0  1  0  0  3  0  0  0  0  0  0
  161.1980  206.0670  147.9130 C   0  0  0  0  0  2  0  0  0  0  0  0
  163.3020  206.3560  150.9540 C   0  0  0  0  0  1  0  0  0  0  0  0
  159.7990  212.9800  151.7250 C   0  0  0  0  0  2  0  0  0  0  0  0
  160.5950  211.7610  152.1690 C   0  0  2  0  0  3  0  0  0  0  0  0
  161.8500  206.5340  151.3800 C   0  0  2  0  0  3  0  0  0  0  0  0
  159.7140  207.0480  155.8790 C   0  0  0  0  0  2  0  0  0  0  0  0
  161.5400  207.8760  157.1570 O   0  0  0  0  0  1  0  0  0  0  0  0
  160.2190  207.4430  157.2540 C   0  0  0  0  0  2  0  0  0  0  0  0
  1  4  1  6  0  0  0
  1  5  1  0  0  0  0
  2 16  1  1  0  0  0
  3 17  2  0  0  0  0
  5 11  1  0  0  0  0
  7 15  1  6  0  0  0
  7 27  1  0  0  0  0
  8  6  1  1  0  0  0
  8 11  1  0  0  0  0
  9 14  1  6  0  0  0
  9 22  1  0  0  0  0
  9  7  1  0  0  0  0
 10  3  1  0  0  0  0
 10 22  1  0  0  0  0
 11 28  1  1  0  0  0
 12  4  1  6  0  0  0
 12  8  1  0  0  0  0
 13  2  1  0  0  0  0
 17 20  1  0  0  0  0
 17 26  1  0  0  0  0
 18 13  1  0  0  0  0
 19  1  1  0  0  0  0
 19  2  1  0  0  0  0
 20  4  2  0  0  0  0
 21 10  2  0  0  0  0
 22 20  1  0  0  0  0
 23 14  1  0  0  0  0
 23 15  1  0  0  0  0
 24 27  1  0  0  0  0
 25 26  1  0  0  0  0
 25 18  1  0  0  0  0
 26 19  1  0  0  0  0
 27 12  1  0  0  0  0
 28 30  1  0  0  0  0
 29 30  1  0  0  0  0
M  END
>  <MODEL>
4

>  <REMARK>
 VINA RESULT:      -6.0      2.575      7.335
  Name = 
  2 active torsions:
  status: ('A' for Active; 'I' for Inactive)
    1  A    between atoms: C_11  and  C_28
    2  A    between atoms: C_28  and  C_30
                            x       y       z     vdW  Elec       q    Type
                         _______ _______ _______ _____ _____    ______ ____

>  <TORSDO>
F 2

$$$$
=
 OpenBabel11122412363D

 30 35  0  0  1  0  0  0  0  0999 V2000
  161.1860  209.8100  152.5740 C   0  0  2  0  0  3  0  0  0  0  0  0
  161.2090  207.6370  154.0320 C   0  0  1  0  0  3  0  0  0  0  0  0
  159.1000  211.7920  155.5870 N   0  0  0  0  0  0  0  0  0  0  0  0
  160.5520  211.1920  152.4110 C   0  0  0  0  0  0  0  0  0  0  0  0
  161.1060  209.1210  151.3520 O   0  0  0  0  0  0  0  0  0  0  0  0
  162.1190  211.7680  149.1090 O   0  0  0  0  0  1  0  0  0  0  0  0
  158.3880  212.7500  151.0740 C   0  0  1  0  0  3  0  0  0  0  0  0
  161.2760  211.0630  149.9690 C   0  0  1  0  0  3  0  0  0  0  0  0
  158.0360  213.0860  152.5310 C   0  0  2  0  0  3  0  0  0  0  0  0
  158.7420  213.0030  154.9260 C   0  0  0  0  0  0  0  0  0  0  0  0
  161.9650  209.7810  150.4610 C   0  0  2  0  0  3  0  0  0  0  0  0
  160.8770  211.9690  151.1420 C   0  0  1  0  0  3  0  0  0  0  0  0
  160.4510  206.9350  154.9940 O   0  0  0  0  0  0  0  0  0  0  0  0
  157.3530  214.4350  152.4830 C   0  0  0  0  0  2  0  0  0  0  0  0
  157.4480  213.5810  150.2130 C   0  0  0  0  0  2  0  0  0  0  0  0
  161.3650  206.7430  152.8140 C   0  0  0  0  0  1  0  0  0  0  0  0
  159.7310  211.0760  154.7200 C   0  0  0  0  0  0  0  0  0  0  0  0
  160.5250  207.6470  156.2060 C   0  0  0  0  0  2  0  0  0  0  0  0
  160.5080  208.9710  153.6940 C   0  0  1  0  0  3  0  0  0  0  0  0
  159.9050  211.7500  153.4470 C   0  0  0  0  0  0  0  0  0  0  0  0
  158.1150  213.9290  155.5050 O   0  0  0  0  0  0  0  0  0  0  0  0
  159.2190  213.0730  153.5060 C   0  0  1  0  0  3  0  0  0  0  0  0
  156.6340  214.4530  151.1530 C   0  0  0  0  0  2  0  0  0  0  0  0
  160.3370  214.4290  150.9450 C   0  0  0  0  0  1  0  0  0  0  0  0
  159.7520  208.9590  156.0900 C   0  0  0  0  0  2  0  0  0  0  0  0
  160.4180  209.7830  154.9970 C   0  0  2  0  0  3  0  0  0  0  0  0
  159.8510  213.0120  150.6650 C   0  0  2  0  0  3  0  0  0  0  0  0
  162.2710  208.8470  149.3010 C   0  0  0  0  0  2  0  0  0  0  0  0
  161.2480  207.1360  148.0060 O   0  0  0  0  0  1  0  0  0  0  0  0
  161.2920  207.6880  149.2850 C   0  0  0  0  0  2  0  0  0  0  0  0
  1  5  1  6  0  0  0
  1 19  1  0  0  0  0
  2 16  1  6  0  0  0
  2 13  1  0  0  0  0
  4  1  1  0  0  0  0
  4 20  2  0  0  0  0
  7 15  1  6  0  0  0
  7  9  1  0  0  0  0
  8  6  1  6  0  0  0
  8 11  1  0  0  0  0
  8 12  1  0  0  0  0
  9 14  1  6  0  0  0
  9 22  1  0  0  0  0
 10 21  2  0  0  0  0
 10  3  1  0  0  0  0
 11 28  1  6  0  0  0
 11  5  1  0  0  0  0
 12  4  1  1  0  0  0
 13 18  1  0  0  0  0
 15 23  1  0  0  0  0
 17 26  1  0  0  0  0
 17  3  2  0  0  0  0
 19  2  1  0  0  0  0
 19 26  1  0  0  0  0
 20 22  1  0  0  0  0
 20 17  1  0  0  0  0
 22 10  1  0  0  0  0
 23 14  1  0  0  0  0
 25 18  1  0  0  0  0
 26 25  1  0  0  0  0
 27 24  1  0  0  0  0
 27  7  1  0  0  0  0
 27 12  1  0  0  0  0
 29 30  1  0  0  0  0
 30 28  1  0  0  0  0
M  END
>  <MODEL>
5

>  <REMARK>
 VINA RESULT:      -5.9      2.814      5.005
  Name = 
  2 active torsions:
  status: ('A' for Active; 'I' for Inactive)
    1  A    between atoms: C_11  and  C_28
    2  A    between atoms: C_28  and  C_30
                            x       y       z     vdW  Elec       q    Type
                         _______ _______ _______ _____ _____    ______ ____

>  <TORSDO>
F 2

$$$$
=
 OpenBabel11122412363D

 30 35  0  0  1  0  0  0  0  0999 V2000
  161.2130  210.3940  151.6990 C   0  0  2  0  0  3  0  0  0  0  0  0
  162.1030  208.1440  150.7010 C   0  0  1  0  0  3  0  0  0  0  0  0
  160.4860  208.4810  155.3280 N   0  0  0  0  0  0  0  0  0  0  0  0
  160.4330  211.0200  152.8570 C   0  0  0  0  0  0  0  0  0  0  0  0
  160.6720  210.8460  150.4830 O   0  0  0  0  0  0  0  0  0  0  0  0
  160.3080  214.3570  151.2620 O   0  0  0  0  0  1  0  0  0  0  0  0
  157.7540  211.9400  153.7890 C   0  0  1  0  0  3  0  0  0  0  0  0
  160.0100  212.9940  151.2980 C   0  0  1  0  0  3  0  0  0  0  0  0
  158.0510  210.9410  154.9180 C   0  0  2  0  0  3  0  0  0  0  0  0
  159.7490  209.4820  156.0260 C   0  0  0  0  0  0  0  0  0  0  0  0
  160.9740  212.2130  150.3910 C   0  0  2  0  0  3  0  0  0  0  0  0
  160.0810  212.4980  152.7490 C   0  0  1  0  0  3  0  0  0  0  0  0
  161.9260  206.7460  150.7800 O   0  0  0  0  0  0  0  0  0  0  0  0
  157.2830  211.4460  156.1190 C   0  0  0  0  0  2  0  0  0  0  0  0
  156.4500  212.6260  154.1690 C   0  0  0  0  0  2  0  0  0  0  0  0
  161.7940  208.5770  149.2790 C   0  0  0  0  0  1  0  0  0  0  0  0
  160.7360  208.9630  154.1590 C   0  0  0  0  0  0  0  0  0  0  0  0
  162.4550  206.3120  152.0100 C   0  0  0  0  0  2  0  0  0  0  0  0
  161.1910  208.8400  151.7370 C   0  0  1  0  0  3  0  0  0  0  0  0
  160.2590  210.3230  153.9910 C   0  0  0  0  0  0  0  0  0  0  0  0
  159.3520  209.3260  157.2110 O   0  0  0  0  0  0  0  0  0  0  0  0
  159.5380  210.7350  155.2290 C   0  0  1  0  0  3  0  0  0  0  0  0
  156.0510  212.1040  155.5380 C   0  0  0  0  0  2  0  0  0  0  0  0
  159.2600  213.7930  154.7570 C   0  0  0  0  0  1  0  0  0  0  0  0
  161.5800  206.8070  153.1600 C   0  0  0  0  0  2  0  0  0  0  0  0
  161.6040  208.3280  153.1260 C   0  0  2  0  0  3  0  0  0  0  0  0
  158.8490  212.9930  153.5270 C   0  0  2  0  0  3  0  0  0  0  0  0
  160.8280  212.6440  148.9410 C   0  0  0  0  0  2  0  0  0  0  0  0
  163.1030  212.5260  148.2600 O   0  0  0  0  0  1  0  0  0  0  0  0
  161.8530  211.9370  148.0750 C   0  0  0  0  0  2  0  0  0  0  0  0
  1  5  1  6  0  0  0
  1 19  1  0  0  0  0
  1  4  1  0  0  0  0
  2 16  1  6  0  0  0
  2 13  1  0  0  0  0
  2 19  1  0  0  0  0
  3 10  1  0  0  0  0
  4 20  2  0  0  0  0
  7 15  1  1  0  0  0
  7  9  1  0  0  0  0
  8  6  1  1  0  0  0
  8 12  1  0  0  0  0
  9 22  1  0  0  0  0
  9 14  1  1  0  0  0
 10 21  2  0  0  0  0
 11 28  1  6  0  0  0
 11  5  1  0  0  0  0
 11  8  1  0  0  0  0
 12  4  1  6  0  0  0
 12 27  1  0  0  0  0
 13 18  1  0  0  0  0
 15 23  1  0  0  0  0
 17  3  2  0  0  0  0
 18 25  1  0  0  0  0
 19 26  1  0  0  0  0
 20 17  1  0  0  0  0
 20 22  1  0  0  0  0
 22 10  1  0  0  0  0
 23 14  1  0  0  0  0
 26 25  1  0  0  0  0
 26 17  1  0  0  0  0
 27  7  1  0  0  0  0
 27 24  1  0  0  0  0
 30 29  1  0  0  0  0
 30 28  1  0  0  0  0
M  END
>  <MODEL>
6

>  <REMARK>
 VINA RESULT:      -5.3      2.589      4.528
  Name = 
  2 active torsions:
  status: ('A' for Active; 'I' for Inactive)
    1  A    between atoms: C_11  and  C_28
    2  A    between atoms: C_28  and  C_30
                            x       y       z     vdW  Elec       q    Type
                         _______ _______ _______ _____ _____    ______ ____

>  <TORSDO>
F 2

$$$$
=
 OpenBabel11122412363D

 30 35  0  0  1  0  0  0  0  0999 V2000
  161.2310  208.5700  151.1110 C   0  0  2  0  0  3  0  0  0  0  0  0
  161.9710  209.3260  148.7180 C   0  0  1  0  0  3  0  0  0  0  0  0
  160.2760  212.5160  152.0480 N   0  0  0  0  0  0  0  0  0  0  0  0
  160.8880  209.0580  152.5210 C   0  0  0  0  0  0  0  0  0  0  0  0
  162.1860  207.5430  151.2020 O   0  0  0  0  0  0  0  0  0  0  0  0
  160.7510  205.6330  153.9150 O   0  0  0  0  0  1  0  0  0  0  0  0
  161.9500  209.5700  155.2600 C   0  0  1  0  0  3  0  0  0  0  0  0
  161.4250  206.6900  153.3010 C   0  0  1  0  0  3  0  0  0  0  0  0
  161.4160  210.9800  154.9620 C   0  0  2  0  0  3  0  0  0  0  0  0
  160.0420  212.4190  153.4510 C   0  0  0  0  0  0  0  0  0  0  0  0
  161.5410  206.4440  151.7890 C   0  0  2  0  0  3  0  0  0  0  0  0
  160.6870  208.0020  153.6000 C   0  0  1  0  0  3  0  0  0  0  0  0
  162.5440  210.4130  148.0230 O   0  0  0  0  0  0  0  0  0  0  0  0
  161.0810  211.5800  156.3090 C   0  0  0  0  0  2  0  0  0  0  0  0
  162.4260  209.5990  156.7050 C   0  0  0  0  0  2  0  0  0  0  0  0
  162.8860  208.1270  148.5510 C   0  0  0  0  0  1  0  0  0  0  0  0
  160.6190  211.3370  151.6540 C   0  0  0  0  0  0  0  0  0  0  0  0
  161.5840  211.4410  147.9590 C   0  0  0  0  0  2  0  0  0  0  0  0
  161.7710  209.7090  150.2020 C   0  0  1  0  0  3  0  0  0  0  0  0
  160.5860  210.3510  152.7180 C   0  0  0  0  0  0  0  0  0  0  0  0
  159.6810  213.4060  154.1460 O   0  0  0  0  0  0  0  0  0  0  0  0
  160.2270  211.0330  153.9950 C   0  0  1  0  0  3  0  0  0  0  0  0
  162.0860  210.9710  157.2610 C   0  0  0  0  0  2  0  0  0  0  0  0
  159.6330  208.5910  155.8200 C   0  0  0  0  0  1  0  0  0  0  0  0
  161.3600  212.0360  149.3470 C   0  0  0  0  0  2  0  0  0  0  0  0
  160.8280  210.9220  150.2380 C   0  0  2  0  0  3  0  0  0  0  0  0
  160.9420  208.4200  155.0590 C   0  0  2  0  0  3  0  0  0  0  0  0
  162.3550  205.1930  151.5010 C   0  0  0  0  0  2  0  0  0  0  0  0
  161.1740  204.6070  149.5230 O   0  0  0  0  0  1  0  0  0  0  0  0
  161.4990  204.1550  150.8010 C   0  0  0  0  0  2  0  0  0  0  0  0
  1  5  1  1  0  0  0
  1  4  1  0  0  0  0
  2 16  1  1  0  0  0
  2 19  1  0  0  0  0
  3 10  1  0  0  0  0
  4 20  2  0  0  0  0
  5 11  1  0  0  0  0
  7 15  1  1  0  0  0
  8 12  1  0  0  0  0
  8  6  1  1  0  0  0
  9  7  1  0  0  0  0
  9 14  1  1  0  0  0
 10 22  1  0  0  0  0
 10 21  2  0  0  0  0
 11 28  1  1  0  0  0
 11  8  1  0  0  0  0
 12  4  1  6  0  0  0
 12 27  1  0  0  0  0
 13  2  1  0  0  0  0
 14 23  1  0  0  0  0
 15 23  1  0  0  0  0
 17  3  2  0  0  0  0
 17 20  1  0  0  0  0
 18 13  1  0  0  0  0
 18 25  1  0  0  0  0
 19 26  1  0  0  0  0
 19  1  1  0  0  0  0
 20 22  1  0  0  0  0
 22  9  1  0  0  0  0
 25 26  1  0  0  0  0
 26 17  1  0  0  0  0
 27  7  1  0  0  0  0
 27 24  1  0  0  0  0
 29 30  1  0  0  0  0
 30 28  1  0  0  0  0
M  END
>  <MODEL>
7

>  <REMARK>
 VINA RESULT:      -5.1      2.527      5.408
  Name = 
  2 active torsions:
  status: ('A' for Active; 'I' for Inactive)
    1  A    between atoms: C_11  and  C_28
    2  A    between atoms: C_28  and  C_30
                            x       y       z     vdW  Elec       q    Type
                         _______ _______ _______ _____ _____    ______ ____

>  <TORSDO>
F 2

$$$$
=
 OpenBabel11122412363D

 30 35  0  0  1  0  0  0  0  0999 V2000
  161.1790  208.1030  150.8490 C   0  0  2  0  0  3  0  0  0  0  0  0
  161.5120  208.2640  153.4390 C   0  0  1  0  0  3  0  0  0  0  0  0
  160.4560  204.0160  151.2090 N   0  0  0  0  0  0  0  0  0  0  0  0
  161.0880  207.1400  149.6630 C   0  0  0  0  0  0  0  0  0  0  0  0
  162.1190  209.1050  150.5550 O   0  0  0  0  0  0  0  0  0  0  0  0
  161.1400  209.8660  147.1600 O   0  0  0  0  0  1  0  0  0  0  0  0
  162.6080  205.8040  147.4720 C   0  0  1  0  0  3  0  0  0  0  0  0
  161.7150  209.1330  148.2000 C   0  0  1  0  0  3  0  0  0  0  0  0
  162.0520  204.5460  148.1570 C   0  0  2  0  0  3  0  0  0  0  0  0
  160.4630  203.6110  149.8420 C   0  0  0  0  0  0  0  0  0  0  0  0
  161.5680  209.8870  149.5300 C   0  0  2  0  0  3  0  0  0  0  0  0
  161.0580  207.7480  148.2660 C   0  0  1  0  0  3  0  0  0  0  0  0
  161.9740  207.5240  154.5490 O   0  0  0  0  0  0  0  0  0  0  0  0
  161.9610  203.4990  147.0690 C   0  0  0  0  0  2  0  0  0  0  0  0
  163.3250  205.3190  146.2210 C   0  0  0  0  0  2  0  0  0  0  0  0
  162.3670  209.5120  153.3180 C   0  0  0  0  0  1  0  0  0  0  0  0
  160.7090  205.2800  151.2160 C   0  0  0  0  0  0  0  0  0  0  0  0
  161.0320  206.5130  154.8180 C   0  0  0  0  0  2  0  0  0  0  0  0
  161.5730  207.3850  152.1700 C   0  0  1  0  0  3  0  0  0  0  0  0
  160.8430  205.8390  149.8840 C   0  0  0  0  0  0  0  0  0  0  0  0
  160.2400  202.4240  149.4880 O   0  0  0  0  0  0  0  0  0  0  0  0
  160.7170  204.7380  148.8860 C   0  0  1  0  0  3  0  0  0  0  0  0
  163.1040  203.8190  146.1320 C   0  0  0  0  0  2  0  0  0  0  0  0
  160.4070  206.3620  146.2560 C   0  0  0  0  0  1  0  0  0  0  0  0
  161.0560  205.4650  153.7070 C   0  0  0  0  0  2  0  0  0  0  0  0
  160.6670  206.1670  152.4130 C   0  0  2  0  0  3  0  0  0  0  0  0
  161.5650  206.8770  147.1030 C   0  0  2  0  0  3  0  0  0  0  0  0
  162.3030  211.2170  149.4870 C   0  0  0  0  0  2  0  0  0  0  0  0
  161.7310  213.1100  148.1690 O   0  0  0  0  0  1  0  0  0  0  0  0
  161.3240  212.3550  149.2670 C   0  0  0  0  0  2  0  0  0  0  0  0
  1  4  1  6  0  0  0
  1 19  1  0  0  0  0
  2 16  1  6  0  0  0
  2 13  1  0  0  0  0
  3 17  2  0  0  0  0
  4 20  2  0  0  0  0
  5  1  1  0  0  0  0
  7 15  1  6  0  0  0
  7  9  1  0  0  0  0
  8  6  1  6  0  0  0
  8 12  1  0  0  0  0
  8 11  1  0  0  0  0
  9 14  1  6  0  0  0
  9 22  1  0  0  0  0
 10  3  1  0  0  0  0
 11 28  1  6  0  0  0
 11  5  1  0  0  0  0
 12  4  1  1  0  0  0
 13 18  1  0  0  0  0
 17 26  1  0  0  0  0
 19 26  1  0  0  0  0
 19  2  1  0  0  0  0
 20 17  1  0  0  0  0
 21 10  2  0  0  0  0
 22 10  1  0  0  0  0
 22 20  1  0  0  0  0
 23 15  1  0  0  0  0
 23 14  1  0  0  0  0
 24 27  1  0  0  0  0
 25 18  1  0  0  0  0
 26 25  1  0  0  0  0
 27  7  1  0  0  0  0
 27 12  1  0  0  0  0
 29 30  1  0  0  0  0
 30 28  1  0  0  0  0
M  END
>  <MODEL>
8

>  <REMARK>
 VINA RESULT:      -4.7      1.941      5.774
  Name = 
  2 active torsions:
  status: ('A' for Active; 'I' for Inactive)
    1  A    between atoms: C_11  and  C_28
    2  A    between atoms: C_28  and  C_30
                            x       y       z     vdW  Elec       q    Type
                         _______ _______ _______ _____ _____    ______ ____

>  <TORSDO>
F 2

$$$$
=
 OpenBabel11122412363D

 30 35  0  0  1  0  0  0  0  0999 V2000
  158.8300  212.8960  153.4410 C   0  0  2  0  0  3  0  0  0  0  0  0
  157.3810  214.2870  151.7640 C   0  0  1  0  0  3  0  0  0  0  0  0
  161.0340  211.3720  150.2500 N   0  0  0  0  0  0  0  0  0  0  0  0
  159.8340  211.7480  153.5630 C   0  0  0  0  0  0  0  0  0  0  0  0
  157.7760  212.6820  154.3450 O   0  0  0  0  0  0  0  0  0  0  0  0
  159.6790  211.7090  157.2600 O   0  0  0  0  0  1  0  0  0  0  0  0
  160.1630  208.8260  154.0660 C   0  0  1  0  0  3  0  0  0  0  0  0
  159.0970  211.5720  155.9990 C   0  0  1  0  0  3  0  0  0  0  0  0
  160.8580  208.8960  152.6970 C   0  0  2  0  0  3  0  0  0  0  0  0
  161.7950  210.3560  150.8990 C   0  0  0  0  0  0  0  0  0  0  0  0
  158.3110  212.8400  155.6320 C   0  0  2  0  0  3  0  0  0  0  0  0
  160.1940  211.2760  154.9660 C   0  0  1  0  0  3  0  0  0  0  0  0
  156.8620  214.2560  150.4520 O   0  0  0  0  0  0  0  0  0  0  0  0
  161.8560  207.7610  152.6910 C   0  0  0  0  0  2  0  0  0  0  0  0
  160.3490  207.3990  154.5590 C   0  0  0  0  0  2  0  0  0  0  0  0
  156.2120  214.3570  152.7300 C   0  0  0  0  0  1  0  0  0  0  0  0
  160.2780  211.8940  151.1550 C   0  0  0  0  0  0  0  0  0  0  0  0
  157.9320  214.4520  149.5590 C   0  0  0  0  0  2  0  0  0  0  0  0
  158.2640  213.0420  152.0000 C   0  0  1  0  0  3  0  0  0  0  0  0
  160.5020  211.3340  152.4740 C   0  0  0  0  0  0  0  0  0  0  0  0
  162.6420  209.6530  150.2890 O   0  0  0  0  0  0  0  0  0  0  0  0
  161.5130  210.2420  152.3680 C   0  0  1  0  0  3  0  0  0  0  0  0
  161.2180  206.6830  153.5390 C   0  0  0  0  0  2  0  0  0  0  0  0
  162.1800  209.7660  155.3640 C   0  0  0  0  0  1  0  0  0  0  0  0
  158.8490  213.2310  149.5650 C   0  0  0  0  0  2  0  0  0  0  0  0
  159.4070  213.0900  150.9730 C   0  0  2  0  0  3  0  0  0  0  0  0
  160.6770  209.8230  155.1240 C   0  0  2  0  0  3  0  0  0  0  0  0
  157.1670  213.0720  156.6070 C   0  0  0  0  0  2  0  0  0  0  0  0
  155.2700  211.7980  157.2600 O   0  0  0  0  0  1  0  0  0  0  0  0
  155.9260  212.3280  156.1510 C   0  0  0  0  0  2  0  0  0  0  0  0
  1  4  1  6  0  0  0
  1  5  1  0  0  0  0
  2 19  1  0  0  0  0
  2 16  1  1  0  0  0
  3 10  1  0  0  0  0
  3 17  2  0  0  0  0
  5 11  1  0  0  0  0
  7 15  1  1  0  0  0
  7 27  1  0  0  0  0
  8  6  1  1  0  0  0
  9 14  1  1  0  0  0
  9  7  1  0  0  0  0
 10 22  1  0  0  0  0
 11  8  1  0  0  0  0
 11 28  1  1  0  0  0
 12  4  1  6  0  0  0
 12 27  1  0  0  0  0
 12  8  1  0  0  0  0
 13  2  1  0  0  0  0
 14 23  1  0  0  0  0
 17 20  1  0  0  0  0
 18 25  1  0  0  0  0
 18 13  1  0  0  0  0
 19  1  1  0  0  0  0
 20  4  2  0  0  0  0
 21 10  2  0  0  0  0
 22 20  1  0  0  0  0
 22  9  1  0  0  0  0
 23 15  1  0  0  0  0
 25 26  1  0  0  0  0
 26 17  1  0  0  0  0
 26 19  1  0  0  0  0
 27 24  1  0  0  0  0
 30 28  1  0  0  0  0
 30 29  1  0  0  0  0
M  END
>  <MODEL>
9

>  <REMARK>
 VINA RESULT:      -4.7      3.675      8.333
  Name = 
  2 active torsions:
  status: ('A' for Active; 'I' for Inactive)
    1  A    between atoms: C_11  and  C_28
    2  A    between atoms: C_28  and  C_30
                            x       y       z     vdW  Elec       q    Type
                         _______ _______ _______ _____ _____    ______ ____

>  <TORSDO>
F 2

$$$$
