=
 OpenBabel11122413043D

 32 37  0  0  1  0  0  0  0  0999 V2000
  160.3710  212.5050  145.9000 C   0  0  0  0  0  2  0  0  0  0  0  0
  160.2570  212.5720  150.3760 C   0  0  2  0  0  3  0  0  0  0  0  0
  162.2610  208.0720  150.5600 C   0  0  0  0  0  3  0  0  0  0  0  0
  161.6330  207.8310  151.7830 C   0  0  0  0  0  3  0  0  0  0  0  0
  158.9620  213.4180  152.3970 C   0  0  0  0  0  0  0  0  0  0  0  0
  158.8220  213.4510  153.8910 C   0  0  1  0  0  3  0  0  0  0  0  0
  161.0610  214.1090  148.5330 C   0  0  1  0  0  3  0  0  0  0  0  0
  161.7240  211.7450  148.6590 O   0  0  0  0  0  0  0  0  0  0  0  0
  157.9540  211.8440  155.4200 C   0  0  2  0  0  3  0  0  0  0  0  0
  162.7110  212.9940  146.8470 C   0  0  0  0  0  2  0  0  0  0  0  0
  162.2040  209.3440  149.9870 C   0  0  0  0  0  3  0  0  0  0  0  0
  161.5350  211.7720  150.0540 C   0  0  2  0  0  3  0  0  0  0  0  0
  161.5010  210.3810  150.6190 C   0  0  0  0  0  0  0  0  0  0  0  0
  160.1580  211.2470  152.5290 C   0  0  0  0  0  0  0  0  0  0  0  0
  157.0870  213.0200  155.4910 N   0  0  0  0  0  2  0  0  0  0  0  0
  159.6140  212.9190  147.1650 C   0  0  0  0  0  2  0  0  0  0  0  0
  162.1580  213.0300  148.2780 C   0  0  1  0  0  3  0  0  0  0  0  0
  157.4410  213.8690  154.3540 C   0  0  0  0  0  2  0  0  0  0  0  0
  160.0040  214.2040  147.5880 O   0  0  0  0  0  0  0  0  0  0  0  0
  161.6950  213.2630  145.7300 C   0  0  1  0  0  3  0  0  0  0  0  0
  160.9510  208.8630  152.4320 C   0  0  0  0  0  3  0  0  0  0  0  0
  160.8860  210.1460  151.8610 C   0  0  0  0  0  0  0  0  0  0  0  0
  159.7020  211.0840  153.7790 C   0  0  0  0  0  3  0  0  0  0  0  0
  160.5330  214.0250  149.9680 C   0  0  0  0  0  2  0  0  0  0  0  0
  158.3280  214.2460  151.6870 O   0  0  0  0  0  0  0  0  0  0  0  0
  158.5850  211.5940  156.7770 C   0  0  0  0  0  1  0  0  0  0  0  0
  159.8710  212.4650  151.7990 N   0  0  0  0  0  0  0  0  0  0  0  0
  158.9800  212.1270  154.4410 N   0  0  0  0  0  0  0  0  0  0  0  0
  162.3280  212.9350  144.3880 C   0  0  0  0  0  2  0  0  0  0  0  0
  161.3660  213.1650  143.2660 C   0  0  0  0  0  0  0  0  0  0  0  0
  160.9240  212.0200  142.4220 C   0  0  0  0  0  1  0  0  0  0  0  0
  160.9580  214.2900  143.0260 O   0  0  0  0  0  0  0  0  0  0  0  0
  1 16  1  0  0  0  0
  2 24  1  1  0  0  0
  2 27  1  0  0  0  0
  3  4  1  0  0  0  0
  4 21  2  0  0  0  0
  5  6  1  0  0  0  0
  6 18  1  6  0  0  0
  6 28  1  0  0  0  0
  7 24  1  1  0  0  0
  9 15  1  0  0  0  0
  9 26  1  1  0  0  0
 11  3  2  0  0  0  0
 11 13  1  0  0  0  0
 12  8  1  6  0  0  0
 12  2  1  0  0  0  0
 12 13  1  0  0  0  0
 13 22  2  0  0  0  0
 14 23  2  0  0  0  0
 16 19  1  0  0  0  0
 17 10  1  6  0  0  0
 17  7  1  0  0  0  0
 17  8  1  0  0  0  0
 18 15  1  0  0  0  0
 19  7  1  0  0  0  0
 20 29  1  6  0  0  0
 20  1  1  0  0  0  0
 20 10  1  0  0  0  0
 22 21  1  0  0  0  0
 22 14  1  0  0  0  0
 23 28  1  0  0  0  0
 25  5  2  0  0  0  0
 27  5  1  0  0  0  0
 27 14  1  0  0  0  0
 28  9  1  0  0  0  0
 30 29  1  0  0  0  0
 31 30  1  0  0  0  0
 32 30  2  0  0  0  0
M  END
>  <MODEL>
1

>  <REMARK>
 VINA RESULT:      -6.5      0.000      0.000
  Name = 
  2 active torsions:
  status: ('A' for Active; 'I' for Inactive)
    1  A    between atoms: C_20  and  C_29
    2  A    between atoms: C_29  and  C_30
                            x       y       z     vdW  Elec       q    Type
                         _______ _______ _______ _____ _____    ______ ____

>  <TORSDO>
F 2

$$$$
=
 OpenBabel11122413043D

 32 37  0  0  1  0  0  0  0  0999 V2000
  159.4510  213.1480  146.4040 C   0  0  0  0  0  2  0  0  0  0  0  0
  160.7030  211.8530  150.5050 C   0  0  2  0  0  3  0  0  0  0  0  0
  162.4630  207.6160  148.7010 C   0  0  0  0  0  3  0  0  0  0  0  0
  162.2240  206.9850  149.9220 C   0  0  0  0  0  3  0  0  0  0  0  0
  160.1210  211.9810  152.9790 C   0  0  0  0  0  0  0  0  0  0  0  0
  160.4420  211.5540  154.3810 C   0  0  1  0  0  3  0  0  0  0  0  0
  160.9790  213.9140  149.0620 C   0  0  1  0  0  3  0  0  0  0  0  0
  161.5410  211.6590  148.2580 O   0  0  0  0  0  0  0  0  0  0  0  0
  160.0070  209.5180  155.5380 C   0  0  2  0  0  3  0  0  0  0  0  0
  161.9870  213.4470  146.7010 C   0  0  0  0  0  2  0  0  0  0  0  0
  162.2920  208.9970  148.5850 C   0  0  0  0  0  3  0  0  0  0  0  0
  161.7850  211.2540  149.5840 C   0  0  2  0  0  3  0  0  0  0  0  0
  161.8610  209.7570  149.6840 C   0  0  0  0  0  0  0  0  0  0  0  0
  161.2010  209.9350  152.0780 C   0  0  0  0  0  0  0  0  0  0  0  0
  159.2570  210.5710  156.2210 N   0  0  0  0  0  2  0  0  0  0  0  0
  159.1330  213.1210  147.9020 C   0  0  0  0  0  2  0  0  0  0  0  0
  161.8970  213.0200  148.1730 C   0  0  1  0  0  3  0  0  0  0  0  0
  159.2870  211.7410  155.3430 C   0  0  0  0  0  2  0  0  0  0  0  0
  159.6910  214.2350  148.5560 O   0  0  0  0  0  0  0  0  0  0  0  0
  160.6940  213.9880  146.0810 C   0  0  1  0  0  3  0  0  0  0  0  0
  161.8200  207.7360  151.0280 C   0  0  0  0  0  3  0  0  0  0  0  0
  161.6420  209.1260  150.9210 C   0  0  0  0  0  0  0  0  0  0  0  0
  161.1390  209.3800  153.2960 C   0  0  0  0  0  3  0  0  0  0  0  0
  160.9070  213.3740  150.4920 C   0  0  0  0  0  2  0  0  0  0  0  0
  159.3400  212.9520  152.7790 O   0  0  0  0  0  0  0  0  0  0  0  0
  161.0080  208.9010  156.4970 C   0  0  0  0  0  1  0  0  0  0  0  0
  160.7620  211.3010  151.8750 N   0  0  0  0  0  0  0  0  0  0  0  0
  160.6990  210.1350  154.4290 N   0  0  0  0  0  0  0  0  0  0  0  0
  160.8750  214.1140  144.5770 C   0  0  0  0  0  2  0  0  0  0  0  0
  161.1940  212.7910  143.9570 C   0  0  0  0  0  0  0  0  0  0  0  0
  162.4800  212.6040  143.2300 C   0  0  0  0  0  1  0  0  0  0  0  0
  160.3970  211.8690  144.0300 O   0  0  0  0  0  0  0  0  0  0  0  0
  1 16  1  0  0  0  0
  2 24  1  1  0  0  0
  2 27  1  0  0  0  0
  3  4  1  0  0  0  0
  4 21  2  0  0  0  0
  5  6  1  0  0  0  0
  6 28  1  0  0  0  0
  6 18  1  1  0  0  0
  7 24  1  1  0  0  0
  9 15  1  0  0  0  0
  9 26  1  1  0  0  0
 11  3  2  0  0  0  0
 11 13  1  0  0  0  0
 12  8  1  6  0  0  0
 12 13  1  0  0  0  0
 12  2  1  0  0  0  0
 13 22  2  0  0  0  0
 14 23  2  0  0  0  0
 16 19  1  0  0  0  0
 17 10  1  6  0  0  0
 17  8  1  0  0  0  0
 17  7  1  0  0  0  0
 18 15  1  0  0  0  0
 19  7  1  0  0  0  0
 20 29  1  6  0  0  0
 20  1  1  0  0  0  0
 20 10  1  0  0  0  0
 22 21  1  0  0  0  0
 22 14  1  0  0  0  0
 23 28  1  0  0  0  0
 25  5  2  0  0  0  0
 27 14  1  0  0  0  0
 27  5  1  0  0  0  0
 28  9  1  0  0  0  0
 30 32  2  0  0  0  0
 30 29  1  0  0  0  0
 31 30  1  0  0  0  0
M  END
>  <MODEL>
2

>  <REMARK>
 VINA RESULT:      -6.1      1.496      1.903
  Name = 
  2 active torsions:
  status: ('A' for Active; 'I' for Inactive)
    1  A    between atoms: C_20  and  C_29
    2  A    between atoms: C_29  and  C_30
                            x       y       z     vdW  Elec       q    Type
                         _______ _______ _______ _____ _____    ______ ____

>  <TORSDO>
F 2

$$$$
=
 OpenBabel11122413043D

 32 37  0  0  1  0  0  0  0  0999 V2000
  160.0900  205.8380  146.0040 C   0  0  0  0  0  2  0  0  0  0  0  0
  161.4690  207.2040  150.0400 C   0  0  2  0  0  3  0  0  0  0  0  0
  160.8260  202.6710  151.8670 C   0  0  0  0  0  3  0  0  0  0  0  0
  160.5940  203.2030  153.1360 C   0  0  0  0  0  3  0  0  0  0  0  0
  161.5170  209.1760  151.6490 C   0  0  0  0  0  0  0  0  0  0  0  0
  161.9010  209.7000  153.0010 C   0  0  1  0  0  3  0  0  0  0  0  0
  162.3040  207.3700  147.6570 C   0  0  1  0  0  3  0  0  0  0  0  0
  161.6650  205.2280  148.6820 O   0  0  0  0  0  0  0  0  0  0  0  0
  160.8790  209.4320  155.1350 C   0  0  2  0  0  3  0  0  0  0  0  0
  162.5090  205.0780  146.4270 C   0  0  0  0  0  2  0  0  0  0  0  0
  161.2470  203.5030  150.8280 C   0  0  0  0  0  3  0  0  0  0  0  0
  161.9750  205.7500  149.9520 C   0  0  2  0  0  3  0  0  0  0  0  0
  161.4190  204.8800  151.0420 C   0  0  0  0  0  0  0  0  0  0  0  0
  161.4030  206.8640  152.5460 C   0  0  0  0  0  0  0  0  0  0  0  0
  160.8110  210.8530  154.8000 N   0  0  0  0  0  2  0  0  0  0  0  0
  160.1040  206.9530  147.0540 C   0  0  0  0  0  2  0  0  0  0  0  0
  162.5460  205.8320  147.7630 C   0  0  1  0  0  3  0  0  0  0  0  0
  161.1620  210.9660  153.3840 C   0  0  0  0  0  2  0  0  0  0  0  0
  161.2070  207.8070  146.8670 O   0  0  0  0  0  0  0  0  0  0  0  0
  161.4790  205.5740  145.4060 C   0  0  1  0  0  3  0  0  0  0  0  0
  160.7860  204.5680  153.3650 C   0  0  0  0  0  3  0  0  0  0  0  0
  161.2060  205.4150  152.3240 C   0  0  0  0  0  0  0  0  0  0  0  0
  161.3570  207.3610  153.7900 C   0  0  0  0  0  3  0  0  0  0  0  0
  162.3010  208.0210  149.0420 C   0  0  0  0  0  2  0  0  0  0  0  0
  161.2070  209.9790  150.7260 O   0  0  0  0  0  0  0  0  0  0  0  0
  161.6890  209.2450  156.4040 C   0  0  0  0  0  1  0  0  0  0  0  0
  161.5630  207.7500  151.4110 N   0  0  0  0  0  0  0  0  0  0  0  0
  161.5260  208.7610  154.0300 N   0  0  0  0  0  0  0  0  0  0  0  0
  161.3850  204.5750  144.2630 C   0  0  0  0  0  2  0  0  0  0  0  0
  160.4290  203.4710  144.5870 C   0  0  0  0  0  0  0  0  0  0  0  0
  160.8310  202.3980  145.5380 C   0  0  0  0  0  1  0  0  0  0  0  0
  159.3290  203.4360  144.0600 O   0  0  0  0  0  0  0  0  0  0  0  0
  1 16  1  0  0  0  0
  2 24  1  6  0  0  0
  2 27  1  0  0  0  0
  3  4  1  0  0  0  0
  4 21  2  0  0  0  0
  5  6  1  0  0  0  0
  6 18  1  1  0  0  0
  6 28  1  0  0  0  0
  7 17  1  0  0  0  0
  7 24  1  1  0  0  0
  9 26  1  1  0  0  0
 11 13  1  0  0  0  0
 11  3  2  0  0  0  0
 12  8  1  6  0  0  0
 12  2  1  0  0  0  0
 12 13  1  0  0  0  0
 13 22  2  0  0  0  0
 14 23  2  0  0  0  0
 15  9  1  0  0  0  0
 17 10  1  6  0  0  0
 17  8  1  0  0  0  0
 18 15  1  0  0  0  0
 19 16  1  0  0  0  0
 19  7  1  0  0  0  0
 20 29  1  6  0  0  0
 20  1  1  0  0  0  0
 20 10  1  0  0  0  0
 22 14  1  0  0  0  0
 22 21  1  0  0  0  0
 23 28  1  0  0  0  0
 25  5  2  0  0  0  0
 27  5  1  0  0  0  0
 27 14  1  0  0  0  0
 28  9  1  0  0  0  0
 29 30  1  0  0  0  0
 30 31  1  0  0  0  0
 32 30  2  0  0  0  0
M  END
>  <MODEL>
3

>  <REMARK>
 VINA RESULT:      -5.2      4.532      6.327
  Name = 
  2 active torsions:
  status: ('A' for Active; 'I' for Inactive)
    1  A    between atoms: C_20  and  C_29
    2  A    between atoms: C_29  and  C_30
                            x       y       z     vdW  Elec       q    Type
                         _______ _______ _______ _____ _____    ______ ____

>  <TORSDO>
F 2

$$$$
=
 OpenBabel11122413043D

 32 37  0  0  1  0  0  0  0  0999 V2000
  159.5530  210.2330  154.9180 C   0  0  0  0  0  2  0  0  0  0  0  0
  161.4150  208.2420  151.3650 C   0  0  2  0  0  3  0  0  0  0  0  0
  161.6890  212.5610  149.0050 C   0  0  0  0  0  3  0  0  0  0  0  0
  161.6100  211.9060  147.7750 C   0  0  0  0  0  3  0  0  0  0  0  0
  161.4810  206.0950  149.9990 C   0  0  0  0  0  0  0  0  0  0  0  0
  162.0200  205.3710  148.8000 C   0  0  1  0  0  3  0  0  0  0  0  0
  161.8000  208.2770  153.8650 C   0  0  1  0  0  3  0  0  0  0  0  0
  161.6290  210.3350  152.5300 O   0  0  0  0  0  0  0  0  0  0  0  0
  161.4220  205.4880  146.4980 C   0  0  2  0  0  3  0  0  0  0  0  0
  162.0870  210.6660  154.8760 C   0  0  0  0  0  2  0  0  0  0  0  0
  161.8130  211.8200  150.1820 C   0  0  0  0  0  3  0  0  0  0  0  0
  162.0830  209.6310  151.3980 C   0  0  2  0  0  3  0  0  0  0  0  0
  161.8390  210.4180  150.1430 C   0  0  0  0  0  0  0  0  0  0  0  0
  161.8240  208.2790  148.8680 C   0  0  0  0  0  0  0  0  0  0  0  0
  161.1140  204.1330  146.9550 N   0  0  0  0  0  2  0  0  0  0  0  0
  159.6020  209.0030  154.0060 C   0  0  0  0  0  2  0  0  0  0  0  0
  162.2550  209.7540  153.6520 C   0  0  1  0  0  3  0  0  0  0  0  0
  161.2000  204.1560  148.4160 C   0  0  0  0  0  2  0  0  0  0  0  0
  160.5360  208.0630  154.4780 O   0  0  0  0  0  0  0  0  0  0  0  0
  160.8410  210.4140  155.7330 C   0  0  1  0  0  3  0  0  0  0  0  0
  161.6600  210.5120  147.7230 C   0  0  0  0  0  3  0  0  0  0  0  0
  161.7820  209.7570  148.9030 C   0  0  0  0  0  0  0  0  0  0  0  0
  161.9280  207.6420  147.6940 C   0  0  0  0  0  3  0  0  0  0  0  0
  161.9500  207.4660  152.5760 C   0  0  0  0  0  2  0  0  0  0  0  0
  160.9160  205.4500  150.9240 O   0  0  0  0  0  0  0  0  0  0  0  0
  162.4550  205.4280  145.3880 C   0  0  0  0  0  1  0  0  0  0  0  0
  161.6700  207.5260  150.0970 N   0  0  0  0  0  0  0  0  0  0  0  0
  161.9520  206.2120  147.6310 N   0  0  0  0  0  0  0  0  0  0  0  0
  160.6840  211.5490  156.7330 C   0  0  0  0  0  2  0  0  0  0  0  0
  159.4470  212.3430  156.4580 C   0  0  0  0  0  0  0  0  0  0  0  0
  158.2160  212.1000  157.2610 C   0  0  0  0  0  1  0  0  0  0  0  0
  159.4360  213.1770  155.5670 O   0  0  0  0  0  0  0  0  0  0  0  0
  1 20  1  0  0  0  0
  2 12  1  0  0  0  0
  2 24  1  1  0  0  0
  3 11  1  0  0  0  0
  4  3  2  0  0  0  0
  5 27  1  0  0  0  0
  5 25  2  0  0  0  0
  6 18  1  6  0  0  0
  6  5  1  0  0  0  0
  7 24  1  6  0  0  0
  7 19  1  0  0  0  0
  8 17  1  0  0  0  0
  9 26  1  6  0  0  0
  9 15  1  0  0  0  0
  9 28  1  0  0  0  0
 10 20  1  0  0  0  0
 12 13  1  6  0  0  0
 12  8  1  0  0  0  0
 13 11  2  0  0  0  0
 14 22  1  0  0  0  0
 14 27  1  0  0  0  0
 15 18  1  0  0  0  0
 16 19  1  0  0  0  0
 16  1  1  0  0  0  0
 17  7  1  0  0  0  0
 17 10  1  1  0  0  0
 20 29  1  1  0  0  0
 21  4  1  0  0  0  0
 21 22  2  0  0  0  0
 22 13  1  0  0  0  0
 23 14  2  0  0  0  0
 27  2  1  0  0  0  0
 28 23  1  0  0  0  0
 28  6  1  0  0  0  0
 30 29  1  0  0  0  0
 30 31  1  0  0  0  0
 32 30  2  0  0  0  0
M  END
>  <MODEL>
4

>  <REMARK>
 VINA RESULT:      -4.5      3.920      8.860
  Name = 
  2 active torsions:
  status: ('A' for Active; 'I' for Inactive)
    1  A    between atoms: C_20  and  C_29
    2  A    between atoms: C_29  and  C_30
                            x       y       z     vdW  Elec       q    Type
                         _______ _______ _______ _____ _____    ______ ____

>  <TORSDO>
F 2

$$$$
=
 OpenBabel11122413043D

 32 37  0  0  1  0  0  0  0  0999 V2000
  162.4180  201.9640  149.9570 C   0  0  0  0  0  2  0  0  0  0  0  0
  161.0440  205.6900  152.0270 C   0  0  2  0  0  3  0  0  0  0  0  0
  162.1050  208.3780  148.0330 C   0  0  0  0  0  3  0  0  0  0  0  0
  162.3290  209.4990  148.8340 C   0  0  0  0  0  3  0  0  0  0  0  0
  160.8800  206.8600  154.2810 C   0  0  0  0  0  0  0  0  0  0  0  0
  160.4920  208.0910  155.0450 C   0  0  1  0  0  3  0  0  0  0  0  0
  160.1330  203.3620  151.6310 C   0  0  1  0  0  3  0  0  0  0  0  0
  160.9730  204.7760  149.8030 O   0  0  0  0  0  0  0  0  0  0  0  0
  161.5920  210.1880  155.3040 C   0  0  2  0  0  3  0  0  0  0  0  0
  160.0820  202.6400  149.1240 C   0  0  0  0  0  2  0  0  0  0  0  0
  161.5900  207.2100  148.5980 C   0  0  0  0  0  3  0  0  0  0  0  0
  160.6560  205.9240  150.5540 C   0  0  2  0  0  3  0  0  0  0  0  0
  161.3120  207.1440  149.9720 C   0  0  0  0  0  0  0  0  0  0  0  0
  161.2080  208.2070  152.2220 C   0  0  0  0  0  0  0  0  0  0  0  0
  161.5340  209.5660  156.6260 N   0  0  0  0  0  2  0  0  0  0  0  0
  162.3430  202.7610  151.2620 C   0  0  0  0  0  2  0  0  0  0  0  0
  160.0200  203.7920  150.1360 C   0  0  1  0  0  3  0  0  0  0  0  0
  161.1350  208.1740  156.4150 C   0  0  0  0  0  2  0  0  0  0  0  0
  161.1690  202.4530  151.9740 O   0  0  0  0  0  0  0  0  0  0  0  0
  161.0400  201.4940  149.4720 C   0  0  1  0  0  3  0  0  0  0  0  0
  162.0320  209.4520  150.1980 C   0  0  0  0  0  3  0  0  0  0  0  0
  161.5150  208.2790  150.7770 C   0  0  0  0  0  0  0  0  0  0  0  0
  161.2470  209.3190  152.9690 C   0  0  0  0  0  3  0  0  0  0  0  0
  160.1220  204.5830  152.5540 C   0  0  0  0  0  2  0  0  0  0  0  0
  161.0980  205.7790  154.8950 O   0  0  0  0  0  0  0  0  0  0  0  0
  160.8350  211.5030  155.3260 C   0  0  0  0  0  1  0  0  0  0  0  0
  160.9440  206.9220  152.8380 N   0  0  0  0  0  0  0  0  0  0  0  0
  160.9710  209.2740  154.3720 N   0  0  0  0  0  0  0  0  0  0  0  0
  161.1830  200.5780  148.2670 C   0  0  0  0  0  2  0  0  0  0  0  0
  161.1010  201.3490  146.9880 C   0  0  0  0  0  0  0  0  0  0  0  0
  160.4540  200.7370  145.7950 C   0  0  0  0  0  1  0  0  0  0  0  0
  161.5790  202.4690  146.9130 O   0  0  0  0  0  0  0  0  0  0  0  0
  1 16  1  0  0  0  0
  2 24  1  1  0  0  0
  2 27  1  0  0  0  0
  3 11  2  0  0  0  0
  3  4  1  0  0  0  0
  4 21  2  0  0  0  0
  5 25  2  0  0  0  0
  5  6  1  0  0  0  0
  6 18  1  1  0  0  0
  7 19  1  0  0  0  0
  7 24  1  1  0  0  0
  8 17  1  0  0  0  0
  9 26  1  1  0  0  0
  9 15  1  0  0  0  0
 10 20  1  0  0  0  0
 11 13  1  0  0  0  0
 12  8  1  6  0  0  0
 12  2  1  0  0  0  0
 13 12  1  0  0  0  0
 13 22  2  0  0  0  0
 14 27  1  0  0  0  0
 14 23  2  0  0  0  0
 16 19  1  0  0  0  0
 17 10  1  6  0  0  0
 17  7  1  0  0  0  0
 18 15  1  0  0  0  0
 20 29  1  6  0  0  0
 20  1  1  0  0  0  0
 21 22  1  0  0  0  0
 22 14  1  0  0  0  0
 23 28  1  0  0  0  0
 27  5  1  0  0  0  0
 28  6  1  0  0  0  0
 28  9  1  0  0  0  0
 30 29  1  0  0  0  0
 31 30  1  0  0  0  0
 32 30  2  0  0  0  0
M  END
>  <MODEL>
5

>  <REMARK>
 VINA RESULT:      -4.3      5.149      8.192
  Name = 
  2 active torsions:
  status: ('A' for Active; 'I' for Inactive)
    1  A    between atoms: C_20  and  C_29
    2  A    between atoms: C_29  and  C_30
                            x       y       z     vdW  Elec       q    Type
                         _______ _______ _______ _____ _____    ______ ____

>  <TORSDO>
F 2

$$$$
=
 OpenBabel11122413043D

 32 37  0  0  1  0  0  0  0  0999 V2000
  162.9420  209.9660  153.5780 C   0  0  0  0  0  2  0  0  0  0  0  0
  161.4970  207.4120  150.1940 C   0  0  2  0  0  3  0  0  0  0  0  0
  160.8310  203.6110  153.2620 C   0  0  0  0  0  3  0  0  0  0  0  0
  161.0440  202.7140  152.2130 C   0  0  0  0  0  3  0  0  0  0  0  0
  161.7470  206.9460  147.7050 C   0  0  0  0  0  0  0  0  0  0  0  0
  161.3540  206.1040  146.5270 C   0  0  1  0  0  3  0  0  0  0  0  0
  160.9920  209.7190  151.1040 C   0  0  1  0  0  3  0  0  0  0  0  0
  160.9840  207.7120  152.5250 O   0  0  0  0  0  0  0  0  0  0  0  0
  162.0420  203.9250  145.8570 C   0  0  2  0  0  3  0  0  0  0  0  0
  160.3800  209.7650  153.6400 C   0  0  0  0  0  2  0  0  0  0  0  0
  160.7390  204.9790  153.0000 C   0  0  0  0  0  3  0  0  0  0  0  0
  160.6700  206.9250  151.4010 C   0  0  2  0  0  3  0  0  0  0  0  0
  160.8790  205.4660  151.6910 C   0  0  0  0  0  0  0  0  0  0  0  0
  161.2050  205.0820  149.2530 C   0  0  0  0  0  0  0  0  0  0  0  0
  162.4850  204.8550  144.8190 N   0  0  0  0  0  2  0  0  0  0  0  0
  163.0810  209.5790  152.1020 C   0  0  0  0  0  2  0  0  0  0  0  0
  160.3780  208.9700  152.3270 C   0  0  1  0  0  3  0  0  0  0  0  0
  162.3270  206.2020  145.3700 C   0  0  0  0  0  2  0  0  0  0  0  0
  162.2410  210.3680  151.2930 O   0  0  0  0  0  0  0  0  0  0  0  0
  161.6040  210.6540  153.8840 C   0  0  1  0  0  3  0  0  0  0  0  0
  161.1600  203.1870  150.9040 C   0  0  0  0  0  3  0  0  0  0  0  0
  161.0720  204.5630  150.6310 C   0  0  0  0  0  0  0  0  0  0  0  0
  161.2310  204.2310  148.2180 C   0  0  0  0  0  3  0  0  0  0  0  0
  161.0000  208.8250  149.8620 C   0  0  0  0  0  2  0  0  0  0  0  0
  162.3390  208.0450  147.5250 O   0  0  0  0  0  0  0  0  0  0  0  0
  161.0770  202.9180  145.2610 C   0  0  0  0  0  1  0  0  0  0  0  0
  161.3870  206.5030  149.0340 N   0  0  0  0  0  0  0  0  0  0  0  0
  161.3780  204.7050  146.8760 N   0  0  0  0  0  0  0  0  0  0  0  0
  161.5810  211.1580  155.3170 C   0  0  0  0  0  2  0  0  0  0  0  0
  162.4250  210.3010  156.2060 C   0  0  0  0  0  0  0  0  0  0  0  0
  161.9340  208.9600  156.6270 C   0  0  0  0  0  1  0  0  0  0  0  0
  163.5070  210.7040  156.6020 O   0  0  0  0  0  0  0  0  0  0  0  0
  1 20  1  0  0  0  0
  2 24  1  6  0  0  0
  2 12  1  0  0  0  0
  4  3  2  0  0  0  0
  5 27  1  0  0  0  0
  6 18  1  6  0  0  0
  6 28  1  0  0  0  0
  6  5  1  0  0  0  0
  7 24  1  6  0  0  0
  7 19  1  0  0  0  0
  7 17  1  0  0  0  0
  9 26  1  6  0  0  0
  9 28  1  0  0  0  0
 10 20  1  0  0  0  0
 11  3  1  0  0  0  0
 12 13  1  1  0  0  0
 12  8  1  0  0  0  0
 13 11  2  0  0  0  0
 14 22  1  0  0  0  0
 15 18  1  0  0  0  0
 15  9  1  0  0  0  0
 16  1  1  0  0  0  0
 17  8  1  0  0  0  0
 17 10  1  1  0  0  0
 19 16  1  0  0  0  0
 20 29  1  1  0  0  0
 21  4  1  0  0  0  0
 22 21  2  0  0  0  0
 22 13  1  0  0  0  0
 23 14  2  0  0  0  0
 25  5  2  0  0  0  0
 27 14  1  0  0  0  0
 27  2  1  0  0  0  0
 28 23  1  0  0  0  0
 29 30  1  0  0  0  0
 30 32  2  0  0  0  0
 30 31  1  0  0  0  0
M  END
>  <MODEL>
6

>  <REMARK>
 VINA RESULT:      -4.2      4.973      9.132
  Name = 
  2 active torsions:
  status: ('A' for Active; 'I' for Inactive)
    1  A    between atoms: C_20  and  C_29
    2  A    between atoms: C_29  and  C_30
                            x       y       z     vdW  Elec       q    Type
                         _______ _______ _______ _____ _____    ______ ____

>  <TORSDO>
F 2

$$$$
=
 OpenBabel11122413043D

 32 37  0  0  1  0  0  0  0  0999 V2000
  162.7140  204.6310  147.3810 C   0  0  0  0  0  2  0  0  0  0  0  0
  161.3640  207.1930  150.7970 C   0  0  2  0  0  3  0  0  0  0  0  0
  162.3280  211.2730  148.2050 C   0  0  0  0  0  3  0  0  0  0  0  0
  162.5620  211.9800  149.3850 C   0  0  0  0  0  3  0  0  0  0  0  0
  161.2410  207.3560  153.3340 C   0  0  0  0  0  0  0  0  0  0  0  0
  160.8620  208.1710  154.5350 C   0  0  1  0  0  3  0  0  0  0  0  0
  160.4560  205.2090  149.5140 C   0  0  1  0  0  3  0  0  0  0  0  0
  161.2510  207.2490  148.3950 O   0  0  0  0  0  0  0  0  0  0  0  0
  161.9560  210.0010  155.5960 C   0  0  2  0  0  3  0  0  0  0  0  0
  160.3570  205.5540  146.9300 C   0  0  0  0  0  2  0  0  0  0  0  0
  161.8300  209.9700  148.2610 C   0  0  0  0  0  3  0  0  0  0  0  0
  160.9440  207.9940  149.5490 C   0  0  2  0  0  3  0  0  0  0  0  0
  161.5810  209.3540  149.4970 C   0  0  0  0  0  0  0  0  0  0  0  0
  161.5180  209.4210  151.9850 C   0  0  0  0  0  0  0  0  0  0  0  0
  161.9290  208.8990  156.5570 N   0  0  0  0  0  2  0  0  0  0  0  0
  162.6610  204.8360  148.8980 C   0  0  0  0  0  2  0  0  0  0  0  0
  160.3100  206.2020  148.3200 C   0  0  1  0  0  3  0  0  0  0  0  0
  161.5330  207.7040  155.8110 C   0  0  0  0  0  2  0  0  0  0  0  0
  161.5040  204.2510  149.4450 O   0  0  0  0  0  0  0  0  0  0  0  0
  161.3280  204.3780  146.7710 C   0  0  1  0  0  3  0  0  0  0  0  0
  162.2940  211.3850  150.6190 C   0  0  0  0  0  3  0  0  0  0  0  0
  161.7950  210.0720  150.6860 C   0  0  0  0  0  0  0  0  0  0  0  0
  161.5670  210.1390  153.1150 C   0  0  0  0  0  3  0  0  0  0  0  0
  160.4580  205.9550  150.8510 C   0  0  0  0  0  2  0  0  0  0  0  0
  161.4770  206.1220  153.4580 O   0  0  0  0  0  0  0  0  0  0  0  0
  161.1930  211.1860  156.1580 C   0  0  0  0  0  1  0  0  0  0  0  0
  161.2750  207.9930  152.0370 N   0  0  0  0  0  0  0  0  0  0  0  0
  161.3200  209.5300  154.3870 N   0  0  0  0  0  0  0  0  0  0  0  0
  161.4510  204.0250  145.2980 C   0  0  0  0  0  2  0  0  0  0  0  0
  160.3960  203.0480  144.8860 C   0  0  0  0  0  0  0  0  0  0  0  0
  160.4560  201.6430  145.3740 C   0  0  0  0  0  1  0  0  0  0  0  0
  159.4970  203.3930  144.1360 O   0  0  0  0  0  0  0  0  0  0  0  0
  1 16  1  0  0  0  0
  2 24  1  1  0  0  0
  2 27  1  0  0  0  0
  3 11  2  0  0  0  0
  3  4  1  0  0  0  0
  4 21  2  0  0  0  0
  5 25  2  0  0  0  0
  5  6  1  0  0  0  0
  6 18  1  1  0  0  0
  7 24  1  1  0  0  0
  9 26  1  1  0  0  0
  9 15  1  0  0  0  0
 11 13  1  0  0  0  0
 12  8  1  6  0  0  0
 12  2  1  0  0  0  0
 13 12  1  0  0  0  0
 13 22  2  0  0  0  0
 14 27  1  0  0  0  0
 14 23  2  0  0  0  0
 16 19  1  0  0  0  0
 17 10  1  6  0  0  0
 17  8  1  0  0  0  0
 17  7  1  0  0  0  0
 18 15  1  0  0  0  0
 19  7  1  0  0  0  0
 20 29  1  6  0  0  0
 20 10  1  0  0  0  0
 20  1  1  0  0  0  0
 21 22  1  0  0  0  0
 22 14  1  0  0  0  0
 23 28  1  0  0  0  0
 27  5  1  0  0  0  0
 28  6  1  0  0  0  0
 28  9  1  0  0  0  0
 30 29  1  0  0  0  0
 30 31  1  0  0  0  0
 32 30  2  0  0  0  0
M  END
>  <MODEL>
7

>  <REMARK>
 VINA RESULT:      -4.1      4.455      6.764
  Name = 
  2 active torsions:
  status: ('A' for Active; 'I' for Inactive)
    1  A    between atoms: C_20  and  C_29
    2  A    between atoms: C_29  and  C_30
                            x       y       z     vdW  Elec       q    Type
                         _______ _______ _______ _____ _____    ______ ____

>  <TORSDO>
F 2

$$$$
=
 OpenBabel11122413043D

 32 37  0  0  1  0  0  0  0  0999 V2000
  160.8460  206.1070  147.4580 C   0  0  0  0  0  2  0  0  0  0  0  0
  161.1330  209.0420  150.8280 C   0  0  2  0  0  3  0  0  0  0  0  0
  161.1860  205.3670  154.1130 C   0  0  0  0  0  3  0  0  0  0  0  0
  160.6150  206.2030  155.0730 C   0  0  0  0  0  3  0  0  0  0  0  0
  160.4510  211.3680  151.6060 C   0  0  0  0  0  0  0  0  0  0  0  0
  160.4570  212.3900  152.7030 C   0  0  1  0  0  3  0  0  0  0  0  0
  162.3300  208.6360  148.6360 C   0  0  1  0  0  3  0  0  0  0  0  0
  162.0030  206.8620  150.3070 O   0  0  0  0  0  0  0  0  0  0  0  0
  159.1490  212.5720  154.6850 C   0  0  2  0  0  3  0  0  0  0  0  0
  163.2560  206.2140  148.3490 C   0  0  0  0  0  2  0  0  0  0  0  0
  161.5940  205.8930  152.8850 C   0  0  0  0  0  3  0  0  0  0  0  0
  161.9550  207.8360  151.3220 C   0  0  2  0  0  3  0  0  0  0  0  0
  161.4160  207.2550  152.5980 C   0  0  0  0  0  0  0  0  0  0  0  0
  160.6890  209.5400  153.2690 C   0  0  0  0  0  0  0  0  0  0  0  0
  158.8310  213.7300  153.8510 N   0  0  0  0  0  2  0  0  0  0  0  0
  160.4220  207.4650  148.0260 C   0  0  0  0  0  2  0  0  0  0  0  0
  162.8820  207.3450  149.3160 C   0  0  1  0  0  3  0  0  0  0  0  0
  159.4000  213.4620  152.5300 C   0  0  0  0  0  2  0  0  0  0  0  0
  161.3250  208.4750  147.6440 O   0  0  0  0  0  0  0  0  0  0  0  0
  162.3440  206.0480  147.1280 C   0  0  1  0  0  3  0  0  0  0  0  0
  160.4560  207.5650  154.8070 C   0  0  0  0  0  3  0  0  0  0  0  0
  160.8610  208.1030  153.5730 C   0  0  0  0  0  0  0  0  0  0  0  0
  160.3100  210.3860  154.2360 C   0  0  0  0  0  3  0  0  0  0  0  0
  161.9300  209.6790  149.6820 C   0  0  0  0  0  2  0  0  0  0  0  0
  160.1440  211.7080  150.4300 O   0  0  0  0  0  0  0  0  0  0  0  0
  159.7360  213.0400  156.0040 C   0  0  0  0  0  1  0  0  0  0  0  0
  160.8530  210.0120  151.9090 N   0  0  0  0  0  0  0  0  0  0  0  0
  160.1180  211.7780  153.9650 N   0  0  0  0  0  0  0  0  0  0  0  0
  162.6820  204.7440  146.4230 C   0  0  0  0  0  2  0  0  0  0  0  0
  161.7370  204.4760  145.2960 C   0  0  0  0  0  0  0  0  0  0  0  0
  160.9640  203.2040  145.2640 C   0  0  0  0  0  1  0  0  0  0  0  0
  161.6100  205.2870  144.3930 O   0  0  0  0  0  0  0  0  0  0  0  0
  1 16  1  0  0  0  0
  2 24  1  6  0  0  0
  2 12  1  0  0  0  0
  2 27  1  0  0  0  0
  3  4  1  0  0  0  0
  5 27  1  0  0  0  0
  5  6  1  0  0  0  0
  6 18  1  6  0  0  0
  6 28  1  0  0  0  0
  7 17  1  0  0  0  0
  7 24  1  1  0  0  0
  9 26  1  1  0  0  0
 11  3  2  0  0  0  0
 12  8  1  6  0  0  0
 12 13  1  0  0  0  0
 13 11  1  0  0  0  0
 13 22  2  0  0  0  0
 14 22  1  0  0  0  0
 14 23  2  0  0  0  0
 15  9  1  0  0  0  0
 17 10  1  6  0  0  0
 17  8  1  0  0  0  0
 18 15  1  0  0  0  0
 19 16  1  0  0  0  0
 19  7  1  0  0  0  0
 20 29  1  1  0  0  0
 20  1  1  0  0  0  0
 20 10  1  0  0  0  0
 21  4  2  0  0  0  0
 22 21  1  0  0  0  0
 25  5  2  0  0  0  0
 27 14  1  0  0  0  0
 28 23  1  0  0  0  0
 28  9  1  0  0  0  0
 30 29  1  0  0  0  0
 31 30  1  0  0  0  0
 32 30  2  0  0  0  0
M  END
>  <MODEL>
8

>  <REMARK>
 VINA RESULT:      -3.7      3.535      5.056
  Name = 
  2 active torsions:
  status: ('A' for Active; 'I' for Inactive)
    1  A    between atoms: C_20  and  C_29
    2  A    between atoms: C_29  and  C_30
                            x       y       z     vdW  Elec       q    Type
                         _______ _______ _______ _____ _____    ______ ____

>  <TORSDO>
F 2

$$$$
=
 OpenBabel11122413043D

 32 37  0  0  1  0  0  0  0  0999 V2000
  160.1590  205.2640  149.8550 C   0  0  0  0  0  2  0  0  0  0  0  0
  160.6040  209.0070  152.2720 C   0  0  2  0  0  3  0  0  0  0  0  0
  160.5990  206.3880  156.4490 C   0  0  0  0  0  3  0  0  0  0  0  0
  160.0730  207.4780  157.1440 C   0  0  0  0  0  3  0  0  0  0  0  0
  160.0120  211.4800  152.3790 C   0  0  0  0  0  0  0  0  0  0  0  0
  160.0720  212.7660  153.1490 C   0  0  1  0  0  3  0  0  0  0  0  0
  161.7460  207.9650  150.2690 C   0  0  1  0  0  3  0  0  0  0  0  0
  161.3930  206.7370  152.3700 O   0  0  0  0  0  0  0  0  0  0  0  0
  158.8070  213.5380  155.0130 C   0  0  2  0  0  3  0  0  0  0  0  0
  162.5870  205.5260  150.6590 C   0  0  0  0  0  2  0  0  0  0  0  0
  161.0000  206.5380  155.1200 C   0  0  0  0  0  3  0  0  0  0  0  0
  161.3950  207.9560  153.0750 C   0  0  2  0  0  3  0  0  0  0  0  0
  160.8610  207.7720  154.4670 C   0  0  0  0  0  0  0  0  0  0  0  0
  160.2210  210.1780  154.4820 C   0  0  0  0  0  0  0  0  0  0  0  0
  158.5110  214.4300  153.8930 N   0  0  0  0  0  2  0  0  0  0  0  0
  159.7900  206.7400  150.0260 C   0  0  0  0  0  2  0  0  0  0  0  0
  162.2680  206.8940  151.2760 C   0  0  1  0  0  3  0  0  0  0  0  0
  159.0470  213.7850  152.6930 C   0  0  0  0  0  2  0  0  0  0  0  0
  160.7180  207.5710  149.3700 O   0  0  0  0  0  0  0  0  0  0  0  0
  161.6480  205.0600  149.5400 C   0  0  1  0  0  3  0  0  0  0  0  0
  159.9540  208.7170  156.5110 C   0  0  0  0  0  3  0  0  0  0  0  0
  160.3520  208.8770  155.1720 C   0  0  0  0  0  0  0  0  0  0  0  0
  159.8880  211.2730  155.1800 C   0  0  0  0  0  3  0  0  0  0  0  0
  161.4000  209.2710  150.9880 C   0  0  0  0  0  2  0  0  0  0  0  0
  159.6940  211.4910  151.1580 O   0  0  0  0  0  0  0  0  0  0  0  0
  159.4330  214.3320  156.1450 C   0  0  0  0  0  1  0  0  0  0  0  0
  160.3750  210.2480  153.0430 N   0  0  0  0  0  0  0  0  0  0  0  0
  159.7370  212.5410  154.5330 N   0  0  0  0  0  0  0  0  0  0  0  0
  161.9310  203.6010  149.2230 C   0  0  0  0  0  2  0  0  0  0  0  0
  161.5820  203.2780  147.8050 C   0  0  0  0  0  0  0  0  0  0  0  0
  161.7150  204.3230  146.7530 C   0  0  0  0  0  1  0  0  0  0  0  0
  161.1720  202.1670  147.5100 O   0  0  0  0  0  0  0  0  0  0  0  0
  1 16  1  0  0  0  0
  2 24  1  6  0  0  0
  2 27  1  0  0  0  0
  2 12  1  0  0  0  0
  3  4  1  0  0  0  0
  5 27  1  0  0  0  0
  5  6  1  0  0  0  0
  6 18  1  6  0  0  0
  6 28  1  0  0  0  0
  7 24  1  1  0  0  0
  7 17  1  0  0  0  0
  9 26  1  1  0  0  0
 11  3  2  0  0  0  0
 12  8  1  6  0  0  0
 12 13  1  0  0  0  0
 13 11  1  0  0  0  0
 13 22  2  0  0  0  0
 14 22  1  0  0  0  0
 14 23  2  0  0  0  0
 15  9  1  0  0  0  0
 17 10  1  6  0  0  0
 17  8  1  0  0  0  0
 18 15  1  0  0  0  0
 19 16  1  0  0  0  0
 19  7  1  0  0  0  0
 20 29  1  1  0  0  0
 20  1  1  0  0  0  0
 20 10  1  0  0  0  0
 21  4  2  0  0  0  0
 22 21  1  0  0  0  0
 25  5  2  0  0  0  0
 27 14  1  0  0  0  0
 28  9  1  0  0  0  0
 28 23  1  0  0  0  0
 30 29  1  0  0  0  0
 31 30  1  0  0  0  0
 32 30  2  0  0  0  0
M  END
>  <MODEL>
9

>  <REMARK>
 VINA RESULT:      -3.6      4.222      6.114
  Name = 
  2 active torsions:
  status: ('A' for Active; 'I' for Inactive)
    1  A    between atoms: C_20  and  C_29
    2  A    between atoms: C_29  and  C_30
                            x       y       z     vdW  Elec       q    Type
                         _______ _______ _______ _____ _____    ______ ____

>  <TORSDO>
F 2

$$$$
