=
 OpenBabel11122413063D

 31 35  0  0  1  0  0  0  0  0999 V2000
  160.6230  207.5470  155.0680 C   0  0  0  0  0  0  0  0  0  0  0  0
  161.6770  208.0270  151.4850 N   0  0  0  0  0  0  0  0  0  0  0  0
  161.3580  206.8240  150.7440 C   0  0  0  0  0  0  0  0  0  0  0  0
  159.8380  212.9450  150.9960 N   0  0  0  0  0  2  0  0  0  0  0  0
  160.7060  212.7160  150.0660 C   0  0  0  0  0  0  0  0  0  0  0  0
  160.7930  204.4560  150.6570 C   0  0  0  0  0  0  0  0  0  0  0  0
  161.1760  208.2660  152.8170 C   0  0  0  0  0  0  0  0  0  0  0  0
  160.1460  208.8280  155.3630 C   0  0  0  0  0  3  0  0  0  0  0  0
  161.1010  205.6040  151.3920 C   0  0  0  0  0  3  0  0  0  0  0  0
  161.4080  210.4330  151.0060 C   0  0  0  0  0  0  0  0  0  0  0  0
  160.5830  206.5760  156.0110 F   0  0  0  0  0  0  0  0  0  0  0  0
  161.5270  208.1590  148.6250 C   0  0  0  0  0  2  0  0  0  0  0  0
  160.5260  203.1760  151.3600 C   0  0  0  0  0  1  0  0  0  0  0  0
  160.7570  210.5830  152.1250 N   0  0  0  0  0  0  0  0  0  0  0  0
  162.2630  209.2010  150.8010 C   0  0  2  0  0  3  0  0  0  0  0  0
  161.4470  211.4880  150.0360 N   0  0  0  0  0  2  0  0  0  0  0  0
  161.1350  207.2660  153.7980 C   0  0  0  0  0  3  0  0  0  0  0  0
  160.7360  204.5150  149.2630 C   0  0  0  0  0  3  0  0  0  0  0  0
  160.7120  209.5580  153.1260 C   0  0  0  0  0  0  0  0  0  0  0  0
  160.1900  209.8330  154.3930 C   0  0  0  0  0  3  0  0  0  0  0  0
  162.6230  208.9410  149.3310 C   0  0  0  0  0  2  0  0  0  0  0  0
  161.3070  206.8660  149.3370 C   0  0  0  0  0  0  0  0  0  0  0  0
  160.9880  205.7200  148.6040 C   0  0  0  0  0  3  0  0  0  0  0  0
  159.0600  213.0290  146.6720 C   0  0  1  0  0  3  0  0  0  0  0  0
  159.5210  214.4490  148.6910 C   0  0  0  0  0  2  0  0  0  0  0  0
  162.5870  212.3280  147.8660 N   0  0  0  0  0  1  0  0  0  0  0  0
  158.1120  212.2160  146.0540 O   0  0  0  0  0  1  0  0  0  0  0  0
  158.4940  213.5630  147.9850 C   0  0  0  0  0  2  0  0  0  0  0  0
  161.3730  213.0920  147.6300 C   0  0  2  0  0  3  0  0  0  0  0  0
  160.8350  213.6990  148.9370 C   0  0  2  0  0  3  0  0  0  0  0  0
  160.3280  212.2210  146.9320 C   0  0  0  0  0  2  0  0  0  0  0  0
  1  8  1  0  0  0  0
  1 11  1  0  0  0  0
  2  7  1  0  0  0  0
  3  9  1  0  0  0  0
  3  2  1  0  0  0  0
  5  4  2  0  0  0  0
  6 13  1  0  0  0  0
  6  9  2  0  0  0  0
  7 19  2  0  0  0  0
  7 17  1  0  0  0  0
 10 14  2  0  0  0  0
 12 21  1  0  0  0  0
 12 22  1  0  0  0  0
 14 19  1  0  0  0  0
 15 21  1  6  0  0  0
 15 10  1  0  0  0  0
 15  2  1  0  0  0  0
 16  5  1  0  0  0  0
 16 10  1  0  0  0  0
 17  1  2  0  0  0  0
 18  6  1  0  0  0  0
 19 20  1  0  0  0  0
 20  8  2  0  0  0  0
 22  3  2  0  0  0  0
 23 18  2  0  0  0  0
 23 22  1  0  0  0  0
 24 27  1  1  0  0  0
 24 31  1  0  0  0  0
 24 28  1  0  0  0  0
 25 30  1  0  0  0  0
 28 25  1  0  0  0  0
 29 26  1  1  0  0  0
 29 30  1  0  0  0  0
 30  5  1  1  0  0  0
 31 29  1  0  0  0  0
M  END
>  <MODEL>
1

>  <REMARK>
 VINA RESULT:      -9.5      0.000      0.000
  Name = 
  1 active torsions:
  status: ('A' for Active; 'I' for Inactive)
    1  A    between atoms: C_5  and  C_30
                            x       y       z     vdW  Elec       q    Type
                         _______ _______ _______ _____ _____    ______ ____

>  <TORSDO>
F 1

$$$$
=
 OpenBabel11122413063D

 31 35  0  0  1  0  0  0  0  0999 V2000
  160.5030  207.6110  155.9500 C   0  0  0  0  0  0  0  0  0  0  0  0
  161.5150  208.3030  152.3890 N   0  0  0  0  0  0  0  0  0  0  0  0
  161.3770  207.0800  151.6230 C   0  0  0  0  0  0  0  0  0  0  0  0
  159.0030  212.9190  151.9610 N   0  0  0  0  0  2  0  0  0  0  0  0
  159.9040  212.8330  151.0380 C   0  0  0  0  0  0  0  0  0  0  0  0
  161.1550  204.6590  151.4890 C   0  0  0  0  0  0  0  0  0  0  0  0
  160.9710  208.4440  153.7180 C   0  0  0  0  0  0  0  0  0  0  0  0
  159.8470  208.8070  156.2600 C   0  0  0  0  0  3  0  0  0  0  0  0
  161.2890  205.8250  152.2470 C   0  0  0  0  0  3  0  0  0  0  0  0
  160.9130  210.6550  151.9480 C   0  0  0  0  0  0  0  0  0  0  0  0
  160.5920  206.6270  156.8760 F   0  0  0  0  0  0  0  0  0  0  0  0
  161.3770  208.4650  149.5300 C   0  0  0  0  0  2  0  0  0  0  0  0
  161.0640  203.3410  152.1660 C   0  0  0  0  0  1  0  0  0  0  0  0
  160.2360  210.6910  153.0610 N   0  0  0  0  0  0  0  0  0  0  0  0
  161.9360  209.5600  151.7320 C   0  0  2  0  0  3  0  0  0  0  0  0
  160.8120  211.7220  150.9960 N   0  0  0  0  0  2  0  0  0  0  0  0
  161.0630  207.4300  154.6820 C   0  0  0  0  0  3  0  0  0  0  0  0
  161.1040  204.7350  150.0960 C   0  0  0  0  0  3  0  0  0  0  0  0
  160.3260  209.6510  154.0440 C   0  0  0  0  0  0  0  0  0  0  0  0
  159.7580  209.8250  155.3080 C   0  0  0  0  0  3  0  0  0  0  0  0
  162.3440  209.3820  150.2630 C   0  0  0  0  0  2  0  0  0  0  0  0
  161.3350  207.1420  150.2180 C   0  0  0  0  0  0  0  0  0  0  0  0
  161.1890  205.9760  149.4610 C   0  0  0  0  0  3  0  0  0  0  0  0
  158.2390  212.9880  147.6430 C   0  0  1  0  0  3  0  0  0  0  0  0
  158.5020  214.4180  149.6890 C   0  0  0  0  0  2  0  0  0  0  0  0
  161.8240  212.7400  148.8410 N   0  0  0  0  0  1  0  0  0  0  0  0
  157.4080  212.0680  147.0060 O   0  0  0  0  0  1  0  0  0  0  0  0
  157.6030  213.4170  148.9620 C   0  0  0  0  0  2  0  0  0  0  0  0
  160.5200  213.3390  148.6120 C   0  0  2  0  0  3  0  0  0  0  0  0
  159.9040  213.8450  149.9280 C   0  0  2  0  0  3  0  0  0  0  0  0
  159.6020  212.3510  147.8940 C   0  0  0  0  0  2  0  0  0  0  0  0
  1  8  1  0  0  0  0
  1 11  1  0  0  0  0
  2  7  1  0  0  0  0
  3  9  1  0  0  0  0
  3  2  1  0  0  0  0
  5  4  2  0  0  0  0
  6 13  1  0  0  0  0
  6  9  2  0  0  0  0
  7 19  2  0  0  0  0
  7 17  1  0  0  0  0
 10 14  2  0  0  0  0
 12 22  1  0  0  0  0
 12 21  1  0  0  0  0
 14 19  1  0  0  0  0
 15 21  1  6  0  0  0
 15 10  1  0  0  0  0
 15  2  1  0  0  0  0
 16  5  1  0  0  0  0
 16 10  1  0  0  0  0
 17  1  2  0  0  0  0
 18  6  1  0  0  0  0
 19 20  1  0  0  0  0
 20  8  2  0  0  0  0
 22  3  2  0  0  0  0
 23 18  2  0  0  0  0
 23 22  1  0  0  0  0
 24 27  1  1  0  0  0
 24 31  1  0  0  0  0
 24 28  1  0  0  0  0
 25 30  1  0  0  0  0
 28 25  1  0  0  0  0
 29 26  1  1  0  0  0
 29 30  1  0  0  0  0
 30  5  1  1  0  0  0
 31 29  1  0  0  0  0
M  END
>  <MODEL>
2

>  <REMARK>
 VINA RESULT:      -8.9      1.007      1.091
  Name = 
  1 active torsions:
  status: ('A' for Active; 'I' for Inactive)
    1  A    between atoms: C_5  and  C_30
                            x       y       z     vdW  Elec       q    Type
                         _______ _______ _______ _____ _____    ______ ____

>  <TORSDO>
F 1

$$$$
=
 OpenBabel11122413063D

 31 35  0  0  1  0  0  0  0  0999 V2000
  161.1420  205.8220  153.7190 C   0  0  0  0  0  0  0  0  0  0  0  0
  161.7980  207.7650  150.5610 N   0  0  0  0  0  0  0  0  0  0  0  0
  161.5370  206.9040  149.4250 C   0  0  0  0  0  0  0  0  0  0  0  0
  159.4200  212.2090  152.1130 N   0  0  0  0  0  2  0  0  0  0  0  0
  160.2160  212.4680  151.1270 C   0  0  0  0  0  0  0  0  0  0  0  0
  161.2160  204.6960  148.4500 C   0  0  0  0  0  0  0  0  0  0  0  0
  161.4030  207.4110  151.9030 C   0  0  0  0  0  0  0  0  0  0  0  0
  160.5650  206.8190  154.5120 C   0  0  0  0  0  3  0  0  0  0  0  0
  161.4700  205.5070  149.5590 C   0  0  0  0  0  3  0  0  0  0  0  0
  161.2370  210.1130  151.0700 C   0  0  0  0  0  0  0  0  0  0  0  0
  161.2920  204.5690  154.2110 F   0  0  0  0  0  0  0  0  0  0  0  0
  161.3660  208.9550  147.9890 C   0  0  0  0  0  2  0  0  0  0  0  0
  161.1510  203.2210  148.6100 C   0  0  0  0  0  1  0  0  0  0  0  0
  160.6830  209.7390  152.1890 N   0  0  0  0  0  0  0  0  0  0  0  0
  162.1920  209.1770  150.3610 C   0  0  2  0  0  3  0  0  0  0  0  0
  161.0750  211.4530  150.5860 N   0  0  0  0  0  2  0  0  0  0  0  0
  161.5590  206.1160  152.4180 C   0  0  0  0  0  3  0  0  0  0  0  0
  161.0220  205.2720  147.1930 C   0  0  0  0  0  3  0  0  0  0  0  0
  160.8390  208.4130  152.7120 C   0  0  0  0  0  0  0  0  0  0  0  0
  160.4130  208.1140  154.0090 C   0  0  0  0  0  3  0  0  0  0  0  0
  162.4370  209.5470  148.8910 C   0  0  0  0  0  2  0  0  0  0  0  0
  161.3500  207.4710  148.1510 C   0  0  0  0  0  0  0  0  0  0  0  0
  161.0840  206.6590  147.0450 C   0  0  0  0  0  3  0  0  0  0  0  0
  158.1380  213.8640  148.2890 C   0  0  1  0  0  3  0  0  0  0  0  0
  158.7530  214.4510  150.6520 C   0  0  0  0  0  2  0  0  0  0  0  0
  161.8260  213.1590  148.7910 N   0  0  0  0  0  1  0  0  0  0  0  0
  157.1760  213.2480  147.4910 O   0  0  0  0  0  1  0  0  0  0  0  0
  157.7070  213.7920  149.7510 C   0  0  0  0  0  2  0  0  0  0  0  0
  160.5430  213.8140  148.9820 C   0  0  2  0  0  3  0  0  0  0  0  0
  160.1350  213.8150  150.4660 C   0  0  2  0  0  3  0  0  0  0  0  0
  159.4800  213.1650  148.0970 C   0  0  0  0  0  2  0  0  0  0  0  0
  1 11  1  0  0  0  0
  1  8  1  0  0  0  0
  2  7  1  0  0  0  0
  3  9  1  0  0  0  0
  3  2  1  0  0  0  0
  5  4  2  0  0  0  0
  6 13  1  0  0  0  0
  6  9  2  0  0  0  0
  7 17  1  0  0  0  0
  7 19  2  0  0  0  0
 10 14  2  0  0  0  0
 12 22  1  0  0  0  0
 12 21  1  0  0  0  0
 14 19  1  0  0  0  0
 15 21  1  6  0  0  0
 15  2  1  0  0  0  0
 15 10  1  0  0  0  0
 16 10  1  0  0  0  0
 16  5  1  0  0  0  0
 17  1  2  0  0  0  0
 18  6  1  0  0  0  0
 19 20  1  0  0  0  0
 20  8  2  0  0  0  0
 22  3  2  0  0  0  0
 23 18  2  0  0  0  0
 23 22  1  0  0  0  0
 24 27  1  6  0  0  0
 24 28  1  0  0  0  0
 28 25  1  0  0  0  0
 29 26  1  1  0  0  0
 29 30  1  0  0  0  0
 30 25  1  0  0  0  0
 30  5  1  6  0  0  0
 31 24  1  0  0  0  0
 31 29  1  0  0  0  0
M  END
>  <MODEL>
3

>  <REMARK>
 VINA RESULT:      -7.4      1.348      1.710
  Name = 
  1 active torsions:
  status: ('A' for Active; 'I' for Inactive)
    1  A    between atoms: C_5  and  C_30
                            x       y       z     vdW  Elec       q    Type
                         _______ _______ _______ _____ _____    ______ ____

>  <TORSDO>
F 1

$$$$
=
 OpenBabel11122413063D

 31 35  0  0  1  0  0  0  0  0999 V2000
  161.1800  202.1430  150.8320 C   0  0  0  0  0  0  0  0  0  0  0  0
  161.9680  205.5860  149.5270 N   0  0  0  0  0  0  0  0  0  0  0  0
  161.5340  205.6680  148.1460 C   0  0  0  0  0  0  0  0  0  0  0  0
  160.3320  208.2120  153.7970 N   0  0  0  0  0  2  0  0  0  0  0  0
  161.1110  208.9700  153.0980 C   0  0  0  0  0  0  0  0  0  0  0  0
  160.8530  204.6190  146.0570 C   0  0  0  0  0  0  0  0  0  0  0  0
  161.5860  204.4950  150.3900 C   0  0  0  0  0  0  0  0  0  0  0  0
  160.7900  202.4540  152.1390 C   0  0  0  0  0  3  0  0  0  0  0  0
  161.2720  204.5160  147.3860 C   0  0  0  0  0  3  0  0  0  0  0  0
  161.7760  207.1130  151.4560 C   0  0  0  0  0  0  0  0  0  0  0  0
  161.1690  200.8560  150.4100 F   0  0  0  0  0  0  0  0  0  0  0  0
  161.5980  208.1690  148.3400 C   0  0  0  0  0  2  0  0  0  0  0  0
  160.5810  203.3900  145.2680 C   0  0  0  0  0  1  0  0  0  0  0  0
  161.2250  206.1610  152.1540 N   0  0  0  0  0  0  0  0  0  0  0  0
  162.5530  206.7640  150.2040 C   0  0  2  0  0  3  0  0  0  0  0  0
  161.7890  208.4630  151.9390 N   0  0  0  0  0  2  0  0  0  0  0  0
  161.5750  203.1610  149.9590 C   0  0  0  0  0  3  0  0  0  0  0  0
  160.6880  205.8760  145.4720 C   0  0  0  0  0  3  0  0  0  0  0  0
  161.2100  204.7980  151.7110 C   0  0  0  0  0  0  0  0  0  0  0  0
  160.8040  203.7800  152.5780 C   0  0  0  0  0  3  0  0  0  0  0  0
  162.7820  207.9610  149.2700 C   0  0  0  0  0  2  0  0  0  0  0  0
  161.3740  206.9290  147.5410 C   0  0  0  0  0  0  0  0  0  0  0  0
  160.9430  207.0300  146.2160 C   0  0  0  0  0  3  0  0  0  0  0  0
  160.0290  211.0220  156.0880 C   0  0  1  0  0  3  0  0  0  0  0  0
  162.0730  210.6700  154.6730 C   0  0  0  0  0  2  0  0  0  0  0  0
  158.9720  210.8510  152.4540 N   0  0  0  0  0  1  0  0  0  0  0  0
  159.3850  210.6330  157.2610 O   0  0  0  0  0  1  0  0  0  0  0  0
  161.3510  210.2700  155.9610 C   0  0  0  0  0  2  0  0  0  0  0  0
  159.8310  211.1230  153.5940 C   0  0  2  0  0  3  0  0  0  0  0  0
  161.1970  210.4300  153.4390 C   0  0  2  0  0  3  0  0  0  0  0  0
  159.1310  210.7220  154.8930 C   0  0  0  0  0  2  0  0  0  0  0  0
  1  8  1  0  0  0  0
  2 15  1  0  0  0  0
  2  7  1  0  0  0  0
  3  2  1  0  0  0  0
  5  4  2  0  0  0  0
  6  9  1  0  0  0  0
  7 19  2  0  0  0  0
  8 20  2  0  0  0  0
  9  3  2  0  0  0  0
 10 16  1  0  0  0  0
 10 14  2  0  0  0  0
 11  1  1  0  0  0  0
 12 21  1  0  0  0  0
 13  6  1  0  0  0  0
 15 21  1  6  0  0  0
 15 10  1  0  0  0  0
 16  5  1  0  0  0  0
 17  7  1  0  0  0  0
 17  1  2  0  0  0  0
 18  6  2  0  0  0  0
 18 23  1  0  0  0  0
 19 14  1  0  0  0  0
 19 20  1  0  0  0  0
 22  3  1  0  0  0  0
 22 12  1  0  0  0  0
 23 22  2  0  0  0  0
 24 27  1  1  0  0  0
 25 28  1  0  0  0  0
 28 24  1  0  0  0  0
 29 26  1  6  0  0  0
 29 31  1  0  0  0  0
 30  5  1  1  0  0  0
 30 29  1  0  0  0  0
 30 25  1  0  0  0  0
 31 24  1  0  0  0  0
M  END
>  <MODEL>
4

>  <REMARK>
 VINA RESULT:      -6.5      3.946      5.807
  Name = 
  1 active torsions:
  status: ('A' for Active; 'I' for Inactive)
    1  A    between atoms: C_5  and  C_30
                            x       y       z     vdW  Elec       q    Type
                         _______ _______ _______ _____ _____    ______ ____

>  <TORSDO>
F 1

$$$$
