=
 OpenBabel11122413483D

 37 43  0  0  1  0  0  0  0  0999 V2000
  161.8570  207.1740  148.6530 C   0  0  1  0  0  0  0  0  0  0  0  0
  161.0680  207.1520  152.7390 C   0  0  0  0  0  0  0  0  0  0  0  0
  158.9530  209.9180  154.1230 C   0  0  1  0  0  3  0  0  0  0  0  0
  161.9140  205.9050  150.8600 C   0  0  0  0  0  0  0  0  0  0  0  0
  160.7270  208.4670  152.9660 C   0  0  0  0  0  0  0  0  0  0  0  0
  161.4930  207.0800  151.4480 C   0  0  0  0  0  0  0  0  0  0  0  0
  160.1050  208.9990  154.1530 N   0  0  0  0  0  0  0  0  0  0  0  0
  161.9240  204.7440  151.6590 C   0  0  0  0  0  3  0  0  0  0  0  0
  161.4310  208.2640  150.8350 N   0  0  0  0  0  0  0  0  0  0  0  0
  160.4230  206.8850  148.2410 C   0  0  0  0  0  1  0  0  0  0  0  0
  160.6480  206.1520  154.9990 C   0  0  0  0  0  2  0  0  0  0  0  0
  161.4920  204.8100  153.0110 C   0  0  0  0  0  3  0  0  0  0  0  0
  161.8940  208.4910  149.4690 C   0  0  0  0  0  2  0  0  0  0  0  0
  159.1950  211.1780  153.2910 C   0  0  2  0  0  0  0  0  0  0  0  0
  158.3030  210.0730  152.7480 C   0  0  0  0  0  2  0  0  0  0  0  0
  161.0580  206.0340  153.5670 C   0  0  0  0  0  0  0  0  0  0  0  0
  160.9800  209.1350  151.7670 C   0  0  0  0  0  0  0  0  0  0  0  0
  162.4150  205.9590  149.4410 C   0  0  0  0  0  2  0  0  0  0  0  0
  160.5800  208.6570  155.5060 C   0  0  1  0  0  3  0  0  0  0  0  0
  162.6190  207.3440  147.4990 O   0  0  0  0  0  1  0  0  0  0  0  0
  160.5650  211.3970  152.6310 C   0  0  0  0  0  2  0  0  0  0  0  0
  160.8120  210.5010  151.5500 O   0  0  0  0  0  0  0  0  0  0  0  0
  161.3630  207.3390  155.6370 C   0  0  0  0  0  2  0  0  0  0  0  0
  162.7100  209.6180  156.3950 C   0  0  0  0  0  3  0  0  0  0  0  0
  161.3580  209.7970  156.0860 C   0  0  0  0  0  0  0  0  0  0  0  0
  160.7340  211.0200  156.3730 C   0  0  0  0  0  3  0  0  0  0  0  0
  160.8010  213.3520  157.2610 C   0  0  0  0  0  1  0  0  0  0  0  0
  162.8170  211.8770  157.2610 C   0  0  0  0  0  3  0  0  0  0  0  0
  161.4640  212.0590  156.9570 C   0  0  0  0  0  0  0  0  0  0  0  0
  163.4400  210.6570  156.9800 C   0  0  0  0  0  3  0  0  0  0  0  0
  156.9730  214.4530  155.1950 O   0  0  0  0  0  0  0  0  0  0  0  0
  156.6890  213.2440  155.4030 C   0  0  0  0  0  0  0  0  0  0  0  0
  158.4970  212.3750  153.8390 C   0  0  0  0  0  0  0  0  0  0  0  0
  157.4210  212.1930  154.7670 N   0  0  0  0  0  2  0  0  0  0  0  0
  158.8840  213.5310  153.5120 O   0  0  0  0  0  0  0  0  0  0  0  0
  155.9480  211.7680  157.0830 O   0  0  0  0  0  1  0  0  0  0  0  0
  155.5940  212.9000  156.3500 C   0  0  0  0  0  2  0  0  0  0  0  0
  1 10  1  6  0  0  0
  1 18  1  0  0  0  0
  1 13  1  0  0  0  0
  2  5  1  0  0  0  0
  2 16  1  0  0  0  0
  3 15  1  6  0  0  0
  3  7  1  0  0  0  0
  4  6  1  0  0  0  0
  4  8  2  0  0  0  0
  5  7  1  0  0  0  0
  6  2  2  0  0  0  0
  7 19  1  0  0  0  0
  8 12  1  0  0  0  0
  9  6  1  0  0  0  0
  9 17  1  0  0  0  0
 11 23  1  0  0  0  0
 12 16  2  0  0  0  0
 13  9  1  0  0  0  0
 14 33  1  1  0  0  0
 14  3  1  0  0  0  0
 15 14  1  0  0  0  0
 16 11  1  0  0  0  0
 17  5  2  0  0  0  0
 18  4  1  0  0  0  0
 19 23  1  0  0  0  0
 19 25  1  6  0  0  0
 20  1  1  0  0  0  0
 21 14  1  0  0  0  0
 22 17  1  0  0  0  0
 22 21  1  0  0  0  0
 24 30  1  0  0  0  0
 25 26  1  0  0  0  0
 25 24  2  0  0  0  0
 26 29  2  0  0  0  0
 29 28  1  0  0  0  0
 29 27  1  0  0  0  0
 30 28  2  0  0  0  0
 31 32  2  0  0  0  0
 32 37  1  0  0  0  0
 33 34  1  0  0  0  0
 34 32  1  0  0  0  0
 35 33  2  0  0  0  0
 37 36  1  0  0  0  0
M  END
>  <MODEL>
1

>  <REMARK>
 VINA RESULT:      -3.1      0.000      0.000
  Name = 
  3 active torsions:
  status: ('A' for Active; 'I' for Inactive)
    1  A    between atoms: C_4  and  C_37
    2  A    between atoms: C_8  and  C_18
    3  A    between atoms: C_23  and  C_30
                            x       y       z     vdW  Elec       q    Type
                         _______ _______ _______ _____ _____    ______ ____

>  <TORSDO>
F 3

$$$$
=
 OpenBabel11122413483D

 37 43  0  0  1  0  0  0  0  0999 V2000
  160.9930  204.2440  151.1040 C   0  0  1  0  0  0  0  0  0  0  0  0
  161.6540  208.2200  150.0720 C   0  0  0  0  0  0  0  0  0  0  0  0
  162.1510  210.6850  152.8510 C   0  0  1  0  0  3  0  0  0  0  0  0
  161.5360  205.9450  149.2900 C   0  0  0  0  0  0  0  0  0  0  0  0
  161.3130  208.8720  151.2360 C   0  0  0  0  0  0  0  0  0  0  0  0
  161.3300  206.9110  150.2530 C   0  0  0  0  0  0  0  0  0  0  0  0
  161.5890  210.2510  151.5590 N   0  0  0  0  0  0  0  0  0  0  0  0
  162.0830  206.3600  148.0590 C   0  0  0  0  0  3  0  0  0  0  0  0
  160.8160  206.6870  151.4650 N   0  0  0  0  0  0  0  0  0  0  0  0
  162.3900  204.0170  151.6540 C   0  0  0  0  0  1  0  0  0  0  0  0
  162.4850  210.1310  148.6790 C   0  0  0  0  0  2  0  0  0  0  0  0
  162.4150  207.7270  147.8550 C   0  0  0  0  0  3  0  0  0  0  0  0
  160.3140  205.3860  151.9010 C   0  0  0  0  0  2  0  0  0  0  0  0
  161.3360  210.2240  154.0610 C   0  0  2  0  0  0  0  0  0  0  0  0
  162.6570  209.5450  153.7350 C   0  0  0  0  0  2  0  0  0  0  0  0
  162.1970  208.6790  148.8760 C   0  0  0  0  0  0  0  0  0  0  0  0
  160.7800  207.8940  152.0760 C   0  0  0  0  0  0  0  0  0  0  0  0
  161.0850  204.5390  149.5830 C   0  0  0  0  0  2  0  0  0  0  0  0
  161.3250  211.3450  150.6080 C   0  0  1  0  0  3  0  0  0  0  0  0
  160.2540  203.0750  151.2860 O   0  0  0  0  0  1  0  0  0  0  0  0
  160.0380  209.4330  153.8420 C   0  0  0  0  0  2  0  0  0  0  0  0
  160.2670  208.1130  153.3520 O   0  0  0  0  0  0  0  0  0  0  0  0
  161.2780  210.9540  149.1200 C   0  0  0  0  0  2  0  0  0  0  0  0
  159.7470  213.2620  150.3220 C   0  0  0  0  0  3  0  0  0  0  0  0
  160.0870  212.0880  151.0010 C   0  0  0  0  0  0  0  0  0  0  0  0
  159.2980  211.6530  152.0760 C   0  0  0  0  0  3  0  0  0  0  0  0
  157.3380  211.9220  153.5980 C   0  0  0  0  0  1  0  0  0  0  0  0
  157.8320  213.5560  151.7740 C   0  0  0  0  0  3  0  0  0  0  0  0
  158.1710  212.3850  152.4590 C   0  0  0  0  0  0  0  0  0  0  0  0
  158.6200  213.9950  150.7060 C   0  0  0  0  0  3  0  0  0  0  0  0
  161.0180  213.2160  157.2610 O   0  0  0  0  0  0  0  0  0  0  0  0
  160.2180  213.1900  156.2880 C   0  0  0  0  0  0  0  0  0  0  0  0
  161.3620  211.2060  155.1820 C   0  0  0  0  0  0  0  0  0  0  0  0
  160.3440  212.2110  155.2530 N   0  0  0  0  0  2  0  0  0  0  0  0
  162.2500  211.1170  156.0730 O   0  0  0  0  0  0  0  0  0  0  0  0
  158.1760  213.8900  157.2310 O   0  0  0  0  0  1  0  0  0  0  0  0
  159.1040  214.1740  156.2290 C   0  0  0  0  0  2  0  0  0  0  0  0
  1 20  1  0  0  0  0
  1 10  1  1  0  0  0
  1 13  1  0  0  0  0
  2  6  1  0  0  0  0
  2  5  1  0  0  0  0
  3 15  1  1  0  0  0
  3 14  1  0  0  0  0
  4 18  1  0  0  0  0
  4  6  2  0  0  0  0
  5  7  1  0  0  0  0
  5 17  2  0  0  0  0
  6  9  1  0  0  0  0
  7  3  1  0  0  0  0
  8  4  1  0  0  0  0
  9 13  1  0  0  0  0
  9 17  1  0  0  0  0
 11 16  1  0  0  0  0
 11 23  1  0  0  0  0
 12  8  2  0  0  0  0
 12 16  1  0  0  0  0
 14 33  1  1  0  0  0
 15 14  1  0  0  0  0
 16  2  2  0  0  0  0
 17 22  1  0  0  0  0
 18  1  1  0  0  0  0
 19 25  1  1  0  0  0
 19  7  1  0  0  0  0
 21 14  1  0  0  0  0
 22 21  1  0  0  0  0
 23 19  1  0  0  0  0
 24 30  2  0  0  0  0
 24 25  1  0  0  0  0
 25 26  2  0  0  0  0
 26 29  1  0  0  0  0
 28 29  2  0  0  0  0
 29 27  1  0  0  0  0
 30 28  1  0  0  0  0
 32 31  2  0  0  0  0
 33 34  1  0  0  0  0
 33 35  2  0  0  0  0
 34 32  1  0  0  0  0
 37 32  1  0  0  0  0
 37 36  1  0  0  0  0
M  END
>  <MODEL>
2

>  <REMARK>
 VINA RESULT:      -2.9      2.331      4.702
  Name = 
  3 active torsions:
  status: ('A' for Active; 'I' for Inactive)
    1  A    between atoms: C_4  and  C_37
    2  A    between atoms: C_8  and  C_18
    3  A    between atoms: C_23  and  C_30
                            x       y       z     vdW  Elec       q    Type
                         _______ _______ _______ _____ _____    ______ ____

>  <TORSDO>
F 3

$$$$
=
 OpenBabel11122413483D

 37 43  0  0  1  0  0  0  0  0999 V2000
  156.0030  212.8040  155.5630 C   0  0  1  0  0  0  0  0  0  0  0  0
  159.8080  211.5390  154.4480 C   0  0  0  0  0  0  0  0  0  0  0  0
  161.1950  212.8240  151.2120 C   0  0  1  0  0  3  0  0  0  0  0  0
  158.1790  211.6550  156.2180 C   0  0  0  0  0  0  0  0  0  0  0  0
  159.7940  211.7730  153.0900 C   0  0  0  0  0  0  0  0  0  0  0  0
  158.5460  211.7820  154.8940 C   0  0  0  0  0  0  0  0  0  0  0  0
  160.9350  211.7690  152.2080 N   0  0  0  0  0  0  0  0  0  0  0  0
  159.1660  211.2260  157.1280 C   0  0  0  0  0  3  0  0  0  0  0  0
  157.7320  212.1700  153.9080 N   0  0  0  0  0  0  0  0  0  0  0  0
  156.4090  214.2490  155.7960 C   0  0  0  0  0  1  0  0  0  0  0  0
  162.1770  210.7930  154.7810 C   0  0  0  0  0  2  0  0  0  0  0  0
  160.4840  210.9590  156.6710 C   0  0  0  0  0  3  0  0  0  0  0  0
  156.3060  212.4250  154.0910 C   0  0  0  0  0  2  0  0  0  0  0  0
  160.0350  213.0520  150.2420 C   0  0  2  0  0  0  0  0  0  0  0  0
  160.3030  214.0570  151.3500 C   0  0  0  0  0  2  0  0  0  0  0  0
  160.8170  211.1150  155.3060 C   0  0  0  0  0  0  0  0  0  0  0  0
  158.4850  212.1480  152.7840 C   0  0  0  0  0  0  0  0  0  0  0  0
  156.7390  211.8970  156.5850 C   0  0  0  0  0  2  0  0  0  0  0  0
  161.9410  210.6920  152.2360 C   0  0  1  0  0  3  0  0  0  0  0  0
  154.6300  212.6940  155.7770 O   0  0  0  0  0  1  0  0  0  0  0  0
  158.7790  212.1730  150.3450 C   0  0  0  0  0  2  0  0  0  0  0  0
  158.0040  212.4440  151.5100 O   0  0  0  0  0  0  0  0  0  0  0  0
  162.0490  209.8990  153.5510 C   0  0  0  0  0  2  0  0  0  0  0  0
  161.9830  210.2430  149.7780 C   0  0  0  0  0  3  0  0  0  0  0  0
  161.7490  209.7710  151.0730 C   0  0  0  0  0  0  0  0  0  0  0  0
  161.2850  208.4610  151.2640 C   0  0  0  0  0  3  0  0  0  0  0  0
  160.5750  206.2420  150.3670 C   0  0  0  0  0  1  0  0  0  0  0  0
  161.3060  208.1030  148.8690 C   0  0  0  0  0  3  0  0  0  0  0  0
  161.0670  207.6280  150.1620 C   0  0  0  0  0  0  0  0  0  0  0  0
  161.7640  209.4090  148.6770 C   0  0  0  0  0  3  0  0  0  0  0  0
  161.0600  213.9730  146.0720 O   0  0  0  0  0  0  0  0  0  0  0  0
  160.3030  213.0140  146.3770 C   0  0  0  0  0  0  0  0  0  0  0  0
  160.4910  213.4420  148.8780 C   0  0  0  0  0  0  0  0  0  0  0  0
  159.9880  212.7280  147.7430 N   0  0  0  0  0  2  0  0  0  0  0  0
  161.2790  214.4160  148.7350 O   0  0  0  0  0  0  0  0  0  0  0  0
  158.3230  212.3980  145.2600 O   0  0  0  0  0  1  0  0  0  0  0  0
  159.7000  212.1840  145.3000 C   0  0  0  0  0  2  0  0  0  0  0  0
  1 20  1  0  0  0  0
  1 10  1  1  0  0  0
  1 18  1  0  0  0  0
  2  6  2  0  0  0  0
  2 16  1  0  0  0  0
  3 15  1  1  0  0  0
  3  7  1  0  0  0  0
  4 18  1  0  0  0  0
  4  8  2  0  0  0  0
  5  2  1  0  0  0  0
  6  4  1  0  0  0  0
  7 19  1  0  0  0  0
  7  5  1  0  0  0  0
  9 13  1  0  0  0  0
  9  6  1  0  0  0  0
 11 16  1  0  0  0  0
 12  8  1  0  0  0  0
 13  1  1  0  0  0  0
 14 33  1  6  0  0  0
 14 21  1  0  0  0  0
 14  3  1  0  0  0  0
 14 15  1  0  0  0  0
 16 12  2  0  0  0  0
 17  5  2  0  0  0  0
 17  9  1  0  0  0  0
 19 25  1  6  0  0  0
 19 23  1  0  0  0  0
 21 22  1  0  0  0  0
 22 17  1  0  0  0  0
 23 11  1  0  0  0  0
 24 25  1  0  0  0  0
 25 26  2  0  0  0  0
 28 29  2  0  0  0  0
 29 27  1  0  0  0  0
 29 26  1  0  0  0  0
 30 28  1  0  0  0  0
 30 24  2  0  0  0  0
 31 32  2  0  0  0  0
 32 34  1  0  0  0  0
 34 33  1  0  0  0  0
 35 33  2  0  0  0  0
 36 37  1  0  0  0  0
 37 32  1  0  0  0  0
M  END
>  <MODEL>
3

>  <REMARK>
 VINA RESULT:      -2.3      2.990      7.574
  Name = 
  3 active torsions:
  status: ('A' for Active; 'I' for Inactive)
    1  A    between atoms: C_4  and  C_37
    2  A    between atoms: C_8  and  C_18
    3  A    between atoms: C_23  and  C_30
                            x       y       z     vdW  Elec       q    Type
                         _______ _______ _______ _____ _____    ______ ____

>  <TORSDO>
F 3

$$$$
=
 OpenBabel11122413483D

 37 43  0  0  1  0  0  0  0  0999 V2000
  160.8580  203.8850  150.9550 C   0  0  1  0  0  0  0  0  0  0  0  0
  161.5600  207.8540  149.9200 C   0  0  0  0  0  0  0  0  0  0  0  0
  162.5340  210.2250  152.6540 C   0  0  1  0  0  3  0  0  0  0  0  0
  161.2340  205.6060  149.1170 C   0  0  0  0  0  0  0  0  0  0  0  0
  161.4070  208.4910  151.1310 C   0  0  0  0  0  0  0  0  0  0  0  0
  161.2030  206.5560  150.1180 C   0  0  0  0  0  0  0  0  0  0  0  0
  161.7860  209.8480  151.4400 N   0  0  0  0  0  0  0  0  0  0  0  0
  161.6310  206.0280  147.8330 C   0  0  0  0  0  3  0  0  0  0  0  0
  160.8440  206.3230  151.3830 N   0  0  0  0  0  0  0  0  0  0  0  0
  162.3040  203.5840  151.3100 C   0  0  0  0  0  1  0  0  0  0  0  0
  162.2860  209.7610  148.4650 C   0  0  0  0  0  2  0  0  0  0  0  0
  161.9970  207.3830  147.6120 C   0  0  0  0  0  3  0  0  0  0  0  0
  160.3440  205.0360  151.8570 C   0  0  0  0  0  2  0  0  0  0  0  0
  161.8670  209.7700  153.9520 C   0  0  2  0  0  0  0  0  0  0  0  0
  163.1000  209.0420  153.4410 C   0  0  0  0  0  2  0  0  0  0  0  0
  161.9600  208.3180  148.6710 C   0  0  0  0  0  0  0  0  0  0  0  0
  160.9450  207.5150  152.0160 C   0  0  0  0  0  0  0  0  0  0  0  0
  160.7620  204.2140  149.4420 C   0  0  0  0  0  2  0  0  0  0  0  0
  161.4500  210.9750  150.5540 C   0  0  1  0  0  3  0  0  0  0  0  0
  160.0970  202.7450  151.2130 O   0  0  0  0  0  1  0  0  0  0  0  0
  160.5160  209.0410  153.8940 C   0  0  0  0  0  2  0  0  0  0  0  0
  160.6160  207.7250  153.3540 O   0  0  0  0  0  0  0  0  0  0  0  0
  161.1880  210.6240  149.0790 C   0  0  0  0  0  2  0  0  0  0  0  0
  159.9640  212.9850  150.5420 C   0  0  0  0  0  3  0  0  0  0  0  0
  160.3110  211.7620  151.1230 C   0  0  0  0  0  0  0  0  0  0  0  0
  159.6260  211.3140  152.2620 C   0  0  0  0  0  3  0  0  0  0  0  0
  157.8730  211.6070  154.0150 C   0  0  0  0  0  1  0  0  0  0  0  0
  158.2490  213.3040  152.2210 C   0  0  0  0  0  3  0  0  0  0  0  0
  158.5950  212.0830  152.8080 C   0  0  0  0  0  0  0  0  0  0  0  0
  158.9330  213.7550  151.0880 C   0  0  0  0  0  3  0  0  0  0  0  0
  162.9230  212.5180  157.2110 O   0  0  0  0  0  0  0  0  0  0  0  0
  163.7510  211.6960  156.7350 C   0  0  0  0  0  0  0  0  0  0  0  0
  162.0860  210.7210  155.0780 C   0  0  0  0  0  0  0  0  0  0  0  0
  163.3830  210.8050  155.6790 N   0  0  0  0  0  2  0  0  0  0  0  0
  161.1430  211.4650  155.4630 O   0  0  0  0  0  0  0  0  0  0  0  0
  165.9420  212.5310  156.5030 O   0  0  0  0  0  1  0  0  0  0  0  0
  165.1430  211.6720  157.2580 C   0  0  0  0  0  2  0  0  0  0  0  0
  1 20  1  0  0  0  0
  1 10  1  1  0  0  0
  1 13  1  0  0  0  0
  2  6  1  0  0  0  0
  2  5  1  0  0  0  0
  3 15  1  6  0  0  0
  3 14  1  0  0  0  0
  4 18  1  0  0  0  0
  4  6  2  0  0  0  0
  5  7  1  0  0  0  0
  5 17  2  0  0  0  0
  6  9  1  0  0  0  0
  7  3  1  0  0  0  0
  8  4  1  0  0  0  0
  9 13  1  0  0  0  0
  9 17  1  0  0  0  0
 11 16  1  0  0  0  0
 11 23  1  0  0  0  0
 12  8  2  0  0  0  0
 12 16  1  0  0  0  0
 14 33  1  1  0  0  0
 15 14  1  0  0  0  0
 16  2  2  0  0  0  0
 17 22  1  0  0  0  0
 18  1  1  0  0  0  0
 19 25  1  1  0  0  0
 19  7  1  0  0  0  0
 21 14  1  0  0  0  0
 22 21  1  0  0  0  0
 23 19  1  0  0  0  0
 24 30  2  0  0  0  0
 24 25  1  0  0  0  0
 25 26  2  0  0  0  0
 26 29  1  0  0  0  0
 28 29  2  0  0  0  0
 29 27  1  0  0  0  0
 30 28  1  0  0  0  0
 32 31  2  0  0  0  0
 32 37  1  0  0  0  0
 33 35  2  0  0  0  0
 33 34  1  0  0  0  0
 34 32  1  0  0  0  0
 36 37  1  0  0  0  0
M  END
>  <MODEL>
4

>  <REMARK>
 VINA RESULT:      -1.0      2.672      5.349
  Name = 
  3 active torsions:
  status: ('A' for Active; 'I' for Inactive)
    1  A    between atoms: C_4  and  C_37
    2  A    between atoms: C_8  and  C_18
    3  A    between atoms: C_23  and  C_30
                            x       y       z     vdW  Elec       q    Type
                         _______ _______ _______ _____ _____    ______ ____

>  <TORSDO>
F 3

$$$$
