=
 OpenBabel11122414113D

 28 32  0  0  1  0  0  0  0  0999 V2000
  160.3600  209.5230  154.1840 C   0  0  2  0  0  3  0  0  0  0  0  0
  157.9450  210.3810  155.5140 O   0  0  0  0  0  0  0  0  0  0  0  0
  160.4540  213.0330  148.7780 O   0  0  0  0  0  0  0  0  0  0  0  0
  162.2020  210.5270  156.2480 C   0  0  0  0  0  2  0  0  0  0  0  0
  159.0620  213.6570  150.5840 N   0  0  0  0  0  0  0  0  0  0  0  0
  160.0570  208.9250  152.8020 C   0  0  0  0  0  2  0  0  0  0  0  0
  158.3130  212.6280  156.4580 O   0  0  0  0  0  0  0  0  0  0  0  0
  157.8440  211.8570  155.2570 S   0  0  0  0  0  0  0  0  0  0  0  0
  155.9920  213.3470  153.8460 C   0  0  0  0  0  0  0  0  0  0  0  0
  158.7480  212.3140  153.8660 N   0  0  0  0  0  0  0  0  0  0  0  0
  163.0470  210.2700  151.7330 O   0  0  0  0  0  0  0  0  0  0  0  0
  160.2650  212.6070  152.2590 C   0  0  0  0  0  0  0  0  0  0  0  0
  156.9060  213.6610  152.9690 N   0  0  0  0  0  0  0  0  0  0  0  0
  156.1480  212.2640  154.8900 C   0  0  0  0  0  2  0  0  0  0  0  0
  161.8610  209.9550  151.4520 C   0  0  0  0  0  0  0  0  0  0  0  0
  160.9100  210.9670  154.1370 C   0  0  2  0  0  3  0  0  0  0  0  0
  160.2100  213.0180  150.0130 C   0  0  0  0  0  0  0  0  0  0  0  0
  154.6570  213.9880  153.7300 C   0  0  0  0  0  1  0  0  0  0  0  0
  161.0130  210.8680  150.7600 N   0  0  0  0  0  2  0  0  0  0  0  0
  161.2570  211.4840  155.5330 C   0  0  0  0  0  2  0  0  0  0  0  0
  161.2810  208.5930  154.9760 C   0  0  0  0  0  2  0  0  0  0  0  0
  161.5540  209.1540  156.3650 C   0  0  0  0  0  2  0  0  0  0  0  0
  161.2990  208.6680  151.9430 C   0  0  0  0  0  2  0  0  0  0  0  0
  159.1790  213.3550  151.9590 C   0  0  0  0  0  0  0  0  0  0  0  0
  161.0660  212.2950  151.0280 C   0  0  2  0  0  3  0  0  0  0  0  0
  158.2360  213.1350  152.9330 C   0  0  0  0  0  0  0  0  0  0  0  0
  157.8250  213.9450  149.8780 C   0  0  0  0  0  1  0  0  0  0  0  0
  159.9900  211.9410  153.4480 C   0  0  0  0  0  0  0  0  0  0  0  0
  1  6  1  6  0  0  0
  1 21  1  0  0  0  0
  3 17  2  0  0  0  0
  4 22  1  0  0  0  0
  5 24  1  0  0  0  0
  8  2  2  0  0  0  0
  8  7  2  0  0  0  0
  9 14  1  0  0  0  0
 10  8  1  0  0  0  0
 12 28  2  0  0  0  0
 13  9  2  0  0  0  0
 14  8  1  0  0  0  0
 15 11  2  0  0  0  0
 15 23  1  0  0  0  0
 16  1  1  0  0  0  0
 16 20  1  1  0  0  0
 17  5  1  0  0  0  0
 18  9  1  0  0  0  0
 19 25  1  0  0  0  0
 19 15  1  0  0  0  0
 20  4  1  0  0  0  0
 21 22  1  0  0  0  0
 23  6  1  0  0  0  0
 24 12  1  0  0  0  0
 24 26  2  0  0  0  0
 25 17  1  6  0  0  0
 25 12  1  0  0  0  0
 26 13  1  0  0  0  0
 26 10  1  0  0  0  0
 27  5  1  0  0  0  0
 28 10  1  0  0  0  0
 28 16  1  0  0  0  0
M  END
>  <MODEL>
1

>  <REMARK>
 VINA RESULT:      -4.1      0.000      0.000
  Name = 
  0 active torsions:
  status: ('A' for Active; 'I' for Inactive)
                            x       y       z     vdW  Elec       q    Type
                         _______ _______ _______ _____ _____    ______ ____

>  <TORSDO>
F 0

$$$$
=
 OpenBabel11122414113D

 28 32  0  0  1  0  0  0  0  0999 V2000
  160.8310  205.9720  151.0240 C   0  0  2  0  0  3  0  0  0  0  0  0
  159.9760  206.9070  153.6190 O   0  0  0  0  0  0  0  0  0  0  0  0
  161.8600  211.4030  147.7090 O   0  0  0  0  0  0  0  0  0  0  0  0
  163.3130  204.7070  151.9730 C   0  0  0  0  0  2  0  0  0  0  0  0
  161.7060  211.4540  150.0670 N   0  0  0  0  0  0  0  0  0  0  0  0
  159.8870  206.4570  149.9140 C   0  0  0  0  0  2  0  0  0  0  0  0
  161.9320  207.7930  154.8280 O   0  0  0  0  0  0  0  0  0  0  0  0
  160.8000  208.1290  153.9000 S   0  0  0  0  0  0  0  0  0  0  0  0
  160.0920  210.7840  154.2040 C   0  0  0  0  0  0  0  0  0  0  0  0
  161.4080  208.8230  152.4470 N   0  0  0  0  0  0  0  0  0  0  0  0
  162.6520  206.6670  147.8630 O   0  0  0  0  0  0  0  0  0  0  0  0
  162.2980  209.2490  150.4480 C   0  0  0  0  0  0  0  0  0  0  0  0
  160.7390  211.0870  153.1120 N   0  0  0  0  0  0  0  0  0  0  0  0
  159.7550  209.3730  154.6320 C   0  0  0  0  0  2  0  0  0  0  0  0
  161.5250  207.1290  148.1820 C   0  0  0  0  0  0  0  0  0  0  0  0
  162.1540  206.7660  151.1160 C   0  0  2  0  0  3  0  0  0  0  0  0
  161.9770  210.8140  148.8150 C   0  0  0  0  0  0  0  0  0  0  0  0
  159.5200  211.8920  155.0110 C   0  0  0  0  0  1  0  0  0  0  0  0
  161.3400  208.5320  148.3510 N   0  0  0  0  0  2  0  0  0  0  0  0
  163.0810  206.1970  152.1900 C   0  0  0  0  0  2  0  0  0  0  0  0
  161.0830  204.4680  150.8890 C   0  0  0  0  0  2  0  0  0  0  0  0
  161.9830  203.9670  152.0110 C   0  0  0  0  0  2  0  0  0  0  0  0
  160.4040  206.2030  148.4940 C   0  0  0  0  0  2  0  0  0  0  0  0
  161.9290  210.4240  151.0080 C   0  0  0  0  0  0  0  0  0  0  0  0
  162.3710  209.3600  148.9530 C   0  0  2  0  0  3  0  0  0  0  0  0
  161.3470  210.1460  152.2200 C   0  0  0  0  0  0  0  0  0  0  0  0
  160.8310  212.5990  150.2510 C   0  0  0  0  0  1  0  0  0  0  0  0
  161.9570  208.2420  151.3440 C   0  0  0  0  0  0  0  0  0  0  0  0
  1  6  1  6  0  0  0
  1 16  1  0  0  0  0
  2  8  2  0  0  0  0
  3 17  2  0  0  0  0
  4 22  1  0  0  0  0
  4 20  1  0  0  0  0
  5 27  1  0  0  0  0
  5 24  1  0  0  0  0
  8 14  1  0  0  0  0
  8  7  2  0  0  0  0
  9 14  1  0  0  0  0
  9 18  1  0  0  0  0
 10  8  1  0  0  0  0
 11 15  2  0  0  0  0
 12 24  1  0  0  0  0
 12 28  2  0  0  0  0
 13  9  2  0  0  0  0
 15 19  1  0  0  0  0
 15 23  1  0  0  0  0
 16 28  1  0  0  0  0
 16 20  1  1  0  0  0
 17 25  1  0  0  0  0
 17  5  1  0  0  0  0
 21  1  1  0  0  0  0
 21 22  1  0  0  0  0
 23  6  1  0  0  0  0
 24 26  2  0  0  0  0
 25 19  1  6  0  0  0
 25 12  1  0  0  0  0
 26 10  1  0  0  0  0
 26 13  1  0  0  0  0
 28 10  1  0  0  0  0
M  END
>  <MODEL>
2

>  <REMARK>
 VINA RESULT:      -3.4      3.128      4.813
  Name = 
  0 active torsions:
  status: ('A' for Active; 'I' for Inactive)
                            x       y       z     vdW  Elec       q    Type
                         _______ _______ _______ _____ _____    ______ ____

>  <TORSDO>
F 0

$$$$
=
 OpenBabel11122414113D

 28 32  0  0  1  0  0  0  0  0999 V2000
  161.2690  210.4080  155.8170 C   0  0  2  0  0  3  0  0  0  0  0  0
  162.8690  209.9010  153.4680 O   0  0  0  0  0  0  0  0  0  0  0  0
  156.7070  214.4470  153.7110 O   0  0  0  0  0  0  0  0  0  0  0  0
  160.3130  207.6410  156.1220 C   0  0  0  0  0  2  0  0  0  0  0  0
  157.9900  213.1880  152.1750 N   0  0  0  0  0  0  0  0  0  0  0  0
  161.2550  211.9020  156.1740 C   0  0  0  0  0  2  0  0  0  0  0  0
  161.6200  208.4020  151.9630 O   0  0  0  0  0  0  0  0  0  0  0  0
  161.9000  209.8330  152.3240 S   0  0  0  0  0  0  0  0  0  0  0  0
  161.5730  211.4460  150.1030 C   0  0  0  0  0  0  0  0  0  0  0  0
  160.4320  210.6510  152.6980 N   0  0  0  0  0  0  0  0  0  0  0  0
  158.0060  211.4600  157.2440 O   0  0  0  0  0  0  0  0  0  0  0  0
  158.5760  211.4750  153.6170 C   0  0  0  0  0  0  0  0  0  0  0  0
  160.4070  211.8290  150.5470 N   0  0  0  0  0  0  0  0  0  0  0  0
  162.5940  210.6940  150.9270 C   0  0  0  0  0  2  0  0  0  0  0  0
  158.8580  212.2210  156.7140 C   0  0  0  0  0  0  0  0  0  0  0  0
  159.9830  209.9190  155.1110 C   0  0  2  0  0  3  0  0  0  0  0  0
  157.4000  213.4270  153.4590 C   0  0  0  0  0  0  0  0  0  0  0  0
  161.9910  211.8950  148.7510 C   0  0  0  0  0  1  0  0  0  0  0  0
  158.5440  212.9480  155.5300 N   0  0  0  0  0  2  0  0  0  0  0  0
  160.0250  208.4150  154.8420 C   0  0  0  0  0  2  0  0  0  0  0  0
  161.5880  209.5680  157.0550 C   0  0  0  0  0  2  0  0  0  0  0  0
  161.6480  208.0860  156.7040 C   0  0  0  0  0  2  0  0  0  0  0  0
  160.2410  212.2790  157.2590 C   0  0  0  0  0  2  0  0  0  0  0  0
  158.6880  211.9740  152.3650 C   0  0  0  0  0  0  0  0  0  0  0  0
  157.7270  212.3620  154.4810 C   0  0  2  0  0  3  0  0  0  0  0  0
  159.8540  211.4920  151.8230 C   0  0  0  0  0  0  0  0  0  0  0  0
  158.3160  214.2130  151.1990 C   0  0  0  0  0  1  0  0  0  0  0  0
  159.6790  210.6560  153.8330 C   0  0  0  0  0  0  0  0  0  0  0  0
  1  6  1  1  0  0  0
  1 21  1  0  0  0  0
  4 22  1  0  0  0  0
  5 24  1  0  0  0  0
  5 17  1  0  0  0  0
  6 23  1  0  0  0  0
  7  8  2  0  0  0  0
  8 10  1  0  0  0  0
  8  2  2  0  0  0  0
  9 13  2  0  0  0  0
  9 14  1  0  0  0  0
 10 28  1  0  0  0  0
 12 28  2  0  0  0  0
 12 25  1  0  0  0  0
 13 26  1  0  0  0  0
 14  8  1  0  0  0  0
 15 11  2  0  0  0  0
 15 23  1  0  0  0  0
 16 20  1  6  0  0  0
 16  1  1  0  0  0  0
 17  3  2  0  0  0  0
 18  9  1  0  0  0  0
 19 15  1  0  0  0  0
 20  4  1  0  0  0  0
 22 21  1  0  0  0  0
 24 12  1  0  0  0  0
 25 17  1  6  0  0  0
 25 19  1  0  0  0  0
 26 24  2  0  0  0  0
 26 10  1  0  0  0  0
 27  5  1  0  0  0  0
 28 16  1  0  0  0  0
M  END
>  <MODEL>
3

>  <REMARK>
 VINA RESULT:      -3.3      2.144      4.878
  Name = 
  0 active torsions:
  status: ('A' for Active; 'I' for Inactive)
                            x       y       z     vdW  Elec       q    Type
                         _______ _______ _______ _____ _____    ______ ____

>  <TORSDO>
F 0

$$$$
=
 OpenBabel11122414113D

 28 32  0  0  1  0  0  0  0  0999 V2000
  160.2830  208.1840  154.8400 C   0  0  2  0  0  3  0  0  0  0  0  0
  158.8150  210.6470  155.1730 O   0  0  0  0  0  0  0  0  0  0  0  0
  162.5900  208.5820  148.8350 O   0  0  0  0  0  0  0  0  0  0  0  0
  162.3040  208.7680  156.8980 C   0  0  0  0  0  2  0  0  0  0  0  0
  161.7930  210.5140  149.9390 N   0  0  0  0  0  0  0  0  0  0  0  0
  159.7220  207.3490  153.6800 C   0  0  0  0  0  2  0  0  0  0  0  0
  160.4190  212.4990  155.4430 O   0  0  0  0  0  0  0  0  0  0  0  0
  159.6170  211.6960  154.4590 S   0  0  0  0  0  0  0  0  0  0  0  0
  159.0510  213.2320  152.2320 C   0  0  0  0  0  0  0  0  0  0  0  0
  160.6540  210.9950  153.2770 N   0  0  0  0  0  0  0  0  0  0  0  0
  162.9540  206.3190  153.0580 O   0  0  0  0  0  0  0  0  0  0  0  0
  162.0910  209.7580  152.1060 C   0  0  0  0  0  0  0  0  0  0  0  0
  159.9960  212.6260  151.5670 N   0  0  0  0  0  0  0  0  0  0  0  0
  158.5060  212.7610  153.5610 C   0  0  0  0  0  2  0  0  0  0  0  0
  161.8210  206.6090  152.5920 C   0  0  0  0  0  0  0  0  0  0  0  0
  161.5840  208.9440  154.4960 C   0  0  2  0  0  3  0  0  0  0  0  0
  162.3520  209.1950  149.9080 C   0  0  0  0  0  0  0  0  0  0  0  0
  158.3620  214.3780  151.5850 C   0  0  0  0  0  1  0  0  0  0  0  0
  161.7000  207.4650  151.4590 N   0  0  0  0  0  2  0  0  0  0  0  0
  162.1320  209.7010  155.7060 C   0  0  0  0  0  2  0  0  0  0  0  0
  160.4500  207.3150  156.0890 C   0  0  0  0  0  2  0  0  0  0  0  0
  160.9650  208.1420  157.2600 C   0  0  0  0  0  2  0  0  0  0  0  0
  160.5910  206.1480  153.2920 C   0  0  0  0  0  2  0  0  0  0  0  0
  161.6700  210.7760  151.3220 C   0  0  0  0  0  0  0  0  0  0  0  0
  162.5830  208.6050  151.2800 C   0  0  2  0  0  3  0  0  0  0  0  0
  160.7550  211.5080  152.0390 C   0  0  0  0  0  0  0  0  0  0  0  0
  160.9890  211.1080  148.8860 C   0  0  0  0  0  1  0  0  0  0  0  0
  161.4410  209.8860  153.3300 C   0  0  0  0  0  0  0  0  0  0  0  0
  1  6  1  6  0  0  0
  1 21  1  0  0  0  0
  3 17  2  0  0  0  0
  4 22  1  0  0  0  0
  5 24  1  0  0  0  0
  8  2  2  0  0  0  0
  8  7  2  0  0  0  0
  9 14  1  0  0  0  0
 10 28  1  0  0  0  0
 10  8  1  0  0  0  0
 12 28  2  0  0  0  0
 13 26  1  0  0  0  0
 13  9  2  0  0  0  0
 14  8  1  0  0  0  0
 15 11  2  0  0  0  0
 15 23  1  0  0  0  0
 16  1  1  0  0  0  0
 16 20  1  1  0  0  0
 17  5  1  0  0  0  0
 18  9  1  0  0  0  0
 19 15  1  0  0  0  0
 20  4  1  0  0  0  0
 21 22  1  0  0  0  0
 23  6  1  0  0  0  0
 24 26  2  0  0  0  0
 24 12  1  0  0  0  0
 25 17  1  6  0  0  0
 25 19  1  0  0  0  0
 25 12  1  0  0  0  0
 26 10  1  0  0  0  0
 27  5  1  0  0  0  0
 28 16  1  0  0  0  0
M  END
>  <MODEL>
4

>  <REMARK>
 VINA RESULT:      -2.0      2.162      3.153
  Name = 
  0 active torsions:
  status: ('A' for Active; 'I' for Inactive)
                            x       y       z     vdW  Elec       q    Type
                         _______ _______ _______ _____ _____    ______ ____

>  <TORSDO>
F 0

$$$$
=
 OpenBabel11122414113D

 28 32  0  0  1  0  0  0  0  0999 V2000
  162.2580  205.3730  146.7200 C   0  0  2  0  0  3  0  0  0  0  0  0
  162.9070  208.0880  147.4560 O   0  0  0  0  0  0  0  0  0  0  0  0
  160.6000  202.6310  152.3130 O   0  0  0  0  0  0  0  0  0  0  0  0
  159.9430  206.0710  145.0420 C   0  0  0  0  0  2  0  0  0  0  0  0
  160.6810  204.9850  152.1140 N   0  0  0  0  0  0  0  0  0  0  0  0
  163.1590  204.3640  147.4470 C   0  0  0  0  0  2  0  0  0  0  0  0
  160.8180  209.3030  147.9360 O   0  0  0  0  0  0  0  0  0  0  0  0
  161.9190  208.4660  148.5200 S   0  0  0  0  0  0  0  0  0  0  0  0
  162.2560  209.0880  151.1930 C   0  0  0  0  0  0  0  0  0  0  0  0
  161.2640  207.0730  149.2900 N   0  0  0  0  0  0  0  0  0  0  0  0
  160.4480  202.2330  147.5270 O   0  0  0  0  0  0  0  0  0  0  0  0
  160.3810  205.0970  149.8220 C   0  0  0  0  0  0  0  0  0  0  0  0
  161.6040  208.0090  151.5310 N   0  0  0  0  0  0  0  0  0  0  0  0
  162.7670  209.3740  149.7990 C   0  0  0  0  0  2  0  0  0  0  0  0
  161.4930  202.6470  148.0930 C   0  0  0  0  0  0  0  0  0  0  0  0
  160.8380  205.4940  147.3190 C   0  0  2  0  0  3  0  0  0  0  0  0
  160.5340  203.6600  151.5910 C   0  0  0  0  0  0  0  0  0  0  0  0
  162.6520  210.0350  152.2660 C   0  0  0  0  0  1  0  0  0  0  0  0
  161.4840  202.9770  149.4800 N   0  0  0  0  0  2  0  0  0  0  0  0
  159.9670  206.4590  146.5150 C   0  0  0  0  0  2  0  0  0  0  0  0
  162.2140  205.0640  145.2210 C   0  0  0  0  0  2  0  0  0  0  0  0
  161.3580  206.0850  144.4820 C   0  0  0  0  0  2  0  0  0  0  0  0
  162.7200  202.9040  147.2920 C   0  0  0  0  0  2  0  0  0  0  0  0
  160.5720  205.7970  150.9630 C   0  0  0  0  0  0  0  0  0  0  0  0
  160.3350  203.6210  150.0920 C   0  0  2  0  0  3  0  0  0  0  0  0
  161.1540  206.9950  150.6270 C   0  0  0  0  0  0  0  0  0  0  0  0
  161.3890  205.3300  153.3350 C   0  0  0  0  0  1  0  0  0  0  0  0
  160.8290  205.8910  148.7720 C   0  0  0  0  0  0  0  0  0  0  0  0
  1 21  1  6  0  0  0
  1 16  1  0  0  0  0
  1  6  1  0  0  0  0
  2  8  2  0  0  0  0
  4 20  1  0  0  0  0
  5 27  1  0  0  0  0
  7  8  2  0  0  0  0
  8 10  1  0  0  0  0
  8 14  1  0  0  0  0
  9 13  2  0  0  0  0
  9 18  1  0  0  0  0
 10 26  1  0  0  0  0
 11 15  2  0  0  0  0
 12 25  1  0  0  0  0
 12 24  1  0  0  0  0
 14  9  1  0  0  0  0
 15 19  1  0  0  0  0
 16 20  1  6  0  0  0
 16 28  1  0  0  0  0
 17  5  1  0  0  0  0
 17  3  2  0  0  0  0
 22  4  1  0  0  0  0
 22 21  1  0  0  0  0
 23  6  1  0  0  0  0
 23 15  1  0  0  0  0
 24  5  1  0  0  0  0
 25 19  1  6  0  0  0
 25 17  1  0  0  0  0
 26 24  2  0  0  0  0
 26 13  1  0  0  0  0
 28 10  1  0  0  0  0
 28 12  2  0  0  0  0
M  END
>  <MODEL>
5

>  <REMARK>
 VINA RESULT:      -1.2      5.829      9.059
  Name = 
  0 active torsions:
  status: ('A' for Active; 'I' for Inactive)
                            x       y       z     vdW  Elec       q    Type
                         _______ _______ _______ _____ _____    ______ ____

>  <TORSDO>
F 0

$$$$
