=
 OpenBabel11122414163D

 34 40  0  0  1  0  0  0  0  0999 V2000
  160.8640  207.1710  154.3390 C   0  0  0  0  0  0  0  0  0  0  0  0
  161.2110  204.9760  153.1190 C   0  0  0  0  0  2  0  0  0  0  0  0
  157.8810  212.1970  154.1320 C   0  0  0  0  0  0  0  0  0  0  0  0
  160.1890  209.2920  155.2590 C   0  0  0  0  0  0  0  0  0  0  0  0
  160.2710  211.4150  153.8600 C   0  0  2  0  0  3  0  0  0  0  0  0
  159.7070  213.8020  154.0070 N   0  0  0  0  0  1  0  0  0  0  0  0
  156.9080  212.0010  153.3580 O   0  0  0  0  0  0  0  0  0  0  0  0
  158.7530  212.4280  156.4860 C   0  0  0  0  0  2  0  0  0  0  0  0
  161.9980  207.0280  152.0910 C   0  0  2  0  0  3  0  0  0  0  0  0
  161.6640  207.1540  148.8740 C   0  0  0  0  0  2  0  0  0  0  0  0
  160.2800  210.4460  152.6750 C   0  0  0  0  0  2  0  0  0  0  0  0
  159.9560  211.4800  156.4020 C   0  0  0  0  0  2  0  0  0  0  0  0
  161.2350  208.3170  151.7320 C   0  0  1  0  0  3  0  0  0  0  0  0
  161.7840  204.6150  151.7600 C   0  0  0  0  0  2  0  0  0  0  0  0
  160.0320  210.7210  155.1490 N   0  0  0  0  0  0  0  0  0  0  0  0
  157.6940  212.0830  155.5450 N   0  0  0  0  0  2  0  0  0  0  0  0
  161.0900  206.1210  149.8370 C   0  0  2  0  0  3  0  0  0  0  0  0
  160.7250  208.5570  154.1930 C   0  0  0  0  0  0  0  0  0  0  0  0
  159.2330  212.5030  153.5580 C   0  0  2  0  0  3  0  0  0  0  0  0
  161.1980  209.2610  152.9470 C   0  0  2  0  0  3  0  0  0  0  0  0
  159.9310  207.2920  156.5060 C   0  0  0  0  0  3  0  0  0  0  0  0
  161.2500  208.5680  149.2530 C   0  0  0  0  0  2  0  0  0  0  0  0
  159.8030  208.6410  156.3910 N   0  0  0  0  0  0  0  0  0  0  0  0
  161.9010  209.0130  150.5520 C   0  0  0  0  0  2  0  0  0  0  0  0
  162.0590  205.9260  151.0180 C   0  0  1  0  0  3  0  0  0  0  0  0
  160.4550  206.5660  155.4850 N   0  0  0  0  0  0  0  0  0  0  0  0
  161.4040  206.4030  153.2590 N   0  0  0  0  0  0  0  0  0  0  0  0
  160.9170  204.9200  149.1430 O   0  0  0  0  0  0  0  0  0  0  0  0
  161.2860  205.2120  147.8270 C   0  0  0  0  0  2  0  0  0  0  0  0
  160.5400  202.1450  146.9810 O   0  0  0  0  0  0  0  0  0  0  0  0
  161.5830  203.8780  145.7670 C   0  0  0  0  0  2  0  0  0  0  0  0
  161.9820  204.0140  147.2080 C   0  0  2  0  0  3  0  0  0  0  0  0
  160.9560  202.5080  145.6930 C   0  0  0  0  0  2  0  0  0  0  0  0
  161.4670  202.7450  147.8480 C   0  0  0  0  0  2  0  0  0  0  0  0
  1 26  1  0  0  0  0
  2 27  1  0  0  0  0
  3 16  1  0  0  0  0
  4 23  2  0  0  0  0
  5 11  1  6  0  0  0
  5 15  1  0  0  0  0
  7  3  2  0  0  0  0
  9 27  1  1  0  0  0
 10 22  1  0  0  0  0
 10 17  1  0  0  0  0
 12  8  1  0  0  0  0
 13 24  1  6  0  0  0
 13  9  1  0  0  0  0
 13 20  1  0  0  0  0
 14  2  1  0  0  0  0
 15  4  1  0  0  0  0
 15 12  1  0  0  0  0
 16  8  1  0  0  0  0
 17 28  1  6  0  0  0
 17 25  1  0  0  0  0
 18  1  2  0  0  0  0
 18  4  1  0  0  0  0
 19  5  1  0  0  0  0
 19  6  1  1  0  0  0
 19  3  1  0  0  0  0
 20 11  1  6  0  0  0
 20 18  1  0  0  0  0
 22 24  1  0  0  0  0
 23 21  1  0  0  0  0
 25 14  1  1  0  0  0
 25  9  1  0  0  0  0
 26 21  2  0  0  0  0
 27  1  1  0  0  0  0
 29 28  1  0  0  0  0
 30 34  1  0  0  0  0
 31 32  1  0  0  0  0
 32 29  1  1  0  0  0
 32 34  1  0  0  0  0
 33 31  1  0  0  0  0
 33 30  1  0  0  0  0
M  END
>  <MODEL>
1

>  <REMARK>
 VINA RESULT:      -8.6      0.000      0.000
  Name = 
  3 active torsions:
  status: ('A' for Active; 'I' for Inactive)
    1  A    between atoms: C_17  and  O_28
    2  A    between atoms: O_28  and  C_29
    3  A    between atoms: C_29  and  C_32
                            x       y       z     vdW  Elec       q    Type
                         _______ _______ _______ _____ _____    ______ ____

>  <TORSDO>
F 3

$$$$
=
 OpenBabel11122414163D

 34 40  0  0  1  0  0  0  0  0999 V2000
  161.2080  209.1840  151.8430 C   0  0  0  0  0  0  0  0  0  0  0  0
  160.8610  206.8530  152.7780 C   0  0  0  0  0  2  0  0  0  0  0  0
  159.7290  212.6950  147.4070 C   0  0  0  0  0  0  0  0  0  0  0  0
  161.2030  211.3120  150.7150 C   0  0  0  0  0  0  0  0  0  0  0  0
  161.7880  211.4910  148.2470 C   0  0  2  0  0  3  0  0  0  0  0  0
  161.9180  213.1590  146.4480 N   0  0  0  0  0  1  0  0  0  0  0  0
  158.6970  212.1970  146.8890 O   0  0  0  0  0  0  0  0  0  0  0  0
  160.7680  214.4530  148.8860 C   0  0  0  0  0  2  0  0  0  0  0  0
  162.1230  207.1190  150.7240 C   0  0  2  0  0  3  0  0  0  0  0  0
  161.6480  204.7920  148.5240 C   0  0  0  0  0  2  0  0  0  0  0  0
  161.4590  209.9950  148.2220 C   0  0  0  0  0  2  0  0  0  0  0  0
  161.6540  213.5550  149.7580 C   0  0  0  0  0  2  0  0  0  0  0  0
  161.7280  207.7830  149.3910 C   0  0  1  0  0  3  0  0  0  0  0  0
  161.2290  205.4650  152.2870 C   0  0  0  0  0  2  0  0  0  0  0  0
  161.4430  212.1190  149.5450 N   0  0  0  0  0  0  0  0  0  0  0  0
  159.6010  213.7560  148.3580 N   0  0  0  0  0  2  0  0  0  0  0  0
  160.8690  205.0410  149.8100 C   0  0  2  0  0  3  0  0  0  0  0  0
  161.4500  209.9330  150.6860 C   0  0  0  0  0  0  0  0  0  0  0  0
  161.0770  212.1390  147.0530 C   0  0  2  0  0  3  0  0  0  0  0  0
  162.0260  209.2920  149.4490 C   0  0  2  0  0  3  0  0  0  0  0  0
  160.4740  211.1300  152.9650 C   0  0  0  0  0  3  0  0  0  0  0  0
  161.6660  206.0220  147.6290 C   0  0  0  0  0  2  0  0  0  0  0  0
  160.7200  211.8780  151.8560 N   0  0  0  0  0  0  0  0  0  0  0  0
  162.4900  207.1450  148.2370 C   0  0  0  0  0  2  0  0  0  0  0  0
  161.8130  205.6190  150.8790 C   0  0  1  0  0  3  0  0  0  0  0  0
  160.7160  209.7940  152.9540 N   0  0  0  0  0  0  0  0  0  0  0  0
  161.4500  207.7730  151.8300 N   0  0  0  0  0  0  0  0  0  0  0  0
  160.3280  203.8250  150.2390 O   0  0  0  0  0  0  0  0  0  0  0  0
  161.2830  202.8670  149.8890 C   0  0  0  0  0  2  0  0  0  0  0  0
  160.8340  201.4770  146.9660 O   0  0  0  0  0  0  0  0  0  0  0  0
  161.6170  200.5830  149.0040 C   0  0  0  0  0  2  0  0  0  0  0  0
  160.5970  201.6380  149.3200 C   0  0  2  0  0  3  0  0  0  0  0  0
  161.4460  200.3460  147.5240 C   0  0  0  0  0  2  0  0  0  0  0  0
  159.9940  201.9750  147.9750 C   0  0  0  0  0  2  0  0  0  0  0  0
  1 26  1  0  0  0  0
  3 16  1  0  0  0  0
  4 23  2  0  0  0  0
  5 11  1  1  0  0  0
  5 15  1  0  0  0  0
  7  3  2  0  0  0  0
  8 12  1  0  0  0  0
  9 25  1  0  0  0  0
  9 27  1  1  0  0  0
 10 17  1  0  0  0  0
 13 24  1  6  0  0  0
 13 20  1  0  0  0  0
 13  9  1  0  0  0  0
 14  2  1  0  0  0  0
 15 12  1  0  0  0  0
 15  4  1  0  0  0  0
 16  8  1  0  0  0  0
 17 28  1  1  0  0  0
 17 25  1  0  0  0  0
 18  4  1  0  0  0  0
 18  1  2  0  0  0  0
 19  6  1  1  0  0  0
 19  3  1  0  0  0  0
 19  5  1  0  0  0  0
 20 11  1  6  0  0  0
 20 18  1  0  0  0  0
 22 24  1  0  0  0  0
 22 10  1  0  0  0  0
 23 21  1  0  0  0  0
 25 14  1  1  0  0  0
 26 21  2  0  0  0  0
 27  1  1  0  0  0  0
 27  2  1  0  0  0  0
 29 28  1  0  0  0  0
 30 33  1  0  0  0  0
 30 34  1  0  0  0  0
 31 32  1  0  0  0  0
 32 29  1  6  0  0  0
 33 31  1  0  0  0  0
 34 32  1  0  0  0  0
M  END
>  <MODEL>
2

>  <REMARK>
 VINA RESULT:      -6.6      3.117      4.564
  Name = 
  3 active torsions:
  status: ('A' for Active; 'I' for Inactive)
    1  A    between atoms: C_17  and  O_28
    2  A    between atoms: O_28  and  C_29
    3  A    between atoms: C_29  and  C_32
                            x       y       z     vdW  Elec       q    Type
                         _______ _______ _______ _____ _____    ______ ____

>  <TORSDO>
F 3

$$$$
=
 OpenBabel11122414163D

 34 40  0  0  1  0  0  0  0  0999 V2000
  161.7840  206.8270  148.4460 C   0  0  0  0  0  0  0  0  0  0  0  0
  161.5840  209.2250  149.2420 C   0  0  0  0  0  2  0  0  0  0  0  0
  159.3390  201.5370  148.9310 C   0  0  0  0  0  0  0  0  0  0  0  0
  161.5810  204.5040  147.8390 C   0  0  0  0  0  0  0  0  0  0  0  0
  161.4840  202.6870  149.6160 C   0  0  2  0  0  3  0  0  0  0  0  0
  161.2060  200.2550  149.8220 N   0  0  0  0  0  1  0  0  0  0  0  0
  158.1800  201.7210  149.3860 O   0  0  0  0  0  0  0  0  0  0  0  0
  160.8270  201.0320  146.9600 C   0  0  0  0  0  2  0  0  0  0  0  0
  162.2540  207.5140  150.8260 C   0  0  2  0  0  3  0  0  0  0  0  0
  161.0840  207.8960  153.8200 C   0  0  0  0  0  2  0  0  0  0  0  0
  161.0850  203.8370  150.5460 C   0  0  0  0  0  2  0  0  0  0  0  0
  161.8690  202.1420  147.1420 C   0  0  0  0  0  2  0  0  0  0  0  0
  161.5480  206.2100  151.2410 C   0  0  1  0  0  3  0  0  0  0  0  0
  161.7350  209.8930  150.5970 C   0  0  0  0  0  2  0  0  0  0  0  0
  161.5350  203.1090  148.1950 N   0  0  0  0  0  0  0  0  0  0  0  0
  159.5270  201.3780  147.5220 N   0  0  0  0  0  2  0  0  0  0  0  0
  160.6950  208.6550  152.5560 C   0  0  2  0  0  3  0  0  0  0  0  0
  161.7400  205.4810  148.8310 C   0  0  0  0  0  0  0  0  0  0  0  0
  160.5100  201.5300  149.8690 C   0  0  2  0  0  3  0  0  0  0  0  0
  161.9270  205.0770  150.2720 C   0  0  2  0  0  3  0  0  0  0  0  0
  161.4810  206.2030  146.1870 C   0  0  0  0  0  3  0  0  0  0  0  0
  160.9210  206.3940  153.6460 C   0  0  0  0  0  2  0  0  0  0  0  0
  161.4540  204.8900  146.5390 N   0  0  0  0  0  0  0  0  0  0  0  0
  161.9350  205.8300  152.6640 C   0  0  0  0  0  2  0  0  0  0  0  0
  161.9220  208.7810  151.6350 C   0  0  1  0  0  3  0  0  0  0  0  0
  161.6420  207.1610  147.1360 N   0  0  0  0  0  0  0  0  0  0  0  0
  161.9400  207.8380  149.4470 N   0  0  0  0  0  0  0  0  0  0  0  0
  160.2300  209.9200  152.9280 O   0  0  0  0  0  0  0  0  0  0  0  0
  160.6730  210.0910  154.2420 C   0  0  0  0  0  2  0  0  0  0  0  0
  157.7080  211.4540  154.0650 O   0  0  0  0  0  0  0  0  0  0  0  0
  158.9570  210.6930  155.9170 C   0  0  0  0  0  2  0  0  0  0  0  0
  159.9170  211.2330  154.8970 C   0  0  2  0  0  3  0  0  0  0  0  0
  157.6100  211.1740  155.4350 C   0  0  0  0  0  2  0  0  0  0  0  0
  159.0260  211.9000  153.8750 C   0  0  0  0  0  2  0  0  0  0  0  0
  1 18  1  0  0  0  0
  1 27  1  0  0  0  0
  2 27  1  0  0  0  0
  2 14  1  0  0  0  0
  3  7  2  0  0  0  0
  3 19  1  0  0  0  0
  4 15  1  0  0  0  0
  4 18  2  0  0  0  0
  5 19  1  0  0  0  0
  5 11  1  1  0  0  0
  8 12  1  0  0  0  0
  8 16  1  0  0  0  0
  9 27  1  6  0  0  0
  9 13  1  0  0  0  0
  9 25  1  0  0  0  0
 12 15  1  0  0  0  0
 13 24  1  1  0  0  0
 15  5  1  0  0  0  0
 16  3  1  0  0  0  0
 17 28  1  1  0  0  0
 17 10  1  0  0  0  0
 18 20  1  0  0  0  0
 19  6  1  6  0  0  0
 20 11  1  1  0  0  0
 20 13  1  0  0  0  0
 21 23  2  0  0  0  0
 21 26  1  0  0  0  0
 22 10  1  0  0  0  0
 23  4  1  0  0  0  0
 24 22  1  0  0  0  0
 25 14  1  6  0  0  0
 25 17  1  0  0  0  0
 26  1  2  0  0  0  0
 28 29  1  0  0  0  0
 30 33  1  0  0  0  0
 32 29  1  6  0  0  0
 32 31  1  0  0  0  0
 33 31  1  0  0  0  0
 34 30  1  0  0  0  0
 34 32  1  0  0  0  0
M  END
>  <MODEL>
3

>  <REMARK>
 VINA RESULT:      -6.4      3.276      9.266
  Name = 
  3 active torsions:
  status: ('A' for Active; 'I' for Inactive)
    1  A    between atoms: C_17  and  O_28
    2  A    between atoms: O_28  and  C_29
    3  A    between atoms: C_29  and  C_32
                            x       y       z     vdW  Elec       q    Type
                         _______ _______ _______ _____ _____    ______ ____

>  <TORSDO>
F 3

$$$$
