=
 OpenBabel11122413113D

 31 36  0  0  1  0  0  0  0  0999 V2000
  161.6880  207.1740  152.4450 C   0  0  0  0  0  0  0  0  0  0  0  0
  159.5930  210.1150  153.6210 C   0  0  2  0  0  3  0  0  0  0  0  0
  160.1290  210.4510  155.0360 C   0  0  1  0  0  3  0  0  0  0  0  0
  161.9790  210.6360  156.6910 C   0  0  1  0  0  3  0  0  0  0  0  0
  160.5240  209.2750  152.7860 C   0  0  0  0  0  0  0  0  0  0  0  0
  162.3390  207.7110  151.3320 C   0  0  0  0  0  3  0  0  0  0  0  0
  161.6490  210.4590  155.2070 C   0  0  0  0  0  2  0  0  0  0  0  0
  160.2000  212.0950  152.1920 C   0  0  2  0  0  3  0  0  0  0  0  0
  161.9410  205.8650  152.8320 O   0  0  0  0  0  1  0  0  0  0  0  0
  158.2410  211.8990  155.1640 O   0  0  0  0  0  0  0  0  0  0  0  0
  163.4800  210.6970  156.8730 C   0  0  0  0  0  1  0  0  0  0  0  0
  160.8610  211.1910  151.1480 C   0  0  0  0  0  2  0  0  0  0  0  0
  159.0380  211.3440  152.8640 C   0  0  2  0  0  3  0  0  0  0  0  0
  160.7830  207.9530  153.1690 C   0  0  0  0  0  3  0  0  0  0  0  0
  161.3400  211.9130  157.2590 C   0  0  0  0  0  2  0  0  0  0  0  0
  161.1870  209.8190  151.6670 C   0  0  0  0  0  0  0  0  0  0  0  0
  162.0830  209.0270  150.9410 C   0  0  0  0  0  3  0  0  0  0  0  0
  158.2130  212.2700  153.8010 C   0  0  0  0  0  2  0  0  0  0  0  0
  159.5930  211.7970  155.5060 C   0  0  1  0  0  3  0  0  0  0  0  0
  159.8300  211.9430  157.0000 C   0  0  0  0  0  2  0  0  0  0  0  0
  158.5490  213.0010  150.9180 O   0  0  0  0  0  0  0  0  0  0  0  0
  159.6460  213.0510  150.1220 C   0  0  2  0  0  3  0  0  0  0  0  0
  159.7470  213.3180  151.5370 N   0  0  2  0  0  0  0  0  0  0  0  0
  158.9830  213.6590  146.6200 C   0  0  1  0  0  3  0  0  0  0  0  0
  158.2380  214.4530  148.6100 C   0  0  0  0  0  2  0  0  0  0  0  0
  161.9620  214.2540  148.7710 O   0  0  0  0  0  1  0  0  0  0  0  0
  158.6980  212.7050  145.4790 C   0  0  0  0  0  1  0  0  0  0  0  0
  158.0850  213.4080  147.6750 O   0  0  0  0  0  0  0  0  0  0  0  0
  160.6870  214.4410  148.2370 C   0  0  2  0  0  3  0  0  0  0  0  0
  159.5960  214.3490  149.3130 C   0  0  2  0  0  3  0  0  0  0  0  0
  160.4240  213.4660  147.0940 C   0  0  0  0  0  2  0  0  0  0  0  0
  1  9  1  0  0  0  0
  1 14  1  0  0  0  0
  2  5  1  6  0  0  0
  2  3  1  0  0  0  0
  3  7  1  6  0  0  0
  3 19  1  0  0  0  0
  4 11  1  6  0  0  0
  4 15  1  0  0  0  0
  5 14  2  0  0  0  0
  6  1  2  0  0  0  0
  7  4  1  0  0  0  0
  8 12  1  6  0  0  0
  8 13  1  0  0  0  0
 10 19  1  0  0  0  0
 12 16  1  0  0  0  0
 13  2  1  0  0  0  0
 13 18  1  1  0  0  0
 16  5  1  0  0  0  0
 17  6  1  0  0  0  0
 17 16  2  0  0  0  0
 18 10  1  0  0  0  0
 19 20  1  1  0  0  0
 20 15  1  0  0  0  0
 22 21  1  1  0  0  0
 22 23  1  0  0  0  0
 23 21  1  1  0  0  0
 23  8  1  0  0  0  0
 24 27  1  6  0  0  0
 24 31  1  0  0  0  0
 24 28  1  0  0  0  0
 28 25  1  0  0  0  0
 29 26  1  1  0  0  0
 29 30  1  0  0  0  0
 30 25  1  6  0  0  0
 30 22  1  0  0  0  0
 31 29  1  0  0  0  0
M  END
>  <MODEL>
1

>  <REMARK>
 VINA RESULT:      -6.3      0.000      0.000
  Name = 
  2 active torsions:
  status: ('A' for Active; 'I' for Inactive)
    1  A    between atoms: C_5  and  C_30
    2  A    between atoms: C_10  and  N_16
                            x       y       z     vdW  Elec       q    Type
                         _______ _______ _______ _____ _____    ______ ____

>  <TORSDO>
F 2

$$$$
=
 OpenBabel11122413113D

 31 36  0  0  1  0  0  0  0  0999 V2000
  161.2170  208.5870  156.1170 C   0  0  0  0  0  0  0  0  0  0  0  0
  161.5530  210.5280  152.8700 C   0  0  2  0  0  3  0  0  0  0  0  0
  161.7410  209.4490  151.7740 C   0  0  1  0  0  3  0  0  0  0  0  0
  161.2760  207.2020  150.8080 C   0  0  1  0  0  3  0  0  0  0  0  0
  160.9840  210.0080  154.1640 C   0  0  0  0  0  0  0  0  0  0  0  0
  159.9220  208.9220  156.5200 C   0  0  0  0  0  3  0  0  0  0  0  0
  160.8300  208.2230  151.8580 C   0  0  0  0  0  2  0  0  0  0  0  0
  159.3230  211.5870  152.3870 C   0  0  2  0  0  3  0  0  0  0  0  0
  161.9780  207.7150  156.8840 O   0  0  0  0  0  1  0  0  0  0  0  0
  162.2360  211.2980  150.3530 O   0  0  0  0  0  0  0  0  0  0  0  0
  160.3540  206.0030  150.8430 C   0  0  0  0  0  1  0  0  0  0  0  0
  158.8590  211.3630  153.8290 C   0  0  0  0  0  2  0  0  0  0  0  0
  160.8450  211.8060  152.3630 C   0  0  2  0  0  3  0  0  0  0  0  0
  161.7470  209.1290  154.9440 C   0  0  0  0  0  3  0  0  0  0  0  0
  161.2750  207.8110  149.3980 C   0  0  0  0  0  2  0  0  0  0  0  0
  159.6740  210.3400  154.5680 C   0  0  0  0  0  0  0  0  0  0  0  0
  159.1560  209.8010  155.7500 C   0  0  0  0  0  3  0  0  0  0  0  0
  161.3490  212.2200  150.9530 C   0  0  0  0  0  2  0  0  0  0  0  0
  161.5830  210.0610  150.3870 C   0  0  1  0  0  3  0  0  0  0  0  0
  162.1130  209.0920  149.3430 C   0  0  0  0  0  2  0  0  0  0  0  0
  157.4910  212.2070  151.1900 O   0  0  0  0  0  0  0  0  0  0  0  0
  158.5360  212.5570  150.4000 C   0  0  2  0  0  3  0  0  0  0  0  0
  158.6030  212.7280  151.8320 N   0  0  2  0  0  0  0  0  0  0  0  0
  157.9460  213.3200  146.9160 C   0  0  1  0  0  3  0  0  0  0  0  0
  156.8980  213.6890  148.8940 C   0  0  0  0  0  2  0  0  0  0  0  0
  160.5240  214.4500  149.3510 O   0  0  0  0  0  1  0  0  0  0  0  0
  157.9940  212.4440  145.6820 C   0  0  0  0  0  1  0  0  0  0  0  0
  157.0850  212.7400  147.8680 O   0  0  0  0  0  0  0  0  0  0  0  0
  159.2800  214.3520  148.7290 C   0  0  2  0  0  3  0  0  0  0  0  0
  158.1910  213.8710  149.6980 C   0  0  2  0  0  3  0  0  0  0  0  0
  159.3550  213.4610  147.4920 C   0  0  0  0  0  2  0  0  0  0  0  0
  1  6  1  0  0  0  0
  1  9  1  0  0  0  0
  2  5  1  1  0  0  0
  3  7  1  1  0  0  0
  3  2  1  0  0  0  0
  4 11  1  6  0  0  0
  4  7  1  0  0  0  0
  5 16  2  0  0  0  0
  5 14  1  0  0  0  0
  8 12  1  1  0  0  0
 10 19  1  0  0  0  0
 10 18  1  0  0  0  0
 12 16  1  0  0  0  0
 13 18  1  6  0  0  0
 13  8  1  0  0  0  0
 13  2  1  0  0  0  0
 14  1  2  0  0  0  0
 15  4  1  0  0  0  0
 16 17  1  0  0  0  0
 17  6  2  0  0  0  0
 19 20  1  6  0  0  0
 19  3  1  0  0  0  0
 20 15  1  0  0  0  0
 22 21  1  1  0  0  0
 22 23  1  0  0  0  0
 23 21  1  1  0  0  0
 23  8  1  0  0  0  0
 24 27  1  6  0  0  0
 24 31  1  0  0  0  0
 24 28  1  0  0  0  0
 28 25  1  0  0  0  0
 29 26  1  1  0  0  0
 29 30  1  0  0  0  0
 30 25  1  6  0  0  0
 30 22  1  0  0  0  0
 31 29  1  0  0  0  0
M  END
>  <MODEL>
2

>  <REMARK>
 VINA RESULT:      -3.7      1.824      4.206
  Name = 
  2 active torsions:
  status: ('A' for Active; 'I' for Inactive)
    1  A    between atoms: C_5  and  C_30
    2  A    between atoms: C_10  and  N_16
                            x       y       z     vdW  Elec       q    Type
                         _______ _______ _______ _____ _____    ______ ____

>  <TORSDO>
F 2

$$$$
