=
 OpenBabel11122413043D

 32 37  0  0  1  0  0  0  0  0999 V2000
  161.1880  201.7190  150.5530 C   0  0  0  0  0  2  0  0  0  0  0  0
  160.8750  207.0990  151.8990 C   0  0  0  0  0  0  0  0  0  0  0  0
  162.0970  209.9300  148.1520 C   0  0  0  0  0  3  0  0  0  0  0  0
  162.4650  211.0170  149.0800 C   0  0  0  0  0  3  0  0  0  0  0  0
  160.9460  207.9270  154.2590 C   0  0  2  0  0  3  0  0  0  0  0  0
  161.1660  209.1820  155.1260 C   0  0  2  0  0  3  0  0  0  0  0  0
  160.5010  204.5920  151.5320 C   0  0  1  0  0  3  0  0  0  0  0  0
  160.8270  206.1600  149.5870 C   0  0  0  0  0  2  0  0  0  0  0  0
  159.5050  210.8480  154.4470 C   0  0  2  0  0  3  0  0  0  0  0  0
  161.1270  203.7100  149.1950 C   0  0  0  0  0  2  0  0  0  0  0  0
  161.8650  208.6910  148.5960 C   0  0  0  0  0  3  0  0  0  0  0  0
  161.1470  207.2630  150.4900 N   0  0  0  0  0  0  0  0  0  0  0  0
  162.0690  208.3170  150.0470 C   0  0  2  0  0  3  0  0  0  0  0  0
  161.6470  209.3950  152.2380 C   0  0  0  0  0  0  0  0  0  0  0  0
  158.9700  210.1140  155.6670 C   0  0  0  0  0  2  0  0  0  0  0  0
  161.9640  202.4710  151.6450 C   0  0  0  0  0  2  0  0  0  0  0  0
  161.2720  204.8510  150.2150 C   0  0  2  0  0  3  0  0  0  0  0  0
  160.0900  209.2210  156.1940 C   0  0  0  0  0  2  0  0  0  0  0  0
  161.1240  203.4990  152.4120 C   0  0  0  0  0  2  0  0  0  0  0  0
  160.3460  202.5900  149.7250 N   0  0  0  0  0  0  0  0  0  0  0  0
  162.4110  210.8370  150.4010 C   0  0  0  0  0  3  0  0  0  0  0  0
  162.0120  209.5260  150.9540 C   0  0  0  0  0  0  0  0  0  0  0  0
  161.6000  210.5430  153.0870 N   0  0  0  0  0  2  0  0  0  0  0  0
  160.1940  205.8380  152.3760 C   0  0  0  0  0  2  0  0  0  0  0  0
  161.8280  206.8180  154.8130 C   0  0  0  0  0  1  0  0  0  0  0  0
  158.7460  210.3730  153.2160 C   0  0  0  0  0  1  0  0  0  0  0  0
  161.1760  208.0920  152.7650 C   0  0  0  0  0  0  0  0  0  0  0  0
  160.9920  210.5110  154.4120 C   0  0  2  0  0  3  0  0  0  0  0  0
  159.9130  201.8020  148.5840 C   0  0  0  0  0  2  0  0  0  0  0  0
  161.0920  201.5120  147.6710 C   0  0  2  0  0  3  0  0  0  0  0  0
  160.6010  201.7950  145.9490 S   0  0  0  0  0  1  0  0  0  0  0  0
  161.4940  200.1850  147.8260 O   0  0  0  0  0  1  0  0  0  0  0  0
  1 16  1  0  0  0  0
  2 24  1  0  0  0  0
  2 27  2  0  0  0  0
  3 11  2  0  0  0  0
  3  4  1  0  0  0  0
  4 21  2  0  0  0  0
  5 25  1  1  0  0  0
  5  6  1  0  0  0  0
  6 18  1  1  0  0  0
  7 24  1  1  0  0  0
  7 19  1  0  0  0  0
  8 17  1  0  0  0  0
  8 12  1  0  0  0  0
  9 26  1  6  0  0  0
  9 15  1  0  0  0  0
 10 20  1  0  0  0  0
 12  2  1  0  0  0  0
 13 11  1  6  0  0  0
 13 12  1  0  0  0  0
 13 22  1  0  0  0  0
 14 27  1  0  0  0  0
 14 23  1  0  0  0  0
 15 18  1  0  0  0  0
 16 19  1  0  0  0  0
 17 10  1  6  0  0  0
 17  7  1  0  0  0  0
 20  1  1  0  0  0  0
 21 22  1  0  0  0  0
 22 14  2  0  0  0  0
 27  5  1  0  0  0  0
 28 23  1  6  0  0  0
 28  9  1  0  0  0  0
 28  6  1  0  0  0  0
 29 20  1  0  0  0  0
 30 31  1  6  0  0  0
 30 32  1  0  0  0  0
 30 29  1  0  0  0  0
M  END
>  <MODEL>
1

>  <REMARK>
 VINA RESULT:      -7.4      0.000      0.000
  Name = 
  2 active torsions:
  status: ('A' for Active; 'I' for Inactive)
    1  A    between atoms: N_20  and  C_29
    2  A    between atoms: C_29  and  C_30
                            x       y       z     vdW  Elec       q    Type
                         _______ _______ _______ _____ _____    ______ ____

>  <TORSDO>
F 2

$$$$
=
 OpenBabel11122413043D

 32 37  0  0  1  0  0  0  0  0999 V2000
  159.7830  214.3240  147.6060 C   0  0  0  0  0  2  0  0  0  0  0  0
  160.6350  211.1420  152.0780 C   0  0  0  0  0  0  0  0  0  0  0  0
  162.8050  206.9670  150.8870 C   0  0  0  0  0  3  0  0  0  0  0  0
  162.2530  206.3250  152.0960 C   0  0  0  0  0  3  0  0  0  0  0  0
  159.3500  211.4020  154.2090 C   0  0  2  0  0  3  0  0  0  0  0  0
  158.9920  210.7010  155.5340 C   0  0  2  0  0  3  0  0  0  0  0  0
  160.4620  213.0250  150.3500 C   0  0  1  0  0  3  0  0  0  0  0  0
  161.8430  210.9650  149.9010 C   0  0  0  0  0  2  0  0  0  0  0  0
  161.0880  210.2050  156.6980 C   0  0  2  0  0  3  0  0  0  0  0  0
  161.2030  212.4080  147.9620 C   0  0  0  0  0  2  0  0  0  0  0  0
  162.3680  208.1630  150.4810 C   0  0  0  0  0  3  0  0  0  0  0  0
  161.3470  210.3300  151.1190 N   0  0  0  0  0  0  0  0  0  0  0  0
  161.2220  208.8670  151.1720 C   0  0  2  0  0  3  0  0  0  0  0  0
  160.4740  209.1690  153.5150 C   0  0  0  0  0  0  0  0  0  0  0  0
  160.5340  211.5090  157.2520 C   0  0  0  0  0  2  0  0  0  0  0  0
  158.7390  213.7480  148.5740 C   0  0  0  0  0  2  0  0  0  0  0  0
  160.7740  211.8900  149.3450 C   0  0  2  0  0  3  0  0  0  0  0  0
  159.1390  211.7030  156.6630 C   0  0  0  0  0  2  0  0  0  0  0  0
  159.1640  213.7860  150.0460 C   0  0  0  0  0  2  0  0  0  0  0  0
  161.1520  213.8690  147.8790 N   0  0  0  0  0  0  0  0  0  0  0  0
  161.4290  206.9880  152.9090 C   0  0  0  0  0  3  0  0  0  0  0  0
  161.0300  208.3740  152.5890 C   0  0  0  0  0  0  0  0  0  0  0  0
  160.2940  208.6920  154.8500 N   0  0  0  0  0  2  0  0  0  0  0  0
  160.5050  212.6260  151.8330 C   0  0  0  0  0  2  0  0  0  0  0  0
  158.0580  211.9000  153.5810 C   0  0  0  0  0  1  0  0  0  0  0  0
  162.2800  210.5190  155.8050 C   0  0  0  0  0  1  0  0  0  0  0  0
  160.1460  210.5820  153.2070 C   0  0  0  0  0  0  0  0  0  0  0  0
  159.9190  209.5720  155.9500 C   0  0  2  0  0  3  0  0  0  0  0  0
  161.9630  214.2530  146.7370 C   0  0  0  0  0  2  0  0  0  0  0  0
  161.6500  213.3600  145.5490 C   0  0  2  0  0  3  0  0  0  0  0  0
  163.0890  213.2980  144.4490 S   0  0  0  0  0  1  0  0  0  0  0  0
  160.5550  213.8710  144.8500 O   0  0  0  0  0  1  0  0  0  0  0  0
  1 20  1  0  0  0  0
  1 16  1  0  0  0  0
  2 27  2  0  0  0  0
  3  4  1  0  0  0  0
  4 21  2  0  0  0  0
  5 25  1  6  0  0  0
  5  6  1  0  0  0  0
  6 28  1  0  0  0  0
  6 18  1  1  0  0  0
  7 19  1  6  0  0  0
  7 24  1  0  0  0  0
  8 12  1  0  0  0  0
  9 26  1  6  0  0  0
  9 15  1  0  0  0  0
 11  3  2  0  0  0  0
 12 13  1  0  0  0  0
 12  2  1  0  0  0  0
 13 11  1  1  0  0  0
 13 22  1  0  0  0  0
 14 23  1  0  0  0  0
 16 19  1  0  0  0  0
 17 10  1  6  0  0  0
 17  8  1  0  0  0  0
 17  7  1  0  0  0  0
 18 15  1  0  0  0  0
 20 10  1  0  0  0  0
 22 21  1  0  0  0  0
 22 14  2  0  0  0  0
 24  2  1  0  0  0  0
 27 14  1  0  0  0  0
 27  5  1  0  0  0  0
 28 23  1  6  0  0  0
 28  9  1  0  0  0  0
 29 20  1  0  0  0  0
 30 31  1  6  0  0  0
 30 29  1  0  0  0  0
 32 30  1  0  0  0  0
M  END
>  <MODEL>
2

>  <REMARK>
 VINA RESULT:      -6.0      4.372      7.321
  Name = 
  2 active torsions:
  status: ('A' for Active; 'I' for Inactive)
    1  A    between atoms: N_20  and  C_29
    2  A    between atoms: C_29  and  C_30
                            x       y       z     vdW  Elec       q    Type
                         _______ _______ _______ _____ _____    ______ ____

>  <TORSDO>
F 2

$$$$
