=
 OpenBabel11122414193D

 34 40  0  0  1  0  0  0  0  0999 V2000
  160.9240  207.9570  154.2230 C   0  0  0  0  0  0  0  0  0  0  0  0
  161.8850  205.8900  153.0970 C   0  0  0  0  0  2  0  0  0  0  0  0
  157.3650  213.4020  154.1290 C   0  0  0  0  0  0  0  0  0  0  0  0
  159.6750  209.8720  155.0440 C   0  0  0  0  0  0  0  0  0  0  0  0
  159.4490  211.9620  153.5500 C   0  0  2  0  0  3  0  0  0  0  0  0
  159.1260  214.2540  152.5840 C   0  0  0  0  0  1  0  0  0  0  0  0
  156.1980  213.4080  153.7740 O   0  0  0  0  0  0  0  0  0  0  0  0
  159.1460  213.6090  155.9230 C   0  0  0  0  0  2  0  0  0  0  0  0
  162.1710  208.0460  152.0270 C   0  0  2  0  0  3  0  0  0  0  0  0
  161.3170  207.8710  149.0520 N   0  0  0  0  0  0  0  0  0  0  0  0
  159.6580  210.9720  152.4110 C   0  0  0  0  0  2  0  0  0  0  0  0
  159.5020  212.1300  156.0840 C   0  0  0  0  0  2  0  0  0  0  0  0
  161.1370  209.1060  151.5900 C   0  0  1  0  0  3  0  0  0  0  0  0
  162.5960  205.6540  151.7750 C   0  0  0  0  0  2  0  0  0  0  0  0
  159.1010  211.2610  154.8840 C   0  0  2  0  0  3  0  0  0  0  0  0
  157.6820  213.8070  155.5470 C   0  0  0  0  0  2  0  0  0  0  0  0
  161.4860  206.8670  149.8650 C   0  0  0  0  0  0  0  0  0  0  0  0
  160.4470  209.2660  154.0280 C   0  0  0  0  0  0  0  0  0  0  0  0
  158.4200  213.0200  153.1120 C   0  0  2  0  0  3  0  0  0  0  0  0
  160.7990  210.0300  152.7710 C   0  0  2  0  0  3  0  0  0  0  0  0
  159.8190  207.8960  156.3660 C   0  0  0  0  0  3  0  0  0  0  0  0
  162.0710  209.1170  149.1770 C   0  0  0  0  0  2  0  0  0  0  0  0
  159.3750  209.1650  156.1690 N   0  0  0  0  0  0  0  0  0  0  0  0
  161.6270  209.9380  150.3940 C   0  0  0  0  0  2  0  0  0  0  0  0
  162.4980  206.9600  150.9890 C   0  0  1  0  0  3  0  0  0  0  0  0
  160.5990  207.2690  155.3970 C   0  0  0  0  0  3  0  0  0  0  0  0
  161.6980  207.3250  153.1950 N   0  0  0  0  0  0  0  0  0  0  0  0
  160.7240  205.7040  149.7120 O   0  0  0  0  0  0  0  0  0  0  0  0
  160.8800  204.8330  148.6010 C   0  0  0  0  0  2  0  0  0  0  0  0
  160.9280  201.2600  149.0520 O   0  0  0  0  0  0  0  0  0  0  0  0
  160.7450  203.0110  150.3780 C   0  0  0  0  0  3  0  0  0  0  0  0
  160.9000  203.4230  149.0730 C   0  0  0  0  0  0  0  0  0  0  0  0
  160.7770  201.6310  150.3050 C   0  0  0  0  0  3  0  0  0  0  0  0
  160.9990  202.3110  148.2720 C   0  0  0  0  0  3  0  0  0  0  0  0
  1 26  1  0  0  0  0
  2 27  1  0  0  0  0
  3 16  1  0  0  0  0
  4 23  2  0  0  0  0
  5 11  1  6  0  0  0
  5 15  1  0  0  0  0
  7  3  2  0  0  0  0
  8 12  1  0  0  0  0
  9 27  1  1  0  0  0
 10 22  1  0  0  0  0
 10 17  2  0  0  0  0
 13 24  1  6  0  0  0
 13  9  1  0  0  0  0
 13 20  1  0  0  0  0
 14  2  1  0  0  0  0
 15  4  1  0  0  0  0
 15 12  1  1  0  0  0
 16  8  1  0  0  0  0
 17 25  1  0  0  0  0
 18  1  2  0  0  0  0
 18  4  1  0  0  0  0
 19  6  1  1  0  0  0
 19  5  1  0  0  0  0
 19  3  1  0  0  0  0
 20 11  1  6  0  0  0
 20 18  1  0  0  0  0
 22 24  1  0  0  0  0
 23 21  1  0  0  0  0
 25 14  1  1  0  0  0
 25  9  1  0  0  0  0
 26 21  2  0  0  0  0
 27  1  1  0  0  0  0
 28 17  1  0  0  0  0
 29 32  1  0  0  0  0
 29 28  1  0  0  0  0
 30 33  1  0  0  0  0
 32 31  1  0  0  0  0
 33 31  2  0  0  0  0
 34 30  1  0  0  0  0
 34 32  2  0  0  0  0
M  END
>  <MODEL>
1

>  <REMARK>
 VINA RESULT:      -9.2      0.000      0.000
  Name = 
  3 active torsions:
  status: ('A' for Active; 'I' for Inactive)
    1  A    between atoms: C_17  and  O_28
    2  A    between atoms: O_28  and  C_29
    3  A    between atoms: C_29  and  C_32
                            x       y       z     vdW  Elec       q    Type
                         _______ _______ _______ _____ _____    ______ ____

>  <TORSDO>
F 3

$$$$
=
 OpenBabel11122414193D

 34 40  0  0  1  0  0  0  0  0999 V2000
  160.8410  207.9400  154.3280 C   0  0  0  0  0  0  0  0  0  0  0  0
  161.6640  205.7470  153.3400 C   0  0  0  0  0  2  0  0  0  0  0  0
  157.6230  213.5760  153.8770 C   0  0  0  0  0  0  0  0  0  0  0  0
  159.7170  209.9790  155.0210 C   0  0  0  0  0  0  0  0  0  0  0  0
  159.6100  211.9740  153.3890 C   0  0  2  0  0  3  0  0  0  0  0  0
  159.4200  214.2120  152.2720 C   0  0  0  0  0  1  0  0  0  0  0  0
  156.4550  213.6300  153.5270 O   0  0  0  0  0  0  0  0  0  0  0  0
  159.4260  213.7930  155.6470 C   0  0  0  0  0  2  0  0  0  0  0  0
  162.0740  207.8050  152.1260 C   0  0  2  0  0  3  0  0  0  0  0  0
  161.1890  207.4830  149.1730 N   0  0  0  0  0  0  0  0  0  0  0  0
  159.7490  210.8990  152.3200 C   0  0  0  0  0  2  0  0  0  0  0  0
  159.6920  212.3090  155.9070 C   0  0  0  0  0  2  0  0  0  0  0  0
  161.1050  208.8940  151.6220 C   0  0  1  0  0  3  0  0  0  0  0  0
  162.3500  205.3790  152.0350 C   0  0  0  0  0  2  0  0  0  0  0  0
  159.2290  211.3880  154.7700 C   0  0  2  0  0  3  0  0  0  0  0  0
  157.9740  214.0550  155.2640 C   0  0  0  0  0  2  0  0  0  0  0  0
  161.3030  206.5270  150.0510 C   0  0  0  0  0  0  0  0  0  0  0  0
  160.4440  209.2600  154.0460 C   0  0  0  0  0  0  0  0  0  0  0  0
  158.6440  213.0620  152.8850 C   0  0  2  0  0  3  0  0  0  0  0  0
  160.8330  209.9150  152.7390 C   0  0  2  0  0  3  0  0  0  0  0  0
  159.7500  208.0920  156.4730 C   0  0  0  0  0  3  0  0  0  0  0  0
  162.0190  208.6850  149.2100 C   0  0  0  0  0  2  0  0  0  0  0  0
  159.3840  209.3700  156.1930 N   0  0  0  0  0  0  0  0  0  0  0  0
  161.6360  209.6120  150.3700 C   0  0  0  0  0  2  0  0  0  0  0  0
  162.3270  206.6320  151.1630 C   0  0  1  0  0  3  0  0  0  0  0  0
  160.4830  207.3540  155.5460 C   0  0  0  0  0  3  0  0  0  0  0  0
  161.5670  207.1940  153.3420 N   0  0  0  0  0  0  0  0  0  0  0  0
  160.4690  205.4060  149.9800 O   0  0  0  0  0  0  0  0  0  0  0  0
  160.9780  204.0800  149.9480 C   0  0  0  0  0  2  0  0  0  0  0  0
  161.1340  202.3400  146.7980 O   0  0  0  0  0  0  0  0  0  0  0  0
  161.5410  204.3960  147.4830 C   0  0  0  0  0  3  0  0  0  0  0  0
  161.1010  203.6270  148.5370 C   0  0  0  0  0  0  0  0  0  0  0  0
  161.5350  203.5300  146.4050 C   0  0  0  0  0  3  0  0  0  0  0  0
  160.8670  202.3510  148.0820 C   0  0  0  0  0  3  0  0  0  0  0  0
  1 26  1  0  0  0  0
  2 27  1  0  0  0  0
  3 16  1  0  0  0  0
  4 23  2  0  0  0  0
  5 11  1  6  0  0  0
  5 15  1  0  0  0  0
  7  3  2  0  0  0  0
  8 12  1  0  0  0  0
  9 27  1  1  0  0  0
 10 22  1  0  0  0  0
 10 17  2  0  0  0  0
 13 24  1  6  0  0  0
 13  9  1  0  0  0  0
 13 20  1  0  0  0  0
 14  2  1  0  0  0  0
 15  4  1  0  0  0  0
 15 12  1  1  0  0  0
 16  8  1  0  0  0  0
 17 25  1  0  0  0  0
 18  1  2  0  0  0  0
 18  4  1  0  0  0  0
 19  6  1  1  0  0  0
 19  5  1  0  0  0  0
 19  3  1  0  0  0  0
 20 11  1  6  0  0  0
 20 18  1  0  0  0  0
 22 24  1  0  0  0  0
 23 21  1  0  0  0  0
 25 14  1  1  0  0  0
 25  9  1  0  0  0  0
 26 21  2  0  0  0  0
 27  1  1  0  0  0  0
 28 17  1  0  0  0  0
 29 28  1  0  0  0  0
 30 34  1  0  0  0  0
 31 32  1  0  0  0  0
 32 29  1  0  0  0  0
 33 30  1  0  0  0  0
 33 31  2  0  0  0  0
 34 32  2  0  0  0  0
M  END
>  <MODEL>
2

>  <REMARK>
 VINA RESULT:      -8.5      0.729      1.117
  Name = 
  3 active torsions:
  status: ('A' for Active; 'I' for Inactive)
    1  A    between atoms: C_17  and  O_28
    2  A    between atoms: O_28  and  C_29
    3  A    between atoms: C_29  and  C_32
                            x       y       z     vdW  Elec       q    Type
                         _______ _______ _______ _____ _____    ______ ____

>  <TORSDO>
F 3

$$$$
=
 OpenBabel11122414193D

 34 40  0  0  1  0  0  0  0  0999 V2000
  161.6390  207.7480  149.4760 C   0  0  0  0  0  0  0  0  0  0  0  0
  161.6930  210.0230  150.6100 C   0  0  0  0  0  2  0  0  0  0  0  0
  159.6390  201.5680  149.1240 C   0  0  0  0  0  0  0  0  0  0  0  0
  161.1910  205.5530  148.5370 C   0  0  0  0  0  0  0  0  0  0  0  0
  161.0450  203.5170  150.1130 C   0  0  2  0  0  3  0  0  0  0  0  0
  161.0150  201.2450  151.1770 C   0  0  0  0  0  1  0  0  0  0  0  0
  158.4570  201.2670  149.1370 O   0  0  0  0  0  0  0  0  0  0  0  0
  161.8660  201.7860  147.9290 C   0  0  0  0  0  2  0  0  0  0  0  0
  162.1630  208.0450  151.9300 C   0  0  2  0  0  3  0  0  0  0  0  0
  160.4500  208.0690  154.5140 N   0  0  0  0  0  0  0  0  0  0  0  0
  160.6620  204.5560  151.1570 C   0  0  0  0  0  2  0  0  0  0  0  0
  161.8860  203.3020  147.7250 C   0  0  0  0  0  2  0  0  0  0  0  0
  161.3340  206.7650  152.1660 C   0  0  1  0  0  3  0  0  0  0  0  0
  161.9030  210.4710  152.0470 C   0  0  0  0  0  2  0  0  0  0  0  0
  160.9490  204.0670  148.6700 C   0  0  2  0  0  3  0  0  0  0  0  0
  160.4500  201.2230  147.8990 C   0  0  0  0  0  2  0  0  0  0  0  0
  160.6050  209.0610  153.6830 C   0  0  0  0  0  0  0  0  0  0  0  0
  161.4570  206.3660  149.6610 C   0  0  0  0  0  0  0  0  0  0  0  0
  160.2200  202.2380  150.3500 C   0  0  2  0  0  3  0  0  0  0  0  0
  161.5950  205.7530  151.0370 C   0  0  2  0  0  3  0  0  0  0  0  0
  161.2370  207.4630  147.1150 C   0  0  0  0  0  3  0  0  0  0  0  0
  161.4850  207.0600  154.7320 C   0  0  0  0  0  2  0  0  0  0  0  0
  161.0760  206.1280  147.3070 N   0  0  0  0  0  0  0  0  0  0  0  0
  161.6340  206.1210  153.5290 C   0  0  0  0  0  2  0  0  0  0  0  0
  161.8950  209.2060  152.9030 C   0  0  1  0  0  3  0  0  0  0  0  0
  161.5200  208.2970  148.1940 C   0  0  0  0  0  3  0  0  0  0  0  0
  161.8970  208.5870  150.6100 N   0  0  0  0  0  0  0  0  0  0  0  0
  159.5740  209.9880  153.4990 O   0  0  0  0  0  0  0  0  0  0  0  0
  159.3110  211.0300  154.4280 C   0  0  0  0  0  2  0  0  0  0  0  0
  158.2200  214.2750  153.3080 O   0  0  0  0  0  0  0  0  0  0  0  0
  158.6590  212.3420  152.3430 C   0  0  0  0  0  3  0  0  0  0  0  0
  158.8920  212.2550  153.6970 C   0  0  0  0  0  0  0  0  0  0  0  0
  158.2420  213.6460  152.1530 C   0  0  0  0  0  3  0  0  0  0  0  0
  158.6000  213.4690  154.2710 C   0  0  0  0  0  3  0  0  0  0  0  0
  1 18  1  0  0  0  0
  1 27  1  0  0  0  0
  2 27  1  0  0  0  0
  2 14  1  0  0  0  0
  3  7  2  0  0  0  0
  3 19  1  0  0  0  0
  4 15  1  0  0  0  0
  4 18  2  0  0  0  0
  5 19  1  0  0  0  0
  5 11  1  1  0  0  0
  9 27  1  6  0  0  0
  9 13  1  0  0  0  0
  9 25  1  0  0  0  0
 10 22  1  0  0  0  0
 12  8  1  0  0  0  0
 13 24  1  1  0  0  0
 15 12  1  6  0  0  0
 15  5  1  0  0  0  0
 16  8  1  0  0  0  0
 16  3  1  0  0  0  0
 17 10  2  0  0  0  0
 18 20  1  0  0  0  0
 19  6  1  6  0  0  0
 20 11  1  6  0  0  0
 20 13  1  0  0  0  0
 21 23  2  0  0  0  0
 21 26  1  0  0  0  0
 23  4  1  0  0  0  0
 24 22  1  0  0  0  0
 25 14  1  6  0  0  0
 25 17  1  0  0  0  0
 26  1  2  0  0  0  0
 28 17  1  0  0  0  0
 28 29  1  0  0  0  0
 30 34  1  0  0  0  0
 31 32  1  0  0  0  0
 32 34  2  0  0  0  0
 32 29  1  0  0  0  0
 33 31  2  0  0  0  0
 33 30  1  0  0  0  0
M  END
>  <MODEL>
3

>  <REMARK>
 VINA RESULT:      -7.9      1.629      9.125
  Name = 
  3 active torsions:
  status: ('A' for Active; 'I' for Inactive)
    1  A    between atoms: C_17  and  O_28
    2  A    between atoms: O_28  and  C_29
    3  A    between atoms: C_29  and  C_32
                            x       y       z     vdW  Elec       q    Type
                         _______ _______ _______ _____ _____    ______ ____

>  <TORSDO>
F 3

$$$$
