=
 OpenBabel11122414413D

 34 40  0  0  1  0  0  0  0  0999 V2000
  161.1270  207.9410  154.1420 C   0  0  1  0  0  3  0  0  0  0  0  0
  162.2300  206.1880  152.8660 C   0  0  0  0  0  2  0  0  0  0  0  0
  157.3090  213.2880  154.1690 C   0  0  1  0  0  3  0  0  0  0  0  0
  159.8490  209.7620  155.3080 C   0  0  2  0  0  3  0  0  0  0  0  0
  159.5780  211.9570  154.1030 C   0  0  2  0  0  3  0  0  0  0  0  0
  159.1720  214.0420  152.6450 C   0  0  0  0  0  1  0  0  0  0  0  0
  156.6730  212.2260  153.5180 O   0  0  0  0  0  1  0  0  0  0  0  0
  157.1120  211.9940  156.2910 N   0  0  0  0  0  2  0  0  0  0  0  0
  162.0710  208.2870  152.0460 C   0  0  2  0  0  3  0  0  0  0  0  0
  161.5640  208.8530  148.9630 C   0  0  0  0  0  2  0  0  0  0  0  0
  159.8630  211.2150  152.7950 C   0  0  0  0  0  2  0  0  0  0  0  0
  158.5190  211.6290  156.3860 C   0  0  0  0  0  2  0  0  0  0  0  0
  161.2070  209.5280  151.7590 C   0  0  1  0  0  3  0  0  0  0  0  0
  162.8640  206.1210  151.4790 C   0  0  0  0  0  2  0  0  0  0  0  0
  158.9350  210.9650  155.0830 C   0  0  2  0  0  3  0  0  0  0  0  0
  156.9910  213.3120  155.6690 C   0  0  0  0  0  2  0  0  0  0  0  0
  161.7730  207.4790  149.6290 C   0  0  1  0  0  3  0  0  0  0  0  0
  160.2120  209.1600  153.9360 C   0  0  1  0  0  3  0  0  0  0  0  0
  158.8180  213.2940  153.9220 C   0  0  1  0  0  3  0  0  0  0  0  0
  160.8460  210.1570  153.0460 N   0  0  2  0  0  0  0  0  0  0  0  0
  160.0960  207.7750  156.3900 C   0  0  0  0  0  2  0  0  0  0  0  0
  162.4580  209.9600  149.5260 C   0  0  0  0  0  2  0  0  0  0  0  0
  159.1700  208.7910  156.0750 O   0  0  0  0  0  0  0  0  0  0  0  0
  161.9430  210.5340  150.8540 C   0  0  0  0  0  2  0  0  0  0  0  0
  162.6700  207.5110  150.8860 C   0  0  1  0  0  3  0  0  0  0  0  0
  160.4610  206.9860  155.1320 C   0  0  0  0  0  2  0  0  0  0  0  0
  161.3240  207.3260  152.8350 N   0  0  2  0  0  0  0  0  0  0  0  0
  160.5280  206.9040  149.9080 O   0  0  0  0  0  0  0  0  0  0  0  0
  160.1880  206.1950  148.7530 C   0  0  0  0  0  2  0  0  0  0  0  0
  161.4290  203.0510  147.8960 C   0  0  0  0  0  2  0  0  0  0  0  0
  161.3140  205.2170  146.9560 C   0  0  0  0  0  2  0  0  0  0  0  0
  161.2650  205.2820  148.4070 N   0  0  0  0  0  0  0  0  0  0  0  0
  161.5880  203.7830  146.5920 C   0  0  0  0  0  2  0  0  0  0  0  0
  160.8860  204.0020  148.8530 N   0  0  0  0  0  2  0  0  0  0  0  0
  1 26  1  1  0  0  0
  3  7  1  1  0  0  0
  3 16  1  0  0  0  0
  4 23  1  1  0  0  0
  5 11  1  6  0  0  0
  5 15  1  0  0  0  0
  6 19  1  0  0  0  0
  8 12  1  0  0  0  0
  9 27  1  0  0  0  0
 10 22  1  0  0  0  0
 10 17  1  0  0  0  0
 11 20  1  0  0  0  0
 13  9  1  0  0  0  0
 13 20  1  0  0  0  0
 14  2  1  0  0  0  0
 15  4  1  0  0  0  0
 15 12  1  0  0  0  0
 16  8  1  0  0  0  0
 17 28  1  0  0  0  0
 17 25  1  0  0  0  0
 18  1  1  0  0  0  0
 18  4  1  0  0  0  0
 19  5  1  0  0  0  0
 19  3  1  0  0  0  0
 20 18  1  0  0  0  0
 22 24  1  0  0  0  0
 23 21  1  0  0  0  0
 24 13  1  0  0  0  0
 25 14  1  0  0  0  0
 25  9  1  0  0  0  0
 26 21  1  0  0  0  0
 27  2  1  0  0  0  0
 27  1  1  0  0  0  0
 29 28  1  0  0  0  0
 30 34  1  0  0  0  0
 31 32  1  0  0  0  0
 32 29  1  0  0  0  0
 32 34  1  0  0  0  0
 33 31  1  0  0  0  0
 33 30  1  0  0  0  0
M  END
>  <MODEL>
1

>  <REMARK>
 VINA RESULT:      -7.5      0.000      0.000
  Name = 
  3 active torsions:
  status: ('A' for Active; 'I' for Inactive)
    1  A    between atoms: C_17  and  O_28
    2  A    between atoms: O_28  and  C_29
    3  A    between atoms: C_29  and  N_32
                            x       y       z     vdW  Elec       q    Type
                         _______ _______ _______ _____ _____    ______ ____

>  <TORSDO>
F 3

$$$$
=
 OpenBabel11122414413D

 34 40  0  0  1  0  0  0  0  0999 V2000
  161.7390  209.8890  152.1410 C   0  0  1  0  0  3  0  0  0  0  0  0
  161.2400  211.5720  153.8250 C   0  0  0  0  0  2  0  0  0  0  0  0
  160.6740  203.8550  149.7700 C   0  0  1  0  0  3  0  0  0  0  0  0
  162.0650  208.0750  150.4360 C   0  0  2  0  0  3  0  0  0  0  0  0
  161.8860  205.6880  151.2190 C   0  0  2  0  0  3  0  0  0  0  0  0
  161.4230  203.3180  152.1190 C   0  0  0  0  0  1  0  0  0  0  0  0
  159.4730  204.5610  149.8920 O   0  0  0  0  0  1  0  0  0  0  0  0
  161.3360  205.4550  147.9770 N   0  0  0  0  0  2  0  0  0  0  0  0
  161.3360  209.3830  154.3740 C   0  0  2  0  0  3  0  0  0  0  0  0
  159.3520  208.0920  156.4910 C   0  0  0  0  0  2  0  0  0  0  0  0
  161.0930  206.1970  152.4250 C   0  0  0  0  0  2  0  0  0  0  0  0
  162.3180  206.1840  148.7680 C   0  0  0  0  0  2  0  0  0  0  0  0
  160.9340  207.9290  154.0680 C   0  0  1  0  0  3  0  0  0  0  0  0
  160.8820  211.5190  155.3090 C   0  0  0  0  0  2  0  0  0  0  0  0
  161.6510  206.6550  150.0510 C   0  0  2  0  0  3  0  0  0  0  0  0
  161.3180  204.0540  148.3930 C   0  0  0  0  0  2  0  0  0  0  0  0
  159.4420  209.5790  156.0950 C   0  0  1  0  0  3  0  0  0  0  0  0
  161.3390  208.4590  151.7400 C   0  0  1  0  0  3  0  0  0  0  0  0
  161.6560  204.1910  150.8950 C   0  0  1  0  0  3  0  0  0  0  0  0
  161.6220  207.5020  152.8320 N   0  0  2  0  0  0  0  0  0  0  0  0
  162.2240  210.2340  149.7350 C   0  0  0  0  0  2  0  0  0  0  0  0
  160.7090  207.3930  156.5980 C   0  0  0  0  0  2  0  0  0  0  0  0
  161.6860  208.9710  149.4130 O   0  0  0  0  0  0  0  0  0  0  0  0
  161.2870  206.9860  155.2350 C   0  0  0  0  0  2  0  0  0  0  0  0
  160.8510  210.0360  155.6570 C   0  0  1  0  0  3  0  0  0  0  0  0
  161.5030  210.8190  150.9510 C   0  0  0  0  0  2  0  0  0  0  0  0
  160.9220  210.2560  153.2930 N   0  0  2  0  0  0  0  0  0  0  0  0
  158.4890  209.8550  155.1080 O   0  0  0  0  0  0  0  0  0  0  0  0
  157.5790  210.7260  155.7150 C   0  0  0  0  0  2  0  0  0  0  0  0
  155.6170  213.3250  154.4690 C   0  0  0  0  0  2  0  0  0  0  0  0
  157.6010  212.1800  153.8870 C   0  0  0  0  0  2  0  0  0  0  0  0
  156.7380  211.3360  154.6980 N   0  0  0  0  0  0  0  0  0  0  0  0
  156.8250  213.4310  153.5790 C   0  0  0  0  0  2  0  0  0  0  0  0
  155.8440  212.1970  155.3600 N   0  0  0  0  0  2  0  0  0  0  0  0
  1 26  1  6  0  0  0
  1 27  1  0  0  0  0
  2 14  1  0  0  0  0
  3  7  1  6  0  0  0
  3 19  1  0  0  0  0
  4 23  1  6  0  0  0
  4 18  1  0  0  0  0
  5 11  1  1  0  0  0
  8 16  1  0  0  0  0
  8 12  1  0  0  0  0
  9 25  1  0  0  0  0
 10 22  1  0  0  0  0
 11 20  1  0  0  0  0
 12 15  1  0  0  0  0
 13  9  1  0  0  0  0
 13 24  1  0  0  0  0
 14 25  1  0  0  0  0
 15  4  1  0  0  0  0
 15  5  1  0  0  0  0
 16  3  1  0  0  0  0
 17 10  1  0  0  0  0
 18  1  1  0  0  0  0
 18 20  1  0  0  0  0
 19  5  1  0  0  0  0
 19  6  1  0  0  0  0
 20 13  1  0  0  0  0
 21 26  1  0  0  0  0
 23 21  1  0  0  0  0
 24 22  1  0  0  0  0
 25 17  1  0  0  0  0
 27  2  1  0  0  0  0
 27  9  1  0  0  0  0
 28 29  1  0  0  0  0
 28 17  1  0  0  0  0
 30 34  1  0  0  0  0
 31 32  1  0  0  0  0
 32 34  1  0  0  0  0
 32 29  1  0  0  0  0
 33 31  1  0  0  0  0
 33 30  1  0  0  0  0
M  END
>  <MODEL>
2

>  <REMARK>
 VINA RESULT:      -5.7      1.481      8.186
  Name = 
  3 active torsions:
  status: ('A' for Active; 'I' for Inactive)
    1  A    between atoms: C_17  and  O_28
    2  A    between atoms: O_28  and  C_29
    3  A    between atoms: C_29  and  N_32
                            x       y       z     vdW  Elec       q    Type
                         _______ _______ _______ _____ _____    ______ ____

>  <TORSDO>
F 3

$$$$
=
 OpenBabel11122414413D

 34 40  0  0  1  0  0  0  0  0999 V2000
  161.3110  208.5870  153.7060 C   0  0  1  0  0  3  0  0  0  0  0  0
  162.2840  206.4940  152.9360 C   0  0  0  0  0  2  0  0  0  0  0  0
  157.8640  214.0030  152.3130 C   0  0  1  0  0  3  0  0  0  0  0  0
  160.1660  210.7270  154.3500 C   0  0  2  0  0  3  0  0  0  0  0  0
  160.0370  212.5510  152.6170 C   0  0  2  0  0  3  0  0  0  0  0  0
  159.7640  214.2130  150.6680 C   0  0  0  0  0  1  0  0  0  0  0  0
  157.1540  212.8550  151.9500 O   0  0  0  0  0  1  0  0  0  0  0  0
  157.5930  213.3160  154.6940 N   0  0  0  0  0  2  0  0  0  0  0  0
  162.2620  208.3170  151.6020 C   0  0  2  0  0  3  0  0  0  0  0  0
  161.7760  208.1030  148.4720 C   0  0  0  0  0  2  0  0  0  0  0  0
  160.2630  211.4800  151.5470 C   0  0  0  0  0  2  0  0  0  0  0  0
  158.9730  212.8940  154.8960 C   0  0  0  0  0  2  0  0  0  0  0  0
  161.4830  209.4970  150.9950 C   0  0  1  0  0  3  0  0  0  0  0  0
  162.9030  206.0300  151.6200 C   0  0  0  0  0  2  0  0  0  0  0  0
  159.3350  211.8910  153.8120 C   0  0  2  0  0  3  0  0  0  0  0  0
  157.5580  214.4340  153.7530 C   0  0  0  0  0  2  0  0  0  0  0  0
  161.8950  206.9360  149.4710 C   0  0  1  0  0  3  0  0  0  0  0  0
  160.4790  209.7690  153.1830 C   0  0  1  0  0  3  0  0  0  0  0  0
  159.3690  213.8450  152.0900 C   0  0  1  0  0  3  0  0  0  0  0  0
  161.1730  210.4590  152.0740 N   0  0  2  0  0  0  0  0  0  0  0  0
  160.2850  209.0740  155.9090 C   0  0  0  0  0  2  0  0  0  0  0  0
  162.7460  209.2550  148.7410 C   0  0  0  0  0  2  0  0  0  0  0  0
  159.4280  210.0340  155.3330 O   0  0  0  0  0  0  0  0  0  0  0  0
  162.2800  210.1850  149.8700 C   0  0  0  0  0  2  0  0  0  0  0  0
  162.8010  207.2300  150.6880 C   0  0  1  0  0  3  0  0  0  0  0  0
  160.5880  207.9640  154.9000 C   0  0  0  0  0  2  0  0  0  0  0  0
  161.4580  207.6440  152.6030 N   0  0  2  0  0  0  0  0  0  0  0  0
  160.6160  206.5370  149.8740 O   0  0  0  0  0  0  0  0  0  0  0  0
  160.2950  205.4550  149.0490 C   0  0  0  0  0  2  0  0  0  0  0  0
  160.8060  202.4440  150.7310 C   0  0  0  0  0  2  0  0  0  0  0  0
  160.1730  204.6620  151.2430 C   0  0  0  0  0  2  0  0  0  0  0  0
  159.8450  204.3380  149.8640 N   0  0  0  0  0  0  0  0  0  0  0  0
  160.6530  203.3920  151.8880 C   0  0  0  0  0  2  0  0  0  0  0  0
  160.6320  203.2250  149.5170 N   0  0  0  0  0  2  0  0  0  0  0  0
  1 26  1  1  0  0  0
  3  7  1  1  0  0  0
  3 16  1  0  0  0  0
  4 23  1  1  0  0  0
  5 11  1  6  0  0  0
  5 15  1  0  0  0  0
  6 19  1  0  0  0  0
  8 12  1  0  0  0  0
  9 27  1  0  0  0  0
 10 22  1  0  0  0  0
 10 17  1  0  0  0  0
 11 20  1  0  0  0  0
 13  9  1  0  0  0  0
 13 20  1  0  0  0  0
 14  2  1  0  0  0  0
 15  4  1  0  0  0  0
 15 12  1  0  0  0  0
 16  8  1  0  0  0  0
 17 28  1  0  0  0  0
 17 25  1  0  0  0  0
 18  1  1  0  0  0  0
 18  4  1  0  0  0  0
 19  3  1  0  0  0  0
 19  5  1  0  0  0  0
 20 18  1  0  0  0  0
 22 24  1  0  0  0  0
 23 21  1  0  0  0  0
 24 13  1  0  0  0  0
 25  9  1  0  0  0  0
 25 14  1  0  0  0  0
 26 21  1  0  0  0  0
 27  2  1  0  0  0  0
 27  1  1  0  0  0  0
 29 32  1  0  0  0  0
 29 28  1  0  0  0  0
 30 33  1  0  0  0  0
 31 33  1  0  0  0  0
 32 31  1  0  0  0  0
 34 32  1  0  0  0  0
 34 30  1  0  0  0  0
M  END
>  <MODEL>
3

>  <REMARK>
 VINA RESULT:      -4.7      1.410      1.849
  Name = 
  3 active torsions:
  status: ('A' for Active; 'I' for Inactive)
    1  A    between atoms: C_17  and  O_28
    2  A    between atoms: O_28  and  C_29
    3  A    between atoms: C_29  and  N_32
                            x       y       z     vdW  Elec       q    Type
                         _______ _______ _______ _____ _____    ______ ____

>  <TORSDO>
F 3

$$$$
