=
 OpenBabel11122414013D

 37 43  0  0  1  0  0  0  0  0999 V2000
  160.7690  206.2660  150.0760 C   0  0  1  0  0  3  0  0  0  0  0  0
  160.4810  209.0190  151.9980 O   0  0  0  0  0  0  0  0  0  0  0  0
  160.8550  205.5450  147.5480 C   0  0  2  0  0  3  0  0  0  0  0  0
  161.5360  207.4700  150.5110 C   0  0  2  0  0  3  0  0  0  0  0  0
  160.5590  206.6300  148.6010 C   0  0  2  0  0  3  0  0  0  0  0  0
  161.3300  207.9010  151.9660 C   0  0  2  0  0  3  0  0  0  0  0  0
  161.8180  204.4770  148.0360 C   0  0  0  0  0  2  0  0  0  0  0  0
  161.2110  207.8540  148.3550 O   0  0  0  0  0  0  0  0  0  0  0  0
  161.2290  204.5970  151.6750 C   0  0  0  0  0  2  0  0  0  0  0  0
  161.3680  204.0230  149.4100 C   0  0  0  0  0  2  0  0  0  0  0  0
  162.7270  210.2370  151.9060 C   0  0  0  0  0  2  0  0  0  0  0  0
  161.2070  210.2470  152.0410 C   0  0  1  0  0  3  0  0  0  0  0  0
  161.6150  205.0990  150.3590 N   0  0  1  0  0  0  0  0  0  0  0  0
  161.1700  208.5000  149.5560 N   0  0  2  0  0  0  0  0  0  0  0  0
  160.8440  206.7810  152.9060 C   0  0  1  0  0  3  0  0  0  0  0  0
  161.8860  210.6110  150.6960 C   0  0  2  0  0  3  0  0  0  0  0  0
  162.1940  209.5480  149.6160 C   0  0  2  0  0  3  0  0  0  0  0  0
  161.7120  205.5190  152.8000 C   0  0  0  0  0  2  0  0  0  0  0  0
  159.8730  206.6910  155.2070 C   0  0  0  0  0  3  0  0  0  0  0  0
  160.7990  207.2590  154.3240 C   0  0  0  0  0  0  0  0  0  0  0  0
  161.6610  208.2690  154.7800 C   0  0  0  0  0  3  0  0  0  0  0  0
  162.4700  209.7260  156.5640 N   0  0  0  0  0  1  0  0  0  0  0  0
  160.6680  208.1320  156.9840 C   0  0  0  0  0  3  0  0  0  0  0  0
  161.5950  208.7030  156.1060 C   0  0  0  0  0  0  0  0  0  0  0  0
  159.8070  207.1260  156.5330 C   0  0  0  0  0  3  0  0  0  0  0  0
  162.3450  210.2700  148.2790 C   0  0  0  0  0  2  0  0  0  0  0  0
  162.1360  211.7670  148.4490 C   0  0  0  0  0  0  0  0  0  0  0  0
  163.3980  212.5950  148.4350 C   0  0  0  0  0  2  0  0  0  0  0  0
  162.4600  212.6040  147.2360 C   0  0  0  0  0  2  0  0  0  0  0  0
  161.0060  212.3120  149.3180 C   0  0  0  0  0  2  0  0  0  0  0  0
  160.3990  213.5730  148.7220 C   0  0  0  0  0  2  0  0  0  0  0  0
  159.1290  213.3020  148.2120 O   0  0  0  0  0  1  0  0  0  0  0  0
  161.3250  206.1080  146.3490 O   0  0  0  0  0  0  0  0  0  0  0  0
  160.5820  205.5610  145.2840 C   0  0  0  0  0  0  0  0  0  0  0  0
  160.6110  204.1750  145.3220 F   0  0  0  0  0  0  0  0  0  0  0  0
  159.2690  206.0050  145.3200 F   0  0  0  0  0  0  0  0  0  0  0  0
  161.1480  205.9760  144.0940 F   0  0  0  0  0  0  0  0  0  0  0  0
  1 13  1  0  0  0  0
  1  4  1  0  0  0  0
  2 12  1  0  0  0  0
  3  7  1  0  0  0  0
  3  5  1  0  0  0  0
  4  6  1  0  0  0  0
  5  1  1  0  0  0  0
  6  2  1  0  0  0  0
  6 15  1  0  0  0  0
  7 10  1  0  0  0  0
  8  5  1  0  0  0  0
  8 14  1  0  0  0  0
  9 18  1  0  0  0  0
 10 13  1  0  0  0  0
 11 12  1  0  0  0  0
 13  9  1  0  0  0  0
 14 17  1  0  0  0  0
 14  4  1  0  0  0  0
 15 20  1  0  0  0  0
 16 11  1  0  0  0  0
 16 12  1  0  0  0  0
 17 16  1  0  0  0  0
 18 15  1  0  0  0  0
 19 25  1  0  0  0  0
 20 21  1  0  0  0  0
 20 19  2  0  0  0  0
 21 24  2  0  0  0  0
 24 22  1  0  0  0  0
 24 23  1  0  0  0  0
 25 23  2  0  0  0  0
 26 27  1  0  0  0  0
 26 17  1  0  0  0  0
 27 30  1  0  0  0  0
 28 27  1  0  0  0  0
 29 28  1  0  0  0  0
 29 27  1  0  0  0  0
 31 30  1  0  0  0  0
 32 31  1  0  0  0  0
 33  3  1  0  0  0  0
 34 36  1  0  0  0  0
 34 35  1  0  0  0  0
 34 33  1  0  0  0  0
 37 34  1  0  0  0  0
M  END
>  <MODEL>
1

>  <REMARK>
 VINA RESULT:      -8.3      0.000      0.000
  Name = 
  7 active torsions:
  status: ('A' for Active; 'I' for Inactive)
    1  A    between atoms: C_1  and  C_4
    2  A    between atoms: C_1  and  C_27
    3  A    between atoms: C_2  and  O_22
    4  A    between atoms: C_4  and  C_12
    5  A    between atoms: C_6  and  O_22
    6  A    between atoms: C_8  and  C_12
    7  A    between atoms: C_23  and  C_30
                            x       y       z     vdW  Elec       q    Type
                         _______ _______ _______ _____ _____    ______ ____

>  <TORSDO>
F 7

$$$$
=
 OpenBabel11122414013D

 37 43  0  0  1  0  0  0  0  0999 V2000
  161.4460  211.6560  150.5980 C   0  0  1  0  0  3  0  0  0  0  0  0
  162.5810  208.9170  152.2010 O   0  0  0  0  0  0  0  0  0  0  0  0
  161.4470  212.7700  148.2150 C   0  0  2  0  0  3  0  0  0  0  0  0
  161.2070  210.1860  150.7090 C   0  0  2  0  0  3  0  0  0  0  0  0
  162.0120  211.7030  149.1730 C   0  0  2  0  0  3  0  0  0  0  0  0
  161.3530  209.5930  152.1130 C   0  0  2  0  0  3  0  0  0  0  0  0
  160.0600  213.2530  148.6000 C   0  0  0  0  0  2  0  0  0  0  0  0
  161.9880  210.3970  148.6480 O   0  0  0  0  0  0  0  0  0  0  0  0
  160.0830  212.6560  152.2400 C   0  0  0  0  0  2  0  0  0  0  0  0
  160.0600  213.5650  150.0830 C   0  0  0  0  0  2  0  0  0  0  0  0
  161.1070  206.9580  151.4740 C   0  0  0  0  0  2  0  0  0  0  0  0
  162.4480  207.5200  151.9390 C   0  0  1  0  0  3  0  0  0  0  0  0
  160.1520  212.3140  150.8210 N   0  0  1  0  0  0  0  0  0  0  0  0
  162.1170  209.5950  149.7450 N   0  0  2  0  0  0  0  0  0  0  0  0
  161.1680  210.6030  153.2620 C   0  0  1  0  0  3  0  0  0  0  0  0
  162.2010  207.1930  150.4440 C   0  0  2  0  0  3  0  0  0  0  0  0
  161.6390  208.2390  149.4550 C   0  0  2  0  0  3  0  0  0  0  0  0
  159.8730  211.4150  153.1140 C   0  0  0  0  0  2  0  0  0  0  0  0
  162.0680  210.3720  155.5810 C   0  0  0  0  0  3  0  0  0  0  0  0
  161.1950  209.9110  154.5890 C   0  0  0  0  0  0  0  0  0  0  0  0
  160.3690  208.8070  154.8510 C   0  0  0  0  0  3  0  0  0  0  0  0
  159.5800  207.0550  156.3570 N   0  0  0  0  0  1  0  0  0  0  0  0
  161.2920  208.6380  157.0830 C   0  0  0  0  0  3  0  0  0  0  0  0
  160.4180  208.1730  156.0950 C   0  0  0  0  0  0  0  0  0  0  0  0
  162.1160  209.7380  156.8250 C   0  0  0  0  0  3  0  0  0  0  0  0
  162.0140  207.7970  148.0420 C   0  0  0  0  0  2  0  0  0  0  0  0
  161.4070  206.4390  147.7250 C   0  0  0  0  0  0  0  0  0  0  0  0
  160.9860  206.2460  146.2880 C   0  0  0  0  0  2  0  0  0  0  0  0
  162.2360  205.5580  146.8210 C   0  0  0  0  0  2  0  0  0  0  0  0
  160.5720  205.6880  148.7580 C   0  0  0  0  0  2  0  0  0  0  0  0
  160.9690  204.2210  148.8410 C   0  0  0  0  0  2  0  0  0  0  0  0
  160.7760  203.7440  150.1370 O   0  0  0  0  0  1  0  0  0  0  0  0
  161.4490  212.3170  146.8850 O   0  0  0  0  0  0  0  0  0  0  0  0
  161.9440  213.3520  146.0670 C   0  0  0  0  0  0  0  0  0  0  0  0
  162.7530  214.2130  146.7950 F   0  0  0  0  0  0  0  0  0  0  0  0
  162.6540  212.8360  144.9930 F   0  0  0  0  0  0  0  0  0  0  0  0
  160.8740  214.0740  145.5740 F   0  0  0  0  0  0  0  0  0  0  0  0
  1  4  1  0  0  0  0
  1 13  1  0  0  0  0
  3  7  1  0  0  0  0
  3  5  1  0  0  0  0
  4  6  1  0  0  0  0
  5  1  1  0  0  0  0
  6  2  1  0  0  0  0
  6 15  1  0  0  0  0
  7 10  1  0  0  0  0
  8  5  1  0  0  0  0
  8 14  1  0  0  0  0
  9 18  1  0  0  0  0
 10 13  1  0  0  0  0
 11 12  1  0  0  0  0
 12  2  1  0  0  0  0
 13  9  1  0  0  0  0
 14  4  1  0  0  0  0
 15 20  1  0  0  0  0
 16 11  1  0  0  0  0
 16 12  1  0  0  0  0
 17 14  1  0  0  0  0
 17 16  1  0  0  0  0
 18 15  1  0  0  0  0
 19 25  1  0  0  0  0
 20 21  1  0  0  0  0
 20 19  2  0  0  0  0
 21 24  2  0  0  0  0
 24 22  1  0  0  0  0
 24 23  1  0  0  0  0
 25 23  2  0  0  0  0
 26 17  1  0  0  0  0
 27 26  1  0  0  0  0
 27 30  1  0  0  0  0
 28 29  1  0  0  0  0
 28 27  1  0  0  0  0
 29 27  1  0  0  0  0
 30 31  1  0  0  0  0
 31 32  1  0  0  0  0
 33  3  1  0  0  0  0
 34 35  1  0  0  0  0
 34 33  1  0  0  0  0
 36 34  1  0  0  0  0
 37 34  1  0  0  0  0
M  END
>  <MODEL>
2

>  <REMARK>
 VINA RESULT:      -7.9      2.937      5.879
  Name = 
  7 active torsions:
  status: ('A' for Active; 'I' for Inactive)
    1  A    between atoms: C_1  and  C_4
    2  A    between atoms: C_1  and  C_27
    3  A    between atoms: C_2  and  O_22
    4  A    between atoms: C_4  and  C_12
    5  A    between atoms: C_6  and  O_22
    6  A    between atoms: C_8  and  C_12
    7  A    between atoms: C_23  and  C_30
                            x       y       z     vdW  Elec       q    Type
                         _______ _______ _______ _____ _____    ______ ____

>  <TORSDO>
F 7

$$$$
=
 OpenBabel11122414013D

 37 43  0  0  1  0  0  0  0  0999 V2000
  162.0780  206.9600  150.1610 C   0  0  1  0  0  3  0  0  0  0  0  0
  162.5910  209.9930  151.5370 O   0  0  0  0  0  0  0  0  0  0  0  0
  161.8510  204.4270  150.8360 C   0  0  2  0  0  3  0  0  0  0  0  0
  161.3940  207.9940  150.9940 C   0  0  2  0  0  3  0  0  0  0  0  0
  162.2470  205.8650  151.2240 C   0  0  2  0  0  3  0  0  0  0  0  0
  161.6820  209.4490  150.6140 C   0  0  2  0  0  3  0  0  0  0  0  0
  160.8530  204.3620  149.6940 C   0  0  0  0  0  2  0  0  0  0  0  0
  161.6520  206.3180  152.4170 O   0  0  0  0  0  0  0  0  0  0  0  0
  161.5930  207.5110  147.9220 C   0  0  0  0  0  2  0  0  0  0  0  0
  161.3320  205.2830  148.5910 C   0  0  0  0  0  2  0  0  0  0  0  0
  160.4110  210.6730  152.6880 C   0  0  0  0  0  2  0  0  0  0  0  0
  161.9340  210.7000  152.5890 C   0  0  1  0  0  3  0  0  0  0  0  0
  161.1820  206.6610  149.0370 N   0  0  1  0  0  0  0  0  0  0  0  0
  161.7770  207.6750  152.3570 N   0  0  2  0  0  0  0  0  0  0  0  0
  162.1450  209.6560  149.1600 C   0  0  1  0  0  3  0  0  0  0  0  0
  161.2210  209.7720  153.6060 C   0  0  2  0  0  3  0  0  0  0  0  0
  160.8140  208.3240  153.2530 C   0  0  2  0  0  3  0  0  0  0  0  0
  161.2070  208.9760  148.1520 C   0  0  0  0  0  2  0  0  0  0  0  0
  163.4180  211.5710  148.1830 C   0  0  0  0  0  3  0  0  0  0  0  0
  162.2730  211.1140  148.8440 C   0  0  0  0  0  0  0  0  0  0  0  0
  161.2700  212.0270  149.2060 C   0  0  0  0  0  3  0  0  0  0  0  0
  160.3980  214.3070  149.2750 N   0  0  0  0  0  1  0  0  0  0  0  0
  162.5620  213.8360  148.2450 C   0  0  0  0  0  3  0  0  0  0  0  0
  161.4160  213.3840  148.9060 C   0  0  0  0  0  0  0  0  0  0  0  0
  163.5630  212.9290  147.8840 C   0  0  0  0  0  3  0  0  0  0  0  0
  160.6480  207.5520  154.5600 C   0  0  0  0  0  2  0  0  0  0  0  0
  160.4860  208.5090  155.7320 C   0  0  0  0  0  0  0  0  0  0  0  0
  160.8880  207.9490  157.0750 C   0  0  0  0  0  2  0  0  0  0  0  0
  161.7750  208.9670  156.3710 C   0  0  0  0  0  2  0  0  0  0  0  0
  159.3590  209.5360  155.7620 C   0  0  0  0  0  2  0  0  0  0  0  0
  159.6280  210.6360  156.7780 C   0  0  0  0  0  2  0  0  0  0  0  0
  159.7320  211.8690  156.1350 O   0  0  0  0  0  1  0  0  0  0  0  0
  161.3640  203.7140  151.9450 O   0  0  0  0  0  0  0  0  0  0  0  0
  161.4110  202.3390  151.6400 C   0  0  0  0  0  0  0  0  0  0  0  0
  161.1990  202.1260  150.2860 F   0  0  0  0  0  0  0  0  0  0  0  0
  162.6290  201.7920  152.0170 F   0  0  0  0  0  0  0  0  0  0  0  0
  160.4100  201.6970  152.3440 F   0  0  0  0  0  0  0  0  0  0  0  0
  1  4  1  0  0  0  0
  1  5  1  0  0  0  0
  2 12  1  0  0  0  0
  3  5  1  0  0  0  0
  3 33  1  0  0  0  0
  4 14  1  0  0  0  0
  5  8  1  0  0  0  0
  6  4  1  0  0  0  0
  6  2  1  0  0  0  0
  7  3  1  0  0  0  0
  9 18  1  0  0  0  0
  9 13  1  0  0  0  0
 10 13  1  0  0  0  0
 10  7  1  0  0  0  0
 11 16  1  0  0  0  0
 12 11  1  0  0  0  0
 12 16  1  0  0  0  0
 13  1  1  0  0  0  0
 14  8  1  0  0  0  0
 14 17  1  0  0  0  0
 15  6  1  0  0  0  0
 17 16  1  0  0  0  0
 17 26  1  0  0  0  0
 18 15  1  0  0  0  0
 19 20  1  0  0  0  0
 20 15  1  0  0  0  0
 20 21  2  0  0  0  0
 23 24  2  0  0  0  0
 24 21  1  0  0  0  0
 24 22  1  0  0  0  0
 25 19  2  0  0  0  0
 25 23  1  0  0  0  0
 26 27  1  0  0  0  0
 27 30  1  0  0  0  0
 27 29  1  0  0  0  0
 27 28  1  0  0  0  0
 29 28  1  0  0  0  0
 30 31  1  0  0  0  0
 32 31  1  0  0  0  0
 34 33  1  0  0  0  0
 34 36  1  0  0  0  0
 34 37  1  0  0  0  0
 35 34  1  0  0  0  0
M  END
>  <MODEL>
3

>  <REMARK>
 VINA RESULT:      -6.2      2.853      6.450
  Name = 
  7 active torsions:
  status: ('A' for Active; 'I' for Inactive)
    1  A    between atoms: C_1  and  C_4
    2  A    between atoms: C_1  and  C_27
    3  A    between atoms: C_2  and  O_22
    4  A    between atoms: C_4  and  C_12
    5  A    between atoms: C_6  and  O_22
    6  A    between atoms: C_8  and  C_12
    7  A    between atoms: C_23  and  C_30
                            x       y       z     vdW  Elec       q    Type
                         _______ _______ _______ _____ _____    ______ ____

>  <TORSDO>
F 7

$$$$
=
 OpenBabel11122414013D

 37 43  0  0  1  0  0  0  0  0999 V2000
  160.9150  204.6630  150.7640 C   0  0  1  0  0  3  0  0  0  0  0  0
  160.7370  207.7370  149.3930 O   0  0  0  0  0  0  0  0  0  0  0  0
  161.1070  202.1320  150.0750 C   0  0  2  0  0  3  0  0  0  0  0  0
  161.7530  205.6720  150.0500 C   0  0  2  0  0  3  0  0  0  0  0  0
  160.8360  203.5930  149.6670 C   0  0  2  0  0  3  0  0  0  0  0  0
  161.4880  207.1350  150.4180 C   0  0  2  0  0  3  0  0  0  0  0  0
  161.9400  202.0010  151.3370 C   0  0  0  0  0  2  0  0  0  0  0  0
  161.6060  204.0300  148.5720 O   0  0  0  0  0  0  0  0  0  0  0  0
  161.1240  205.1590  153.0590 C   0  0  0  0  0  2  0  0  0  0  0  0
  161.3630  202.9300  152.3860 C   0  0  0  0  0  2  0  0  0  0  0  0
  163.0810  208.3210  148.5550 C   0  0  0  0  0  2  0  0  0  0  0  0
  161.5620  208.4240  148.4520 C   0  0  1  0  0  3  0  0  0  0  0  0
  161.6380  204.3040  151.9910 N   0  0  1  0  0  0  0  0  0  0  0  0
  161.5400  205.3920  148.6420 N   0  0  2  0  0  0  0  0  0  0  0  0
  160.8470  207.3460  151.8020 C   0  0  1  0  0  3  0  0  0  0  0  0
  162.3580  207.4750  147.5200 C   0  0  2  0  0  3  0  0  0  0  0  0
  162.6440  206.0030  147.8950 C   0  0  2  0  0  3  0  0  0  0  0  0
  161.6080  206.6060  152.9110 C   0  0  0  0  0  2  0  0  0  0  0  0
  161.5600  209.7130  151.4410 C   0  0  0  0  0  3  0  0  0  0  0  0
  160.7480  208.8040  152.1270 C   0  0  0  0  0  0  0  0  0  0  0  0
  159.8630  209.2710  153.1120 C   0  0  0  0  0  3  0  0  0  0  0  0
  158.8980  211.1050  154.4020 N   0  0  0  0  0  1  0  0  0  0  0  0
  160.6080  211.5400  152.7140 C   0  0  0  0  0  3  0  0  0  0  0  0
  159.7950  210.6360  153.4040 C   0  0  0  0  0  0  0  0  0  0  0  0
  161.4910  211.0780  151.7330 C   0  0  0  0  0  3  0  0  0  0  0  0
  162.9450  205.2410  146.6060 C   0  0  0  0  0  2  0  0  0  0  0  0
  161.6600  204.9390  145.8480 C   0  0  0  0  0  0  0  0  0  0  0  0
  160.5950  206.0040  145.9450 C   0  0  0  0  0  2  0  0  0  0  0  0
  161.3910  205.8280  144.6590 C   0  0  0  0  0  2  0  0  0  0  0  0
  161.1460  203.5100  145.7070 C   0  0  0  0  0  2  0  0  0  0  0  0
  160.0810  203.4010  144.6260 C   0  0  0  0  0  2  0  0  0  0  0  0
  159.6460  202.0800  144.5110 O   0  0  0  0  0  1  0  0  0  0  0  0
  161.7020  201.4090  149.0260 O   0  0  0  0  0  0  0  0  0  0  0  0
  160.6900  200.7010  148.3480 C   0  0  0  0  0  0  0  0  0  0  0  0
  160.0800  201.5030  147.3940 F   0  0  0  0  0  0  0  0  0  0  0  0
  161.2030  199.5620  147.7460 F   0  0  0  0  0  0  0  0  0  0  0  0
  159.7330  200.3140  149.2660 F   0  0  0  0  0  0  0  0  0  0  0  0
  1 13  1  0  0  0  0
  2  6  1  0  0  0  0
  3  7  1  0  0  0  0
  4  6  1  0  0  0  0
  4  1  1  0  0  0  0
  5  3  1  0  0  0  0
  5  1  1  0  0  0  0
  6 15  1  0  0  0  0
  7 10  1  0  0  0  0
  8 14  1  0  0  0  0
  8  5  1  0  0  0  0
 12 11  1  0  0  0  0
 12  2  1  0  0  0  0
 13 10  1  0  0  0  0
 13  9  1  0  0  0  0
 14  4  1  0  0  0  0
 15 20  1  0  0  0  0
 15 18  1  0  0  0  0
 16 17  1  0  0  0  0
 16 12  1  0  0  0  0
 16 11  1  0  0  0  0
 17 14  1  0  0  0  0
 18  9  1  0  0  0  0
 19 25  2  0  0  0  0
 19 20  1  0  0  0  0
 20 21  2  0  0  0  0
 21 24  1  0  0  0  0
 23 24  2  0  0  0  0
 24 22  1  0  0  0  0
 25 23  1  0  0  0  0
 26 17  1  0  0  0  0
 27 28  1  0  0  0  0
 27 26  1  0  0  0  0
 29 27  1  0  0  0  0
 29 28  1  0  0  0  0
 30 27  1  0  0  0  0
 31 30  1  0  0  0  0
 32 31  1  0  0  0  0
 33  3  1  0  0  0  0
 34 33  1  0  0  0  0
 34 37  1  0  0  0  0
 35 34  1  0  0  0  0
 36 34  1  0  0  0  0
M  END
>  <MODEL>
4

>  <REMARK>
 VINA RESULT:      -6.2      2.931      5.327
  Name = 
  7 active torsions:
  status: ('A' for Active; 'I' for Inactive)
    1  A    between atoms: C_1  and  C_4
    2  A    between atoms: C_1  and  C_27
    3  A    between atoms: C_2  and  O_22
    4  A    between atoms: C_4  and  C_12
    5  A    between atoms: C_6  and  O_22
    6  A    between atoms: C_8  and  C_12
    7  A    between atoms: C_23  and  C_30
                            x       y       z     vdW  Elec       q    Type
                         _______ _______ _______ _____ _____    ______ ____

>  <TORSDO>
F 7

$$$$
=
 OpenBabel11122414013D

 37 43  0  0  1  0  0  0  0  0999 V2000
  161.6340  210.4800  151.8520 C   0  0  1  0  0  3  0  0  0  0  0  0
  161.1540  213.4580  150.3490 O   0  0  0  0  0  0  0  0  0  0  0  0
  161.5100  209.3510  154.2250 C   0  0  2  0  0  3  0  0  0  0  0  0
  160.5470  211.4160  151.4390 C   0  0  2  0  0  3  0  0  0  0  0  0
  161.5250  210.6360  153.3750 C   0  0  2  0  0  3  0  0  0  0  0  0
  160.7580  212.1320  150.1020 C   0  0  2  0  0  3  0  0  0  0  0  0
  161.0530  208.1240  153.4570 C   0  0  0  0  0  2  0  0  0  0  0  0
  160.4570  211.5130  153.6500 O   0  0  0  0  0  0  0  0  0  0  0  0
  161.9870  209.0510  150.0120 C   0  0  0  0  0  2  0  0  0  0  0  0
  161.7930  208.0870  152.1360 C   0  0  0  0  0  2  0  0  0  0  0  0
  158.6280  213.8250  150.2010 C   0  0  0  0  0  2  0  0  0  0  0  0
  160.0510  214.3630  150.3290 C   0  0  1  0  0  3  0  0  0  0  0  0
  161.2950  209.1650  151.2940 N   0  0  1  0  0  0  0  0  0  0  0  0
  160.4090  212.3310  152.5590 N   0  0  2  0  0  0  0  0  0  0  0  0
  161.7160  211.4150  149.1320 C   0  0  1  0  0  3  0  0  0  0  0  0
  159.1320  214.2450  151.5720 C   0  0  2  0  0  3  0  0  0  0  0  0
  159.0950  212.9730  152.4500 C   0  0  2  0  0  3  0  0  0  0  0  0
  161.3450  209.9380  148.9390 C   0  0  0  0  0  2  0  0  0  0  0  0
  162.9550  212.6980  147.3820 C   0  0  0  0  0  3  0  0  0  0  0  0
  161.7570  212.1150  147.8100 C   0  0  0  0  0  0  0  0  0  0  0  0
  160.6150  212.2020  146.9970 C   0  0  0  0  0  3  0  0  0  0  0  0
  159.5180  212.9530  144.9500 N   0  0  0  0  0  1  0  0  0  0  0  0
  161.8760  213.4470  145.3480 C   0  0  0  0  0  3  0  0  0  0  0  0
  160.6770  212.8670  145.7700 C   0  0  0  0  0  0  0  0  0  0  0  0
  163.0150  213.3630  146.1550 C   0  0  0  0  0  3  0  0  0  0  0  0
  158.5410  213.3640  153.8180 C   0  0  0  0  0  2  0  0  0  0  0  0
  157.1820  212.7220  154.0510 C   0  0  0  0  0  0  0  0  0  0  0  0
  156.1580  213.6140  154.7100 C   0  0  0  0  0  2  0  0  0  0  0  0
  156.0530  213.2900  153.2260 C   0  0  0  0  0  2  0  0  0  0  0  0
  157.0560  211.2350  154.3690 C   0  0  0  0  0  2  0  0  0  0  0  0
  155.9940  210.9750  155.4270 C   0  0  0  0  0  2  0  0  0  0  0  0
  155.1080  209.9910  154.9870 O   0  0  0  0  0  1  0  0  0  0  0  0
  160.7320  209.5130  155.3850 O   0  0  0  0  0  0  0  0  0  0  0  0
  161.5990  209.7790  156.4630 C   0  0  0  0  0  0  0  0  0  0  0  0
  162.8650  210.1210  156.0080 F   0  0  0  0  0  0  0  0  0  0  0  0
  161.0970  210.7970  157.2610 F   0  0  0  0  0  0  0  0  0  0  0  0
  161.7080  208.6370  157.2330 F   0  0  0  0  0  0  0  0  0  0  0  0
  1  5  1  0  0  0  0
  3 33  1  0  0  0  0
  4  1  1  0  0  0  0
  4 14  1  0  0  0  0
  5  8  1  0  0  0  0
  5  3  1  0  0  0  0
  6  2  1  0  0  0  0
  6  4  1  0  0  0  0
  7  3  1  0  0  0  0
  9 13  1  0  0  0  0
 10  7  1  0  0  0  0
 11 12  1  0  0  0  0
 11 16  1  0  0  0  0
 12  2  1  0  0  0  0
 12 16  1  0  0  0  0
 13  1  1  0  0  0  0
 13 10  1  0  0  0  0
 14  8  1  0  0  0  0
 15  6  1  0  0  0  0
 16 17  1  0  0  0  0
 17 14  1  0  0  0  0
 17 26  1  0  0  0  0
 18 15  1  0  0  0  0
 18  9  1  0  0  0  0
 19 20  1  0  0  0  0
 20 15  1  0  0  0  0
 21 20  2  0  0  0  0
 22 24  1  0  0  0  0
 23 24  2  0  0  0  0
 23 25  1  0  0  0  0
 24 21  1  0  0  0  0
 25 19  2  0  0  0  0
 26 27  1  0  0  0  0
 27 30  1  0  0  0  0
 27 28  1  0  0  0  0
 29 27  1  0  0  0  0
 29 28  1  0  0  0  0
 30 31  1  0  0  0  0
 32 31  1  0  0  0  0
 33 34  1  0  0  0  0
 34 37  1  0  0  0  0
 34 36  1  0  0  0  0
 35 34  1  0  0  0  0
M  END
>  <MODEL>
5

>  <REMARK>
 VINA RESULT:      -6.0      4.790      8.373
  Name = 
  7 active torsions:
  status: ('A' for Active; 'I' for Inactive)
    1  A    between atoms: C_1  and  C_4
    2  A    between atoms: C_1  and  C_27
    3  A    between atoms: C_2  and  O_22
    4  A    between atoms: C_4  and  C_12
    5  A    between atoms: C_6  and  O_22
    6  A    between atoms: C_8  and  C_12
    7  A    between atoms: C_23  and  C_30
                            x       y       z     vdW  Elec       q    Type
                         _______ _______ _______ _____ _____    ______ ____

>  <TORSDO>
F 7

$$$$
=
 OpenBabel11122414013D

 37 43  0  0  1  0  0  0  0  0999 V2000
  160.6920  203.2590  149.3460 C   0  0  1  0  0  3  0  0  0  0  0  0
  160.6340  206.6270  149.2320 O   0  0  0  0  0  0  0  0  0  0  0  0
  160.6990  201.1660  147.7530 C   0  0  2  0  0  3  0  0  0  0  0  0
  161.5540  204.4300  149.0060 C   0  0  2  0  0  3  0  0  0  0  0  0
  160.4970  202.6820  147.9380 C   0  0  2  0  0  3  0  0  0  0  0  0
  161.3950  205.6570  149.9070 C   0  0  2  0  0  3  0  0  0  0  0  0
  161.5810  200.5400  148.8190 C   0  0  0  0  0  2  0  0  0  0  0  0
  161.2390  203.4690  147.0360 O   0  0  0  0  0  0  0  0  0  0  0  0
  161.0380  202.8510  151.6420 C   0  0  0  0  0  2  0  0  0  0  0  0
  161.1110  201.0290  150.1730 C   0  0  0  0  0  2  0  0  0  0  0  0
  162.9660  207.3940  148.5190 C   0  0  0  0  0  2  0  0  0  0  0  0
  161.4530  207.5850  148.5630 C   0  0  1  0  0  3  0  0  0  0  0  0
  161.4490  202.4390  150.3010 N   0  0  1  0  0  0  0  0  0  0  0  0
  161.2580  204.7060  147.6110 N   0  0  2  0  0  0  0  0  0  0  0  0
  160.8330  205.3580  151.3100 C   0  0  1  0  0  3  0  0  0  0  0  0
  162.1450  207.0250  147.2940 C   0  0  2  0  0  3  0  0  0  0  0  0
  162.3600  205.5110  147.0740 C   0  0  2  0  0  3  0  0  0  0  0  0
  161.6000  204.2280  152.0110 C   0  0  0  0  0  2  0  0  0  0  0  0
  160.8350  206.4590  153.5530 C   0  0  0  0  0  3  0  0  0  0  0  0
  160.8380  206.5900  152.1600 C   0  0  0  0  0  0  0  0  0  0  0  0
  160.8370  207.8710  151.5840 C   0  0  0  0  0  3  0  0  0  0  0  0
  160.8330  210.3010  151.8130 N   0  0  0  0  0  1  0  0  0  0  0  0
  160.8310  208.8690  153.7910 C   0  0  0  0  0  3  0  0  0  0  0  0
  160.8340  209.0060  152.3990 C   0  0  0  0  0  0  0  0  0  0  0  0
  160.8310  207.5940  154.3670 C   0  0  0  0  0  3  0  0  0  0  0  0
  162.5540  205.2770  145.5770 C   0  0  0  0  0  2  0  0  0  0  0  0
  161.3720  205.8240  144.7910 C   0  0  0  0  0  0  0  0  0  0  0  0
  160.1500  204.9370  144.7720 C   0  0  0  0  0  2  0  0  0  0  0  0
  160.1680  206.2020  145.6190 C   0  0  0  0  0  2  0  0  0  0  0  0
  161.5810  206.6750  143.5430 C   0  0  0  0  0  2  0  0  0  0  0  0
  161.5810  205.8280  142.2790 C   0  0  0  0  0  2  0  0  0  0  0  0
  161.9560  206.6020  141.1810 O   0  0  0  0  0  1  0  0  0  0  0  0
  161.2000  200.8680  146.4750 O   0  0  0  0  0  0  0  0  0  0  0  0
  160.1380  200.9610  145.5520 C   0  0  0  0  0  0  0  0  0  0  0  0
  159.9560  199.7580  144.8860 F   0  0  0  0  0  0  0  0  0  0  0  0
  158.9620  201.3280  146.1890 F   0  0  0  0  0  0  0  0  0  0  0  0
  160.4490  201.9320  144.6200 F   0  0  0  0  0  0  0  0  0  0  0  0
  1 13  1  0  0  0  0
  2  6  1  0  0  0  0
  3  5  1  0  0  0  0
  3  7  1  0  0  0  0
  4  1  1  0  0  0  0
  4  6  1  0  0  0  0
  5  1  1  0  0  0  0
  6 15  1  0  0  0  0
  7 10  1  0  0  0  0
  8 14  1  0  0  0  0
  8  5  1  0  0  0  0
  9 18  1  0  0  0  0
 10 13  1  0  0  0  0
 11 12  1  0  0  0  0
 12  2  1  0  0  0  0
 13  9  1  0  0  0  0
 14  4  1  0  0  0  0
 15 18  1  0  0  0  0
 15 20  1  0  0  0  0
 16 11  1  0  0  0  0
 16 12  1  0  0  0  0
 17 16  1  0  0  0  0
 17 14  1  0  0  0  0
 19 25  1  0  0  0  0
 20 19  2  0  0  0  0
 21 20  1  0  0  0  0
 21 24  2  0  0  0  0
 22 24  1  0  0  0  0
 23 25  2  0  0  0  0
 24 23  1  0  0  0  0
 26 17  1  0  0  0  0
 27 26  1  0  0  0  0
 27 29  1  0  0  0  0
 28 27  1  0  0  0  0
 28 29  1  0  0  0  0
 30 27  1  0  0  0  0
 31 30  1  0  0  0  0
 32 31  1  0  0  0  0
 33  3  1  0  0  0  0
 34 36  1  0  0  0  0
 34 33  1  0  0  0  0
 35 34  1  0  0  0  0
 37 34  1  0  0  0  0
M  END
>  <MODEL>
6

>  <REMARK>
 VINA RESULT:      -5.9      3.046      4.977
  Name = 
  7 active torsions:
  status: ('A' for Active; 'I' for Inactive)
    1  A    between atoms: C_1  and  C_4
    2  A    between atoms: C_1  and  C_27
    3  A    between atoms: C_2  and  O_22
    4  A    between atoms: C_4  and  C_12
    5  A    between atoms: C_6  and  O_22
    6  A    between atoms: C_8  and  C_12
    7  A    between atoms: C_23  and  C_30
                            x       y       z     vdW  Elec       q    Type
                         _______ _______ _______ _____ _____    ______ ____

>  <TORSDO>
F 7

$$$$
=
 OpenBabel11122414013D

 37 43  0  0  1  0  0  0  0  0999 V2000
  161.7340  207.1800  152.5150 C   0  0  1  0  0  3  0  0  0  0  0  0
  162.6920  206.7740  149.3090 O   0  0  0  0  0  0  0  0  0  0  0  0
  161.8560  208.9330  154.4720 C   0  0  2  0  0  3  0  0  0  0  0  0
  161.4230  207.6570  151.1350 C   0  0  2  0  0  3  0  0  0  0  0  0
  162.3430  208.4680  153.0860 C   0  0  2  0  0  3  0  0  0  0  0  0
  161.5000  206.5980  150.0320 C   0  0  2  0  0  3  0  0  0  0  0  0
  160.4830  208.4010  154.8410 C   0  0  0  0  0  2  0  0  0  0  0  0
  162.2720  209.4640  152.0930 O   0  0  0  0  0  0  0  0  0  0  0  0
  160.3730  205.2880  152.8650 C   0  0  0  0  0  2  0  0  0  0  0  0
  160.4550  206.9150  154.5460 C   0  0  0  0  0  2  0  0  0  0  0  0
  161.1490  208.2230  147.8760 C   0  0  0  0  0  2  0  0  0  0  0  0
  162.5010  207.5640  148.1370 C   0  0  1  0  0  3  0  0  0  0  0  0
  160.4670  206.7270  153.1030 N   0  0  1  0  0  0  0  0  0  0  0  0
  162.3310  208.7690  150.9200 N   0  0  2  0  0  0  0  0  0  0  0  0
  161.3300  205.1470  150.5190 C   0  0  1  0  0  3  0  0  0  0  0  0
  162.2820  209.0700  148.4360 C   0  0  2  0  0  3  0  0  0  0  0  0
  161.7990  209.5720  149.8150 C   0  0  2  0  0  3  0  0  0  0  0  0
  160.0800  204.9730  151.3940 C   0  0  0  0  0  2  0  0  0  0  0  0
  160.9140  202.8680  149.5840 C   0  0  0  0  0  3  0  0  0  0  0  0
  161.2870  204.1980  149.3630 C   0  0  0  0  0  0  0  0  0  0  0  0
  161.6210  204.6170  148.0650 C   0  0  0  0  0  3  0  0  0  0  0  0
  161.9210  204.1390  145.6900 N   0  0  0  0  0  1  0  0  0  0  0  0
  161.2070  202.3830  147.2300 C   0  0  0  0  0  3  0  0  0  0  0  0
  161.5810  203.7100  147.0030 C   0  0  0  0  0  0  0  0  0  0  0  0
  160.8740  201.9620  148.5210 C   0  0  0  0  0  3  0  0  0  0  0  0
  162.1930  211.0420  149.9420 C   0  0  0  0  0  2  0  0  0  0  0  0
  161.9210  211.7860  148.6430 C   0  0  0  0  0  0  0  0  0  0  0  0
  162.3420  213.2360  148.6360 C   0  0  0  0  0  2  0  0  0  0  0  0
  163.1500  212.1980  147.8690 C   0  0  0  0  0  2  0  0  0  0  0  0
  160.7070  211.4520  147.7830 C   0  0  0  0  0  2  0  0  0  0  0  0
  160.2870  212.6350  146.9220 C   0  0  0  0  0  2  0  0  0  0  0  0
  159.9740  212.2040  145.6330 O   0  0  0  0  0  1  0  0  0  0  0  0
  161.8750  210.3350  154.5770 O   0  0  0  0  0  0  0  0  0  0  0  0
  162.5630  210.6790  155.7580 C   0  0  0  0  0  0  0  0  0  0  0  0
  161.9330  211.7310  156.4070 F   0  0  0  0  0  0  0  0  0  0  0  0
  162.6560  209.5890  156.6100 F   0  0  0  0  0  0  0  0  0  0  0  0
  163.8420  211.0790  155.4220 F   0  0  0  0  0  0  0  0  0  0  0  0
  1  5  1  0  0  0  0
  1 13  1  0  0  0  0
  2  6  1  0  0  0  0
  3 33  1  0  0  0  0
  3  7  1  0  0  0  0
  4  1  1  0  0  0  0
  5  3  1  0  0  0  0
  6 15  1  0  0  0  0
  6  4  1  0  0  0  0
  8  5  1  0  0  0  0
  9 13  1  0  0  0  0
 10  7  1  0  0  0  0
 11 12  1  0  0  0  0
 11 16  1  0  0  0  0
 12 16  1  0  0  0  0
 12  2  1  0  0  0  0
 13 10  1  0  0  0  0
 14  4  1  0  0  0  0
 14  8  1  0  0  0  0
 15 18  1  0  0  0  0
 16 17  1  0  0  0  0
 17 26  1  0  0  0  0
 17 14  1  0  0  0  0
 18  9  1  0  0  0  0
 20 19  1  0  0  0  0
 20 15  1  0  0  0  0
 21 20  2  0  0  0  0
 22 24  1  0  0  0  0
 23 25  1  0  0  0  0
 24 23  2  0  0  0  0
 24 21  1  0  0  0  0
 25 19  2  0  0  0  0
 27 26  1  0  0  0  0
 28 27  1  0  0  0  0
 29 28  1  0  0  0  0
 29 27  1  0  0  0  0
 30 27  1  0  0  0  0
 31 30  1  0  0  0  0
 32 31  1  0  0  0  0
 33 34  1  0  0  0  0
 34 35  1  0  0  0  0
 34 36  1  0  0  0  0
 37 34  1  0  0  0  0
M  END
>  <MODEL>
7

>  <REMARK>
 VINA RESULT:      -5.9      3.991      6.741
  Name = 
  7 active torsions:
  status: ('A' for Active; 'I' for Inactive)
    1  A    between atoms: C_1  and  C_4
    2  A    between atoms: C_1  and  C_27
    3  A    between atoms: C_2  and  O_22
    4  A    between atoms: C_4  and  C_12
    5  A    between atoms: C_6  and  O_22
    6  A    between atoms: C_8  and  C_12
    7  A    between atoms: C_23  and  C_30
                            x       y       z     vdW  Elec       q    Type
                         _______ _______ _______ _____ _____    ______ ____

>  <TORSDO>
F 7

$$$$
=
 OpenBabel11122414013D

 37 43  0  0  1  0  0  0  0  0999 V2000
  161.7560  207.2980  152.5540 C   0  0  1  0  0  3  0  0  0  0  0  0
  162.7620  207.0360  149.3480 O   0  0  0  0  0  0  0  0  0  0  0  0
  161.8170  208.9780  154.5780 C   0  0  2  0  0  3  0  0  0  0  0  0
  161.4510  207.8220  151.1890 C   0  0  2  0  0  3  0  0  0  0  0  0
  162.3300  208.5760  153.1820 C   0  0  2  0  0  3  0  0  0  0  0  0
  161.5650  206.8080  150.0480 C   0  0  2  0  0  3  0  0  0  0  0  0
  160.4500  208.4030  154.9080 C   0  0  0  0  0  2  0  0  0  0  0  0
  162.2500  209.6080  152.2270 O   0  0  0  0  0  0  0  0  0  0  0  0
  160.4310  205.3670  152.8140 C   0  0  0  0  0  2  0  0  0  0  0  0
  160.4580  206.9290  154.5570 C   0  0  0  0  0  2  0  0  0  0  0  0
  161.2060  208.5070  147.9510 C   0  0  0  0  0  2  0  0  0  0  0  0
  162.5680  207.8660  148.2040 C   0  0  1  0  0  3  0  0  0  0  0  0
  160.4920  206.7970  153.1070 N   0  0  1  0  0  0  0  0  0  0  0  0
  162.3390  208.9600  151.0290 N   0  0  2  0  0  0  0  0  0  0  0  0
  161.4200  205.3360  150.4770 C   0  0  1  0  0  3  0  0  0  0  0  0
  162.3130  209.3540  148.5570 C   0  0  2  0  0  3  0  0  0  0  0  0
  161.8030  209.7940  149.9480 C   0  0  2  0  0  3  0  0  0  0  0  0
  160.1630  205.1030  151.3280 C   0  0  0  0  0  2  0  0  0  0  0  0
  161.5910  204.9790  148.0100 C   0  0  0  0  0  3  0  0  0  0  0  0
  161.4110  204.4310  149.2850 C   0  0  0  0  0  0  0  0  0  0  0  0
  161.2180  203.0470  149.4230 C   0  0  0  0  0  3  0  0  0  0  0  0
  161.0100  200.8230  148.4380 N   0  0  0  0  0  1  0  0  0  0  0  0
  161.3870  202.7770  147.0230 C   0  0  0  0  0  3  0  0  0  0  0  0
  161.2060  202.2240  148.2940 C   0  0  0  0  0  0  0  0  0  0  0  0
  161.5790  204.1550  146.8820 C   0  0  0  0  0  3  0  0  0  0  0  0
  162.1640  211.2650  150.1370 C   0  0  0  0  0  2  0  0  0  0  0  0
  161.9010  212.0510  148.8600 C   0  0  0  0  0  0  0  0  0  0  0  0
  160.4860  211.9720  148.3410 C   0  0  0  0  0  2  0  0  0  0  0  0
  160.9870  213.2420  149.0150 C   0  0  0  0  0  2  0  0  0  0  0  0
  162.9810  212.2080  147.7950 C   0  0  0  0  0  2  0  0  0  0  0  0
  162.7040  213.3970  146.8870 C   0  0  0  0  0  2  0  0  0  0  0  0
  162.3690  212.9560  145.6060 O   0  0  0  0  0  1  0  0  0  0  0  0
  161.8040  210.3740  154.7370 O   0  0  0  0  0  0  0  0  0  0  0  0
  162.5740  210.6960  155.8730 C   0  0  0  0  0  0  0  0  0  0  0  0
  162.0060  211.7510  156.5720 F   0  0  0  0  0  0  0  0  0  0  0  0
  162.7050  209.5960  156.7070 F   0  0  0  0  0  0  0  0  0  0  0  0
  163.8340  211.0780  155.4560 F   0  0  0  0  0  0  0  0  0  0  0  0
  1 13  1  0  0  0  0
  1  5  1  0  0  0  0
  2  6  1  0  0  0  0
  3 33  1  0  0  0  0
  3  7  1  0  0  0  0
  4  1  1  0  0  0  0
  5  3  1  0  0  0  0
  6 15  1  0  0  0  0
  6  4  1  0  0  0  0
  8  5  1  0  0  0  0
  9 13  1  0  0  0  0
 10  7  1  0  0  0  0
 11 12  1  0  0  0  0
 11 16  1  0  0  0  0
 12 16  1  0  0  0  0
 12  2  1  0  0  0  0
 13 10  1  0  0  0  0
 14  4  1  0  0  0  0
 14  8  1  0  0  0  0
 15 18  1  0  0  0  0
 16 17  1  0  0  0  0
 17 26  1  0  0  0  0
 17 14  1  0  0  0  0
 18  9  1  0  0  0  0
 19 20  1  0  0  0  0
 20 21  2  0  0  0  0
 20 15  1  0  0  0  0
 23 24  2  0  0  0  0
 24 22  1  0  0  0  0
 24 21  1  0  0  0  0
 25 23  1  0  0  0  0
 25 19  2  0  0  0  0
 27 29  1  0  0  0  0
 27 26  1  0  0  0  0
 28 27  1  0  0  0  0
 28 29  1  0  0  0  0
 30 27  1  0  0  0  0
 31 30  1  0  0  0  0
 32 31  1  0  0  0  0
 33 34  1  0  0  0  0
 34 35  1  0  0  0  0
 34 36  1  0  0  0  0
 37 34  1  0  0  0  0
M  END
>  <MODEL>
8

>  <REMARK>
 VINA RESULT:      -5.9      4.006      6.853
  Name = 
  7 active torsions:
  status: ('A' for Active; 'I' for Inactive)
    1  A    between atoms: C_1  and  C_4
    2  A    between atoms: C_1  and  C_27
    3  A    between atoms: C_2  and  O_22
    4  A    between atoms: C_4  and  C_12
    5  A    between atoms: C_6  and  O_22
    6  A    between atoms: C_8  and  C_12
    7  A    between atoms: C_23  and  C_30
                            x       y       z     vdW  Elec       q    Type
                         _______ _______ _______ _____ _____    ______ ____

>  <TORSDO>
F 7

$$$$
=
 OpenBabel11122414013D

 37 43  0  0  1  0  0  0  0  0999 V2000
  161.7320  207.2300  152.6350 C   0  0  1  0  0  3  0  0  0  0  0  0
  162.7130  206.8670  149.4310 O   0  0  0  0  0  0  0  0  0  0  0  0
  161.8540  208.9500  154.6210 C   0  0  2  0  0  3  0  0  0  0  0  0
  161.4370  207.7330  151.2600 C   0  0  2  0  0  3  0  0  0  0  0  0
  162.3480  208.5020  153.2320 C   0  0  2  0  0  3  0  0  0  0  0  0
  161.5130  206.6910  150.1410 C   0  0  2  0  0  3  0  0  0  0  0  0
  160.4730  208.4250  154.9700 C   0  0  0  0  0  2  0  0  0  0  0  0
  162.2940  209.5150  152.2550 O   0  0  0  0  0  0  0  0  0  0  0  0
  160.3510  205.3450  152.9430 C   0  0  0  0  0  2  0  0  0  0  0  0
  160.4340  206.9440  154.6510 C   0  0  0  0  0  2  0  0  0  0  0  0
  161.1960  208.3540  148.0090 C   0  0  0  0  0  2  0  0  0  0  0  0
  162.5390  207.6780  148.2700 C   0  0  1  0  0  3  0  0  0  0  0  0
  160.4560  206.7790  153.2050 N   0  0  1  0  0  0  0  0  0  0  0  0
  162.3570  208.8390  151.0710 N   0  0  2  0  0  0  0  0  0  0  0  0
  161.3260  205.2330  150.6030 C   0  0  1  0  0  3  0  0  0  0  0  0
  162.3310  209.1800  148.5920 C   0  0  2  0  0  3  0  0  0  0  0  0
  161.8410  209.6650  149.9750 C   0  0  2  0  0  3  0  0  0  0  0  0
  160.0670  205.0570  151.4640 C   0  0  0  0  0  2  0  0  0  0  0  0
  160.9100  202.9700  149.6300 C   0  0  0  0  0  3  0  0  0  0  0  0
  161.2840  204.3040  149.4310 C   0  0  0  0  0  0  0  0  0  0  0  0
  161.6200  204.7440  148.1410 C   0  0  0  0  0  3  0  0  0  0  0  0
  161.9220  204.3050  145.7580 N   0  0  0  0  0  1  0  0  0  0  0  0
  161.2060  202.5240  147.2680 C   0  0  0  0  0  3  0  0  0  0  0  0
  161.5800  203.8550  147.0630 C   0  0  0  0  0  0  0  0  0  0  0  0
  160.8700  202.0820  148.5520 C   0  0  0  0  0  3  0  0  0  0  0  0
  162.2480  211.1290  150.1290 C   0  0  0  0  0  2  0  0  0  0  0  0
  161.1710  212.0470  149.5700 C   0  0  0  0  0  0  0  0  0  0  0  0
  161.6700  213.1240  148.6360 C   0  0  0  0  0  2  0  0  0  0  0  0
  160.9210  211.9170  148.0870 C   0  0  0  0  0  2  0  0  0  0  0  0
  159.9420  212.4160  150.3950 C   0  0  0  0  0  2  0  0  0  0  0  0
  160.2020  212.2640  151.8870 C   0  0  0  0  0  2  0  0  0  0  0  0
  159.5070  211.1620  152.3860 O   0  0  0  0  0  1  0  0  0  0  0  0
  161.8850  210.3500  154.7490 O   0  0  0  0  0  0  0  0  0  0  0  0
  162.5930  210.6690  155.9250 C   0  0  0  0  0  0  0  0  0  0  0  0
  161.9730  211.7060  156.6080 F   0  0  0  0  0  0  0  0  0  0  0  0
  162.7030  209.5610  156.7520 F   0  0  0  0  0  0  0  0  0  0  0  0
  163.8650  211.0780  155.5750 F   0  0  0  0  0  0  0  0  0  0  0  0
  1 13  1  0  0  0  0
  1  5  1  0  0  0  0
  2  6  1  0  0  0  0
  3 33  1  0  0  0  0
  3  7  1  0  0  0  0
  4  1  1  0  0  0  0
  5  3  1  0  0  0  0
  6 15  1  0  0  0  0
  6  4  1  0  0  0  0
  8  5  1  0  0  0  0
  9 13  1  0  0  0  0
 10  7  1  0  0  0  0
 11 12  1  0  0  0  0
 11 16  1  0  0  0  0
 12 16  1  0  0  0  0
 12  2  1  0  0  0  0
 13 10  1  0  0  0  0
 14  4  1  0  0  0  0
 14  8  1  0  0  0  0
 15 18  1  0  0  0  0
 16 17  1  0  0  0  0
 17 26  1  0  0  0  0
 17 14  1  0  0  0  0
 18  9  1  0  0  0  0
 20 19  1  0  0  0  0
 20 15  1  0  0  0  0
 21 20  2  0  0  0  0
 22 24  1  0  0  0  0
 23 25  1  0  0  0  0
 24 23  2  0  0  0  0
 24 21  1  0  0  0  0
 25 19  2  0  0  0  0
 27 26  1  0  0  0  0
 27 30  1  0  0  0  0
 28 27  1  0  0  0  0
 29 28  1  0  0  0  0
 29 27  1  0  0  0  0
 30 31  1  0  0  0  0
 31 32  1  0  0  0  0
 33 34  1  0  0  0  0
 34 35  1  0  0  0  0
 34 36  1  0  0  0  0
 37 34  1  0  0  0  0
M  END
>  <MODEL>
9

>  <REMARK>
 VINA RESULT:      -5.8      4.076      6.811
  Name = 
  7 active torsions:
  status: ('A' for Active; 'I' for Inactive)
    1  A    between atoms: C_1  and  C_4
    2  A    between atoms: C_1  and  C_27
    3  A    between atoms: C_2  and  O_22
    4  A    between atoms: C_4  and  C_12
    5  A    between atoms: C_6  and  O_22
    6  A    between atoms: C_8  and  C_12
    7  A    between atoms: C_23  and  C_30
                            x       y       z     vdW  Elec       q    Type
                         _______ _______ _______ _____ _____    ______ ____

>  <TORSDO>
F 7

$$$$
