=
 OpenBabel11122412313D

 30 35  0  0  1  0  0  0  0  0999 V2000
  160.9930  204.7890  148.2320 C   0  0  1  0  0  3  0  0  0  0  0  0
  161.4840  202.3210  147.6030 C   0  0  0  0  0  0  0  0  0  0  0  0
  160.3350  203.5360  152.1600 O   0  0  0  0  0  0  0  0  0  0  0  0
  161.4200  205.5940  149.4640 C   0  0  1  0  0  3  0  0  0  0  0  0
  161.7960  205.1710  147.1370 O   0  0  0  0  0  0  0  0  0  0  0  0
  161.6010  208.7010  147.5350 O   0  0  0  0  0  0  0  0  0  0  0  0
  160.7010  208.1010  151.3520 C   0  0  1  0  0  3  0  0  0  0  0  0
  161.5020  207.4750  147.8160 C   0  0  0  0  0  0  0  0  0  0  0  0
  160.6720  207.0260  152.3710 N   0  0  2  0  0  0  0  0  0  0  0  0
  160.9100  204.6080  152.8100 C   0  0  0  0  0  0  0  0  0  0  0  0
  161.4040  206.4640  146.7080 C   0  0  2  0  0  3  0  0  0  0  0  0
  161.4640  207.0360  149.1840 N   0  0  0  0  0  0  0  0  0  0  0  0
  161.5300  200.9740  147.9740 C   0  0  0  0  0  3  0  0  0  0  0  0
  161.4920  207.5270  153.4660 C   0  0  0  0  0  2  0  0  0  0  0  0
  160.8610  209.4100  152.1000 C   0  0  0  0  0  2  0  0  0  0  0  0
  161.8380  202.6420  146.1910 C   0  0  0  0  0  1  0  0  0  0  0  0
  160.0430  203.8520  150.8090 C   0  0  1  0  0  3  0  0  0  0  0  0
  161.1520  200.5740  149.2530 C   0  0  0  0  0  3  0  0  0  0  0  0
  161.0820  203.3030  148.5480 C   0  0  0  0  0  0  0  0  0  0  0  0
  160.4840  205.3200  150.6250 C   0  0  1  0  0  3  0  0  0  0  0  0
  161.2260  204.5730  154.0270 O   0  0  0  0  0  0  0  0  0  0  0  0
  161.2030  205.7430  151.8990 C   0  0  1  0  0  3  0  0  0  0  0  0
  161.3290  209.0330  153.4890 C   0  0  0  0  0  2  0  0  0  0  0  0
  163.2140  207.8090  150.7630 C   0  0  0  0  0  1  0  0  0  0  0  0
  160.7080  201.5190  150.1730 C   0  0  0  0  0  3  0  0  0  0  0  0
  160.6710  202.8770  149.8370 C   0  0  0  0  0  0  0  0  0  0  0  0
  161.7910  208.0000  150.2460 C   0  0  2  0  0  3  0  0  0  0  0  0
  160.0200  206.4660  146.0640 C   0  0  0  0  0  2  0  0  0  0  0  0
  161.1170  205.8260  144.2610 C   0  0  0  0  0  1  0  0  0  0  0  0
  159.9820  205.5420  145.0200 O   0  0  0  0  0  0  0  0  0  0  0  0
  1  5  1  6  0  0  0
  1 19  1  0  0  0  0
  1  4  1  0  0  0  0
  2 13  2  0  0  0  0
  2 19  1  0  0  0  0
  3 10  1  0  0  0  0
  4 12  1  6  0  0  0
  4 20  1  0  0  0  0
  6  8  2  0  0  0  0
  7 15  1  1  0  0  0
  7  9  1  0  0  0  0
  8 12  1  0  0  0  0
  9 14  1  1  0  0  0
 10 21  2  0  0  0  0
 11 28  1  1  0  0  0
 11  5  1  0  0  0  0
 11  8  1  0  0  0  0
 12 27  1  0  0  0  0
 13 18  1  0  0  0  0
 14 23  1  0  0  0  0
 15 23  1  0  0  0  0
 16  2  1  0  0  0  0
 17 26  1  6  0  0  0
 17  3  1  0  0  0  0
 18 25  2  0  0  0  0
 19 26  2  0  0  0  0
 20 17  1  0  0  0  0
 20 22  1  0  0  0  0
 22  9  1  0  0  0  0
 22 10  1  0  0  0  0
 26 25  1  0  0  0  0
 27 24  1  0  0  0  0
 27  7  1  0  0  0  0
 29 30  1  0  0  0  0
 30 28  1  0  0  0  0
M  END
>  <MODEL>
1

>  <REMARK>
 VINA RESULT:      -6.3      0.000      0.000
  Name = 
  2 active torsions:
  status: ('A' for Active; 'I' for Inactive)
    1  A    between atoms: C_11  and  C_28
    2  A    between atoms: C_28  and  O_30
                            x       y       z     vdW  Elec       q    Type
                         _______ _______ _______ _____ _____    ______ ____

>  <TORSDO>
F 2

$$$$
=
 OpenBabel11122412313D

 30 35  0  0  1  0  0  0  0  0999 V2000
  161.0650  208.9890  153.7340 C   0  0  1  0  0  3  0  0  0  0  0  0
  161.8820  207.3580  151.8900 C   0  0  0  0  0  0  0  0  0  0  0  0
  160.7090  211.9400  150.8020 O   0  0  0  0  0  0  0  0  0  0  0  0
  159.9350  210.0240  153.7020 C   0  0  1  0  0  3  0  0  0  0  0  0
  160.6310  207.8630  154.4630 O   0  0  0  0  0  0  0  0  0  0  0  0
  159.2180  209.5450  157.2600 O   0  0  0  0  0  0  0  0  0  0  0  0
  158.8410  212.7690  154.9790 C   0  0  1  0  0  3  0  0  0  0  0  0
  159.6970  209.3730  156.1070 C   0  0  0  0  0  0  0  0  0  0  0  0
  158.9330  213.1920  153.5620 N   0  0  2  0  0  0  0  0  0  0  0  0
  159.5570  212.5410  151.2640 C   0  0  0  0  0  0  0  0  0  0  0  0
  160.5900  208.1930  155.8410 C   0  0  2  0  0  3  0  0  0  0  0  0
  159.4140  210.3030  155.0480 N   0  0  0  0  0  0  0  0  0  0  0  0
  162.2560  207.1380  150.5620 C   0  0  0  0  0  3  0  0  0  0  0  0
  157.6460  213.8090  153.2710 C   0  0  0  0  0  2  0  0  0  0  0  0
  157.9040  213.7440  155.6670 C   0  0  0  0  0  2  0  0  0  0  0  0
  161.9640  206.1890  152.8140 C   0  0  0  0  0  1  0  0  0  0  0  0
  161.3140  211.1480  151.8110 C   0  0  1  0  0  3  0  0  0  0  0  0
  162.2740  208.1850  149.6440 C   0  0  0  0  0  3  0  0  0  0  0  0
  161.4800  208.6540  152.3090 C   0  0  0  0  0  0  0  0  0  0  0  0
  160.4130  211.3090  153.0550 C   0  0  1  0  0  3  0  0  0  0  0  0
  158.8660  213.3180  150.5550 O   0  0  0  0  0  0  0  0  0  0  0  0
  159.1780  212.0900  152.6260 C   0  0  1  0  0  3  0  0  0  0  0  0
  157.1630  214.4530  154.5540 C   0  0  0  0  0  2  0  0  0  0  0  0
  157.0610  210.9220  154.5650 C   0  0  0  0  0  1  0  0  0  0  0  0
  161.9320  209.4710  150.0520 C   0  0  0  0  0  3  0  0  0  0  0  0
  161.5320  209.7170  151.3710 C   0  0  0  0  0  0  0  0  0  0  0  0
  158.3650  211.3130  155.2540 C   0  0  2  0  0  3  0  0  0  0  0  0
  161.9830  208.3970  156.4300 C   0  0  0  0  0  2  0  0  0  0  0  0
  163.0040  210.3390  156.6640 C   0  0  0  0  0  1  0  0  0  0  0  0
  161.9990  209.5480  157.2190 O   0  0  0  0  0  0  0  0  0  0  0  0
  1 19  1  6  0  0  0
  1  5  1  0  0  0  0
  2 19  1  0  0  0  0
  2 16  1  0  0  0  0
  3 10  1  0  0  0  0
  4  1  1  0  0  0  0
  4 12  1  1  0  0  0
  5 11  1  0  0  0  0
  7 27  1  0  0  0  0
  7 15  1  1  0  0  0
  8  6  2  0  0  0  0
  9 14  1  6  0  0  0
  9  7  1  0  0  0  0
 10 22  1  0  0  0  0
 11  8  1  0  0  0  0
 11 28  1  6  0  0  0
 12 27  1  0  0  0  0
 12  8  1  0  0  0  0
 13  2  2  0  0  0  0
 14 23  1  0  0  0  0
 17  3  1  6  0  0  0
 17 20  1  0  0  0  0
 18 25  2  0  0  0  0
 18 13  1  0  0  0  0
 20  4  1  0  0  0  0
 21 10  2  0  0  0  0
 22 20  1  0  0  0  0
 22  9  1  0  0  0  0
 23 15  1  0  0  0  0
 24 27  1  0  0  0  0
 25 26  1  0  0  0  0
 26 17  1  0  0  0  0
 26 19  2  0  0  0  0
 28 30  1  0  0  0  0
 29 30  1  0  0  0  0
M  END
>  <MODEL>
2

>  <REMARK>
 VINA RESULT:      -5.8      4.539      8.158
  Name = 
  2 active torsions:
  status: ('A' for Active; 'I' for Inactive)
    1  A    between atoms: C_11  and  C_28
    2  A    between atoms: C_28  and  O_30
                            x       y       z     vdW  Elec       q    Type
                         _______ _______ _______ _____ _____    ______ ____

>  <TORSDO>
F 2

$$$$
=
 OpenBabel11122412313D

 30 35  0  0  1  0  0  0  0  0999 V2000
  160.8730  209.5270  153.6860 C   0  0  1  0  0  3  0  0  0  0  0  0
  160.7960  206.9600  154.0530 C   0  0  0  0  0  0  0  0  0  0  0  0
  162.4130  208.8180  149.8700 O   0  0  0  0  0  0  0  0  0  0  0  0
  160.5020  210.3560  152.4520 C   0  0  1  0  0  3  0  0  0  0  0  0
  159.8400  209.6410  154.6390 O   0  0  0  0  0  0  0  0  0  0  0  0
  159.3780  213.1650  154.5140 O   0  0  0  0  0  0  0  0  0  0  0  0
  161.0000  213.1290  150.8940 C   0  0  1  0  0  3  0  0  0  0  0  0
  159.7690  212.0150  154.1760 C   0  0  0  0  0  0  0  0  0  0  0  0
  161.4140  212.1860  149.8290 N   0  0  2  0  0  0  0  0  0  0  0  0
  161.7470  209.8220  149.1980 C   0  0  0  0  0  0  0  0  0  0  0  0
  159.8850  210.9340  155.2160 C   0  0  2  0  0  3  0  0  0  0  0  0
  160.1210  211.7290  152.8130 N   0  0  0  0  0  0  0  0  0  0  0  0
  161.0860  205.6730  153.5940 C   0  0  0  0  0  3  0  0  0  0  0  0
  160.7020  212.6300  148.6380 C   0  0  0  0  0  2  0  0  0  0  0  0
  160.7040  214.4530  150.2160 C   0  0  0  0  0  2  0  0  0  0  0  0
  160.1550  207.0670  155.3960 C   0  0  0  0  0  1  0  0  0  0  0  0
  162.4070  209.0470  151.2700 C   0  0  1  0  0  3  0  0  0  0  0  0
  161.7430  205.4800  152.3820 C   0  0  0  0  0  3  0  0  0  0  0  0
  161.1410  208.0900  153.2640 C   0  0  0  0  0  0  0  0  0  0  0  0
  161.6530  210.3800  151.4650 C   0  0  1  0  0  3  0  0  0  0  0  0
  161.6510  209.8500  147.9440 O   0  0  0  0  0  0  0  0  0  0  0  0
  161.0840  210.7840  150.1120 C   0  0  1  0  0  3  0  0  0  0  0  0
  160.5580  214.1340  148.7430 C   0  0  0  0  0  2  0  0  0  0  0  0
  158.5360  212.3120  150.9960 C   0  0  0  0  0  1  0  0  0  0  0  0
  162.1330  206.5800  151.6210 C   0  0  0  0  0  3  0  0  0  0  0  0
  161.8370  207.8800  152.0450 C   0  0  0  0  0  0  0  0  0  0  0  0
  159.7850  212.7150  151.7740 C   0  0  2  0  0  3  0  0  0  0  0  0
  161.1140  211.1330  156.0990 C   0  0  0  0  0  2  0  0  0  0  0  0
  162.3400  209.6160  157.1290 C   0  0  0  0  0  1  0  0  0  0  0  0
  161.0870  210.2260  157.1590 O   0  0  0  0  0  0  0  0  0  0  0  0
  1 19  1  6  0  0  0
  1  5  1  0  0  0  0
  2 16  1  0  0  0  0
  4 12  1  1  0  0  0
  4  1  1  0  0  0  0
  5 11  1  0  0  0  0
  7 15  1  6  0  0  0
  7 27  1  0  0  0  0
  8  6  2  0  0  0  0
  8 11  1  0  0  0  0
  9 14  1  6  0  0  0
  9 22  1  0  0  0  0
  9  7  1  0  0  0  0
 10  3  1  0  0  0  0
 10 22  1  0  0  0  0
 11 28  1  6  0  0  0
 12  8  1  0  0  0  0
 13  2  1  0  0  0  0
 14 23  1  0  0  0  0
 17  3  1  6  0  0  0
 17 20  1  0  0  0  0
 17 26  1  0  0  0  0
 18 13  2  0  0  0  0
 19  2  2  0  0  0  0
 20  4  1  0  0  0  0
 21 10  2  0  0  0  0
 22 20  1  0  0  0  0
 23 15  1  0  0  0  0
 24 27  1  0  0  0  0
 25 26  2  0  0  0  0
 25 18  1  0  0  0  0
 26 19  1  0  0  0  0
 27 12  1  0  0  0  0
 28 30  1  0  0  0  0
 29 30  1  0  0  0  0
M  END
>  <MODEL>
3

>  <REMARK>
 VINA RESULT:      -5.0      4.128      7.671
  Name = 
  2 active torsions:
  status: ('A' for Active; 'I' for Inactive)
    1  A    between atoms: C_11  and  C_28
    2  A    between atoms: C_28  and  O_30
                            x       y       z     vdW  Elec       q    Type
                         _______ _______ _______ _____ _____    ______ ____

>  <TORSDO>
F 2

$$$$
=
 OpenBabel11122412313D

 30 35  0  0  1  0  0  0  0  0999 V2000
  161.3740  208.7270  151.7840 C   0  0  1  0  0  3  0  0  0  0  0  0
  160.4460  209.6310  154.0310 C   0  0  0  0  0  0  0  0  0  0  0  0
  161.3370  204.8960  153.4440 O   0  0  0  0  0  0  0  0  0  0  0  0
  160.9980  207.4650  151.0010 C   0  0  1  0  0  3  0  0  0  0  0  0
  160.7900  209.8450  151.1550 O   0  0  0  0  0  0  0  0  0  0  0  0
  161.6770  209.0940  147.7930 O   0  0  0  0  0  0  0  0  0  0  0  0
  162.0240  205.2890  148.8620 C   0  0  1  0  0  3  0  0  0  0  0  0
  161.4870  208.9250  149.0280 C   0  0  0  0  0  0  0  0  0  0  0  0
  161.7190  204.3790  149.9900 N   0  0  2  0  0  0  0  0  0  0  0  0
  160.9340  204.1990  152.3240 C   0  0  0  0  0  0  0  0  0  0  0  0
  161.4870  210.1130  149.9500 C   0  0  2  0  0  3  0  0  0  0  0  0
  161.2880  207.6080  149.5670 N   0  0  0  0  0  0  0  0  0  0  0  0
  160.0800  209.3980  155.3600 C   0  0  0  0  0  3  0  0  0  0  0  0
  160.9110  203.3170  149.4070 C   0  0  0  0  0  2  0  0  0  0  0  0
  162.0640  204.4350  147.6090 C   0  0  0  0  0  2  0  0  0  0  0  0
  160.3180  211.0320  153.5350 C   0  0  0  0  0  1  0  0  0  0  0  0
  161.8290  206.1800  153.0990 C   0  0  1  0  0  3  0  0  0  0  0  0
  160.2280  208.1350  155.9280 C   0  0  0  0  0  3  0  0  0  0  0  0
  160.9430  208.5650  153.2350 C   0  0  0  0  0  0  0  0  0  0  0  0
  161.7280  206.2590  151.5600 C   0  0  1  0  0  3  0  0  0  0  0  0
  160.4920  203.0220  152.3820 O   0  0  0  0  0  0  0  0  0  0  0  0
  160.9830  205.0170  151.0880 C   0  0  1  0  0  3  0  0  0  0  0  0
  161.3830  203.1350  147.9800 C   0  0  0  0  0  2  0  0  0  0  0  0
  159.5820  206.1190  148.5530 C   0  0  0  0  0  1  0  0  0  0  0  0
  160.7610  207.0930  155.1750 C   0  0  0  0  0  3  0  0  0  0  0  0
  161.1170  207.2920  153.8360 C   0  0  0  0  0  0  0  0  0  0  0  0
  161.0600  206.4900  148.6380 C   0  0  2  0  0  3  0  0  0  0  0  0
  162.9010  210.6300  150.2010 C   0  0  0  0  0  2  0  0  0  0  0  0
  162.0750  212.2330  148.9300 C   0  0  0  0  0  1  0  0  0  0  0  0
  163.2550  211.5410  149.2060 O   0  0  0  0  0  0  0  0  0  0  0  0
  1  5  1  6  0  0  0
  1 19  1  0  0  0  0
  2 13  1  0  0  0  0
  4 12  1  6  0  0  0
  4 20  1  0  0  0  0
  4  1  1  0  0  0  0
  6  8  2  0  0  0  0
  7 15  1  6  0  0  0
  7  9  1  0  0  0  0
  8 12  1  0  0  0  0
  8 11  1  0  0  0  0
  9 14  1  6  0  0  0
  9 22  1  0  0  0  0
 10 21  2  0  0  0  0
 10  3  1  0  0  0  0
 11 28  1  1  0  0  0
 11  5  1  0  0  0  0
 13 18  2  0  0  0  0
 15 23  1  0  0  0  0
 16  2  1  0  0  0  0
 17  3  1  1  0  0  0
 17 26  1  0  0  0  0
 19 26  1  0  0  0  0
 19  2  2  0  0  0  0
 20 17  1  0  0  0  0
 22 20  1  0  0  0  0
 22 10  1  0  0  0  0
 23 14  1  0  0  0  0
 24 27  1  0  0  0  0
 25 18  1  0  0  0  0
 26 25  2  0  0  0  0
 27  7  1  0  0  0  0
 27 12  1  0  0  0  0
 29 30  1  0  0  0  0
 30 28  1  0  0  0  0
M  END
>  <MODEL>
4

>  <REMARK>
 VINA RESULT:      -4.9      1.933      6.048
  Name = 
  2 active torsions:
  status: ('A' for Active; 'I' for Inactive)
    1  A    between atoms: C_11  and  C_28
    2  A    between atoms: C_28  and  O_30
                            x       y       z     vdW  Elec       q    Type
                         _______ _______ _______ _____ _____    ______ ____

>  <TORSDO>
F 2

$$$$
=
 OpenBabel11122412313D

 30 35  0  0  1  0  0  0  0  0999 V2000
  161.2380  203.2820  147.5260 C   0  0  1  0  0  3  0  0  0  0  0  0
  160.6520  203.6240  145.0220 C   0  0  0  0  0  0  0  0  0  0  0  0
  162.4080  207.2880  147.6780 O   0  0  0  0  0  0  0  0  0  0  0  0
  160.9850  204.1970  148.7290 C   0  0  1  0  0  3  0  0  0  0  0  0
  160.2990  202.2300  147.5470 O   0  0  0  0  0  0  0  0  0  0  0  0
  160.5680  201.3390  150.9800 O   0  0  0  0  0  0  0  0  0  0  0  0
  161.9670  204.9830  151.6930 C   0  0  1  0  0  3  0  0  0  0  0  0
  160.6960  202.0180  149.9250 C   0  0  0  0  0  0  0  0  0  0  0  0
  162.1250  206.3020  151.0380 N   0  0  2  0  0  0  0  0  0  0  0  0
  161.9320  207.5860  148.9380 C   0  0  0  0  0  0  0  0  0  0  0  0
  160.6380  201.3310  148.5880 C   0  0  2  0  0  3  0  0  0  0  0  0
  160.9140  203.4370  149.9860 N   0  0  0  0  0  0  0  0  0  0  0  0
  160.6470  204.4450  143.8920 C   0  0  0  0  0  3  0  0  0  0  0  0
  161.4610  207.2440  151.9300 C   0  0  0  0  0  2  0  0  0  0  0  0
  161.9170  205.2390  153.1870 C   0  0  0  0  0  2  0  0  0  0  0  0
  160.1140  202.2430  144.8530 C   0  0  0  0  0  1  0  0  0  0  0  0
  162.5180  205.8860  147.4900 C   0  0  1  0  0  3  0  0  0  0  0  0
  161.1900  205.7260  143.9400 C   0  0  0  0  0  3  0  0  0  0  0  0
  161.1830  204.1070  146.2480 C   0  0  0  0  0  0  0  0  0  0  0  0
  162.0660  205.2560  148.8260 C   0  0  1  0  0  3  0  0  0  0  0  0
  161.7810  208.7670  149.3430 O   0  0  0  0  0  0  0  0  0  0  0  0
  161.5270  206.3790  149.7000 C   0  0  1  0  0  3  0  0  0  0  0  0
  161.6350  206.7180  153.3390 C   0  0  0  0  0  2  0  0  0  0  0  0
  159.3950  204.8470  151.3490 C   0  0  0  0  0  1  0  0  0  0  0  0
  161.7600  206.1950  145.1210 C   0  0  0  0  0  3  0  0  0  0  0  0
  161.7600  205.4030  146.2740 C   0  0  0  0  0  0  0  0  0  0  0  0
  160.7380  204.1250  151.2730 C   0  0  2  0  0  3  0  0  0  0  0  0
  161.9240  200.5620  148.2950 C   0  0  0  0  0  2  0  0  0  0  0  0
  161.5630  199.5750  146.3560 C   0  0  0  0  0  1  0  0  0  0  0  0
  161.6170  199.3260  147.7270 O   0  0  0  0  0  0  0  0  0  0  0  0
  1 19  1  6  0  0  0
  1  5  1  0  0  0  0
  1  4  1  0  0  0  0
  2 19  1  0  0  0  0
  3 10  1  0  0  0  0
  4 20  1  0  0  0  0
  4 12  1  1  0  0  0
  5 11  1  0  0  0  0
  7 15  1  1  0  0  0
  8 12  1  0  0  0  0
  8  6  2  0  0  0  0
  9  7  1  0  0  0  0
  9 14  1  1  0  0  0
 10 21  2  0  0  0  0
 10 22  1  0  0  0  0
 11 28  1  6  0  0  0
 11  8  1  0  0  0  0
 12 27  1  0  0  0  0
 13 18  1  0  0  0  0
 13  2  2  0  0  0  0
 14 23  1  0  0  0  0
 15 23  1  0  0  0  0
 16  2  1  0  0  0  0
 17 26  1  6  0  0  0
 17  3  1  0  0  0  0
 17 20  1  0  0  0  0
 18 25  2  0  0  0  0
 19 26  2  0  0  0  0
 20 22  1  0  0  0  0
 22  9  1  0  0  0  0
 25 26  1  0  0  0  0
 27 24  1  0  0  0  0
 27  7  1  0  0  0  0
 29 30  1  0  0  0  0
 30 28  1  0  0  0  0
M  END
>  <MODEL>
5

>  <REMARK>
 VINA RESULT:      -4.6      1.945      4.801
  Name = 
  2 active torsions:
  status: ('A' for Active; 'I' for Inactive)
    1  A    between atoms: C_11  and  C_28
    2  A    between atoms: C_28  and  O_30
                            x       y       z     vdW  Elec       q    Type
                         _______ _______ _______ _____ _____    ______ ____

>  <TORSDO>
F 2

$$$$
=
 OpenBabel11122412313D

 30 35  0  0  1  0  0  0  0  0999 V2000
  161.0430  203.8080  147.9780 C   0  0  1  0  0  3  0  0  0  0  0  0
  161.2190  201.3490  148.7840 C   0  0  0  0  0  0  0  0  0  0  0  0
  160.6010  204.9620  151.9650 O   0  0  0  0  0  0  0  0  0  0  0  0
  161.6560  205.0830  148.5660 C   0  0  1  0  0  3  0  0  0  0  0  0
  161.7830  203.4310  146.8380 O   0  0  0  0  0  0  0  0  0  0  0  0
  161.9900  206.6090  145.2550 O   0  0  0  0  0  0  0  0  0  0  0  0
  161.3660  208.2810  148.7990 C   0  0  1  0  0  3  0  0  0  0  0  0
  161.7900  205.7540  146.1590 C   0  0  0  0  0  0  0  0  0  0  0  0
  161.3140  207.9380  150.2390 N   0  0  2  0  0  0  0  0  0  0  0  0
  161.3380  206.1270  151.9180 C   0  0  0  0  0  0  0  0  0  0  0  0
  161.4920  204.3290  145.7810 C   0  0  2  0  0  3  0  0  0  0  0  0
  161.8240  206.1280  147.5460 N   0  0  0  0  0  0  0  0  0  0  0  0
  161.1570  200.4200  149.8260 C   0  0  0  0  0  3  0  0  0  0  0  0
  162.2740  208.8330  150.8720 C   0  0  0  0  0  2  0  0  0  0  0  0
  161.7250  209.7520  148.7120 C   0  0  0  0  0  2  0  0  0  0  0  0
  161.4820  200.8100  147.4180 C   0  0  0  0  0  1  0  0  0  0  0  0
  160.2270  204.5390  150.6650 C   0  0  1  0  0  3  0  0  0  0  0  0
  160.8520  200.8250  151.1240 C   0  0  0  0  0  3  0  0  0  0  0  0
  161.0050  202.7280  149.0490 C   0  0  0  0  0  0  0  0  0  0  0  0
  160.8000  205.6040  149.7050 C   0  0  1  0  0  3  0  0  0  0  0  0
  161.7520  206.7100  152.9530 O   0  0  0  0  0  0  0  0  0  0  0  0
  161.6670  206.5440  150.5330 C   0  0  1  0  0  3  0  0  0  0  0  0
  162.2700  210.1200  150.0750 C   0  0  0  0  0  2  0  0  0  0  0  0
  163.7750  207.3850  148.4220 C   0  0  0  0  0  1  0  0  0  0  0  0
  160.5900  202.1660  151.3890 C   0  0  0  0  0  3  0  0  0  0  0  0
  160.6650  203.1210  150.3690 C   0  0  0  0  0  0  0  0  0  0  0  0
  162.3400  207.4570  147.9080 C   0  0  2  0  0  3  0  0  0  0  0  0
  160.0650  204.1710  145.2630 C   0  0  0  0  0  2  0  0  0  0  0  0
  159.6680  202.0690  144.7240 C   0  0  0  0  0  1  0  0  0  0  0  0
  160.0500  203.2930  144.1780 O   0  0  0  0  0  0  0  0  0  0  0  0
  1  5  1  6  0  0  0
  1  4  1  0  0  0  0
  1 19  1  0  0  0  0
  2 19  2  0  0  0  0
  2 13  1  0  0  0  0
  4 12  1  6  0  0  0
  4 20  1  0  0  0  0
  6  8  2  0  0  0  0
  7 15  1  1  0  0  0
  7  9  1  0  0  0  0
  8 12  1  0  0  0  0
  9 22  1  0  0  0  0
  9 14  1  1  0  0  0
 10  3  1  0  0  0  0
 10 21  2  0  0  0  0
 11 28  1  1  0  0  0
 11  8  1  0  0  0  0
 11  5  1  0  0  0  0
 12 27  1  0  0  0  0
 13 18  2  0  0  0  0
 15 23  1  0  0  0  0
 16  2  1  0  0  0  0
 17 26  1  6  0  0  0
 17  3  1  0  0  0  0
 18 25  1  0  0  0  0
 19 26  1  0  0  0  0
 20 22  1  0  0  0  0
 20 17  1  0  0  0  0
 22 10  1  0  0  0  0
 23 14  1  0  0  0  0
 26 25  2  0  0  0  0
 27 24  1  0  0  0  0
 27  7  1  0  0  0  0
 30 29  1  0  0  0  0
 30 28  1  0  0  0  0
M  END
>  <MODEL>
6

>  <REMARK>
 VINA RESULT:      -4.5      1.621      2.246
  Name = 
  2 active torsions:
  status: ('A' for Active; 'I' for Inactive)
    1  A    between atoms: C_11  and  C_28
    2  A    between atoms: C_28  and  O_30
                            x       y       z     vdW  Elec       q    Type
                         _______ _______ _______ _____ _____    ______ ____

>  <TORSDO>
F 2

$$$$
=
 OpenBabel11122412313D

 30 35  0  0  1  0  0  0  0  0999 V2000
  160.3360  211.3410  153.5100 C   0  0  1  0  0  3  0  0  0  0  0  0
  161.7290  210.3630  151.5520 C   0  0  0  0  0  0  0  0  0  0  0  0
  158.6230  214.0170  150.8000 O   0  0  0  0  0  0  0  0  0  0  0  0
  158.8660  211.7700  153.5530 C   0  0  1  0  0  3  0  0  0  0  0  0
  160.4670  210.0940  154.1550 O   0  0  0  0  0  0  0  0  0  0  0  0
  158.5470  210.7920  157.0670 O   0  0  0  0  0  0  0  0  0  0  0  0
  156.7150  213.6590  155.0260 C   0  0  1  0  0  3  0  0  0  0  0  0
  159.0160  210.9260  155.9040 C   0  0  0  0  0  0  0  0  0  0  0  0
  156.5660  214.1710  153.6440 N   0  0  2  0  0  0  0  0  0  0  0  0
  157.3390  214.0150  151.3040 C   0  0  0  0  0  0  0  0  0  0  0  0
  160.3290  210.2810  155.5520 C   0  0  2  0  0  3  0  0  0  0  0  0
  158.3190  211.7020  154.9150 N   0  0  0  0  0  0  0  0  0  0  0  0
  162.1200  210.4190  150.2120 C   0  0  0  0  0  3  0  0  0  0  0  0
  155.1310  214.1740  153.3980 C   0  0  0  0  0  2  0  0  0  0  0  0
  155.4680  214.0730  155.7830 C   0  0  0  0  0  2  0  0  0  0  0  0
  162.3470  209.2940  152.3880 C   0  0  0  0  0  1  0  0  0  0  0  0
  159.5470  213.5090  151.7490 C   0  0  1  0  0  3  0  0  0  0  0  0
  161.6450  211.4240  149.3720 C   0  0  0  0  0  3  0  0  0  0  0  0
  160.8110  211.3180  152.0640 C   0  0  0  0  0  0  0  0  0  0  0  0
  158.7080  213.1740  153.0010 C   0  0  1  0  0  3  0  0  0  0  0  0
  156.3550  214.4520  150.6540 O   0  0  0  0  0  0  0  0  0  0  0  0
  157.2420  213.3550  152.6300 C   0  0  1  0  0  3  0  0  0  0  0  0
  154.4550  214.4530  154.7250 C   0  0  0  0  0  2  0  0  0  0  0  0
  155.9190  211.2470  154.4780 C   0  0  0  0  0  1  0  0  0  0  0  0
  160.7840  212.3970  149.8730 C   0  0  0  0  0  3  0  0  0  0  0  0
  160.3590  212.3540  151.2050 C   0  0  0  0  0  0  0  0  0  0  0  0
  156.9390  212.1280  155.1950 C   0  0  2  0  0  3  0  0  0  0  0  0
  161.5070  211.0420  156.1550 C   0  0  0  0  0  2  0  0  0  0  0  0
  162.3740  209.3060  157.2050 C   0  0  0  0  0  1  0  0  0  0  0  0
  162.6350  210.2200  156.1850 O   0  0  0  0  0  0  0  0  0  0  0  0
  1 19  1  6  0  0  0
  1  4  1  0  0  0  0
  1  5  1  0  0  0  0
  2 19  1  0  0  0  0
  2 16  1  0  0  0  0
  3 10  1  0  0  0  0
  4 12  1  1  0  0  0
  5 11  1  0  0  0  0
  7 27  1  0  0  0  0
  7 15  1  1  0  0  0
  8  6  2  0  0  0  0
  9 14  1  6  0  0  0
  9  7  1  0  0  0  0
 10 22  1  0  0  0  0
 11  8  1  0  0  0  0
 11 28  1  6  0  0  0
 12 27  1  0  0  0  0
 12  8  1  0  0  0  0
 13  2  2  0  0  0  0
 14 23  1  0  0  0  0
 17  3  1  6  0  0  0
 17 20  1  0  0  0  0
 18 25  2  0  0  0  0
 18 13  1  0  0  0  0
 20  4  1  0  0  0  0
 21 10  2  0  0  0  0
 22 20  1  0  0  0  0
 22  9  1  0  0  0  0
 23 15  1  0  0  0  0
 24 27  1  0  0  0  0
 25 26  1  0  0  0  0
 26 17  1  0  0  0  0
 26 19  2  0  0  0  0
 28 30  1  0  0  0  0
 30 29  1  0  0  0  0
M  END
>  <MODEL>
7

>  <REMARK>
 VINA RESULT:      -4.4      6.381      9.605
  Name = 
  2 active torsions:
  status: ('A' for Active; 'I' for Inactive)
    1  A    between atoms: C_11  and  C_28
    2  A    between atoms: C_28  and  O_30
                            x       y       z     vdW  Elec       q    Type
                         _______ _______ _______ _____ _____    ______ ____

>  <TORSDO>
F 2

$$$$
=
 OpenBabel11122412313D

 30 35  0  0  1  0  0  0  0  0999 V2000
  161.1180  208.3070  152.8530 C   0  0  1  0  0  3  0  0  0  0  0  0
  161.5690  206.6160  150.9390 C   0  0  0  0  0  0  0  0  0  0  0  0
  161.4330  211.3860  150.0500 O   0  0  0  0  0  0  0  0  0  0  0  0
  160.2420  209.5640  152.8690 C   0  0  1  0  0  3  0  0  0  0  0  0
  160.4440  207.2730  153.5360 O   0  0  0  0  0  0  0  0  0  0  0  0
  159.4180  209.1050  156.4070 O   0  0  0  0  0  0  0  0  0  0  0  0
  159.7670  212.4260  154.2660 C   0  0  1  0  0  3  0  0  0  0  0  0
  159.8540  208.8810  155.2450 C   0  0  0  0  0  0  0  0  0  0  0  0
  159.9580  212.8780  152.8680 N   0  0  2  0  0  0  0  0  0  0  0  0
  160.4370  212.2040  150.5410 C   0  0  0  0  0  0  0  0  0  0  0  0
  160.4690  207.5460  154.9260 C   0  0  2  0  0  3  0  0  0  0  0  0
  159.7870  209.8940  154.2280 N   0  0  0  0  0  0  0  0  0  0  0  0
  161.8940  206.3760  149.6010 C   0  0  0  0  0  3  0  0  0  0  0  0
  158.8390  213.7740  152.6080 C   0  0  0  0  0  2  0  0  0  0  0  0
  159.0630  213.5520  154.9980 C   0  0  0  0  0  2  0  0  0  0  0  0
  161.3880  205.4200  151.8120 C   0  0  0  0  0  1  0  0  0  0  0  0
  161.8440  210.4380  151.0220 C   0  0  1  0  0  3  0  0  0  0  0  0
  162.1450  207.4310  148.7280 C   0  0  0  0  0  3  0  0  0  0  0  0
  161.4580  207.9500  151.4130 C   0  0  0  0  0  0  0  0  0  0  0  0
  160.9930  210.7400  152.2760 C   0  0  1  0  0  3  0  0  0  0  0  0
  159.9370  213.1430  149.8680 O   0  0  0  0  0  0  0  0  0  0  0  0
  159.9610  211.7890  151.8840 C   0  0  1  0  0  3  0  0  0  0  0  0
  158.5010  214.4530  153.9190 C   0  0  0  0  0  2  0  0  0  0  0  0
  157.6290  211.0320  153.7800 C   0  0  0  0  0  1  0  0  0  0  0  0
  162.0900  208.7430  149.1920 C   0  0  0  0  0  3  0  0  0  0  0  0
  161.7470  209.0150  150.5210 C   0  0  0  0  0  0  0  0  0  0  0  0
  158.9830  211.0990  154.4810 C   0  0  2  0  0  3  0  0  0  0  0  0
  161.8700  207.4160  155.5180 C   0  0  0  0  0  2  0  0  0  0  0  0
  160.7700  206.6220  157.2570 C   0  0  0  0  0  1  0  0  0  0  0  0
  161.8040  207.4900  156.9090 O   0  0  0  0  0  0  0  0  0  0  0  0
  1 19  1  6  0  0  0
  1  4  1  0  0  0  0
  1  5  1  0  0  0  0
  2 19  1  0  0  0  0
  2 16  1  0  0  0  0
  3 10  1  0  0  0  0
  4 12  1  1  0  0  0
  5 11  1  0  0  0  0
  7 27  1  0  0  0  0
  7 15  1  1  0  0  0
  8  6  2  0  0  0  0
  9 14  1  6  0  0  0
  9  7  1  0  0  0  0
 10 22  1  0  0  0  0
 11  8  1  0  0  0  0
 11 28  1  6  0  0  0
 12 27  1  0  0  0  0
 12  8  1  0  0  0  0
 13  2  2  0  0  0  0
 14 23  1  0  0  0  0
 17  3  1  6  0  0  0
 17 20  1  0  0  0  0
 18 25  2  0  0  0  0
 18 13  1  0  0  0  0
 20  4  1  0  0  0  0
 21 10  2  0  0  0  0
 22 20  1  0  0  0  0
 22  9  1  0  0  0  0
 23 15  1  0  0  0  0
 24 27  1  0  0  0  0
 25 26  1  0  0  0  0
 26 17  1  0  0  0  0
 26 19  2  0  0  0  0
 28 30  1  0  0  0  0
 30 29  1  0  0  0  0
M  END
>  <MODEL>
8

>  <REMARK>
 VINA RESULT:      -4.2      3.700      7.409
  Name = 
  2 active torsions:
  status: ('A' for Active; 'I' for Inactive)
    1  A    between atoms: C_11  and  C_28
    2  A    between atoms: C_28  and  O_30
                            x       y       z     vdW  Elec       q    Type
                         _______ _______ _______ _____ _____    ______ ____

>  <TORSDO>
F 2

$$$$
=
 OpenBabel11122412313D

 30 35  0  0  1  0  0  0  0  0999 V2000
  161.2600  207.4770  151.6200 C   0  0  1  0  0  3  0  0  0  0  0  0
  162.2610  209.7830  150.9770 C   0  0  0  0  0  0  0  0  0  0  0  0
  160.9860  206.5920  147.5490 O   0  0  0  0  0  0  0  0  0  0  0  0
  161.5310  206.0890  151.0320 C   0  0  1  0  0  3  0  0  0  0  0  0
  161.9330  207.5900  152.8540 O   0  0  0  0  0  0  0  0  0  0  0  0
  160.9840  204.4670  154.2690 O   0  0  0  0  0  0  0  0  0  0  0  0
  160.3290  203.1350  150.5900 C   0  0  1  0  0  3  0  0  0  0  0  0
  161.1610  205.3620  153.3980 C   0  0  0  0  0  0  0  0  0  0  0  0
  160.5590  203.5070  149.1740 N   0  0  2  0  0  0  0  0  0  0  0  0
  161.3290  205.2570  147.6130 C   0  0  0  0  0  0  0  0  0  0  0  0
  161.2590  206.8020  153.8200 C   0  0  2  0  0  3  0  0  0  0  0  0
  161.2520  205.0220  152.0040 N   0  0  0  0  0  0  0  0  0  0  0  0
  162.6080  210.7070  149.9880 C   0  0  0  0  0  3  0  0  0  0  0  0
  161.2770  202.3750  148.6030 C   0  0  0  0  0  2  0  0  0  0  0  0
  160.2180  201.6230  150.6330 C   0  0  0  0  0  2  0  0  0  0  0  0
  162.5030  210.1890  152.3920 C   0  0  0  0  0  1  0  0  0  0  0  0
  160.6000  207.0830  148.8220 C   0  0  1  0  0  3  0  0  0  0  0  0
  162.3580  210.4400  148.6440 C   0  0  0  0  0  3  0  0  0  0  0  0
  161.6780  208.5400  150.6130 C   0  0  0  0  0  0  0  0  0  0  0  0
  160.7050  205.8750  149.7780 C   0  0  1  0  0  3  0  0  0  0  0  0
  161.6750  204.5970  146.5990 O   0  0  0  0  0  0  0  0  0  0  0  0
  161.3460  204.7330  149.0000 C   0  0  1  0  0  3  0  0  0  0  0  0
  160.7910  201.1340  149.3210 C   0  0  0  0  0  2  0  0  0  0  0  0
  162.8300  203.2500  151.2820 C   0  0  0  0  0  1  0  0  0  0  0  0
  161.7410  209.2470  148.2770 C   0  0  0  0  0  3  0  0  0  0  0  0
  161.4010  208.2940  149.2430 C   0  0  0  0  0  0  0  0  0  0  0  0
  161.3880  203.6070  151.6280 C   0  0  2  0  0  3  0  0  0  0  0  0
  159.8920  207.3750  154.1840 C   0  0  0  0  0  2  0  0  0  0  0  0
  159.9640  207.2570  156.3860 C   0  0  0  0  0  1  0  0  0  0  0  0
  160.0010  208.1660  155.3290 O   0  0  0  0  0  0  0  0  0  0  0  0
  1 19  1  6  0  0  0
  1  5  1  0  0  0  0
  2 16  1  0  0  0  0
  3 10  1  0  0  0  0
  4  1  1  0  0  0  0
  4 12  1  1  0  0  0
  5 11  1  0  0  0  0
  7 15  1  6  0  0  0
  7 27  1  0  0  0  0
  8 11  1  0  0  0  0
  8  6  2  0  0  0  0
  9 14  1  6  0  0  0
  9  7  1  0  0  0  0
 10 22  1  0  0  0  0
 11 28  1  6  0  0  0
 12  8  1  0  0  0  0
 13  2  2  0  0  0  0
 14 23  1  0  0  0  0
 17  3  1  6  0  0  0
 17 26  1  0  0  0  0
 17 20  1  0  0  0  0
 18 13  1  0  0  0  0
 19  2  1  0  0  0  0
 20  4  1  0  0  0  0
 21 10  2  0  0  0  0
 22  9  1  0  0  0  0
 22 20  1  0  0  0  0
 23 15  1  0  0  0  0
 24 27  1  0  0  0  0
 25 18  2  0  0  0  0
 25 26  1  0  0  0  0
 26 19  2  0  0  0  0
 27 12  1  0  0  0  0
 28 30  1  0  0  0  0
 30 29  1  0  0  0  0
M  END
>  <MODEL>
9

>  <REMARK>
 VINA RESULT:      -4.2      1.920      6.988
  Name = 
  2 active torsions:
  status: ('A' for Active; 'I' for Inactive)
    1  A    between atoms: C_11  and  C_28
    2  A    between atoms: C_28  and  O_30
                            x       y       z     vdW  Elec       q    Type
                         _______ _______ _______ _____ _____    ______ ____

>  <TORSDO>
F 2

$$$$
