=
 OpenBabel11122414413D

 34 40  0  0  1  0  0  0  0  0999 V2000
  161.1560  207.9530  154.2410 N   0  0  1  0  0  0  0  0  0  0  0  0
  162.3290  206.1550  152.9300 C   0  0  0  0  0  2  0  0  0  0  0  0
  157.2460  213.1920  154.2200 C   0  0  1  0  0  3  0  0  0  0  0  0
  159.7680  209.6520  155.3660 C   0  0  2  0  0  3  0  0  0  0  0  0
  159.4820  211.8180  154.1380 C   0  0  2  0  0  3  0  0  0  0  0  0
  159.1190  213.9070  152.6910 C   0  0  0  0  0  1  0  0  0  0  0  0
  156.5680  212.1580  153.5590 O   0  0  0  0  0  1  0  0  0  0  0  0
  156.9480  211.9980  156.1940 C   0  0  0  0  0  2  0  0  0  0  0  0
  162.1030  208.3300  152.0500 C   0  0  2  0  0  3  0  0  0  0  0  0
  161.6470  208.8310  148.9150 C   0  0  0  0  0  2  0  0  0  0  0  0
  159.7200  211.1570  152.8530 N   0  0  0  0  0  2  0  0  0  0  0  0
  158.3640  211.4780  156.4030 C   0  0  0  0  0  2  0  0  0  0  0  0
  161.1630  209.4960  151.7310 C   0  0  1  0  0  3  0  0  0  0  0  0
  162.8350  206.0940  151.4900 C   0  0  0  0  0  2  0  0  0  0  0  0
  158.8170  210.8220  155.1090 C   0  0  2  0  0  3  0  0  0  0  0  0
  156.9430  213.2770  155.6010 O   0  0  0  0  0  0  0  0  0  0  0  0
  161.7500  207.4750  149.6460 C   0  0  1  0  0  3  0  0  0  0  0  0
  160.1850  209.0420  154.0180 C   0  0  1  0  0  3  0  0  0  0  0  0
  158.7580  213.1750  153.9730 C   0  0  1  0  0  3  0  0  0  0  0  0
  160.7400  210.1290  153.0670 C   0  0  2  0  0  3  0  0  0  0  0  0
  160.0820  207.6660  156.4220 C   0  0  0  0  0  2  0  0  0  0  0  0
  162.4610  209.9610  149.5520 C   0  0  0  0  0  2  0  0  0  0  0  0
  159.1270  208.6630  156.1380 O   0  0  0  0  0  0  0  0  0  0  0  0
  161.8100  210.5410  150.8140 C   0  0  0  0  0  2  0  0  0  0  0  0
  162.6530  207.4950  150.8990 C   0  0  1  0  0  3  0  0  0  0  0  0
  160.5210  206.9730  155.1250 C   0  0  0  0  0  2  0  0  0  0  0  0
  161.3880  207.3410  152.9320 C   0  0  2  0  0  3  0  0  0  0  0  0
  160.4660  207.0120  149.9530 O   0  0  0  0  0  0  0  0  0  0  0  0
  160.0880  206.2290  148.8590 C   0  0  0  0  0  2  0  0  0  0  0  0
  161.1500  202.9070  148.1870 C   0  0  0  0  0  2  0  0  0  0  0  0
  161.2570  204.9980  147.0550 C   0  0  0  0  0  2  0  0  0  0  0  0
  161.1810  205.2250  148.5440 C   0  0  2  0  0  3  0  0  0  0  0  0
  161.6830  203.5650  146.9350 C   0  0  0  0  0  2  0  0  0  0  0  0
  160.8930  203.9450  149.1810 N   0  0  0  0  0  2  0  0  0  0  0  0
  1 26  1  1  0  0  0
  2 27  1  0  0  0  0
  3  7  1  1  0  0  0
  3 16  1  0  0  0  0
  4 23  1  1  0  0  0
  5 11  1  6  0  0  0
  5 15  1  0  0  0  0
  6 19  1  0  0  0  0
  8 12  1  0  0  0  0
  9 27  1  0  0  0  0
 10 22  1  0  0  0  0
 10 17  1  0  0  0  0
 11 20  1  0  0  0  0
 13  9  1  0  0  0  0
 13 20  1  0  0  0  0
 14  2  1  0  0  0  0
 15  4  1  0  0  0  0
 15 12  1  0  0  0  0
 16  8  1  0  0  0  0
 17 28  1  0  0  0  0
 17 25  1  0  0  0  0
 18  1  1  0  0  0  0
 18  4  1  0  0  0  0
 19  5  1  0  0  0  0
 19  3  1  0  0  0  0
 20 18  1  0  0  0  0
 22 24  1  0  0  0  0
 23 21  1  0  0  0  0
 24 13  1  0  0  0  0
 25 14  1  0  0  0  0
 25  9  1  0  0  0  0
 26 21  1  0  0  0  0
 27  1  1  0  0  0  0
 29 28  1  0  0  0  0
 30 34  1  0  0  0  0
 31 32  1  0  0  0  0
 32 29  1  0  0  0  0
 32 34  1  0  0  0  0
 33 31  1  0  0  0  0
 33 30  1  0  0  0  0
M  END
>  <MODEL>
1

>  <REMARK>
 VINA RESULT:      -7.4      0.000      0.000
  Name = 
  3 active torsions:
  status: ('A' for Active; 'I' for Inactive)
    1  A    between atoms: C_17  and  O_28
    2  A    between atoms: O_28  and  C_29
    3  A    between atoms: C_29  and  C_32
                            x       y       z     vdW  Elec       q    Type
                         _______ _______ _______ _____ _____    ______ ____

>  <TORSDO>
F 3

$$$$
=
 OpenBabel11122414413D

 34 40  0  0  1  0  0  0  0  0999 V2000
  161.1770  208.5900  154.3270 N   0  0  1  0  0  0  0  0  0  0  0  0
  162.1630  206.4620  153.4190 C   0  0  0  0  0  2  0  0  0  0  0  0
  157.6940  214.0130  153.2290 C   0  0  1  0  0  3  0  0  0  0  0  0
  159.9630  210.6010  155.0780 C   0  0  2  0  0  3  0  0  0  0  0  0
  159.8110  212.4700  153.4160 C   0  0  2  0  0  3  0  0  0  0  0  0
  159.5690  214.2250  151.5570 C   0  0  0  0  0  1  0  0  0  0  0  0
  156.9160  212.9210  152.8170 O   0  0  0  0  0  1  0  0  0  0  0  0
  157.3640  213.2980  155.4190 C   0  0  0  0  0  2  0  0  0  0  0  0
  162.0820  208.4100  152.0940 C   0  0  2  0  0  3  0  0  0  0  0  0
  161.5690  208.2650  148.9310 C   0  0  0  0  0  2  0  0  0  0  0  0
  159.9560  211.5320  152.3000 N   0  0  0  0  0  2  0  0  0  0  0  0
  158.7400  212.7170  155.7160 C   0  0  0  0  0  2  0  0  0  0  0  0
  161.2270  209.5550  151.5440 C   0  0  1  0  0  3  0  0  0  0  0  0
  162.6170  206.0520  152.0190 C   0  0  0  0  0  2  0  0  0  0  0  0
  159.1000  211.7640  154.5880 C   0  0  2  0  0  3  0  0  0  0  0  0
  157.4420  214.4150  154.5640 O   0  0  0  0  0  0  0  0  0  0  0  0
  161.5880  207.0940  149.9360 C   0  0  1  0  0  3  0  0  0  0  0  0
  160.2880  209.6840  153.8880 C   0  0  1  0  0  3  0  0  0  0  0  0
  159.1920  213.8160  152.9720 C   0  0  1  0  0  3  0  0  0  0  0  0
  160.8970  210.4920  152.7170 C   0  0  2  0  0  3  0  0  0  0  0  0
  160.1510  208.8670  156.5330 C   0  0  0  0  0  2  0  0  0  0  0  0
  162.4890  209.4330  149.2980 C   0  0  0  0  0  2  0  0  0  0  0  0
  159.2690  209.8560  156.0540 O   0  0  0  0  0  0  0  0  0  0  0  0
  161.9250  210.3220  150.4150 C   0  0  0  0  0  2  0  0  0  0  0  0
  162.5280  207.3040  151.1430 C   0  0  1  0  0  3  0  0  0  0  0  0
  160.4940  207.8780  155.4100 C   0  0  0  0  0  2  0  0  0  0  0  0
  161.3190  207.6950  153.1770 C   0  0  2  0  0  3  0  0  0  0  0  0
  160.2810  206.8160  150.3520 O   0  0  0  0  0  0  0  0  0  0  0  0
  159.8640  205.7430  149.5610 C   0  0  0  0  0  2  0  0  0  0  0  0
  160.5540  202.3080  150.1450 C   0  0  0  0  0  2  0  0  0  0  0  0
  160.9640  203.8590  148.3860 C   0  0  0  0  0  2  0  0  0  0  0  0
  160.8440  204.5920  149.6990 C   0  0  2  0  0  3  0  0  0  0  0  0
  161.2210  202.4380  148.7950 C   0  0  0  0  0  2  0  0  0  0  0  0
  160.3760  203.6450  150.7040 N   0  0  0  0  0  2  0  0  0  0  0  0
  1 26  1  1  0  0  0
  3  7  1  1  0  0  0
  3 16  1  0  0  0  0
  4 23  1  1  0  0  0
  5 11  1  6  0  0  0
  5 15  1  0  0  0  0
  6 19  1  0  0  0  0
  8 12  1  0  0  0  0
  9 27  1  0  0  0  0
 10 22  1  0  0  0  0
 10 17  1  0  0  0  0
 11 20  1  0  0  0  0
 13  9  1  0  0  0  0
 13 20  1  0  0  0  0
 14  2  1  0  0  0  0
 15  4  1  0  0  0  0
 15 12  1  0  0  0  0
 16  8  1  0  0  0  0
 17 28  1  0  0  0  0
 17 25  1  0  0  0  0
 18  1  1  0  0  0  0
 18  4  1  0  0  0  0
 19  3  1  0  0  0  0
 19  5  1  0  0  0  0
 20 18  1  0  0  0  0
 22 24  1  0  0  0  0
 23 21  1  0  0  0  0
 24 13  1  0  0  0  0
 25 14  1  0  0  0  0
 25  9  1  0  0  0  0
 26 21  1  0  0  0  0
 27  2  1  0  0  0  0
 27  1  1  0  0  0  0
 29 32  1  0  0  0  0
 29 28  1  0  0  0  0
 30 34  1  0  0  0  0
 31 33  1  0  0  0  0
 31 32  1  0  0  0  0
 32 34  1  0  0  0  0
 33 30  1  0  0  0  0
M  END
>  <MODEL>
2

>  <REMARK>
 VINA RESULT:      -6.7      0.995      1.120
  Name = 
  3 active torsions:
  status: ('A' for Active; 'I' for Inactive)
    1  A    between atoms: C_17  and  O_28
    2  A    between atoms: O_28  and  C_29
    3  A    between atoms: C_29  and  C_32
                            x       y       z     vdW  Elec       q    Type
                         _______ _______ _______ _____ _____    ______ ____

>  <TORSDO>
F 3

$$$$
=
 OpenBabel11122414413D

 34 40  0  0  1  0  0  0  0  0999 V2000
  161.8380  213.5440  142.3390 N   0  0  1  0  0  0  0  0  0  0  0  0
  162.5140  212.8940  140.0050 C   0  0  0  0  0  2  0  0  0  0  0  0
  157.3260  213.3850  147.0670 C   0  0  1  0  0  3  0  0  0  0  0  0
  161.0870  213.9040  144.6600 C   0  0  2  0  0  3  0  0  0  0  0  0
  158.6280  214.2750  144.9670 C   0  0  2  0  0  3  0  0  0  0  0  0
  156.0740  214.4530  145.1580 C   0  0  0  0  0  1  0  0  0  0  0  0
  157.5810  212.0600  146.6830 O   0  0  0  0  0  1  0  0  0  0  0  0
  159.4530  213.4190  148.0120 C   0  0  0  0  0  2  0  0  0  0  0  0
  160.2800  213.4680  140.4940 C   0  0  2  0  0  3  0  0  0  0  0  0
  157.8190  212.0090  139.0420 C   0  0  0  0  0  2  0  0  0  0  0  0
  158.3310  213.5400  143.7360 N   0  0  0  0  0  2  0  0  0  0  0  0
  160.1810  214.2780  146.9880 C   0  0  0  0  0  2  0  0  0  0  0  0
  159.0640  213.2420  141.3970 C   0  0  1  0  0  3  0  0  0  0  0  0
  161.7050  212.5980  138.7430 C   0  0  0  0  0  2  0  0  0  0  0  0
  159.9060  213.7000  145.6100 C   0  0  2  0  0  3  0  0  0  0  0  0
  158.1090  213.8160  148.1670 O   0  0  0  0  0  0  0  0  0  0  0  0
  159.3230  211.7050  138.8770 C   0  0  1  0  0  3  0  0  0  0  0  0
  160.7370  213.2990  143.2910 C   0  0  1  0  0  3  0  0  0  0  0  0
  157.3980  214.3750  145.9000 C   0  0  1  0  0  3  0  0  0  0  0  0
  159.3870  213.8490  142.7710 C   0  0  2  0  0  3  0  0  0  0  0  0
  163.3050  213.5700  144.3000 C   0  0  0  0  0  2  0  0  0  0  0  0
  157.4970  213.4720  139.3610 C   0  0  0  0  0  2  0  0  0  0  0  0
  162.2360  213.2620  145.1650 O   0  0  0  0  0  0  0  0  0  0  0  0
  157.7810  213.8530  140.8200 C   0  0  0  0  0  2  0  0  0  0  0  0
  160.2460  212.9300  139.0680 C   0  0  1  0  0  3  0  0  0  0  0  0
  163.0530  212.9610  142.9140 C   0  0  0  0  0  2  0  0  0  0  0  0
  161.4890  212.8200  141.1160 C   0  0  2  0  0  3  0  0  0  0  0  0
  159.6850  210.6600  139.7340 O   0  0  0  0  0  0  0  0  0  0  0  0
  159.6140  209.5040  138.9520 C   0  0  0  0  0  2  0  0  0  0  0  0
  162.0780  206.9460  138.9320 C   0  0  0  0  0  2  0  0  0  0  0  0
  161.0210  208.3140  137.2960 C   0  0  0  0  0  2  0  0  0  0  0  0
  161.0140  209.0150  138.6320 C   0  0  2  0  0  3  0  0  0  0  0  0
  162.0760  207.2590  137.4530 C   0  0  0  0  0  2  0  0  0  0  0  0
  161.4630  208.0640  139.6420 N   0  0  0  0  0  2  0  0  0  0  0  0
  1 26  1  1  0  0  0
  1 18  1  0  0  0  0
  2 27  1  0  0  0  0
  3  7  1  6  0  0  0
  3 16  1  0  0  0  0
  4 23  1  1  0  0  0
  4 15  1  0  0  0  0
  5 11  1  6  0  0  0
  5 15  1  0  0  0  0
  5 19  1  0  0  0  0
  6 19  1  0  0  0  0
  8 16  1  0  0  0  0
  9 27  1  0  0  0  0
  9 13  1  0  0  0  0
 10 22  1  0  0  0  0
 12  8  1  0  0  0  0
 13 20  1  0  0  0  0
 14 25  1  0  0  0  0
 14  2  1  0  0  0  0
 15 12  1  0  0  0  0
 17 10  1  0  0  0  0
 17 25  1  0  0  0  0
 17 28  1  0  0  0  0
 18  4  1  0  0  0  0
 19  3  1  0  0  0  0
 20 18  1  0  0  0  0
 20 11  1  0  0  0  0
 21 23  1  0  0  0  0
 22 24  1  0  0  0  0
 24 13  1  0  0  0  0
 25  9  1  0  0  0  0
 26 21  1  0  0  0  0
 27  1  1  0  0  0  0
 29 28  1  0  0  0  0
 30 34  1  0  0  0  0
 31 33  1  0  0  0  0
 31 32  1  0  0  0  0
 32 29  1  0  0  0  0
 32 34  1  0  0  0  0
 33 30  1  0  0  0  0
M  END
>  <MODEL>
3

>  <REMARK>
 VINA RESULT:      -5.6      8.809     11.099
  Name = 
  3 active torsions:
  status: ('A' for Active; 'I' for Inactive)
    1  A    between atoms: C_17  and  O_28
    2  A    between atoms: O_28  and  C_29
    3  A    between atoms: C_29  and  C_32
                            x       y       z     vdW  Elec       q    Type
                         _______ _______ _______ _____ _____    ______ ____

>  <TORSDO>
F 3

$$$$
=
 OpenBabel11122414413D

 34 40  0  0  1  0  0  0  0  0999 V2000
  161.8920  209.6900  152.2450 N   0  0  1  0  0  0  0  0  0  0  0  0
  161.4790  211.4510  153.9920 C   0  0  0  0  0  2  0  0  0  0  0  0
  160.5810  203.7050  149.9670 C   0  0  1  0  0  3  0  0  0  0  0  0
  162.0060  207.9310  150.5200 C   0  0  2  0  0  3  0  0  0  0  0  0
  161.8020  205.5750  151.3470 C   0  0  2  0  0  3  0  0  0  0  0  0
  161.3910  203.2290  152.3060 C   0  0  0  0  0  1  0  0  0  0  0  0
  159.3600  204.3820  150.1000 O   0  0  0  0  0  1  0  0  0  0  0  0
  161.0690  205.1300  148.1930 C   0  0  0  0  0  2  0  0  0  0  0  0
  161.5170  209.1670  154.5730 C   0  0  2  0  0  3  0  0  0  0  0  0
  159.5810  207.9820  156.8400 C   0  0  0  0  0  2  0  0  0  0  0  0
  161.0540  206.0200  152.5250 N   0  0  0  0  0  2  0  0  0  0  0  0
  162.0990  206.0320  148.8570 C   0  0  0  0  0  2  0  0  0  0  0  0
  160.9960  207.7580  154.2790 C   0  0  1  0  0  3  0  0  0  0  0  0
  161.0430  211.3700  155.4540 C   0  0  0  0  0  2  0  0  0  0  0  0
  161.5140  206.5270  150.1690 C   0  0  2  0  0  3  0  0  0  0  0  0
  161.1460  203.8070  148.6720 O   0  0  0  0  0  0  0  0  0  0  0  0
  159.6310  209.4300  156.3070 C   0  0  1  0  0  3  0  0  0  0  0  0
  161.3770  208.3630  151.8540 C   0  0  1  0  0  3  0  0  0  0  0  0
  161.5940  204.0700  151.0560 C   0  0  1  0  0  3  0  0  0  0  0  0
  161.6220  207.3000  152.9510 C   0  0  2  0  0  3  0  0  0  0  0  0
  162.1940  210.0940  149.8480 C   0  0  0  0  0  2  0  0  0  0  0  0
  160.9230  207.2450  156.8060 C   0  0  0  0  0  2  0  0  0  0  0  0
  161.6270  208.8470  149.5160 O   0  0  0  0  0  0  0  0  0  0  0  0
  161.3170  206.7650  155.4020 C   0  0  0  0  0  2  0  0  0  0  0  0
  161.0260  209.8850  155.8260 C   0  0  1  0  0  3  0  0  0  0  0  0
  161.5830  210.6190  151.1540 C   0  0  0  0  0  2  0  0  0  0  0  0
  161.1420  210.0830  153.4380 C   0  0  2  0  0  3  0  0  0  0  0  0
  158.6700  209.5900  155.3030 O   0  0  0  0  0  0  0  0  0  0  0  0
  157.8950  210.6800  155.7080 C   0  0  0  0  0  2  0  0  0  0  0  0
  155.6170  212.9500  154.2000 C   0  0  0  0  0  2  0  0  0  0  0  0
  157.9820  212.7890  154.4110 C   0  0  0  0  0  2  0  0  0  0  0  0
  157.3660  211.4150  154.4900 C   0  0  2  0  0  3  0  0  0  0  0  0
  156.9040  213.6270  153.7890 C   0  0  0  0  0  2  0  0  0  0  0  0
  155.9190  211.5730  154.5810 N   0  0  0  0  0  2  0  0  0  0  0  0
  1 26  1  6  0  0  0
  1 27  1  0  0  0  0
  2 14  1  0  0  0  0
  3  7  1  6  0  0  0
  3 19  1  0  0  0  0
  4 23  1  6  0  0  0
  4 18  1  0  0  0  0
  5 11  1  1  0  0  0
  8 16  1  0  0  0  0
  8 12  1  0  0  0  0
  9 25  1  0  0  0  0
 11 20  1  0  0  0  0
 12 15  1  0  0  0  0
 13  9  1  0  0  0  0
 13 24  1  0  0  0  0
 14 25  1  0  0  0  0
 15  4  1  0  0  0  0
 15  5  1  0  0  0  0
 16  3  1  0  0  0  0
 17 10  1  0  0  0  0
 18  1  1  0  0  0  0
 18 20  1  0  0  0  0
 19  5  1  0  0  0  0
 19  6  1  0  0  0  0
 20 13  1  0  0  0  0
 21 26  1  0  0  0  0
 22 10  1  0  0  0  0
 23 21  1  0  0  0  0
 24 22  1  0  0  0  0
 25 17  1  0  0  0  0
 27  2  1  0  0  0  0
 27  9  1  0  0  0  0
 28 29  1  0  0  0  0
 28 17  1  0  0  0  0
 30 34  1  0  0  0  0
 31 32  1  0  0  0  0
 32 34  1  0  0  0  0
 32 29  1  0  0  0  0
 33 30  1  0  0  0  0
 33 31  1  0  0  0  0
M  END
>  <MODEL>
4

>  <REMARK>
 VINA RESULT:      -5.4      1.797      8.131
  Name = 
  3 active torsions:
  status: ('A' for Active; 'I' for Inactive)
    1  A    between atoms: C_17  and  O_28
    2  A    between atoms: O_28  and  C_29
    3  A    between atoms: C_29  and  C_32
                            x       y       z     vdW  Elec       q    Type
                         _______ _______ _______ _____ _____    ______ ____

>  <TORSDO>
F 3

$$$$
=
 OpenBabel11122414413D

 34 40  0  0  1  0  0  0  0  0999 V2000
  158.9350  212.7130  137.3610 N   0  0  1  0  0  0  0  0  0  0  0  0
  161.3900  213.0990  137.7450 C   0  0  0  0  0  2  0  0  0  0  0  0
  153.5490  209.3080  138.8230 C   0  0  1  0  0  3  0  0  0  0  0  0
  156.5020  212.3240  137.2760 C   0  0  2  0  0  3  0  0  0  0  0  0
  155.7640  209.9460  137.5650 C   0  0  2  0  0  3  0  0  0  0  0  0
  155.1400  207.5060  138.0610 C   0  0  0  0  0  1  0  0  0  0  0  0
  154.0680  209.8130  140.0240 O   0  0  0  0  0  1  0  0  0  0  0  0
  152.9700  211.4910  138.2650 C   0  0  0  0  0  2  0  0  0  0  0  0
  160.4960  210.9190  137.7860 C   0  0  2  0  0  3  0  0  0  0  0  0
  161.6240  208.6820  139.7900 C   0  0  0  0  0  2  0  0  0  0  0  0
  156.9800  209.6270  138.3160 N   0  0  0  0  0  2  0  0  0  0  0  0
  154.0340  211.7860  137.2170 C   0  0  0  0  0  2  0  0  0  0  0  0
  159.4240  209.9800  138.3450 C   0  0  1  0  0  3  0  0  0  0  0  0
  162.5190  212.1780  138.2050 C   0  0  0  0  0  2  0  0  0  0  0  0
  155.3870  211.4220  137.8060 C   0  0  2  0  0  3  0  0  0  0  0  0
  152.5660  210.1420  138.2360 O   0  0  0  0  0  0  0  0  0  0  0  0
  162.0590  210.1600  139.6880 C   0  0  1  0  0  3  0  0  0  0  0  0
  157.8340  211.8970  137.9110 C   0  0  1  0  0  3  0  0  0  0  0  0
  154.6350  208.9190  137.8140 C   0  0  1  0  0  3  0  0  0  0  0  0
  158.0810  210.3820  137.7150 C   0  0  2  0  0  3  0  0  0  0  0  0
  157.2480  214.4530  137.0120 C   0  0  0  0  0  2  0  0  0  0  0  0
  161.1490  208.0670  138.4700 C   0  0  0  0  0  2  0  0  0  0  0  0
  156.2430  213.6680  137.6120 O   0  0  0  0  0  0  0  0  0  0  0  0
  159.7330  208.5030  138.0720 C   0  0  0  0  0  2  0  0  0  0  0  0
  161.9340  210.7650  138.2720 C   0  0  1  0  0  3  0  0  0  0  0  0
  158.6140  214.1180  137.6250 C   0  0  0  0  0  2  0  0  0  0  0  0
  160.1330  212.3420  138.1160 C   0  0  2  0  0  3  0  0  0  0  0  0
  161.3540  210.9190  140.6290 O   0  0  0  0  0  0  0  0  0  0  0  0
  162.3240  211.4080  141.5060 C   0  0  0  0  0  2  0  0  0  0  0  0
  160.5650  212.5930  144.3550 C   0  0  0  0  0  2  0  0  0  0  0  0
  162.7210  212.9450  143.4090 C   0  0  0  0  0  2  0  0  0  0  0  0
  161.7460  212.5440  142.3300 C   0  0  2  0  0  3  0  0  0  0  0  0
  161.8380  213.3870  144.5390 C   0  0  0  0  0  2  0  0  0  0  0  0
  160.5070  212.1260  142.9730 N   0  0  0  0  0  2  0  0  0  0  0  0
  1 26  1  1  0  0  0
  1 18  1  0  0  0  0
  1 27  1  0  0  0  0
  2 27  1  0  0  0  0
  2 14  1  0  0  0  0
  3  7  1  1  0  0  0
  4 23  1  1  0  0  0
  4 15  1  0  0  0  0
  4 18  1  0  0  0  0
  5 15  1  0  0  0  0
  5 19  1  0  0  0  0
  5 11  1  1  0  0  0
  9 27  1  0  0  0  0
  9 25  1  0  0  0  0
  9 13  1  0  0  0  0
 12 15  1  0  0  0  0
 12  8  1  0  0  0  0
 14 25  1  0  0  0  0
 16  8  1  0  0  0  0
 16  3  1  0  0  0  0
 17 10  1  0  0  0  0
 17 28  1  0  0  0  0
 19  6  1  0  0  0  0
 19  3  1  0  0  0  0
 20 18  1  0  0  0  0
 20 11  1  0  0  0  0
 20 13  1  0  0  0  0
 21 23  1  0  0  0  0
 21 26  1  0  0  0  0
 22 10  1  0  0  0  0
 24 13  1  0  0  0  0
 24 22  1  0  0  0  0
 25 17  1  0  0  0  0
 28 29  1  0  0  0  0
 29 32  1  0  0  0  0
 30 33  1  0  0  0  0
 31 33  1  0  0  0  0
 32 34  1  0  0  0  0
 32 31  1  0  0  0  0
 34 30  1  0  0  0  0
M  END
>  <MODEL>
5

>  <REMARK>
 VINA RESULT:      -4.9     11.331     15.068
  Name = 
  3 active torsions:
  status: ('A' for Active; 'I' for Inactive)
    1  A    between atoms: C_17  and  O_28
    2  A    between atoms: O_28  and  C_29
    3  A    between atoms: C_29  and  C_32
                            x       y       z     vdW  Elec       q    Type
                         _______ _______ _______ _____ _____    ______ ____

>  <TORSDO>
F 3

$$$$
=
 OpenBabel11122414413D

 34 40  0  0  1  0  0  0  0  0999 V2000
  158.6090  214.0880  146.8080 N   0  0  1  0  0  0  0  0  0  0  0  0
  158.9590  213.6380  149.2570 C   0  0  0  0  0  2  0  0  0  0  0  0
  160.4320  212.9580  140.6320 C   0  0  1  0  0  3  0  0  0  0  0  0
  158.2850  214.2390  144.3680 C   0  0  2  0  0  3  0  0  0  0  0  0
  160.3690  214.1320  142.9810 C   0  0  2  0  0  3  0  0  0  0  0  0
  162.5580  213.8210  141.6770 C   0  0  0  0  0  1  0  0  0  0  0  0
  160.1720  211.7160  141.2290 O   0  0  0  0  0  1  0  0  0  0  0  0
  158.1430  213.3680  140.7130 C   0  0  0  0  0  2  0  0  0  0  0  0
  160.7950  213.7670  147.7840 C   0  0  2  0  0  3  0  0  0  0  0  0
  163.3830  211.9090  148.1640 C   0  0  0  0  0  2  0  0  0  0  0  0
  161.0670  213.3860  144.0300 N   0  0  0  0  0  2  0  0  0  0  0  0
  158.0960  214.3750  141.8530 C   0  0  0  0  0  2  0  0  0  0  0  0
  161.4250  213.2930  146.4720 C   0  0  1  0  0  3  0  0  0  0  0  0
  160.1910  213.2270  150.0640 C   0  0  0  0  0  2  0  0  0  0  0  0
  158.8660  213.7920  143.0260 C   0  0  2  0  0  3  0  0  0  0  0  0
  159.3170  213.5000  139.9460 O   0  0  0  0  0  0  0  0  0  0  0  0
  162.0860  211.8990  149.0000 C   0  0  1  0  0  3  0  0  0  0  0  0
  159.1120  213.6150  145.5030 C   0  0  1  0  0  3  0  0  0  0  0  0
  161.0480  213.9740  141.6000 C   0  0  1  0  0  3  0  0  0  0  0  0
  160.6190  213.9140  145.3200 C   0  0  2  0  0  3  0  0  0  0  0  0
  156.4430  214.3390  145.6940 C   0  0  0  0  0  2  0  0  0  0  0  0
  163.7530  213.2770  147.5820 C   0  0  0  0  0  2  0  0  0  0  0  0
  156.9460  213.8120  144.4870 O   0  0  0  0  0  0  0  0  0  0  0  0
  162.9080  213.6660  146.3610 C   0  0  0  0  0  2  0  0  0  0  0  0
  161.3810  213.2700  149.1020 C   0  0  1  0  0  3  0  0  0  0  0  0
  157.1900  213.7290  146.8870 C   0  0  0  0  0  2  0  0  0  0  0  0
  159.3510  213.3420  147.8250 C   0  0  2  0  0  3  0  0  0  0  0  0
  161.2200  210.9180  148.5050 O   0  0  0  0  0  0  0  0  0  0  0  0
  161.9550  209.7300  148.5350 C   0  0  0  0  0  2  0  0  0  0  0  0
  161.6280  206.4950  149.9650 C   0  0  0  0  0  2  0  0  0  0  0  0
  162.3570  208.6320  150.7190 C   0  0  0  0  0  2  0  0  0  0  0  0
  161.3790  208.7960  149.5830 C   0  0  2  0  0  3  0  0  0  0  0  0
  162.1210  207.2280  151.1920 C   0  0  0  0  0  2  0  0  0  0  0  0
  161.1310  207.4790  149.0080 N   0  0  0  0  0  2  0  0  0  0  0  0
  1 26  1  6  0  0  0
  1 27  1  0  0  0  0
  2 14  1  0  0  0  0
  3  7  1  1  0  0  0
  3 19  1  0  0  0  0
  4 23  1  1  0  0  0
  4 18  1  0  0  0  0
  5 15  1  0  0  0  0
  5 11  1  1  0  0  0
  8 12  1  0  0  0  0
  9 27  1  0  0  0  0
  9 25  1  0  0  0  0
 10 17  1  0  0  0  0
 11 20  1  0  0  0  0
 12 15  1  0  0  0  0
 13  9  1  0  0  0  0
 15  4  1  0  0  0  0
 16  3  1  0  0  0  0
 16  8  1  0  0  0  0
 17 25  1  0  0  0  0
 18  1  1  0  0  0  0
 19  6  1  0  0  0  0
 19  5  1  0  0  0  0
 20 18  1  0  0  0  0
 20 13  1  0  0  0  0
 21 26  1  0  0  0  0
 22 10  1  0  0  0  0
 23 21  1  0  0  0  0
 24 13  1  0  0  0  0
 24 22  1  0  0  0  0
 25 14  1  0  0  0  0
 27  2  1  0  0  0  0
 28 29  1  0  0  0  0
 28 17  1  0  0  0  0
 29 32  1  0  0  0  0
 30 33  1  0  0  0  0
 31 33  1  0  0  0  0
 32 31  1  0  0  0  0
 34 32  1  0  0  0  0
 34 30  1  0  0  0  0
M  END
>  <MODEL>
6

>  <REMARK>
 VINA RESULT:      -4.6      6.514      9.650
  Name = 
  3 active torsions:
  status: ('A' for Active; 'I' for Inactive)
    1  A    between atoms: C_17  and  O_28
    2  A    between atoms: O_28  and  C_29
    3  A    between atoms: C_29  and  C_32
                            x       y       z     vdW  Elec       q    Type
                         _______ _______ _______ _____ _____    ______ ____

>  <TORSDO>
F 3

$$$$
