=
 OpenBabel11122413183D

 31 35  0  0  1  0  0  0  0  0999 V2000
  161.1400  205.1160  152.6730 C   0  0  0  0  0  0  0  0  0  0  0  0
  161.5040  205.9790  148.9930 C   0  0  0  0  0  0  0  0  0  0  0  0
  161.4280  204.7980  148.2210 C   0  0  0  0  0  0  0  0  0  0  0  0
  162.2770  211.1160  149.9150 O   0  0  0  0  0  0  0  0  0  0  0  0
  161.9300  210.9470  148.7270 C   0  0  0  0  0  0  0  0  0  0  0  0
  161.1300  202.4060  147.9820 C   0  0  0  0  0  0  0  0  0  0  0  0
  161.3640  206.0860  150.4280 C   0  0  0  0  0  0  0  0  0  0  0  0
  161.1410  206.3940  153.2220 C   0  0  0  0  0  3  0  0  0  0  0  0
  161.3010  203.5250  148.8000 C   0  0  0  0  0  3  0  0  0  0  0  0
  161.6580  208.4040  148.9100 C   0  0  0  0  0  0  0  0  0  0  0  0
  161.0560  204.0240  153.5160 F   0  0  0  0  0  0  0  0  0  0  0  0
  161.9140  206.0570  146.2420 N   0  0  0  0  0  0  0  0  0  0  0  0
  161.0540  200.7870  148.6810 Cl  0  0  0  0  0  0  0  0  0  0  0  0
  161.5030  208.4800  150.2710 N   0  0  0  0  0  0  0  0  0  0  0  0
  161.7240  207.1710  148.3240 C   0  0  0  0  0  0  0  0  0  0  0  0
  161.7540  209.6210  148.1920 N   0  0  0  0  0  2  0  0  0  0  0  0
  161.2500  204.9910  151.2700 C   0  0  0  0  0  3  0  0  0  0  0  0
  161.2270  202.5220  146.5900 C   0  0  0  0  0  3  0  0  0  0  0  0
  161.3720  207.3800  151.0220 C   0  0  0  0  0  0  0  0  0  0  0  0
  161.2150  207.5060  152.4130 C   0  0  0  0  0  3  0  0  0  0  0  0
  161.8910  207.1490  146.9360 N   0  0  0  0  0  0  0  0  0  0  0  0
  161.5310  204.8800  146.7920 C   0  0  0  0  0  0  0  0  0  0  0  0
  161.4040  203.7590  145.9780 C   0  0  0  0  0  3  0  0  0  0  0  0
  159.9040  214.2350  148.3580 C   0  0  1  0  0  3  0  0  0  0  0  0
  162.4260  213.4680  148.3480 C   0  0  0  0  0  2  0  0  0  0  0  0
  160.2650  211.0190  146.4610 O   0  0  0  0  0  1  0  0  0  0  0  0
  159.0420  214.4530  149.4520 O   0  0  0  0  0  1  0  0  0  0  0  0
  161.3250  214.2510  149.0440 C   0  0  0  0  0  2  0  0  0  0  0  0
  160.6850  212.2730  146.9310 C   0  0  2  0  0  3  0  0  0  0  0  0
  161.9760  212.1150  147.7950 C   0  0  2  0  0  3  0  0  0  0  0  0
  159.5470  212.8450  147.8460 C   0  0  0  0  0  2  0  0  0  0  0  0
  1  8  1  0  0  0  0
  1 11  1  0  0  0  0
  2  7  1  0  0  0  0
  3  9  1  0  0  0  0
  3  2  2  0  0  0  0
  5  4  2  0  0  0  0
  6 13  1  0  0  0  0
  6  9  2  0  0  0  0
  7 19  2  0  0  0  0
  7 17  1  0  0  0  0
 10 14  2  0  0  0  0
 12 22  2  0  0  0  0
 12 21  1  0  0  0  0
 14 19  1  0  0  0  0
 15 10  1  0  0  0  0
 15  2  1  0  0  0  0
 16  5  1  0  0  0  0
 16 10  1  0  0  0  0
 17  1  2  0  0  0  0
 18  6  1  0  0  0  0
 19 20  1  0  0  0  0
 20  8  2  0  0  0  0
 21 15  2  0  0  0  0
 22  3  1  0  0  0  0
 23 18  2  0  0  0  0
 23 22  1  0  0  0  0
 24 28  1  0  0  0  0
 24 27  1  1  0  0  0
 25 28  1  0  0  0  0
 29 26  1  1  0  0  0
 29 30  1  0  0  0  0
 29 31  1  0  0  0  0
 30 25  1  0  0  0  0
 30  5  1  1  0  0  0
 31 24  1  0  0  0  0
M  END
>  <MODEL>
1

>  <REMARK>
 VINA RESULT:     -10.8      0.000      0.000
  Name = 
  1 active torsions:
  status: ('A' for Active; 'I' for Inactive)
    1  A    between atoms: C_5  and  C_30
                            x       y       z     vdW  Elec       q    Type
                         _______ _______ _______ _____ _____    ______ ____

>  <TORSDO>
F 1

$$$$
=
 OpenBabel11122413183D

 31 35  0  0  1  0  0  0  0  0999 V2000
  160.8670  202.1810  150.8750 C   0  0  0  0  0  0  0  0  0  0  0  0
  161.1760  205.6440  149.3490 C   0  0  0  0  0  0  0  0  0  0  0  0
  161.1430  205.5440  147.9400 C   0  0  0  0  0  0  0  0  0  0  0  0
  161.7460  208.0320  154.0200 O   0  0  0  0  0  0  0  0  0  0  0  0
  161.3990  208.8660  153.1580 C   0  0  0  0  0  0  0  0  0  0  0  0
  160.9410  204.2830  145.8820 C   0  0  0  0  0  0  0  0  0  0  0  0
  161.0400  204.5610  150.2980 C   0  0  0  0  0  0  0  0  0  0  0  0
  160.8200  202.5140  152.2240 C   0  0  0  0  0  3  0  0  0  0  0  0
  161.0710  204.3120  147.2730 C   0  0  0  0  0  3  0  0  0  0  0  0
  161.2320  207.1780  151.2350 C   0  0  0  0  0  0  0  0  0  0  0  0
  160.8320  200.8480  150.5120 F   0  0  0  0  0  0  0  0  0  0  0  0
  161.5670  207.8960  147.7620 N   0  0  0  0  0  0  0  0  0  0  0  0
  160.9340  202.7480  145.0130 Cl  0  0  0  0  0  0  0  0  0  0  0  0
  161.0810  206.1350  152.1130 N   0  0  0  0  0  0  0  0  0  0  0  0
  161.3440  206.9030  149.9010 C   0  0  0  0  0  0  0  0  0  0  0  0
  161.2750  208.4880  151.7730 N   0  0  0  0  0  2  0  0  0  0  0  0
  160.9750  203.2270  149.9310 C   0  0  0  0  0  3  0  0  0  0  0  0
  161.0250  205.4660  145.1360 C   0  0  0  0  0  3  0  0  0  0  0  0
  160.9990  204.8690  151.6870 C   0  0  0  0  0  0  0  0  0  0  0  0
  160.8440  203.8330  152.6230 C   0  0  0  0  0  3  0  0  0  0  0  0
  161.5040  208.0000  149.0500 N   0  0  0  0  0  0  0  0  0  0  0  0
  161.2350  206.7360  147.1450 C   0  0  0  0  0  0  0  0  0  0  0  0
  161.1490  206.7050  145.7570 C   0  0  0  0  0  3  0  0  0  0  0  0
  160.1110  210.9130  156.1910 C   0  0  1  0  0  3  0  0  0  0  0  0
  162.2730  210.7710  154.6900 C   0  0  0  0  0  2  0  0  0  0  0  0
  159.1540  210.4640  152.5920 O   0  0  0  0  0  1  0  0  0  0  0  0
  159.7100  210.0840  157.2590 O   0  0  0  0  0  1  0  0  0  0  0  0
  161.6450  210.5700  156.0600 C   0  0  0  0  0  2  0  0  0  0  0  0
  159.9590  210.9200  153.6470 C   0  0  2  0  0  3  0  0  0  0  0  0
  161.3930  210.3160  153.5260 C   0  0  2  0  0  3  0  0  0  0  0  0
  159.3220  210.4130  154.9870 C   0  0  0  0  0  2  0  0  0  0  0  0
  1  8  1  0  0  0  0
  2 15  1  0  0  0  0
  2  7  1  0  0  0  0
  3  2  2  0  0  0  0
  5  4  2  0  0  0  0
  6  9  2  0  0  0  0
  7 19  2  0  0  0  0
  8 20  2  0  0  0  0
  9  3  1  0  0  0  0
 10 16  1  0  0  0  0
 10 14  2  0  0  0  0
 11  1  1  0  0  0  0
 12 21  1  0  0  0  0
 13  6  1  0  0  0  0
 15 10  1  0  0  0  0
 16  5  1  0  0  0  0
 17  7  1  0  0  0  0
 17  1  2  0  0  0  0
 18 23  2  0  0  0  0
 18  6  1  0  0  0  0
 19 14  1  0  0  0  0
 19 20  1  0  0  0  0
 21 15  2  0  0  0  0
 22 12  2  0  0  0  0
 22  3  1  0  0  0  0
 23 22  1  0  0  0  0
 24 27  1  1  0  0  0
 25 28  1  0  0  0  0
 28 24  1  0  0  0  0
 29 26  1  6  0  0  0
 29 31  1  0  0  0  0
 30  5  1  1  0  0  0
 30 29  1  0  0  0  0
 30 25  1  0  0  0  0
 31 24  1  0  0  0  0
M  END
>  <MODEL>
2

>  <REMARK>
 VINA RESULT:      -9.7      3.517      4.636
  Name = 
  1 active torsions:
  status: ('A' for Active; 'I' for Inactive)
    1  A    between atoms: C_5  and  C_30
                            x       y       z     vdW  Elec       q    Type
                         _______ _______ _______ _____ _____    ______ ____

>  <TORSDO>
F 1

$$$$
=
 OpenBabel11122413183D

 31 35  0  0  1  0  0  0  0  0999 V2000
  161.4500  206.5200  146.7690 C   0  0  0  0  0  0  0  0  0  0  0  0
  161.1470  204.8860  150.1830 C   0  0  0  0  0  0  0  0  0  0  0  0
  161.1180  203.4820  150.0330 C   0  0  0  0  0  0  0  0  0  0  0  0
  160.8250  209.4890  152.7430 O   0  0  0  0  0  0  0  0  0  0  0  0
  161.1510  208.5830  153.5390 C   0  0  0  0  0  0  0  0  0  0  0  0
  161.2060  201.4630  148.6970 C   0  0  0  0  0  0  0  0  0  0  0  0
  161.3010  205.8670  149.1310 C   0  0  0  0  0  0  0  0  0  0  0  0
  161.5610  207.8530  147.1480 C   0  0  0  0  0  3  0  0  0  0  0  0
  161.1360  202.8560  148.7770 C   0  0  0  0  0  3  0  0  0  0  0  0
  161.2020  206.7160  151.7820 C   0  0  0  0  0  0  0  0  0  0  0  0
  161.4430  206.2040  145.4230 F   0  0  0  0  0  0  0  0  0  0  0  0
  160.7340  203.2370  152.3860 N   0  0  0  0  0  0  0  0  0  0  0  0
  161.1450  200.6510  147.1320 Cl  0  0  0  0  0  0  0  0  0  0  0  0
  161.3690  207.6250  150.7680 N   0  0  0  0  0  0  0  0  0  0  0  0
  161.0280  205.3990  151.4630 C   0  0  0  0  0  0  0  0  0  0  0  0
  161.2090  207.2090  153.1100 N   0  0  0  0  0  2  0  0  0  0  0  0
  161.3240  205.5450  147.7830 C   0  0  0  0  0  3  0  0  0  0  0  0
  161.1150  200.6800  149.8540 C   0  0  0  0  0  3  0  0  0  0  0  0
  161.4080  207.2410  149.4860 C   0  0  0  0  0  0  0  0  0  0  0  0
  161.5810  208.2060  148.4790 C   0  0  0  0  0  3  0  0  0  0  0  0
  160.8540  204.5170  152.5340 N   0  0  0  0  0  0  0  0  0  0  0  0
  161.0160  202.6490  151.1980 C   0  0  0  0  0  0  0  0  0  0  0  0
  161.0420  201.2610  151.1170 C   0  0  0  0  0  3  0  0  0  0  0  0
  159.5770  211.3110  155.8060 C   0  0  1  0  0  3  0  0  0  0  0  0
  159.9330  208.6990  155.8300 C   0  0  0  0  0  2  0  0  0  0  0  0
  162.9990  210.4650  154.5200 O   0  0  0  0  0  1  0  0  0  0  0  0
  158.6070  212.0720  155.1230 O   0  0  0  0  0  1  0  0  0  0  0  0
  158.9560  209.8610  155.7610 C   0  0  0  0  0  2  0  0  0  0  0  0
  161.8570  210.2810  155.3150 C   0  0  2  0  0  3  0  0  0  0  0  0
  161.2020  208.8990  155.0000 C   0  0  2  0  0  3  0  0  0  0  0  0
  160.8310  211.4080  154.9450 C   0  0  0  0  0  2  0  0  0  0  0  0
  1  8  2  0  0  0  0
  1 17  1  0  0  0  0
  2 15  1  0  0  0  0
  3  2  2  0  0  0  0
  3 22  1  0  0  0  0
  4  5  2  0  0  0  0
  6  9  2  0  0  0  0
  6 18  1  0  0  0  0
  7 19  1  0  0  0  0
  7  2  1  0  0  0  0
  8 20  1  0  0  0  0
  9  3  1  0  0  0  0
 10 16  1  0  0  0  0
 11  1  1  0  0  0  0
 12 21  1  0  0  0  0
 13  6  1  0  0  0  0
 14 10  2  0  0  0  0
 15 10  1  0  0  0  0
 15 21  2  0  0  0  0
 16  5  1  0  0  0  0
 17  7  2  0  0  0  0
 18 23  2  0  0  0  0
 19 14  1  0  0  0  0
 20 19  2  0  0  0  0
 22 12  2  0  0  0  0
 23 22  1  0  0  0  0
 24 27  1  6  0  0  0
 28 24  1  0  0  0  0
 28 25  1  0  0  0  0
 29 26  1  6  0  0  0
 30  5  1  6  0  0  0
 30 29  1  0  0  0  0
 30 25  1  0  0  0  0
 31 29  1  0  0  0  0
 31 24  1  0  0  0  0
M  END
>  <MODEL>
3

>  <REMARK>
 VINA RESULT:      -9.7      3.653      5.593
  Name = 
  1 active torsions:
  status: ('A' for Active; 'I' for Inactive)
    1  A    between atoms: C_5  and  C_30
                            x       y       z     vdW  Elec       q    Type
                         _______ _______ _______ _____ _____    ______ ____

>  <TORSDO>
F 1

$$$$
=
 OpenBabel11122413183D

 31 35  0  0  1  0  0  0  0  0999 V2000
  161.8170  207.0140  147.2570 C   0  0  0  0  0  0  0  0  0  0  0  0
  161.2590  205.7450  150.7920 C   0  0  0  0  0  0  0  0  0  0  0  0
  161.1600  204.3350  150.7780 C   0  0  0  0  0  0  0  0  0  0  0  0
  161.0630  210.5890  152.8740 O   0  0  0  0  0  0  0  0  0  0  0  0
  161.3000  209.7520  153.7700 C   0  0  0  0  0  0  0  0  0  0  0  0
  161.2040  202.1920  149.6500 C   0  0  0  0  0  0  0  0  0  0  0  0
  161.5170  206.6070  149.6600 C   0  0  0  0  0  0  0  0  0  0  0  0
  161.9820  208.3710  147.5110 C   0  0  0  0  0  3  0  0  0  0  0  0
  161.2060  203.5880  149.5910 C   0  0  0  0  0  3  0  0  0  0  0  0
  161.3350  207.7200  152.2080 C   0  0  0  0  0  0  0  0  0  0  0  0
  161.8590  206.5660  145.9500 F   0  0  0  0  0  0  0  0  0  0  0  0
  160.6500  204.3450  153.1190 N   0  0  0  0  0  0  0  0  0  0  0  0
  161.1760  201.2320  148.1700 Cl  0  0  0  0  0  0  0  0  0  0  0  0
  161.6010  208.5130  151.1200 N   0  0  0  0  0  0  0  0  0  0  0  0
  161.1050  206.3880  152.0090 C   0  0  0  0  0  0  0  0  0  0  0  0
  161.3040  208.3410  153.4800 N   0  0  0  0  0  2  0  0  0  0  0  0
  161.5880  206.1520  148.3530 C   0  0  0  0  0  3  0  0  0  0  0  0
  161.0140  201.5330  150.8710 C   0  0  0  0  0  3  0  0  0  0  0  0
  161.6810  208.0020  149.8850 C   0  0  0  0  0  0  0  0  0  0  0  0
  161.9560  208.8530  148.8010 C   0  0  0  0  0  3  0  0  0  0  0  0
  160.8310  205.6260  153.1480 N   0  0  0  0  0  0  0  0  0  0  0  0
  160.9570  203.6290  152.0110 C   0  0  0  0  0  0  0  0  0  0  0  0
  160.9120  202.2400  152.0650 C   0  0  0  0  0  3  0  0  0  0  0  0
  160.4520  208.0940  157.1740 C   0  0  1  0  0  3  0  0  0  0  0  0
  162.3390  209.6220  156.1470 C   0  0  0  0  0  2  0  0  0  0  0  0
  158.9290  210.7030  154.9490 O   0  0  0  0  0  1  0  0  0  0  0  0
  160.2680  206.7010  157.0540 O   0  0  0  0  0  1  0  0  0  0  0  0
  161.9560  208.2720  156.7300 C   0  0  0  0  0  2  0  0  0  0  0  0
  159.8790  210.1940  155.8490 C   0  0  2  0  0  3  0  0  0  0  0  0
  161.2960  210.2090  155.1940 C   0  0  2  0  0  3  0  0  0  0  0  0
  159.4940  208.7060  156.1580 C   0  0  0  0  0  2  0  0  0  0  0  0
  1  8  2  0  0  0  0
  1 17  1  0  0  0  0
  2 15  1  0  0  0  0
  3  2  2  0  0  0  0
  3 22  1  0  0  0  0
  4  5  2  0  0  0  0
  6 18  1  0  0  0  0
  7 19  1  0  0  0  0
  7  2  1  0  0  0  0
  8 20  1  0  0  0  0
  9  6  2  0  0  0  0
  9  3  1  0  0  0  0
 10 16  1  0  0  0  0
 11  1  1  0  0  0  0
 12 21  1  0  0  0  0
 13  6  1  0  0  0  0
 14 10  2  0  0  0  0
 15 10  1  0  0  0  0
 15 21  2  0  0  0  0
 16  5  1  0  0  0  0
 17  7  2  0  0  0  0
 18 23  2  0  0  0  0
 19 14  1  0  0  0  0
 20 19  2  0  0  0  0
 22 23  1  0  0  0  0
 22 12  2  0  0  0  0
 24 27  1  6  0  0  0
 25 28  1  0  0  0  0
 28 24  1  0  0  0  0
 29 26  1  6  0  0  0
 29 31  1  0  0  0  0
 30  5  1  6  0  0  0
 30 29  1  0  0  0  0
 30 25  1  0  0  0  0
 31 24  1  0  0  0  0
M  END
>  <MODEL>
4

>  <REMARK>
 VINA RESULT:      -9.1      3.530      6.125
  Name = 
  1 active torsions:
  status: ('A' for Active; 'I' for Inactive)
    1  A    between atoms: C_5  and  C_30
                            x       y       z     vdW  Elec       q    Type
                         _______ _______ _______ _____ _____    ______ ____

>  <TORSDO>
F 1

$$$$
=
 OpenBabel11122413183D

 31 35  0  0  1  0  0  0  0  0999 V2000
  161.1080  201.9180  150.6700 C   0  0  0  0  0  0  0  0  0  0  0  0
  161.1160  205.5340  149.5130 C   0  0  0  0  0  0  0  0  0  0  0  0
  161.1450  205.5790  148.1010 C   0  0  0  0  0  0  0  0  0  0  0  0
  161.2660  207.4680  154.4210 O   0  0  0  0  0  0  0  0  0  0  0  0
  160.8680  208.3500  153.6300 C   0  0  0  0  0  0  0  0  0  0  0  0
  161.1500  204.5250  145.9210 C   0  0  0  0  0  0  0  0  0  0  0  0
  161.0570  204.3510  150.3420 C   0  0  0  0  0  0  0  0  0  0  0  0
  160.9770  202.1030  152.0420 C   0  0  0  0  0  3  0  0  0  0  0  0
  161.2250  204.4210  147.3120 C   0  0  0  0  0  3  0  0  0  0  0  0
  160.9450  206.8620  151.5430 C   0  0  0  0  0  0  0  0  0  0  0  0
  161.2230  200.6330  150.1750 F   0  0  0  0  0  0  0  0  0  0  0  0
  161.3320  207.9660  148.1790 N   0  0  0  0  0  0  0  0  0  0  0  0
  161.3320  203.0940  144.9040 Cl  0  0  0  0  0  0  0  0  0  0  0  0
  160.8700  205.7240  152.3050 N   0  0  0  0  0  0  0  0  0  0  0  0
  161.1340  206.7400  150.1950 C   0  0  0  0  0  0  0  0  0  0  0  0
  160.8340  208.1070  152.2100 N   0  0  0  0  0  2  0  0  0  0  0  0
  161.1420  203.0620  149.8410 C   0  0  0  0  0  3  0  0  0  0  0  0
  161.1390  205.7800  145.3010 C   0  0  0  0  0  3  0  0  0  0  0  0
  160.9330  204.5070  151.7510 C   0  0  0  0  0  0  0  0  0  0  0  0
  160.8510  203.3690  152.5710 C   0  0  0  0  0  3  0  0  0  0  0  0
  161.2120  207.9300  149.4660 N   0  0  0  0  0  0  0  0  0  0  0  0
  161.1440  206.8500  147.4350 C   0  0  0  0  0  0  0  0  0  0  0  0
  161.1130  206.9540  146.0480 C   0  0  0  0  0  3  0  0  0  0  0  0
  162.3140  210.3650  156.6130 C   0  0  1  0  0  3  0  0  0  0  0  0
  161.8870  210.7040  154.0340 C   0  0  0  0  0  2  0  0  0  0  0  0
  158.9950  208.9030  155.6550 O   0  0  0  0  0  1  0  0  0  0  0  0
  163.3600  209.6770  157.2610 O   0  0  0  0  0  1  0  0  0  0  0  0
  162.8970  210.5690  155.1610 C   0  0  0  0  0  2  0  0  0  0  0  0
  160.0590  209.8140  155.5620 C   0  0  2  0  0  3  0  0  0  0  0  0
  160.7000  209.7450  154.1400 C   0  0  2  0  0  3  0  0  0  0  0  0
  161.1420  209.3910  156.6130 C   0  0  0  0  0  2  0  0  0  0  0  0
  1  8  1  0  0  0  0
  2 15  1  0  0  0  0
  2  7  1  0  0  0  0
  3  2  2  0  0  0  0
  5  4  2  0  0  0  0
  6  9  2  0  0  0  0
  7 19  2  0  0  0  0
  8 20  2  0  0  0  0
  9  3  1  0  0  0  0
 10 16  1  0  0  0  0
 10 14  2  0  0  0  0
 11  1  1  0  0  0  0
 12 21  1  0  0  0  0
 13  6  1  0  0  0  0
 15 10  1  0  0  0  0
 16  5  1  0  0  0  0
 17  7  1  0  0  0  0
 17  1  2  0  0  0  0
 18  6  1  0  0  0  0
 18 23  2  0  0  0  0
 19 14  1  0  0  0  0
 19 20  1  0  0  0  0
 21 15  2  0  0  0  0
 22  3  1  0  0  0  0
 22 12  2  0  0  0  0
 23 22  1  0  0  0  0
 24 31  1  0  0  0  0
 24 27  1  1  0  0  0
 25 30  1  0  0  0  0
 25 28  1  0  0  0  0
 28 24  1  0  0  0  0
 29 26  1  6  0  0  0
 29 31  1  0  0  0  0
 30  5  1  1  0  0  0
 30 29  1  0  0  0  0
M  END
>  <MODEL>
5

>  <REMARK>
 VINA RESULT:      -9.0      4.036      5.310
  Name = 
  1 active torsions:
  status: ('A' for Active; 'I' for Inactive)
    1  A    between atoms: C_5  and  C_30
                            x       y       z     vdW  Elec       q    Type
                         _______ _______ _______ _____ _____    ______ ____

>  <TORSDO>
F 1

$$$$
=
 OpenBabel11122413183D

 31 35  0  0  1  0  0  0  0  0999 V2000
  161.3270  204.0830  145.8330 C   0  0  0  0  0  0  0  0  0  0  0  0
  161.2760  205.7690  149.2340 C   0  0  0  0  0  0  0  0  0  0  0  0
  161.1720  204.7880  150.2460 C   0  0  0  0  0  0  0  0  0  0  0  0
  161.3950  210.6400  147.2090 O   0  0  0  0  0  0  0  0  0  0  0  0
  161.7550  210.6690  148.4050 C   0  0  0  0  0  0  0  0  0  0  0  0
  161.0480  202.4910  151.0040 C   0  0  0  0  0  0  0  0  0  0  0  0
  161.3730  205.5370  147.8100 C   0  0  0  0  0  0  0  0  0  0  0  0
  161.5310  205.1900  145.0170 C   0  0  0  0  0  3  0  0  0  0  0  0
  161.0460  203.4200  149.9610 C   0  0  0  0  0  3  0  0  0  0  0  0
  161.5600  208.1410  148.7840 C   0  0  0  0  0  0  0  0  0  0  0  0
  161.1800  202.8380  145.2500 F   0  0  0  0  0  0  0  0  0  0  0  0
  161.0020  206.5120  151.9020 N   0  0  0  0  0  0  0  0  0  0  0  0
  160.8050  200.7740  150.6770 Cl  0  0  0  0  0  0  0  0  0  0  0  0
  161.6700  207.8930  147.4390 N   0  0  0  0  0  0  0  0  0  0  0  0
  161.3000  207.0970  149.6260 C   0  0  0  0  0  0  0  0  0  0  0  0
  161.7130  209.4800  149.2180 N   0  0  0  0  0  2  0  0  0  0  0  0
  161.2550  204.2850  147.2290 C   0  0  0  0  0  3  0  0  0  0  0  0
  161.0320  202.9200  152.3370 C   0  0  0  0  0  3  0  0  0  0  0  0
  161.5710  206.6510  146.9470 C   0  0  0  0  0  0  0  0  0  0  0  0
  161.6910  206.4450  145.5630 C   0  0  0  0  0  3  0  0  0  0  0  0
  161.1890  207.4050  150.9850 N   0  0  0  0  0  0  0  0  0  0  0  0
  161.1450  205.1940  151.6230 C   0  0  0  0  0  0  0  0  0  0  0  0
  161.1040  204.2700  152.6630 C   0  0  0  0  0  3  0  0  0  0  0  0
  160.8840  214.3350  147.4770 C   0  0  1  0  0  3  0  0  0  0  0  0
  160.7270  212.7470  149.5760 C   0  0  0  0  0  2  0  0  0  0  0  0
  163.9900  212.2470  147.7490 O   0  0  0  0  0  1  0  0  0  0  0  0
  160.0400  214.4100  146.3500 O   0  0  0  0  0  1  0  0  0  0  0  0
  159.9920  213.5440  148.5110 C   0  0  0  0  0  2  0  0  0  0  0  0
  162.8850  212.9560  148.2470 C   0  0  2  0  0  3  0  0  0  0  0  0
  161.9560  211.9990  149.0590 C   0  0  2  0  0  3  0  0  0  0  0  0
  162.0780  213.5040  147.0200 C   0  0  0  0  0  2  0  0  0  0  0  0
  1 17  1  0  0  0  0
  2 15  2  0  0  0  0
  2  3  1  0  0  0  0
  3 22  1  0  0  0  0
  4  5  2  0  0  0  0
  5 16  1  0  0  0  0
  6 18  2  0  0  0  0
  7  2  1  0  0  0  0
  8 20  1  0  0  0  0
  8  1  2  0  0  0  0
  9  3  2  0  0  0  0
  9  6  1  0  0  0  0
 10 16  1  0  0  0  0
 10 15  1  0  0  0  0
 11  1  1  0  0  0  0
 13  6  1  0  0  0  0
 14 10  2  0  0  0  0
 15 21  1  0  0  0  0
 17  7  2  0  0  0  0
 18 23  1  0  0  0  0
 19 14  1  0  0  0  0
 19  7  1  0  0  0  0
 20 19  2  0  0  0  0
 21 12  2  0  0  0  0
 22 12  1  0  0  0  0
 22 23  2  0  0  0  0
 24 27  1  6  0  0  0
 24 28  1  0  0  0  0
 28 25  1  0  0  0  0
 29 26  1  6  0  0  0
 29 30  1  0  0  0  0
 30  5  1  6  0  0  0
 30 25  1  0  0  0  0
 31 24  1  0  0  0  0
 31 29  1  0  0  0  0
M  END
>  <MODEL>
6

>  <REMARK>
 VINA RESULT:      -8.9      2.138      4.095
  Name = 
  1 active torsions:
  status: ('A' for Active; 'I' for Inactive)
    1  A    between atoms: C_5  and  C_30
                            x       y       z     vdW  Elec       q    Type
                         _______ _______ _______ _____ _____    ______ ____

>  <TORSDO>
F 1

$$$$
=
 OpenBabel11122413183D

 31 35  0  0  1  0  0  0  0  0999 V2000
  160.8200  202.4500  151.3420 C   0  0  0  0  0  0  0  0  0  0  0  0
  161.2460  205.9090  149.8360 C   0  0  0  0  0  0  0  0  0  0  0  0
  161.3270  205.8050  148.4290 C   0  0  0  0  0  0  0  0  0  0  0  0
  161.4340  208.3110  154.5300 O   0  0  0  0  0  0  0  0  0  0  0  0
  161.1580  209.1430  153.6400 C   0  0  0  0  0  0  0  0  0  0  0  0
  161.2930  204.5370  146.3650 C   0  0  0  0  0  0  0  0  0  0  0  0
  161.0350  204.8290  150.7740 C   0  0  0  0  0  0  0  0  0  0  0  0
  160.6640  202.7870  152.6820 C   0  0  0  0  0  3  0  0  0  0  0  0
  161.3100  204.5710  147.7620 C   0  0  0  0  0  3  0  0  0  0  0  0
  161.1480  207.4490  151.7150 C   0  0  0  0  0  0  0  0  0  0  0  0
  160.8150  201.1150  150.9820 F   0  0  0  0  0  0  0  0  0  0  0  0
  161.7600  208.1570  148.2780 N   0  0  0  0  0  0  0  0  0  0  0  0
  161.3580  202.9990  145.5040 Cl  0  0  0  0  0  0  0  0  0  0  0  0
  160.9280  206.4080  152.5820 N   0  0  0  0  0  0  0  0  0  0  0  0
  161.3680  207.1700  150.3960 C   0  0  0  0  0  0  0  0  0  0  0  0
  161.1450  208.7600  152.2510 N   0  0  0  0  0  2  0  0  0  0  0  0
  161.0010  203.4930  150.4070 C   0  0  0  0  0  3  0  0  0  0  0  0
  161.4350  205.7180  145.6250 C   0  0  0  0  0  3  0  0  0  0  0  0
  160.8820  205.1400  152.1540 C   0  0  0  0  0  0  0  0  0  0  0  0
  160.6540  204.1070  153.0780 C   0  0  0  0  0  3  0  0  0  0  0  0
  161.5940  208.2650  149.5570 N   0  0  0  0  0  0  0  0  0  0  0  0
  161.4810  206.9950  147.6410 C   0  0  0  0  0  0  0  0  0  0  0  0
  161.5070  206.9590  146.2500 C   0  0  0  0  0  3  0  0  0  0  0  0
  158.3410  211.7540  154.1900 C   0  0  1  0  0  3  0  0  0  0  0  0
  160.5670  210.9840  155.3740 C   0  0  0  0  0  2  0  0  0  0  0  0
  161.0030  211.1030  151.6280 O   0  0  0  0  0  1  0  0  0  0  0  0
  157.0640  211.1570  154.2190 O   0  0  0  0  0  1  0  0  0  0  0  0
  159.0520  211.0800  155.4280 C   0  0  0  0  0  2  0  0  0  0  0  0
  160.5140  211.4980  152.8830 C   0  0  2  0  0  3  0  0  0  0  0  0
  161.1200  210.5930  154.0020 C   0  0  2  0  0  3  0  0  0  0  0  0
  158.9590  211.2960  152.8740 C   0  0  0  0  0  2  0  0  0  0  0  0
  1  8  1  0  0  0  0
  2 15  1  0  0  0  0
  2  7  1  0  0  0  0
  3  2  2  0  0  0  0
  5  4  2  0  0  0  0
  6  9  2  0  0  0  0
  7 19  2  0  0  0  0
  8 20  2  0  0  0  0
  9  3  1  0  0  0  0
 10 16  1  0  0  0  0
 10 14  2  0  0  0  0
 11  1  1  0  0  0  0
 12 21  1  0  0  0  0
 13  6  1  0  0  0  0
 15 10  1  0  0  0  0
 16  5  1  0  0  0  0
 17  7  1  0  0  0  0
 17  1  2  0  0  0  0
 18 23  2  0  0  0  0
 18  6  1  0  0  0  0
 19 14  1  0  0  0  0
 19 20  1  0  0  0  0
 21 15  2  0  0  0  0
 22 12  2  0  0  0  0
 22  3  1  0  0  0  0
 23 22  1  0  0  0  0
 24 27  1  6  0  0  0
 24 28  1  0  0  0  0
 25 28  1  0  0  0  0
 29 26  1  6  0  0  0
 29 30  1  0  0  0  0
 30  5  1  6  0  0  0
 30 25  1  0  0  0  0
 31 29  1  0  0  0  0
 31 24  1  0  0  0  0
M  END
>  <MODEL>
7

>  <REMARK>
 VINA RESULT:      -8.8      3.098      4.242
  Name = 
  1 active torsions:
  status: ('A' for Active; 'I' for Inactive)
    1  A    between atoms: C_5  and  C_30
                            x       y       z     vdW  Elec       q    Type
                         _______ _______ _______ _____ _____    ______ ____

>  <TORSDO>
F 1

$$$$
=
 OpenBabel11122413183D

 31 35  0  0  1  0  0  0  0  0999 V2000
  161.3470  205.4790  151.5360 C   0  0  0  0  0  0  0  0  0  0  0  0
  161.0410  209.0650  152.7440 C   0  0  0  0  0  0  0  0  0  0  0  0
  160.8560  209.0780  154.1450 C   0  0  0  0  0  0  0  0  0  0  0  0
  161.3380  211.0960  147.8830 O   0  0  0  0  0  0  0  0  0  0  0  0
  161.6050  211.9770  148.7270 C   0  0  0  0  0  0  0  0  0  0  0  0
  160.6630  207.9780  156.2940 C   0  0  0  0  0  0  0  0  0  0  0  0
  161.2470  207.9040  151.9080 C   0  0  0  0  0  0  0  0  0  0  0  0
  161.6180  205.6990  150.1900 C   0  0  0  0  0  3  0  0  0  0  0  0
  160.7460  207.9010  154.9020 C   0  0  0  0  0  3  0  0  0  0  0  0
  161.3700  210.4430  150.7680 C   0  0  0  0  0  0  0  0  0  0  0  0
  161.2400  204.1790  151.9940 F   0  0  0  0  0  0  0  0  0  0  0  0
  160.5660  211.4560  154.0870 N   0  0  0  0  0  0  0  0  0  0  0  0
  160.4390  206.5190  157.2610 Cl  0  0  0  0  0  0  0  0  0  0  0  0
  161.5820  209.3260  150.0000 N   0  0  0  0  0  0  0  0  0  0  0  0
  161.0410  210.2830  152.0850 C   0  0  0  0  0  0  0  0  0  0  0  0
  161.4950  211.7050  150.1380 N   0  0  0  0  0  2  0  0  0  0  0  0
  161.1680  206.6020  152.3750 C   0  0  0  0  0  3  0  0  0  0  0  0
  160.5470  209.2190  156.9320 C   0  0  0  0  0  3  0  0  0  0  0  0
  161.5160  208.0950  150.5240 C   0  0  0  0  0  0  0  0  0  0  0  0
  161.7410  206.9800  149.6990 C   0  0  0  0  0  3  0  0  0  0  0  0
  160.8280  211.4520  152.8200 N   0  0  0  0  0  0  0  0  0  0  0  0
  160.7250  210.3330  154.8280 C   0  0  0  0  0  0  0  0  0  0  0  0
  160.5990  210.4090  156.2120 C   0  0  0  0  0  3  0  0  0  0  0  0
  161.5520  213.7410  145.2710 C   0  0  1  0  0  3  0  0  0  0  0  0
  160.5390  214.1010  147.6780 C   0  0  0  0  0  2  0  0  0  0  0  0
  164.1170  212.9220  147.8840 O   0  0  0  0  0  1  0  0  0  0  0  0
  161.1220  212.8790  144.2420 O   0  0  0  0  0  1  0  0  0  0  0  0
  160.2860  213.7980  146.2110 C   0  0  0  0  0  2  0  0  0  0  0  0
  163.0140  213.6100  147.3550 C   0  0  2  0  0  3  0  0  0  0  0  0
  161.7610  213.3890  148.2610 C   0  0  2  0  0  3  0  0  0  0  0  0
  162.7100  213.0090  145.9400 C   0  0  0  0  0  2  0  0  0  0  0  0
  1 11  1  0  0  0  0
  1 17  1  0  0  0  0
  2  3  1  0  0  0  0
  3 22  2  0  0  0  0
  3  9  1  0  0  0  0
  4  5  2  0  0  0  0
  5 16  1  0  0  0  0
  6 18  1  0  0  0  0
  6 13  1  0  0  0  0
  7 17  2  0  0  0  0
  7  2  1  0  0  0  0
  8  1  2  0  0  0  0
  9  6  2  0  0  0  0
 10 15  1  0  0  0  0
 12 22  1  0  0  0  0
 14 19  1  0  0  0  0
 14 10  2  0  0  0  0
 15  2  2  0  0  0  0
 15 21  1  0  0  0  0
 16 10  1  0  0  0  0
 19  7  1  0  0  0  0
 20  8  1  0  0  0  0
 20 19  2  0  0  0  0
 21 12  2  0  0  0  0
 22 23  1  0  0  0  0
 23 18  2  0  0  0  0
 24 27  1  6  0  0  0
 24 31  1  0  0  0  0
 24 28  1  0  0  0  0
 25 30  1  0  0  0  0
 28 25  1  0  0  0  0
 29 26  1  1  0  0  0
 29 30  1  0  0  0  0
 30  5  1  6  0  0  0
 31 29  1  0  0  0  0
M  END
>  <MODEL>
8

>  <REMARK>
 VINA RESULT:      -7.9      3.112      5.868
  Name = 
  1 active torsions:
  status: ('A' for Active; 'I' for Inactive)
    1  A    between atoms: C_5  and  C_30
                            x       y       z     vdW  Elec       q    Type
                         _______ _______ _______ _____ _____    ______ ____

>  <TORSDO>
F 1

$$$$
