=
 OpenBabel11122413073D

 31 35  0  0  1  0  0  0  0  0999 V2000
  161.1540  204.9530  145.1250 C   0  0  0  0  0  0  0  0  0  0  0  0
  160.3980  204.9830  148.8430 C   0  0  2  0  0  3  0  0  0  0  0  0
  160.7770  203.5800  149.2970 C   0  0  0  0  0  0  0  0  0  0  0  0
  161.3300  201.2560  148.8310 C   0  0  0  0  0  0  0  0  0  0  0  0
  161.0200  205.3790  147.5190 C   0  0  0  0  0  0  0  0  0  0  0  0
  162.2720  205.7810  145.0330 C   0  0  0  0  0  3  0  0  0  0  0  0
  161.0060  202.5400  148.3820 C   0  0  0  0  0  3  0  0  0  0  0  0
  162.1450  206.2790  150.1220 C   0  0  2  0  0  3  0  0  0  0  0  0
  160.6810  204.3280  144.0200 F   0  0  0  0  0  0  0  0  0  0  0  0
  160.5730  204.3370  151.6150 N   0  0  0  0  0  2  0  0  0  0  0  0
  161.5830  200.1690  147.8500 C   0  0  0  0  0  1  0  0  0  0  0  0
  162.6750  207.3360  148.7460 S   0  0  0  0  0  0  0  0  0  0  0  0
  160.6450  206.0140  149.9610 C   0  0  2  0  0  3  0  0  0  0  0  0
  160.5370  204.7500  146.3600 C   0  0  0  0  0  3  0  0  0  0  0  0
  161.4170  200.9960  150.2000 C   0  0  0  0  0  3  0  0  0  0  0  0
  162.1280  206.2550  147.4120 C   0  0  0  0  0  0  0  0  0  0  0  0
  162.7480  206.4350  146.1700 C   0  0  0  0  0  3  0  0  0  0  0  0
  160.0120  205.5660  151.2110 N   0  0  0  0  0  2  0  0  0  0  0  0
  160.8290  203.2950  150.6730 C   0  0  0  0  0  0  0  0  0  0  0  0
  161.1670  202.0150  151.1220 C   0  0  0  0  0  3  0  0  0  0  0  0
  162.4500  206.9970  151.4310 C   0  0  0  0  0  2  0  0  0  0  0  0
  162.7970  209.3560  151.7280 O   0  0  0  0  0  1  0  0  0  0  0  0
  161.8290  208.3870  151.4410 C   0  0  2  0  0  3  0  0  0  0  0  0
  161.1270  210.3090  154.5810 C   0  0  1  0  0  3  0  0  0  0  0  0
  160.0930  209.7780  152.3740 C   0  0  0  0  0  2  0  0  0  0  0  0
  161.5470  206.6960  153.7470 O   0  0  0  0  0  1  0  0  0  0  0  0
  161.9300  211.2130  155.2750 O   0  0  0  0  0  1  0  0  0  0  0  0
  160.9410  210.7890  153.1510 C   0  0  0  0  0  2  0  0  0  0  0  0
  160.9530  207.9600  153.7540 C   0  0  2  0  0  3  0  0  0  0  0  0
  160.6900  208.4370  152.3750 N   0  0  0  0  0  0  0  0  0  0  0  0
  161.7880  208.9400  154.5800 C   0  0  0  0  0  2  0  0  0  0  0  0
  1 14  1  0  0  0  0
  2  5  1  6  0  0  0
  2  3  1  0  0  0  0
  2 13  1  0  0  0  0
  3 19  1  0  0  0  0
  4 15  2  0  0  0  0
  6  1  2  0  0  0  0
  6 17  1  0  0  0  0
  7  4  1  0  0  0  0
  7  3  2  0  0  0  0
  8 21  1  1  0  0  0
  9  1  1  0  0  0  0
 11  4  1  0  0  0  0
 12  8  1  0  0  0  0
 13  8  1  0  0  0  0
 13 18  1  1  0  0  0
 14  5  2  0  0  0  0
 15 20  1  0  0  0  0
 16  5  1  0  0  0  0
 16 12  1  0  0  0  0
 17 16  2  0  0  0  0
 18 10  1  0  0  0  0
 19 20  2  0  0  0  0
 19 10  1  0  0  0  0
 21 23  1  0  0  0  0
 23 22  1  1  0  0  0
 23 30  1  0  0  0  0
 24 27  1  1  0  0  0
 25 30  1  0  0  0  0
 25 28  1  0  0  0  0
 28 24  1  0  0  0  0
 29 26  1  6  0  0  0
 29 31  1  0  0  0  0
 30 29  1  0  0  0  0
 31 24  1  0  0  0  0
M  END
>  <MODEL>
1

>  <REMARK>
 VINA RESULT:      -7.2      0.000      0.000
  Name = 
  3 active torsions:
  status: ('A' for Active; 'I' for Inactive)
    1  A    between atoms: C_5  and  C_16
    2  A    between atoms: C_5  and  N_30
    3  A    between atoms: C_10  and  C_16
                            x       y       z     vdW  Elec       q    Type
                         _______ _______ _______ _____ _____    ______ ____

>  <TORSDO>
F 3

$$$$
=
 OpenBabel11122413073D

 31 35  0  0  1  0  0  0  0  0999 V2000
  161.0940  204.5760  145.6590 C   0  0  0  0  0  0  0  0  0  0  0  0
  160.4510  205.8350  149.1810 C   0  0  2  0  0  3  0  0  0  0  0  0
  160.7590  204.6250  150.0540 C   0  0  0  0  0  0  0  0  0  0  0  0
  161.1590  202.2430  150.3480 C   0  0  0  0  0  0  0  0  0  0  0  0
  161.0570  205.7470  147.7940 C   0  0  0  0  0  0  0  0  0  0  0  0
  162.2570  205.2570  145.2980 C   0  0  0  0  0  3  0  0  0  0  0  0
  160.8990  203.3370  149.5160 C   0  0  0  0  0  3  0  0  0  0  0  0
  162.3090  207.3510  149.9640 C   0  0  2  0  0  3  0  0  0  0  0  0
  160.5520  203.6660  144.8150 F   0  0  0  0  0  0  0  0  0  0  0  0
  160.6690  206.0910  152.0120 N   0  0  0  0  0  2  0  0  0  0  0  0
  161.3180  200.8870  149.7620 C   0  0  0  0  0  1  0  0  0  0  0  0
  162.8610  207.8790  148.3190 S   0  0  0  0  0  0  0  0  0  0  0  0
  160.7920  207.1480  149.9100 C   0  0  2  0  0  3  0  0  0  0  0  0
  160.5030  204.8160  146.9000 C   0  0  0  0  0  3  0  0  0  0  0  0
  161.2710  202.4260  151.7280 C   0  0  0  0  0  3  0  0  0  0  0  0
  162.2120  206.4700  147.4030 C   0  0  0  0  0  0  0  0  0  0  0  0
  162.8040  206.2050  146.1630 C   0  0  0  0  0  3  0  0  0  0  0  0
  160.1700  207.1620  151.2430 N   0  0  0  0  0  2  0  0  0  0  0  0
  160.8350  204.7900  151.4490 C   0  0  0  0  0  0  0  0  0  0  0  0
  161.1090  203.6990  152.2790 C   0  0  0  0  0  3  0  0  0  0  0  0
  162.6950  208.4260  150.9740 C   0  0  0  0  0  2  0  0  0  0  0  0
  161.9580  210.2620  149.6110 O   0  0  0  0  0  1  0  0  0  0  0  0
  161.7800  209.6360  150.8490 C   0  0  2  0  0  3  0  0  0  0  0  0
  160.3150  209.9050  154.2880 C   0  0  1  0  0  3  0  0  0  0  0  0
  162.5250  209.8280  153.1350 C   0  0  0  0  0  2  0  0  0  0  0  0
  160.3090  212.0720  151.2510 O   0  0  0  0  0  1  0  0  0  0  0  0
  159.3220  209.1400  154.9000 O   0  0  0  0  0  1  0  0  0  0  0  0
  161.4520  208.9990  153.8440 C   0  0  0  0  0  2  0  0  0  0  0  0
  160.8320  211.4030  152.3590 C   0  0  2  0  0  3  0  0  0  0  0  0
  161.9900  210.5590  151.9800 N   0  0  0  0  0  0  0  0  0  0  0  0
  159.7310  210.6240  153.0820 C   0  0  0  0  0  2  0  0  0  0  0  0
  1 14  1  0  0  0  0
  2  5  1  6  0  0  0
  2 13  1  0  0  0  0
  2  3  1  0  0  0  0
  3 19  1  0  0  0  0
  4 15  2  0  0  0  0
  6  1  2  0  0  0  0
  6 17  1  0  0  0  0
  7  3  2  0  0  0  0
  7  4  1  0  0  0  0
  8 21  1  1  0  0  0
  9  1  1  0  0  0  0
 11  4  1  0  0  0  0
 12  8  1  0  0  0  0
 13  8  1  0  0  0  0
 13 18  1  1  0  0  0
 14  5  2  0  0  0  0
 15 20  1  0  0  0  0
 16  5  1  0  0  0  0
 16 12  1  0  0  0  0
 17 16  2  0  0  0  0
 18 10  1  0  0  0  0
 19 10  1  0  0  0  0
 19 20  2  0  0  0  0
 23 22  1  6  0  0  0
 23 21  1  0  0  0  0
 23 30  1  0  0  0  0
 24 27  1  6  0  0  0
 25 28  1  0  0  0  0
 28 24  1  0  0  0  0
 29 26  1  6  0  0  0
 29 31  1  0  0  0  0
 30 29  1  0  0  0  0
 30 25  1  0  0  0  0
 31 24  1  0  0  0  0
M  END
>  <MODEL>
2

>  <REMARK>
 VINA RESULT:      -6.9      1.466      2.077
  Name = 
  3 active torsions:
  status: ('A' for Active; 'I' for Inactive)
    1  A    between atoms: C_5  and  C_16
    2  A    between atoms: C_5  and  N_30
    3  A    between atoms: C_10  and  C_16
                            x       y       z     vdW  Elec       q    Type
                         _______ _______ _______ _____ _____    ______ ____

>  <TORSDO>
F 3

$$$$
=
 OpenBabel11122413073D

 31 35  0  0  1  0  0  0  0  0999 V2000
  161.6610  206.1430  152.5180 C   0  0  0  0  0  0  0  0  0  0  0  0
  160.1120  209.5960  152.7890 C   0  0  2  0  0  3  0  0  0  0  0  0
  160.6370  210.1200  154.1200 C   0  0  0  0  0  0  0  0  0  0  0  0
  161.7020  209.7850  156.2820 C   0  0  0  0  0  0  0  0  0  0  0  0
  160.9270  208.4460  152.2300 C   0  0  0  0  0  0  0  0  0  0  0  0
  162.5980  206.3060  151.4980 C   0  0  0  0  0  3  0  0  0  0  0  0
  161.2520  209.2770  155.0590 C   0  0  0  0  0  3  0  0  0  0  0  0
  161.2620  211.2380  151.2570 C   0  0  2  0  0  3  0  0  0  0  0  0
  161.5680  204.9590  153.1690 F   0  0  0  0  0  0  0  0  0  0  0  0
  159.7890  212.3350  153.5150 N   0  0  0  0  0  2  0  0  0  0  0  0
  162.3630  208.8830  157.2610 C   0  0  0  0  0  1  0  0  0  0  0  0
  161.8760  210.0190  150.0620 S   0  0  0  0  0  0  0  0  0  0  0  0
  159.9110  210.7430  151.7820 C   0  0  2  0  0  3  0  0  0  0  0  0
  160.8370  207.2070  152.8840 C   0  0  0  0  0  3  0  0  0  0  0  0
  161.5320  211.1380  156.5820 C   0  0  0  0  0  3  0  0  0  0  0  0
  161.8480  208.5930  151.1630 C   0  0  0  0  0  0  0  0  0  0  0  0
  162.6810  207.5230  150.8190 C   0  0  0  0  0  3  0  0  0  0  0  0
  159.1120  211.8180  152.3920 N   0  0  0  0  0  2  0  0  0  0  0  0
  160.4360  211.4720  154.4500 C   0  0  0  0  0  0  0  0  0  0  0  0
  160.8990  211.9820  155.6670 C   0  0  0  0  0  3  0  0  0  0  0  0
  161.1320  212.5830  150.5530 C   0  0  0  0  0  2  0  0  0  0  0  0
  162.7060  212.2000  148.7800 O   0  0  0  0  0  1  0  0  0  0  0  0
  161.3550  212.4330  149.0550 C   0  0  2  0  0  3  0  0  0  0  0  0
  158.2020  213.1140  147.1450 C   0  0  1  0  0  3  0  0  0  0  0  0
  159.5950  214.0820  148.9740 C   0  0  0  0  0  2  0  0  0  0  0  0
  161.8280  212.9790  146.2730 O   0  0  0  0  0  1  0  0  0  0  0  0
  157.1330  212.2690  146.8540 O   0  0  0  0  0  1  0  0  0  0  0  0
  158.3960  213.1870  148.6510 C   0  0  0  0  0  2  0  0  0  0  0  0
  160.6600  213.4570  146.8710 C   0  0  2  0  0  3  0  0  0  0  0  0
  160.8300  213.6080  148.3350 N   0  0  0  0  0  0  0  0  0  0  0  0
  159.4660  212.5790  146.4910 C   0  0  0  0  0  2  0  0  0  0  0  0
  1 14  1  0  0  0  0
  1  9  1  0  0  0  0
  2  5  1  6  0  0  0
  2  3  1  0  0  0  0
  3 19  2  0  0  0  0
  3  7  1  0  0  0  0
  4 15  1  0  0  0  0
  4 11  1  0  0  0  0
  5 14  2  0  0  0  0
  6  1  2  0  0  0  0
  7  4  2  0  0  0  0
  8 21  1  6  0  0  0
  8 13  1  0  0  0  0
 10 19  1  0  0  0  0
 12 16  1  0  0  0  0
 12  8  1  0  0  0  0
 13 18  1  1  0  0  0
 13  2  1  0  0  0  0
 16  5  1  0  0  0  0
 17 16  2  0  0  0  0
 17  6  1  0  0  0  0
 18 10  1  0  0  0  0
 19 20  1  0  0  0  0
 20 15  2  0  0  0  0
 23 22  1  1  0  0  0
 23 21  1  0  0  0  0
 24 27  1  1  0  0  0
 24 28  1  0  0  0  0
 28 25  1  0  0  0  0
 29 26  1  1  0  0  0
 29 30  1  0  0  0  0
 30 25  1  0  0  0  0
 30 23  1  0  0  0  0
 31 29  1  0  0  0  0
 31 24  1  0  0  0  0
M  END
>  <MODEL>
3

>  <REMARK>
 VINA RESULT:      -6.4      4.778      7.854
  Name = 
  3 active torsions:
  status: ('A' for Active; 'I' for Inactive)
    1  A    between atoms: C_5  and  C_16
    2  A    between atoms: C_5  and  N_30
    3  A    between atoms: C_10  and  C_16
                            x       y       z     vdW  Elec       q    Type
                         _______ _______ _______ _____ _____    ______ ____

>  <TORSDO>
F 3

$$$$
=
 OpenBabel11122413073D

 31 35  0  0  1  0  0  0  0  0999 V2000
  162.2610  210.6460  149.4010 C   0  0  0  0  0  0  0  0  0  0  0  0
  162.3760  207.6770  151.7600 C   0  0  2  0  0  3  0  0  0  0  0  0
  161.3980  208.0580  152.8640 C   0  0  0  0  0  0  0  0  0  0  0  0
  160.0350  209.6920  154.0450 C   0  0  0  0  0  0  0  0  0  0  0  0
  162.1800  208.4650  150.4800 C   0  0  0  0  0  0  0  0  0  0  0  0
  161.6000  210.1280  148.2880 C   0  0  0  0  0  3  0  0  0  0  0  0
  160.9140  209.3680  153.0070 C   0  0  0  0  0  3  0  0  0  0  0  0
  161.1230  205.7040  150.8100 C   0  0  2  0  0  3  0  0  0  0  0  0
  162.6070  211.9550  149.4340 F   0  0  0  0  0  0  0  0  0  0  0  0
  161.5260  205.7580  153.6920 N   0  0  0  0  0  2  0  0  0  0  0  0
  159.5210  211.0800  154.1760 C   0  0  0  0  0  1  0  0  0  0  0  0
  161.2850  206.1700  149.0640 S   0  0  0  0  0  0  0  0  0  0  0  0
  162.3940  206.1530  151.5370 C   0  0  2  0  0  3  0  0  0  0  0  0
  162.5420  209.8210  150.4910 C   0  0  0  0  0  3  0  0  0  0  0  0
  159.6380  208.7110  154.9570 C   0  0  0  0  0  3  0  0  0  0  0  0
  161.5500  207.9320  149.3280 C   0  0  0  0  0  0  0  0  0  0  0  0
  161.2570  208.7750  148.2500 C   0  0  0  0  0  3  0  0  0  0  0  0
  162.5900  205.4560  152.8180 N   0  0  0  0  0  2  0  0  0  0  0  0
  161.0220  207.0890  153.8110 C   0  0  0  0  0  0  0  0  0  0  0  0
  160.1320  207.4090  154.8400 C   0  0  0  0  0  3  0  0  0  0  0  0
  160.9340  204.1940  150.8930 C   0  0  0  0  0  2  0  0  0  0  0  0
  159.4120  202.7940  149.6700 O   0  0  0  0  0  1  0  0  0  0  0  0
  160.5290  203.6250  149.5400 C   0  0  2  0  0  3  0  0  0  0  0  0
  160.9850  201.7850  146.3070 C   0  0  1  0  0  3  0  0  0  0  0  0
  162.0300  203.6070  147.6510 C   0  0  0  0  0  2  0  0  0  0  0  0
  161.1600  200.8460  149.9140 O   0  0  0  0  0  1  0  0  0  0  0  0
  160.0600  201.4960  145.3040 O   0  0  0  0  0  1  0  0  0  0  0  0
  161.0460  203.2880  146.5230 C   0  0  0  0  0  2  0  0  0  0  0  0
  161.5310  201.4730  148.7230 C   0  0  2  0  0  3  0  0  0  0  0  0
  161.6700  202.9370  148.9080 N   0  0  0  0  0  0  0  0  0  0  0  0
  160.5660  201.0980  147.5970 C   0  0  0  0  0  2  0  0  0  0  0  0
  1  9  1  0  0  0  0
  1 14  1  0  0  0  0
  2  5  1  6  0  0  0
  2  3  1  0  0  0  0
  3  7  2  0  0  0  0
  3 19  1  0  0  0  0
  4 11  1  0  0  0  0
  4 15  2  0  0  0  0
  5 14  2  0  0  0  0
  6  1  2  0  0  0  0
  7  4  1  0  0  0  0
  8 21  1  6  0  0  0
  8 13  1  0  0  0  0
 10 19  1  0  0  0  0
 12 16  1  0  0  0  0
 12  8  1  0  0  0  0
 13  2  1  0  0  0  0
 13 18  1  1  0  0  0
 16  5  1  0  0  0  0
 17  6  1  0  0  0  0
 17 16  2  0  0  0  0
 18 10  1  0  0  0  0
 19 20  2  0  0  0  0
 20 15  1  0  0  0  0
 23 22  1  1  0  0  0
 23 21  1  0  0  0  0
 24 27  1  6  0  0  0
 24 28  1  0  0  0  0
 24 31  1  0  0  0  0
 25 30  1  0  0  0  0
 28 25  1  0  0  0  0
 29 30  1  0  0  0  0
 29 26  1  1  0  0  0
 30 23  1  0  0  0  0
 31 29  1  0  0  0  0
M  END
>  <MODEL>
4

>  <REMARK>
 VINA RESULT:      -6.3      3.547      7.395
  Name = 
  3 active torsions:
  status: ('A' for Active; 'I' for Inactive)
    1  A    between atoms: C_5  and  C_16
    2  A    between atoms: C_5  and  N_30
    3  A    between atoms: C_10  and  C_16
                            x       y       z     vdW  Elec       q    Type
                         _______ _______ _______ _____ _____    ______ ____

>  <TORSDO>
F 3

$$$$
=
 OpenBabel11122413073D

 31 35  0  0  1  0  0  0  0  0999 V2000
  161.2270  203.7420  145.3850 C   0  0  0  0  0  0  0  0  0  0  0  0
  160.5370  205.3980  148.7290 C   0  0  2  0  0  3  0  0  0  0  0  0
  160.7770  204.2820  149.7370 C   0  0  0  0  0  0  0  0  0  0  0  0
  161.0820  201.9340  150.2990 C   0  0  0  0  0  0  0  0  0  0  0  0
  161.1760  205.1390  147.3780 C   0  0  0  0  0  0  0  0  0  0  0  0
  162.4230  204.3390  144.9880 C   0  0  0  0  0  3  0  0  0  0  0  0
  160.8840  202.9380  149.3460 C   0  0  0  0  0  3  0  0  0  0  0  0
  162.4280  206.9280  149.3990 C   0  0  2  0  0  3  0  0  0  0  0  0
  160.6750  202.7630  144.6290 F   0  0  0  0  0  0  0  0  0  0  0  0
  160.6890  205.9560  151.5210 N   0  0  0  0  0  2  0  0  0  0  0  0
  161.2070  200.5170  149.8680 C   0  0  0  0  0  1  0  0  0  0  0  0
  163.0420  207.2540  147.7240 S   0  0  0  0  0  0  0  0  0  0  0  0
  160.9060  206.7710  149.3210 C   0  0  2  0  0  3  0  0  0  0  0  0
  160.6120  204.1360  146.5750 C   0  0  0  0  0  3  0  0  0  0  0  0
  161.1640  202.2630  151.6540 C   0  0  0  0  0  3  0  0  0  0  0  0
  162.3660  205.7760  146.9470 C   0  0  0  0  0  0  0  0  0  0  0  0
  162.9810  205.3580  145.7620 C   0  0  0  0  0  3  0  0  0  0  0  0
  160.2500  206.9520  150.6260 N   0  0  0  0  0  2  0  0  0  0  0  0
  160.8220  204.5950  151.1070 C   0  0  0  0  0  0  0  0  0  0  0  0
  161.0330  203.5930  152.0590 C   0  0  0  0  0  3  0  0  0  0  0  0
  162.8260  208.0930  150.2980 C   0  0  0  0  0  2  0  0  0  0  0  0
  161.7980  209.6820  148.8180 O   0  0  0  0  0  1  0  0  0  0  0  0
  161.8470  209.2490  150.1470 C   0  0  2  0  0  3  0  0  0  0  0  0
  159.8860  211.2370  152.6480 C   0  0  1  0  0  3  0  0  0  0  0  0
  161.9830  209.8990  152.4660 C   0  0  0  0  0  2  0  0  0  0  0  0
  161.7140  212.0460  149.4970 O   0  0  0  0  0  1  0  0  0  0  0  0
  158.5290  211.1900  152.9610 O   0  0  0  0  0  1  0  0  0  0  0  0
  160.5020  209.8620  152.8480 C   0  0  0  0  0  2  0  0  0  0  0  0
  161.5410  211.6470  150.8240 C   0  0  2  0  0  3  0  0  0  0  0  0
  162.1880  210.3390  151.0800 N   0  0  0  0  0  0  0  0  0  0  0  0
  160.0580  211.6690  151.2000 C   0  0  0  0  0  2  0  0  0  0  0  0
  1 14  1  0  0  0  0
  2  5  1  6  0  0  0
  2 13  1  0  0  0  0
  2  3  1  0  0  0  0
  3 19  1  0  0  0  0
  4 15  2  0  0  0  0
  6  1  2  0  0  0  0
  6 17  1  0  0  0  0
  7  3  2  0  0  0  0
  7  4  1  0  0  0  0
  8 21  1  1  0  0  0
  9  1  1  0  0  0  0
 11  4  1  0  0  0  0
 12  8  1  0  0  0  0
 13  8  1  0  0  0  0
 13 18  1  1  0  0  0
 14  5  2  0  0  0  0
 15 20  1  0  0  0  0
 16  5  1  0  0  0  0
 16 12  1  0  0  0  0
 17 16  2  0  0  0  0
 18 10  1  0  0  0  0
 19 10  1  0  0  0  0
 19 20  2  0  0  0  0
 23 22  1  6  0  0  0
 23 21  1  0  0  0  0
 23 30  1  0  0  0  0
 24 28  1  0  0  0  0
 24 27  1  6  0  0  0
 25 28  1  0  0  0  0
 29 26  1  6  0  0  0
 29 30  1  0  0  0  0
 29 31  1  0  0  0  0
 30 25  1  0  0  0  0
 31 24  1  0  0  0  0
M  END
>  <MODEL>
5

>  <REMARK>
 VINA RESULT:      -6.1      1.856      2.384
  Name = 
  3 active torsions:
  status: ('A' for Active; 'I' for Inactive)
    1  A    between atoms: C_5  and  C_16
    2  A    between atoms: C_5  and  N_30
    3  A    between atoms: C_10  and  C_16
                            x       y       z     vdW  Elec       q    Type
                         _______ _______ _______ _____ _____    ______ ____

>  <TORSDO>
F 3

$$$$
=
 OpenBabel11122413073D

 31 35  0  0  1  0  0  0  0  0999 V2000
  160.8180  207.7640  156.3380 C   0  0  0  0  0  0  0  0  0  0  0  0
  161.9130  209.1160  152.9660 C   0  0  2  0  0  3  0  0  0  0  0  0
  161.5480  207.9990  151.9970 C   0  0  0  0  0  0  0  0  0  0  0  0
  160.9070  205.7000  151.5250 C   0  0  0  0  0  0  0  0  0  0  0  0
  161.1790  209.0300  154.2900 C   0  0  0  0  0  0  0  0  0  0  0  0
  159.7140  208.5580  156.6430 C   0  0  0  0  0  3  0  0  0  0  0  0
  161.2140  206.7100  152.4410 C   0  0  0  0  0  3  0  0  0  0  0  0
  160.3170  210.8810  152.1270 C   0  0  2  0  0  3  0  0  0  0  0  0
  161.1750  206.7520  157.1660 F   0  0  0  0  0  0  0  0  0  0  0  0
  161.9790  209.5430  150.1480 N   0  0  0  0  0  2  0  0  0  0  0  0
  160.5420  204.3440  152.0110 C   0  0  0  0  0  1  0  0  0  0  0  0
  159.6850  211.3860  153.7500 S   0  0  0  0  0  0  0  0  0  0  0  0
  161.7900  210.4970  152.2940 C   0  0  2  0  0  3  0  0  0  0  0  0
  161.5410  207.9950  155.1670 C   0  0  0  0  0  3  0  0  0  0  0  0
  160.9400  205.9650  150.1550 C   0  0  0  0  0  3  0  0  0  0  0  0
  160.0850  209.8640  154.6280 C   0  0  0  0  0  0  0  0  0  0  0  0
  159.3580  209.6080  155.7960 C   0  0  0  0  0  3  0  0  0  0  0  0
  162.5260  210.5050  151.0200 N   0  0  0  0  0  2  0  0  0  0  0  0
  161.6160  208.2430  150.6140 C   0  0  0  0  0  0  0  0  0  0  0  0
  161.2950  207.2370  149.6990 C   0  0  0  0  0  3  0  0  0  0  0  0
  160.1480  212.0450  151.1580 C   0  0  0  0  0  2  0  0  0  0  0  0
  157.8570  212.3270  151.8220 O   0  0  0  0  0  1  0  0  0  0  0  0
  159.0690  213.0020  151.6450 C   0  0  2  0  0  3  0  0  0  0  0  0
  157.8510  213.3890  148.1220 C   0  0  1  0  0  3  0  0  0  0  0  0
  157.5330  214.3750  150.3910 C   0  0  0  0  0  2  0  0  0  0  0  0
  161.1290  213.8680  149.8380 O   0  0  0  0  0  1  0  0  0  0  0  0
  157.3910  212.4270  147.2230 O   0  0  0  0  0  1  0  0  0  0  0  0
  157.0070  213.3480  149.3850 C   0  0  0  0  0  2  0  0  0  0  0  0
  159.7930  214.1120  149.5130 C   0  0  2  0  0  3  0  0  0  0  0  0
  158.9440  214.1490  150.7270 N   0  0  0  0  0  0  0  0  0  0  0  0
  159.3050  213.1080  148.4680 C   0  0  0  0  0  2  0  0  0  0  0  0
  1  6  1  0  0  0  0
  1  9  1  0  0  0  0
  2  3  1  6  0  0  0
  2  5  1  0  0  0  0
  3  7  1  0  0  0  0
  4 11  1  0  0  0  0
  4  7  2  0  0  0  0
  5 16  2  0  0  0  0
  5 14  1  0  0  0  0
  8 21  1  6  0  0  0
  8 13  1  0  0  0  0
  8 12  1  0  0  0  0
 10 19  1  0  0  0  0
 10 18  1  0  0  0  0
 12 16  1  0  0  0  0
 13 18  1  6  0  0  0
 13  2  1  0  0  0  0
 14  1  2  0  0  0  0
 15  4  1  0  0  0  0
 16 17  1  0  0  0  0
 17  6  2  0  0  0  0
 19  3  2  0  0  0  0
 20 15  2  0  0  0  0
 20 19  1  0  0  0  0
 21 23  1  0  0  0  0
 23 22  1  6  0  0  0
 24 27  1  6  0  0  0
 24 31  1  0  0  0  0
 24 28  1  0  0  0  0
 25 30  1  0  0  0  0
 28 25  1  0  0  0  0
 29 26  1  1  0  0  0
 29 30  1  0  0  0  0
 30 23  1  0  0  0  0
 31 29  1  0  0  0  0
M  END
>  <MODEL>
6

>  <REMARK>
 VINA RESULT:      -5.8      4.429      7.480
  Name = 
  3 active torsions:
  status: ('A' for Active; 'I' for Inactive)
    1  A    between atoms: C_5  and  C_16
    2  A    between atoms: C_5  and  N_30
    3  A    between atoms: C_10  and  C_16
                            x       y       z     vdW  Elec       q    Type
                         _______ _______ _______ _____ _____    ______ ____

>  <TORSDO>
F 3

$$$$
=
 OpenBabel11122413073D

 31 35  0  0  1  0  0  0  0  0999 V2000
  160.7960  207.9980  154.6370 C   0  0  0  0  0  0  0  0  0  0  0  0
  162.1850  209.3190  151.3620 C   0  0  2  0  0  3  0  0  0  0  0  0
  161.6860  208.3150  150.3310 C   0  0  0  0  0  0  0  0  0  0  0  0
  160.7190  206.1640  149.7320 C   0  0  0  0  0  0  0  0  0  0  0  0
  161.4070  209.2860  152.6630 C   0  0  0  0  0  0  0  0  0  0  0  0
  159.8160  208.9370  154.9550 C   0  0  0  0  0  3  0  0  0  0  0  0
  161.1470  207.0740  150.7030 C   0  0  0  0  0  3  0  0  0  0  0  0
  160.9010  211.3430  150.5740 C   0  0  2  0  0  3  0  0  0  0  0  0
  160.9710  206.9080  155.4220 F   0  0  0  0  0  0  0  0  0  0  0  0
  162.4020  209.8570  148.5700 N   0  0  0  0  0  2  0  0  0  0  0  0
  160.1390  204.8590  150.1420 C   0  0  0  0  0  1  0  0  0  0  0  0
  160.3030  211.8640  152.2050 S   0  0  0  0  0  0  0  0  0  0  0  0
  162.2940  210.7310  150.7560 C   0  0  2  0  0  3  0  0  0  0  0  0
  161.5810  208.1700  153.4960 C   0  0  0  0  0  3  0  0  0  0  0  0
  160.8340  206.4830  148.3770 C   0  0  0  0  0  3  0  0  0  0  0  0
  160.4410  210.2610  153.0160 C   0  0  0  0  0  0  0  0  0  0  0  0
  159.6480  210.0670  154.1520 C   0  0  0  0  0  3  0  0  0  0  0  0
  163.0610  210.6850  149.5020 N   0  0  0  0  0  2  0  0  0  0  0  0
  161.8320  208.6080  148.9640 C   0  0  0  0  0  0  0  0  0  0  0  0
  161.3910  207.7050  147.9920 C   0  0  0  0  0  3  0  0  0  0  0  0
  160.9400  212.5610  149.6590 C   0  0  0  0  0  2  0  0  0  0  0  0
  159.9090  212.1460  147.5300 O   0  0  0  0  0  1  0  0  0  0  0  0
  159.6760  212.6440  148.8160 C   0  0  2  0  0  3  0  0  0  0  0  0
  156.3780  214.1900  149.7030 C   0  0  1  0  0  3  0  0  0  0  0  0
  158.8160  214.4520  150.1610 C   0  0  0  0  0  2  0  0  0  0  0  0
  158.3680  213.8590  146.5630 O   0  0  0  0  0  1  0  0  0  0  0  0
  155.1960  213.5900  150.1340 O   0  0  0  0  0  1  0  0  0  0  0  0
  157.5080  213.8290  150.6540 C   0  0  0  0  0  2  0  0  0  0  0  0
  158.0500  214.2950  147.8510 C   0  0  2  0  0  3  0  0  0  0  0  0
  159.1560  214.0240  148.7980 N   0  0  0  0  0  0  0  0  0  0  0  0
  156.7130  213.7030  148.3010 C   0  0  0  0  0  2  0  0  0  0  0  0
  1  6  1  0  0  0  0
  1  9  1  0  0  0  0
  2  3  1  6  0  0  0
  2  5  1  0  0  0  0
  3  7  1  0  0  0  0
  4 11  1  0  0  0  0
  4  7  2  0  0  0  0
  5 16  2  0  0  0  0
  5 14  1  0  0  0  0
  8 21  1  6  0  0  0
  8 13  1  0  0  0  0
  8 12  1  0  0  0  0
 10 19  1  0  0  0  0
 10 18  1  0  0  0  0
 12 16  1  0  0  0  0
 13 18  1  6  0  0  0
 13  2  1  0  0  0  0
 14  1  2  0  0  0  0
 15  4  1  0  0  0  0
 16 17  1  0  0  0  0
 17  6  2  0  0  0  0
 19  3  2  0  0  0  0
 20 15  2  0  0  0  0
 20 19  1  0  0  0  0
 23 22  1  6  0  0  0
 23 21  1  0  0  0  0
 24 27  1  1  0  0  0
 24 28  1  0  0  0  0
 25 28  1  0  0  0  0
 29 26  1  6  0  0  0
 29 31  1  0  0  0  0
 29 30  1  0  0  0  0
 30 23  1  0  0  0  0
 30 25  1  0  0  0  0
 31 24  1  0  0  0  0
M  END
>  <MODEL>
7

>  <REMARK>
 VINA RESULT:      -5.6      4.735      7.256
  Name = 
  3 active torsions:
  status: ('A' for Active; 'I' for Inactive)
    1  A    between atoms: C_5  and  C_16
    2  A    between atoms: C_5  and  N_30
    3  A    between atoms: C_10  and  C_16
                            x       y       z     vdW  Elec       q    Type
                         _______ _______ _______ _____ _____    ______ ____

>  <TORSDO>
F 3

$$$$
=
 OpenBabel11122413073D

 31 35  0  0  1  0  0  0  0  0999 V2000
  160.8230  206.9730  156.4020 C   0  0  0  0  0  0  0  0  0  0  0  0
  161.8840  208.9050  153.3130 C   0  0  2  0  0  3  0  0  0  0  0  0
  161.5270  207.9690  152.1660 C   0  0  0  0  0  0  0  0  0  0  0  0
  160.9080  205.7800  151.3030 C   0  0  0  0  0  0  0  0  0  0  0  0
  161.1590  208.5810  154.6050 C   0  0  0  0  0  0  0  0  0  0  0  0
  159.7110  207.6890  156.8440 C   0  0  0  0  0  3  0  0  0  0  0  0
  161.2090  206.6190  152.3800 C   0  0  0  0  0  3  0  0  0  0  0  0
  160.2650  210.7700  152.7990 C   0  0  2  0  0  3  0  0  0  0  0  0
  161.1950  205.8380  157.0400 F   0  0  0  0  0  0  0  0  0  0  0  0
  161.9310  209.8160  150.6120 N   0  0  0  0  0  2  0  0  0  0  0  0
  160.5600  204.3550  151.5470 C   0  0  0  0  0  1  0  0  0  0  0  0
  159.6360  210.9770  154.4880 S   0  0  0  0  0  0  0  0  0  0  0  0
  161.7430  210.3790  152.8920 C   0  0  2  0  0  3  0  0  0  0  0  0
  161.5370  207.4130  155.2870 C   0  0  0  0  0  3  0  0  0  0  0  0
  160.9310  206.2800  149.9990 C   0  0  0  0  0  3  0  0  0  0  0  0
  160.0570  209.3300  155.0860 C   0  0  0  0  0  0  0  0  0  0  0  0
  159.3390  208.8670  156.1940 C   0  0  0  0  0  3  0  0  0  0  0  0
  162.4720  210.6180  151.6360 N   0  0  0  0  0  2  0  0  0  0  0  0
  161.5850  208.4510  150.8460 C   0  0  0  0  0  0  0  0  0  0  0  0
  161.2690  207.6160  149.7700 C   0  0  0  0  0  3  0  0  0  0  0  0
  160.0780  212.0830  152.0480 C   0  0  0  0  0  2  0  0  0  0  0  0
  158.0920  212.2090  150.7030 O   0  0  0  0  0  1  0  0  0  0  0  0
  158.6050  212.4610  151.9790 C   0  0  2  0  0  3  0  0  0  0  0  0
  156.3880  214.1450  154.4890 C   0  0  1  0  0  3  0  0  0  0  0  0
  158.7840  214.0260  153.8070 C   0  0  0  0  0  2  0  0  0  0  0  0
  156.7240  214.2690  150.7740 O   0  0  0  0  0  1  0  0  0  0  0  0
  155.4140  213.6040  155.3270 O   0  0  0  0  0  1  0  0  0  0  0  0
  157.7210  213.4640  154.7530 C   0  0  0  0  0  2  0  0  0  0  0  0
  157.0840  214.4530  152.1110 C   0  0  2  0  0  3  0  0  0  0  0  0
  158.4130  213.8620  152.3950 N   0  0  0  0  0  0  0  0  0  0  0  0
  155.9840  213.9340  153.0380 C   0  0  0  0  0  2  0  0  0  0  0  0
  1  6  1  0  0  0  0
  1  9  1  0  0  0  0
  2  3  1  6  0  0  0
  2  5  1  0  0  0  0
  3  7  1  0  0  0  0
  4 11  1  0  0  0  0
  4  7  2  0  0  0  0
  5 16  2  0  0  0  0
  5 14  1  0  0  0  0
  8 21  1  6  0  0  0
  8 13  1  0  0  0  0
  8 12  1  0  0  0  0
 10 19  1  0  0  0  0
 10 18  1  0  0  0  0
 12 16  1  0  0  0  0
 13 18  1  6  0  0  0
 13  2  1  0  0  0  0
 14  1  2  0  0  0  0
 15  4  1  0  0  0  0
 16 17  1  0  0  0  0
 17  6  2  0  0  0  0
 19  3  2  0  0  0  0
 20 15  2  0  0  0  0
 20 19  1  0  0  0  0
 23 22  1  6  0  0  0
 23 21  1  0  0  0  0
 23 30  1  0  0  0  0
 24 28  1  0  0  0  0
 24 27  1  1  0  0  0
 25 28  1  0  0  0  0
 29 26  1  6  0  0  0
 29 30  1  0  0  0  0
 29 31  1  0  0  0  0
 30 25  1  0  0  0  0
 31 24  1  0  0  0  0
M  END
>  <MODEL>
8

>  <REMARK>
 VINA RESULT:      -5.5      4.445      7.362
  Name = 
  3 active torsions:
  status: ('A' for Active; 'I' for Inactive)
    1  A    between atoms: C_5  and  C_16
    2  A    between atoms: C_5  and  N_30
    3  A    between atoms: C_10  and  C_16
                            x       y       z     vdW  Elec       q    Type
                         _______ _______ _______ _____ _____    ______ ____

>  <TORSDO>
F 3

$$$$
=
 OpenBabel11122413073D

 31 35  0  0  1  0  0  0  0  0999 V2000
  160.7260  201.6130  148.6120 C   0  0  0  0  0  0  0  0  0  0  0  0
  162.3310  204.7900  149.9270 C   0  0  2  0  0  3  0  0  0  0  0  0
  161.8320  205.8650  148.9710 C   0  0  0  0  0  0  0  0  0  0  0  0
  160.7900  206.5570  146.8840 C   0  0  0  0  0  0  0  0  0  0  0  0
  161.4920  203.5280  149.9070 C   0  0  0  0  0  0  0  0  0  0  0  0
  159.7790  201.3200  149.5920 C   0  0  0  0  0  3  0  0  0  0  0  0
  161.2160  205.5470  147.7500 C   0  0  0  0  0  3  0  0  0  0  0  0
  161.1880  205.5910  152.0280 C   0  0  2  0  0  3  0  0  0  0  0  0
  160.8090  200.8460  147.4990 F   0  0  0  0  0  0  0  0  0  0  0  0
  162.7060  207.5560  150.5100 N   0  0  0  0  0  2  0  0  0  0  0  0
  160.1270  206.2040  145.6010 C   0  0  0  0  0  1  0  0  0  0  0  0
  160.5400  203.9780  152.5460 S   0  0  0  0  0  0  0  0  0  0  0  0
  162.5380  205.3590  151.3430 C   0  0  2  0  0  3  0  0  0  0  0  0
  161.5720  202.7130  148.7660 C   0  0  0  0  0  3  0  0  0  0  0  0
  160.9840  207.8980  147.2240 C   0  0  0  0  0  3  0  0  0  0  0  0
  160.5600  203.1980  150.9220 C   0  0  0  0  0  0  0  0  0  0  0  0
  159.7060  202.1040  150.7450 C   0  0  0  0  0  3  0  0  0  0  0  0
  163.3610  206.5770  151.2840 N   0  0  0  0  0  2  0  0  0  0  0  0
  162.0570  207.2180  149.2840 C   0  0  0  0  0  0  0  0  0  0  0  0
  161.6180  208.2290  148.4240 C   0  0  0  0  0  3  0  0  0  0  0  0
  161.3300  206.4750  153.2620 C   0  0  0  0  0  2  0  0  0  0  0  0
  160.4460  208.0800  151.7090 O   0  0  0  0  0  1  0  0  0  0  0  0
  160.5930  207.7930  153.0690 C   0  0  2  0  0  3  0  0  0  0  0  0
  159.4170  210.5180  155.3580 C   0  0  1  0  0  3  0  0  0  0  0  0
  161.1090  208.6880  155.2490 C   0  0  0  0  0  2  0  0  0  0  0  0
  161.0630  210.4230  152.0110 O   0  0  0  0  0  1  0  0  0  0  0  0
  158.1250  210.8520  155.7620 O   0  0  0  0  0  1  0  0  0  0  0  0
  159.7060  209.0720  155.7260 C   0  0  0  0  0  2  0  0  0  0  0  0
  160.9330  210.2590  153.3910 C   0  0  2  0  0  3  0  0  0  0  0  0
  161.2730  208.8760  153.8020 N   0  0  0  0  0  0  0  0  0  0  0  0
  159.5430  210.6990  153.8540 C   0  0  0  0  0  2  0  0  0  0  0  0
  1 14  2  0  0  0  0
  1  6  1  0  0  0  0
  2  3  1  6  0  0  0
  2 13  1  0  0  0  0
  3 19  1  0  0  0  0
  4 15  2  0  0  0  0
  4  7  1  0  0  0  0
  5  2  1  0  0  0  0
  5 16  2  0  0  0  0
  6 17  2  0  0  0  0
  7  3  2  0  0  0  0
  8 12  1  0  0  0  0
  8 21  1  1  0  0  0
  9  1  1  0  0  0  0
 10 18  1  0  0  0  0
 11  4  1  0  0  0  0
 13 18  1  6  0  0  0
 13  8  1  0  0  0  0
 14  5  1  0  0  0  0
 15 20  1  0  0  0  0
 16 12  1  0  0  0  0
 17 16  1  0  0  0  0
 19 10  1  0  0  0  0
 20 19  2  0  0  0  0
 23 22  1  6  0  0  0
 23 21  1  0  0  0  0
 23 30  1  0  0  0  0
 24 28  1  0  0  0  0
 24 27  1  6  0  0  0
 25 28  1  0  0  0  0
 29 26  1  6  0  0  0
 29 30  1  0  0  0  0
 29 31  1  0  0  0  0
 30 25  1  0  0  0  0
 31 24  1  0  0  0  0
M  END
>  <MODEL>
9

>  <REMARK>
 VINA RESULT:      -5.2      2.215      4.274
  Name = 
  3 active torsions:
  status: ('A' for Active; 'I' for Inactive)
    1  A    between atoms: C_5  and  C_16
    2  A    between atoms: C_5  and  N_30
    3  A    between atoms: C_10  and  C_16
                            x       y       z     vdW  Elec       q    Type
                         _______ _______ _______ _____ _____    ______ ____

>  <TORSDO>
F 3

$$$$
