=
 OpenBabel11122413453D

 37 43  0  0  1  0  0  0  0  0999 V2000
  161.1580  209.1630  156.1180 C   0  0  0  0  0  0  0  0  0  0  0  0
  160.1290  211.3480  152.6490 C   0  0  0  0  0  0  0  0  0  0  0  0
  162.2470  210.5060  149.3960 C   0  0  0  0  0  2  0  0  0  0  0  0
  159.7220  210.9140  155.0540 C   0  0  0  0  0  0  0  0  0  0  0  0
  160.7410  210.5460  151.5480 C   0  0  1  0  0  3  0  0  0  0  0  0
  160.6840  210.8780  153.9300 C   0  0  1  0  0  3  0  0  0  0  0  0
  161.4190  211.3800  150.3980 C   0  0  2  0  0  3  0  0  0  0  0  0
  158.5860  211.7800  154.9710 N   0  0  0  0  0  0  0  0  0  0  0  0
  161.0660  209.5070  153.6830 N   0  0  2  0  0  0  0  0  0  0  0  0
  160.6560  207.7610  156.3940 C   0  0  0  0  0  1  0  0  0  0  0  0
  158.5150  212.5780  151.2500 C   0  0  0  0  0  2  0  0  0  0  0  0
  158.4530  212.7180  153.8470 C   0  0  0  0  0  2  0  0  0  0  0  0
  161.9600  209.1540  154.7800 C   0  0  0  0  0  2  0  0  0  0  0  0
  162.6670  207.9760  149.2480 O   0  0  0  0  0  0  0  0  0  0  0  0
  161.8050  209.0640  149.4890 C   0  0  1  0  0  3  0  0  0  0  0  0
  159.0630  212.1610  152.5740 C   0  0  0  0  0  0  0  0  0  0  0  0
  161.6930  209.6230  152.3730 C   0  0  1  0  0  3  0  0  0  0  0  0
  159.9590  210.1160  156.1030 C   0  0  0  0  0  2  0  0  0  0  0  0
  160.3770  212.2050  149.5940 C   0  0  1  0  0  3  0  0  0  0  0  0
  162.0920  209.5690  157.2380 C   0  0  0  0  0  1  0  0  0  0  0  0
  162.8140  208.6150  150.4850 C   0  0  1  0  0  3  0  0  0  0  0  0
  161.9870  208.2570  151.7180 C   0  0  2  0  0  3  0  0  0  0  0  0
  159.6080  213.2350  150.4240 C   0  0  0  0  0  2  0  0  0  0  0  0
  162.0560  213.7870  148.6220 C   0  0  0  0  0  3  0  0  0  0  0  0
  160.9860  212.9090  148.4160 C   0  0  0  0  0  0  0  0  0  0  0  0
  160.5030  212.6970  147.1150 C   0  0  0  0  0  3  0  0  0  0  0  0
  160.6180  213.1580  144.7780 F   0  0  0  0  0  0  0  0  0  0  0  0
  162.1530  214.2420  146.2450 C   0  0  0  0  0  3  0  0  0  0  0  0
  161.0860  213.3640  146.0330 C   0  0  0  0  0  0  0  0  0  0  0  0
  162.6380  214.4530  147.5390 C   0  0  0  0  0  3  0  0  0  0  0  0
  160.8070  207.5470  151.4280 O   0  0  0  0  0  0  0  0  0  0  0  0
  161.1740  206.1960  151.4190 C   0  0  1  0  0  3  0  0  0  0  0  0
  160.7730  204.2630  152.7730 O   0  0  0  0  0  1  0  0  0  0  0  0
  161.1010  205.6180  152.8250 C   0  0  0  0  0  2  0  0  0  0  0  0
  160.2970  205.3930  150.4540 C   0  0  0  0  0  2  0  0  0  0  0  0
  161.0880  204.6430  149.4240 C   0  0  0  0  0  3  0  0  0  0  0  0
  161.1160  205.0410  148.2050 N   0  0  0  0  0  2  0  0  0  0  0  0
  1 10  1  0  0  0  0
  1 20  1  0  0  0  0
  4 18  1  0  0  0  0
  5 17  1  0  0  0  0
  5  2  1  1  0  0  0
  6  2  1  6  0  0  0
  6  4  1  0  0  0  0
  7  3  1  6  0  0  0
  7  5  1  0  0  0  0
  8  4  2  0  0  0  0
  9  6  1  0  0  0  0
  9 13  1  1  0  0  0
 11 16  1  0  0  0  0
 12  8  1  0  0  0  0
 13  1  1  0  0  0  0
 14 15  1  0  0  0  0
 14 21  1  0  0  0  0
 15  3  1  6  0  0  0
 15 21  1  0  0  0  0
 16  2  2  0  0  0  0
 16 12  1  0  0  0  0
 17  9  1  0  0  0  0
 18  1  1  0  0  0  0
 19  7  1  0  0  0  0
 19 23  1  0  0  0  0
 21 22  1  0  0  0  0
 22 17  1  0  0  0  0
 23 11  1  0  0  0  0
 25 24  1  0  0  0  0
 25 19  1  0  0  0  0
 26 25  2  0  0  0  0
 27 29  1  0  0  0  0
 28 30  1  0  0  0  0
 29 28  2  0  0  0  0
 29 26  1  0  0  0  0
 30 24  2  0  0  0  0
 31 22  1  0  0  0  0
 32 31  1  0  0  0  0
 32 34  1  0  0  0  0
 33 34  1  0  0  0  0
 35 32  1  0  0  0  0
 36 35  1  0  0  0  0
 37 36  2  0  0  0  0
M  END
>  <MODEL>
1

>  <REMARK>
 VINA RESULT:      -5.4      0.000      0.000
  Name = 
  6 active torsions:
  status: ('A' for Active; 'I' for Inactive)
    1  A    between atoms: O_1  and  C_4
    2  A    between atoms: O_1  and  C_27
    3  A    between atoms: C_4  and  C_12
    4  A    between atoms: C_4  and  C_37
    5  A    between atoms: C_8  and  C_12
    6  A    between atoms: C_23  and  C_30
                            x       y       z     vdW  Elec       q    Type
                         _______ _______ _______ _____ _____    ______ ____

>  <TORSDO>
F 6

$$$$
