=
 OpenBabel11122414153D

 34 41  0  0  1  0  0  0  0  0999 V2000
  161.2050  207.7720  154.7100 C   0  0  1  0  0  3  0  0  0  0  0  0
  161.8850  205.7120  153.2970 C   0  0  0  0  0  3  0  0  0  0  0  0
  158.3860  213.6400  155.0090 C   0  0  0  0  0  0  0  0  0  0  0  0
  159.8230  209.6100  155.7190 C   0  0  0  0  0  0  0  0  0  0  0  0
  158.8410  211.3490  154.3430 C   0  0  0  0  0  0  0  0  0  0  0  0
  158.2480  213.3440  153.0240 C   0  0  0  0  0  2  0  0  0  0  0  0
  158.5930  214.4530  153.8350 O   0  0  0  0  0  0  0  0  0  0  0  0
  158.3590  212.6960  157.1910 C   0  0  0  0  0  3  0  0  0  0  0  0
  161.1090  207.5970  152.2110 C   0  0  0  0  0  0  0  0  0  0  0  0
  162.0040  208.3820  149.4030 C   0  0  0  0  0  3  0  0  0  0  0  0
  159.3170  210.7120  153.2380 N   0  0  0  0  0  0  0  0  0  0  0  0
  158.5880  211.4050  156.9020 C   0  0  0  0  0  3  0  0  0  0  0  0
  160.5670  208.9750  152.0120 C   0  0  1  0  0  3  0  0  0  0  0  0
  162.0740  205.6000  151.8520 N   0  0  0  0  0  0  0  0  0  0  0  0
  159.0910  210.8070  155.6310 C   0  0  0  0  0  0  0  0  0  0  0  0
  158.5490  213.7850  156.2800 N   0  0  0  0  0  0  0  0  0  0  0  0
  161.7150  207.1440  149.8320 C   0  0  0  0  0  0  0  0  0  0  0  0
  160.3290  208.9990  154.5590 C   0  0  0  0  0  0  0  0  0  0  0  0
  157.9250  212.5230  154.1560 C   0  0  2  0  0  3  0  0  0  0  0  0
  160.0670  209.5810  153.3020 C   0  0  0  0  0  0  0  0  0  0  0  0
  160.5280  207.7850  157.1080 C   0  0  0  0  0  3  0  0  0  0  0  0
  162.1890  209.6010  150.2200 C   0  0  0  0  0  3  0  0  0  0  0  0
  160.0750  208.9990  156.9980 N   0  0  0  0  0  0  0  0  0  0  0  0
  161.5960  209.8640  151.3870 C   0  0  0  0  0  3  0  0  0  0  0  0
  161.5930  206.8090  151.2740 C   0  0  0  0  0  0  0  0  0  0  0  0
  160.7330  206.9240  155.8940 C   0  0  0  0  0  2  0  0  0  0  0  0
  161.2000  206.9850  153.4840 N   0  0  0  0  0  0  0  0  0  0  0  0
  161.5880  206.1280  148.8300 N   0  0  0  0  0  2  0  0  0  0  0  0
  160.6620  206.1790  147.7060 C   0  0  0  0  0  2  0  0  0  0  0  0
  161.7140  204.0100  145.5050 O   0  0  0  0  0  0  0  0  0  0  0  0
  160.4770  206.0030  145.2450 C   0  0  0  0  0  2  0  0  0  0  0  0
  161.4260  206.1890  146.3920 C   0  0  2  0  0  3  0  0  0  0  0  0
  160.9630  204.7410  144.5740 C   0  0  0  0  0  2  0  0  0  0  0  0
  162.3230  204.9750  146.3210 C   0  0  0  0  0  2  0  0  0  0  0  0
  1 26  1  1  0  0  0
  2 27  1  0  0  0  0
  3 16  2  0  0  0  0
  4 23  1  0  0  0  0
  5 15  2  0  0  0  0
  6  7  1  0  0  0  0
  7  3  1  0  0  0  0
  9 27  1  0  0  0  0
 10 17  2  0  0  0  0
 10 22  1  0  0  0  0
 11 20  2  0  0  0  0
 11  5  1  0  0  0  0
 12  8  2  0  0  0  0
 13 24  1  1  0  0  0
 13  9  1  0  0  0  0
 13 20  1  0  0  0  0
 14  2  2  0  0  0  0
 15  4  1  0  0  0  0
 15 12  1  0  0  0  0
 16  8  1  0  0  0  0
 17 25  1  0  0  0  0
 18  1  1  0  0  0  0
 18  4  2  0  0  0  0
 19  6  1  6  0  0  0
 19  5  1  0  0  0  0
 19  3  1  0  0  0  0
 20 18  1  0  0  0  0
 22 24  2  0  0  0  0
 23 21  2  0  0  0  0
 25 14  1  0  0  0  0
 25  9  2  0  0  0  0
 26 21  1  0  0  0  0
 27  1  1  0  0  0  0
 28 17  1  0  0  0  0
 29 28  1  0  0  0  0
 30 34  1  0  0  0  0
 31 32  1  0  0  0  0
 32 29  1  1  0  0  0
 33 31  1  0  0  0  0
 33 30  1  0  0  0  0
 34 32  1  0  0  0  0
M  END
>  <MODEL>
1

>  <REMARK>
 VINA RESULT:      -9.1      0.000      0.000
  Name = 
  3 active torsions:
  status: ('A' for Active; 'I' for Inactive)
    1  A    between atoms: C_17  and  N_28
    2  A    between atoms: N_28  and  C_29
    3  A    between atoms: C_29  and  C_32
                            x       y       z     vdW  Elec       q    Type
                         _______ _______ _______ _____ _____    ______ ____

>  <TORSDO>
F 3

$$$$
=
 OpenBabel11122414153D

 34 41  0  0  1  0  0  0  0  0999 V2000
  162.1580  207.0910  148.8690 C   0  0  1  0  0  3  0  0  0  0  0  0
  161.8970  209.4280  149.9540 C   0  0  0  0  0  3  0  0  0  0  0  0
  160.8480  200.7080  149.0010 C   0  0  0  0  0  0  0  0  0  0  0  0
  161.5940  204.8390  147.9120 C   0  0  0  0  0  0  0  0  0  0  0  0
  160.5820  203.1070  149.2740 C   0  0  0  0  0  0  0  0  0  0  0  0
  159.9990  201.2230  150.7510 C   0  0  0  0  0  2  0  0  0  0  0  0
  160.8110  200.1420  150.3270 O   0  0  0  0  0  0  0  0  0  0  0  0
  161.3600  201.3110  146.7590 C   0  0  0  0  0  3  0  0  0  0  0  0
  161.2020  207.5690  151.1370 C   0  0  0  0  0  0  0  0  0  0  0  0
  161.2480  207.4280  154.1830 C   0  0  0  0  0  3  0  0  0  0  0  0
  160.5230  203.9890  150.3100 N   0  0  0  0  0  0  0  0  0  0  0  0
  161.2130  202.6440  146.8240 C   0  0  0  0  0  3  0  0  0  0  0  0
  160.9140  206.1380  151.4550 C   0  0  1  0  0  3  0  0  0  0  0  0
  161.5660  209.7780  151.3340 N   0  0  0  0  0  0  0  0  0  0  0  0
  161.1320  203.5170  148.0310 C   0  0  0  0  0  0  0  0  0  0  0  0
  161.4510  200.4410  147.8930 N   0  0  0  0  0  0  0  0  0  0  0  0
  160.8750  208.4790  153.4390 C   0  0  0  0  0  0  0  0  0  0  0  0
  161.5490  205.7100  149.0130 C   0  0  0  0  0  0  0  0  0  0  0  0
  159.9130  201.7720  149.4280 C   0  0  2  0  0  3  0  0  0  0  0  0
  161.0060  205.2560  150.2320 C   0  0  0  0  0  0  0  0  0  0  0  0
  162.3370  206.5810  146.4370 C   0  0  0  0  0  3  0  0  0  0  0  0
  161.9370  206.1990  153.7310 C   0  0  0  0  0  3  0  0  0  0  0  0
  162.1290  205.3170  146.6630 N   0  0  0  0  0  0  0  0  0  0  0  0
  161.8330  205.6380  152.5240 C   0  0  0  0  0  3  0  0  0  0  0  0
  161.1750  208.5750  151.9870 C   0  0  0  0  0  0  0  0  0  0  0  0
  161.9470  207.6210  147.4490 C   0  0  0  0  0  2  0  0  0  0  0  0
  161.5860  208.0070  149.8470 N   0  0  0  0  0  0  0  0  0  0  0  0
  160.2180  209.5540  154.1240 N   0  0  0  0  0  2  0  0  0  0  0  0
  159.6680  209.4690  155.4700 C   0  0  0  0  0  2  0  0  0  0  0  0
  162.6760  209.4210  156.7360 O   0  0  0  0  0  0  0  0  0  0  0  0
  161.4740  211.1480  155.6680 C   0  0  0  0  0  2  0  0  0  0  0  0
  160.4970  210.3030  156.4320 C   0  0  2  0  0  3  0  0  0  0  0  0
  162.8200  210.7020  156.1830 C   0  0  0  0  0  2  0  0  0  0  0  0
  161.3750  209.3940  157.2610 C   0  0  0  0  0  2  0  0  0  0  0  0
  1 26  1  6  0  0  0
  1 18  1  0  0  0  0
  1 27  1  0  0  0  0
  2 14  2  0  0  0  0
  3 19  1  0  0  0  0
  3  7  1  0  0  0  0
  4 15  2  0  0  0  0
  4 18  1  0  0  0  0
  5 19  1  0  0  0  0
  5 11  2  0  0  0  0
  7  6  1  0  0  0  0
  8 12  2  0  0  0  0
  8 16  1  0  0  0  0
  9 13  1  0  0  0  0
  9 25  2  0  0  0  0
 12 15  1  0  0  0  0
 13 24  1  1  0  0  0
 14 25  1  0  0  0  0
 15  5  1  0  0  0  0
 16  3  2  0  0  0  0
 17 28  1  0  0  0  0
 17 10  2  0  0  0  0
 18 20  2  0  0  0  0
 19  6  1  1  0  0  0
 20 11  1  0  0  0  0
 20 13  1  0  0  0  0
 21 23  2  0  0  0  0
 21 26  1  0  0  0  0
 22 10  1  0  0  0  0
 23  4  1  0  0  0  0
 24 22  2  0  0  0  0
 25 17  1  0  0  0  0
 27  2  1  0  0  0  0
 27  9  1  0  0  0  0
 28 29  1  0  0  0  0
 30 34  1  0  0  0  0
 31 33  1  0  0  0  0
 31 32  1  0  0  0  0
 32 29  1  6  0  0  0
 32 34  1  0  0  0  0
 33 30  1  0  0  0  0
M  END
>  <MODEL>
2

>  <REMARK>
 VINA RESULT:      -8.6      3.040      9.684
  Name = 
  3 active torsions:
  status: ('A' for Active; 'I' for Inactive)
    1  A    between atoms: C_17  and  N_28
    2  A    between atoms: N_28  and  C_29
    3  A    between atoms: C_29  and  C_32
                            x       y       z     vdW  Elec       q    Type
                         _______ _______ _______ _____ _____    ______ ____

>  <TORSDO>
F 3

$$$$
=
 OpenBabel11122414153D

 34 41  0  0  1  0  0  0  0  0999 V2000
  162.1400  207.3300  149.2700 C   0  0  1  0  0  3  0  0  0  0  0  0
  161.8730  209.5920  150.5000 C   0  0  0  0  0  3  0  0  0  0  0  0
  160.8310  200.9510  148.9900 C   0  0  0  0  0  0  0  0  0  0  0  0
  161.5810  205.1430  148.1690 C   0  0  0  0  0  0  0  0  0  0  0  0
  160.5630  203.3280  149.4130 C   0  0  0  0  0  0  0  0  0  0  0  0
  159.9740  201.3530  150.7640 C   0  0  0  0  0  2  0  0  0  0  0  0
  160.7880  200.3020  150.2770 O   0  0  0  0  0  0  0  0  0  0  0  0
  161.3530  201.6950  146.7930 C   0  0  0  0  0  3  0  0  0  0  0  0
  161.1730  207.6630  151.5590 C   0  0  0  0  0  0  0  0  0  0  0  0
  161.2050  207.3280  154.5910 C   0  0  0  0  0  3  0  0  0  0  0  0
  160.4990  204.1420  150.5030 N   0  0  0  0  0  0  0  0  0  0  0  0
  161.2060  203.0220  146.9410 C   0  0  0  0  0  3  0  0  0  0  0  0
  160.8840  206.2140  151.7840 C   0  0  1  0  0  3  0  0  0  0  0  0
  161.5360  209.8540  151.8980 N   0  0  0  0  0  0  0  0  0  0  0  0
  161.1190  203.8160  148.2020 C   0  0  0  0  0  0  0  0  0  0  0  0
  161.4390  200.7550  147.8700 N   0  0  0  0  0  0  0  0  0  0  0  0
  160.8350  208.4240  153.9130 C   0  0  0  0  0  0  0  0  0  0  0  0
  161.5310  205.9430  149.3230 C   0  0  0  0  0  0  0  0  0  0  0  0
  159.8940  201.9860  149.4790 C   0  0  2  0  0  3  0  0  0  0  0  0
  160.9820  205.4110  150.5080 C   0  0  0  0  0  0  0  0  0  0  0  0
  162.3310  206.9750  146.8110 C   0  0  0  0  0  3  0  0  0  0  0  0
  161.8960  206.1300  154.0650 C   0  0  0  0  0  3  0  0  0  0  0  0
  162.1210  205.7000  146.9560 N   0  0  0  0  0  0  0  0  0  0  0  0
  161.7980  205.6470  152.8240 C   0  0  0  0  0  3  0  0  0  0  0  0
  161.1420  208.6120  152.4720 C   0  0  0  0  0  0  0  0  0  0  0  0
  161.9360  207.9490  147.8860 C   0  0  0  0  0  2  0  0  0  0  0  0
  161.5630  208.1820  150.3020 N   0  0  0  0  0  0  0  0  0  0  0  0
  160.1740  209.4530  154.6610 N   0  0  0  0  0  2  0  0  0  0  0  0
  160.8070  210.6790  155.1280 C   0  0  0  0  0  2  0  0  0  0  0  0
  158.4730  211.8040  153.1430 O   0  0  0  0  0  0  0  0  0  0  0  0
  158.4450  211.3370  155.4560 C   0  0  0  0  0  2  0  0  0  0  0  0
  159.8160  211.8300  155.0960 C   0  0  2  0  0  3  0  0  0  0  0  0
  157.6120  211.6630  154.2400 C   0  0  0  0  0  2  0  0  0  0  0  0
  159.6620  212.3240  153.6760 C   0  0  0  0  0  2  0  0  0  0  0  0
  1 26  1  6  0  0  0
  1 18  1  0  0  0  0
  1 27  1  0  0  0  0
  2 14  2  0  0  0  0
  3 19  1  0  0  0  0
  3  7  1  0  0  0  0
  4 15  2  0  0  0  0
  4 18  1  0  0  0  0
  5 19  1  0  0  0  0
  5 11  2  0  0  0  0
  7  6  1  0  0  0  0
  8 12  2  0  0  0  0
  8 16  1  0  0  0  0
  9 13  1  0  0  0  0
  9 25  2  0  0  0  0
 11 20  1  0  0  0  0
 12 15  1  0  0  0  0
 13 24  1  1  0  0  0
 14 25  1  0  0  0  0
 15  5  1  0  0  0  0
 16  3  2  0  0  0  0
 17 10  2  0  0  0  0
 17 28  1  0  0  0  0
 18 20  2  0  0  0  0
 19  6  1  1  0  0  0
 20 13  1  0  0  0  0
 21 23  2  0  0  0  0
 21 26  1  0  0  0  0
 22 10  1  0  0  0  0
 23  4  1  0  0  0  0
 24 22  2  0  0  0  0
 25 17  1  0  0  0  0
 27  2  1  0  0  0  0
 27  9  1  0  0  0  0
 28 29  1  0  0  0  0
 30 34  1  0  0  0  0
 30 33  1  0  0  0  0
 32 29  1  6  0  0  0
 32 31  1  0  0  0  0
 33 31  1  0  0  0  0
 34 32  1  0  0  0  0
M  END
>  <MODEL>
3

>  <REMARK>
 VINA RESULT:      -8.4      2.643      9.424
  Name = 
  3 active torsions:
  status: ('A' for Active; 'I' for Inactive)
    1  A    between atoms: C_17  and  N_28
    2  A    between atoms: N_28  and  C_29
    3  A    between atoms: C_29  and  C_32
                            x       y       z     vdW  Elec       q    Type
                         _______ _______ _______ _____ _____    ______ ____

>  <TORSDO>
F 3

$$$$
=
 OpenBabel11122414153D

 34 41  0  0  1  0  0  0  0  0999 V2000
  162.1820  206.9800  148.3890 C   0  0  1  0  0  3  0  0  0  0  0  0
  161.9600  209.3890  149.3110 C   0  0  0  0  0  3  0  0  0  0  0  0
  160.8660  200.6280  149.0230 C   0  0  0  0  0  0  0  0  0  0  0  0
  161.5820  204.6680  147.6150 C   0  0  0  0  0  0  0  0  0  0  0  0
  160.6130  203.0420  149.1310 C   0  0  0  0  0  0  0  0  0  0  0  0
  160.0760  201.2710  150.7570 C   0  0  0  0  0  2  0  0  0  0  0  0
  160.8720  200.1590  150.3870 O   0  0  0  0  0  0  0  0  0  0  0  0
  161.3040  201.0660  146.7270 C   0  0  0  0  0  3  0  0  0  0  0  0
  161.3010  207.6240  150.6470 C   0  0  0  0  0  0  0  0  0  0  0  0
  161.4480  207.7010  153.6920 C   0  0  0  0  0  3  0  0  0  0  0  0
  160.5900  203.9960  150.1020 N   0  0  0  0  0  0  0  0  0  0  0  0
  161.1620  202.4020  146.7010 C   0  0  0  0  0  3  0  0  0  0  0  0
  161.0220  206.2200  151.0760 C   0  0  1  0  0  3  0  0  0  0  0  0
  161.6760  209.8390  150.6720 N   0  0  0  0  0  0  0  0  0  0  0  0
  161.1230  203.3590  147.8440 C   0  0  0  0  0  0  0  0  0  0  0  0
  161.4320  200.2800  147.9180 N   0  0  0  0  0  0  0  0  0  0  0  0
  161.0530  208.6980  152.8870 C   0  0  0  0  0  0  0  0  0  0  0  0
  161.5750  205.6160  148.6520 C   0  0  0  0  0  0  0  0  0  0  0  0
  159.9480  201.7240  149.4030 C   0  0  2  0  0  3  0  0  0  0  0  0
  161.0720  205.2520  149.9170 C   0  0  0  0  0  0  0  0  0  0  0  0
  162.2790  206.2960  145.9950 C   0  0  0  0  0  3  0  0  0  0  0  0
  162.1200  206.4410  153.3070 C   0  0  0  0  0  3  0  0  0  0  0  0
  162.0760  205.0530  146.3180 N   0  0  0  0  0  0  0  0  0  0  0  0
  161.9750  205.7950  152.1480 C   0  0  0  0  0  3  0  0  0  0  0  0
  161.3050  208.6880  151.4230 C   0  0  0  0  0  0  0  0  0  0  0  0
  161.9240  207.4070  146.9420 C   0  0  0  0  0  2  0  0  0  0  0  0
  161.6440  207.9670  149.3170 N   0  0  0  0  0  0  0  0  0  0  0  0
  160.4200  209.8210  153.5140 N   0  0  0  0  0  2  0  0  0  0  0  0
  159.4090  210.6620  152.8880 C   0  0  0  0  0  2  0  0  0  0  0  0
  158.5750  213.5170  151.5420 O   0  0  0  0  0  0  0  0  0  0  0  0
  158.6890  212.8460  153.8010 C   0  0  0  0  0  2  0  0  0  0  0  0
  159.7710  212.1300  153.0470 C   0  0  2  0  0  3  0  0  0  0  0  0
  158.2200  213.9100  152.8400 C   0  0  0  0  0  2  0  0  0  0  0  0
  159.7710  212.7990  151.6920 C   0  0  0  0  0  2  0  0  0  0  0  0
  1 26  1  6  0  0  0
  1 18  1  0  0  0  0
  1 27  1  0  0  0  0
  2 27  1  0  0  0  0
  2 14  2  0  0  0  0
  3 19  1  0  0  0  0
  3  7  1  0  0  0  0
  4 15  2  0  0  0  0
  4 18  1  0  0  0  0
  5 19  1  0  0  0  0
  5 11  2  0  0  0  0
  7  6  1  0  0  0  0
  8 16  1  0  0  0  0
  9 13  1  0  0  0  0
  9 25  2  0  0  0  0
 12  8  2  0  0  0  0
 12 15  1  0  0  0  0
 13 24  1  1  0  0  0
 14 25  1  0  0  0  0
 15  5  1  0  0  0  0
 16  3  2  0  0  0  0
 17 28  1  0  0  0  0
 17 10  2  0  0  0  0
 18 20  2  0  0  0  0
 19  6  1  1  0  0  0
 20 11  1  0  0  0  0
 20 13  1  0  0  0  0
 21 23  2  0  0  0  0
 21 26  1  0  0  0  0
 22 10  1  0  0  0  0
 23  4  1  0  0  0  0
 24 22  2  0  0  0  0
 25 17  1  0  0  0  0
 27  9  1  0  0  0  0
 29 28  1  0  0  0  0
 30 34  1  0  0  0  0
 30 33  1  0  0  0  0
 32 29  1  6  0  0  0
 32 31  1  0  0  0  0
 33 31  1  0  0  0  0
 34 32  1  0  0  0  0
M  END
>  <MODEL>
4

>  <REMARK>
 VINA RESULT:      -8.0      2.817      9.556
  Name = 
  3 active torsions:
  status: ('A' for Active; 'I' for Inactive)
    1  A    between atoms: C_17  and  N_28
    2  A    between atoms: N_28  and  C_29
    3  A    between atoms: C_29  and  C_32
                            x       y       z     vdW  Elec       q    Type
                         _______ _______ _______ _____ _____    ______ ____

>  <TORSDO>
F 3

$$$$
=
 OpenBabel11122414153D

 34 41  0  0  1  0  0  0  0  0999 V2000
  161.9910  209.4630  150.9740 C   0  0  1  0  0  3  0  0  0  0  0  0
  161.3460  211.0990  152.8730 C   0  0  0  0  0  3  0  0  0  0  0  0
  161.5160  203.5220  148.3350 C   0  0  0  0  0  0  0  0  0  0  0  0
  161.7990  207.7780  149.1210 C   0  0  0  0  0  0  0  0  0  0  0  0
  160.9200  205.5540  149.5250 C   0  0  0  0  0  0  0  0  0  0  0  0
  160.4760  203.1820  150.0230 C   0  0  0  0  0  2  0  0  0  0  0  0
  161.4520  202.4530  149.3010 O   0  0  0  0  0  0  0  0  0  0  0  0
  162.1140  205.0490  146.6140 C   0  0  0  0  0  3  0  0  0  0  0  0
  160.8100  208.8640  153.1020 C   0  0  0  0  0  0  0  0  0  0  0  0
  160.6410  207.4660  155.8080 C   0  0  0  0  0  3  0  0  0  0  0  0
  160.6680  205.9130  150.8140 N   0  0  0  0  0  0  0  0  0  0  0  0
  161.7910  206.2150  147.1960 C   0  0  0  0  0  3  0  0  0  0  0  0
  160.6880  207.4120  152.7720 C   0  0  1  0  0  3  0  0  0  0  0  0
  160.8680  210.8110  154.2240 N   0  0  0  0  0  0  0  0  0  0  0  0
  161.5060  206.4920  148.6350 C   0  0  0  0  0  0  0  0  0  0  0  0
  162.2310  203.7960  147.2980 N   0  0  0  0  0  0  0  0  0  0  0  0
  160.1930  208.6960  155.5160 C   0  0  0  0  0  0  0  0  0  0  0  0
  161.5570  208.1010  150.4670 C   0  0  0  0  0  0  0  0  0  0  0  0
  160.4210  204.2250  149.0390 C   0  0  2  0  0  3  0  0  0  0  0  0
  160.9870  207.1340  151.3180 C   0  0  0  0  0  0  0  0  0  0  0  0
  162.4190  210.0340  148.5860 C   0  0  0  0  0  3  0  0  0  0  0  0
  161.5170  206.6040  154.9840 C   0  0  0  0  0  3  0  0  0  0  0  0
  162.3600  208.7790  148.2510 N   0  0  0  0  0  0  0  0  0  0  0  0
  161.5790  206.5920  153.6510 C   0  0  0  0  0  3  0  0  0  0  0  0
  160.5880  209.4150  154.2780 C   0  0  0  0  0  0  0  0  0  0  0  0
  161.8210  210.5170  149.8770 C   0  0  0  0  0  2  0  0  0  0  0  0
  161.2310  209.8330  152.1610 N   0  0  0  0  0  0  0  0  0  0  0  0
  159.3510  209.3240  156.4920 N   0  0  0  0  0  2  0  0  0  0  0  0
  159.7100  210.5080  157.2610 C   0  0  0  0  0  2  0  0  0  0  0  0
  158.9140  213.1120  155.4600 O   0  0  0  0  0  0  0  0  0  0  0  0
  157.6570  211.2110  156.0730 C   0  0  0  0  0  2  0  0  0  0  0  0
  158.5920  211.5350  157.2010 C   0  0  2  0  0  3  0  0  0  0  0  0
  157.7180  212.4330  155.1890 C   0  0  0  0  0  2  0  0  0  0  0  0
  159.1640  212.8820  156.8220 C   0  0  0  0  0  2  0  0  0  0  0  0
  1 26  1  6  0  0  0
  1 27  1  0  0  0  0
  2 14  2  0  0  0  0
  3 19  1  0  0  0  0
  3  7  1  0  0  0  0
  4 18  1  0  0  0  0
  5 11  2  0  0  0  0
  7  6  1  0  0  0  0
  8 12  2  0  0  0  0
  8 16  1  0  0  0  0
  9 25  2  0  0  0  0
 11 20  1  0  0  0  0
 12 15  1  0  0  0  0
 13  9  1  0  0  0  0
 13 24  1  1  0  0  0
 14 25  1  0  0  0  0
 15  4  2  0  0  0  0
 15  5  1  0  0  0  0
 16  3  2  0  0  0  0
 17 10  2  0  0  0  0
 17 28  1  0  0  0  0
 18  1  1  0  0  0  0
 18 20  2  0  0  0  0
 19  5  1  0  0  0  0
 19  6  1  1  0  0  0
 20 13  1  0  0  0  0
 21 26  1  0  0  0  0
 22 10  1  0  0  0  0
 23 21  2  0  0  0  0
 23  4  1  0  0  0  0
 24 22  2  0  0  0  0
 25 17  1  0  0  0  0
 27  2  1  0  0  0  0
 27  9  1  0  0  0  0
 28 29  1  0  0  0  0
 30 34  1  0  0  0  0
 31 32  1  0  0  0  0
 32 29  1  6  0  0  0
 33 30  1  0  0  0  0
 33 31  1  0  0  0  0
 34 32  1  0  0  0  0
M  END
>  <MODEL>
5

>  <REMARK>
 VINA RESULT:      -7.9      1.762      9.082
  Name = 
  3 active torsions:
  status: ('A' for Active; 'I' for Inactive)
    1  A    between atoms: C_17  and  N_28
    2  A    between atoms: N_28  and  C_29
    3  A    between atoms: C_29  and  C_32
                            x       y       z     vdW  Elec       q    Type
                         _______ _______ _______ _____ _____    ______ ____

>  <TORSDO>
F 3

$$$$
=
 OpenBabel11122414153D

 34 41  0  0  1  0  0  0  0  0999 V2000
  160.6370  204.5390  151.4840 C   0  0  1  0  0  3  0  0  0  0  0  0
  161.1180  205.8140  153.6850 C   0  0  0  0  0  3  0  0  0  0  0  0
  161.4120  204.0740  145.0300 C   0  0  0  0  0  0  0  0  0  0  0  0
  160.9890  203.3720  149.2880 C   0  0  0  0  0  0  0  0  0  0  0  0
  161.8840  204.5470  147.3650 C   0  0  0  0  0  0  0  0  0  0  0  0
  162.3420  205.8350  145.3150 C   0  0  0  0  0  2  0  0  0  0  0  0
  161.4330  205.3450  144.3460 O   0  0  0  0  0  0  0  0  0  0  0  0
  160.9010  201.9100  145.8690 C   0  0  0  0  0  3  0  0  0  0  0  0
  161.6830  206.8090  151.6790 C   0  0  0  0  0  0  0  0  0  0  0  0
  161.6960  209.8320  151.2700 C   0  0  0  0  0  3  0  0  0  0  0  0
  162.0410  205.6530  148.1430 N   0  0  0  0  0  0  0  0  0  0  0  0
  161.1600  202.0860  147.1760 C   0  0  0  0  0  3  0  0  0  0  0  0
  161.8570  206.9920  150.2060 C   0  0  1  0  0  3  0  0  0  0  0  0
  161.5080  207.2080  153.8830 N   0  0  0  0  0  0  0  0  0  0  0  0
  161.3410  203.3620  147.9270 C   0  0  0  0  0  0  0  0  0  0  0  0
  160.7640  202.9660  144.9120 N   0  0  0  0  0  0  0  0  0  0  0  0
  162.1380  209.1710  152.3500 C   0  0  0  0  0  0  0  0  0  0  0  0
  161.1320  204.5430  150.0510 C   0  0  0  0  0  0  0  0  0  0  0  0
  162.4430  204.5640  145.9720 C   0  0  2  0  0  3  0  0  0  0  0  0
  161.6630  205.7000  149.4470 C   0  0  0  0  0  0  0  0  0  0  0  0
  160.3600  202.0780  151.2090 C   0  0  0  0  0  3  0  0  0  0  0  0
  160.8960  209.2960  150.1470 C   0  0  0  0  0  3  0  0  0  0  0  0
  160.4670  202.1860  149.9180 N   0  0  0  0  0  0  0  0  0  0  0  0
  160.9250  208.0420  149.6890 C   0  0  0  0  0  3  0  0  0  0  0  0
  161.8130  207.7420  152.5990 C   0  0  0  0  0  0  0  0  0  0  0  0
  160.8590  203.1640  152.1200 C   0  0  0  0  0  2  0  0  0  0  0  0
  161.3060  205.5750  152.2600 N   0  0  0  0  0  0  0  0  0  0  0  0
  162.8980  209.9260  153.3020 N   0  0  0  0  0  2  0  0  0  0  0  0
  162.3280  210.6830  154.4080 C   0  0  0  0  0  2  0  0  0  0  0  0
  159.8440  211.4190  156.3940 O   0  0  0  0  0  0  0  0  0  0  0  0
  160.1850  211.8820  154.1060 C   0  0  0  0  0  2  0  0  0  0  0  0
  160.8140  210.5540  154.4120 C   0  0  2  0  0  3  0  0  0  0  0  0
  159.3440  212.1740  155.3240 C   0  0  0  0  0  2  0  0  0  0  0  0
  160.3370  210.2410  155.8110 C   0  0  0  0  0  2  0  0  0  0  0  0
  1 26  1  1  0  0  0
  1 27  1  0  0  0  0
  2 14  2  0  0  0  0
  3 19  1  0  0  0  0
  4 23  1  0  0  0  0
  4 18  1  0  0  0  0
  5 15  1  0  0  0  0
  5 11  2  0  0  0  0
  7  3  1  0  0  0  0
  7  6  1  0  0  0  0
  8 12  2  0  0  0  0
  9 27  1  0  0  0  0
  9 25  2  0  0  0  0
 10 17  2  0  0  0  0
 11 20  1  0  0  0  0
 12 15  1  0  0  0  0
 13 24  1  6  0  0  0
 13  9  1  0  0  0  0
 15  4  2  0  0  0  0
 16  3  2  0  0  0  0
 16  8  1  0  0  0  0
 17 25  1  0  0  0  0
 17 28  1  0  0  0  0
 18  1  1  0  0  0  0
 19  6  1  6  0  0  0
 19  5  1  0  0  0  0
 20 18  2  0  0  0  0
 20 13  1  0  0  0  0
 21 26  1  0  0  0  0
 22 10  1  0  0  0  0
 23 21  2  0  0  0  0
 24 22  2  0  0  0  0
 25 14  1  0  0  0  0
 27  2  1  0  0  0  0
 28 29  1  0  0  0  0
 31 32  1  0  0  0  0
 31 33  1  0  0  0  0
 32 29  1  1  0  0  0
 32 34  1  0  0  0  0
 33 30  1  0  0  0  0
 34 30  1  0  0  0  0
M  END
>  <MODEL>
6

>  <REMARK>
 VINA RESULT:      -7.3      2.327      9.121
  Name = 
  3 active torsions:
  status: ('A' for Active; 'I' for Inactive)
    1  A    between atoms: C_17  and  N_28
    2  A    between atoms: N_28  and  C_29
    3  A    between atoms: C_29  and  C_32
                            x       y       z     vdW  Elec       q    Type
                         _______ _______ _______ _____ _____    ______ ____

>  <TORSDO>
F 3

$$$$
=
 OpenBabel11122414153D

 34 41  0  0  1  0  0  0  0  0999 V2000
  161.5620  206.6490  153.1880 C   0  0  1  0  0  3  0  0  0  0  0  0
  161.7320  204.6710  151.5260 C   0  0  0  0  0  3  0  0  0  0  0  0
  159.7230  212.7880  154.3750 C   0  0  0  0  0  0  0  0  0  0  0  0
  160.6170  208.5470  154.5340 C   0  0  0  0  0  0  0  0  0  0  0  0
  159.7360  210.5360  153.4640 C   0  0  0  0  0  0  0  0  0  0  0  0
  159.2820  212.7190  152.4140 C   0  0  0  0  0  2  0  0  0  0  0  0
  159.8940  213.6800  153.2550 O   0  0  0  0  0  0  0  0  0  0  0  0
  159.8400  211.6370  156.4530 C   0  0  0  0  0  3  0  0  0  0  0  0
  161.1140  206.7470  150.7240 C   0  0  0  0  0  0  0  0  0  0  0  0
  161.7400  207.6850  147.8900 C   0  0  0  0  0  3  0  0  0  0  0  0
  159.9620  209.9560  152.2530 N   0  0  0  0  0  0  0  0  0  0  0  0
  159.8320  210.3630  156.0280 C   0  0  0  0  0  3  0  0  0  0  0  0
  160.7640  208.2000  150.7190 C   0  0  1  0  0  3  0  0  0  0  0  0
  161.7110  204.6830  150.0650 N   0  0  0  0  0  0  0  0  0  0  0  0
  160.0690  209.8360  154.6530 C   0  0  0  0  0  0  0  0  0  0  0  0
  160.0710  212.7770  155.6170 N   0  0  0  0  0  0  0  0  0  0  0  0
  161.3270  206.4620  148.2520 C   0  0  0  0  0  0  0  0  0  0  0  0
  160.8680  207.9940  153.2670 C   0  0  0  0  0  0  0  0  0  0  0  0
  158.9910  211.8380  153.5080 C   0  0  2  0  0  3  0  0  0  0  0  0
  160.5340  208.7320  152.1140 C   0  0  0  0  0  0  0  0  0  0  0  0
  161.2150  206.5080  155.6520 C   0  0  0  0  0  3  0  0  0  0  0  0
  162.2130  208.7770  148.7690 C   0  0  0  0  0  3  0  0  0  0  0  0
  160.9400  207.7780  155.7090 N   0  0  0  0  0  0  0  0  0  0  0  0
  161.8240  208.9970  150.0270 C   0  0  0  0  0  3  0  0  0  0  0  0
  161.3460  206.0000  149.6640 C   0  0  0  0  0  0  0  0  0  0  0  0
  161.1270  205.7570  154.3530 C   0  0  0  0  0  2  0  0  0  0  0  0
  161.2780  206.0000  151.9150 N   0  0  0  0  0  0  0  0  0  0  0  0
  160.9180  205.5810  147.1980 N   0  0  0  0  0  2  0  0  0  0  0  0
  160.9950  205.8920  145.7780 C   0  0  0  0  0  2  0  0  0  0  0  0
  161.9720  202.8420  146.4120 O   0  0  0  0  0  0  0  0  0  0  0  0
  160.4110  203.6730  144.8510 C   0  0  0  0  0  2  0  0  0  0  0  0
  161.5050  204.6890  145.0010 C   0  0  2  0  0  3  0  0  0  0  0  0
  160.9640  202.4420  145.5250 C   0  0  0  0  0  2  0  0  0  0  0  0
  162.5560  203.9700  145.8160 C   0  0  0  0  0  2  0  0  0  0  0  0
  1 18  1  0  0  0  0
  1 26  1  1  0  0  0
  2 27  1  0  0  0  0
  3 16  2  0  0  0  0
  4 15  1  0  0  0  0
  4 23  1  0  0  0  0
  5 19  1  0  0  0  0
  5 15  2  0  0  0  0
  6  7  1  0  0  0  0
  7  3  1  0  0  0  0
  9 27  1  0  0  0  0
 10 17  2  0  0  0  0
 10 22  1  0  0  0  0
 11  5  1  0  0  0  0
 12  8  2  0  0  0  0
 13 24  1  1  0  0  0
 13  9  1  0  0  0  0
 13 20  1  0  0  0  0
 14  2  2  0  0  0  0
 15 12  1  0  0  0  0
 16  8  1  0  0  0  0
 17 25  1  0  0  0  0
 18  4  2  0  0  0  0
 19  6  1  6  0  0  0
 19  3  1  0  0  0  0
 20 11  2  0  0  0  0
 20 18  1  0  0  0  0
 21 23  2  0  0  0  0
 22 24  2  0  0  0  0
 25 14  1  0  0  0  0
 25  9  2  0  0  0  0
 26 21  1  0  0  0  0
 27  1  1  0  0  0  0
 28 17  1  0  0  0  0
 29 28  1  0  0  0  0
 31 32  1  0  0  0  0
 31 33  1  0  0  0  0
 32 29  1  1  0  0  0
 32 34  1  0  0  0  0
 33 30  1  0  0  0  0
 34 30  1  0  0  0  0
M  END
>  <MODEL>
7

>  <REMARK>
 VINA RESULT:      -6.4      1.335      1.802
  Name = 
  3 active torsions:
  status: ('A' for Active; 'I' for Inactive)
    1  A    between atoms: C_17  and  N_28
    2  A    between atoms: N_28  and  C_29
    3  A    between atoms: C_29  and  C_32
                            x       y       z     vdW  Elec       q    Type
                         _______ _______ _______ _____ _____    ______ ____

>  <TORSDO>
F 3

$$$$
=
 OpenBabel11122414153D

 34 41  0  0  1  0  0  0  0  0999 V2000
  161.3670  207.5960  149.2370 C   0  0  1  0  0  3  0  0  0  0  0  0
  161.9370  205.8290  147.4320 C   0  0  0  0  0  3  0  0  0  0  0  0
  160.4190  209.0360  155.5220 C   0  0  0  0  0  0  0  0  0  0  0  0
  161.4970  208.9910  151.3210 C   0  0  0  0  0  0  0  0  0  0  0  0
  161.3160  207.9890  153.5220 C   0  0  0  0  0  0  0  0  0  0  0  0
  160.6710  207.0490  155.7060 C   0  0  0  0  0  2  0  0  0  0  0  0
  159.7760  207.9880  156.2750 O   0  0  0  0  0  0  0  0  0  0  0  0
  161.0030  211.0410  154.3850 C   0  0  0  0  0  3  0  0  0  0  0  0
  161.5070  205.1170  149.5870 C   0  0  0  0  0  0  0  0  0  0  0  0
  160.2850  202.3960  150.2240 C   0  0  0  0  0  3  0  0  0  0  0  0
  161.2620  206.7620  152.9340 N   0  0  0  0  0  0  0  0  0  0  0  0
  161.5330  210.5380  153.2570 C   0  0  0  0  0  3  0  0  0  0  0  0
  161.1810  205.1800  151.0440 C   0  0  1  0  0  3  0  0  0  0  0  0
  161.8220  204.3730  147.4900 N   0  0  0  0  0  0  0  0  0  0  0  0
  161.4310  209.1520  152.7160 C   0  0  0  0  0  0  0  0  0  0  0  0
  160.2230  210.2950  155.3260 N   0  0  0  0  0  0  0  0  0  0  0  0
  161.2240  202.6530  149.3010 C   0  0  0  0  0  0  0  0  0  0  0  0
  161.4030  207.7110  150.7480 C   0  0  0  0  0  0  0  0  0  0  0  0
  161.4150  208.0640  155.0180 C   0  0  2  0  0  3  0  0  0  0  0  0
  161.2760  206.5860  151.5870 C   0  0  0  0  0  0  0  0  0  0  0  0
  161.9560  210.0160  149.2000 C   0  0  0  0  0  3  0  0  0  0  0  0
  159.4600  203.3720  150.9710 C   0  0  0  0  0  3  0  0  0  0  0  0
  161.6500  210.1340  150.4590 N   0  0  0  0  0  0  0  0  0  0  0  0
  159.8220  204.6120  151.3080 C   0  0  0  0  0  3  0  0  0  0  0  0
  161.5340  204.0310  148.8420 C   0  0  0  0  0  0  0  0  0  0  0  0
  162.2510  208.6710  148.6000 C   0  0  0  0  0  2  0  0  0  0  0  0
  161.7940  206.2680  148.8140 N   0  0  0  0  0  0  0  0  0  0  0  0
  161.8840  201.5210  148.7210 N   0  0  0  0  0  2  0  0  0  0  0  0
  161.2250  200.4890  147.9310 C   0  0  0  0  0  2  0  0  0  0  0  0
  159.9270  199.6120  145.0670 O   0  0  0  0  0  0  0  0  0  0  0  0
  160.6000  201.7230  145.8790 C   0  0  0  0  0  2  0  0  0  0  0  0
  161.5220  200.6860  146.4530 C   0  0  2  0  0  3  0  0  0  0  0  0
  159.8570  200.9840  144.7930 C   0  0  0  0  0  2  0  0  0  0  0  0
  161.1680  199.4280  145.6950 C   0  0  0  0  0  2  0  0  0  0  0  0
  1 26  1  6  0  0  0
  1 18  1  0  0  0  0
  2 14  2  0  0  0  0
  2 27  1  0  0  0  0
  3  7  1  0  0  0  0
  4 15  1  0  0  0  0
  5 19  1  0  0  0  0
  6  7  1  0  0  0  0
  8 16  1  0  0  0  0
  9 13  1  0  0  0  0
 10 22  1  0  0  0  0
 11  5  1  0  0  0  0
 12  8  2  0  0  0  0
 13 24  1  6  0  0  0
 13 20  1  0  0  0  0
 14 25  1  0  0  0  0
 15 12  1  0  0  0  0
 15  5  2  0  0  0  0
 16  3  2  0  0  0  0
 17 10  2  0  0  0  0
 18  4  2  0  0  0  0
 18 20  1  0  0  0  0
 19  3  1  0  0  0  0
 19  6  1  1  0  0  0
 20 11  2  0  0  0  0
 21 23  2  0  0  0  0
 22 24  2  0  0  0  0
 23  4  1  0  0  0  0
 25 17  1  0  0  0  0
 25  9  2  0  0  0  0
 26 21  1  0  0  0  0
 27  1  1  0  0  0  0
 27  9  1  0  0  0  0
 28 17  1  0  0  0  0
 29 28  1  0  0  0  0
 30 34  1  0  0  0  0
 31 32  1  0  0  0  0
 32 29  1  1  0  0  0
 33 30  1  0  0  0  0
 33 31  1  0  0  0  0
 34 32  1  0  0  0  0
M  END
>  <MODEL>
8

>  <REMARK>
 VINA RESULT:      -6.3      3.005      5.314
  Name = 
  3 active torsions:
  status: ('A' for Active; 'I' for Inactive)
    1  A    between atoms: C_17  and  N_28
    2  A    between atoms: N_28  and  C_29
    3  A    between atoms: C_29  and  C_32
                            x       y       z     vdW  Elec       q    Type
                         _______ _______ _______ _____ _____    ______ ____

>  <TORSDO>
F 3

$$$$
