=
 OpenBabel11122412353D

 30 35  0  0  1  0  0  0  0  0999 V2000
  161.9760  207.7640  149.1560 C   0  0  2  0  0  3  0  0  0  0  0  0
  161.9530  205.7120  147.6360 C   0  0  0  0  0  0  0  0  0  0  0  0
  160.8770  205.1970  152.4090 N   0  0  0  0  0  2  0  0  0  0  0  0
  161.5570  208.2750  150.5420 C   0  0  2  0  0  3  0  0  0  0  0  0
  161.3260  208.7080  148.1580 C   0  0  0  0  0  2  0  0  0  0  0  0
  162.8220  211.6380  149.8560 O   0  0  0  0  0  0  0  0  0  0  0  0
  160.4320  209.7670  152.6750 C   0  0  1  0  0  3  0  0  0  0  0  0
  162.3260  210.5320  149.6970 C   0  0  0  0  0  0  0  0  0  0  0  0
  160.4120  208.3950  153.3630 C   0  0  2  0  0  3  0  0  0  0  0  0
  161.2390  206.0570  153.4840 C   0  0  0  0  0  0  0  0  0  0  0  0
  161.8690  210.1410  148.2990 C   0  0  2  0  0  3  0  0  0  0  0  0
  162.3000  209.5720  150.8720 C   0  0  1  0  0  3  0  0  0  0  0  0
  161.7210  204.3510  147.4140 C   0  0  0  0  0  3  0  0  0  0  0  0
  160.2930  208.6010  154.7450 O   0  0  0  0  0  0  0  0  0  0  0  0
  159.8910  210.6980  153.7220 C   0  0  0  0  0  2  0  0  0  0  0  0
  162.4910  206.4790  146.6090 O   0  0  0  0  0  1  0  0  0  0  0  0
  160.8210  206.0620  151.2470 C   0  0  1  0  0  3  0  0  0  0  0  0
  161.2080  203.5450  148.4310 C   0  0  0  0  0  3  0  0  0  0  0  0
  161.6520  206.2890  148.8870 C   0  0  0  0  0  0  0  0  0  0  0  0
  161.7800  207.1820  151.5640 C   0  0  2  0  0  3  0  0  0  0  0  0
  161.2820  205.6630  154.6780 O   0  0  0  0  0  0  0  0  0  0  0  0
  161.5870  207.4460  153.0560 C   0  0  1  0  0  3  0  0  0  0  0  0
  159.5430  209.7800  154.8740 C   0  0  0  0  0  2  0  0  0  0  0  0
  162.8860  210.2970  153.2130 C   0  0  0  0  0  1  0  0  0  0  0  0
  160.9360  204.0900  149.6850 C   0  0  0  0  0  3  0  0  0  0  0  0
  161.1830  205.4450  149.9320 C   0  0  0  0  0  0  0  0  0  0  0  0
  161.7960  210.2680  152.1500 C   0  0  2  0  0  3  0  0  0  0  0  0
  160.8350  211.1350  147.7820 C   0  0  0  0  0  2  0  0  0  0  0  0
  160.8830  213.6230  147.6110 C   0  0  0  0  0  1  0  0  0  0  0  0
  161.4990  212.3290  147.1130 C   0  0  0  0  0  2  0  0  0  0  0  0
  1  5  1  6  0  0  0
  1  4  1  0  0  0  0
  2 19  1  0  0  0  0
  3 10  1  0  0  0  0
  4 12  1  0  0  0  0
  4 20  1  0  0  0  0
  5 11  1  0  0  0  0
  7  9  1  0  0  0  0
  7 15  1  0  0  0  0
  8  6  2  0  0  0  0
  8 12  1  0  0  0  0
  9 14  1  0  0  0  0
 10 21  2  0  0  0  0
 11  8  1  0  0  0  0
 12 27  1  0  0  0  0
 13  2  2  0  0  0  0
 13 18  1  0  0  0  0
 14 23  1  0  0  0  0
 15 23  1  0  0  0  0
 16  2  1  0  0  0  0
 17 20  1  0  0  0  0
 17  3  1  0  0  0  0
 18 25  2  0  0  0  0
 19  1  1  0  0  0  0
 19 26  2  0  0  0  0
 20 22  1  0  0  0  0
 22  9  1  0  0  0  0
 22 10  1  0  0  0  0
 25 26  1  0  0  0  0
 26 17  1  0  0  0  0
 27  7  1  0  0  0  0
 27 24  1  0  0  0  0
 28 11  1  0  0  0  0
 30 29  1  0  0  0  0
 30 28  1  0  0  0  0
M  END
>  <MODEL>
1

>  <REMARK>
 VINA RESULT:      -5.8      0.000      0.000
  Name = 
  2 active torsions:
  status: ('A' for Active; 'I' for Inactive)
    1  A    between atoms: C_11  and  C_28
    2  A    between atoms: C_28  and  C_30
                            x       y       z     vdW  Elec       q    Type
                         _______ _______ _______ _____ _____    ______ ____

>  <TORSDO>
F 2

$$$$
=
 OpenBabel11122412353D

 30 35  0  0  1  0  0  0  0  0999 V2000
  160.5080  210.3480  152.8790 C   0  0  2  0  0  3  0  0  0  0  0  0
  161.8590  210.3220  150.7110 C   0  0  0  0  0  0  0  0  0  0  0  0
  158.4230  213.7800  151.3780 N   0  0  0  0  0  2  0  0  0  0  0  0
  159.5500  211.2000  153.7230 C   0  0  2  0  0  3  0  0  0  0  0  0
  161.6730  210.0130  153.7950 C   0  0  0  0  0  2  0  0  0  0  0  0
  159.3590  208.6630  156.3500 O   0  0  0  0  0  0  0  0  0  0  0  0
  158.3130  212.6370  155.8320 C   0  0  1  0  0  3  0  0  0  0  0  0
  159.7890  209.3640  155.4460 C   0  0  0  0  0  0  0  0  0  0  0  0
  157.7800  213.4910  154.6730 C   0  0  2  0  0  3  0  0  0  0  0  0
  157.2990  213.7370  152.2500 C   0  0  0  0  0  0  0  0  0  0  0  0
  161.2250  209.1490  154.9870 C   0  0  2  0  0  3  0  0  0  0  0  0
  158.8380  210.3240  154.7570 C   0  0  1  0  0  3  0  0  0  0  0  0
  162.2070  210.8750  149.4750 C   0  0  0  0  0  3  0  0  0  0  0  0
  156.6730  214.2160  155.1370 O   0  0  0  0  0  0  0  0  0  0  0  0
  157.6940  213.2630  157.0480 C   0  0  0  0  0  2  0  0  0  0  0  0
  162.4160  209.1050  151.0840 O   0  0  0  0  0  1  0  0  0  0  0  0
  159.4100  212.9240  152.0060 C   0  0  1  0  0  3  0  0  0  0  0  0
  161.6460  212.0820  149.0550 C   0  0  0  0  0  3  0  0  0  0  0  0
  160.9500  210.9900  151.5570 C   0  0  0  0  0  0  0  0  0  0  0  0
  158.5970  211.9350  152.8050 C   0  0  2  0  0  3  0  0  0  0  0  0
  156.2790  214.4530  152.0710 O   0  0  0  0  0  0  0  0  0  0  0  0
  157.4350  212.7520  153.3650 C   0  0  1  0  0  3  0  0  0  0  0  0
  156.9340  214.4490  156.4960 C   0  0  0  0  0  2  0  0  0  0  0  0
  156.5290  210.8000  155.6470 C   0  0  0  0  0  1  0  0  0  0  0  0
  160.7200  212.7400  149.8630 C   0  0  0  0  0  3  0  0  0  0  0  0
  160.3420  212.1900  151.0930 C   0  0  0  0  0  0  0  0  0  0  0  0
  158.0110  211.1230  155.7820 C   0  0  2  0  0  3  0  0  0  0  0  0
  162.1880  209.3420  156.1520 C   0  0  0  0  0  2  0  0  0  0  0  0
  161.5650  211.5050  157.2290 C   0  0  0  0  0  1  0  0  0  0  0  0
  162.5630  210.8070  156.3260 C   0  0  0  0  0  2  0  0  0  0  0  0
  1  4  1  0  0  0  0
  1  5  1  1  0  0  0
  2 16  1  0  0  0  0
  2 19  1  0  0  0  0
  3 17  1  0  0  0  0
  3 10  1  0  0  0  0
  4 12  1  0  0  0  0
  5 11  1  0  0  0  0
  7 15  1  0  0  0  0
  8  6  2  0  0  0  0
  9 14  1  0  0  0  0
  9  7  1  0  0  0  0
 10 22  1  0  0  0  0
 11  8  1  0  0  0  0
 11 28  1  0  0  0  0
 12  8  1  0  0  0  0
 12 27  1  0  0  0  0
 13  2  2  0  0  0  0
 14 23  1  0  0  0  0
 17 20  1  0  0  0  0
 18 13  1  0  0  0  0
 18 25  2  0  0  0  0
 19  1  1  0  0  0  0
 20 22  1  0  0  0  0
 20  4  1  0  0  0  0
 21 10  2  0  0  0  0
 22  9  1  0  0  0  0
 23 15  1  0  0  0  0
 24 27  1  0  0  0  0
 25 26  1  0  0  0  0
 26 19  2  0  0  0  0
 26 17  1  0  0  0  0
 27  7  1  0  0  0  0
 28 30  1  0  0  0  0
 30 29  1  0  0  0  0
M  END
>  <MODEL>
2

>  <REMARK>
 VINA RESULT:      -5.4      3.834      7.009
  Name = 
  2 active torsions:
  status: ('A' for Active; 'I' for Inactive)
    1  A    between atoms: C_11  and  C_28
    2  A    between atoms: C_28  and  C_30
                            x       y       z     vdW  Elec       q    Type
                         _______ _______ _______ _____ _____    ______ ____

>  <TORSDO>
F 2

$$$$
=
 OpenBabel11122412353D

 30 35  0  0  1  0  0  0  0  0999 V2000
  161.1480  208.1090  150.7150 C   0  0  2  0  0  3  0  0  0  0  0  0
  161.0180  208.2960  153.2590 C   0  0  0  0  0  0  0  0  0  0  0  0
  161.1600  203.8460  151.1650 N   0  0  0  0  0  2  0  0  0  0  0  0
  161.4220  207.1310  149.5640 C   0  0  2  0  0  3  0  0  0  0  0  0
  162.1280  209.2550  150.5220 C   0  0  0  0  0  2  0  0  0  0  0  0
  160.9790  209.7370  147.0360 O   0  0  0  0  0  0  0  0  0  0  0  0
  162.4480  205.8700  147.2410 C   0  0  1  0  0  3  0  0  0  0  0  0
  161.2660  209.1760  148.0840 C   0  0  0  0  0  0  0  0  0  0  0  0
  162.0810  204.5940  148.0110 C   0  0  2  0  0  3  0  0  0  0  0  0
  160.8010  203.4960  149.8330 C   0  0  0  0  0  0  0  0  0  0  0  0
  161.8630  210.0100  149.2080 C   0  0  2  0  0  3  0  0  0  0  0  0
  160.9050  207.7120  148.2450 C   0  0  1  0  0  3  0  0  0  0  0  0
  161.0100  207.7210  154.5330 C   0  0  0  0  0  3  0  0  0  0  0  0
  162.0070  203.5350  147.0940 O   0  0  0  0  0  0  0  0  0  0  0  0
  162.9800  205.3550  145.9340 C   0  0  0  0  0  2  0  0  0  0  0  0
  160.8200  209.6670  153.1380 O   0  0  0  0  0  1  0  0  0  0  0  0
  161.5780  205.2320  151.0820 C   0  0  1  0  0  3  0  0  0  0  0  0
  161.1760  206.3440  154.6900 C   0  0  0  0  0  3  0  0  0  0  0  0
  161.2140  207.4920  152.1180 C   0  0  0  0  0  0  0  0  0  0  0  0
  160.8200  205.7840  149.9010 C   0  0  2  0  0  3  0  0  0  0  0  0
  160.4830  202.3230  149.5070 O   0  0  0  0  0  0  0  0  0  0  0  0
  160.8100  204.6470  148.8810 C   0  0  1  0  0  3  0  0  0  0  0  0
  162.9430  203.8520  146.0980 C   0  0  0  0  0  2  0  0  0  0  0  0
  160.0930  206.3060  146.3180 C   0  0  0  0  0  1  0  0  0  0  0  0
  161.3380  205.5280  153.5720 C   0  0  0  0  0  3  0  0  0  0  0  0
  161.3260  206.0830  152.2870 C   0  0  0  0  0  0  0  0  0  0  0  0
  161.3170  206.8950  147.0060 C   0  0  2  0  0  3  0  0  0  0  0  0
  163.1440  210.6910  148.7400 C   0  0  0  0  0  2  0  0  0  0  0  0
  161.6100  212.6550  148.8550 C   0  0  0  0  0  1  0  0  0  0  0  0
  162.8710  212.0960  148.2240 C   0  0  0  0  0  2  0  0  0  0  0  0
  1  5  1  1  0  0  0
  1 19  1  0  0  0  0
  2 13  1  0  0  0  0
  4 20  1  0  0  0  0
  4  1  1  0  0  0  0
  6  8  2  0  0  0  0
  7  9  1  0  0  0  0
  8 12  1  0  0  0  0
  8 11  1  0  0  0  0
  9 22  1  0  0  0  0
 10  3  1  0  0  0  0
 11  5  1  0  0  0  0
 12  4  1  0  0  0  0
 13 18  2  0  0  0  0
 14  9  1  0  0  0  0
 15 23  1  0  0  0  0
 15  7  1  0  0  0  0
 16  2  1  0  0  0  0
 17  3  1  0  0  0  0
 17 26  1  0  0  0  0
 19 26  1  0  0  0  0
 19  2  2  0  0  0  0
 20 17  1  0  0  0  0
 21 10  2  0  0  0  0
 22 10  1  0  0  0  0
 22 20  1  0  0  0  0
 23 14  1  0  0  0  0
 24 27  1  0  0  0  0
 25 18  1  0  0  0  0
 26 25  2  0  0  0  0
 27  7  1  0  0  0  0
 27 12  1  0  0  0  0
 28 11  1  0  0  0  0
 30 28  1  0  0  0  0
 30 29  1  0  0  0  0
M  END
>  <MODEL>
3

>  <REMARK>
 VINA RESULT:      -5.3      1.822      5.497
  Name = 
  2 active torsions:
  status: ('A' for Active; 'I' for Inactive)
    1  A    between atoms: C_11  and  C_28
    2  A    between atoms: C_28  and  C_30
                            x       y       z     vdW  Elec       q    Type
                         _______ _______ _______ _____ _____    ______ ____

>  <TORSDO>
F 2

$$$$
=
 OpenBabel11122412353D

 30 35  0  0  1  0  0  0  0  0999 V2000
  161.7900  207.9310  151.5210 C   0  0  2  0  0  3  0  0  0  0  0  0
  162.0740  210.3460  150.7370 C   0  0  0  0  0  0  0  0  0  0  0  0
  161.8070  206.7370  147.4040 N   0  0  0  0  0  2  0  0  0  0  0  0
  161.4470  206.5130  151.0430 C   0  0  2  0  0  3  0  0  0  0  0  0
  160.7990  208.2410  152.6310 C   0  0  0  0  0  2  0  0  0  0  0  0
  161.7350  205.1380  154.4200 O   0  0  0  0  0  0  0  0  0  0  0  0
  160.2830  203.9470  150.7270 C   0  0  1  0  0  3  0  0  0  0  0  0
  161.5120  205.9090  153.4980 C   0  0  0  0  0  0  0  0  0  0  0  0
  160.6960  204.1570  149.2640 C   0  0  2  0  0  3  0  0  0  0  0  0
  162.0860  205.3540  147.5900 C   0  0  0  0  0  0  0  0  0  0  0  0
  160.9840  207.2970  153.8330 C   0  0  2  0  0  3  0  0  0  0  0  0
  161.8820  205.4850  152.0900 C   0  0  1  0  0  3  0  0  0  0  0  0
  162.1600  211.3060  149.7240 C   0  0  0  0  0  3  0  0  0  0  0  0
  160.7150  202.9050  148.6310 O   0  0  0  0  0  0  0  0  0  0  0  0
  159.6730  202.5750  150.7310 C   0  0  0  0  0  2  0  0  0  0  0  0
  162.2630  210.7410  152.0560 O   0  0  0  0  0  1  0  0  0  0  0  0
  161.3840  207.2080  148.7080 C   0  0  1  0  0  3  0  0  0  0  0  0
  162.0040  210.9400  148.3860 C   0  0  0  0  0  3  0  0  0  0  0  0
  161.8090  208.9980  150.4180 C   0  0  0  0  0  0  0  0  0  0  0  0
  162.0690  206.2820  149.6830 C   0  0  2  0  0  3  0  0  0  0  0  0
  162.3840  204.5910  146.6350 O   0  0  0  0  0  0  0  0  0  0  0  0
  162.0180  204.9090  149.0150 C   0  0  1  0  0  3  0  0  0  0  0  0
  159.7210  202.1560  149.2780 C   0  0  0  0  0  2  0  0  0  0  0  0
  162.5770  203.1270  151.5350 C   0  0  0  0  0  1  0  0  0  0  0  0
  161.7750  209.6070  148.0490 C   0  0  0  0  0  3  0  0  0  0  0  0
  161.7090  208.6290  149.0470 C   0  0  0  0  0  0  0  0  0  0  0  0
  161.3970  204.0540  151.7920 C   0  0  2  0  0  3  0  0  0  0  0  0
  159.6760  207.1930  154.6090 C   0  0  0  0  0  2  0  0  0  0  0  0
  160.1090  207.0010  157.0580 C   0  0  0  0  0  1  0  0  0  0  0  0
  159.7520  207.9470  155.9280 C   0  0  0  0  0  2  0  0  0  0  0  0
  1  5  1  1  0  0  0
  2 16  1  0  0  0  0
  3 10  1  0  0  0  0
  3 17  1  0  0  0  0
  4  1  1  0  0  0  0
  4 12  1  0  0  0  0
  5 11  1  0  0  0  0
  7 15  1  0  0  0  0
  7 27  1  0  0  0  0
  8 11  1  0  0  0  0
  8  6  2  0  0  0  0
  9  7  1  0  0  0  0
 10 22  1  0  0  0  0
 11 28  1  0  0  0  0
 12  8  1  0  0  0  0
 13  2  2  0  0  0  0
 14  9  1  0  0  0  0
 14 23  1  0  0  0  0
 17 26  1  0  0  0  0
 17 20  1  0  0  0  0
 18 13  1  0  0  0  0
 19  2  1  0  0  0  0
 19  1  1  0  0  0  0
 20  4  1  0  0  0  0
 21 10  2  0  0  0  0
 22  9  1  0  0  0  0
 22 20  1  0  0  0  0
 23 15  1  0  0  0  0
 24 27  1  0  0  0  0
 25 18  2  0  0  0  0
 25 26  1  0  0  0  0
 26 19  2  0  0  0  0
 27 12  1  0  0  0  0
 28 30  1  0  0  0  0
 30 29  1  0  0  0  0
M  END
>  <MODEL>
4

>  <REMARK>
 VINA RESULT:      -4.7      1.959      6.571
  Name = 
  2 active torsions:
  status: ('A' for Active; 'I' for Inactive)
    1  A    between atoms: C_11  and  C_28
    2  A    between atoms: C_28  and  C_30
                            x       y       z     vdW  Elec       q    Type
                         _______ _______ _______ _____ _____    ______ ____

>  <TORSDO>
F 2

$$$$
=
 OpenBabel11122412353D

 30 35  0  0  1  0  0  0  0  0999 V2000
  161.6870  205.5840  149.9510 C   0  0  2  0  0  3  0  0  0  0  0  0
  161.4310  203.0440  150.0260 C   0  0  0  0  0  0  0  0  0  0  0  0
  160.7750  205.6630  154.1390 N   0  0  0  0  0  2  0  0  0  0  0  0
  161.4210  206.8730  150.7420 C   0  0  2  0  0  3  0  0  0  0  0  0
  160.9930  205.7740  148.6130 C   0  0  0  0  0  2  0  0  0  0  0  0
  162.7710  208.9750  148.0700 O   0  0  0  0  0  0  0  0  0  0  0  0
  160.5670  209.4550  151.5440 C   0  0  1  0  0  3  0  0  0  0  0  0
  162.2120  208.0560  148.6500 C   0  0  0  0  0  0  0  0  0  0  0  0
  160.5470  208.8010  152.9330 C   0  0  2  0  0  3  0  0  0  0  0  0
  161.2740  206.9630  154.4360 C   0  0  0  0  0  0  0  0  0  0  0  0
  161.6120  206.9350  147.8140 C   0  0  2  0  0  3  0  0  0  0  0  0
  162.2510  208.0240  150.1660 C   0  0  1  0  0  3  0  0  0  0  0  0
  161.1180  201.8610  150.7040 C   0  0  0  0  0  3  0  0  0  0  0  0
  160.5640  209.8210  153.8960 O   0  0  0  0  0  0  0  0  0  0  0  0
  160.1680  210.8770  151.8150 C   0  0  0  0  0  2  0  0  0  0  0  0
  161.9070  202.9670  148.7230 O   0  0  0  0  0  1  0  0  0  0  0  0
  160.6530  205.6360  152.6950 C   0  0  1  0  0  3  0  0  0  0  0  0
  160.6640  201.8990  152.0230 C   0  0  0  0  0  3  0  0  0  0  0  0
  161.2730  204.2910  150.6650 C   0  0  0  0  0  0  0  0  0  0  0  0
  161.6870  206.6200  152.2100 C   0  0  2  0  0  3  0  0  0  0  0  0
  161.4070  207.3820  155.6150 O   0  0  0  0  0  0  0  0  0  0  0  0
  161.6440  207.7600  153.2270 C   0  0  1  0  0  3  0  0  0  0  0  0
  159.8850  210.8940  153.3010 C   0  0  0  0  0  2  0  0  0  0  0  0
  163.0810  209.9730  151.5310 C   0  0  0  0  0  1  0  0  0  0  0  0
  160.5330  203.1200  152.6820 C   0  0  0  0  0  3  0  0  0  0  0  0
  160.8640  204.3120  152.0280 C   0  0  0  0  0  0  0  0  0  0  0  0
  161.8980  209.4000  150.7630 C   0  0  2  0  0  3  0  0  0  0  0  0
  160.5810  207.4940  146.8400 C   0  0  0  0  0  2  0  0  0  0  0  0
  161.5510  205.7610  145.3300 C   0  0  0  0  0  1  0  0  0  0  0  0
  160.2910  206.5120  145.7140 C   0  0  0  0  0  2  0  0  0  0  0  0
  1  5  1  6  0  0  0
  1 19  1  0  0  0  0
  1  4  1  0  0  0  0
  2 19  2  0  0  0  0
  2 13  1  0  0  0  0
  3 10  1  0  0  0  0
  4 20  1  0  0  0  0
  6  8  2  0  0  0  0
  7 15  1  0  0  0  0
  7  9  1  0  0  0  0
  8 12  1  0  0  0  0
  9 22  1  0  0  0  0
  9 14  1  0  0  0  0
 10 21  2  0  0  0  0
 11  5  1  0  0  0  0
 11  8  1  0  0  0  0
 12  4  1  0  0  0  0
 12 27  1  0  0  0  0
 13 18  2  0  0  0  0
 15 23  1  0  0  0  0
 16  2  1  0  0  0  0
 17  3  1  0  0  0  0
 18 25  1  0  0  0  0
 19 26  1  0  0  0  0
 20 17  1  0  0  0  0
 20 22  1  0  0  0  0
 22 10  1  0  0  0  0
 23 14  1  0  0  0  0
 26 25  2  0  0  0  0
 26 17  1  0  0  0  0
 27 24  1  0  0  0  0
 27  7  1  0  0  0  0
 28 11  1  0  0  0  0
 29 30  1  0  0  0  0
 30 28  1  0  0  0  0
M  END
>  <MODEL>
5

>  <REMARK>
 VINA RESULT:      -4.5      2.012      3.068
  Name = 
  2 active torsions:
  status: ('A' for Active; 'I' for Inactive)
    1  A    between atoms: C_11  and  C_28
    2  A    between atoms: C_28  and  C_30
                            x       y       z     vdW  Elec       q    Type
                         _______ _______ _______ _____ _____    ______ ____

>  <TORSDO>
F 2

$$$$
=
 OpenBabel11122412353D

 30 35  0  0  1  0  0  0  0  0999 V2000
  161.1540  209.9150  152.3580 C   0  0  2  0  0  3  0  0  0  0  0  0
  161.2780  208.2860  154.3220 C   0  0  0  0  0  0  0  0  0  0  0  0
  158.2620  212.1650  154.5840 N   0  0  0  0  0  2  0  0  0  0  0  0
  160.3380  211.0740  151.7690 C   0  0  2  0  0  3  0  0  0  0  0  0
  161.2060  208.8550  151.2710 C   0  0  0  0  0  2  0  0  0  0  0  0
  162.5150  211.3220  148.8400 O   0  0  0  0  0  0  0  0  0  0  0  0
  158.8210  212.7490  150.0560 C   0  0  1  0  0  3  0  0  0  0  0  0
  161.8850  210.8580  149.7790 C   0  0  0  0  0  0  0  0  0  0  0  0
  158.2050  213.2150  151.3830 C   0  0  2  0  0  3  0  0  0  0  0  0
  158.3440  213.3850  153.8560 C   0  0  0  0  0  0  0  0  0  0  0  0
  161.9610  209.3580  150.0270 C   0  0  2  0  0  3  0  0  0  0  0  0
  161.1610  211.8120  150.7100 C   0  0  1  0  0  3  0  0  0  0  0  0
  160.8480  207.8390  155.5750 C   0  0  0  0  0  3  0  0  0  0  0  0
  157.5840  214.4530  151.1650 O   0  0  0  0  0  0  0  0  0  0  0  0
  158.1320  213.5980  149.0270 C   0  0  0  0  0  2  0  0  0  0  0  0
  162.3490  207.6460  153.7110 O   0  0  0  0  0  1  0  0  0  0  0  0
  158.8870  211.1800  153.7240 C   0  0  1  0  0  3  0  0  0  0  0  0
  159.7930  208.4760  156.2310 C   0  0  0  0  0  3  0  0  0  0  0  0
  160.6360  209.3750  153.6980 C   0  0  0  0  0  0  0  0  0  0  0  0
  159.8650  211.9710  152.8920 C   0  0  2  0  0  3  0  0  0  0  0  0
  157.8030  214.4480  154.2580 O   0  0  0  0  0  0  0  0  0  0  0  0
  159.1480  213.2880  152.6000 C   0  0  1  0  0  3  0  0  0  0  0  0
  157.1430  214.4100  149.8340 C   0  0  0  0  0  2  0  0  0  0  0  0
  160.8920  214.2610  150.1810 C   0  0  0  0  0  1  0  0  0  0  0  0
  159.1680  209.5760  155.6450 C   0  0  0  0  0  3  0  0  0  0  0  0
  159.6000  210.0510  154.4020 C   0  0  0  0  0  0  0  0  0  0  0  0
  160.3550  212.8600  149.9190 C   0  0  2  0  0  3  0  0  0  0  0  0
  161.4880  208.5930  148.7960 C   0  0  0  0  0  2  0  0  0  0  0  0
  160.8830  206.3490  147.8870 C   0  0  0  0  0  1  0  0  0  0  0  0
  161.0870  207.1680  149.1480 C   0  0  0  0  0  2  0  0  0  0  0  0
  1  5  1  6  0  0  0
  1 19  1  0  0  0  0
  2 13  1  0  0  0  0
  4  1  1  0  0  0  0
  4 20  1  0  0  0  0
  6  8  2  0  0  0  0
  7  9  1  0  0  0  0
  8 11  1  0  0  0  0
  8 12  1  0  0  0  0
  9 22  1  0  0  0  0
 10 21  2  0  0  0  0
 10  3  1  0  0  0  0
 11  5  1  0  0  0  0
 12  4  1  0  0  0  0
 13 18  2  0  0  0  0
 14  9  1  0  0  0  0
 15 23  1  0  0  0  0
 15  7  1  0  0  0  0
 16  2  1  0  0  0  0
 17 26  1  0  0  0  0
 17  3  1  0  0  0  0
 19  2  2  0  0  0  0
 19 26  1  0  0  0  0
 20 17  1  0  0  0  0
 22 20  1  0  0  0  0
 22 10  1  0  0  0  0
 23 14  1  0  0  0  0
 25 18  1  0  0  0  0
 26 25  2  0  0  0  0
 27  7  1  0  0  0  0
 27 24  1  0  0  0  0
 27 12  1  0  0  0  0
 28 30  1  0  0  0  0
 28 11  1  0  0  0  0
 29 30  1  0  0  0  0
M  END
>  <MODEL>
6

>  <REMARK>
 VINA RESULT:      -4.3      2.945      6.072
  Name = 
  2 active torsions:
  status: ('A' for Active; 'I' for Inactive)
    1  A    between atoms: C_11  and  C_28
    2  A    between atoms: C_28  and  C_30
                            x       y       z     vdW  Elec       q    Type
                         _______ _______ _______ _____ _____    ______ ____

>  <TORSDO>
F 2

$$$$
=
 OpenBabel11122412353D

 30 35  0  0  1  0  0  0  0  0999 V2000
  161.3100  204.4210  150.9920 C   0  0  2  0  0  3  0  0  0  0  0  0
  161.0900  205.3880  153.3460 C   0  0  0  0  0  0  0  0  0  0  0  0
  161.5220  208.4380  149.5100 N   0  0  0  0  0  2  0  0  0  0  0  0
  161.2560  204.7840  149.5010 C   0  0  2  0  0  3  0  0  0  0  0  0
  160.2900  203.3110  151.1820 C   0  0  0  0  0  2  0  0  0  0  0  0
  161.8550  201.3240  148.4790 O   0  0  0  0  0  0  0  0  0  0  0  0
  160.6330  204.8770  146.7370 C   0  0  1  0  0  3  0  0  0  0  0  0
  161.4700  202.2930  149.1160 C   0  0  0  0  0  0  0  0  0  0  0  0
  160.9780  206.3630  146.9110 C   0  0  2  0  0  3  0  0  0  0  0  0
  162.0770  208.1570  148.2290 C   0  0  0  0  0  0  0  0  0  0  0  0
  160.6750  202.0480  150.3900 C   0  0  2  0  0  3  0  0  0  0  0  0
  161.9030  203.6760  148.6660 C   0  0  1  0  0  3  0  0  0  0  0  0
  160.9680  206.4720  154.2220 C   0  0  0  0  0  3  0  0  0  0  0  0
  161.2430  206.9010  145.6430 O   0  0  0  0  0  0  0  0  0  0  0  0
  160.3140  204.7560  145.2750 C   0  0  0  0  0  2  0  0  0  0  0  0
  161.2100  204.1080  153.8730 O   0  0  0  0  0  1  0  0  0  0  0  0
  161.0270  207.1610  149.9850 C   0  0  1  0  0  3  0  0  0  0  0  0
  160.8740  207.7740  153.7290 C   0  0  0  0  0  3  0  0  0  0  0  0
  161.1000  205.6000  151.9520 C   0  0  0  0  0  0  0  0  0  0  0  0
  161.8970  206.1390  149.2950 C   0  0  2  0  0  3  0  0  0  0  0  0
  162.5130  209.0610  147.4700 O   0  0  0  0  0  0  0  0  0  0  0  0
  162.1170  206.7020  147.8920 C   0  0  1  0  0  3  0  0  0  0  0  0
  160.4290  206.1750  144.7620 C   0  0  0  0  0  2  0  0  0  0  0  0
  163.0550  204.0740  146.4610 C   0  0  0  0  0  1  0  0  0  0  0  0
  160.9160  208.0060  152.3550 C   0  0  0  0  0  3  0  0  0  0  0  0
  161.0610  206.9360  151.4650 C   0  0  0  0  0  0  0  0  0  0  0  0
  161.7140  203.8540  147.1480 C   0  0  2  0  0  3  0  0  0  0  0  0
  159.4250  201.2320  150.0870 C   0  0  0  0  0  2  0  0  0  0  0  0
  157.4270  201.1010  148.5980 C   0  0  0  0  0  1  0  0  0  0  0  0
  158.8680  201.5600  148.7090 C   0  0  0  0  0  2  0  0  0  0  0  0
  1  5  1  6  0  0  0
  1 19  1  0  0  0  0
  2 16  1  0  0  0  0
  2 13  1  0  0  0  0
  3 17  1  0  0  0  0
  4  1  1  0  0  0  0
  6  8  2  0  0  0  0
  7  9  1  0  0  0  0
  7 27  1  0  0  0  0
  8 11  1  0  0  0  0
  9 22  1  0  0  0  0
 10  3  1  0  0  0  0
 11  5  1  0  0  0  0
 12  8  1  0  0  0  0
 12  4  1  0  0  0  0
 14  9  1  0  0  0  0
 15  7  1  0  0  0  0
 17 26  1  0  0  0  0
 18 13  2  0  0  0  0
 19  2  2  0  0  0  0
 20  4  1  0  0  0  0
 20 17  1  0  0  0  0
 21 10  2  0  0  0  0
 22 10  1  0  0  0  0
 22 20  1  0  0  0  0
 23 15  1  0  0  0  0
 23 14  1  0  0  0  0
 24 27  1  0  0  0  0
 25 18  1  0  0  0  0
 26 19  1  0  0  0  0
 26 25  2  0  0  0  0
 27 12  1  0  0  0  0
 28 11  1  0  0  0  0
 29 30  1  0  0  0  0
 30 28  1  0  0  0  0
M  END
>  <MODEL>
7

>  <REMARK>
 VINA RESULT:      -3.7      2.488      7.538
  Name = 
  2 active torsions:
  status: ('A' for Active; 'I' for Inactive)
    1  A    between atoms: C_11  and  C_28
    2  A    between atoms: C_28  and  C_30
                            x       y       z     vdW  Elec       q    Type
                         _______ _______ _______ _____ _____    ______ ____

>  <TORSDO>
F 2

$$$$
=
 OpenBabel11122412353D

 30 35  0  0  1  0  0  0  0  0999 V2000
  160.6710  212.1780  151.9920 C   0  0  2  0  0  3  0  0  0  0  0  0
  160.8460  213.2020  149.6580 C   0  0  0  0  0  0  0  0  0  0  0  0
  162.1200  208.4990  150.3370 N   0  0  0  0  0  2  0  0  0  0  0  0
  160.6910  210.8480  152.7580 C   0  0  2  0  0  3  0  0  0  0  0  0
  159.3540  212.8430  152.3570 C   0  0  0  0  0  2  0  0  0  0  0  0
  160.1120  212.5080  155.9650 O   0  0  0  0  0  0  0  0  0  0  0  0
  160.0460  208.6580  154.4390 C   0  0  1  0  0  3  0  0  0  0  0  0
  160.0790  212.2540  154.7700 C   0  0  0  0  0  0  0  0  0  0  0  0
  160.8570  207.8740  153.3980 C   0  0  2  0  0  3  0  0  0  0  0  0
  162.5150  207.8670  151.5500 C   0  0  0  0  0  0  0  0  0  0  0  0
  159.2880  213.1790  153.8570 C   0  0  2  0  0  3  0  0  0  0  0  0
  160.9200  211.1040  154.2490 C   0  0  1  0  0  3  0  0  0  0  0  0
  161.1070  213.0980  148.2880 C   0  0  0  0  0  3  0  0  0  0  0  0
  161.2420  206.6540  153.9720 O   0  0  0  0  0  0  0  0  0  0  0  0
  159.6600  207.6150  155.4480 C   0  0  0  0  0  2  0  0  0  0  0  0
  160.5640  214.4520  150.1960 O   0  0  0  0  0  1  0  0  0  0  0  0
  161.2550  209.5850  150.7510 C   0  0  1  0  0  3  0  0  0  0  0  0
  161.4220  211.8640  147.7180 C   0  0  0  0  0  3  0  0  0  0  0  0
  160.8810  212.0550  150.4760 C   0  0  0  0  0  0  0  0  0  0  0  0
  161.7270  209.9340  152.1410 C   0  0  2  0  0  3  0  0  0  0  0  0
  163.1950  206.8080  151.5680 O   0  0  0  0  0  0  0  0  0  0  0  0
  162.0740  208.5910  152.7800 C   0  0  1  0  0  3  0  0  0  0  0  0
  160.2100  206.3310  154.8660 C   0  0  0  0  0  2  0  0  0  0  0  0
  162.0710  209.4740  155.7900 C   0  0  0  0  0  1  0  0  0  0  0  0
  161.4940  210.7230  148.5180 C   0  0  0  0  0  3  0  0  0  0  0  0
  161.2600  210.8120  149.8940 C   0  0  0  0  0  0  0  0  0  0  0  0
  160.7520  209.8470  155.1260 C   0  0  2  0  0  3  0  0  0  0  0  0
  157.8320  213.2460  154.3040 C   0  0  0  0  0  2  0  0  0  0  0  0
  156.6290  211.4360  155.5290 C   0  0  0  0  0  1  0  0  0  0  0  0
  157.1500  211.8920  154.1790 C   0  0  0  0  0  2  0  0  0  0  0  0
  1  5  1  6  0  0  0
  1  4  1  0  0  0  0
  2 16  1  0  0  0  0
  2 19  1  0  0  0  0
  3 17  1  0  0  0  0
  3 10  1  0  0  0  0
  4 12  1  0  0  0  0
  5 11  1  0  0  0  0
  7 27  1  0  0  0  0
  7 15  1  0  0  0  0
  8  6  2  0  0  0  0
  9 14  1  0  0  0  0
  9  7  1  0  0  0  0
 10 21  2  0  0  0  0
 10 22  1  0  0  0  0
 11 28  1  0  0  0  0
 11  8  1  0  0  0  0
 12  8  1  0  0  0  0
 12 27  1  0  0  0  0
 13  2  2  0  0  0  0
 14 23  1  0  0  0  0
 17 20  1  0  0  0  0
 18 13  1  0  0  0  0
 18 25  2  0  0  0  0
 19  1  1  0  0  0  0
 20  4  1  0  0  0  0
 20 22  1  0  0  0  0
 22  9  1  0  0  0  0
 23 15  1  0  0  0  0
 25 26  1  0  0  0  0
 26 19  2  0  0  0  0
 26 17  1  0  0  0  0
 27 24  1  0  0  0  0
 30 28  1  0  0  0  0
 30 29  1  0  0  0  0
M  END
>  <MODEL>
8

>  <REMARK>
 VINA RESULT:      -3.5      2.702      5.621
  Name = 
  2 active torsions:
  status: ('A' for Active; 'I' for Inactive)
    1  A    between atoms: C_11  and  C_28
    2  A    between atoms: C_28  and  C_30
                            x       y       z     vdW  Elec       q    Type
                         _______ _______ _______ _____ _____    ______ ____

>  <TORSDO>
F 2

$$$$
=
 OpenBabel11122412353D

 30 35  0  0  1  0  0  0  0  0999 V2000
  161.1690  207.4540  150.9980 C   0  0  2  0  0  3  0  0  0  0  0  0
  161.5810  208.3870  148.6560 C   0  0  0  0  0  0  0  0  0  0  0  0
  161.2940  211.4770  152.4730 N   0  0  0  0  0  2  0  0  0  0  0  0
  161.1970  207.8140  152.4900 C   0  0  2  0  0  3  0  0  0  0  0  0
  162.0820  206.2480  150.8500 C   0  0  0  0  0  2  0  0  0  0  0  0
  160.2170  204.4340  153.4840 O   0  0  0  0  0  0  0  0  0  0  0  0
  161.7120  207.8550  155.2780 C   0  0  1  0  0  3  0  0  0  0  0  0
  160.7220  205.3580  152.8640 C   0  0  0  0  0  0  0  0  0  0  0  0
  161.5220  209.3670  155.0910 C   0  0  2  0  0  3  0  0  0  0  0  0
  160.6610  211.2570  153.7300 C   0  0  0  0  0  0  0  0  0  0  0  0
  161.5410  205.0320  151.6230 C   0  0  2  0  0  3  0  0  0  0  0  0
  160.4100  206.7780  153.2960 C   0  0  1  0  0  3  0  0  0  0  0  0
  161.8460  209.4500  147.7870 C   0  0  0  0  0  3  0  0  0  0  0  0
  161.2590  209.9330  156.3470 O   0  0  0  0  0  0  0  0  0  0  0  0
  161.9560  207.7080  156.7520 C   0  0  0  0  0  2  0  0  0  0  0  0
  161.3570  207.1230  148.1240 O   0  0  0  0  0  1  0  0  0  0  0  0
  161.6790  210.1560  152.0180 C   0  0  1  0  0  3  0  0  0  0  0  0
  162.0470  210.7380  148.2840 C   0  0  0  0  0  3  0  0  0  0  0  0
  161.5340  208.6030  150.0480 C   0  0  0  0  0  0  0  0  0  0  0  0
  160.6850  209.2270  152.6700 C   0  0  2  0  0  3  0  0  0  0  0  0
  160.2860  212.2020  154.4710 O   0  0  0  0  0  0  0  0  0  0  0  0
  160.4640  209.8140  154.0630 C   0  0  1  0  0  3  0  0  0  0  0  0
  161.9610  209.1320  157.2610 C   0  0  0  0  0  2  0  0  0  0  0  0
  159.2120  207.2950  155.4520 C   0  0  0  0  0  1  0  0  0  0  0  0
  161.9720  210.9780  149.6550 C   0  0  0  0  0  3  0  0  0  0  0  0
  161.6850  209.9310  150.5380 C   0  0  0  0  0  0  0  0  0  0  0  0
  160.5530  206.9430  154.8210 C   0  0  2  0  0  3  0  0  0  0  0  0
  162.6910  204.0970  151.9780 C   0  0  0  0  0  2  0  0  0  0  0  0
  161.2050  202.5880  150.6590 C   0  0  0  0  0  1  0  0  0  0  0  0
  162.3530  202.6510  151.6480 C   0  0  0  0  0  2  0  0  0  0  0  0
  1  5  1  1  0  0  0
  1  4  1  0  0  0  0
  2 19  1  0  0  0  0
  3 10  1  0  0  0  0
  4 20  1  0  0  0  0
  4 12  1  0  0  0  0
  5 11  1  0  0  0  0
  7 15  1  0  0  0  0
  8 12  1  0  0  0  0
  8  6  2  0  0  0  0
  9  7  1  0  0  0  0
  9 14  1  0  0  0  0
 10 22  1  0  0  0  0
 10 21  2  0  0  0  0
 11 28  1  0  0  0  0
 11  8  1  0  0  0  0
 12 27  1  0  0  0  0
 13 18  1  0  0  0  0
 13  2  2  0  0  0  0
 14 23  1  0  0  0  0
 15 23  1  0  0  0  0
 16  2  1  0  0  0  0
 17  3  1  0  0  0  0
 17 20  1  0  0  0  0
 18 25  2  0  0  0  0
 19 26  2  0  0  0  0
 19  1  1  0  0  0  0
 20 22  1  0  0  0  0
 22  9  1  0  0  0  0
 25 26  1  0  0  0  0
 26 17  1  0  0  0  0
 27  7  1  0  0  0  0
 27 24  1  0  0  0  0
 29 30  1  0  0  0  0
 30 28  1  0  0  0  0
M  END
>  <MODEL>
9

>  <REMARK>
 VINA RESULT:      -3.1      2.210      5.535
  Name = 
  2 active torsions:
  status: ('A' for Active; 'I' for Inactive)
    1  A    between atoms: C_11  and  C_28
    2  A    between atoms: C_28  and  C_30
                            x       y       z     vdW  Elec       q    Type
                         _______ _______ _______ _____ _____    ______ ____

>  <TORSDO>
F 2

$$$$
