=
 OpenBabel11122412593D

 32 38  0  0  1  0  0  0  0  0999 V2000
  160.2540  208.3930  156.4930 C   0  0  1  0  0  3  0  0  0  0  0  0
  161.3070  207.2670  151.4490 C   0  0  0  0  0  0  0  0  0  0  0  0
  161.7410  211.7050  149.5120 C   0  0  0  0  0  3  0  0  0  0  0  0
  161.9410  211.1230  148.1730 C   0  0  0  0  0  3  0  0  0  0  0  0
  161.3340  205.2220  149.9970 C   0  0  0  0  0  0  0  0  0  0  0  0
  161.3640  204.7260  148.6260 C   0  0  0  0  0  0  0  0  0  0  0  0
  161.1840  207.0600  153.9550 C   0  0  1  0  0  3  0  0  0  0  0  0
  161.5920  209.2800  152.9630 C   0  0  0  0  0  2  0  0  0  0  0  0
  161.4450  204.7810  146.4460 N   0  0  0  0  0  0  0  0  0  0  0  0
  160.8280  209.2240  155.3460 C   0  0  2  0  0  3  0  0  0  0  0  0
  161.7800  210.9410  150.6070 C   0  0  0  0  0  3  0  0  0  0  0  0
  161.5050  208.6970  151.6160 N   0  0  0  0  0  0  0  0  0  0  0  0
  162.1340  209.4710  150.5390 C   0  0  1  0  0  3  0  0  0  0  0  0
  161.6310  207.5780  149.0130 C   0  0  0  0  0  0  0  0  0  0  0  0
  161.3790  203.5050  146.8800 C   0  0  0  0  0  3  0  0  0  0  0  0
  159.7040  207.0200  156.0520 C   0  0  0  0  0  2  0  0  0  0  0  0
  160.7470  208.5260  153.9720 C   0  0  2  0  0  3  0  0  0  0  0  0
  161.3300  203.4370  148.2350 N   0  0  0  0  0  0  0  0  0  0  0  0
  160.5970  206.2220  155.0940 C   0  0  0  0  0  2  0  0  0  0  0  0
  161.7620  208.5430  156.3400 C   0  0  1  0  0  3  0  0  0  0  0  0
  161.9870  209.8000  148.0040 C   0  0  0  0  0  3  0  0  0  0  0  0
  161.8690  208.8910  149.1690 C   0  0  0  0  0  0  0  0  0  0  0  0
  161.4270  207.0380  147.6050 C   0  0  0  0  0  2  0  0  0  0  0  0
  160.8070  206.4510  152.6180 C   0  0  0  0  0  2  0  0  0  0  0  0
  161.2780  204.3950  150.9470 O   0  0  0  0  0  0  0  0  0  0  0  0
  161.4880  205.2200  145.0620 C   0  0  0  0  0  1  0  0  0  0  0  0
  161.4260  206.7010  150.2190 C   0  0  0  0  0  0  0  0  0  0  0  0
  161.4440  205.5460  147.5450 C   0  0  0  0  0  0  0  0  0  0  0  0
  162.2280  209.4880  157.2560 O   0  0  0  0  0  0  0  0  0  0  0  0
  162.3200  210.6770  156.5290 C   0  0  0  0  0  3  0  0  0  0  0  0
  163.7760  211.0680  156.3810 C   0  0  0  0  0  1  0  0  0  0  0  0
  161.5780  211.7770  157.2600 C   0  0  0  0  0  1  0  0  0  0  0  0
  1 16  1  6  0  0  0
  2 12  1  0  0  0  0
  2 24  1  0  0  0  0
  3 11  2  0  0  0  0
  4  3  1  0  0  0  0
  5 27  1  0  0  0  0
  5 25  2  0  0  0  0
  6  5  1  0  0  0  0
  7 24  1  6  0  0  0
  7 17  1  0  0  0  0
  7 19  1  0  0  0  0
  8 17  1  0  0  0  0
  9 15  1  0  0  0  0
  9 28  1  0  0  0  0
 10 20  1  0  0  0  0
 10  1  1  0  0  0  0
 12  8  1  0  0  0  0
 13 11  1  0  0  0  0
 13 12  1  0  0  0  0
 14 22  2  0  0  0  0
 14 27  1  0  0  0  0
 15 18  2  0  0  0  0
 17 10  1  0  0  0  0
 18  6  1  0  0  0  0
 19 16  1  0  0  0  0
 20  1  1  0  0  0  0
 20 29  1  0  0  0  0
 21  4  2  0  0  0  0
 21 22  1  0  0  0  0
 22 13  1  0  0  0  0
 23 14  1  0  0  0  0
 26  9  1  0  0  0  0
 27  2  2  0  0  0  0
 28 23  1  0  0  0  0
 28  6  2  0  0  0  0
 30 29  1  0  0  0  0
 30 32  1  0  0  0  0
 31 30  1  0  0  0  0
M  END
>  <MODEL>
1

>  <REMARK>
 VINA RESULT:      -8.8      0.000      0.000
  Name = 
  2 active torsions:
  status: ('A' for Active; 'I' for Inactive)
    1  A    between atoms: C_20  and  O_29
    2  A    between atoms: O_29  and  C_30
                            x       y       z     vdW  Elec       q    Type
                         _______ _______ _______ _____ _____    ______ ____

>  <TORSDO>
F 2

$$$$
=
 OpenBabel11122412593D

 32 38  0  0  1  0  0  0  0  0999 V2000
  161.4350  201.6630  149.3490 C   0  0  1  0  0  3  0  0  0  0  0  0
  161.0950  206.2170  151.9890 C   0  0  0  0  0  0  0  0  0  0  0  0
  162.2130  209.4520  148.5360 C   0  0  0  0  0  3  0  0  0  0  0  0
  162.1240  210.5530  149.5110 C   0  0  0  0  0  3  0  0  0  0  0  0
  160.8070  206.9320  154.3760 C   0  0  0  0  0  0  0  0  0  0  0  0
  160.9080  208.0430  155.3140 C   0  0  0  0  0  0  0  0  0  0  0  0
  160.6840  203.8290  151.3070 C   0  0  1  0  0  3  0  0  0  0  0  0
  161.0680  205.5190  149.5530 C   0  0  0  0  0  2  0  0  0  0  0  0
  161.2580  210.0760  156.0280 N   0  0  0  0  0  0  0  0  0  0  0  0
  161.3260  203.1180  148.8930 C   0  0  2  0  0  3  0  0  0  0  0  0
  161.7690  208.2280  148.8370 C   0  0  0  0  0  3  0  0  0  0  0  0
  161.2510  206.5510  150.5840 N   0  0  0  0  0  0  0  0  0  0  0  0
  161.0620  207.9390  150.1440 C   0  0  1  0  0  3  0  0  0  0  0  0
  161.3300  208.6260  152.5150 C   0  0  0  0  0  0  0  0  0  0  0  0
  160.9030  209.2740  157.0540 C   0  0  0  0  0  3  0  0  0  0  0  0
  161.6790  201.5030  150.8640 C   0  0  0  0  0  2  0  0  0  0  0  0
  161.4790  204.1410  150.0370 C   0  0  2  0  0  3  0  0  0  0  0  0
  160.6760  208.0010  156.6420 N   0  0  0  0  0  0  0  0  0  0  0  0
  160.8050  202.3770  151.7740 C   0  0  0  0  0  2  0  0  0  0  0  0
  160.0750  202.2510  148.9910 C   0  0  1  0  0  3  0  0  0  0  0  0
  161.7650  210.3180  150.7750 C   0  0  0  0  0  3  0  0  0  0  0  0
  161.4190  208.9460  151.2130 C   0  0  0  0  0  0  0  0  0  0  0  0
  161.6470  209.6960  153.5490 C   0  0  0  0  0  2  0  0  0  0  0  0
  161.1340  204.7660  152.4100 C   0  0  0  0  0  2  0  0  0  0  0  0
  160.4650  205.7960  154.8050 O   0  0  0  0  0  0  0  0  0  0  0  0
  161.5930  211.4870  156.1120 C   0  0  0  0  0  1  0  0  0  0  0  0
  161.0660  207.2020  152.9250 C   0  0  0  0  0  0  0  0  0  0  0  0
  161.2510  209.3020  154.9350 C   0  0  0  0  0  0  0  0  0  0  0  0
  159.7090  201.8240  147.7130 O   0  0  0  0  0  0  0  0  0  0  0  0
  160.9160  201.6810  147.0240 C   0  0  0  0  0  3  0  0  0  0  0  0
  160.8300  202.4090  145.6980 C   0  0  0  0  0  1  0  0  0  0  0  0
  161.1830  200.2110  146.7710 C   0  0  0  0  0  1  0  0  0  0  0  0
  1 16  1  1  0  0  0
  2 24  1  0  0  0  0
  2 27  2  0  0  0  0
  3 11  2  0  0  0  0
  3  4  1  0  0  0  0
  4 21  2  0  0  0  0
  5 25  2  0  0  0  0
  5  6  1  0  0  0  0
  6 18  1  0  0  0  0
  7 19  1  1  0  0  0
  7 24  1  0  0  0  0
  8 17  1  0  0  0  0
  8 12  1  0  0  0  0
  9 26  1  0  0  0  0
  9 15  1  0  0  0  0
 10 20  1  0  0  0  0
 10  1  1  0  0  0  0
 10 17  1  0  0  0  0
 11 13  1  0  0  0  0
 12  2  1  0  0  0  0
 13 12  1  0  0  0  0
 13 22  1  0  0  0  0
 14 27  1  0  0  0  0
 14 23  1  0  0  0  0
 16 19  1  0  0  0  0
 17  7  1  0  0  0  0
 18 15  2  0  0  0  0
 20  1  1  0  0  0  0
 21 22  1  0  0  0  0
 22 14  2  0  0  0  0
 23 28  1  0  0  0  0
 27  5  1  0  0  0  0
 28  6  2  0  0  0  0
 28  9  1  0  0  0  0
 29 20  1  0  0  0  0
 30 29  1  0  0  0  0
 31 30  1  0  0  0  0
 32 30  1  0  0  0  0
M  END
>  <MODEL>
2

>  <REMARK>
 VINA RESULT:      -8.6      2.344      7.894
  Name = 
  2 active torsions:
  status: ('A' for Active; 'I' for Inactive)
    1  A    between atoms: C_20  and  O_29
    2  A    between atoms: O_29  and  C_30
                            x       y       z     vdW  Elec       q    Type
                         _______ _______ _______ _____ _____    ______ ____

>  <TORSDO>
F 2

$$$$
=
 OpenBabel11122412593D

 32 38  0  0  1  0  0  0  0  0999 V2000
  161.8310  209.7350  154.5590 C   0  0  1  0  0  3  0  0  0  0  0  0
  161.1140  206.6260  150.3580 C   0  0  0  0  0  0  0  0  0  0  0  0
  161.0980  202.2080  152.3860 C   0  0  0  0  0  3  0  0  0  0  0  0
  160.9710  201.5780  151.0600 C   0  0  0  0  0  3  0  0  0  0  0  0
  161.0800  206.8980  147.8650 C   0  0  0  0  0  0  0  0  0  0  0  0
  161.1290  206.2030  146.5840 C   0  0  0  0  0  0  0  0  0  0  0  0
  161.0270  208.6390  151.8690 C   0  0  1  0  0  3  0  0  0  0  0  0
  160.8310  206.3920  152.8660 C   0  0  0  0  0  2  0  0  0  0  0  0
  161.2240  204.5380  145.1760 N   0  0  0  0  0  0  0  0  0  0  0  0
  161.3990  208.2770  154.4130 C   0  0  2  0  0  3  0  0  0  0  0  0
  160.9280  203.5230  152.5420 C   0  0  0  0  0  3  0  0  0  0  0  0
  160.9890  205.7850  151.5360 N   0  0  0  0  0  0  0  0  0  0  0  0
  160.4940  204.4110  151.3950 C   0  0  1  0  0  3  0  0  0  0  0  0
  161.0030  204.5780  148.9700 C   0  0  0  0  0  0  0  0  0  0  0  0
  161.1790  205.7120  144.5110 C   0  0  0  0  0  3  0  0  0  0  0  0
  162.3320  210.3700  153.2440 C   0  0  0  0  0  2  0  0  0  0  0  0
  161.5470  207.7250  152.9800 C   0  0  2  0  0  3  0  0  0  0  0  0
  161.1170  206.7690  145.3600 N   0  0  0  0  0  0  0  0  0  0  0  0
  161.4710  210.0970  152.0040 C   0  0  0  0  0  2  0  0  0  0  0  0
  160.3510  209.3740  154.5570 C   0  0  1  0  0  3  0  0  0  0  0  0
  160.8590  202.3230  149.9580 C   0  0  0  0  0  3  0  0  0  0  0  0
  160.8310  203.8020  150.0530 C   0  0  0  0  0  0  0  0  0  0  0  0
  161.2840  203.9080  147.6330 C   0  0  0  0  0  2  0  0  0  0  0  0
  161.4710  208.0850  150.5290 C   0  0  0  0  0  2  0  0  0  0  0  0
  161.0120  208.1570  147.8780 O   0  0  0  0  0  0  0  0  0  0  0  0
  161.3160  203.2150  144.5840 C   0  0  0  0  0  1  0  0  0  0  0  0
  161.0590  206.0750  149.1180 C   0  0  0  0  0  0  0  0  0  0  0  0
  161.1830  204.8500  146.4770 C   0  0  0  0  0  0  0  0  0  0  0  0
  159.8710  209.3830  155.8680 O   0  0  0  0  0  0  0  0  0  0  0  0
  158.9550  210.4360  155.9070 C   0  0  0  0  0  3  0  0  0  0  0  0
  158.7850  211.0100  154.5150 C   0  0  0  0  0  1  0  0  0  0  0  0
  159.4670  211.5200  156.8350 C   0  0  0  0  0  1  0  0  0  0  0  0
  1 16  1  6  0  0  0
  2 24  1  0  0  0  0
  2 12  1  0  0  0  0
  3 11  2  0  0  0  0
  4  3  1  0  0  0  0
  5 25  2  0  0  0  0
  5 27  1  0  0  0  0
  6  5  1  0  0  0  0
  7 24  1  6  0  0  0
  7 19  1  0  0  0  0
  7 17  1  0  0  0  0
  8 17  1  0  0  0  0
  9 28  1  0  0  0  0
 10 20  1  0  0  0  0
 10  1  1  0  0  0  0
 12  8  1  0  0  0  0
 13 12  1  0  0  0  0
 13 11  1  0  0  0  0
 14 27  1  0  0  0  0
 14 22  2  0  0  0  0
 15  9  1  0  0  0  0
 15 18  2  0  0  0  0
 17 10  1  0  0  0  0
 18  6  1  0  0  0  0
 19 16  1  0  0  0  0
 20  1  1  0  0  0  0
 20 29  1  0  0  0  0
 21 22  1  0  0  0  0
 21  4  2  0  0  0  0
 22 13  1  0  0  0  0
 23 14  1  0  0  0  0
 26  9  1  0  0  0  0
 27  2  2  0  0  0  0
 28  6  2  0  0  0  0
 28 23  1  0  0  0  0
 29 30  1  0  0  0  0
 30 32  1  0  0  0  0
 31 30  1  0  0  0  0
M  END
>  <MODEL>
3

>  <REMARK>
 VINA RESULT:      -7.3      2.135      4.431
  Name = 
  2 active torsions:
  status: ('A' for Active; 'I' for Inactive)
    1  A    between atoms: C_20  and  O_29
    2  A    between atoms: O_29  and  C_30
                            x       y       z     vdW  Elec       q    Type
                         _______ _______ _______ _____ _____    ______ ____

>  <TORSDO>
F 2

$$$$
=
 OpenBabel11122412593D

 32 38  0  0  1  0  0  0  0  0999 V2000
  162.4210  213.2880  148.6440 C   0  0  1  0  0  3  0  0  0  0  0  0
  161.3920  208.2400  149.7800 C   0  0  0  0  0  0  0  0  0  0  0  0
  161.2510  208.3260  154.6390 C   0  0  0  0  0  3  0  0  0  0  0  0
  161.0410  206.8680  154.6780 C   0  0  0  0  0  3  0  0  0  0  0  0
  161.2710  206.0710  148.5270 C   0  0  0  0  0  0  0  0  0  0  0  0
  161.2360  204.6180  148.6490 C   0  0  0  0  0  0  0  0  0  0  0  0
  161.4600  210.4330  148.5440 C   0  0  1  0  0  3  0  0  0  0  0  0
  161.1990  210.4560  150.9960 C   0  0  0  0  0  2  0  0  0  0  0  0
  161.1970  202.6580  149.6090 N   0  0  0  0  0  0  0  0  0  0  0  0
  161.9170  212.5940  149.9090 C   0  0  2  0  0  3  0  0  0  0  0  0
  161.1490  209.0050  153.4930 C   0  0  0  0  0  3  0  0  0  0  0  0
  161.2750  208.9880  151.0200 N   0  0  0  0  0  0  0  0  0  0  0  0
  160.7110  208.3360  152.2080 C   0  0  1  0  0  3  0  0  0  0  0  0
  161.1300  206.1560  151.0930 C   0  0  0  0  0  0  0  0  0  0  0  0
  161.1800  202.5230  148.2660 C   0  0  0  0  0  3  0  0  0  0  0  0
  162.8980  212.3120  147.5480 C   0  0  0  0  0  2  0  0  0  0  0  0
  161.9810  211.0540  149.8410 C   0  0  2  0  0  3  0  0  0  0  0  0
  161.2020  203.7260  147.6380 N   0  0  0  0  0  0  0  0  0  0  0  0
  161.9770  211.1160  147.2760 C   0  0  0  0  0  2  0  0  0  0  0  0
  160.9270  213.2240  148.9350 C   0  0  1  0  0  3  0  0  0  0  0  0
  160.9210  206.1650  153.5500 C   0  0  0  0  0  3  0  0  0  0  0  0
  160.9650  206.8460  152.2340 C   0  0  0  0  0  0  0  0  0  0  0  0
  161.3260  204.6500  151.1750 C   0  0  0  0  0  2  0  0  0  0  0  0
  161.8240  208.9610  148.5240 C   0  0  0  0  0  2  0  0  0  0  0  0
  161.2630  206.5910  147.3790 O   0  0  0  0  0  0  0  0  0  0  0  0
  161.2030  201.5820  150.5840 C   0  0  0  0  0  1  0  0  0  0  0  0
  161.2610  206.8880  149.7840 C   0  0  0  0  0  0  0  0  0  0  0  0
  161.2230  203.9760  149.8460 C   0  0  0  0  0  0  0  0  0  0  0  0
  160.5010  214.4530  149.4410 O   0  0  0  0  0  0  0  0  0  0  0  0
  159.1140  214.4430  149.2850 C   0  0  0  0  0  3  0  0  0  0  0  0
  158.4770  213.7520  150.4730 C   0  0  0  0  0  1  0  0  0  0  0  0
  158.7510  213.6960  148.0180 C   0  0  0  0  0  1  0  0  0  0  0  0
  1 16  1  6  0  0  0
  1 20  1  0  0  0  0
  1 10  1  0  0  0  0
  2 27  2  0  0  0  0
  2 12  1  0  0  0  0
  3  4  1  0  0  0  0
  5  6  1  0  0  0  0
  5 27  1  0  0  0  0
  6 28  2  0  0  0  0
  7 19  1  6  0  0  0
  7 17  1  0  0  0  0
  8 12  1  0  0  0  0
  9 28  1  0  0  0  0
  9 26  1  0  0  0  0
 11  3  2  0  0  0  0
 12 13  1  0  0  0  0
 13 22  1  0  0  0  0
 13 11  1  0  0  0  0
 14 23  1  0  0  0  0
 14 22  2  0  0  0  0
 15  9  1  0  0  0  0
 17 10  1  0  0  0  0
 17  8  1  0  0  0  0
 18 15  2  0  0  0  0
 18  6  1  0  0  0  0
 19 16  1  0  0  0  0
 20 29  1  0  0  0  0
 20 10  1  0  0  0  0
 21  4  2  0  0  0  0
 22 21  1  0  0  0  0
 24  7  1  0  0  0  0
 24  2  1  0  0  0  0
 25  5  2  0  0  0  0
 27 14  1  0  0  0  0
 28 23  1  0  0  0  0
 30 29  1  0  0  0  0
 30 31  1  0  0  0  0
 32 30  1  0  0  0  0
M  END
>  <MODEL>
4

>  <REMARK>
 VINA RESULT:      -6.9      2.498      5.948
  Name = 
  2 active torsions:
  status: ('A' for Active; 'I' for Inactive)
    1  A    between atoms: C_20  and  O_29
    2  A    between atoms: O_29  and  C_30
                            x       y       z     vdW  Elec       q    Type
                         _______ _______ _______ _____ _____    ______ ____

>  <TORSDO>
F 2

$$$$
