=
 OpenBabel11122413493D

 37 42  0  0  1  0  0  0  0  0999 V2000
  161.3840  206.0220  149.2510 C   0  0  0  0  0  0  0  0  0  0  0  0
  161.3640  207.3950  153.1650 C   0  0  0  0  0  0  0  0  0  0  0  0
  159.8450  210.3300  153.8260 C   0  0  0  0  0  2  0  0  0  0  0  0
  161.3140  205.4520  151.7350 C   0  0  0  0  0  0  0  0  0  0  0  0
  161.6160  208.7430  152.9590 C   0  0  0  0  0  0  0  0  0  0  0  0
  159.5100  212.5000  150.8580 C   0  0  0  0  0  0  0  0  0  0  0  0
  161.5520  206.7880  151.9680 C   0  0  0  0  0  0  0  0  0  0  0  0
  161.2910  209.8450  153.9380 C   0  0  2  0  0  3  0  0  0  0  0  0
  160.8950  204.6720  152.8300 C   0  0  0  0  0  3  0  0  0  0  0  0
  160.2660  213.4480  150.0970 N   0  0  0  0  0  2  0  0  0  0  0  0
  161.8640  207.7250  151.0450 C   0  0  0  0  0  0  0  0  0  0  0  0
  159.9050  206.2720  149.0140 C   0  0  0  0  0  1  0  0  0  0  0  0
  160.7100  207.3270  155.5960 C   0  0  0  0  0  2  0  0  0  0  0  0
  160.7030  205.2830  154.0980 C   0  0  0  0  0  3  0  0  0  0  0  0
  162.0790  207.3680  149.6020 C   0  0  0  0  0  2  0  0  0  0  0  0
  160.1840  211.5140  151.6520 N   0  0  0  0  0  0  0  0  0  0  0  0
  159.3930  210.5100  152.3710 C   0  0  0  0  0  2  0  0  0  0  0  0
  160.9340  206.6670  154.2750 C   0  0  0  0  0  0  0  0  0  0  0  0
  161.8920  208.9460  151.6310 N   0  0  0  0  0  0  0  0  0  0  0  0
  161.5470  204.9240  150.3440 C   0  0  0  0  0  2  0  0  0  0  0  0
  161.7230  209.6560  155.4050 C   0  0  1  0  0  3  0  0  0  0  0  0
  161.9820  205.5020  147.9620 C   0  0  0  0  0  1  0  0  0  0  0  0
  161.6470  211.4520  151.6230 C   0  0  0  0  0  2  0  0  0  0  0  0
  158.2490  212.5380  150.8340 O   0  0  0  0  0  0  0  0  0  0  0  0
  162.1590  210.1980  150.9110 C   0  0  0  0  0  2  0  0  0  0  0  0
  161.8940  208.2240  155.9300 C   0  0  0  0  0  2  0  0  0  0  0  0
  163.1100  211.0230  156.9720 C   0  0  0  0  0  3  0  0  0  0  0  0
  162.9420  210.4710  155.6980 C   0  0  0  0  0  0  0  0  0  0  0  0
  163.9120  210.6990  154.7090 C   0  0  0  0  0  3  0  0  0  0  0  0
  165.9750  211.6880  154.0430 F   0  0  0  0  0  0  0  0  0  0  0  0
  165.2040  212.0180  156.2740 C   0  0  0  0  0  3  0  0  0  0  0  0
  165.0400  211.4710  154.9980 C   0  0  0  0  0  0  0  0  0  0  0  0
  164.2390  211.7940  157.2610 C   0  0  0  0  0  3  0  0  0  0  0  0
  158.1420  214.2280  149.1610 C   0  0  0  0  0  1  0  0  0  0  0  0
  159.6450  214.4530  149.2450 C   0  0  2  0  0  3  0  0  0  0  0  0
  161.3810  213.4050  147.7290 C   0  0  0  0  0  1  0  0  0  0  0  0
  160.2780  214.4460  147.8570 C   0  0  0  0  0  2  0  0  0  0  0  0
  1 15  1  0  0  0  0
  1 20  1  0  0  0  0
  2 18  1  0  0  0  0
  4  7  1  0  0  0  0
  4  9  2  0  0  0  0
  5  2  2  0  0  0  0
  5  8  1  0  0  0  0
  6 16  1  0  0  0  0
  7  2  1  0  0  0  0
  8  3  1  1  0  0  0
  8 21  1  0  0  0  0
  9 14  1  0  0  0  0
 10  6  1  0  0  0  0
 11 19  1  0  0  0  0
 11  7  2  0  0  0  0
 12  1  1  0  0  0  0
 13 26  1  0  0  0  0
 14 18  2  0  0  0  0
 15 11  1  0  0  0  0
 16 17  1  0  0  0  0
 17  3  1  0  0  0  0
 18 13  1  0  0  0  0
 19  5  1  0  0  0  0
 20  4  1  0  0  0  0
 21 28  1  6  0  0  0
 21 26  1  0  0  0  0
 22  1  1  0  0  0  0
 23 16  1  0  0  0  0
 24  6  2  0  0  0  0
 25 23  1  0  0  0  0
 25 19  1  0  0  0  0
 27 33  1  0  0  0  0
 28 27  2  0  0  0  0
 29 32  2  0  0  0  0
 29 28  1  0  0  0  0
 30 32  1  0  0  0  0
 31 33  2  0  0  0  0
 32 31  1  0  0  0  0
 35 34  1  6  0  0  0
 35 10  1  0  0  0  0
 36 37  1  0  0  0  0
 37 35  1  0  0  0  0
M  END
>  <MODEL>
1

>  <REMARK>
 VINA RESULT:      -3.4      0.000      0.000
  Name = 
  3 active torsions:
  status: ('A' for Active; 'I' for Inactive)
    1  A    between atoms: C_4  and  N_12
    2  A    between atoms: C_4  and  C_37
    3  A    between atoms: C_23  and  C_30
                            x       y       z     vdW  Elec       q    Type
                         _______ _______ _______ _____ _____    ______ ____

>  <TORSDO>
F 3

$$$$
