=
 OpenBabel11122414143D

 28 32  0  0  1  0  0  0  0  0999 V2000
  162.8260  211.8630  139.3420 C   0  0  0  0  0  0  0  0  0  0  0  0
  161.0190  211.8430  142.2190 O   0  0  0  0  0  1  0  0  0  0  0  0
  157.0690  212.7650  137.2480 O   0  0  0  0  0  0  0  0  0  0  0  0
  164.3090  214.2130  138.9340 C   0  0  0  0  0  3  0  0  0  0  0  0
  157.3930  212.9080  139.5790 N   0  0  0  0  0  0  0  0  0  0  0  0
  161.9850  210.2850  139.5280 S   0  0  0  0  0  0  0  0  0  0  0  0
  162.5680  213.6190  142.4730 C   0  0  0  0  0  1  0  0  0  0  0  0
  161.1060  213.2290  142.3740 C   0  0  1  0  0  0  0  0  0  0  0  0
  159.1850  213.8360  143.7140 C   0  0  0  0  0  0  0  0  0  0  0  0
  160.4400  213.9630  141.1780 C   0  0  2  0  0  3  0  0  0  0  0  0
  159.3560  209.5540  137.3030 O   0  0  0  0  0  0  0  0  0  0  0  0
  159.7050  212.2830  139.5440 C   0  0  1  0  0  3  0  0  0  0  0  0
  158.3830  213.8560  142.5690 O   0  0  0  0  0  0  0  0  0  0  0  0
  160.4560  213.5990  143.6260 N   0  0  0  0  0  0  0  0  0  0  0  0
  160.2320  210.4010  137.2370 C   0  0  0  0  0  0  0  0  0  0  0  0
  162.1820  213.1300  139.4250 C   0  0  0  0  0  0  0  0  0  0  0  0
  157.8270  212.7010  138.2530 C   0  0  0  0  0  0  0  0  0  0  0  0
  158.6030  214.1020  144.9830 N   0  0  0  0  0  1  0  0  0  0  0  0
  159.8750  211.8350  137.0110 C   0  0  0  0  0  2  0  0  0  0  0  0
  162.9430  214.2870  139.2070 C   0  0  0  0  0  3  0  0  0  0  0  0
  164.2030  211.8080  139.0860 C   0  0  0  0  0  3  0  0  0  0  0  0
  164.9400  212.9730  138.8810 C   0  0  0  0  0  3  0  0  0  0  0  0
  161.9490  209.9240  137.4210 S   0  0  0  0  0  0  0  0  0  0  0  0
  158.5100  212.6170  140.4710 C   0  0  1  0  0  3  0  0  0  0  0  0
  159.1970  212.3760  138.1820 N   0  0  0  0  0  0  0  0  0  0  0  0
  158.9130  213.8670  141.2430 C   0  0  2  0  0  3  0  0  0  0  0  0
  156.0050  212.9820  139.9990 C   0  0  0  0  0  1  0  0  0  0  0  0
  160.7370  213.3640  139.8010 C   0  0  2  0  0  3  0  0  0  0  0  0
  1 16  1  0  0  0  0
  1  6  1  0  0  0  0
  2  8  1  0  0  0  0
  3 17  2  0  0  0  0
  4 20  1  0  0  0  0
  5 27  1  0  0  0  0
  5 24  1  0  0  0  0
  8  7  1  1  0  0  0
  8 14  1  0  0  0  0
  9 18  1  0  0  0  0
 10 26  1  0  0  0  0
 10  8  1  0  0  0  0
 12 28  1  0  0  0  0
 12 24  1  0  0  0  0
 13  9  1  0  0  0  0
 14  9  2  0  0  0  0
 15 11  2  0  0  0  0
 15 23  1  0  0  0  0
 16 28  1  0  0  0  0
 17  5  1  0  0  0  0
 19 15  1  0  0  0  0
 19 25  1  0  0  0  0
 20 16  2  0  0  0  0
 21  1  2  0  0  0  0
 22  4  2  0  0  0  0
 22 21  1  0  0  0  0
 23  6  1  0  0  0  0
 24 26  1  0  0  0  0
 25 17  1  0  0  0  0
 25 12  1  0  0  0  0
 26 13  1  0  0  0  0
 28 10  1  0  0  0  0
M  END
>  <MODEL>
1

>  <REMARK>
 VINA RESULT:      -4.4      0.000      0.000
  Name = 
  0 active torsions:
  status: ('A' for Active; 'I' for Inactive)
                            x       y       z     vdW  Elec       q    Type
                         _______ _______ _______ _____ _____    ______ ____

>  <TORSDO>
F 0

$$$$
=
 OpenBabel11122414143D

 28 32  0  0  1  0  0  0  0  0999 V2000
  161.6010  210.3580  137.7360 C   0  0  0  0  0  0  0  0  0  0  0  0
  158.6240  211.8820  137.1340 O   0  0  0  0  0  1  0  0  0  0  0  0
  160.7610  213.6270  142.9270 O   0  0  0  0  0  0  0  0  0  0  0  0
  161.3880  207.6260  138.3510 C   0  0  0  0  0  3  0  0  0  0  0  0
  158.9320  213.4850  141.4450 N   0  0  0  0  0  0  0  0  0  0  0  0
  161.8710  212.0760  137.2810 S   0  0  0  0  0  0  0  0  0  0  0  0
  158.1660  209.5590  137.0110 C   0  0  0  0  0  1  0  0  0  0  0  0
  157.8900  210.8600  137.7420 C   0  0  1  0  0  0  0  0  0  0  0  0
  155.8230  211.9000  138.4480 C   0  0  0  0  0  0  0  0  0  0  0  0
  158.2720  210.7190  139.2400 C   0  0  2  0  0  3  0  0  0  0  0  0
  163.0400  214.2690  139.7750 O   0  0  0  0  0  0  0  0  0  0  0  0
  160.0980  212.2870  139.7300 C   0  0  1  0  0  3  0  0  0  0  0  0
  156.4430  212.3610  139.6120 O   0  0  0  0  0  0  0  0  0  0  0  0
  156.4700  211.1600  137.6020 N   0  0  0  0  0  0  0  0  0  0  0  0
  163.0230  213.0490  139.7430 C   0  0  0  0  0  0  0  0  0  0  0  0
  160.7110  209.9300  138.7620 C   0  0  0  0  0  0  0  0  0  0  0  0
  160.2580  213.2170  141.8460 C   0  0  0  0  0  0  0  0  0  0  0  0
  154.4620  212.2270  138.2010 N   0  0  0  0  0  1  0  0  0  0  0  0
  162.4120  212.2770  140.8670 C   0  0  0  0  0  2  0  0  0  0  0  0
  160.6320  208.5610  139.0560 C   0  0  0  0  0  3  0  0  0  0  0  0
  162.3380  209.4020  137.0240 C   0  0  0  0  0  3  0  0  0  0  0  0
  162.2350  208.0460  137.3280 C   0  0  0  0  0  3  0  0  0  0  0  0
  163.7260  212.1850  138.3400 S   0  0  0  0  0  0  0  0  0  0  0  0
  158.7570  212.9720  140.0910 C   0  0  1  0  0  3  0  0  0  0  0  0
  160.9680  212.4710  140.8840 N   0  0  0  0  0  0  0  0  0  0  0  0
  157.7030  211.8710  140.0730 C   0  0  2  0  0  3  0  0  0  0  0  0
  158.0500  214.4500  142.0790 C   0  0  0  0  0  1  0  0  0  0  0  0
  159.7690  210.8180  139.5420 C   0  0  2  0  0  3  0  0  0  0  0  0
  1 16  1  0  0  0  0
  2  8  1  0  0  0  0
  4 20  1  0  0  0  0
  5 17  1  0  0  0  0
  5 27  1  0  0  0  0
  6  1  1  0  0  0  0
  6 23  1  0  0  0  0
  8  7  1  6  0  0  0
  8 10  1  0  0  0  0
  9 13  1  0  0  0  0
 10 28  1  0  0  0  0
 10 26  1  0  0  0  0
 12 24  1  0  0  0  0
 12 25  1  0  0  0  0
 13 26  1  0  0  0  0
 14  8  1  0  0  0  0
 14  9  2  0  0  0  0
 15 11  2  0  0  0  0
 15 19  1  0  0  0  0
 16 20  2  0  0  0  0
 16 28  1  0  0  0  0
 17  3  2  0  0  0  0
 18  9  1  0  0  0  0
 19 25  1  0  0  0  0
 21 22  1  0  0  0  0
 21  1  2  0  0  0  0
 22  4  2  0  0  0  0
 23 15  1  0  0  0  0
 24  5  1  0  0  0  0
 25 17  1  0  0  0  0
 26 24  1  0  0  0  0
 28 12  1  0  0  0  0
M  END
>  <MODEL>
2

>  <REMARK>
 VINA RESULT:      -4.2      2.236      5.010
  Name = 
  0 active torsions:
  status: ('A' for Active; 'I' for Inactive)
                            x       y       z     vdW  Elec       q    Type
                         _______ _______ _______ _____ _____    ______ ____

>  <TORSDO>
F 0

$$$$
=
 OpenBabel11122414143D

 28 32  0  0  1  0  0  0  0  0999 V2000
  158.1980  212.2080  139.6380 C   0  0  0  0  0  0  0  0  0  0  0  0
  159.9520  209.3060  139.4320 O   0  0  0  0  0  1  0  0  0  0  0  0
  164.0310  214.2560  139.2880 O   0  0  0  0  0  0  0  0  0  0  0  0
  156.8560  212.9090  137.2720 C   0  0  0  0  0  3  0  0  0  0  0  0
  163.6760  211.9640  138.8660 N   0  0  0  0  0  0  0  0  0  0  0  0
  158.9460  211.8290  141.2280 S   0  0  0  0  0  0  0  0  0  0  0  0
  158.5010  209.2860  137.5580 C   0  0  0  0  0  1  0  0  0  0  0  0
  159.9410  209.3080  138.0350 C   0  0  1  0  0  0  0  0  0  0  0  0
  161.8690  208.0000  137.3860 C   0  0  0  0  0  0  0  0  0  0  0  0
  160.6660  210.5620  137.4770 C   0  0  2  0  0  3  0  0  0  0  0  0
  161.5670  213.8980  142.3440 O   0  0  0  0  0  0  0  0  0  0  0  0
  161.3340  211.9820  139.3670 C   0  0  1  0  0  3  0  0  0  0  0  0
  162.6910  209.1200  137.5380 O   0  0  0  0  0  0  0  0  0  0  0  0
  160.5880  208.0900  137.5620 N   0  0  0  0  0  0  0  0  0  0  0  0
  160.7410  214.0770  141.4640 C   0  0  0  0  0  0  0  0  0  0  0  0
  158.9100  212.2510  138.4060 C   0  0  0  0  0  0  0  0  0  0  0  0
  163.2530  213.2680  139.1980 C   0  0  0  0  0  0  0  0  0  0  0  0
  162.4430  206.7550  137.0110 N   0  0  0  0  0  1  0  0  0  0  0  0
  161.1820  214.4530  140.0860 C   0  0  0  0  0  2  0  0  0  0  0  0
  158.2190  212.6140  137.2410 C   0  0  0  0  0  3  0  0  0  0  0  0
  156.8250  212.4880  139.6470 C   0  0  0  0  0  3  0  0  0  0  0  0
  156.1570  212.8380  138.4740 C   0  0  0  0  0  3  0  0  0  0  0  0
  158.9970  213.8820  141.8240 S   0  0  0  0  0  0  0  0  0  0  0  0
  162.5300  211.0710  138.9960 C   0  0  1  0  0  3  0  0  0  0  0  0
  161.8690  213.3340  139.4550 N   0  0  0  0  0  0  0  0  0  0  0  0
  162.1840  210.4520  137.6460 C   0  0  2  0  0  3  0  0  0  0  0  0
  165.0590  211.5230  138.8210 C   0  0  0  0  0  1  0  0  0  0  0  0
  160.3600  211.8710  138.2090 C   0  0  2  0  0  3  0  0  0  0  0  0
  1 21  1  0  0  0  0
  1  6  1  0  0  0  0
  4 22  1  0  0  0  0
  5 24  1  0  0  0  0
  5 17  1  0  0  0  0
  6 23  1  0  0  0  0
  8  7  1  6  0  0  0
  8  2  1  0  0  0  0
  9 13  1  0  0  0  0
  9 14  2  0  0  0  0
 10 26  1  0  0  0  0
 10  8  1  0  0  0  0
 10 28  1  0  0  0  0
 12 25  1  0  0  0  0
 13 26  1  0  0  0  0
 14  8  1  0  0  0  0
 15 23  1  0  0  0  0
 15 11  2  0  0  0  0
 16  1  2  0  0  0  0
 17  3  2  0  0  0  0
 17 25  1  0  0  0  0
 18  9  1  0  0  0  0
 19 15  1  0  0  0  0
 20  4  2  0  0  0  0
 20 16  1  0  0  0  0
 22 21  2  0  0  0  0
 24 12  1  0  0  0  0
 25 19  1  0  0  0  0
 26 24  1  0  0  0  0
 27  5  1  0  0  0  0
 28 16  1  0  0  0  0
 28 12  1  0  0  0  0
M  END
>  <MODEL>
3

>  <REMARK>
 VINA RESULT:      -3.1      2.782      6.494
  Name = 
  0 active torsions:
  status: ('A' for Active; 'I' for Inactive)
                            x       y       z     vdW  Elec       q    Type
                         _______ _______ _______ _____ _____    ______ ____

>  <TORSDO>
F 0

$$$$
=
 OpenBabel11122414143D

 28 32  0  0  1  0  0  0  0  0999 V2000
  161.5070  209.2090  155.0940 C   0  0  0  0  0  0  0  0  0  0  0  0
  162.8240  210.6090  152.2910 O   0  0  0  0  0  1  0  0  0  0  0  0
  157.5150  213.8040  153.9580 O   0  0  0  0  0  0  0  0  0  0  0  0
  160.2070  206.7600  154.6510 C   0  0  0  0  0  3  0  0  0  0  0  0
  159.0970  213.3230  152.2770 N   0  0  0  0  0  0  0  0  0  0  0  0
  162.3750  210.7260  155.5150 S   0  0  0  0  0  0  0  0  0  0  0  0
  162.3660  208.3580  151.7030 C   0  0  0  0  0  1  0  0  0  0  0  0
  162.0480  209.8180  151.4390 C   0  0  1  0  0  0  0  0  0  0  0  0
  161.8830  211.0810  149.3820 C   0  0  0  0  0  0  0  0  0  0  0  0
  160.5350  210.0810  151.6630 C   0  0  2  0  0  3  0  0  0  0  0  0
  160.4500  213.4790  156.5700 O   0  0  0  0  0  0  0  0  0  0  0  0
  160.2860  211.6610  153.5270 C   0  0  1  0  0  3  0  0  0  0  0  0
  160.8250  211.8230  149.9140 O   0  0  0  0  0  0  0  0  0  0  0  0
  162.4210  210.1160  150.0610 N   0  0  0  0  0  0  0  0  0  0  0  0
  160.1550  212.2990  156.4790 C   0  0  0  0  0  0  0  0  0  0  0  0
  160.5090  209.1100  154.0840 C   0  0  0  0  0  0  0  0  0  0  0  0
  158.4940  213.1310  153.5380 C   0  0  0  0  0  0  0  0  0  0  0  0
  162.3580  211.3730  148.0750 N   0  0  0  0  0  1  0  0  0  0  0  0
  158.9390  211.8850  155.7140 C   0  0  0  0  0  2  0  0  0  0  0  0
  159.8680  207.8780  153.8900 C   0  0  0  0  0  3  0  0  0  0  0  0
  161.8490  208.0710  155.8350 C   0  0  0  0  0  3  0  0  0  0  0  0
  161.2040  206.8540  155.6190 C   0  0  0  0  0  3  0  0  0  0  0  0
  161.1860  211.0590  157.2600 S   0  0  0  0  0  0  0  0  0  0  0  0
  160.2740  212.4640  152.2030 C   0  0  1  0  0  3  0  0  0  0  0  0
  159.1350  212.1250  154.2910 N   0  0  0  0  0  0  0  0  0  0  0  0
  160.1110  211.4360  151.0890 C   0  0  2  0  0  3  0  0  0  0  0  0
  158.8490  214.4530  151.3990 C   0  0  0  0  0  1  0  0  0  0  0  0
  160.1070  210.2090  153.1270 C   0  0  2  0  0  3  0  0  0  0  0  0
  1  6  1  0  0  0  0
  1 21  1  0  0  0  0
  4 22  1  0  0  0  0
  5 17  1  0  0  0  0
  6 23  1  0  0  0  0
  8 10  1  0  0  0  0
  8  7  1  1  0  0  0
  8  2  1  0  0  0  0
  9 13  1  0  0  0  0
  9 14  2  0  0  0  0
 10 28  1  0  0  0  0
 12 25  1  0  0  0  0
 13 26  1  0  0  0  0
 14  8  1  0  0  0  0
 15 11  2  0  0  0  0
 15 23  1  0  0  0  0
 16  1  2  0  0  0  0
 17  3  2  0  0  0  0
 17 25  1  0  0  0  0
 18  9  1  0  0  0  0
 19 15  1  0  0  0  0
 20 16  1  0  0  0  0
 20  4  2  0  0  0  0
 22 21  2  0  0  0  0
 24  5  1  0  0  0  0
 24 12  1  0  0  0  0
 25 19  1  0  0  0  0
 26 10  1  0  0  0  0
 26 24  1  0  0  0  0
 27  5  1  0  0  0  0
 28 12  1  0  0  0  0
 28 16  1  0  0  0  0
M  END
>  <MODEL>
4

>  <REMARK>
 VINA RESULT:      -1.8     11.026     14.415
  Name = 
  0 active torsions:
  status: ('A' for Active; 'I' for Inactive)
                            x       y       z     vdW  Elec       q    Type
                         _______ _______ _______ _____ _____    ______ ____

>  <TORSDO>
F 0

$$$$
