=
 OpenBabel11122414043D

 28 32  0  0  1  0  0  0  0  0999 V2000
  160.0210  211.7790  151.1190 C   0  0  0  0  0  0  0  0  0  0  0  0
  160.6060  207.5010  149.4720 O   0  0  0  0  0  0  0  0  0  0  0  0
  163.0150  211.0460  156.0350 O   0  0  0  0  0  0  0  0  0  0  0  0
  162.3870  211.5630  149.6370 C   0  0  0  0  0  3  0  0  0  0  0  0
  161.9630  208.7100  155.4940 C   0  0  2  0  0  3  0  0  0  0  0  0
  158.8410  212.0140  152.0100 C   0  0  0  0  0  2  0  0  0  0  0  0
  162.8420  207.9350  150.4230 O   0  0  0  0  0  0  0  0  0  0  0  0
  161.4750  207.3740  150.6910 S   0  0  0  0  0  0  0  0  0  0  0  0
  160.7840  205.3180  152.3870 C   0  0  1  0  0  3  0  0  0  0  0  0
  160.6970  208.1160  152.1080 C   0  0  1  0  0  3  0  0  0  0  0  0
  159.1830  213.2700  155.6470 C   0  0  0  0  0  1  0  0  0  0  0  0
  161.1950  209.8150  153.6600 C   0  0  2  0  0  3  0  0  0  0  0  0
  161.0620  206.1710  153.6490 C   0  0  0  0  0  2  0  0  0  0  0  0
  161.6630  205.6560  151.1710 C   0  0  0  0  0  2  0  0  0  0  0  0
  158.8350  212.3110  154.5230 C   0  0  2  0  0  3  0  0  0  0  0  0
  160.8560  210.6540  151.2940 C   0  0  0  0  0  0  0  0  0  0  0  0
  161.6450  210.3850  156.1090 S   0  0  2  0  0  0  0  0  0  0  0  0
  160.9150  203.8490  152.7260 C   0  0  0  0  0  1  0  0  0  0  0  0
  159.3830  210.9750  154.7890 N   0  0  0  0  0  2  0  0  0  0  0  0
  162.0540  210.5810  150.5720 C   0  0  0  0  0  3  0  0  0  0  0  0
  160.3610  212.7630  150.1810 C   0  0  0  0  0  3  0  0  0  0  0  0
  161.5330  212.6490  149.4330 C   0  0  0  0  0  3  0  0  0  0  0  0
  159.2690  212.8930  153.1760 C   0  0  0  0  0  2  0  0  0  0  0  0
  161.0510  208.5620  154.3740 N   0  0  1  0  0  0  0  0  0  0  0  0
  160.8330  210.9420  154.5960 C   0  0  2  0  0  3  0  0  0  0  0  0
  161.4420  207.6250  153.3380 C   0  0  2  0  0  3  0  0  0  0  0  0
  161.6170  207.7080  156.5780 C   0  0  0  0  0  1  0  0  0  0  0  0
  160.4970  209.6240  152.3350 C   0  0  1  0  0  3  0  0  0  0  0  0
  1 16  1  0  0  0  0
  1  6  1  0  0  0  0
  2  8  2  0  0  0  0
  3 17  2  0  0  0  0
  4 20  1  0  0  0  0
  5 17  1  0  0  0  0
  5 27  1  1  0  0  0
  6 23  1  0  0  0  0
  7  8  2  0  0  0  0
  8 14  1  0  0  0  0
  9 18  1  1  0  0  0
  9 13  1  0  0  0  0
 10  8  1  6  0  0  0
 10 28  1  0  0  0  0
 10 26  1  0  0  0  0
 12 24  1  0  0  0  0
 12 25  1  0  0  0  0
 14  9  1  0  0  0  0
 15 19  1  0  0  0  0
 15 11  1  0  0  0  0
 16 28  1  0  0  0  0
 20 16  2  0  0  0  0
 21  1  2  0  0  0  0
 22  4  2  0  0  0  0
 22 21  1  0  0  0  0
 23 15  1  0  0  0  0
 24  5  1  0  0  0  0
 25 19  1  0  0  0  0
 25 17  1  0  0  0  0
 26 13  1  0  0  0  0
 26 24  1  0  0  0  0
 28 12  1  0  0  0  0
M  END
>  <MODEL>
1

>  <REMARK>
 VINA RESULT:      -5.2      0.000      0.000
  Name = 
  0 active torsions:
  status: ('A' for Active; 'I' for Inactive)
                            x       y       z     vdW  Elec       q    Type
                         _______ _______ _______ _____ _____    ______ ____

>  <TORSDO>
F 0

$$$$
=
 OpenBabel11122414043D

 28 32  0  0  1  0  0  0  0  0999 V2000
  161.3890  209.3500  155.4720 C   0  0  0  0  0  0  0  0  0  0  0  0
  163.1470  208.6440  151.2580 O   0  0  0  0  0  0  0  0  0  0  0  0
  156.5640  212.0830  153.7640 O   0  0  0  0  0  0  0  0  0  0  0  0
  160.4440  206.9640  154.3520 C   0  0  0  0  0  3  0  0  0  0  0  0
  158.3880  212.6920  151.9860 C   0  0  2  0  0  3  0  0  0  0  0  0
  161.7370  210.6370  156.1530 C   0  0  0  0  0  2  0  0  0  0  0  0
  160.7550  208.2030  150.8350 O   0  0  0  0  0  0  0  0  0  0  0  0
  161.8360  209.2450  150.8370 S   0  0  0  0  0  0  0  0  0  0  0  0
  162.0540  211.4690  149.2280 C   0  0  1  0  0  3  0  0  0  0  0  0
  161.4280  210.6520  151.8460 C   0  0  1  0  0  3  0  0  0  0  0  0
  159.0730  213.2060  157.2610 C   0  0  0  0  0  1  0  0  0  0  0  0
  159.6650  211.3080  153.2630 C   0  0  2  0  0  3  0  0  0  0  0  0
  160.8800  212.1860  149.9380 C   0  0  0  0  0  2  0  0  0  0  0  0
  161.9450  209.9350  149.1850 C   0  0  0  0  0  2  0  0  0  0  0  0
  160.2580  212.6630  156.4810 C   0  0  2  0  0  3  0  0  0  0  0  0
  160.9860  209.3240  154.1190 C   0  0  0  0  0  0  0  0  0  0  0  0
  157.7850  212.9880  153.6700 S   0  0  2  0  0  0  0  0  0  0  0  0
  162.2090  212.0140  147.8250 C   0  0  0  0  0  1  0  0  0  0  0  0
  160.0910  212.9070  155.0420 N   0  0  0  0  0  2  0  0  0  0  0  0
  160.4800  208.1320  153.5860 C   0  0  0  0  0  3  0  0  0  0  0  0
  161.3480  208.1760  156.2370 C   0  0  0  0  0  3  0  0  0  0  0  0
  160.8890  206.9840  155.6740 C   0  0  0  0  0  3  0  0  0  0  0  0
  160.4920  211.1920  156.8290 C   0  0  0  0  0  2  0  0  0  0  0  0
  159.7610  212.2570  152.1710 N   0  0  1  0  0  0  0  0  0  0  0  0
  159.0850  212.0180  154.4620 C   0  0  2  0  0  3  0  0  0  0  0  0
  160.3170  211.4070  151.1350 C   0  0  2  0  0  3  0  0  0  0  0  0
  158.3580  213.9950  151.2110 C   0  0  0  0  0  1  0  0  0  0  0  0
  160.9980  210.6040  153.3220 C   0  0  1  0  0  3  0  0  0  0  0  0
  1  6  1  0  0  0  0
  1 21  1  0  0  0  0
  4 22  1  0  0  0  0
  5 27  1  6  0  0  0
  5 24  1  0  0  0  0
  5 17  1  0  0  0  0
  6 23  1  0  0  0  0
  7  8  2  0  0  0  0
  8  2  2  0  0  0  0
  9 18  1  6  0  0  0
  9 13  1  0  0  0  0
 10  8  1  6  0  0  0
 10 28  1  0  0  0  0
 12 28  1  0  0  0  0
 12 25  1  0  0  0  0
 13 26  1  0  0  0  0
 14  9  1  0  0  0  0
 14  8  1  0  0  0  0
 15 23  1  0  0  0  0
 15 11  1  0  0  0  0
 16  1  2  0  0  0  0
 17  3  2  0  0  0  0
 17 25  1  0  0  0  0
 19 15  1  0  0  0  0
 20 16  1  0  0  0  0
 20  4  2  0  0  0  0
 22 21  2  0  0  0  0
 24 12  1  0  0  0  0
 25 19  1  0  0  0  0
 26 10  1  0  0  0  0
 26 24  1  0  0  0  0
 28 16  1  0  0  0  0
M  END
>  <MODEL>
2

>  <REMARK>
 VINA RESULT:      -3.9      2.245      5.267
  Name = 
  0 active torsions:
  status: ('A' for Active; 'I' for Inactive)
                            x       y       z     vdW  Elec       q    Type
                         _______ _______ _______ _____ _____    ______ ____

>  <TORSDO>
F 0

$$$$
=
 OpenBabel11122414043D

 28 32  0  0  1  0  0  0  0  0999 V2000
  160.9460  208.1890  155.2850 C   0  0  0  0  0  0  0  0  0  0  0  0
  158.0580  211.5850  156.5010 O   0  0  0  0  0  0  0  0  0  0  0  0
  163.3990  210.9350  150.8010 O   0  0  0  0  0  0  0  0  0  0  0  0
  162.1600  209.9840  157.0590 C   0  0  0  0  0  3  0  0  0  0  0  0
  160.9400  211.8270  150.9160 C   0  0  2  0  0  3  0  0  0  0  0  0
  160.4580  207.2080  154.2660 C   0  0  0  0  0  2  0  0  0  0  0  0
  160.0800  212.8840  155.9380 O   0  0  0  0  0  0  0  0  0  0  0  0
  158.7920  212.3170  155.4140 S   0  0  0  0  0  0  0  0  0  0  0  0
  157.1860  213.3160  153.4130 C   0  0  1  0  0  3  0  0  0  0  0  0
  159.0320  211.2740  153.9930 C   0  0  1  0  0  3  0  0  0  0  0  0
  162.2360  206.6430  150.8830 C   0  0  0  0  0  1  0  0  0  0  0  0
  160.8480  210.4620  152.7340 C   0  0  2  0  0  3  0  0  0  0  0  0
  158.2050  212.9390  152.3090 C   0  0  0  0  0  2  0  0  0  0  0  0
  157.8080  213.6730  154.7740 C   0  0  0  0  0  2  0  0  0  0  0  0
  161.1200  207.0490  151.8290 C   0  0  2  0  0  3  0  0  0  0  0  0
  160.7690  209.5780  155.1060 C   0  0  0  0  0  0  0  0  0  0  0  0
  162.0040  210.4340  150.4560 S   0  0  2  0  0  0  0  0  0  0  0  0
  156.3120  214.4530  152.9310 C   0  0  0  0  0  1  0  0  0  0  0  0
  160.6120  208.3860  151.4940 N   0  0  0  0  0  2  0  0  0  0  0  0
  161.4140  210.4620  155.9790 C   0  0  0  0  0  3  0  0  0  0  0  0
  161.6980  207.7140  156.3680 C   0  0  0  0  0  3  0  0  0  0  0  0
  162.2920  208.6090  157.2600 C   0  0  0  0  0  3  0  0  0  0  0  0
  161.5810  206.9160  153.2820 C   0  0  0  0  0  2  0  0  0  0  0  0
  160.0020  211.2600  151.8680 N   0  0  1  0  0  0  0  0  0  0  0  0
  161.5560  209.4310  151.8890 C   0  0  2  0  0  3  0  0  0  0  0  0
  159.4280  212.1760  152.8360 C   0  0  2  0  0  3  0  0  0  0  0  0
  160.1980  212.3120  149.6860 C   0  0  0  0  0  1  0  0  0  0  0  0
  159.9900  210.0740  153.9130 C   0  0  1  0  0  3  0  0  0  0  0  0
  1 21  1  0  0  0  0
  4 22  1  0  0  0  0
  5 27  1  6  0  0  0
  5 24  1  0  0  0  0
  6  1  1  0  0  0  0
  8  7  2  0  0  0  0
  8  2  2  0  0  0  0
  9 18  1  6  0  0  0
  9 14  1  0  0  0  0
 10  8  1  1  0  0  0
 11 15  1  0  0  0  0
 12 28  1  0  0  0  0
 13 26  1  0  0  0  0
 13  9  1  0  0  0  0
 14  8  1  0  0  0  0
 15 23  1  0  0  0  0
 16  1  2  0  0  0  0
 16 20  1  0  0  0  0
 17  3  2  0  0  0  0
 17  5  1  0  0  0  0
 17 25  1  0  0  0  0
 19 15  1  0  0  0  0
 19 25  1  0  0  0  0
 20  4  2  0  0  0  0
 21 22  2  0  0  0  0
 23  6  1  0  0  0  0
 24 12  1  0  0  0  0
 24 26  1  0  0  0  0
 25 12  1  0  0  0  0
 26 10  1  0  0  0  0
 28 10  1  0  0  0  0
 28 16  1  0  0  0  0
M  END
>  <MODEL>
3

>  <REMARK>
 VINA RESULT:      -3.4      2.158      6.724
  Name = 
  0 active torsions:
  status: ('A' for Active; 'I' for Inactive)
                            x       y       z     vdW  Elec       q    Type
                         _______ _______ _______ _____ _____    ______ ____

>  <TORSDO>
F 0

$$$$
=
 OpenBabel11122414043D

 28 32  0  0  1  0  0  0  0  0999 V2000
  158.6300  212.7780  151.3970 C   0  0  0  0  0  0  0  0  0  0  0  0
  160.7910  208.9200  150.0550 O   0  0  0  0  0  0  0  0  0  0  0  0
  160.7580  212.9250  156.7930 O   0  0  0  0  0  0  0  0  0  0  0  0
  161.1750  213.3310  150.3700 C   0  0  0  0  0  3  0  0  0  0  0  0
  160.5920  210.3870  156.1680 C   0  0  2  0  0  3  0  0  0  0  0  0
  157.2940  212.6200  152.0540 C   0  0  0  0  0  2  0  0  0  0  0  0
  162.5730  210.0090  151.3710 O   0  0  0  0  0  0  0  0  0  0  0  0
  161.4200  209.0480  151.4130 S   0  0  0  0  0  0  0  0  0  0  0  0
  161.0990  206.8510  153.0410 C   0  0  1  0  0  3  0  0  0  0  0  0
  160.2080  209.4880  152.6380 C   0  0  1  0  0  3  0  0  0  0  0  0
  156.5650  213.8590  155.6400 C   0  0  0  0  0  1  0  0  0  0  0  0
  159.8680  211.2320  154.1840 C   0  0  2  0  0  3  0  0  0  0  0  0
  160.8660  207.7260  154.2970 C   0  0  0  0  0  2  0  0  0  0  0  0
  162.0370  207.4640  151.9880 C   0  0  0  0  0  2  0  0  0  0  0  0
  156.7400  212.8590  154.5110 C   0  0  2  0  0  3  0  0  0  0  0  0
  159.7240  211.9640  151.7630 C   0  0  0  0  0  0  0  0  0  0  0  0
  159.6680  211.8710  156.6490 S   0  0  2  0  0  0  0  0  0  0  0  0
  161.6120  205.4890  153.4580 C   0  0  0  0  0  1  0  0  0  0  0  0
  157.6140  211.7530  154.9250 N   0  0  0  0  0  2  0  0  0  0  0  0
  160.9960  212.2780  151.2700 C   0  0  0  0  0  3  0  0  0  0  0  0
  158.8150  213.8340  150.4960 C   0  0  0  0  0  3  0  0  0  0  0  0
  160.0810  214.1020  149.9730 C   0  0  0  0  0  3  0  0  0  0  0  0
  157.2110  213.5690  153.2410 C   0  0  0  0  0  2  0  0  0  0  0  0
  159.9890  209.9840  154.9110 N   0  0  1  0  0  0  0  0  0  0  0  0
  159.0130  212.1750  154.9950 C   0  0  2  0  0  3  0  0  0  0  0  0
  160.8310  209.2310  154.0000 C   0  0  2  0  0  3  0  0  0  0  0  0
  160.3800  209.3100  157.2130 C   0  0  0  0  0  1  0  0  0  0  0  0
  159.5160  210.8560  152.7650 C   0  0  1  0  0  3  0  0  0  0  0  0
  1 16  1  0  0  0  0
  1  6  1  0  0  0  0
  2  8  2  0  0  0  0
  4 20  1  0  0  0  0
  5 17  1  0  0  0  0
  5 27  1  1  0  0  0
  6 23  1  0  0  0  0
  7  8  2  0  0  0  0
  8 14  1  0  0  0  0
  9 18  1  1  0  0  0
  9 13  1  0  0  0  0
 10  8  1  6  0  0  0
 10 28  1  0  0  0  0
 10 26  1  0  0  0  0
 12 24  1  0  0  0  0
 12 25  1  0  0  0  0
 14  9  1  0  0  0  0
 15 19  1  0  0  0  0
 15 11  1  0  0  0  0
 16 28  1  0  0  0  0
 17  3  2  0  0  0  0
 19 25  1  0  0  0  0
 20 16  2  0  0  0  0
 21  1  2  0  0  0  0
 22  4  2  0  0  0  0
 22 21  1  0  0  0  0
 23 15  1  0  0  0  0
 24  5  1  0  0  0  0
 25 17  1  0  0  0  0
 26 13  1  0  0  0  0
 26 24  1  0  0  0  0
 28 12  1  0  0  0  0
M  END
>  <MODEL>
4

>  <REMARK>
 VINA RESULT:      -3.2      1.663      2.051
  Name = 
  0 active torsions:
  status: ('A' for Active; 'I' for Inactive)
                            x       y       z     vdW  Elec       q    Type
                         _______ _______ _______ _____ _____    ______ ____

>  <TORSDO>
F 0

$$$$
=
 OpenBabel11122414043D

 28 32  0  0  1  0  0  0  0  0999 V2000
  161.1730  208.9070  156.3010 C   0  0  0  0  0  0  0  0  0  0  0  0
  162.8650  207.1240  152.3880 O   0  0  0  0  0  0  0  0  0  0  0  0
  156.9980  212.1100  153.8560 O   0  0  0  0  0  0  0  0  0  0  0  0
  159.8190  206.5680  155.5680 C   0  0  0  0  0  3  0  0  0  0  0  0
  158.9460  212.0360  152.1080 C   0  0  2  0  0  3  0  0  0  0  0  0
  161.7430  210.2120  156.7610 C   0  0  0  0  0  2  0  0  0  0  0  0
  160.4440  207.0560  151.9120 O   0  0  0  0  0  0  0  0  0  0  0  0
  161.7030  207.8650  151.7910 S   0  0  0  0  0  0  0  0  0  0  0  0
  162.3770  209.6740  149.8290 C   0  0  1  0  0  3  0  0  0  0  0  0
  161.5450  209.4850  152.5090 C   0  0  1  0  0  3  0  0  0  0  0  0
  159.5910  213.3850  157.2380 C   0  0  0  0  0  1  0  0  0  0  0  0
  159.9060  210.7030  153.6820 C   0  0  2  0  0  3  0  0  0  0  0  0
  161.3450  210.7130  150.3310 C   0  0  0  0  0  2  0  0  0  0  0  0
  161.9800  208.2050  150.0520 C   0  0  0  0  0  2  0  0  0  0  0  0
  160.6680  212.5000  156.6370 C   0  0  2  0  0  3  0  0  0  0  0  0
  160.8050  208.7050  154.9530 C   0  0  0  0  0  0  0  0  0  0  0  0
  158.3700  212.7440  153.6740 S   0  0  2  0  0  0  0  0  0  0  0  0
  162.6670  209.9130  148.3630 C   0  0  0  0  0  1  0  0  0  0  0  0
  160.5850  212.4990  155.1710 N   0  0  0  0  0  2  0  0  0  0  0  0
  160.0950  207.5470  154.6110 C   0  0  0  0  0  3  0  0  0  0  0  0
  160.8910  207.9230  157.2580 C   0  0  0  0  0  3  0  0  0  0  0  0
  160.2270  206.7510  156.8900 C   0  0  0  0  0  3  0  0  0  0  0  0
  160.6100  211.1010  157.2540 C   0  0  0  0  0  2  0  0  0  0  0  0
  160.2060  211.3990  152.4470 N   0  0  1  0  0  0  0  0  0  0  0  0
  159.4420  211.7170  154.7000 C   0  0  2  0  0  3  0  0  0  0  0  0
  160.6150  210.2850  151.6120 C   0  0  2  0  0  3  0  0  0  0  0  0
  159.1830  213.1550  151.1140 C   0  0  0  0  0  1  0  0  0  0  0  0
  161.0790  209.7900  153.9430 C   0  0  1  0  0  3  0  0  0  0  0  0
  1  6  1  0  0  0  0
  1 21  1  0  0  0  0
  4 22  1  0  0  0  0
  5 27  1  6  0  0  0
  5 24  1  0  0  0  0
  5 17  1  0  0  0  0
  6 23  1  0  0  0  0
  8  7  2  0  0  0  0
  8  2  2  0  0  0  0
  9 18  1  6  0  0  0
  9 14  1  0  0  0  0
  9 13  1  0  0  0  0
 10  8  1  6  0  0  0
 10 28  1  0  0  0  0
 12 28  1  0  0  0  0
 12 25  1  0  0  0  0
 13 26  1  0  0  0  0
 14  8  1  0  0  0  0
 15 11  1  0  0  0  0
 15 23  1  0  0  0  0
 16  1  2  0  0  0  0
 17  3  2  0  0  0  0
 17 25  1  0  0  0  0
 19 15  1  0  0  0  0
 20 16  1  0  0  0  0
 20  4  2  0  0  0  0
 22 21  2  0  0  0  0
 24 12  1  0  0  0  0
 25 19  1  0  0  0  0
 26 24  1  0  0  0  0
 26 10  1  0  0  0  0
 28 16  1  0  0  0  0
M  END
>  <MODEL>
5

>  <REMARK>
 VINA RESULT:      -2.9      2.294      5.112
  Name = 
  0 active torsions:
  status: ('A' for Active; 'I' for Inactive)
                            x       y       z     vdW  Elec       q    Type
                         _______ _______ _______ _____ _____    ______ ____

>  <TORSDO>
F 0

$$$$
=
 OpenBabel11122414043D

 28 32  0  0  1  0  0  0  0  0999 V2000
  161.6500  206.2150  152.7830 C   0  0  0  0  0  0  0  0  0  0  0  0
  163.2510  207.7010  148.7120 O   0  0  0  0  0  0  0  0  0  0  0  0
  157.6640  210.3660  153.5210 O   0  0  0  0  0  0  0  0  0  0  0  0
  160.1710  205.1620  150.6510 C   0  0  0  0  0  3  0  0  0  0  0  0
  159.6100  211.4870  152.1730 C   0  0  2  0  0  3  0  0  0  0  0  0
  162.2900  206.7730  154.0160 C   0  0  0  0  0  2  0  0  0  0  0  0
  160.8310  208.0920  148.4220 O   0  0  0  0  0  0  0  0  0  0  0  0
  162.1330  208.6930  148.8690 S   0  0  0  0  0  0  0  0  0  0  0  0
  162.9110  211.3310  148.7640 C   0  0  1  0  0  3  0  0  0  0  0  0
  162.0630  209.3160  150.5330 C   0  0  1  0  0  3  0  0  0  0  0  0
  160.3140  208.7310  156.6970 C   0  0  0  0  0  1  0  0  0  0  0  0
  160.4900  209.3920  152.2840 C   0  0  2  0  0  3  0  0  0  0  0  0
  161.9360  211.7380  149.8960 C   0  0  0  0  0  2  0  0  0  0  0  0
  162.4340  210.1630  147.8860 C   0  0  0  0  0  2  0  0  0  0  0  0
  161.3430  208.5000  155.6040 C   0  0  2  0  0  3  0  0  0  0  0  0
  161.2750  207.0530  151.7110 C   0  0  0  0  0  0  0  0  0  0  0  0
  159.0700  210.8830  153.7950 S   0  0  2  0  0  0  0  0  0  0  0  0
  163.2180  212.5350  147.8990 C   0  0  0  0  0  1  0  0  0  0  0  0
  161.2640  209.5520  154.5820 N   0  0  0  0  0  2  0  0  0  0  0  0
  160.5030  206.5180  150.6720 C   0  0  0  0  0  3  0  0  0  0  0  0
  161.3120  204.8550  152.7600 C   0  0  0  0  0  3  0  0  0  0  0  0
  160.5860  204.3280  151.6900 C   0  0  0  0  0  3  0  0  0  0  0  0
  161.2060  207.0850  155.0380 C   0  0  0  0  0  2  0  0  0  0  0  0
  160.8320  210.7490  151.9070 N   0  0  1  0  0  0  0  0  0  0  0  0
  160.0810  209.3890  153.7370 C   0  0  2  0  0  3  0  0  0  0  0  0
  161.1810  210.5530  150.5130 C   0  0  2  0  0  3  0  0  0  0  0  0
  159.9100  212.9690  152.2690 C   0  0  0  0  0  1  0  0  0  0  0  0
  161.6110  208.5210  151.7710 C   0  0  1  0  0  3  0  0  0  0  0  0
  1  6  1  0  0  0  0
  2  8  2  0  0  0  0
  3 17  2  0  0  0  0
  4 20  2  0  0  0  0
  4 22  1  0  0  0  0
  5 27  1  1  0  0  0
  5 17  1  0  0  0  0
  6 23  1  0  0  0  0
  7  8  2  0  0  0  0
  9 18  1  6  0  0  0
  9 13  1  0  0  0  0
 10  8  1  6  0  0  0
 10 28  1  0  0  0  0
 12 25  1  0  0  0  0
 13 26  1  0  0  0  0
 14  9  1  0  0  0  0
 14  8  1  0  0  0  0
 15 11  1  0  0  0  0
 16 28  1  0  0  0  0
 16  1  2  0  0  0  0
 19 15  1  0  0  0  0
 20 16  1  0  0  0  0
 21  1  1  0  0  0  0
 22 21  2  0  0  0  0
 23 15  1  0  0  0  0
 24  5  1  0  0  0  0
 24 12  1  0  0  0  0
 25 17  1  0  0  0  0
 25 19  1  0  0  0  0
 26 10  1  0  0  0  0
 26 24  1  0  0  0  0
 28 12  1  0  0  0  0
M  END
>  <MODEL>
6

>  <REMARK>
 VINA RESULT:      -2.4      1.971      5.398
  Name = 
  0 active torsions:
  status: ('A' for Active; 'I' for Inactive)
                            x       y       z     vdW  Elec       q    Type
                         _______ _______ _______ _____ _____    ______ ____

>  <TORSDO>
F 0

$$$$
