=
 OpenBabel11122414173D

 34 41  0  0  1  0  0  0  0  0999 V2000
  160.8920  207.7830  154.1350 C   0  0  0  0  0  0  0  0  0  0  0  0
  162.2210  206.1590  152.8280 N   0  0  0  0  0  2  0  0  0  0  0  0
  159.1180  213.4730  155.7980 C   0  0  2  0  0  3  0  0  0  0  0  0
  159.2640  209.2660  155.1110 C   0  0  0  0  0  0  0  0  0  0  0  0
  158.7780  211.5370  154.0910 C   0  0  1  0  0  3  0  0  0  0  0  0
  160.8350  212.2120  155.4850 C   0  0  0  0  0  2  0  0  0  0  0  0
  160.2930  213.0080  156.6630 C   0  0  0  0  0  2  0  0  0  0  0  0
  157.8160  211.8970  156.9640 C   0  0  0  0  0  2  0  0  0  0  0  0
  162.2610  208.4610  152.1290 C   0  0  2  0  0  3  0  0  0  0  0  0
  161.7060  208.8180  148.9340 C   0  0  0  0  0  2  0  0  0  0  0  0
  159.3300  210.9340  152.7950 C   0  0  0  0  0  2  0  0  0  0  0  0
  157.4590  210.7230  156.0720 C   0  0  0  0  0  2  0  0  0  0  0  0
  161.1160  209.4400  151.7910 C   0  0  1  0  0  3  0  0  0  0  0  0
  162.9800  206.2310  151.5810 C   0  0  0  0  0  2  0  0  0  0  0  0
  158.5190  210.4990  155.0980 N   0  0  0  0  0  0  0  0  0  0  0  0
  157.8100  213.0910  156.2160 O   0  0  0  0  0  0  0  0  0  0  0  0
  161.8060  207.5210  149.7570 C   0  0  1  0  0  3  0  0  0  0  0  0
  160.2190  209.0110  154.1140 C   0  0  0  0  0  0  0  0  0  0  0  0
  159.6740  212.6810  154.6140 C   0  0  2  0  0  3  0  0  0  0  0  0
  160.5550  210.0610  153.0810 C   0  0  2  0  0  3  0  0  0  0  0  0
  159.6730  207.1300  156.0520 C   0  0  0  0  0  3  0  0  0  0  0  0
  162.3370  210.0440  149.5990 C   0  0  0  0  0  2  0  0  0  0  0  0
  159.0130  208.3180  156.0550 N   0  0  0  0  0  0  0  0  0  0  0  0
  161.5570  210.5420  150.8180 C   0  0  0  0  0  2  0  0  0  0  0  0
  162.7680  207.6110  150.9650 C   0  0  1  0  0  3  0  0  0  0  0  0
  160.6000  206.8670  155.0950 N   0  0  0  0  0  0  0  0  0  0  0  0
  161.8410  207.4780  153.1060 N   0  0  0  0  0  0  0  0  0  0  0  0
  160.5270  207.1070  150.1500 O   0  0  0  0  0  0  0  0  0  0  0  0
  160.1020  206.2270  149.1530 C   0  0  0  0  0  2  0  0  0  0  0  0
  161.2340  202.7970  149.4370 N   0  0  0  0  0  0  0  0  0  0  0  0
  160.3210  204.2850  150.6840 O   0  0  0  0  0  0  0  0  0  0  0  0
  160.5030  204.8410  149.5140 C   0  0  0  0  0  0  0  0  0  0  0  0
  160.7570  203.0630  150.6450 N   0  0  0  0  0  0  0  0  0  0  0  0
  161.0860  203.9080  148.6860 C   0  0  0  0  0  3  0  0  0  0  0  0
  1 26  1  0  0  0  0
  2 27  1  0  0  0  0
  3 16  1  0  0  0  0
  3  7  1  1  0  0  0
  4 23  2  0  0  0  0
  5 11  1  6  0  0  0
  5 19  1  0  0  0  0
  5 15  1  0  0  0  0
  6  7  1  0  0  0  0
  9 27  1  1  0  0  0
 10 22  1  0  0  0  0
 10 17  1  0  0  0  0
 12  8  1  0  0  0  0
 13 24  1  6  0  0  0
 13  9  1  0  0  0  0
 13 20  1  0  0  0  0
 14  2  1  0  0  0  0
 15  4  1  0  0  0  0
 15 12  1  0  0  0  0
 16  8  1  0  0  0  0
 17 28  1  1  0  0  0
 17 25  1  0  0  0  0
 18  1  2  0  0  0  0
 18  4  1  0  0  0  0
 19  6  1  1  0  0  0
 19  3  1  0  0  0  0
 20 11  1  6  0  0  0
 20 18  1  0  0  0  0
 21 23  1  0  0  0  0
 22 24  1  0  0  0  0
 25 14  1  1  0  0  0
 25  9  1  0  0  0  0
 26 21  2  0  0  0  0
 27  1  1  0  0  0  0
 29 32  1  0  0  0  0
 29 28  1  0  0  0  0
 30 33  2  0  0  0  0
 32 31  1  0  0  0  0
 33 31  1  0  0  0  0
 34 30  1  0  0  0  0
 34 32  2  0  0  0  0
M  END
>  <MODEL>
1

>  <REMARK>
 VINA RESULT:      -5.4      0.000      0.000
  Name = 
  3 active torsions:
  status: ('A' for Active; 'I' for Inactive)
    1  A    between atoms: C_17  and  O_28
    2  A    between atoms: O_28  and  C_29
    3  A    between atoms: C_29  and  C_32
                            x       y       z     vdW  Elec       q    Type
                         _______ _______ _______ _____ _____    ______ ____

>  <TORSDO>
F 3

$$$$
=
 OpenBabel11122414173D

 34 41  0  0  1  0  0  0  0  0999 V2000
  158.7590  212.8110  137.5600 C   0  0  0  0  0  0  0  0  0  0  0  0
  161.1040  213.3800  137.0270 N   0  0  0  0  0  2  0  0  0  0  0  0
  154.0420  208.9130  138.4840 C   0  0  2  0  0  3  0  0  0  0  0  0
  156.6010  212.3270  138.5150 C   0  0  0  0  0  0  0  0  0  0  0  0
  156.1070  210.0720  139.5680 C   0  0  1  0  0  3  0  0  0  0  0  0
  155.6270  209.4290  137.1210 C   0  0  0  0  0  2  0  0  0  0  0  0
  154.1130  209.3230  137.0110 C   0  0  0  0  0  2  0  0  0  0  0  0
  153.3120  211.1090  138.9150 C   0  0  0  0  0  2  0  0  0  0  0  0
  160.5810  211.0720  137.4650 C   0  0  2  0  0  3  0  0  0  0  0  0
  162.6200  209.7040  139.6150 C   0  0  0  0  0  2  0  0  0  0  0  0
  157.6250  209.9600  139.7400 C   0  0  0  0  0  2  0  0  0  0  0  0
  154.3880  211.9080  139.6270 C   0  0  0  0  0  2  0  0  0  0  0  0
  159.8790  210.4000  138.6650 C   0  0  1  0  0  3  0  0  0  0  0  0
  162.3610  212.6320  137.0300 C   0  0  0  0  0  2  0  0  0  0  0  0
  155.7060  211.4420  139.2160 N   0  0  0  0  0  0  0  0  0  0  0  0
  153.3240  209.7750  139.3660 O   0  0  0  0  0  0  0  0  0  0  0  0
  162.6400  211.1320  139.0400 C   0  0  1  0  0  3  0  0  0  0  0  0
  157.9040  211.9080  138.2040 C   0  0  0  0  0  0  0  0  0  0  0  0
  155.5650  209.0100  138.5860 C   0  0  2  0  0  3  0  0  0  0  0  0
  158.3530  210.4960  138.5050 C   0  0  2  0  0  3  0  0  0  0  0  0
  157.0580  214.4530  137.5750 C   0  0  0  0  0  3  0  0  0  0  0  0
  161.8140  208.6970  138.7890 C   0  0  0  0  0  2  0  0  0  0  0  0
  156.2090  213.5910  138.1940 N   0  0  0  0  0  0  0  0  0  0  0  0
  160.3030  208.9360  138.8470 C   0  0  0  0  0  2  0  0  0  0  0  0
  162.0940  211.2410  137.5960 C   0  0  1  0  0  3  0  0  0  0  0  0
  158.3220  214.0640  137.2680 N   0  0  0  0  0  0  0  0  0  0  0  0
  160.1070  212.4260  137.2700 N   0  0  0  0  0  0  0  0  0  0  0  0
  161.9700  212.0030  139.9080 O   0  0  0  0  0  0  0  0  0  0  0  0
  162.6280  211.8830  141.1320 C   0  0  0  0  0  2  0  0  0  0  0  0
  159.8770  212.0130  143.4860 N   0  0  0  0  0  0  0  0  0  0  0  0
  161.8340  212.8650  143.2690 O   0  0  0  0  0  0  0  0  0  0  0  0
  161.6530  212.0820  142.2380 C   0  0  0  0  0  0  0  0  0  0  0  0
  160.7760  212.8280  144.0210 N   0  0  0  0  0  0  0  0  0  0  0  0
  160.4000  211.5190  142.3450 C   0  0  0  0  0  3  0  0  0  0  0  0
  1 18  1  0  0  0  0
  2 14  1  0  0  0  0
  2 27  1  0  0  0  0
  3  7  1  6  0  0  0
  3 19  1  0  0  0  0
  3 16  1  0  0  0  0
  4 15  1  0  0  0  0
  5 11  1  6  0  0  0
  7  6  1  0  0  0  0
  8 16  1  0  0  0  0
  8 12  1  0  0  0  0
  9 27  1  1  0  0  0
  9 25  1  0  0  0  0
  9 13  1  0  0  0  0
 13 24  1  6  0  0  0
 15  5  1  0  0  0  0
 15 12  1  0  0  0  0
 17 10  1  0  0  0  0
 17 28  1  1  0  0  0
 18 20  1  0  0  0  0
 18  4  2  0  0  0  0
 19  6  1  6  0  0  0
 19  5  1  0  0  0  0
 20 13  1  0  0  0  0
 20 11  1  1  0  0  0
 21 23  2  0  0  0  0
 22 24  1  0  0  0  0
 22 10  1  0  0  0  0
 23  4  1  0  0  0  0
 25 14  1  1  0  0  0
 25 17  1  0  0  0  0
 26  1  2  0  0  0  0
 26 21  1  0  0  0  0
 27  1  1  0  0  0  0
 28 29  1  0  0  0  0
 29 32  1  0  0  0  0
 30 33  2  0  0  0  0
 31 33  1  0  0  0  0
 32 34  2  0  0  0  0
 32 31  1  0  0  0  0
 34 30  1  0  0  0  0
M  END
>  <MODEL>
2

>  <REMARK>
 VINA RESULT:      -4.0     12.083     15.335
  Name = 
  3 active torsions:
  status: ('A' for Active; 'I' for Inactive)
    1  A    between atoms: C_17  and  O_28
    2  A    between atoms: O_28  and  C_29
    3  A    between atoms: C_29  and  C_32
                            x       y       z     vdW  Elec       q    Type
                         _______ _______ _______ _____ _____    ______ ____

>  <TORSDO>
F 3

$$$$
=
 OpenBabel11122414173D

 34 41  0  0  1  0  0  0  0  0999 V2000
  160.2350  210.7810  151.9910 C   0  0  0  0  0  0  0  0  0  0  0  0
  159.4660  209.9250  154.1790 N   0  0  0  0  0  2  0  0  0  0  0  0
  159.8170  214.3250  146.9350 C   0  0  2  0  0  3  0  0  0  0  0  0
  161.2690  211.8710  150.1090 C   0  0  0  0  0  0  0  0  0  0  0  0
  160.5960  214.2170  149.4180 C   0  0  1  0  0  3  0  0  0  0  0  0
  158.7350  212.9400  148.1800 C   0  0  0  0  0  2  0  0  0  0  0  0
  159.1120  212.9860  146.7060 C   0  0  0  0  0  2  0  0  0  0  0  0
  161.8360  213.1170  146.8560 C   0  0  0  0  0  2  0  0  0  0  0  0
  158.3680  211.8720  153.2870 C   0  0  2  0  0  3  0  0  0  0  0  0
  158.1370  214.2960  155.4600 C   0  0  0  0  0  2  0  0  0  0  0  0
  160.1100  214.3690  150.8620 C   0  0  0  0  0  2  0  0  0  0  0  0
  162.4700  213.0300  148.2320 C   0  0  0  0  0  2  0  0  0  0  0  0
  158.9350  213.2210  152.7930 C   0  0  1  0  0  3  0  0  0  0  0  0
  158.5300  210.4100  155.1920 C   0  0  0  0  0  2  0  0  0  0  0  0
  161.4330  213.0200  149.2560 N   0  0  0  0  0  0  0  0  0  0  0  0
  161.2210  214.3730  146.6870 O   0  0  0  0  0  0  0  0  0  0  0  0
  158.7240  212.8840  155.6470 C   0  0  1  0  0  3  0  0  0  0  0  0
  160.3360  211.9000  151.1570 C   0  0  0  0  0  0  0  0  0  0  0  0
  159.4250  214.2790  148.4130 C   0  0  2  0  0  3  0  0  0  0  0  0
  159.4200  213.0890  151.3410 C   0  0  2  0  0  3  0  0  0  0  0  0
  161.9410  209.6960  150.7660 C   0  0  0  0  0  3  0  0  0  0  0  0
  157.1960  214.4390  154.2610 C   0  0  0  0  0  2  0  0  0  0  0  0
  162.0520  210.7700  149.9400 N   0  0  0  0  0  0  0  0  0  0  0  0
  157.9140  214.3620  152.9120 C   0  0  0  0  0  2  0  0  0  0  0  0
  158.0470  211.7970  154.7790 C   0  0  1  0  0  3  0  0  0  0  0  0
  161.0430  209.7080  151.7850 N   0  0  0  0  0  0  0  0  0  0  0  0
  159.3220  210.7990  153.0940 N   0  0  0  0  0  0  0  0  0  0  0  0
  160.1090  212.9140  155.4420 O   0  0  0  0  0  0  0  0  0  0  0  0
  160.6730  212.7820  156.7110 C   0  0  0  0  0  2  0  0  0  0  0  0
  162.7360  209.8040  156.7190 N   0  0  0  0  0  0  0  0  0  0  0  0
  160.7370  210.3620  157.2610 O   0  0  0  0  0  0  0  0  0  0  0  0
  161.3210  211.4490  156.8270 C   0  0  0  0  0  0  0  0  0  0  0  0
  161.5780  209.3750  157.2000 N   0  0  0  0  0  0  0  0  0  0  0  0
  162.6110  211.1230  156.4650 C   0  0  0  0  0  3  0  0  0  0  0  0
  1 27  1  0  0  0  0
  2 14  1  0  0  0  0
  3  7  1  6  0  0  0
  3 19  1  0  0  0  0
  4 18  1  0  0  0  0
  5 11  1  1  0  0  0
  7  6  1  0  0  0  0
  8 12  1  0  0  0  0
  9 27  1  1  0  0  0
  9 25  1  0  0  0  0
 10 17  1  0  0  0  0
 12 15  1  0  0  0  0
 13 24  1  6  0  0  0
 13  9  1  0  0  0  0
 15  5  1  0  0  0  0
 15  4  1  0  0  0  0
 16  8  1  0  0  0  0
 16  3  1  0  0  0  0
 17 28  1  6  0  0  0
 18 20  1  0  0  0  0
 18  1  2  0  0  0  0
 19  6  1  6  0  0  0
 19  5  1  0  0  0  0
 20 11  1  1  0  0  0
 20 13  1  0  0  0  0
 21 26  2  0  0  0  0
 22 10  1  0  0  0  0
 23  4  2  0  0  0  0
 23 21  1  0  0  0  0
 24 22  1  0  0  0  0
 25 14  1  1  0  0  0
 25 17  1  0  0  0  0
 26  1  1  0  0  0  0
 27  2  1  0  0  0  0
 28 29  1  0  0  0  0
 29 32  1  0  0  0  0
 30 33  2  0  0  0  0
 32 31  1  0  0  0  0
 33 31  1  0  0  0  0
 34 30  1  0  0  0  0
 34 32  2  0  0  0  0
M  END
>  <MODEL>
3

>  <REMARK>
 VINA RESULT:      -3.9      3.668      7.631
  Name = 
  3 active torsions:
  status: ('A' for Active; 'I' for Inactive)
    1  A    between atoms: C_17  and  O_28
    2  A    between atoms: O_28  and  C_29
    3  A    between atoms: C_29  and  C_32
                            x       y       z     vdW  Elec       q    Type
                         _______ _______ _______ _____ _____    ______ ____

>  <TORSDO>
F 3

$$$$
=
 OpenBabel11122414173D

 34 41  0  0  1  0  0  0  0  0999 V2000
  162.1230  207.5900  150.3340 C   0  0  0  0  0  0  0  0  0  0  0  0
  162.6200  209.9150  151.0120 N   0  0  0  0  0  2  0  0  0  0  0  0
  161.2260  201.5550  151.3670 C   0  0  2  0  0  3  0  0  0  0  0  0
  161.2030  205.4670  149.6650 C   0  0  0  0  0  0  0  0  0  0  0  0
  160.1220  203.9140  151.3540 C   0  0  1  0  0  3  0  0  0  0  0  0
  162.5660  203.2000  151.7370 C   0  0  0  0  0  2  0  0  0  0  0  0
  162.7050  201.8320  151.0830 C   0  0  0  0  0  2  0  0  0  0  0  0
  160.8480  202.0030  149.0880 C   0  0  0  0  0  2  0  0  0  0  0  0
  162.1530  208.3150  152.7480 C   0  0  2  0  0  3  0  0  0  0  0  0
  159.9410  209.3920  154.8920 C   0  0  0  0  0  2  0  0  0  0  0  0
  159.9180  205.1760  152.1980 C   0  0  0  0  0  2  0  0  0  0  0  0
  160.1280  203.3270  148.9080 C   0  0  0  0  0  2  0  0  0  0  0  0
  160.9560  207.3620  152.9550 C   0  0  1  0  0  3  0  0  0  0  0  0
  162.5800  210.6370  152.2820 C   0  0  0  0  0  2  0  0  0  0  0  0
  160.5050  204.2460  149.9750 N   0  0  0  0  0  0  0  0  0  0  0  0
  160.3740  201.3500  150.2430 O   0  0  0  0  0  0  0  0  0  0  0  0
  160.5400  210.1200  153.6740 C   0  0  1  0  0  3  0  0  0  0  0  0
  161.4810  206.3950  150.6800 C   0  0  0  0  0  0  0  0  0  0  0  0
  161.0960  202.9260  152.0330 C   0  0  2  0  0  3  0  0  0  0  0  0
  161.1480  206.0850  152.1220 C   0  0  2  0  0  3  0  0  0  0  0  0
  162.1700  206.9230  148.0660 C   0  0  0  0  0  3  0  0  0  0  0  0
  160.7650  208.2010  155.3890 C   0  0  0  0  0  2  0  0  0  0  0  0
  161.5530  205.7540  148.3810 N   0  0  0  0  0  0  0  0  0  0  0  0
  160.7410  207.0060  154.4330 C   0  0  0  0  0  2  0  0  0  0  0  0
  161.9950  209.7120  153.3460 C   0  0  1  0  0  3  0  0  0  0  0  0
  162.4460  207.8330  149.0360 N   0  0  0  0  0  0  0  0  0  0  0  0
  162.3800  208.5740  151.3410 N   0  0  0  0  0  0  0  0  0  0  0  0
  159.7000  209.9610  152.5650 O   0  0  0  0  0  0  0  0  0  0  0  0
  158.6410  210.8470  152.7740 C   0  0  0  0  0  2  0  0  0  0  0  0
  159.1940  214.3550  152.0580 N   0  0  0  0  0  0  0  0  0  0  0  0
  159.8280  212.4520  151.2980 O   0  0  0  0  0  0  0  0  0  0  0  0
  159.0330  212.2030  152.3060 C   0  0  0  0  0  0  0  0  0  0  0  0
  159.9300  213.7370  151.1450 N   0  0  0  0  0  0  0  0  0  0  0  0
  158.6040  213.4080  152.8170 C   0  0  0  0  0  3  0  0  0  0  0  0
  1 18  1  0  0  0  0
  1 27  1  0  0  0  0
  2 27  1  0  0  0  0
  2 14  1  0  0  0  0
  3  7  1  6  0  0  0
  3 19  1  0  0  0  0
  4 15  1  0  0  0  0
  4 18  2  0  0  0  0
  5 19  1  0  0  0  0
  5 11  1  1  0  0  0
  7  6  1  0  0  0  0
  8 16  1  0  0  0  0
  9 27  1  6  0  0  0
  9 13  1  0  0  0  0
  9 25  1  0  0  0  0
 10 22  1  0  0  0  0
 12  8  1  0  0  0  0
 12 15  1  0  0  0  0
 13 24  1  1  0  0  0
 15  5  1  0  0  0  0
 16  3  1  0  0  0  0
 17 28  1  6  0  0  0
 17 10  1  0  0  0  0
 18 20  1  0  0  0  0
 19  6  1  6  0  0  0
 20 11  1  6  0  0  0
 20 13  1  0  0  0  0
 21 23  2  0  0  0  0
 21 26  1  0  0  0  0
 23  4  1  0  0  0  0
 24 22  1  0  0  0  0
 25 14  1  6  0  0  0
 25 17  1  0  0  0  0
 26  1  2  0  0  0  0
 28 29  1  0  0  0  0
 30 34  1  0  0  0  0
 31 32  1  0  0  0  0
 32 29  1  0  0  0  0
 32 34  2  0  0  0  0
 33 31  1  0  0  0  0
 33 30  2  0  0  0  0
M  END
>  <MODEL>
4

>  <REMARK>
 VINA RESULT:      -2.9      2.669      8.026
  Name = 
  3 active torsions:
  status: ('A' for Active; 'I' for Inactive)
    1  A    between atoms: C_17  and  O_28
    2  A    between atoms: O_28  and  C_29
    3  A    between atoms: C_29  and  C_32
                            x       y       z     vdW  Elec       q    Type
                         _______ _______ _______ _____ _____    ______ ____

>  <TORSDO>
F 3

$$$$
=
 OpenBabel11122414173D

 34 41  0  0  1  0  0  0  0  0999 V2000
  162.0700  207.5160  150.4350 C   0  0  0  0  0  0  0  0  0  0  0  0
  162.5610  209.8110  151.2120 N   0  0  0  0  0  2  0  0  0  0  0  0
  161.2170  201.4360  151.2060 C   0  0  2  0  0  3  0  0  0  0  0  0
  161.1550  205.4190  149.6810 C   0  0  0  0  0  0  0  0  0  0  0  0
  160.1000  203.7860  151.3090 C   0  0  1  0  0  3  0  0  0  0  0  0
  162.5520  203.0700  151.6360 C   0  0  0  0  0  2  0  0  0  0  0  0
  162.6910  201.7340  150.9210 C   0  0  0  0  0  2  0  0  0  0  0  0
  160.8140  201.9830  148.9530 C   0  0  0  0  0  2  0  0  0  0  0  0
  162.1190  208.1330  152.8800 C   0  0  2  0  0  3  0  0  0  0  0  0
  159.9220  209.0990  155.0900 C   0  0  0  0  0  2  0  0  0  0  0  0
  159.8970  205.0080  152.2100 C   0  0  0  0  0  2  0  0  0  0  0  0
  160.0850  203.3090  148.8400 C   0  0  0  0  0  2  0  0  0  0  0  0
  160.9290  207.1640  153.0550 C   0  0  1  0  0  3  0  0  0  0  0  0
  162.5280  210.4760  152.5140 C   0  0  0  0  0  2  0  0  0  0  0  0
  160.4670  204.1810  149.9420 N   0  0  0  0  0  0  0  0  0  0  0  0
  160.3550  201.2760  150.0820 O   0  0  0  0  0  0  0  0  0  0  0  0
  160.5050  209.8850  153.9010 C   0  0  1  0  0  3  0  0  0  0  0  0
  161.4380  206.3030  150.7340 C   0  0  0  0  0  0  0  0  0  0  0  0
  161.0860  202.7750  151.9340 C   0  0  2  0  0  3  0  0  0  0  0  0
  161.1210  205.9260  152.1640 C   0  0  2  0  0  3  0  0  0  0  0  0
  162.0990  206.9520  148.1400 C   0  0  0  0  0  3  0  0  0  0  0  0
  160.7570  207.8930  155.5250 C   0  0  0  0  0  2  0  0  0  0  0  0
  161.4910  205.7660  148.4080 N   0  0  0  0  0  0  0  0  0  0  0  0
  160.7310  206.7410  154.5170 C   0  0  0  0  0  2  0  0  0  0  0  0
  161.9590  209.5010  153.5410 C   0  0  1  0  0  3  0  0  0  0  0  0
  162.3790  207.8190  149.1470 N   0  0  0  0  0  0  0  0  0  0  0  0
  162.3310  208.4560  151.4840 N   0  0  0  0  0  0  0  0  0  0  0  0
  159.6550  209.7710  152.7930 O   0  0  0  0  0  0  0  0  0  0  0  0
  159.4020  211.0810  152.3860 C   0  0  0  0  0  2  0  0  0  0  0  0
  157.7480  213.1470  154.8590 N   0  0  0  0  0  0  0  0  0  0  0  0
  157.4320  211.2620  153.8850 O   0  0  0  0  0  0  0  0  0  0  0  0
  158.5400  211.7530  153.3940 C   0  0  0  0  0  0  0  0  0  0  0  0
  156.9520  212.0910  154.7610 N   0  0  0  0  0  0  0  0  0  0  0  0
  158.7740  212.9670  154.0030 C   0  0  0  0  0  3  0  0  0  0  0  0
  1 18  1  0  0  0  0
  1 27  1  0  0  0  0
  2 27  1  0  0  0  0
  2 14  1  0  0  0  0
  3  7  1  6  0  0  0
  3 19  1  0  0  0  0
  4 15  1  0  0  0  0
  4 18  2  0  0  0  0
  5 19  1  0  0  0  0
  5 11  1  1  0  0  0
  7  6  1  0  0  0  0
  8 16  1  0  0  0  0
  9 27  1  6  0  0  0
  9 13  1  0  0  0  0
  9 25  1  0  0  0  0
 10 22  1  0  0  0  0
 12  8  1  0  0  0  0
 12 15  1  0  0  0  0
 13 24  1  1  0  0  0
 15  5  1  0  0  0  0
 16  3  1  0  0  0  0
 17 28  1  6  0  0  0
 17 10  1  0  0  0  0
 18 20  1  0  0  0  0
 19  6  1  6  0  0  0
 20 11  1  6  0  0  0
 20 13  1  0  0  0  0
 21 23  2  0  0  0  0
 21 26  1  0  0  0  0
 23  4  1  0  0  0  0
 24 22  1  0  0  0  0
 25 14  1  6  0  0  0
 25 17  1  0  0  0  0
 26  1  2  0  0  0  0
 29 28  1  0  0  0  0
 29 32  1  0  0  0  0
 31 33  1  0  0  0  0
 32 31  1  0  0  0  0
 32 34  2  0  0  0  0
 33 30  2  0  0  0  0
 34 30  1  0  0  0  0
M  END
>  <MODEL>
5

>  <REMARK>
 VINA RESULT:      -2.6      2.272      8.090
  Name = 
  3 active torsions:
  status: ('A' for Active; 'I' for Inactive)
    1  A    between atoms: C_17  and  O_28
    2  A    between atoms: O_28  and  C_29
    3  A    between atoms: C_29  and  C_32
                            x       y       z     vdW  Elec       q    Type
                         _______ _______ _______ _____ _____    ______ ____

>  <TORSDO>
F 3

$$$$
=
 OpenBabel11122414173D

 34 41  0  0  1  0  0  0  0  0999 V2000
  162.0460  209.3190  150.4320 C   0  0  0  0  0  0  0  0  0  0  0  0
  162.3840  210.5890  152.5260 N   0  0  0  0  0  2  0  0  0  0  0  0
  161.7990  204.1620  147.0210 C   0  0  2  0  0  3  0  0  0  0  0  0
  161.2700  208.1340  148.4830 C   0  0  0  0  0  0  0  0  0  0  0  0
  160.4860  205.7270  148.6360 C   0  0  1  0  0  3  0  0  0  0  0  0
  163.0090  205.2600  148.4230 C   0  0  0  0  0  2  0  0  0  0  0  0
  163.2160  204.7410  147.0070 C   0  0  0  0  0  2  0  0  0  0  0  0
  161.1870  205.9950  145.6780 C   0  0  0  0  0  2  0  0  0  0  0  0
  162.2160  208.1920  152.6810 C   0  0  2  0  0  3  0  0  0  0  0  0
  160.1060  207.2220  154.9740 C   0  0  0  0  0  2  0  0  0  0  0  0
  160.2400  206.0320  150.1160 C   0  0  0  0  0  2  0  0  0  0  0  0
  160.3350  206.9790  146.4590 C   0  0  0  0  0  2  0  0  0  0  0  0
  161.1340  207.2160  152.1730 C   0  0  1  0  0  3  0  0  0  0  0  0
  162.3860  210.2340  153.9440 C   0  0  0  0  0  2  0  0  0  0  0  0
  160.7170  206.9570  147.8650 N   0  0  0  0  0  0  0  0  0  0  0  0
  160.8760  204.6760  146.0640 O   0  0  0  0  0  0  0  0  0  0  0  0
  160.5290  208.6540  154.5950 C   0  0  1  0  0  3  0  0  0  0  0  0
  161.5480  208.1420  149.8590 C   0  0  0  0  0  0  0  0  0  0  0  0
  161.6010  204.6750  148.4480 C   0  0  2  0  0  3  0  0  0  0  0  0
  161.3700  206.8920  150.6890 C   0  0  2  0  0  3  0  0  0  0  0  0
  161.9590  210.3960  148.3300 C   0  0  0  0  0  3  0  0  0  0  0  0
  161.0760  206.1310  154.5150 C   0  0  0  0  0  2  0  0  0  0  0  0
  161.4810  209.2630  147.7520 N   0  0  0  0  0  0  0  0  0  0  0  0
  161.0800  205.9220  152.9980 C   0  0  0  0  0  2  0  0  0  0  0  0
  161.9820  208.7680  154.0770 C   0  0  1  0  0  3  0  0  0  0  0  0
  162.2320  210.4220  149.6600 N   0  0  0  0  0  0  0  0  0  0  0  0
  162.2970  209.3690  151.8410 N   0  0  0  0  0  0  0  0  0  0  0  0
  159.6160  209.1930  153.6800 O   0  0  0  0  0  0  0  0  0  0  0  0
  158.9510  210.2040  154.3760 C   0  0  0  0  0  2  0  0  0  0  0  0
  157.9840  213.2080  152.5970 N   0  0  0  0  0  0  0  0  0  0  0  0
  159.1790  211.4610  152.2480 O   0  0  0  0  0  0  0  0  0  0  0  0
  158.7090  211.3530  153.4630 C   0  0  0  0  0  0  0  0  0  0  0  0
  158.7510  212.5690  151.7240 N   0  0  0  0  0  0  0  0  0  0  0  0
  157.9310  212.4610  153.7180 C   0  0  0  0  0  3  0  0  0  0  0  0
  1 27  1  0  0  0  0
  2 14  1  0  0  0  0
  3  7  1  6  0  0  0
  3 19  1  0  0  0  0
  4 18  2  0  0  0  0
  5 11  1  1  0  0  0
  7  6  1  0  0  0  0
  8 16  1  0  0  0  0
  8 12  1  0  0  0  0
  9 27  1  6  0  0  0
  9 25  1  0  0  0  0
 12 15  1  0  0  0  0
 13  9  1  0  0  0  0
 13 24  1  1  0  0  0
 15  4  1  0  0  0  0
 15  5  1  0  0  0  0
 16  3  1  0  0  0  0
 17 28  1  6  0  0  0
 17 10  1  0  0  0  0
 18  1  1  0  0  0  0
 18 20  1  0  0  0  0
 19  6  1  6  0  0  0
 19  5  1  0  0  0  0
 20 11  1  6  0  0  0
 20 13  1  0  0  0  0
 21 26  1  0  0  0  0
 22 10  1  0  0  0  0
 23 21  2  0  0  0  0
 23  4  1  0  0  0  0
 24 22  1  0  0  0  0
 25 14  1  6  0  0  0
 25 17  1  0  0  0  0
 26  1  2  0  0  0  0
 27  2  1  0  0  0  0
 28 29  1  0  0  0  0
 30 34  1  0  0  0  0
 31 32  1  0  0  0  0
 32 34  2  0  0  0  0
 32 29  1  0  0  0  0
 33 31  1  0  0  0  0
 33 30  2  0  0  0  0
M  END
>  <MODEL>
6

>  <REMARK>
 VINA RESULT:      -2.4      2.761      8.045
  Name = 
  3 active torsions:
  status: ('A' for Active; 'I' for Inactive)
    1  A    between atoms: C_17  and  O_28
    2  A    between atoms: O_28  and  C_29
    3  A    between atoms: C_29  and  C_32
                            x       y       z     vdW  Elec       q    Type
                         _______ _______ _______ _____ _____    ______ ____

>  <TORSDO>
F 3

$$$$
