=
 OpenBabel11122413143D

 31 35  0  0  1  0  0  0  0  0999 V2000
  160.7640  209.1330  154.6480 C   0  0  0  0  0  0  0  0  0  0  0  0
  162.1450  209.9710  151.2020 C   0  0  2  0  0  3  0  0  0  0  0  0
  161.7160  208.8330  150.2850 C   0  0  0  0  0  0  0  0  0  0  0  0
  160.9260  206.5560  149.9520 C   0  0  0  0  0  0  0  0  0  0  0  0
  161.3240  210.0370  152.4670 C   0  0  0  0  0  0  0  0  0  0  0  0
  159.7490  210.0830  154.7850 C   0  0  0  0  0  3  0  0  0  0  0  0
  161.2870  207.6010  150.8050 C   0  0  0  0  0  3  0  0  0  0  0  0
  160.6980  211.7490  150.2920 N   0  0  0  0  0  0  0  0  0  0  0  0
  161.0480  207.9650  155.9200 Cl  0  0  0  0  0  0  0  0  0  0  0  0
  162.2820  210.1810  148.3360 O   0  0  0  0  0  0  0  0  0  0  0  0
  160.4790  205.3190  150.4920 N   0  0  0  0  0  1  0  0  0  0  0  0
  160.1400  212.0980  151.6030 C   0  0  0  0  0  2  0  0  0  0  0  0
  162.1020  211.3340  150.4740 C   0  0  2  0  0  3  0  0  0  0  0  0
  161.5510  209.1110  153.4930 C   0  0  0  0  0  3  0  0  0  0  0  0
  161.0030  206.7250  148.5670 C   0  0  0  0  0  3  0  0  0  0  0  0
  160.3020  210.9960  152.6090 C   0  0  0  0  0  0  0  0  0  0  0  0
  159.5270  211.0190  153.7720 C   0  0  0  0  0  3  0  0  0  0  0  0
  162.8550  211.2050  149.1430 C   0  0  0  0  0  2  0  0  0  0  0  0
  161.8230  208.9820  148.8860 C   0  0  0  0  0  0  0  0  0  0  0  0
  161.4540  207.9350  148.0370 C   0  0  0  0  0  3  0  0  0  0  0  0
  160.6440  212.9770  149.5030 C   0  0  0  0  0  2  0  0  0  0  0  0
  158.6470  214.4380  149.1200 C   0  0  0  0  0  1  0  0  0  0  0  0
  159.2890  213.0950  148.8160 C   0  0  1  0  0  3  0  0  0  0  0  0
  159.7830  212.2500  144.6590 N   0  0  0  0  0  0  0  0  0  0  0  0
  160.7460  212.9120  146.7970 C   0  0  0  0  0  2  0  0  0  0  0  0
  157.1280  212.3680  147.0460 O   0  0  0  0  0  0  0  0  0  0  0  0
  159.8760  212.4840  143.2300 C   0  0  0  0  0  1  0  0  0  0  0  0
  160.6880  213.2000  145.2990 C   0  0  0  0  0  2  0  0  0  0  0  0
  158.2640  212.5670  146.5410 C   0  0  0  0  0  0  0  0  0  0  0  0
  159.4030  212.8740  147.3740 N   0  0  0  0  0  0  0  0  0  0  0  0
  158.4140  212.5790  145.0490 C   0  0  0  0  0  2  0  0  0  0  0  0
  1  6  1  0  0  0  0
  1  9  1  0  0  0  0
  2  3  1  6  0  0  0
  2  5  1  0  0  0  0
  3  7  1  0  0  0  0
  4 11  1  0  0  0  0
  4  7  2  0  0  0  0
  5 16  2  0  0  0  0
  5 14  1  0  0  0  0
  8 13  1  0  0  0  0
  8 12  1  0  0  0  0
 10 19  1  0  0  0  0
 10 18  1  0  0  0  0
 12 16  1  0  0  0  0
 13 18  1  6  0  0  0
 13  2  1  0  0  0  0
 14  1  2  0  0  0  0
 15  4  1  0  0  0  0
 16 17  1  0  0  0  0
 17  6  2  0  0  0  0
 19  3  2  0  0  0  0
 20 15  2  0  0  0  0
 20 19  1  0  0  0  0
 21  8  1  0  0  0  0
 23 22  1  6  0  0  0
 23 21  1  0  0  0  0
 24 31  1  0  0  0  0
 24 28  1  0  0  0  0
 25 30  1  0  0  0  0
 27 24  1  0  0  0  0
 28 25  1  0  0  0  0
 29 26  2  0  0  0  0
 29 30  1  0  0  0  0
 30 23  1  0  0  0  0
 31 29  1  0  0  0  0
M  END
>  <MODEL>
1

>  <REMARK>
 VINA RESULT:      -5.6      0.000      0.000
  Name = 
  3 active torsions:
  status: ('A' for Active; 'I' for Inactive)
    1  A    between atoms: C_5  and  C_16
    2  A    between atoms: C_5  and  N_30
    3  A    between atoms: N_10  and  C_16
                            x       y       z     vdW  Elec       q    Type
                         _______ _______ _______ _____ _____    ______ ____

>  <TORSDO>
F 3

$$$$
=
 OpenBabel11122413143D

 31 35  0  0  1  0  0  0  0  0999 V2000
  162.2800  211.9100  148.7360 C   0  0  0  0  0  0  0  0  0  0  0  0
  161.6100  210.4770  152.1980 C   0  0  2  0  0  3  0  0  0  0  0  0
  160.2840  211.0730  152.6530 C   0  0  0  0  0  0  0  0  0  0  0  0
  158.5440  212.7660  152.4820 C   0  0  0  0  0  0  0  0  0  0  0  0
  161.8050  210.5720  150.7040 C   0  0  0  0  0  0  0  0  0  0  0  0
  162.0800  210.7920  147.9230 C   0  0  0  0  0  3  0  0  0  0  0  0
  159.7460  212.2130  152.0340 C   0  0  0  0  0  3  0  0  0  0  0  0
  160.8740  208.1490  151.8500 N   0  0  0  0  0  0  0  0  0  0  0  0
  162.6940  213.4510  148.0180 Cl  0  0  0  0  0  0  0  0  0  0  0  0
  160.1420  209.4140  154.4320 O   0  0  0  0  0  0  0  0  0  0  0  0
  158.0040  213.9110  151.8360 N   0  0  0  0  0  1  0  0  0  0  0  0
  161.4000  208.0860  150.4840 C   0  0  0  0  0  2  0  0  0  0  0  0
  161.7610  209.0100  152.6570 C   0  0  2  0  0  3  0  0  0  0  0  0
  162.1450  211.8000  150.1230 C   0  0  0  0  0  3  0  0  0  0  0  0
  157.8730  212.1940  153.5660 C   0  0  0  0  0  3  0  0  0  0  0  0
  161.6060  209.4460  149.8820 C   0  0  0  0  0  0  0  0  0  0  0  0
  161.7560  209.5590  148.4970 C   0  0  0  0  0  3  0  0  0  0  0  0
  161.4520  208.9290  154.1580 C   0  0  0  0  0  2  0  0  0  0  0  0
  159.6160  210.5250  153.7680 C   0  0  0  0  0  0  0  0  0  0  0  0
  158.4100  211.0780  154.2090 C   0  0  0  0  0  3  0  0  0  0  0  0
  160.9220  206.7790  152.3550 C   0  0  0  0  0  2  0  0  0  0  0  0
  163.1560  205.6670  152.5530 C   0  0  0  0  0  1  0  0  0  0  0  0
  162.0010  205.9920  151.6220 C   0  0  1  0  0  3  0  0  0  0  0  0
  160.1830  202.4950  149.9780 N   0  0  0  0  0  0  0  0  0  0  0  0
  161.0170  203.7160  151.9130 C   0  0  0  0  0  2  0  0  0  0  0  0
  161.4940  205.6040  148.8060 O   0  0  0  0  0  0  0  0  0  0  0  0
  160.0730  201.1630  149.4140 C   0  0  0  0  0  1  0  0  0  0  0  0
  160.9810  202.3710  151.1930 C   0  0  0  0  0  2  0  0  0  0  0  0
  161.2800  204.6380  149.5840 C   0  0  0  0  0  0  0  0  0  0  0  0
  161.4530  204.7810  151.0100 N   0  0  0  0  0  0  0  0  0  0  0  0
  160.9310  203.2960  149.0110 C   0  0  0  0  0  2  0  0  0  0  0  0
  1 14  1  0  0  0  0
  2  5  1  6  0  0  0
  2  3  1  0  0  0  0
  2 13  1  0  0  0  0
  3 19  1  0  0  0  0
  4 15  2  0  0  0  0
  6 17  1  0  0  0  0
  6  1  2  0  0  0  0
  7  4  1  0  0  0  0
  7  3  2  0  0  0  0
  8 21  1  0  0  0  0
  8 13  1  0  0  0  0
  9  1  1  0  0  0  0
 11  4  1  0  0  0  0
 12  8  1  0  0  0  0
 13 18  1  1  0  0  0
 14  5  2  0  0  0  0
 15 20  1  0  0  0  0
 16 12  1  0  0  0  0
 16  5  1  0  0  0  0
 17 16  2  0  0  0  0
 18 10  1  0  0  0  0
 19 20  2  0  0  0  0
 19 10  1  0  0  0  0
 23 21  1  0  0  0  0
 23 22  1  1  0  0  0
 24 28  1  0  0  0  0
 26 29  2  0  0  0  0
 27 24  1  0  0  0  0
 28 25  1  0  0  0  0
 29 30  1  0  0  0  0
 30 23  1  0  0  0  0
 30 25  1  0  0  0  0
 31 29  1  0  0  0  0
 31 24  1  0  0  0  0
M  END
>  <MODEL>
2

>  <REMARK>
 VINA RESULT:      -5.2      3.697      7.664
  Name = 
  3 active torsions:
  status: ('A' for Active; 'I' for Inactive)
    1  A    between atoms: C_5  and  C_16
    2  A    between atoms: C_5  and  N_30
    3  A    between atoms: N_10  and  C_16
                            x       y       z     vdW  Elec       q    Type
                         _______ _______ _______ _____ _____    ______ ____

>  <TORSDO>
F 3

$$$$
=
 OpenBabel11122413143D

 31 35  0  0  1  0  0  0  0  0999 V2000
  160.3750  208.0610  155.9660 C   0  0  0  0  0  0  0  0  0  0  0  0
  161.8970  209.2330  152.6800 C   0  0  2  0  0  3  0  0  0  0  0  0
  161.5420  208.1720  151.6470 C   0  0  0  0  0  0  0  0  0  0  0  0
  160.8290  205.9170  151.0750 C   0  0  0  0  0  0  0  0  0  0  0  0
  161.0150  209.1680  153.9030 C   0  0  0  0  0  0  0  0  0  0  0  0
  159.3310  208.9720  156.1350 C   0  0  0  0  0  3  0  0  0  0  0  0
  161.1220  206.8890  152.0340 C   0  0  0  0  0  3  0  0  0  0  0  0
  160.4480  211.0530  151.8590 N   0  0  0  0  0  0  0  0  0  0  0  0
  160.6290  206.7910  157.1430 Cl  0  0  0  0  0  0  0  0  0  0  0  0
  162.1640  209.7000  149.8540 O   0  0  0  0  0  0  0  0  0  0  0  0
  160.3900  204.6270  151.4820 N   0  0  0  0  0  1  0  0  0  0  0  0
  159.8190  211.2710  153.1660 C   0  0  0  0  0  2  0  0  0  0  0  0
  161.8520  210.6540  152.0740 C   0  0  2  0  0  3  0  0  0  0  0  0
  161.2170  208.1600  154.8550 C   0  0  0  0  0  3  0  0  0  0  0  0
  160.9680  206.2110  149.7160 C   0  0  0  0  0  3  0  0  0  0  0  0
  159.9620  210.0870  154.0780 C   0  0  0  0  0  0  0  0  0  0  0  0
  159.1320  209.9900  155.1990 C   0  0  0  0  0  3  0  0  0  0  0  0
  162.6710  210.6610  150.7750 C   0  0  0  0  0  2  0  0  0  0  0  0
  161.7120  208.4470  150.2730 C   0  0  0  0  0  0  0  0  0  0  0  0
  161.4110  207.4730  149.3180 C   0  0  0  0  0  3  0  0  0  0  0  0
  160.3990  212.3450  151.1790 C   0  0  0  0  0  2  0  0  0  0  0  0
  159.0910  214.1890  152.2530 C   0  0  0  0  0  1  0  0  0  0  0  0
  159.0210  212.9710  151.3480 C   0  0  1  0  0  3  0  0  0  0  0  0
  157.3710  213.7100  147.4790 N   0  0  0  0  0  0  0  0  0  0  0  0
  159.3150  213.3180  148.8940 C   0  0  0  0  0  2  0  0  0  0  0  0
  156.2080  213.3760  150.8400 O   0  0  0  0  0  0  0  0  0  0  0  0
  156.9200  214.4530  146.3180 C   0  0  0  0  0  1  0  0  0  0  0  0
  158.7280  214.1640  147.7670 C   0  0  0  0  0  2  0  0  0  0  0  0
  157.0120  213.5470  149.8860 C   0  0  0  0  0  0  0  0  0  0  0  0
  158.4240  213.3030  150.0540 N   0  0  0  0  0  0  0  0  0  0  0  0
  156.5050  214.1030  148.5890 C   0  0  0  0  0  2  0  0  0  0  0  0
  1  6  1  0  0  0  0
  1  9  1  0  0  0  0
  2  3  1  6  0  0  0
  2  5  1  0  0  0  0
  3  7  1  0  0  0  0
  4 11  1  0  0  0  0
  4  7  2  0  0  0  0
  5 16  2  0  0  0  0
  5 14  1  0  0  0  0
  8 13  1  0  0  0  0
  8 12  1  0  0  0  0
 10 19  1  0  0  0  0
 10 18  1  0  0  0  0
 12 16  1  0  0  0  0
 13 18  1  6  0  0  0
 13  2  1  0  0  0  0
 14  1  2  0  0  0  0
 15  4  1  0  0  0  0
 16 17  1  0  0  0  0
 17  6  2  0  0  0  0
 19  3  2  0  0  0  0
 20 15  2  0  0  0  0
 20 19  1  0  0  0  0
 21 23  1  0  0  0  0
 21  8  1  0  0  0  0
 23 22  1  1  0  0  0
 24 28  1  0  0  0  0
 24 31  1  0  0  0  0
 25 30  1  0  0  0  0
 27 24  1  0  0  0  0
 28 25  1  0  0  0  0
 29 30  1  0  0  0  0
 29 26  2  0  0  0  0
 30 23  1  0  0  0  0
 31 29  1  0  0  0  0
M  END
>  <MODEL>
3

>  <REMARK>
 VINA RESULT:      -4.8      1.949      2.439
  Name = 
  3 active torsions:
  status: ('A' for Active; 'I' for Inactive)
    1  A    between atoms: C_5  and  C_16
    2  A    between atoms: C_5  and  N_30
    3  A    between atoms: N_10  and  C_16
                            x       y       z     vdW  Elec       q    Type
                         _______ _______ _______ _____ _____    ______ ____

>  <TORSDO>
F 3

$$$$
=
 OpenBabel11122413143D

 31 35  0  0  1  0  0  0  0  0999 V2000
  161.2400  201.0360  148.8420 C   0  0  0  0  0  0  0  0  0  0  0  0
  162.0920  204.6620  148.0590 C   0  0  2  0  0  3  0  0  0  0  0  0
  161.3280  205.0110  146.7880 C   0  0  0  0  0  0  0  0  0  0  0  0
  160.1370  204.3450  144.7740 C   0  0  0  0  0  0  0  0  0  0  0  0
  161.5340  203.4430  148.7540 C   0  0  0  0  0  0  0  0  0  0  0  0
  160.4320  201.1720  149.9720 C   0  0  0  0  0  3  0  0  0  0  0  0
  160.8090  204.0100  145.9510 C   0  0  0  0  0  3  0  0  0  0  0  0
  160.8060  206.0320  149.6570 N   0  0  0  0  0  0  0  0  0  0  0  0
  161.5590  199.4470  148.1800 Cl  0  0  0  0  0  0  0  0  0  0  0  0
  161.7390  207.3800  147.1850 O   0  0  0  0  0  0  0  0  0  0  0  0
  159.6040  203.3210  143.9430 N   0  0  0  0  0  1  0  0  0  0  0  0
  160.5570  204.9100  150.5670 C   0  0  0  0  0  2  0  0  0  0  0  0
  162.1350  205.8540  149.0420 C   0  0  2  0  0  3  0  0  0  0  0  0
  161.7920  202.1670  148.2350 C   0  0  0  0  0  3  0  0  0  0  0  0
  159.9890  205.6860  144.4110 C   0  0  0  0  0  3  0  0  0  0  0  0
  160.7200  203.5770  149.8950 C   0  0  0  0  0  0  0  0  0  0  0  0
  160.1820  202.4400  150.5050 C   0  0  0  0  0  3  0  0  0  0  0  0
  162.6050  207.1020  148.2810 C   0  0  0  0  0  2  0  0  0  0  0  0
  161.2030  206.3600  146.3950 C   0  0  0  0  0  0  0  0  0  0  0  0
  160.5240  206.6910  145.2190 C   0  0  0  0  0  3  0  0  0  0  0  0
  160.8070  207.2270  150.4970 C   0  0  0  0  0  2  0  0  0  0  0  0
  162.5890  206.3440  152.0180 C   0  0  0  0  0  1  0  0  0  0  0  0
  161.1610  206.8550  151.9310 C   0  0  1  0  0  3  0  0  0  0  0  0
  160.3070  210.1970  154.4490 N   0  0  0  0  0  0  0  0  0  0  0  0
  160.8640  209.3130  152.2490 C   0  0  0  0  0  2  0  0  0  0  0  0
  160.6420  206.6540  154.7640 O   0  0  0  0  0  0  0  0  0  0  0  0
  160.5430  211.3220  155.3340 C   0  0  0  0  0  1  0  0  0  0  0  0
  161.1680  210.3900  153.2870 C   0  0  0  0  0  2  0  0  0  0  0  0
  160.7440  207.8040  154.2610 C   0  0  0  0  0  0  0  0  0  0  0  0
  160.9420  207.9790  152.8420 N   0  0  0  0  0  0  0  0  0  0  0  0
  160.7530  209.0030  155.1640 C   0  0  0  0  0  2  0  0  0  0  0  0
  1  6  1  0  0  0  0
  2  3  1  6  0  0  0
  2  5  1  0  0  0  0
  2 13  1  0  0  0  0
  4  7  1  0  0  0  0
  5 16  2  0  0  0  0
  6 17  2  0  0  0  0
  7  3  2  0  0  0  0
  8 21  1  0  0  0  0
  8 12  1  0  0  0  0
  9  1  1  0  0  0  0
 10 18  1  0  0  0  0
 11  4  1  0  0  0  0
 13 18  1  6  0  0  0
 13  8  1  0  0  0  0
 14  5  1  0  0  0  0
 14  1  2  0  0  0  0
 15  4  2  0  0  0  0
 15 20  1  0  0  0  0
 16 17  1  0  0  0  0
 16 12  1  0  0  0  0
 19  3  1  0  0  0  0
 19 10  1  0  0  0  0
 20 19  2  0  0  0  0
 21 23  1  0  0  0  0
 23 22  1  6  0  0  0
 23 30  1  0  0  0  0
 24 31  1  0  0  0  0
 24 27  1  0  0  0  0
 25 30  1  0  0  0  0
 25 28  1  0  0  0  0
 28 24  1  0  0  0  0
 29 26  2  0  0  0  0
 29 31  1  0  0  0  0
 30 29  1  0  0  0  0
M  END
>  <MODEL>
4

>  <REMARK>
 VINA RESULT:      -4.7      4.676      7.818
  Name = 
  3 active torsions:
  status: ('A' for Active; 'I' for Inactive)
    1  A    between atoms: C_5  and  C_16
    2  A    between atoms: C_5  and  N_30
    3  A    between atoms: N_10  and  C_16
                            x       y       z     vdW  Elec       q    Type
                         _______ _______ _______ _____ _____    ______ ____

>  <TORSDO>
F 3

$$$$
=
 OpenBabel11122413143D

 31 35  0  0  1  0  0  0  0  0999 V2000
  162.3310  210.1260  148.9420 C   0  0  0  0  0  0  0  0  0  0  0  0
  162.1940  207.5920  151.7780 C   0  0  2  0  0  3  0  0  0  0  0  0
  161.3100  208.2080  152.8540 C   0  0  0  0  0  0  0  0  0  0  0  0
  160.2380  210.1400  153.8750 C   0  0  0  0  0  0  0  0  0  0  0  0
  161.9980  208.2360  150.4280 C   0  0  0  0  0  0  0  0  0  0  0  0
  161.5670  209.4930  147.9600 C   0  0  0  0  0  3  0  0  0  0  0  0
  161.0260  209.5830  152.8650 C   0  0  0  0  0  3  0  0  0  0  0  0
  160.6760  205.7990  151.0280 N   0  0  0  0  0  0  0  0  0  0  0  0
  163.0140  211.7080  148.6360 Cl  0  0  0  0  0  0  0  0  0  0  0  0
  161.1220  206.0400  153.9510 O   0  0  0  0  0  0  0  0  0  0  0  0
  159.9460  211.5310  153.8650 N   0  0  0  0  0  1  0  0  0  0  0  0
  160.7630  206.1840  149.6160 C   0  0  0  0  0  2  0  0  0  0  0  0
  161.9770  206.0660  151.6700 C   0  0  2  0  0  3  0  0  0  0  0  0
  162.5490  209.4990  150.1720 C   0  0  0  0  0  3  0  0  0  0  0  0
  159.7360  209.3290  154.8970 C   0  0  0  0  0  3  0  0  0  0  0  0
  161.2290  207.6000  149.4340 C   0  0  0  0  0  0  0  0  0  0  0  0
  161.0270  208.2270  148.2010 C   0  0  0  0  0  3  0  0  0  0  0  0
  162.0780  205.4530  153.0740 C   0  0  0  0  0  2  0  0  0  0  0  0
  160.8270  207.4050  153.9090 C   0  0  0  0  0  0  0  0  0  0  0  0
  160.0340  207.9650  154.9140 C   0  0  0  0  0  3  0  0  0  0  0  0
  160.4100  204.3620  151.0280 C   0  0  0  0  0  2  0  0  0  0  0  0
  162.0840  202.5250  151.3270 C   0  0  0  0  0  1  0  0  0  0  0  0
  161.5810  203.6170  150.3990 C   0  0  1  0  0  3  0  0  0  0  0  0
  160.2860  202.0790  146.6310 N   0  0  0  0  0  0  0  0  0  0  0  0
  160.3220  201.9250  149.0620 C   0  0  0  0  0  2  0  0  0  0  0  0
  162.3130  204.7560  147.8500 O   0  0  0  0  0  0  0  0  0  0  0  0
  160.2850  201.2740  145.4240 C   0  0  0  0  0  1  0  0  0  0  0  0
  160.4550  201.1570  147.7500 C   0  0  0  0  0  2  0  0  0  0  0  0
  161.6740  203.6710  147.8510 C   0  0  0  0  0  0  0  0  0  0  0  0
  161.2230  203.0770  149.0870 N   0  0  0  0  0  0  0  0  0  0  0  0
  161.4640  202.9410  146.5580 C   0  0  0  0  0  2  0  0  0  0  0  0
  1 14  1  0  0  0  0
  2  5  1  6  0  0  0
  2  3  1  0  0  0  0
  3  7  2  0  0  0  0
  3 19  1  0  0  0  0
  4 15  2  0  0  0  0
  6 17  1  0  0  0  0
  6  1  2  0  0  0  0
  7  4  1  0  0  0  0
  8 21  1  0  0  0  0
  8 13  1  0  0  0  0
  9  1  1  0  0  0  0
 11  4  1  0  0  0  0
 12  8  1  0  0  0  0
 13  2  1  0  0  0  0
 13 18  1  1  0  0  0
 14  5  2  0  0  0  0
 15 20  1  0  0  0  0
 16 12  1  0  0  0  0
 16  5  1  0  0  0  0
 17 16  2  0  0  0  0
 18 10  1  0  0  0  0
 19 10  1  0  0  0  0
 19 20  2  0  0  0  0
 23 21  1  0  0  0  0
 23 22  1  1  0  0  0
 24 28  1  0  0  0  0
 25 30  1  0  0  0  0
 26 29  2  0  0  0  0
 27 24  1  0  0  0  0
 28 25  1  0  0  0  0
 29 30  1  0  0  0  0
 30 23  1  0  0  0  0
 31 24  1  0  0  0  0
 31 29  1  0  0  0  0
M  END
>  <MODEL>
5

>  <REMARK>
 VINA RESULT:      -4.5      4.155      7.837
  Name = 
  3 active torsions:
  status: ('A' for Active; 'I' for Inactive)
    1  A    between atoms: C_5  and  C_16
    2  A    between atoms: C_5  and  N_30
    3  A    between atoms: N_10  and  C_16
                            x       y       z     vdW  Elec       q    Type
                         _______ _______ _______ _____ _____    ______ ____

>  <TORSDO>
F 3

$$$$
=
 OpenBabel11122413143D

 31 35  0  0  1  0  0  0  0  0999 V2000
  158.4720  213.3450  153.1520 C   0  0  0  0  0  0  0  0  0  0  0  0
  160.9690  213.0760  150.2930 C   0  0  2  0  0  3  0  0  0  0  0  0
  161.3050  211.5960  150.1610 C   0  0  0  0  0  0  0  0  0  0  0  0
  161.3660  209.3410  151.0750 C   0  0  0  0  0  0  0  0  0  0  0  0
  159.6860  213.3140  151.0510 C   0  0  0  0  0  0  0  0  0  0  0  0
  157.2940  213.6600  152.4710 C   0  0  0  0  0  3  0  0  0  0  0  0
  161.0260  210.6900  151.1980 C   0  0  0  0  0  3  0  0  0  0  0  0
  159.6700  213.3510  148.2140 N   0  0  0  0  0  0  0  0  0  0  0  0
  158.4530  213.1580  154.8920 Cl  0  0  0  0  0  0  0  0  0  0  0  0
  162.3060  212.0100  147.9790 O   0  0  0  0  0  0  0  0  0  0  0  0
  161.0650  208.4330  152.1270 N   0  0  0  0  0  1  0  0  0  0  0  0
  158.5200  213.9470  148.8990 C   0  0  0  0  0  2  0  0  0  0  0  0
  160.9020  213.7680  148.9130 C   0  0  2  0  0  3  0  0  0  0  0  0
  159.6650  213.1750  152.4450 C   0  0  0  0  0  3  0  0  0  0  0  0
  162.0040  208.8840  149.9190 C   0  0  0  0  0  3  0  0  0  0  0  0
  158.4970  213.6340  150.3670 C   0  0  0  0  0  0  0  0  0  0  0  0
  157.3100  213.8160  151.0820 C   0  0  0  0  0  3  0  0  0  0  0  0
  162.1720  213.4200  148.1250 C   0  0  0  0  0  2  0  0  0  0  0  0
  161.9800  211.1300  149.0130 C   0  0  0  0  0  0  0  0  0  0  0  0
  162.3120  209.7780  148.8920 C   0  0  0  0  0  3  0  0  0  0  0  0
  159.6570  213.9080  146.8640 C   0  0  0  0  0  2  0  0  0  0  0  0
  157.8320  212.4540  145.9560 C   0  0  0  0  0  1  0  0  0  0  0  0
  159.3020  212.8210  145.8570 C   0  0  1  0  0  3  0  0  0  0  0  0
  160.2490  214.2210  141.9350 N   0  0  0  0  0  0  0  0  0  0  0  0
  158.5840  213.7180  143.6410 C   0  0  0  0  0  2  0  0  0  0  0  0
  161.9780  212.9240  144.7780 O   0  0  0  0  0  0  0  0  0  0  0  0
  160.4800  214.1880  140.5030 C   0  0  0  0  0  1  0  0  0  0  0  0
  158.9540  213.5890  142.1660 C   0  0  0  0  0  2  0  0  0  0  0  0
  161.0190  213.1920  144.0080 C   0  0  0  0  0  0  0  0  0  0  0  0
  159.6610  213.2190  144.4950 N   0  0  0  0  0  0  0  0  0  0  0  0
  161.2860  213.3920  142.5450 C   0  0  0  0  0  2  0  0  0  0  0  0
  1  9  1  0  0  0  0
  2  3  1  6  0  0  0
  2  5  1  0  0  0  0
  3  7  1  0  0  0  0
  4  7  2  0  0  0  0
  4 11  1  0  0  0  0
  5 14  1  0  0  0  0
  6  1  1  0  0  0  0
  8 12  1  0  0  0  0
  8 13  1  0  0  0  0
 10 18  1  0  0  0  0
 10 19  1  0  0  0  0
 12 16  1  0  0  0  0
 13 18  1  6  0  0  0
 13  2  1  0  0  0  0
 14  1  2  0  0  0  0
 15  4  1  0  0  0  0
 16  5  2  0  0  0  0
 16 17  1  0  0  0  0
 17  6  2  0  0  0  0
 19  3  2  0  0  0  0
 20 19  1  0  0  0  0
 20 15  2  0  0  0  0
 21  8  1  0  0  0  0
 23 22  1  6  0  0  0
 23 21  1  0  0  0  0
 24 28  1  0  0  0  0
 24 31  1  0  0  0  0
 25 30  1  0  0  0  0
 27 24  1  0  0  0  0
 28 25  1  0  0  0  0
 29 30  1  0  0  0  0
 29 26  2  0  0  0  0
 30 23  1  0  0  0  0
 31 29  1  0  0  0  0
M  END
>  <MODEL>
6

>  <REMARK>
 VINA RESULT:      -4.2      2.354      3.659
  Name = 
  3 active torsions:
  status: ('A' for Active; 'I' for Inactive)
    1  A    between atoms: C_5  and  C_16
    2  A    between atoms: C_5  and  N_30
    3  A    between atoms: N_10  and  C_16
                            x       y       z     vdW  Elec       q    Type
                         _______ _______ _______ _____ _____    ______ ____

>  <TORSDO>
F 3

$$$$
=
 OpenBabel11122413143D

 31 35  0  0  1  0  0  0  0  0999 V2000
  160.9790  204.7820  145.6870 C   0  0  0  0  0  0  0  0  0  0  0  0
  160.4760  206.0550  149.2390 C   0  0  2  0  0  3  0  0  0  0  0  0
  160.7700  204.8760  150.1570 C   0  0  0  0  0  0  0  0  0  0  0  0
  161.0290  202.4850  150.5290 C   0  0  0  0  0  0  0  0  0  0  0  0
  161.0510  205.8700  147.8550 C   0  0  0  0  0  0  0  0  0  0  0  0
  162.1530  205.4400  145.3150 C   0  0  0  0  0  3  0  0  0  0  0  0
  160.7880  203.5590  149.6690 C   0  0  0  0  0  3  0  0  0  0  0  0
  162.4500  207.4390  149.7620 N   0  0  0  0  0  0  0  0  0  0  0  0
  160.2000  203.6830  144.5710 Cl  0  0  0  0  0  0  0  0  0  0  0  0
  160.9040  206.3860  152.0640 O   0  0  0  0  0  0  0  0  0  0  0  0
  161.0590  201.1590  150.0180 N   0  0  0  0  0  1  0  0  0  0  0  0
  162.8340  207.5920  148.3560 C   0  0  0  0  0  2  0  0  0  0  0  0
  160.9770  207.3860  149.8440 C   0  0  2  0  0  3  0  0  0  0  0  0
  160.4270  204.9980  146.9530 C   0  0  0  0  0  3  0  0  0  0  0  0
  161.2420  202.7140  151.8910 C   0  0  0  0  0  3  0  0  0  0  0  0
  162.2340  206.5340  147.4760 C   0  0  0  0  0  0  0  0  0  0  0  0
  162.7730  206.3230  146.2030 C   0  0  0  0  0  3  0  0  0  0  0  0
  160.4630  207.4950  151.2860 C   0  0  0  0  0  2  0  0  0  0  0  0
  160.9520  205.0930  151.5390 C   0  0  0  0  0  0  0  0  0  0  0  0
  161.2000  204.0160  152.3940 C   0  0  0  0  0  3  0  0  0  0  0  0
  162.9390  208.6380  150.4370 C   0  0  0  0  0  2  0  0  0  0  0  0
  161.8660  209.8940  152.3180 C   0  0  0  0  0  1  0  0  0  0  0  0
  161.7660  209.5180  150.8500 C   0  0  1  0  0  3  0  0  0  0  0  0
  161.3740  212.8340  148.1880 N   0  0  0  0  0  0  0  0  0  0  0  0
  162.3290  210.6520  148.6980 C   0  0  0  0  0  2  0  0  0  0  0  0
  160.1980  211.8730  151.4210 O   0  0  0  0  0  0  0  0  0  0  0  0
  161.6720  214.1030  147.5510 C   0  0  0  0  0  1  0  0  0  0  0  0
  162.6090  212.0560  148.1700 C   0  0  0  0  0  2  0  0  0  0  0  0
  160.9060  211.8730  150.3800 C   0  0  0  0  0  0  0  0  0  0  0  0
  161.6680  210.7060  150.0020 N   0  0  0  0  0  0  0  0  0  0  0  0
  161.0340  213.1330  149.5770 C   0  0  0  0  0  2  0  0  0  0  0  0
  1 14  1  0  0  0  0
  2  5  1  6  0  0  0
  2 13  1  0  0  0  0
  2  3  1  0  0  0  0
  3 19  1  0  0  0  0
  4 15  2  0  0  0  0
  6  1  2  0  0  0  0
  6 17  1  0  0  0  0
  7  3  2  0  0  0  0
  7  4  1  0  0  0  0
  8 13  1  0  0  0  0
  8 21  1  0  0  0  0
  9  1  1  0  0  0  0
 11  4  1  0  0  0  0
 12  8  1  0  0  0  0
 13 18  1  1  0  0  0
 14  5  2  0  0  0  0
 15 20  1  0  0  0  0
 16  5  1  0  0  0  0
 16 12  1  0  0  0  0
 17 16  2  0  0  0  0
 18 10  1  0  0  0  0
 19 10  1  0  0  0  0
 19 20  2  0  0  0  0
 21 23  1  0  0  0  0
 23 22  1  1  0  0  0
 24 31  1  0  0  0  0
 25 30  1  0  0  0  0
 27 24  1  0  0  0  0
 28 24  1  0  0  0  0
 28 25  1  0  0  0  0
 29 26  2  0  0  0  0
 30 29  1  0  0  0  0
 30 23  1  0  0  0  0
 31 29  1  0  0  0  0
M  END
>  <MODEL>
7

>  <REMARK>
 VINA RESULT:      -4.1      3.364      6.117
  Name = 
  3 active torsions:
  status: ('A' for Active; 'I' for Inactive)
    1  A    between atoms: C_5  and  C_16
    2  A    between atoms: C_5  and  N_30
    3  A    between atoms: N_10  and  C_16
                            x       y       z     vdW  Elec       q    Type
                         _______ _______ _______ _____ _____    ______ ____

>  <TORSDO>
F 3

$$$$
=
 OpenBabel11122413143D

 31 35  0  0  1  0  0  0  0  0999 V2000
  161.1740  205.7290  145.9630 C   0  0  0  0  0  0  0  0  0  0  0  0
  160.3270  204.7070  149.5300 C   0  0  2  0  0  3  0  0  0  0  0  0
  160.7450  203.2480  149.6640 C   0  0  0  0  0  0  0  0  0  0  0  0
  161.3300  201.1060  148.6700 C   0  0  0  0  0  0  0  0  0  0  0  0
  160.9860  205.3940  148.3600 C   0  0  0  0  0  0  0  0  0  0  0  0
  162.2570  206.5870  146.1650 C   0  0  0  0  0  3  0  0  0  0  0  0
  160.9760  202.4500  148.5320 C   0  0  0  0  0  3  0  0  0  0  0  0
  162.0520  205.7250  150.9680 N   0  0  0  0  0  0  0  0  0  0  0  0
  160.6150  205.3910  144.3400 Cl  0  0  0  0  0  0  0  0  0  0  0  0
  160.5690  203.4140  152.0890 O   0  0  0  0  0  0  0  0  0  0  0  0
  161.5760  200.3130  147.5160 N   0  0  0  0  0  1  0  0  0  0  0  0
  162.4760  206.6850  149.9440 C   0  0  0  0  0  2  0  0  0  0  0  0
  160.6010  205.4980  150.8290 C   0  0  2  0  0  3  0  0  0  0  0  0
  160.5390  205.1360  147.0580 C   0  0  0  0  0  3  0  0  0  0  0  0
  161.4440  200.5400  149.9420 C   0  0  0  0  0  3  0  0  0  0  0  0
  162.0770  206.2630  148.5590 C   0  0  0  0  0  0  0  0  0  0  0  0
  162.7000  206.8630  147.4610 C   0  0  0  0  0  3  0  0  0  0  0  0
  160.0100  204.7210  152.0130 C   0  0  0  0  0  2  0  0  0  0  0  0
  160.8290  202.6580  150.9430 C   0  0  0  0  0  0  0  0  0  0  0  0
  161.1900  201.3150  151.0760 C   0  0  0  0  0  3  0  0  0  0  0  0
  162.3310  206.3690  152.2500 C   0  0  0  0  0  2  0  0  0  0  0  0
  160.8300  208.0500  151.1600 C   0  0  0  0  0  1  0  0  0  0  0  0
  161.9200  207.8350  152.1960 C   0  0  1  0  0  3  0  0  0  0  0  0
  160.9090  209.1120  156.1440 N   0  0  0  0  0  0  0  0  0  0  0  0
  161.1880  207.3130  154.5250 C   0  0  0  0  0  2  0  0  0  0  0  0
  161.8910  210.5930  153.0460 O   0  0  0  0  0  0  0  0  0  0  0  0
  160.0890  209.5420  157.2610 C   0  0  0  0  0  1  0  0  0  0  0  0
  160.2940  207.8980  155.6150 C   0  0  0  0  0  2  0  0  0  0  0  0
  161.4640  209.7230  153.8490 C   0  0  0  0  0  0  0  0  0  0  0  0
  161.5060  208.3200  153.5130 N   0  0  0  0  0  0  0  0  0  0  0  0
  160.8160  210.1590  155.1300 C   0  0  0  0  0  2  0  0  0  0  0  0
  1  6  2  0  0  0  0
  1 14  1  0  0  0  0
  2  5  1  6  0  0  0
  2  3  1  0  0  0  0
  2 13  1  0  0  0  0
  3 19  1  0  0  0  0
  4 15  2  0  0  0  0
  5 16  1  0  0  0  0
  6 17  1  0  0  0  0
  7  4  1  0  0  0  0
  7  3  2  0  0  0  0
  8 21  1  0  0  0  0
  9  1  1  0  0  0  0
 11  4  1  0  0  0  0
 12  8  1  0  0  0  0
 13  8  1  0  0  0  0
 13 18  1  1  0  0  0
 14  5  2  0  0  0  0
 15 20  1  0  0  0  0
 16 12  1  0  0  0  0
 17 16  2  0  0  0  0
 18 10  1  0  0  0  0
 19 20  2  0  0  0  0
 19 10  1  0  0  0  0
 23 22  1  6  0  0  0
 23 21  1  0  0  0  0
 23 30  1  0  0  0  0
 24 27  1  0  0  0  0
 25 28  1  0  0  0  0
 26 29  2  0  0  0  0
 28 24  1  0  0  0  0
 29 31  1  0  0  0  0
 30 29  1  0  0  0  0
 30 25  1  0  0  0  0
 31 24  1  0  0  0  0
M  END
>  <MODEL>
8

>  <REMARK>
 VINA RESULT:      -3.8      5.165      8.227
  Name = 
  3 active torsions:
  status: ('A' for Active; 'I' for Inactive)
    1  A    between atoms: C_5  and  C_16
    2  A    between atoms: C_5  and  N_30
    3  A    between atoms: N_10  and  C_16
                            x       y       z     vdW  Elec       q    Type
                         _______ _______ _______ _____ _____    ______ ____

>  <TORSDO>
F 3

$$$$
=
 OpenBabel11122413143D

 31 35  0  0  1  0  0  0  0  0999 V2000
  161.8160  203.6910  152.1930 C   0  0  0  0  0  0  0  0  0  0  0  0
  162.4540  207.1000  150.6240 C   0  0  2  0  0  3  0  0  0  0  0  0
  161.8710  207.0340  149.2180 C   0  0  0  0  0  0  0  0  0  0  0  0
  161.0760  205.7590  147.3040 C   0  0  0  0  0  0  0  0  0  0  0  0
  161.9050  206.0240  151.5290 C   0  0  0  0  0  0  0  0  0  0  0  0
  160.8310  203.9930  153.1360 C   0  0  0  0  0  3  0  0  0  0  0  0
  161.5820  205.8040  148.6060 C   0  0  0  0  0  3  0  0  0  0  0  0
  160.8160  208.6420  151.6360 N   0  0  0  0  0  0  0  0  0  0  0  0
  162.3750  202.0430  152.0080 Cl  0  0  0  0  0  0  0  0  0  0  0  0
  162.0030  209.4610  149.0440 O   0  0  0  0  0  0  0  0  0  0  0  0
  160.7730  204.5070  146.7020 N   0  0  0  0  0  1  0  0  0  0  0  0
  160.5280  207.7500  152.7630 C   0  0  0  0  0  2  0  0  0  0  0  0
  162.2360  208.4890  151.2650 C   0  0  2  0  0  3  0  0  0  0  0  0
  162.3540  204.7040  151.3940 C   0  0  0  0  0  3  0  0  0  0  0  0
  160.8680  206.9440  146.5940 C   0  0  0  0  0  3  0  0  0  0  0  0
  160.9130  206.3260  152.4830 C   0  0  0  0  0  0  0  0  0  0  0  0
  160.3890  205.3100  153.2880 C   0  0  0  0  0  3  0  0  0  0  0  0
  162.7070  209.5660  150.2780 C   0  0  0  0  0  2  0  0  0  0  0  0
  161.6900  208.2230  148.4790 C   0  0  0  0  0  0  0  0  0  0  0  0
  161.1780  208.1720  147.1800 C   0  0  0  0  0  3  0  0  0  0  0  0
  160.5790  209.9950  152.1340 C   0  0  0  0  0  2  0  0  0  0  0  0
  161.8390  210.6090  154.2080 C   0  0  0  0  0  1  0  0  0  0  0  0
  160.5640  209.9930  153.6580 C   0  0  1  0  0  3  0  0  0  0  0  0
  156.9580  211.8440  155.0000 N   0  0  0  0  0  0  0  0  0  0  0  0
  158.5850  211.4530  153.2300 C   0  0  0  0  0  2  0  0  0  0  0  0
  159.5200  209.7450  156.3370 O   0  0  0  0  0  0  0  0  0  0  0  0
  156.0800  212.8560  155.5570 C   0  0  0  0  0  1  0  0  0  0  0  0
  157.7400  212.4970  153.9550 C   0  0  0  0  0  2  0  0  0  0  0  0
  158.9460  210.5430  155.5500 C   0  0  0  0  0  0  0  0  0  0  0  0
  159.3770  210.6710  154.1790 N   0  0  0  0  0  0  0  0  0  0  0  0
  157.8630  211.4390  156.0730 C   0  0  0  0  0  2  0  0  0  0  0  0
  1  6  1  0  0  0  0
  2  3  1  6  0  0  0
  2 13  1  0  0  0  0
  2  5  1  0  0  0  0
  4  7  2  0  0  0  0
  5 16  2  0  0  0  0
  6 17  2  0  0  0  0
  7  3  1  0  0  0  0
  8 21  1  0  0  0  0
  8 12  1  0  0  0  0
  9  1  1  0  0  0  0
 10 18  1  0  0  0  0
 11  4  1  0  0  0  0
 13 18  1  6  0  0  0
 13  8  1  0  0  0  0
 14  5  1  0  0  0  0
 14  1  2  0  0  0  0
 15 20  2  0  0  0  0
 15  4  1  0  0  0  0
 16 12  1  0  0  0  0
 16 17  1  0  0  0  0
 19 10  1  0  0  0  0
 19  3  2  0  0  0  0
 20 19  1  0  0  0  0
 21 23  1  0  0  0  0
 23 30  1  0  0  0  0
 23 22  1  1  0  0  0
 24 27  1  0  0  0  0
 24 31  1  0  0  0  0
 25 28  1  0  0  0  0
 25 30  1  0  0  0  0
 28 24  1  0  0  0  0
 29 31  1  0  0  0  0
 29 26  2  0  0  0  0
 30 29  1  0  0  0  0
M  END
>  <MODEL>
9

>  <REMARK>
 VINA RESULT:      -3.5      3.830      6.213
  Name = 
  3 active torsions:
  status: ('A' for Active; 'I' for Inactive)
    1  A    between atoms: C_5  and  C_16
    2  A    between atoms: C_5  and  N_30
    3  A    between atoms: N_10  and  C_16
                            x       y       z     vdW  Elec       q    Type
                         _______ _______ _______ _____ _____    ______ ____

>  <TORSDO>
F 3

$$$$
