=
 OpenBabel11122412553D

 32 38  0  0  1  0  0  0  0  0999 V2000
  160.7520  204.0850  147.3060 C   0  0  1  0  0  3  0  0  0  0  0  0
  161.3590  208.4560  149.9830 C   0  0  2  0  0  3  0  0  0  0  0  0
  160.6730  206.9740  154.7090 C   0  0  0  0  0  3  0  0  0  0  0  0
  160.4300  208.2950  155.0830 C   0  0  0  0  0  3  0  0  0  0  0  0
  161.8400  210.9410  149.5080 C   0  0  0  0  0  0  0  0  0  0  0  0
  161.1810  212.1950  149.8540 C   0  0  0  0  0  0  0  0  0  0  0  0
  162.0670  206.5520  148.4340 C   0  0  1  0  0  3  0  0  0  0  0  0
  160.9090  206.0680  150.5970 N   0  0  0  0  0  2  0  0  0  0  0  0
  160.0810  213.6130  151.0940 N   0  0  0  0  0  0  0  0  0  0  0  0
  160.6450  204.3980  148.8000 C   0  0  2  0  0  3  0  0  0  0  0  0
  161.0280  206.6750  153.3930 C   0  0  0  0  0  3  0  0  0  0  0  0
  161.5550  207.3260  151.0230 C   0  0  2  0  0  3  0  0  0  0  0  0
  161.1330  207.6910  152.4290 C   0  0  0  0  0  0  0  0  0  0  0  0
  161.0680  210.1200  151.8240 C   0  0  0  0  0  0  0  0  0  0  0  0
  160.4030  214.1750  149.9080 C   0  0  0  0  0  3  0  0  0  0  0  0
  161.0520  205.3200  146.4290 C   0  0  0  0  0  2  0  0  0  0  0  0
  160.8680  205.8860  149.1390 C   0  0  2  0  0  3  0  0  0  0  0  0
  161.0930  213.3170  149.1110 N   0  0  0  0  0  0  0  0  0  0  0  0
  162.1600  206.2510  146.9370 C   0  0  0  0  0  2  0  0  0  0  0  0
  161.8820  203.6950  148.2510 C   0  0  1  0  0  3  0  0  0  0  0  0
  160.5540  209.3190  154.1420 C   0  0  0  0  0  3  0  0  0  0  0  0
  160.9200  209.0330  152.8150 C   0  0  0  0  0  0  0  0  0  0  0  0
  160.5000  211.3200  152.0600 C   0  0  0  0  0  3  0  0  0  0  0  0
  162.0730  208.0610  148.6790 C   0  0  0  0  0  2  0  0  0  0  0  0
  162.4680  210.8400  148.4210 O   0  0  0  0  0  0  0  0  0  0  0  0
  159.3430  214.2370  152.1790 C   0  0  0  0  0  1  0  0  0  0  0  0
  161.8410  209.8080  150.5330 C   0  0  1  0  0  3  0  0  0  0  0  0
  160.5780  212.3730  151.0500 C   0  0  0  0  0  0  0  0  0  0  0  0
  161.7900  202.2150  148.5580 C   0  0  0  0  0  2  0  0  0  0  0  0
  160.7810  201.9810  149.6280 C   0  0  0  0  0  0  0  0  0  0  0  0
  161.0820  202.3230  150.9760 N   0  0  0  0  0  1  0  0  0  0  0  0
  159.6760  201.4500  149.3460 O   0  0  0  0  0  0  0  0  0  0  0  0
  1 16  1  6  0  0  0
  1 20  1  0  0  0  0
  1 10  1  0  0  0  0
  2 24  1  6  0  0  0
  2 27  1  0  0  0  0
  2 12  1  0  0  0  0
  3  4  1  0  0  0  0
  5  6  1  0  0  0  0
  5 27  1  0  0  0  0
  6 28  2  0  0  0  0
  7 19  1  6  0  0  0
  7 24  1  0  0  0  0
  7 17  1  0  0  0  0
  8 12  1  0  0  0  0
  9 26  1  0  0  0  0
 10 17  1  0  0  0  0
 11  3  2  0  0  0  0
 12 13  1  0  0  0  0
 13 22  2  0  0  0  0
 13 11  1  0  0  0  0
 14 23  2  0  0  0  0
 14 22  1  0  0  0  0
 15  9  1  0  0  0  0
 16 19  1  0  0  0  0
 17  8  1  0  0  0  0
 18  6  1  0  0  0  0
 18 15  2  0  0  0  0
 20 29  1  0  0  0  0
 20 10  1  0  0  0  0
 21  4  2  0  0  0  0
 22 21  1  0  0  0  0
 25  5  2  0  0  0  0
 27 14  1  0  0  0  0
 28  9  1  0  0  0  0
 28 23  1  0  0  0  0
 29 30  1  0  0  0  0
 30 31  1  0  0  0  0
 32 30  2  0  0  0  0
M  END
>  <MODEL>
1

>  <REMARK>
 VINA RESULT:      -8.9      0.000      0.000
  Name = 
  2 active torsions:
  status: ('A' for Active; 'I' for Inactive)
    1  A    between atoms: C_20  and  C_29
    2  A    between atoms: C_29  and  C_30
                            x       y       z     vdW  Elec       q    Type
                         _______ _______ _______ _____ _____    ______ ____

>  <TORSDO>
F 2

$$$$
=
 OpenBabel11122412553D

 32 38  0  0  1  0  0  0  0  0999 V2000
  158.4800  211.5650  155.7890 C   0  0  1  0  0  3  0  0  0  0  0  0
  160.8790  208.1990  152.6980 C   0  0  2  0  0  3  0  0  0  0  0  0
  162.2360  211.0300  148.8060 C   0  0  0  0  0  3  0  0  0  0  0  0
  162.3870  209.8810  148.0300 C   0  0  0  0  0  3  0  0  0  0  0  0
  161.4430  205.6860  152.6750 C   0  0  0  0  0  0  0  0  0  0  0  0
  161.2070  204.5930  151.7390 C   0  0  0  0  0  0  0  0  0  0  0  0
  160.5090  209.5510  154.8340 C   0  0  1  0  0  3  0  0  0  0  0  0
  160.4200  210.6600  152.5940 N   0  0  0  0  0  2  0  0  0  0  0  0
  161.0200  203.6110  149.8000 N   0  0  0  0  0  0  0  0  0  0  0  0
  159.1190  211.7150  154.4070 C   0  0  2  0  0  3  0  0  0  0  0  0
  161.8980  210.9200  150.1550 C   0  0  0  0  0  3  0  0  0  0  0  0
  161.3640  209.5890  152.2200 C   0  0  2  0  0  3  0  0  0  0  0  0
  161.6950  209.6620  150.7450 C   0  0  0  0  0  0  0  0  0  0  0  0
  161.7120  207.1640  150.5830 C   0  0  0  0  0  0  0  0  0  0  0  0
  160.8390  202.7200  150.7990 C   0  0  0  0  0  3  0  0  0  0  0  0
  158.5180  210.1240  156.3430 C   0  0  0  0  0  2  0  0  0  0  0  0
  159.6870  210.3970  153.8410 C   0  0  2  0  0  3  0  0  0  0  0  0
  160.9520  203.3000  152.0240 N   0  0  0  0  0  0  0  0  0  0  0  0
  159.8580  209.3900  156.2090 C   0  0  0  0  0  2  0  0  0  0  0  0
  159.8470  212.2210  155.6460 C   0  0  1  0  0  3  0  0  0  0  0  0
  162.2120  208.6220  148.6070 C   0  0  0  0  0  3  0  0  0  0  0  0
  161.8800  208.4980  149.9680 C   0  0  0  0  0  0  0  0  0  0  0  0
  161.4980  206.0890  149.7970 C   0  0  0  0  0  3  0  0  0  0  0  0
  160.8460  208.1850  154.2360 C   0  0  0  0  0  2  0  0  0  0  0  0
  161.4780  205.4570  153.9130 O   0  0  0  0  0  0  0  0  0  0  0  0
  160.9640  203.3400  148.3740 C   0  0  0  0  0  1  0  0  0  0  0  0
  161.7510  207.0740  152.1160 C   0  0  1  0  0  3  0  0  0  0  0  0
  161.2550  204.7820  150.4020 C   0  0  0  0  0  0  0  0  0  0  0  0
  159.6930  213.7260  155.7340 C   0  0  0  0  0  2  0  0  0  0  0  0
  158.2830  214.0720  156.0630 C   0  0  0  0  0  0  0  0  0  0  0  0
  157.3820  214.4480  155.0280 N   0  0  0  0  0  1  0  0  0  0  0  0
  157.8950  214.0630  157.2610 O   0  0  0  0  0  0  0  0  0  0  0  0
  1 16  1  1  0  0  0
  2 24  1  1  0  0  0
  3 11  1  0  0  0  0
  4 21  1  0  0  0  0
  4  3  2  0  0  0  0
  5 25  2  0  0  0  0
  6 18  1  0  0  0  0
  6  5  1  0  0  0  0
  7 24  1  6  0  0  0
  7 19  1  0  0  0  0
  8 17  1  0  0  0  0
  9 28  1  0  0  0  0
  9 15  1  0  0  0  0
 10 20  1  0  0  0  0
 10  1  1  0  0  0  0
 11 13  2  0  0  0  0
 12  8  1  0  0  0  0
 12  2  1  0  0  0  0
 13 12  1  0  0  0  0
 14 27  1  0  0  0  0
 15 18  2  0  0  0  0
 17 10  1  0  0  0  0
 17  7  1  0  0  0  0
 19 16  1  0  0  0  0
 20 29  1  0  0  0  0
 20  1  1  0  0  0  0
 21 22  2  0  0  0  0
 22 14  1  0  0  0  0
 22 13  1  0  0  0  0
 23 28  1  0  0  0  0
 23 14  2  0  0  0  0
 26  9  1  0  0  0  0
 27  5  1  0  0  0  0
 27  2  1  0  0  0  0
 28  6  2  0  0  0  0
 29 30  1  0  0  0  0
 30 32  2  0  0  0  0
 31 30  1  0  0  0  0
M  END
>  <MODEL>
2

>  <REMARK>
 VINA RESULT:      -7.7      2.995      8.793
  Name = 
  2 active torsions:
  status: ('A' for Active; 'I' for Inactive)
    1  A    between atoms: C_20  and  C_29
    2  A    between atoms: C_29  and  C_30
                            x       y       z     vdW  Elec       q    Type
                         _______ _______ _______ _____ _____    ______ ____

>  <TORSDO>
F 2

$$$$
=
 OpenBabel11122412553D

 32 38  0  0  1  0  0  0  0  0999 V2000
  159.3310  208.8910  156.5140 C   0  0  1  0  0  3  0  0  0  0  0  0
  161.2310  207.0350  152.0890 C   0  0  2  0  0  3  0  0  0  0  0  0
  162.1140  211.1760  149.4300 C   0  0  0  0  0  3  0  0  0  0  0  0
  162.1390  210.4150  148.2620 C   0  0  0  0  0  3  0  0  0  0  0  0
  161.7370  204.7400  151.0360 C   0  0  0  0  0  0  0  0  0  0  0  0
  161.3580  204.0780  149.7930 C   0  0  0  0  0  0  0  0  0  0  0  0
  161.1750  207.4600  154.6080 C   0  0  1  0  0  3  0  0  0  0  0  0
  160.8110  209.3340  152.9930 N   0  0  0  0  0  2  0  0  0  0  0  0
  160.8950  203.9020  147.6690 N   0  0  0  0  0  0  0  0  0  0  0  0
  159.7840  209.5770  155.2230 C   0  0  2  0  0  3  0  0  0  0  0  0
  161.9570  210.5510  150.6670 C   0  0  0  0  0  3  0  0  0  0  0  0
  161.6760  208.5170  152.1180 C   0  0  2  0  0  3  0  0  0  0  0  0
  161.8090  209.1570  150.7540 C   0  0  0  0  0  0  0  0  0  0  0  0
  161.7560  206.9100  149.6500 C   0  0  0  0  0  0  0  0  0  0  0  0
  160.8310  202.6930  148.2670 C   0  0  0  0  0  3  0  0  0  0  0  0
  159.4150  207.3500  156.4670 C   0  0  0  0  0  2  0  0  0  0  0  0
  160.2450  208.5930  154.1290 C   0  0  2  0  0  3  0  0  0  0  0  0
  161.1170  202.7660  149.5940 N   0  0  0  0  0  0  0  0  0  0  0  0
  160.7100  206.7660  155.8890 C   0  0  0  0  0  2  0  0  0  0  0  0
  160.6810  209.5970  156.4560 C   0  0  1  0  0  3  0  0  0  0  0  0
  162.0170  209.0260  148.3330 C   0  0  0  0  0  3  0  0  0  0  0  0
  161.8670  208.3830  149.5740 C   0  0  0  0  0  0  0  0  0  0  0  0
  161.4180  206.2090  148.5480 C   0  0  0  0  0  3  0  0  0  0  0  0
  161.4030  206.4360  153.4950 C   0  0  0  0  0  2  0  0  0  0  0  0
  161.9330  204.0580  152.0780 O   0  0  0  0  0  0  0  0  0  0  0  0
  160.6450  204.1920  146.2680 C   0  0  0  0  0  1  0  0  0  0  0  0
  161.9950  206.2450  151.0130 C   0  0  1  0  0  3  0  0  0  0  0  0
  161.2310  204.7620  148.6360 C   0  0  0  0  0  0  0  0  0  0  0  0
  160.5690  210.9490  157.1300 C   0  0  0  0  0  2  0  0  0  0  0  0
  159.9140  211.9210  156.2110 C   0  0  0  0  0  0  0  0  0  0  0  0
  158.6560  212.4890  156.5550 N   0  0  0  0  0  1  0  0  0  0  0  0
  160.4580  212.2160  155.1150 O   0  0  0  0  0  0  0  0  0  0  0  0
  1 16  1  6  0  0  0
  2 12  1  0  0  0  0
  2 24  1  1  0  0  0
  3 11  1  0  0  0  0
  4 21  1  0  0  0  0
  4  3  2  0  0  0  0
  5 25  2  0  0  0  0
  6  5  1  0  0  0  0
  7 24  1  6  0  0  0
  7 19  1  0  0  0  0
  8 17  1  0  0  0  0
  9 15  1  0  0  0  0
  9 28  1  0  0  0  0
 10 20  1  0  0  0  0
 10  1  1  0  0  0  0
 11 13  2  0  0  0  0
 12  8  1  0  0  0  0
 13 12  1  0  0  0  0
 14 27  1  0  0  0  0
 15 18  2  0  0  0  0
 17  7  1  0  0  0  0
 17 10  1  0  0  0  0
 18  6  1  0  0  0  0
 19 16  1  0  0  0  0
 20  1  1  0  0  0  0
 20 29  1  0  0  0  0
 21 22  2  0  0  0  0
 22 14  1  0  0  0  0
 22 13  1  0  0  0  0
 23 28  1  0  0  0  0
 23 14  2  0  0  0  0
 26  9  1  0  0  0  0
 27  5  1  0  0  0  0
 27  2  1  0  0  0  0
 28  6  2  0  0  0  0
 30 31  1  0  0  0  0
 30 29  1  0  0  0  0
 32 30  2  0  0  0  0
M  END
>  <MODEL>
3

>  <REMARK>
 VINA RESULT:      -7.6      2.540      8.192
  Name = 
  2 active torsions:
  status: ('A' for Active; 'I' for Inactive)
    1  A    between atoms: C_20  and  C_29
    2  A    between atoms: C_29  and  C_30
                            x       y       z     vdW  Elec       q    Type
                         _______ _______ _______ _____ _____    ______ ____

>  <TORSDO>
F 2

$$$$
=
 OpenBabel11122412553D

 32 38  0  0  1  0  0  0  0  0999 V2000
  162.1730  203.2570  147.4960 C   0  0  1  0  0  3  0  0  0  0  0  0
  161.3210  207.0110  150.9340 C   0  0  2  0  0  3  0  0  0  0  0  0
  162.0850  211.1670  148.2610 C   0  0  0  0  0  3  0  0  0  0  0  0
  162.2530  211.8900  149.4410 C   0  0  0  0  0  3  0  0  0  0  0  0
  160.7020  207.2210  153.4250 C   0  0  0  0  0  0  0  0  0  0  0  0
  161.2900  207.9060  154.5720 C   0  0  0  0  0  0  0  0  0  0  0  0
  160.7220  204.9920  149.4890 C   0  0  1  0  0  3  0  0  0  0  0  0
  161.9020  206.9600  148.4970 N   0  0  0  0  0  2  0  0  0  0  0  0
  162.3080  209.5020  155.6550 N   0  0  0  0  0  0  0  0  0  0  0  0
  162.2610  204.7810  147.3960 C   0  0  2  0  0  3  0  0  0  0  0  0
  161.7480  209.8140  148.3130 C   0  0  0  0  0  3  0  0  0  0  0  0
  161.1880  207.7010  149.5550 C   0  0  2  0  0  3  0  0  0  0  0  0
  161.5870  209.1610  149.5450 C   0  0  0  0  0  0  0  0  0  0  0  0
  161.5170  209.2390  152.0470 C   0  0  0  0  0  0  0  0  0  0  0  0
  161.9560  208.5080  156.5000 C   0  0  0  0  0  3  0  0  0  0  0  0
  161.8050  202.7440  148.9050 C   0  0  0  0  0  2  0  0  0  0  0  0
  161.9550  205.5080  148.7210 C   0  0  2  0  0  3  0  0  0  0  0  0
  161.3160  207.4970  155.8560 N   0  0  0  0  0  0  0  0  0  0  0  0
  160.6470  203.4680  149.6020 C   0  0  0  0  0  2  0  0  0  0  0  0
  161.0660  204.0430  146.8040 C   0  0  1  0  0  3  0  0  0  0  0  0
  162.0730  211.2610  150.6740 C   0  0  0  0  0  3  0  0  0  0  0  0
  161.7250  209.9000  150.7410 C   0  0  0  0  0  0  0  0  0  0  0  0
  162.0170  209.8020  153.1670 C   0  0  0  0  0  3  0  0  0  0  0  0
  160.6310  205.6370  150.8720 C   0  0  0  0  0  2  0  0  0  0  0  0
  160.0820  206.1380  153.5900 O   0  0  0  0  0  0  0  0  0  0  0  0
  163.0090  210.7270  155.9990 C   0  0  0  0  0  1  0  0  0  0  0  0
  160.7640  207.9010  152.0580 C   0  0  1  0  0  3  0  0  0  0  0  0
  161.8810  209.1140  154.4490 C   0  0  0  0  0  0  0  0  0  0  0  0
  161.2400  203.9370  145.3030 C   0  0  0  0  0  2  0  0  0  0  0  0
  160.9990  205.2640  144.6700 C   0  0  0  0  0  0  0  0  0  0  0  0
  160.0810  206.1770  145.2610 N   0  0  0  0  0  1  0  0  0  0  0  0
  161.5810  205.5650  143.5960 O   0  0  0  0  0  0  0  0  0  0  0  0
  1 16  1  1  0  0  0
  2 24  1  6  0  0  0
  2 27  1  0  0  0  0
  3 11  2  0  0  0  0
  3  4  1  0  0  0  0
  4 21  2  0  0  0  0
  5 25  2  0  0  0  0
  5  6  1  0  0  0  0
  6 18  1  0  0  0  0
  7 19  1  1  0  0  0
  7 24  1  0  0  0  0
  8 17  1  0  0  0  0
  8 12  1  0  0  0  0
  9 26  1  0  0  0  0
  9 15  1  0  0  0  0
 10  1  1  0  0  0  0
 10 17  1  0  0  0  0
 11 13  1  0  0  0  0
 12  2  1  0  0  0  0
 13 12  1  0  0  0  0
 13 22  2  0  0  0  0
 14 27  1  0  0  0  0
 14 23  2  0  0  0  0
 16 19  1  0  0  0  0
 17  7  1  0  0  0  0
 18 15  2  0  0  0  0
 20 10  1  0  0  0  0
 20  1  1  0  0  0  0
 21 22  1  0  0  0  0
 22 14  1  0  0  0  0
 23 28  1  0  0  0  0
 27  5  1  0  0  0  0
 28  6  2  0  0  0  0
 28  9  1  0  0  0  0
 29 20  1  0  0  0  0
 30 31  1  0  0  0  0
 30 29  1  0  0  0  0
 32 30  2  0  0  0  0
M  END
>  <MODEL>
4

>  <REMARK>
 VINA RESULT:      -7.3      2.900      5.023
  Name = 
  2 active torsions:
  status: ('A' for Active; 'I' for Inactive)
    1  A    between atoms: C_20  and  C_29
    2  A    between atoms: C_29  and  C_30
                            x       y       z     vdW  Elec       q    Type
                         _______ _______ _______ _____ _____    ______ ____

>  <TORSDO>
F 2

$$$$
=
 OpenBabel11122412553D

 32 38  0  0  1  0  0  0  0  0999 V2000
  160.8190  204.0220  146.2550 C   0  0  1  0  0  3  0  0  0  0  0  0
  161.4350  207.9550  149.5390 C   0  0  2  0  0  3  0  0  0  0  0  0
  161.1490  205.7320  154.0090 C   0  0  0  0  0  3  0  0  0  0  0  0
  160.8800  206.9660  154.5990 C   0  0  0  0  0  3  0  0  0  0  0  0
  161.7790  210.5050  149.4290 C   0  0  0  0  0  0  0  0  0  0  0  0
  161.0950  211.6560  150.0080 C   0  0  0  0  0  0  0  0  0  0  0  0
  162.1080  206.3510  147.6680 C   0  0  1  0  0  3  0  0  0  0  0  0
  161.1290  205.4820  149.7990 N   0  0  0  0  0  2  0  0  0  0  0  0
  160.0290  212.8090  151.5230 N   0  0  0  0  0  0  0  0  0  0  0  0
  160.8060  204.0950  147.7830 C   0  0  2  0  0  3  0  0  0  0  0  0
  161.4210  205.6580  152.6420 C   0  0  0  0  0  3  0  0  0  0  0  0
  161.7510  206.6910  150.3740 C   0  0  2  0  0  3  0  0  0  0  0  0
  161.4160  206.8130  151.8450 C   0  0  0  0  0  0  0  0  0  0  0  0
  161.2080  209.3000  151.6320 C   0  0  0  0  0  0  0  0  0  0  0  0
  160.2430  213.5610  150.4220 C   0  0  0  0  0  3  0  0  0  0  0  0
  161.0050  205.3900  145.5640 C   0  0  0  0  0  2  0  0  0  0  0  0
  160.9920  205.5230  148.3360 C   0  0  2  0  0  3  0  0  0  0  0  0
  160.9090  212.8730  149.4570 N   0  0  0  0  0  0  0  0  0  0  0  0
  162.1070  206.2880  146.1400 C   0  0  0  0  0  2  0  0  0  0  0  0
  162.0280  203.5500  147.0530 C   0  0  1  0  0  3  0  0  0  0  0  0
  160.8940  208.1280  153.8250 C   0  0  0  0  0  3  0  0  0  0  0  0
  161.1760  208.0670  152.4480 C   0  0  0  0  0  0  0  0  0  0  0  0
  160.6100  210.4190  152.0890 C   0  0  0  0  0  3  0  0  0  0  0  0
  162.0700  207.8030  148.1460 C   0  0  0  0  0  2  0  0  0  0  0  0
  162.3320  210.6040  148.3010 O   0  0  0  0  0  0  0  0  0  0  0  0
  159.3460  213.2200  152.7370 C   0  0  0  0  0  1  0  0  0  0  0  0
  161.8990  209.2310  150.2620 C   0  0  1  0  0  3  0  0  0  0  0  0
  160.5720  211.6170  151.2530 C   0  0  0  0  0  0  0  0  0  0  0  0
  162.0190  202.0370  147.1300 C   0  0  0  0  0  2  0  0  0  0  0  0
  160.6710  201.5190  146.7690 C   0  0  0  0  0  0  0  0  0  0  0  0
  160.3560  201.2420  145.4090 N   0  0  0  0  0  1  0  0  0  0  0  0
  159.7980  201.3580  147.6610 O   0  0  0  0  0  0  0  0  0  0  0  0
  1 16  1  6  0  0  0
  1 20  1  0  0  0  0
  1 10  1  0  0  0  0
  2 24  1  6  0  0  0
  2 27  1  0  0  0  0
  2 12  1  0  0  0  0
  3  4  1  0  0  0  0
  5  6  1  0  0  0  0
  5 27  1  0  0  0  0
  6 28  2  0  0  0  0
  7 19  1  6  0  0  0
  7 24  1  0  0  0  0
  7 17  1  0  0  0  0
  8 12  1  0  0  0  0
  9 26  1  0  0  0  0
 10 17  1  0  0  0  0
 11  3  2  0  0  0  0
 12 13  1  0  0  0  0
 13 22  2  0  0  0  0
 13 11  1  0  0  0  0
 14 23  2  0  0  0  0
 14 22  1  0  0  0  0
 15  9  1  0  0  0  0
 16 19  1  0  0  0  0
 17  8  1  0  0  0  0
 18  6  1  0  0  0  0
 18 15  2  0  0  0  0
 20 29  1  0  0  0  0
 20 10  1  0  0  0  0
 21  4  2  0  0  0  0
 22 21  1  0  0  0  0
 25  5  2  0  0  0  0
 27 14  1  0  0  0  0
 28  9  1  0  0  0  0
 28 23  1  0  0  0  0
 30 29  1  0  0  0  0
 30 32  2  0  0  0  0
 31 30  1  0  0  0  0
M  END
>  <MODEL>
5

>  <REMARK>
 VINA RESULT:      -7.3      1.399      1.499
  Name = 
  2 active torsions:
  status: ('A' for Active; 'I' for Inactive)
    1  A    between atoms: C_20  and  C_29
    2  A    between atoms: C_29  and  C_30
                            x       y       z     vdW  Elec       q    Type
                         _______ _______ _______ _____ _____    ______ ____

>  <TORSDO>
F 2

$$$$
=
 OpenBabel11122412553D

 32 38  0  0  1  0  0  0  0  0999 V2000
  161.8530  202.4980  148.7060 C   0  0  1  0  0  3  0  0  0  0  0  0
  161.2110  206.6950  151.6410 C   0  0  2  0  0  3  0  0  0  0  0  0
  162.0580  210.4380  148.4360 C   0  0  0  0  0  3  0  0  0  0  0  0
  162.2780  211.3000  149.5100 C   0  0  0  0  0  3  0  0  0  0  0  0
  160.6570  207.2490  154.0950 C   0  0  0  0  0  0  0  0  0  0  0  0
  161.2940  208.0530  155.1310 C   0  0  0  0  0  0  0  0  0  0  0  0
  160.5090  204.5290  150.4820 C   0  0  1  0  0  3  0  0  0  0  0  0
  161.7340  206.3070  149.2220 N   0  0  0  0  0  2  0  0  0  0  0  0
  162.3920  209.7360  155.9800 N   0  0  0  0  0  0  0  0  0  0  0  0
  161.9920  203.9920  148.4070 C   0  0  2  0  0  3  0  0  0  0  0  0
  161.6760  209.1170  148.6700 C   0  0  0  0  0  3  0  0  0  0  0  0
  161.0700  207.2050  150.1870 C   0  0  2  0  0  3  0  0  0  0  0  0
  161.5200  208.6350  149.9800 C   0  0  0  0  0  0  0  0  0  0  0  0
  161.5100  209.0390  152.4510 C   0  0  0  0  0  0  0  0  0  0  0  0
  162.0250  208.8750  156.9530 C   0  0  0  0  0  3  0  0  0  0  0  0
  161.5000  202.1850  150.1760 C   0  0  0  0  0  2  0  0  0  0  0  0
  161.7410  204.8950  149.6310 C   0  0  2  0  0  3  0  0  0  0  0  0
  161.3350  207.8130  156.4580 N   0  0  0  0  0  0  0  0  0  0  0  0
  160.3830  203.0370  150.7940 C   0  0  0  0  0  2  0  0  0  0  0  0
  160.7580  203.2290  147.9380 C   0  0  1  0  0  3  0  0  0  0  0  0
  162.1040  210.8440  150.8170 C   0  0  0  0  0  3  0  0  0  0  0  0
  161.7110  209.5170  151.0670 C   0  0  0  0  0  0  0  0  0  0  0  0
  162.0540  209.7220  153.4790 C   0  0  0  0  0  3  0  0  0  0  0  0
  160.4730  205.3510  151.7710 C   0  0  0  0  0  2  0  0  0  0  0  0
  160.0030  206.2200  154.4110 O   0  0  0  0  0  0  0  0  0  0  0  0
  163.1430  210.9690  156.1480 C   0  0  0  0  0  1  0  0  0  0  0  0
  160.7110  207.7420  152.6500 C   0  0  1  0  0  3  0  0  0  0  0  0
  161.9240  209.2130  154.8420 C   0  0  0  0  0  0  0  0  0  0  0  0
  160.8940  202.9230  146.4600 C   0  0  0  0  0  2  0  0  0  0  0  0
  161.4650  204.1010  145.7500 C   0  0  0  0  0  0  0  0  0  0  0  0
  160.6870  205.2800  145.5880 N   0  0  0  0  0  1  0  0  0  0  0  0
  162.6250  204.0420  145.2650 O   0  0  0  0  0  0  0  0  0  0  0  0
  1 16  1  1  0  0  0
  2 24  1  6  0  0  0
  2 27  1  0  0  0  0
  3 11  2  0  0  0  0
  3  4  1  0  0  0  0
  4 21  2  0  0  0  0
  5 25  2  0  0  0  0
  5  6  1  0  0  0  0
  6 18  1  0  0  0  0
  7 19  1  1  0  0  0
  7 24  1  0  0  0  0
  8 17  1  0  0  0  0
  8 12  1  0  0  0  0
  9 26  1  0  0  0  0
  9 15  1  0  0  0  0
 10  1  1  0  0  0  0
 10 17  1  0  0  0  0
 11 13  1  0  0  0  0
 12  2  1  0  0  0  0
 13 12  1  0  0  0  0
 13 22  2  0  0  0  0
 14 27  1  0  0  0  0
 14 23  2  0  0  0  0
 16 19  1  0  0  0  0
 17  7  1  0  0  0  0
 18 15  2  0  0  0  0
 20 10  1  0  0  0  0
 20  1  1  0  0  0  0
 21 22  1  0  0  0  0
 22 14  1  0  0  0  0
 23 28  1  0  0  0  0
 27  5  1  0  0  0  0
 28  6  2  0  0  0  0
 28  9  1  0  0  0  0
 29 20  1  0  0  0  0
 30 29  1  0  0  0  0
 31 30  1  0  0  0  0
 32 30  2  0  0  0  0
M  END
>  <MODEL>
6

>  <REMARK>
 VINA RESULT:      -7.0      2.942      4.970
  Name = 
  2 active torsions:
  status: ('A' for Active; 'I' for Inactive)
    1  A    between atoms: C_20  and  C_29
    2  A    between atoms: C_29  and  C_30
                            x       y       z     vdW  Elec       q    Type
                         _______ _______ _______ _____ _____    ______ ____

>  <TORSDO>
F 2

$$$$
