=
 OpenBabel11122413533D

 37 44  0  0  1  0  0  0  0  0999 V2000
  160.8050  208.2230  151.1200 C   0  0  0  0  0  2  0  0  0  0  0  0
  160.5680  208.5190  156.0900 C   0  0  0  0  0  0  0  0  0  0  0  0
  159.3420  211.4300  153.3460 C   0  0  0  0  0  0  0  0  0  0  0  0
  161.4870  206.9810  150.5540 C   0  0  2  0  0  3  0  0  0  0  0  0
  161.5950  212.0820  150.1270 C   0  0  0  0  0  2  0  0  0  0  0  0
  159.2000  210.5280  155.5790 C   0  0  0  0  0  0  0  0  0  0  0  0
  160.1310  211.1410  152.1060 C   0  0  1  0  0  3  0  0  0  0  0  0
  162.2330  208.5070  148.6290 C   0  0  2  0  0  3  0  0  0  0  0  0
  159.6760  210.4940  154.2840 C   0  0  0  0  0  0  0  0  0  0  0  0
  160.6810  212.3820  151.3540 C   0  0  2  0  0  3  0  0  0  0  0  0
  158.2760  211.5230  155.9270 C   0  0  0  0  0  3  0  0  0  0  0  0
  162.5690  207.3100  149.5210 C   0  0  0  0  0  2  0  0  0  0  0  0
  160.7080  209.6250  153.8850 N   0  0  0  0  0  0  0  0  0  0  0  0
  159.7200  207.3280  155.6800 C   0  0  0  0  0  1  0  0  0  0  0  0
  157.9750  213.4720  152.6600 C   0  0  0  0  0  2  0  0  0  0  0  0
  157.8830  212.4760  154.9610 C   0  0  0  0  0  3  0  0  0  0  0  0
  161.4830  208.9240  154.9080 C   0  0  0  0  0  2  0  0  0  0  0  0
  162.6520  209.8810  149.1860 C   0  0  1  0  0  3  0  0  0  0  0  0
  161.5520  210.5990  149.8090 C   0  0  1  0  0  3  0  0  0  0  0  0
  158.4240  212.4510  153.6590 C   0  0  0  0  0  0  0  0  0  0  0  0
  161.2510  210.2180  152.6690 C   0  0  1  0  0  3  0  0  0  0  0  0
  159.7060  209.6000  156.4990 O   0  0  0  0  0  0  0  0  0  0  0  0
  159.5800  213.2860  151.0090 N   0  0  0  0  0  0  0  0  0  0  0  0
  161.4340  208.1100  157.2610 C   0  0  0  0  0  1  0  0  0  0  0  0
  162.5990  210.0100  150.6690 N   0  0  1  0  0  0  0  0  0  0  0  0
  160.9360  208.4780  148.1410 F   0  0  0  0  0  0  0  0  0  0  0  0
  161.8390  209.2170  151.6610 C   0  0  2  0  0  3  0  0  0  0  0  0
  159.1140  214.1340  152.0280 N   0  0  0  0  0  2  0  0  0  0  0  0
  157.4330  212.9570  149.8080 C   0  0  0  0  0  3  0  0  0  0  0  0
  158.8190  213.1770  149.7850 C   0  0  0  0  0  0  0  0  0  0  0  0
  159.4620  213.3370  148.5480 C   0  0  0  0  0  3  0  0  0  0  0  0
  159.3700  213.3970  146.1670 F   0  0  0  0  0  0  0  0  0  0  0  0
  157.3600  213.0200  147.3910 C   0  0  0  0  0  3  0  0  0  0  0  0
  158.7370  213.2530  147.3560 C   0  0  0  0  0  0  0  0  0  0  0  0
  156.7070  212.8740  148.6170 C   0  0  0  0  0  3  0  0  0  0  0  0
  161.1440  204.9310  149.1800 C   0  0  0  0  0  1  0  0  0  0  0  0
  160.4560  206.0420  149.9510 C   0  0  0  0  0  2  0  0  0  0  0  0
  1 27  1  0  0  0  0
  2 22  1  0  0  0  0
  2 24  1  0  0  0  0
  3 20  2  0  0  0  0
  3  9  1  0  0  0  0
  4 37  1  6  0  0  0
  4  1  1  0  0  0  0
  6 11  1  0  0  0  0
  6 22  1  0  0  0  0
  7 21  1  0  0  0  0
  7  3  1  1  0  0  0
  8 26  1  1  0  0  0
  8 18  1  0  0  0  0
  8 12  1  0  0  0  0
  9  6  2  0  0  0  0
 10  5  1  6  0  0  0
 10  7  1  0  0  0  0
 12  4  1  0  0  0  0
 13  9  1  0  0  0  0
 13 17  1  0  0  0  0
 14  2  1  0  0  0  0
 15 20  1  0  0  0  0
 16 11  2  0  0  0  0
 17  2  1  0  0  0  0
 18 19  1  0  0  0  0
 18 25  1  0  0  0  0
 19  5  1  0  0  0  0
 19 25  1  0  0  0  0
 20 16  1  0  0  0  0
 21 13  1  0  0  0  0
 23 10  1  0  0  0  0
 23 28  1  0  0  0  0
 25 27  1  0  0  0  0
 27 21  1  0  0  0  0
 28 15  1  0  0  0  0
 30 29  1  0  0  0  0
 30 23  1  0  0  0  0
 31 30  2  0  0  0  0
 32 34  1  0  0  0  0
 33 35  1  0  0  0  0
 34 33  2  0  0  0  0
 34 31  1  0  0  0  0
 35 29  2  0  0  0  0
 36 37  1  0  0  0  0
M  END
>  <MODEL>
1

>  <REMARK>
 VINA RESULT:      -6.1      0.000      0.000
  Name = 
  2 active torsions:
  status: ('A' for Active; 'I' for Inactive)
    1  A    between atoms: C_4  and  C_37
    2  A    between atoms: N_23  and  C_30
                            x       y       z     vdW  Elec       q    Type
                         _______ _______ _______ _____ _____    ______ ____

>  <TORSDO>
F 2

$$$$
=
 OpenBabel11122413533D

 37 44  0  0  1  0  0  0  0  0999 V2000
  160.6530  210.4610  147.8120 C   0  0  0  0  0  2  0  0  0  0  0  0
  161.5720  205.7800  146.3670 C   0  0  0  0  0  0  0  0  0  0  0  0
  161.1650  207.1540  150.2990 C   0  0  0  0  0  0  0  0  0  0  0  0
  160.6170  211.5090  146.7040 C   0  0  2  0  0  3  0  0  0  0  0  0
  162.7820  210.6630  151.2660 C   0  0  0  0  0  2  0  0  0  0  0  0
  161.1090  205.2970  148.7590 C   0  0  0  0  0  0  0  0  0  0  0  0
  161.4890  208.6150  150.2270 C   0  0  1  0  0  3  0  0  0  0  0  0
  161.5330  213.1290  148.4740 C   0  0  2  0  0  3  0  0  0  0  0  0
  161.2530  206.6420  149.0340 C   0  0  0  0  0  0  0  0  0  0  0  0
  162.3480  209.1710  151.3930 C   0  0  2  0  0  3  0  0  0  0  0  0
  160.7840  204.4300  149.8110 C   0  0  0  0  0  3  0  0  0  0  0  0
  161.5030  212.7230  146.9990 C   0  0  0  0  0  2  0  0  0  0  0  0
  161.7180  207.5600  148.0750 N   0  0  0  0  0  0  0  0  0  0  0  0
  160.2360  206.1730  145.7610 C   0  0  0  0  0  1  0  0  0  0  0  0
  160.6820  206.8230  152.7810 C   0  0  0  0  0  2  0  0  0  0  0  0
  160.6430  204.9430  151.1190 C   0  0  0  0  0  3  0  0  0  0  0  0
  162.3130  207.0560  146.8380 C   0  0  0  0  0  2  0  0  0  0  0  0
  162.5960  212.4160  149.3310 C   0  0  1  0  0  3  0  0  0  0  0  0
  162.0530  211.3080  150.1020 C   0  0  1  0  0  3  0  0  0  0  0  0
  160.8480  206.3140  151.3830 C   0  0  0  0  0  0  0  0  0  0  0  0
  162.2030  208.6980  148.8450 C   0  0  1  0  0  3  0  0  0  0  0  0
  161.3500  204.8560  147.4520 O   0  0  0  0  0  0  0  0  0  0  0  0
  161.6880  208.9000  152.6740 N   0  0  0  0  0  0  0  0  0  0  0  0
  162.4010  205.0980  145.3010 C   0  0  0  0  0  1  0  0  0  0  0  0
  162.9030  211.0140  148.9290 N   0  0  1  0  0  0  0  0  0  0  0  0
  160.2760  213.1550  149.0580 F   0  0  0  0  0  0  0  0  0  0  0  0
  162.0960  210.0580  148.1380 C   0  0  2  0  0  3  0  0  0  0  0  0
  161.8400  207.6070  153.2030 N   0  0  0  0  0  2  0  0  0  0  0  0
  159.7350  210.4210  152.4980 C   0  0  0  0  0  3  0  0  0  0  0  0
  160.7230  209.7930  153.2720 C   0  0  0  0  0  0  0  0  0  0  0  0
  160.7390  210.0090  154.6590 C   0  0  0  0  0  3  0  0  0  0  0  0
  159.8330  211.0650  156.5940 F   0  0  0  0  0  0  0  0  0  0  0  0
  158.8300  211.4840  154.4730 C   0  0  0  0  0  3  0  0  0  0  0  0
  159.8000  210.8550  155.2560 C   0  0  0  0  0  0  0  0  0  0  0  0
  158.7950  211.2660  153.0940 C   0  0  0  0  0  3  0  0  0  0  0  0
  159.0620  212.5420  145.0530 C   0  0  0  0  0  1  0  0  0  0  0  0
  159.1880  211.9560  146.4470 C   0  0  0  0  0  2  0  0  0  0  0  0
  1 27  1  0  0  0  0
  2 17  1  0  0  0  0
  2 22  1  0  0  0  0
  3 20  1  0  0  0  0
  4 37  1  1  0  0  0
  4 12  1  0  0  0  0
  4  1  1  0  0  0  0
  6  9  1  0  0  0  0
  6 11  2  0  0  0  0
  7  3  1  1  0  0  0
  7 10  1  0  0  0  0
  8 26  1  1  0  0  0
  8 18  1  0  0  0  0
  9  3  2  0  0  0  0
 10  5  1  6  0  0  0
 10 23  1  0  0  0  0
 11 16  1  0  0  0  0
 12  8  1  0  0  0  0
 13 21  1  0  0  0  0
 13  9  1  0  0  0  0
 14  2  1  0  0  0  0
 15 28  1  0  0  0  0
 16 20  2  0  0  0  0
 17 13  1  0  0  0  0
 18 19  1  0  0  0  0
 19  5  1  0  0  0  0
 20 15  1  0  0  0  0
 21  7  1  0  0  0  0
 22  6  1  0  0  0  0
 23 28  1  0  0  0  0
 23 30  1  0  0  0  0
 24  2  1  0  0  0  0
 25 18  1  0  0  0  0
 25 19  1  0  0  0  0
 27 21  1  0  0  0  0
 27 25  1  0  0  0  0
 29 35  2  0  0  0  0
 29 30  1  0  0  0  0
 30 31  2  0  0  0  0
 31 34  1  0  0  0  0
 33 34  2  0  0  0  0
 34 32  1  0  0  0  0
 35 33  1  0  0  0  0
 36 37  1  0  0  0  0
M  END
>  <MODEL>
2

>  <REMARK>
 VINA RESULT:      -4.7      2.963      6.920
  Name = 
  2 active torsions:
  status: ('A' for Active; 'I' for Inactive)
    1  A    between atoms: C_4  and  C_37
    2  A    between atoms: N_23  and  C_30
                            x       y       z     vdW  Elec       q    Type
                         _______ _______ _______ _____ _____    ______ ____

>  <TORSDO>
F 2

$$$$
