=
 OpenBabel11122414183D

 34 41  0  0  1  0  0  0  0  0999 V2000
  161.6430  209.5600  151.1220 C   0  0  0  0  0  0  0  0  0  0  0  0
  161.0680  211.3320  152.8410 C   0  0  0  0  0  3  0  0  0  0  0  0
  161.1340  203.2810  148.7030 C   0  0  0  0  0  0  0  0  0  0  0  0
  161.6850  207.7760  149.4930 C   0  0  0  0  0  0  0  0  0  0  0  0
  161.1970  205.4890  150.1690 C   0  0  0  0  0  0  0  0  0  0  0  0
  160.5900  202.7250  150.9520 S   0  0  0  0  0  0  0  0  0  0  0  0
  160.7920  202.0190  149.4140 C   0  0  0  0  0  2  0  0  0  0  0  0
  161.7360  204.9310  147.0090 C   0  0  0  0  0  3  0  0  0  0  0  0
  161.5720  209.0750  153.5870 C   0  0  2  0  0  3  0  0  0  0  0  0
  159.8150  207.9540  156.0860 C   0  0  0  0  0  2  0  0  0  0  0  0
  161.0000  205.9370  151.4790 C   0  0  0  0  0  3  0  0  0  0  0  0
  161.7780  206.0730  147.7110 C   0  0  0  0  0  3  0  0  0  0  0  0
  160.8500  207.7500  153.2420 C   0  0  1  0  0  3  0  0  0  0  0  0
  160.8580  211.2970  154.3450 C   0  0  0  0  0  3  0  0  0  0  0  0
  161.5480  206.4110  149.1470 C   0  0  0  0  0  0  0  0  0  0  0  0
  161.4310  203.5700  147.4560 C   0  0  0  0  0  3  0  0  0  0  0  0
  159.6550  209.2650  155.2960 C   0  0  2  0  0  3  0  0  0  0  0  0
  161.5060  208.1970  150.8270 C   0  0  0  0  0  0  0  0  0  0  0  0
  161.0210  204.0990  149.9170 N   0  0  0  0  0  0  0  0  0  0  0  0
  161.1700  207.2770  151.8340 C   0  0  0  0  0  0  0  0  0  0  0  0
  162.0860  210.0260  148.8490 C   0  0  0  0  0  3  0  0  0  0  0  0
  161.0680  207.1460  155.7400 C   0  0  0  0  0  2  0  0  0  0  0  0
  161.9730  208.7090  148.5410 N   0  0  0  0  0  0  0  0  0  0  0  0
  161.0980  206.6540  154.2920 C   0  0  0  0  0  2  0  0  0  0  0  0
  160.9970  209.8400  154.7950 C   0  0  1  0  0  3  0  0  0  0  0  0
  161.9190  210.4460  150.1310 N   0  0  0  0  0  0  0  0  0  0  0  0
  161.4980  210.0010  152.4740 N   0  0  0  0  0  0  0  0  0  0  0  0
  158.9720  210.1950  156.0900 O   0  0  0  0  0  0  0  0  0  0  0  0
  157.8490  210.4350  155.4410 O   0  0  0  0  0  0  0  0  0  0  0  0
  155.8090  212.8430  154.4340 C   0  0  0  0  0  2  0  0  0  0  0  0
  156.3720  211.9690  156.5010 C   0  0  0  0  0  2  0  0  0  0  0  0
  157.6020  211.7970  155.6360 C   0  0  2  0  0  3  0  0  0  0  0  0
  155.4950  212.9300  155.8510 N   0  0  0  0  0  2  0  0  0  0  0  0
  157.2620  212.4460  154.3160 C   0  0  0  0  0  2  0  0  0  0  0  0
  1 27  1  0  0  0  0
  2 14  2  0  0  0  0
  3  7  1  0  0  0  0
  3 19  1  0  0  0  0
  4 18  1  0  0  0  0
  5 11  2  0  0  0  0
  7  6  1  0  0  0  0
  8 16  1  0  0  0  0
  8 12  2  0  0  0  0
  9 27  1  6  0  0  0
  9 25  1  0  0  0  0
 11 20  1  0  0  0  0
 12 15  1  0  0  0  0
 13  9  1  0  0  0  0
 13 24  1  1  0  0  0
 15  4  2  0  0  0  0
 15  5  1  0  0  0  0
 16  3  2  0  0  0  0
 17 10  1  0  0  0  0
 17 28  1  1  0  0  0
 18  1  1  0  0  0  0
 18 20  2  0  0  0  0
 19  5  1  0  0  0  0
 19  6  1  0  0  0  0
 20 13  1  0  0  0  0
 21 26  1  0  0  0  0
 22 10  1  0  0  0  0
 23 21  2  0  0  0  0
 23  4  1  0  0  0  0
 24 22  1  0  0  0  0
 25 14  1  6  0  0  0
 25 17  1  0  0  0  0
 26  1  2  0  0  0  0
 27  2  1  0  0  0  0
 29 28  1  0  0  0  0
 30 33  1  0  0  0  0
 32 29  1  6  0  0  0
 32 31  1  0  0  0  0
 33 31  1  0  0  0  0
 34 30  1  0  0  0  0
 34 32  1  0  0  0  0
M  END
>  <MODEL>
1

>  <REMARK>
 VINA RESULT:     -10.1      0.000      0.000
  Name = 
  3 active torsions:
  status: ('A' for Active; 'I' for Inactive)
    1  A    between atoms: C_17  and  O_28
    2  A    between atoms: O_28  and  O_29
    3  A    between atoms: O_29  and  C_32
                            x       y       z     vdW  Elec       q    Type
                         _______ _______ _______ _____ _____    ______ ____

>  <TORSDO>
F 3

$$$$
=
 OpenBabel11122414183D

 34 41  0  0  1  0  0  0  0  0999 V2000
  160.8480  207.0750  154.2010 C   0  0  0  0  0  0  0  0  0  0  0  0
  161.2290  204.8170  153.1130 C   0  0  0  0  0  3  0  0  0  0  0  0
  158.9240  213.5350  153.8980 C   0  0  0  0  0  0  0  0  0  0  0  0
  160.0340  209.2090  154.9860 C   0  0  0  0  0  0  0  0  0  0  0  0
  159.7800  211.0690  153.4370 C   0  0  0  0  0  0  0  0  0  0  0  0
  159.4420  213.3230  151.5860 S   0  0  0  0  0  0  0  0  0  0  0  0
  158.8740  214.4530  152.7270 C   0  0  0  0  0  2  0  0  0  0  0  0
  158.7750  212.5790  156.1380 C   0  0  0  0  0  3  0  0  0  0  0  0
  161.8890  206.8320  151.9260 C   0  0  2  0  0  3  0  0  0  0  0  0
  161.4140  206.8320  148.7060 C   0  0  0  0  0  2  0  0  0  0  0  0
  160.2320  210.2460  152.4020 C   0  0  0  0  0  3  0  0  0  0  0  0
  159.2000  211.3210  155.9510 C   0  0  0  0  0  3  0  0  0  0  0  0
  161.0140  208.0240  151.4670 C   0  0  1  0  0  3  0  0  0  0  0  0
  161.7310  204.3900  151.7450 C   0  0  0  0  0  3  0  0  0  0  0  0
  159.6740  210.5590  154.7590 C   0  0  0  0  0  0  0  0  0  0  0  0
  158.6300  213.6700  155.1720 C   0  0  0  0  0  3  0  0  0  0  0  0
  160.9850  205.7880  149.7530 C   0  0  2  0  0  3  0  0  0  0  0  0
  160.5120  208.4080  153.9300 C   0  0  0  0  0  0  0  0  0  0  0  0
  159.4280  212.4080  153.1050 N   0  0  0  0  0  0  0  0  0  0  0  0
  160.6230  208.9240  152.6280 C   0  0  0  0  0  0  0  0  0  0  0  0
  160.2230  207.3570  156.4610 C   0  0  0  0  0  3  0  0  0  0  0  0
  162.3190  207.9430  149.2450 C   0  0  0  0  0  2  0  0  0  0  0  0
  159.9060  208.6570  156.2270 N   0  0  0  0  0  0  0  0  0  0  0  0
  161.6530  208.8130  150.3110 C   0  0  0  0  0  2  0  0  0  0  0  0
  161.9780  205.6610  150.9280 C   0  0  1  0  0  3  0  0  0  0  0  0
  160.6880  206.5740  155.4530 N   0  0  0  0  0  0  0  0  0  0  0  0
  161.3650  206.2570  153.1490 N   0  0  0  0  0  0  0  0  0  0  0  0
  160.7970  204.5550  149.1140 O   0  0  0  0  0  0  0  0  0  0  0  0
  161.0750  204.7840  147.8450 O   0  0  0  0  0  0  0  0  0  0  0  0
  160.5220  201.5680  147.2740 C   0  0  0  0  0  2  0  0  0  0  0  0
  161.3130  203.3200  145.9860 C   0  0  0  0  0  2  0  0  0  0  0  0
  161.7350  203.6330  147.4060 C   0  0  2  0  0  3  0  0  0  0  0  0
  160.9430  201.9140  145.9270 N   0  0  0  0  0  2  0  0  0  0  0  0
  161.2950  202.4480  148.2300 C   0  0  0  0  0  2  0  0  0  0  0  0
  1 26  1  0  0  0  0
  2 27  1  0  0  0  0
  3 16  2  0  0  0  0
  4 23  2  0  0  0  0
  5 15  2  0  0  0  0
  6  7  1  0  0  0  0
  6 19  1  0  0  0  0
  7  3  1  0  0  0  0
  9 27  1  1  0  0  0
 10 22  1  0  0  0  0
 10 17  1  0  0  0  0
 11 20  2  0  0  0  0
 11  5  1  0  0  0  0
 12  8  2  0  0  0  0
 13 24  1  6  0  0  0
 13  9  1  0  0  0  0
 13 20  1  0  0  0  0
 14  2  2  0  0  0  0
 15  4  1  0  0  0  0
 15 12  1  0  0  0  0
 16  8  1  0  0  0  0
 17 28  1  6  0  0  0
 17 25  1  0  0  0  0
 18  1  2  0  0  0  0
 18  4  1  0  0  0  0
 19  5  1  0  0  0  0
 19  3  1  0  0  0  0
 20 18  1  0  0  0  0
 22 24  1  0  0  0  0
 23 21  1  0  0  0  0
 25 14  1  1  0  0  0
 25  9  1  0  0  0  0
 26 21  2  0  0  0  0
 27  1  1  0  0  0  0
 29 28  1  0  0  0  0
 30 34  1  0  0  0  0
 31 32  1  0  0  0  0
 32 29  1  1  0  0  0
 32 34  1  0  0  0  0
 33 31  1  0  0  0  0
 33 30  1  0  0  0  0
M  END
>  <MODEL>
2

>  <REMARK>
 VINA RESULT:      -9.9      3.576      9.003
  Name = 
  3 active torsions:
  status: ('A' for Active; 'I' for Inactive)
    1  A    between atoms: C_17  and  O_28
    2  A    between atoms: O_28  and  O_29
    3  A    between atoms: O_29  and  C_32
                            x       y       z     vdW  Elec       q    Type
                         _______ _______ _______ _____ _____    ______ ____

>  <TORSDO>
F 3

$$$$
=
 OpenBabel11122414183D

 34 41  0  0  1  0  0  0  0  0999 V2000
  161.6620  209.3030  150.8260 C   0  0  0  0  0  0  0  0  0  0  0  0
  161.0770  211.1110  152.5030 C   0  0  0  0  0  3  0  0  0  0  0  0
  161.1310  202.9840  148.5180 C   0  0  0  0  0  0  0  0  0  0  0  0
  161.7110  207.4880  149.2320 C   0  0  0  0  0  0  0  0  0  0  0  0
  161.1930  205.2180  149.9430 C   0  0  0  0  0  0  0  0  0  0  0  0
  160.5490  202.4750  150.7680 S   0  0  0  0  0  0  0  0  0  0  0  0
  160.7670  201.7390  149.2470 C   0  0  0  0  0  2  0  0  0  0  0  0
  161.7730  204.5970  146.8020 C   0  0  0  0  0  3  0  0  0  0  0  0
  161.5500  208.8650  153.2990 C   0  0  2  0  0  3  0  0  0  0  0  0
  159.7460  207.8060  155.7920 C   0  0  0  0  0  2  0  0  0  0  0  0
  160.9800  205.6920  151.2410 C   0  0  0  0  0  3  0  0  0  0  0  0
  161.8150  205.7510  147.4840 C   0  0  0  0  0  3  0  0  0  0  0  0
  160.8210  207.5390  152.9680 C   0  0  1  0  0  3  0  0  0  0  0  0
  160.8450  211.1070  154.0040 C   0  0  0  0  0  3  0  0  0  0  0  0
  161.5660  206.1180  148.9090 C   0  0  0  0  0  0  0  0  0  0  0  0
  161.4480  203.2470  147.2700 C   0  0  0  0  0  3  0  0  0  0  0  0
  159.6100  209.1030  154.9750 C   0  0  2  0  0  3  0  0  0  0  0  0
  161.5170  207.9360  150.5550 C   0  0  0  0  0  0  0  0  0  0  0  0
  161.0070  203.8260  149.7140 N   0  0  0  0  0  0  0  0  0  0  0  0
  161.1570  207.0370  151.5740 C   0  0  0  0  0  0  0  0  0  0  0  0
  162.1410  209.7220  148.5520 C   0  0  0  0  0  3  0  0  0  0  0  0
  160.9970  206.9810  155.4790 C   0  0  0  0  0  2  0  0  0  0  0  0
  162.0220  208.4000  148.2670 N   0  0  0  0  0  0  0  0  0  0  0  0
  161.0440  206.4610  154.0420 C   0  0  0  0  0  2  0  0  0  0  0  0
  160.9640  209.6570  154.4830 C   0  0  1  0  0  3  0  0  0  0  0  0
  161.9600  210.1670  149.8230 N   0  0  0  0  0  0  0  0  0  0  0  0
  161.5010  209.7700  152.1670 N   0  0  0  0  0  0  0  0  0  0  0  0
  158.9230  210.0540  155.7420 O   0  0  0  0  0  0  0  0  0  0  0  0
  159.7650  210.3910  156.7000 O   0  0  0  0  0  0  0  0  0  0  0  0
  159.7090  213.6710  156.2400 C   0  0  0  0  0  2  0  0  0  0  0  0
  158.0770  212.0400  156.4080 C   0  0  0  0  0  2  0  0  0  0  0  0
  159.2290  211.5530  157.2600 C   0  0  2  0  0  3  0  0  0  0  0  0
  158.2740  213.4580  156.1500 N   0  0  0  0  0  2  0  0  0  0  0  0
  160.2570  212.6580  157.2190 C   0  0  0  0  0  2  0  0  0  0  0  0
  1 27  1  0  0  0  0
  2 14  2  0  0  0  0
  3  7  1  0  0  0  0
  3 19  1  0  0  0  0
  4 18  1  0  0  0  0
  5 11  2  0  0  0  0
  7  6  1  0  0  0  0
  8 16  1  0  0  0  0
  8 12  2  0  0  0  0
  9 27  1  6  0  0  0
  9 25  1  0  0  0  0
 11 20  1  0  0  0  0
 12 15  1  0  0  0  0
 13  9  1  0  0  0  0
 13 24  1  1  0  0  0
 15  4  2  0  0  0  0
 15  5  1  0  0  0  0
 16  3  2  0  0  0  0
 17 28  1  1  0  0  0
 17 10  1  0  0  0  0
 18  1  1  0  0  0  0
 18 20  2  0  0  0  0
 19  5  1  0  0  0  0
 19  6  1  0  0  0  0
 20 13  1  0  0  0  0
 21 26  1  0  0  0  0
 22 10  1  0  0  0  0
 23 21  2  0  0  0  0
 23  4  1  0  0  0  0
 24 22  1  0  0  0  0
 25 14  1  6  0  0  0
 25 17  1  0  0  0  0
 26  1  2  0  0  0  0
 27  2  1  0  0  0  0
 28 29  1  0  0  0  0
 30 34  1  0  0  0  0
 31 32  1  0  0  0  0
 32 29  1  6  0  0  0
 33 30  1  0  0  0  0
 33 31  1  0  0  0  0
 34 32  1  0  0  0  0
M  END
>  <MODEL>
3

>  <REMARK>
 VINA RESULT:      -9.7      1.054      1.351
  Name = 
  3 active torsions:
  status: ('A' for Active; 'I' for Inactive)
    1  A    between atoms: C_17  and  O_28
    2  A    between atoms: O_28  and  O_29
    3  A    between atoms: O_29  and  C_32
                            x       y       z     vdW  Elec       q    Type
                         _______ _______ _______ _____ _____    ______ ____

>  <TORSDO>
F 3

$$$$
