=
 OpenBabel11122414423D

 34 41  0  0  1  0  0  0  0  0999 V2000
  161.2110  204.9940  151.7750 C   0  0  2  0  0  3  0  0  0  0  0  0
  161.2020  206.5700  153.7270 C   0  0  0  0  0  2  0  0  0  0  0  0
  161.8230  203.8420  145.0050 C   0  0  2  0  0  3  0  0  0  0  0  0
  161.4210  203.6470  149.6480 C   0  0  1  0  0  3  0  0  0  0  0  0
  161.2220  204.8180  147.3820 C   0  0  2  0  0  3  0  0  0  0  0  0
  163.3830  204.8830  146.4150 O   0  0  0  0  0  0  0  0  0  0  0  0
  160.4290  203.7280  144.8590 O   0  0  0  0  0  0  0  0  0  0  0  0
  160.6050  202.0720  146.5540 C   0  0  0  0  0  2  0  0  0  0  0  0
  160.4350  207.4320  151.6530 C   0  0  2  0  0  3  0  0  0  0  0  0
  162.1030  210.0980  151.0490 C   0  0  0  0  0  2  0  0  0  0  0  0
  161.6300  206.0220  148.2430 C   0  0  0  0  0  2  0  0  0  0  0  0
  161.4990  202.3940  147.5810 O   0  0  0  0  0  0  0  0  0  0  0  0
  161.1990  207.3580  150.3200 C   0  0  1  0  0  3  0  0  0  0  0  0
  160.9970  207.9470  153.9150 O   0  0  0  0  0  0  0  0  0  0  0  0
  160.9440  203.5270  148.1990 C   0  0  1  0  0  3  0  0  0  0  0  0
  161.1060  202.5290  145.1740 C   0  0  2  0  0  3  0  0  0  0  0  0
  162.2610  209.1890  152.2640 C   0  0  2  0  0  3  0  0  0  0  0  0
  160.7160  204.8330  150.3270 C   0  0  2  0  0  3  0  0  0  0  0  0
  162.2120  204.5670  146.2700 C   0  0  0  0  0  0  0  0  0  0  0  0
  160.7590  206.1460  149.4950 C   0  0  2  0  0  3  0  0  0  0  0  0
  161.6560  202.5200  151.8630 C   0  0  0  0  0  2  0  0  0  0  0  0
  162.1580  209.2870  149.7600 C   0  0  0  0  0  2  0  0  0  0  0  0
  161.1420  202.3690  150.4340 C   0  0  0  0  0  2  0  0  0  0  0  0
  160.9860  208.5390  149.6000 O   0  0  0  0  0  0  0  0  0  0  0  0
  160.9240  208.5130  152.6270 C   0  0  1  0  0  3  0  0  0  0  0  0
  160.9690  203.6970  152.5510 C   0  0  0  0  0  2  0  0  0  0  0  0
  160.4850  206.1540  152.4650 C   0  0  1  0  0  3  0  0  0  0  0  0
  162.7150  209.9530  153.3430 O   0  0  0  0  0  0  0  0  0  0  0  0
  161.6170  210.7370  153.7140 C   0  0  0  0  0  2  0  0  0  0  0  0
  162.4530  209.6580  156.9100 C   0  0  0  0  0  3  0  0  0  0  0  0
  160.6380  210.4690  155.9100 O   0  0  0  0  0  0  0  0  0  0  0  0
  161.6840  211.0990  155.1930 C   0  0  1  0  0  3  0  0  0  0  0  0
  161.1340  209.6460  156.9030 C   0  0  0  0  0  3  0  0  0  0  0  0
  162.9620  210.5590  155.8350 C   0  0  0  0  0  2  0  0  0  0  0  0
  1 27  1  0  0  0  0
  1 26  1  1  0  0  0
  2 14  1  0  0  0  0
  3  7  1  6  0  0  0
  3 16  1  0  0  0  0
  3 19  1  0  0  0  0
  4 18  1  0  0  0  0
  4 23  1  1  0  0  0
  5 15  1  0  0  0  0
  5 11  1  1  0  0  0
  7 16  1  0  0  0  0
  8 12  1  0  0  0  0
  9 27  1  0  0  0  0
  9 25  1  0  0  0  0
 10 17  1  0  0  0  0
 11 20  1  0  0  0  0
 12 15  1  0  0  0  0
 13  9  1  0  0  0  0
 15  4  1  0  0  0  0
 16  8  1  0  0  0  0
 17 25  1  0  0  0  0
 17 28  1  0  0  0  0
 18  1  1  0  0  0  0
 19  6  2  0  0  0  0
 19  5  1  0  0  0  0
 20 13  1  0  0  0  0
 20 18  1  0  0  0  0
 21 26  1  0  0  0  0
 22 10  1  0  0  0  0
 23 21  1  0  0  0  0
 24 22  1  0  0  0  0
 24 13  1  0  0  0  0
 25 14  1  0  0  0  0
 27  2  1  0  0  0  0
 28 29  1  0  0  0  0
 29 32  1  0  0  0  0
 31 33  1  0  0  0  0
 32 34  1  0  0  0  0
 32 31  1  0  0  0  0
 33 30  2  0  0  0  0
 34 30  1  0  0  0  0
M  END
>  <MODEL>
1

>  <REMARK>
 VINA RESULT:      -9.1      0.000      0.000
  Name = 
  3 active torsions:
  status: ('A' for Active; 'I' for Inactive)
    1  A    between atoms: C_17  and  O_28
    2  A    between atoms: O_28  and  C_29
    3  A    between atoms: C_29  and  C_32
                            x       y       z     vdW  Elec       q    Type
                         _______ _______ _______ _____ _____    ______ ____

>  <TORSDO>
F 3

$$$$
=
 OpenBabel11122414423D

 34 41  0  0  1  0  0  0  0  0999 V2000
  160.8690  209.2520  152.0160 C   0  0  2  0  0  3  0  0  0  0  0  0
  160.8290  206.9750  153.0680 C   0  0  0  0  0  2  0  0  0  0  0  0
  161.5950  213.2820  146.4690 C   0  0  2  0  0  3  0  0  0  0  0  0
  160.8230  211.3830  150.6580 C   0  0  1  0  0  3  0  0  0  0  0  0
  161.8520  211.4150  148.3170 C   0  0  2  0  0  3  0  0  0  0  0  0
  160.0750  211.5170  146.7540 O   0  0  0  0  0  0  0  0  0  0  0  0
  162.9040  213.6310  146.8460 O   0  0  0  0  0  0  0  0  0  0  0  0
  161.9050  214.2900  148.8990 C   0  0  0  0  0  2  0  0  0  0  0  0
  162.2630  207.2660  151.1990 C   0  0  2  0  0  3  0  0  0  0  0  0
  161.5430  204.9780  149.0760 C   0  0  0  0  0  2  0  0  0  0  0  0
  161.5810  209.9080  148.4430 C   0  0  0  0  0  2  0  0  0  0  0  0
  160.9100  213.4200  149.3580 O   0  0  0  0  0  0  0  0  0  0  0  0
  161.8440  207.8400  149.8350 C   0  0  1  0  0  3  0  0  0  0  0  0
  161.3370  205.7040  152.7500 O   0  0  0  0  0  0  0  0  0  0  0  0
  161.5800  212.2130  149.6210 C   0  0  1  0  0  3  0  0  0  0  0  0
  161.8830  214.4530  147.3710 C   0  0  2  0  0  3  0  0  0  0  0  0
  160.8700  205.2010  150.4260 C   0  0  2  0  0  3  0  0  0  0  0  0
  161.6330  210.1220  151.0020 C   0  0  2  0  0  3  0  0  0  0  0  0
  161.1230  212.0150  147.1390 C   0  0  0  0  0  0  0  0  0  0  0  0
  162.1330  209.3420  149.7530 C   0  0  2  0  0  3  0  0  0  0  0  0
  159.7840  211.3300  152.9280 C   0  0  0  0  0  2  0  0  0  0  0  0
  161.5840  206.2740  148.2750 C   0  0  0  0  0  2  0  0  0  0  0  0
  160.5630  212.1840  151.9320 C   0  0  0  0  0  2  0  0  0  0  0  0
  162.5230  207.1580  148.8180 O   0  0  0  0  0  0  0  0  0  0  0  0
  161.8580  205.8050  151.4450 C   0  0  1  0  0  3  0  0  0  0  0  0
  160.5720  210.0700  153.2750 C   0  0  0  0  0  2  0  0  0  0  0  0
  161.6890  208.0120  152.3860 C   0  0  1  0  0  3  0  0  0  0  0  0
  160.3900  203.9770  150.8990 O   0  0  0  0  0  0  0  0  0  0  0  0
  161.2420  203.0180  150.3390 C   0  0  0  0  0  2  0  0  0  0  0  0
  161.3720  200.4640  147.9850 C   0  0  0  0  0  3  0  0  0  0  0  0
  160.2780  202.3890  148.2110 O   0  0  0  0  0  0  0  0  0  0  0  0
  160.4480  201.9780  149.5560 C   0  0  1  0  0  3  0  0  0  0  0  0
  160.8250  201.4720  147.3340 C   0  0  0  0  0  3  0  0  0  0  0  0
  161.2160  200.6610  149.4560 C   0  0  0  0  0  2  0  0  0  0  0  0
  1 27  1  0  0  0  0
  1 26  1  1  0  0  0
  3  7  1  1  0  0  0
  3 19  1  0  0  0  0
  3 16  1  0  0  0  0
  4 18  1  0  0  0  0
  4 23  1  1  0  0  0
  5 11  1  1  0  0  0
  5 15  1  0  0  0  0
  6 19  2  0  0  0  0
  7 16  1  0  0  0  0
  8 12  1  0  0  0  0
  9 25  1  0  0  0  0
  9 27  1  0  0  0  0
 10 17  1  0  0  0  0
 11 20  1  0  0  0  0
 12 15  1  0  0  0  0
 13  9  1  0  0  0  0
 14  2  1  0  0  0  0
 15  4  1  0  0  0  0
 16  8  1  0  0  0  0
 17 28  1  0  0  0  0
 17 25  1  0  0  0  0
 18  1  1  0  0  0  0
 19  5  1  0  0  0  0
 20 13  1  0  0  0  0
 20 18  1  0  0  0  0
 21 26  1  0  0  0  0
 22 24  1  0  0  0  0
 22 10  1  0  0  0  0
 23 21  1  0  0  0  0
 24 13  1  0  0  0  0
 25 14  1  0  0  0  0
 27  2  1  0  0  0  0
 29 28  1  0  0  0  0
 30 34  1  0  0  0  0
 31 32  1  0  0  0  0
 32 29  1  0  0  0  0
 33 30  2  0  0  0  0
 33 31  1  0  0  0  0
 34 32  1  0  0  0  0
M  END
>  <MODEL>
2

>  <REMARK>
 VINA RESULT:      -7.9      2.748      7.937
  Name = 
  3 active torsions:
  status: ('A' for Active; 'I' for Inactive)
    1  A    between atoms: C_17  and  O_28
    2  A    between atoms: O_28  and  C_29
    3  A    between atoms: C_29  and  C_32
                            x       y       z     vdW  Elec       q    Type
                         _______ _______ _______ _____ _____    ______ ____

>  <TORSDO>
F 3

$$$$
=
 OpenBabel11122414423D

 34 41  0  0  1  0  0  0  0  0999 V2000
  160.6740  207.4160  153.9320 C   0  0  2  0  0  3  0  0  0  0  0  0
  161.5620  205.5910  152.4570 C   0  0  0  0  0  2  0  0  0  0  0  0
  158.8410  213.9940  154.8840 C   0  0  2  0  0  3  0  0  0  0  0  0
  159.6790  209.4120  155.1200 C   0  0  1  0  0  3  0  0  0  0  0  0
  160.0690  211.7630  154.1910 C   0  0  2  0  0  3  0  0  0  0  0  0
  158.0250  212.5130  153.2570 O   0  0  0  0  0  0  0  0  0  0  0  0
  160.0380  214.2690  155.5690 O   0  0  0  0  0  0  0  0  0  0  0  0
  159.4030  212.4520  156.9630 C   0  0  0  0  0  2  0  0  0  0  0  0
  162.3600  207.7860  152.0400 C   0  0  2  0  0  3  0  0  0  0  0  0
  161.8710  208.4090  148.9370 C   0  0  0  0  0  2  0  0  0  0  0  0
  160.2950  210.9530  152.9050 C   0  0  0  0  0  2  0  0  0  0  0  0
  158.8480  211.3680  156.2750 O   0  0  0  0  0  0  0  0  0  0  0  0
  161.4800  209.0290  151.8210 C   0  0  1  0  0  3  0  0  0  0  0  0
  162.3330  205.5220  151.2850 O   0  0  0  0  0  0  0  0  0  0  0  0
  159.8890  210.8880  155.4600 C   0  0  1  0  0  3  0  0  0  0  0  0
  158.9730  213.8040  156.3720 C   0  0  2  0  0  3  0  0  0  0  0  0
  161.5010  207.1230  149.6690 C   0  0  2  0  0  3  0  0  0  0  0  0
  160.8840  208.8910  154.3180 C   0  0  2  0  0  3  0  0  0  0  0  0
  158.9380  212.7510  154.0340 C   0  0  0  0  0  0  0  0  0  0  0  0
  161.2830  209.8060  153.1260 C   0  0  2  0  0  3  0  0  0  0  0  0
  159.2690  207.1100  155.9960 C   0  0  0  0  0  2  0  0  0  0  0  0
  161.3360  209.6260  149.6820 C   0  0  0  0  0  2  0  0  0  0  0  0
  159.5020  208.5690  156.3800 C   0  0  0  0  0  2  0  0  0  0  0  0
  162.0710  209.8480  150.8520 O   0  0  0  0  0  0  0  0  0  0  0  0
  162.4770  206.8470  150.8310 C   0  0  1  0  0  3  0  0  0  0  0  0
  160.4550  206.5790  155.1940 C   0  0  0  0  0  2  0  0  0  0  0  0
  161.8890  206.8850  153.1620 C   0  0  1  0  0  3  0  0  0  0  0  0
  161.5320  206.0620  148.7610 O   0  0  0  0  0  0  0  0  0  0  0  0
  162.0430  206.6140  147.5810 C   0  0  0  0  0  2  0  0  0  0  0  0
  161.2760  204.2890  145.1150 C   0  0  0  0  0  3  0  0  0  0  0  0
  162.2100  204.2430  147.1340 O   0  0  0  0  0  0  0  0  0  0  0  0
  162.5800  205.5250  146.6600 C   0  0  1  0  0  3  0  0  0  0  0  0
  161.4600  203.5580  146.1980 C   0  0  0  0  0  3  0  0  0  0  0  0
  161.9440  205.6140  145.2730 C   0  0  0  0  0  2  0  0  0  0  0  0
  1 18  1  0  0  0  0
  1 26  1  1  0  0  0
  2 27  1  0  0  0  0
  3 19  1  6  0  0  0
  3  7  1  0  0  0  0
  3 16  1  0  0  0  0
  4 15  1  0  0  0  0
  4 23  1  1  0  0  0
  5 11  1  6  0  0  0
  5 15  1  0  0  0  0
  6 19  2  0  0  0  0
  7 16  1  0  0  0  0
  9 27  1  0  0  0  0
 10 17  1  0  0  0  0
 10 22  1  0  0  0  0
 11 20  1  0  0  0  0
 12  8  1  0  0  0  0
 13  9  1  0  0  0  0
 13 20  1  0  0  0  0
 14  2  1  0  0  0  0
 15 12  1  0  0  0  0
 16  8  1  0  0  0  0
 17 25  1  0  0  0  0
 18  4  1  0  0  0  0
 19  5  1  0  0  0  0
 20 18  1  0  0  0  0
 21 23  1  0  0  0  0
 22 24  1  0  0  0  0
 24 13  1  0  0  0  0
 25 14  1  0  0  0  0
 25  9  1  0  0  0  0
 26 21  1  0  0  0  0
 27  1  1  0  0  0  0
 28 17  1  0  0  0  0
 29 28  1  0  0  0  0
 30 34  1  0  0  0  0
 30 33  2  0  0  0  0
 32 31  1  0  0  0  0
 32 29  1  0  0  0  0
 33 31  1  0  0  0  0
 34 32  1  0  0  0  0
M  END
>  <MODEL>
3

>  <REMARK>
 VINA RESULT:      -7.8      2.244      8.919
  Name = 
  3 active torsions:
  status: ('A' for Active; 'I' for Inactive)
    1  A    between atoms: C_17  and  O_28
    2  A    between atoms: O_28  and  C_29
    3  A    between atoms: C_29  and  C_32
                            x       y       z     vdW  Elec       q    Type
                         _______ _______ _______ _____ _____    ______ ____

>  <TORSDO>
F 3

$$$$
=
 OpenBabel11122414423D

 34 41  0  0  1  0  0  0  0  0999 V2000
  161.4240  207.4080  149.2570 C   0  0  2  0  0  3  0  0  0  0  0  0
  161.6180  209.5160  150.6030 C   0  0  0  0  0  2  0  0  0  0  0  0
  160.5010  200.5840  148.9060 C   0  0  2  0  0  3  0  0  0  0  0  0
  161.0420  205.1580  148.1720 C   0  0  1  0  0  3  0  0  0  0  0  0
  161.2540  203.0260  149.5680 C   0  0  2  0  0  3  0  0  0  0  0  0
  159.0730  202.1620  149.8940 O   0  0  0  0  0  0  0  0  0  0  0  0
  161.8770  200.3690  148.7100 O   0  0  0  0  0  0  0  0  0  0  0  0
  161.6330  201.8820  146.8940 C   0  0  0  0  0  2  0  0  0  0  0  0
  162.3780  207.5170  151.6320 C   0  0  2  0  0  3  0  0  0  0  0  0
  160.8970  207.2730  154.4610 C   0  0  0  0  0  2  0  0  0  0  0  0
  160.9660  204.0270  150.6970 C   0  0  0  0  0  2  0  0  0  0  0  0
  160.8010  202.9730  147.1630 O   0  0  0  0  0  0  0  0  0  0  0  0
  161.5670  206.2160  151.7610 C   0  0  1  0  0  3  0  0  0  0  0  0
  161.9330  209.8430  151.9330 O   0  0  0  0  0  0  0  0  0  0  0  0
  161.4600  203.6870  148.1790 C   0  0  1  0  0  3  0  0  0  0  0  0
  161.1230  200.5810  147.5350 C   0  0  2  0  0  3  0  0  0  0  0  0
  160.7110  208.3880  153.4370 C   0  0  2  0  0  3  0  0  0  0  0  0
  161.8580  205.9310  149.2220 C   0  0  2  0  0  3  0  0  0  0  0  0
  160.2110  201.9350  149.5130 C   0  0  0  0  0  0  0  0  0  0  0  0
  161.8860  205.2480  150.6180 C   0  0  2  0  0  3  0  0  0  0  0  0
  160.7970  207.2470  146.8270 C   0  0  0  0  0  2  0  0  0  0  0  0
  160.7370  205.9070  153.8030 C   0  0  0  0  0  2  0  0  0  0  0  0
  161.2500  205.7900  146.7980 C   0  0  0  0  0  2  0  0  0  0  0  0
  161.8440  205.6190  152.9960 O   0  0  0  0  0  0  0  0  0  0  0  0
  162.0040  208.6210  152.6310 C   0  0  1  0  0  3  0  0  0  0  0  0
  161.5940  208.0280  147.8690 C   0  0  0  0  0  2  0  0  0  0  0  0
  162.2590  208.1880  150.2790 C   0  0  1  0  0  3  0  0  0  0  0  0
  160.3520  209.5610  154.1070 O   0  0  0  0  0  0  0  0  0  0  0  0
  160.0040  209.1440  155.3970 C   0  0  0  0  0  2  0  0  0  0  0  0
  162.9200  210.7640  156.3740 C   0  0  0  0  0  3  0  0  0  0  0  0
  161.5430  209.2570  157.2610 O   0  0  0  0  0  0  0  0  0  0  0  0
  160.6700  210.0230  156.4500 C   0  0  1  0  0  3  0  0  0  0  0  0
  162.8390  209.7300  157.1910 C   0  0  0  0  0  3  0  0  0  0  0  0
  161.5760  211.0680  155.8000 C   0  0  0  0  0  2  0  0  0  0  0  0
  1 26  1  6  0  0  0
  1 27  1  0  0  0  0
  2 14  1  0  0  0  0
  3  7  1  1  0  0  0
  3 19  1  0  0  0  0
  4 23  1  6  0  0  0
  4 15  1  0  0  0  0
  4 18  1  0  0  0  0
  5 11  1  1  0  0  0
  8 12  1  0  0  0  0
  8 16  1  0  0  0  0
  9 13  1  0  0  0  0
  9 25  1  0  0  0  0
 12 15  1  0  0  0  0
 13 24  1  0  0  0  0
 14 25  1  0  0  0  0
 15  5  1  0  0  0  0
 16  7  1  0  0  0  0
 16  3  1  0  0  0  0
 17 28  1  0  0  0  0
 17 10  1  0  0  0  0
 18  1  1  0  0  0  0
 18 20  1  0  0  0  0
 19  5  1  0  0  0  0
 19  6  2  0  0  0  0
 20 11  1  0  0  0  0
 20 13  1  0  0  0  0
 21 26  1  0  0  0  0
 22 10  1  0  0  0  0
 23 21  1  0  0  0  0
 24 22  1  0  0  0  0
 25 17  1  0  0  0  0
 27  2  1  0  0  0  0
 27  9  1  0  0  0  0
 28 29  1  0  0  0  0
 29 32  1  0  0  0  0
 30 33  2  0  0  0  0
 32 31  1  0  0  0  0
 33 31  1  0  0  0  0
 34 30  1  0  0  0  0
 34 32  1  0  0  0  0
M  END
>  <MODEL>
4

>  <REMARK>
 VINA RESULT:      -7.2      1.544      3.584
  Name = 
  3 active torsions:
  status: ('A' for Active; 'I' for Inactive)
    1  A    between atoms: C_17  and  O_28
    2  A    between atoms: O_28  and  C_29
    3  A    between atoms: C_29  and  C_32
                            x       y       z     vdW  Elec       q    Type
                         _______ _______ _______ _____ _____    ______ ____

>  <TORSDO>
F 3

$$$$
=
 OpenBabel11122414423D

 34 41  0  0  1  0  0  0  0  0999 V2000
  160.7720  207.5560  153.8730 C   0  0  2  0  0  3  0  0  0  0  0  0
  161.7600  205.7530  152.4350 C   0  0  0  0  0  2  0  0  0  0  0  0
  158.6160  214.0530  154.7020 C   0  0  2  0  0  3  0  0  0  0  0  0
  159.6710  209.5210  155.0200 C   0  0  1  0  0  3  0  0  0  0  0  0
  159.9560  211.8720  154.0560 C   0  0  2  0  0  3  0  0  0  0  0  0
  157.8870  212.5080  153.0930 O   0  0  0  0  0  0  0  0  0  0  0  0
  159.7920  214.3960  155.3930 O   0  0  0  0  0  0  0  0  0  0  0  0
  159.2330  212.5730  156.8110 C   0  0  0  0  0  2  0  0  0  0  0  0
  162.4550  207.9780  151.9890 C   0  0  2  0  0  3  0  0  0  0  0  0
  161.9650  208.5270  148.8720 C   0  0  0  0  0  2  0  0  0  0  0  0
  160.2320  211.0540  152.7860 C   0  0  0  0  0  2  0  0  0  0  0  0
  158.7370  211.4520  156.1370 O   0  0  0  0  0  0  0  0  0  0  0  0
  161.5190  209.1720  151.7420 C   0  0  1  0  0  3  0  0  0  0  0  0
  162.5440  205.7030  151.2710 O   0  0  0  0  0  0  0  0  0  0  0  0
  159.8070  211.0110  155.3380 C   0  0  1  0  0  3  0  0  0  0  0  0
  158.7430  213.8930  156.1950 C   0  0  2  0  0  3  0  0  0  0  0  0
  161.6510  207.2360  149.6220 C   0  0  2  0  0  3  0  0  0  0  0  0
  160.9070  209.0460  154.2370 C   0  0  2  0  0  3  0  0  0  0  0  0
  158.7800  212.8020  153.8740 C   0  0  0  0  0  0  0  0  0  0  0  0
  161.2720  209.9600  153.0330 C   0  0  2  0  0  3  0  0  0  0  0  0
  159.3650  207.2160  155.9300 C   0  0  0  0  0  2  0  0  0  0  0  0
  161.3640  209.7280  149.5930 C   0  0  0  0  0  2  0  0  0  0  0  0
  159.5240  208.6900  156.2920 C   0  0  0  0  0  2  0  0  0  0  0  0
  162.0770  210.0040  150.7650 O   0  0  0  0  0  0  0  0  0  0  0  0
  162.6280  207.0260  150.7960 C   0  0  1  0  0  3  0  0  0  0  0  0
  160.5820  206.7300  155.1470 C   0  0  0  0  0  2  0  0  0  0  0  0
  162.0180  207.0730  153.1220 C   0  0  1  0  0  3  0  0  0  0  0  0
  161.7400  206.1630  148.7320 O   0  0  0  0  0  0  0  0  0  0  0  0
  160.7350  205.2770  149.1360 C   0  0  0  0  0  2  0  0  0  0  0  0
  160.5110  201.9540  148.1430 C   0  0  0  0  0  3  0  0  0  0  0  0
  160.4030  203.0690  150.0660 O   0  0  0  0  0  0  0  0  0  0  0  0
  161.2900  203.8670  149.3040 C   0  0  1  0  0  3  0  0  0  0  0  0
  159.9830  201.9630  149.3510 C   0  0  0  0  0  3  0  0  0  0  0  0
  161.3860  203.1490  147.9580 C   0  0  0  0  0  2  0  0  0  0  0  0
  1 18  1  0  0  0  0
  1 26  1  1  0  0  0
  2 27  1  0  0  0  0
  3 19  1  6  0  0  0
  3  7  1  0  0  0  0
  3 16  1  0  0  0  0
  4 15  1  0  0  0  0
  4 23  1  1  0  0  0
  5 11  1  6  0  0  0
  5 15  1  0  0  0  0
  6 19  2  0  0  0  0
  7 16  1  0  0  0  0
  9 27  1  0  0  0  0
 10 22  1  0  0  0  0
 10 17  1  0  0  0  0
 11 20  1  0  0  0  0
 12  8  1  0  0  0  0
 13  9  1  0  0  0  0
 13 20  1  0  0  0  0
 14  2  1  0  0  0  0
 15 12  1  0  0  0  0
 16  8  1  0  0  0  0
 17 25  1  0  0  0  0
 18  4  1  0  0  0  0
 19  5  1  0  0  0  0
 20 18  1  0  0  0  0
 21 23  1  0  0  0  0
 22 24  1  0  0  0  0
 24 13  1  0  0  0  0
 25 14  1  0  0  0  0
 25  9  1  0  0  0  0
 26 21  1  0  0  0  0
 27  1  1  0  0  0  0
 28 29  1  0  0  0  0
 28 17  1  0  0  0  0
 29 32  1  0  0  0  0
 30 33  2  0  0  0  0
 32 31  1  0  0  0  0
 33 31  1  0  0  0  0
 34 30  1  0  0  0  0
 34 32  1  0  0  0  0
M  END
>  <MODEL>
5

>  <REMARK>
 VINA RESULT:      -7.2      2.339      8.697
  Name = 
  3 active torsions:
  status: ('A' for Active; 'I' for Inactive)
    1  A    between atoms: C_17  and  O_28
    2  A    between atoms: O_28  and  C_29
    3  A    between atoms: C_29  and  C_32
                            x       y       z     vdW  Elec       q    Type
                         _______ _______ _______ _____ _____    ______ ____

>  <TORSDO>
F 3

$$$$
=
 OpenBabel11122414423D

 34 41  0  0  1  0  0  0  0  0999 V2000
  161.4140  207.3880  149.3570 C   0  0  2  0  0  3  0  0  0  0  0  0
  161.5820  209.4450  150.7840 C   0  0  0  0  0  2  0  0  0  0  0  0
  160.5320  200.5780  148.7380 C   0  0  2  0  0  3  0  0  0  0  0  0
  161.0550  205.1800  148.1830 C   0  0  1  0  0  3  0  0  0  0  0  0
  161.2640  202.9970  149.4990 C   0  0  2  0  0  3  0  0  0  0  0  0
  159.0840  202.1100  149.7690 O   0  0  0  0  0  0  0  0  0  0  0  0
  161.9100  200.3780  148.5480 O   0  0  0  0  0  0  0  0  0  0  0  0
  161.6770  201.9570  146.7870 C   0  0  0  0  0  2  0  0  0  0  0  0
  162.3430  207.4120  151.7430 C   0  0  2  0  0  3  0  0  0  0  0  0
  160.8340  207.0530  154.5460 C   0  0  0  0  0  2  0  0  0  0  0  0
  160.9600  203.9540  150.6620 C   0  0  0  0  0  2  0  0  0  0  0  0
  160.8360  203.0330  147.0900 O   0  0  0  0  0  0  0  0  0  0  0  0
  161.5370  206.1040  151.8150 C   0  0  1  0  0  3  0  0  0  0  0  0
  161.8820  209.7220  152.1280 O   0  0  0  0  0  0  0  0  0  0  0  0
  161.4810  203.7110  148.1390 C   0  0  1  0  0  3  0  0  0  0  0  0
  161.1670  200.6310  147.3730 C   0  0  2  0  0  3  0  0  0  0  0  0
  160.6530  208.2060  153.5630 C   0  0  2  0  0  3  0  0  0  0  0  0
  161.8550  205.9170  149.2700 C   0  0  2  0  0  3  0  0  0  0  0  0
  160.2280  201.9040  149.3920 C   0  0  0  0  0  0  0  0  0  0  0  0
  161.8730  205.1800  150.6390 C   0  0  2  0  0  3  0  0  0  0  0  0
  160.8120  207.3170  146.9160 C   0  0  0  0  0  2  0  0  0  0  0  0
  160.6890  205.7130  153.8350 C   0  0  0  0  0  2  0  0  0  0  0  0
  161.2740  205.8650  146.8360 C   0  0  0  0  0  2  0  0  0  0  0  0
  161.8060  205.4610  153.0290 O   0  0  0  0  0  0  0  0  0  0  0  0
  161.9530  208.4760  152.7800 C   0  0  1  0  0  3  0  0  0  0  0  0
  161.5940  208.0620  147.9950 C   0  0  0  0  0  2  0  0  0  0  0  0
  162.2340  208.1330  150.4160 C   0  0  1  0  0  3  0  0  0  0  0  0
  160.2810  209.3500  154.2740 O   0  0  0  0  0  0  0  0  0  0  0  0
  161.0960  209.3460  155.4120 C   0  0  0  0  0  2  0  0  0  0  0  0
  160.1910  212.2800  157.0400 C   0  0  0  0  0  3  0  0  0  0  0  0
  160.8300  211.7120  154.9850 O   0  0  0  0  0  0  0  0  0  0  0  0
  161.5120  210.7630  155.7870 C   0  0  1  0  0  3  0  0  0  0  0  0
  160.0810  212.5780  155.7600 C   0  0  0  0  0  3  0  0  0  0  0  0
  161.0890  211.1020  157.2160 C   0  0  0  0  0  2  0  0  0  0  0  0
  1 26  1  6  0  0  0
  1 27  1  0  0  0  0
  2 14  1  0  0  0  0
  3  7  1  1  0  0  0
  3 19  1  0  0  0  0
  4 23  1  6  0  0  0
  4 18  1  0  0  0  0
  5 11  1  1  0  0  0
  8 12  1  0  0  0  0
  8 16  1  0  0  0  0
  9 13  1  0  0  0  0
  9 25  1  0  0  0  0
 12 15  1  0  0  0  0
 13 24  1  0  0  0  0
 14 25  1  0  0  0  0
 15  4  1  0  0  0  0
 15  5  1  0  0  0  0
 16  7  1  0  0  0  0
 16  3  1  0  0  0  0
 17 28  1  0  0  0  0
 17 10  1  0  0  0  0
 18  1  1  0  0  0  0
 18 20  1  0  0  0  0
 19  5  1  0  0  0  0
 19  6  2  0  0  0  0
 20 11  1  0  0  0  0
 20 13  1  0  0  0  0
 21 26  1  0  0  0  0
 22 10  1  0  0  0  0
 23 21  1  0  0  0  0
 24 22  1  0  0  0  0
 25 17  1  0  0  0  0
 27  2  1  0  0  0  0
 27  9  1  0  0  0  0
 28 29  1  0  0  0  0
 29 32  1  0  0  0  0
 30 34  1  0  0  0  0
 31 33  1  0  0  0  0
 31 32  1  0  0  0  0
 32 34  1  0  0  0  0
 33 30  2  0  0  0  0
M  END
>  <MODEL>
6

>  <REMARK>
 VINA RESULT:      -7.0      1.617      3.628
  Name = 
  3 active torsions:
  status: ('A' for Active; 'I' for Inactive)
    1  A    between atoms: C_17  and  O_28
    2  A    between atoms: O_28  and  C_29
    3  A    between atoms: C_29  and  C_32
                            x       y       z     vdW  Elec       q    Type
                         _______ _______ _______ _____ _____    ______ ____

>  <TORSDO>
F 3

$$$$
