=
 OpenBabel11122413263D

 31 35  0  0  1  0  0  0  0  0999 V2000
  160.9780  204.4070  145.3970 C   0  0  0  0  0  0  0  0  0  0  0  0
  160.5070  205.9280  148.8570 C   0  0  2  0  0  3  0  0  0  0  0  0
  160.8910  204.8730  149.8830 C   0  0  0  0  0  0  0  0  0  0  0  0
  161.1500  202.5240  150.4730 C   0  0  0  0  0  0  0  0  0  0  0  0
  161.0600  205.6500  147.4790 C   0  0  0  0  0  0  0  0  0  0  0  0
  162.0930  205.1080  144.9300 C   0  0  0  0  0  3  0  0  0  0  0  0
  160.8810  203.5140  149.5270 C   0  0  0  0  0  3  0  0  0  0  0  0
  162.3480  207.6490  149.1110 C   0  0  2  0  0  3  0  0  0  0  0  0
  160.3980  203.4620  144.6180 F   0  0  0  0  0  0  0  0  0  0  0  0
  161.1610  206.6470  151.6970 C   0  0  0  0  0  2  0  0  0  0  0  0
  161.1500  201.0930  150.0710 C   0  0  0  0  0  1  0  0  0  0  0  0
  162.7470  207.3850  147.7660 O   0  0  0  0  0  0  0  0  0  0  0  0
  160.8500  207.3630  149.3050 C   0  0  2  0  0  3  0  0  0  0  0  0
  160.4610  204.6790  146.6660 C   0  0  0  0  0  3  0  0  0  0  0  0
  161.4110  202.8770  151.7970 C   0  0  0  0  0  3  0  0  0  0  0  0
  162.1750  206.3650  147.0000 C   0  0  0  0  0  0  0  0  0  0  0  0
  162.6870  206.0890  145.7290 C   0  0  0  0  0  3  0  0  0  0  0  0
  160.4090  207.5790  150.7530 C   0  0  0  0  0  2  0  0  0  0  0  0
  161.1190  205.2190  151.2370 C   0  0  0  0  0  0  0  0  0  0  0  0
  161.3970  204.2190  152.1760 C   0  0  0  0  0  3  0  0  0  0  0  0
  161.2780  209.9230  147.7740 O   0  0  0  0  0  0  0  0  0  0  0  0
  162.0680  210.1320  148.7350 C   0  0  0  0  0  0  0  0  0  0  0  0
  162.6460  209.0350  149.4440 N   0  0  0  0  0  2  0  0  0  0  0  0
  161.1240  213.6250  147.5920 N   0  0  0  0  0  0  0  0  0  0  0  0
  161.1950  212.2960  149.6540 C   0  0  0  0  0  2  0  0  0  0  0  0
  164.1670  211.5730  147.4670 O   0  0  0  0  0  1  0  0  0  0  0  0
  160.2380  214.0430  146.5210 C   0  0  0  0  0  1  0  0  0  0  0  0
  160.3340  212.7810  148.4850 C   0  0  0  0  0  2  0  0  0  0  0  0
  163.1470  212.3280  148.0470 C   0  0  2  0  0  3  0  0  0  0  0  0
  162.4220  211.5320  149.1450 C   0  0  2  0  0  3  0  0  0  0  0  0
  162.1650  212.8050  146.9780 C   0  0  0  0  0  2  0  0  0  0  0  0
  1 14  1  0  0  0  0
  2  5  1  6  0  0  0
  2 13  1  0  0  0  0
  2  3  1  0  0  0  0
  3 19  1  0  0  0  0
  4 15  2  0  0  0  0
  6  1  2  0  0  0  0
  6 17  1  0  0  0  0
  7  3  2  0  0  0  0
  7  4  1  0  0  0  0
  8 13  1  0  0  0  0
  8 23  1  6  0  0  0
  9  1  1  0  0  0  0
 11  4  1  0  0  0  0
 12  8  1  0  0  0  0
 13 18  1  1  0  0  0
 14  5  2  0  0  0  0
 15 20  1  0  0  0  0
 16  5  1  0  0  0  0
 16 12  1  0  0  0  0
 17 16  2  0  0  0  0
 18 10  1  0  0  0  0
 19 10  1  0  0  0  0
 19 20  2  0  0  0  0
 21 22  2  0  0  0  0
 22 23  1  0  0  0  0
 24 28  1  0  0  0  0
 27 24  1  0  0  0  0
 28 25  1  0  0  0  0
 29 26  1  6  0  0  0
 29 30  1  0  0  0  0
 30 22  1  6  0  0  0
 30 25  1  0  0  0  0
 31 24  1  0  0  0  0
 31 29  1  0  0  0  0
M  END
>  <MODEL>
1

>  <REMARK>
 VINA RESULT:      -8.2      0.000      0.000
  Name = 
  2 active torsions:
  status: ('A' for Active; 'I' for Inactive)
    1  A    between atoms: C_5  and  C_30
    2  A    between atoms: C_10  and  N_16
                            x       y       z     vdW  Elec       q    Type
                         _______ _______ _______ _____ _____    ______ ____

>  <TORSDO>
F 2

$$$$
=
 OpenBabel11122413263D

 31 35  0  0  1  0  0  0  0  0999 V2000
  160.8980  206.6350  146.6900 C   0  0  0  0  0  0  0  0  0  0  0  0
  160.3110  204.9720  150.0660 C   0  0  2  0  0  3  0  0  0  0  0  0
  160.7640  203.5240  149.9540 C   0  0  0  0  0  0  0  0  0  0  0  0
  161.1860  201.5640  148.5720 C   0  0  0  0  0  0  0  0  0  0  0  0
  160.8860  205.8620  148.9900 C   0  0  0  0  0  0  0  0  0  0  0  0
  161.9620  207.4930  146.9790 C   0  0  0  0  0  3  0  0  0  0  0  0
  160.8510  202.9130  148.6920 C   0  0  0  0  0  3  0  0  0  0  0  0
  162.0260  205.9750  151.6370 C   0  0  2  0  0  3  0  0  0  0  0  0
  160.3880  206.5880  145.4350 F   0  0  0  0  0  0  0  0  0  0  0  0
  160.9040  203.3080  152.4930 C   0  0  0  0  0  2  0  0  0  0  0  0
  161.2880  200.9410  147.2260 C   0  0  0  0  0  1  0  0  0  0  0  0
  162.4460  206.8430  150.5850 O   0  0  0  0  0  0  0  0  0  0  0  0
  160.5510  205.5770  151.4630 C   0  0  2  0  0  3  0  0  0  0  0  0
  160.3590  205.8250  147.6920 C   0  0  0  0  0  3  0  0  0  0  0  0
  161.4180  200.7980  149.7140 C   0  0  0  0  0  3  0  0  0  0  0  0
  161.9490  206.7390  149.2820 C   0  0  0  0  0  0  0  0  0  0  0  0
  162.4840  207.5480  148.2750 C   0  0  0  0  0  3  0  0  0  0  0  0
  160.0910  204.5980  152.5430 C   0  0  0  0  0  2  0  0  0  0  0  0
  160.9640  202.7290  151.1090 C   0  0  0  0  0  0  0  0  0  0  0  0
  161.3090  201.3800  150.9770 C   0  0  0  0  0  3  0  0  0  0  0  0
  160.5610  208.2320  152.5660 O   0  0  0  0  0  0  0  0  0  0  0  0
  161.4480  207.7610  153.3280 C   0  0  0  0  0  0  0  0  0  0  0  0
  162.2240  206.6340  152.9200 N   0  0  0  0  0  2  0  0  0  0  0  0
  159.5430  210.0260  155.7040 N   0  0  0  0  0  0  0  0  0  0  0  0
  160.7220  207.8730  155.7260 C   0  0  0  0  0  2  0  0  0  0  0  0
  162.5170  210.3850  153.5800 O   0  0  0  0  0  1  0  0  0  0  0  0
  158.2230  210.6140  155.5660 C   0  0  0  0  0  1  0  0  0  0  0  0
  159.3710  208.5790  155.5880 C   0  0  0  0  0  2  0  0  0  0  0  0
  161.7440  209.9160  154.6430 C   0  0  2  0  0  3  0  0  0  0  0  0
  161.7110  208.3790  154.6700 C   0  0  2  0  0  3  0  0  0  0  0  0
  160.3310  210.4920  154.5660 C   0  0  0  0  0  2  0  0  0  0  0  0
  1  6  2  0  0  0  0
  1 14  1  0  0  0  0
  2  5  1  6  0  0  0
  2 13  1  0  0  0  0
  3  2  1  0  0  0  0
  3 19  1  0  0  0  0
  4  7  1  0  0  0  0
  4 15  2  0  0  0  0
  5 16  1  0  0  0  0
  6 17  1  0  0  0  0
  7  3  2  0  0  0  0
  8 23  1  1  0  0  0
  9  1  1  0  0  0  0
 10 18  1  0  0  0  0
 11  4  1  0  0  0  0
 12  8  1  0  0  0  0
 13  8  1  0  0  0  0
 13 18  1  1  0  0  0
 14  5  2  0  0  0  0
 15 20  1  0  0  0  0
 16 12  1  0  0  0  0
 17 16  2  0  0  0  0
 19 10  1  0  0  0  0
 20 19  2  0  0  0  0
 21 22  2  0  0  0  0
 23 22  1  0  0  0  0
 27 24  1  0  0  0  0
 28 24  1  0  0  0  0
 28 25  1  0  0  0  0
 29 26  1  6  0  0  0
 29 30  1  0  0  0  0
 30 22  1  6  0  0  0
 30 25  1  0  0  0  0
 31 29  1  0  0  0  0
 31 24  1  0  0  0  0
M  END
>  <MODEL>
2

>  <REMARK>
 VINA RESULT:      -7.9      3.512      4.799
  Name = 
  2 active torsions:
  status: ('A' for Active; 'I' for Inactive)
    1  A    between atoms: C_5  and  C_30
    2  A    between atoms: C_10  and  N_16
                            x       y       z     vdW  Elec       q    Type
                         _______ _______ _______ _____ _____    ______ ____

>  <TORSDO>
F 2

$$$$
=
 OpenBabel11122413263D

 31 35  0  0  1  0  0  0  0  0999 V2000
  160.8040  207.3860  156.3250 C   0  0  0  0  0  0  0  0  0  0  0  0
  161.8700  208.4340  152.8220 C   0  0  2  0  0  3  0  0  0  0  0  0
  161.4670  207.3230  151.8630 C   0  0  0  0  0  0  0  0  0  0  0  0
  160.9630  204.9720  151.4790 C   0  0  0  0  0  0  0  0  0  0  0  0
  161.1300  208.3840  154.1380 C   0  0  0  0  0  0  0  0  0  0  0  0
  159.7480  208.2660  156.5740 C   0  0  0  0  0  3  0  0  0  0  0  0
  161.2530  206.0220  152.3500 C   0  0  0  0  0  3  0  0  0  0  0  0
  160.3200  210.3260  152.1660 C   0  0  2  0  0  3  0  0  0  0  0  0
  161.1570  206.4710  157.2610 F   0  0  0  0  0  0  0  0  0  0  0  0
  161.6490  208.8980  149.8650 C   0  0  0  0  0  2  0  0  0  0  0  0
  160.7230  203.6070  152.0160 C   0  0  0  0  0  1  0  0  0  0  0  0
  159.7370  210.2680  153.4680 O   0  0  0  0  0  0  0  0  0  0  0  0
  161.7780  209.8390  152.1950 C   0  0  2  0  0  3  0  0  0  0  0  0
  161.4950  207.4460  155.1130 C   0  0  0  0  0  3  0  0  0  0  0  0
  160.9050  205.2000  150.1040 C   0  0  0  0  0  3  0  0  0  0  0  0
  160.0750  209.2800  154.3970 C   0  0  0  0  0  0  0  0  0  0  0  0
  159.3870  209.2150  155.6130 C   0  0  0  0  0  3  0  0  0  0  0  0
  162.4070  209.8330  150.8020 C   0  0  0  0  0  2  0  0  0  0  0  0
  161.4450  207.5380  150.4640 C   0  0  0  0  0  0  0  0  0  0  0  0
  161.1440  206.4800  149.6000 C   0  0  0  0  0  3  0  0  0  0  0  0
  157.9830  211.9530  152.1460 O   0  0  0  0  0  0  0  0  0  0  0  0
  159.0460  212.4560  151.6890 C   0  0  0  0  0  0  0  0  0  0  0  0
  160.2520  211.6910  151.6640 N   0  0  0  0  0  2  0  0  0  0  0  0
  157.6330  214.2330  148.6480 N   0  0  0  0  0  0  0  0  0  0  0  0
  157.6510  214.4530  151.0930 C   0  0  0  0  0  2  0  0  0  0  0  0
  160.9960  213.3160  149.8050 O   0  0  0  0  0  1  0  0  0  0  0  0
  156.8510  213.7050  147.5450 C   0  0  0  0  0  1  0  0  0  0  0  0
  156.8950  213.9250  149.8720 C   0  0  0  0  0  2  0  0  0  0  0  0
  159.7760  213.9940  149.8020 C   0  0  2  0  0  3  0  0  0  0  0  0
  159.0630  213.8600  151.1580 C   0  0  2  0  0  3  0  0  0  0  0  0
  158.8900  213.4900  148.6650 C   0  0  0  0  0  2  0  0  0  0  0  0
  1  6  1  0  0  0  0
  1  9  1  0  0  0  0
  2  3  1  6  0  0  0
  2  5  1  0  0  0  0
  3  7  1  0  0  0  0
  4 11  1  0  0  0  0
  4  7  2  0  0  0  0
  5 16  2  0  0  0  0
  5 14  1  0  0  0  0
  8 23  1  1  0  0  0
  8 13  1  0  0  0  0
  8 12  1  0  0  0  0
 10 19  1  0  0  0  0
 10 18  1  0  0  0  0
 12 16  1  0  0  0  0
 13 18  1  6  0  0  0
 13  2  1  0  0  0  0
 14  1  2  0  0  0  0
 15  4  1  0  0  0  0
 16 17  1  0  0  0  0
 17  6  2  0  0  0  0
 19  3  2  0  0  0  0
 20 15  2  0  0  0  0
 20 19  1  0  0  0  0
 22 21  2  0  0  0  0
 23 22  1  0  0  0  0
 24 31  1  0  0  0  0
 24 28  1  0  0  0  0
 25 30  1  0  0  0  0
 27 24  1  0  0  0  0
 28 25  1  0  0  0  0
 29 26  1  1  0  0  0
 29 30  1  0  0  0  0
 30 22  1  6  0  0  0
 31 29  1  0  0  0  0
M  END
>  <MODEL>
3

>  <REMARK>
 VINA RESULT:      -7.1      4.024      6.140
  Name = 
  2 active torsions:
  status: ('A' for Active; 'I' for Inactive)
    1  A    between atoms: C_5  and  C_30
    2  A    between atoms: C_10  and  N_16
                            x       y       z     vdW  Elec       q    Type
                         _______ _______ _______ _____ _____    ______ ____

>  <TORSDO>
F 2

$$$$
=
 OpenBabel11122413263D

 31 35  0  0  1  0  0  0  0  0999 V2000
  160.9980  204.6600  145.1320 C   0  0  0  0  0  0  0  0  0  0  0  0
  160.5400  205.2170  148.8710 C   0  0  2  0  0  3  0  0  0  0  0  0
  160.9330  203.9310  149.5830 C   0  0  0  0  0  0  0  0  0  0  0  0
  161.2030  201.5100  149.5340 C   0  0  0  0  0  0  0  0  0  0  0  0
  161.0870  205.3130  147.4670 C   0  0  0  0  0  0  0  0  0  0  0  0
  162.1080  205.4640  144.8600 C   0  0  0  0  0  3  0  0  0  0  0  0
  160.9260  202.7130  148.8820 C   0  0  0  0  0  3  0  0  0  0  0  0
  162.3770  206.8190  149.5610 C   0  0  2  0  0  3  0  0  0  0  0  0
  160.4180  203.9500  144.1350 F   0  0  0  0  0  0  0  0  0  0  0  0
  161.2070  205.1670  151.7980 C   0  0  0  0  0  2  0  0  0  0  0  0
  161.2060  200.2360  148.7700 C   0  0  0  0  0  1  0  0  0  0  0  0
  162.7700  206.9190  148.1920 O   0  0  0  0  0  0  0  0  0  0  0  0
  160.8810  206.4850  149.6790 C   0  0  2  0  0  3  0  0  0  0  0  0
  160.4860  204.5870  146.4300 C   0  0  0  0  0  3  0  0  0  0  0  0
  161.4700  201.5040  150.9030 C   0  0  0  0  0  3  0  0  0  0  0  0
  162.1970  206.1340  147.1880 C   0  0  0  0  0  0  0  0  0  0  0  0
  162.7030  206.2030  145.8860 C   0  0  0  0  0  3  0  0  0  0  0  0
  160.4470  206.3110  151.1350 C   0  0  0  0  0  2  0  0  0  0  0  0
  161.1670  203.9100  150.9790 C   0  0  0  0  0  0  0  0  0  0  0  0
  161.4540  202.7000  151.6210 C   0  0  0  0  0  3  0  0  0  0  0  0
  161.5810  209.4030  148.6690 O   0  0  0  0  0  0  0  0  0  0  0  0
  162.2360  209.3350  149.7450 C   0  0  0  0  0  0  0  0  0  0  0  0
  162.6720  208.0700  150.2450 N   0  0  0  0  0  2  0  0  0  0  0  0
  160.4480  211.5690  152.2380 N   0  0  0  0  0  0  0  0  0  0  0  0
  162.5550  210.3280  152.0260 C   0  0  0  0  0  2  0  0  0  0  0  0
  161.5820  211.9230  148.7620 O   0  0  0  0  0  1  0  0  0  0  0  0
  159.1030  211.4710  152.7730 C   0  0  0  0  0  1  0  0  0  0  0  0
  161.1190  210.3100  152.5540 C   0  0  0  0  0  2  0  0  0  0  0  0
  161.6980  211.7860  150.1460 C   0  0  2  0  0  3  0  0  0  0  0  0
  162.5760  210.5790  150.5140 C   0  0  2  0  0  3  0  0  0  0  0  0
  160.3150  211.6730  150.7870 C   0  0  0  0  0  2  0  0  0  0  0  0
  1 14  1  0  0  0  0
  2  5  1  6  0  0  0
  2  3  1  0  0  0  0
  2 13  1  0  0  0  0
  3 19  1  0  0  0  0
  4 15  2  0  0  0  0
  6  1  2  0  0  0  0
  6 17  1  0  0  0  0
  7  4  1  0  0  0  0
  7  3  2  0  0  0  0
  8 13  1  0  0  0  0
  8 23  1  1  0  0  0
  9  1  1  0  0  0  0
 11  4  1  0  0  0  0
 12  8  1  0  0  0  0
 13 18  1  1  0  0  0
 14  5  2  0  0  0  0
 15 20  1  0  0  0  0
 16  5  1  0  0  0  0
 16 12  1  0  0  0  0
 17 16  2  0  0  0  0
 18 10  1  0  0  0  0
 19 20  2  0  0  0  0
 19 10  1  0  0  0  0
 21 22  2  0  0  0  0
 22 23  1  0  0  0  0
 24 28  1  0  0  0  0
 24 27  1  0  0  0  0
 25 28  1  0  0  0  0
 29 26  1  6  0  0  0
 29 30  1  0  0  0  0
 29 31  1  0  0  0  0
 30 22  1  6  0  0  0
 30 25  1  0  0  0  0
 31 24  1  0  0  0  0
M  END
>  <MODEL>
4

>  <REMARK>
 VINA RESULT:      -6.9      1.764      2.347
  Name = 
  2 active torsions:
  status: ('A' for Active; 'I' for Inactive)
    1  A    between atoms: C_5  and  C_30
    2  A    between atoms: C_10  and  N_16
                            x       y       z     vdW  Elec       q    Type
                         _______ _______ _______ _____ _____    ______ ____

>  <TORSDO>
F 2

$$$$
=
 OpenBabel11122413263D

 31 35  0  0  1  0  0  0  0  0999 V2000
  161.6360  206.6300  151.8950 C   0  0  0  0  0  0  0  0  0  0  0  0
  159.9160  209.8340  153.0270 C   0  0  2  0  0  3  0  0  0  0  0  0
  160.5060  210.2260  154.3740 C   0  0  0  0  0  0  0  0  0  0  0  0
  161.6150  209.5740  156.4430 C   0  0  0  0  0  0  0  0  0  0  0  0
  160.7870  208.8750  152.2510 C   0  0  0  0  0  0  0  0  0  0  0  0
  162.4170  207.0890  150.8320 C   0  0  0  0  0  3  0  0  0  0  0  0
  161.1390  209.2560  155.1700 C   0  0  0  0  0  3  0  0  0  0  0  0
  160.7730  211.6570  151.4920 C   0  0  2  0  0  3  0  0  0  0  0  0
  161.6700  205.3210  152.2440 F   0  0  0  0  0  0  0  0  0  0  0  0
  159.6500  212.6160  154.1230 C   0  0  0  0  0  2  0  0  0  0  0  0
  162.2960  208.5360  157.2610 C   0  0  0  0  0  1  0  0  0  0  0  0
  161.4940  210.6670  150.7590 O   0  0  0  0  0  0  0  0  0  0  0  0
  159.5290  211.0480  152.1590 C   0  0  2  0  0  3  0  0  0  0  0  0
  160.8200  207.5180  152.6010 C   0  0  0  0  0  3  0  0  0  0  0  0
  161.4450  210.8620  156.9500 C   0  0  0  0  0  3  0  0  0  0  0  0
  161.5640  209.3320  151.1690 C   0  0  0  0  0  0  0  0  0  0  0  0
  162.3770  208.4380  150.4670 C   0  0  0  0  0  3  0  0  0  0  0  0
  158.7710  212.0730  153.0010 C   0  0  0  0  0  2  0  0  0  0  0  0
  160.3040  211.5200  154.9120 C   0  0  0  0  0  0  0  0  0  0  0  0
  160.7930  211.8310  156.1860 C   0  0  0  0  0  3  0  0  0  0  0  0
  161.7810  212.0460  148.8580 O   0  0  0  0  0  0  0  0  0  0  0  0
  160.9290  212.8730  149.2830 C   0  0  0  0  0  0  0  0  0  0  0  0
  160.3880  212.7390  150.5980 N   0  0  0  0  0  2  0  0  0  0  0  0
  159.8700  213.2990  145.6630 N   0  0  0  0  0  0  0  0  0  0  0  0
  159.0420  213.8050  147.9180 C   0  0  0  0  0  2  0  0  0  0  0  0
  162.7540  214.3520  147.6790 O   0  0  0  0  0  1  0  0  0  0  0  0
  159.7870  212.3150  144.5990 C   0  0  0  0  0  1  0  0  0  0  0  0
  159.0160  212.8190  146.7470 C   0  0  0  0  0  2  0  0  0  0  0  0
  161.4260  214.3180  147.2520 C   0  0  2  0  0  3  0  0  0  0  0  0
  160.4740  214.0150  148.4210 C   0  0  2  0  0  3  0  0  0  0  0  0
  161.2550  213.2980  146.1280 C   0  0  0  0  0  2  0  0  0  0  0  0
  1  9  1  0  0  0  0
  1 14  1  0  0  0  0
  2  5  1  6  0  0  0
  2  3  1  0  0  0  0
  3 19  2  0  0  0  0
  3  7  1  0  0  0  0
  4 15  1  0  0  0  0
  4 11  1  0  0  0  0
  5 14  2  0  0  0  0
  6  1  2  0  0  0  0
  7  4  2  0  0  0  0
  8 23  1  6  0  0  0
  8 13  1  0  0  0  0
 10 19  1  0  0  0  0
 12 16  1  0  0  0  0
 12  8  1  0  0  0  0
 13 18  1  1  0  0  0
 13  2  1  0  0  0  0
 16  5  1  0  0  0  0
 17  6  1  0  0  0  0
 17 16  2  0  0  0  0
 18 10  1  0  0  0  0
 19 20  1  0  0  0  0
 20 15  2  0  0  0  0
 21 22  2  0  0  0  0
 22 23  1  0  0  0  0
 24 31  1  0  0  0  0
 24 28  1  0  0  0  0
 25 30  1  0  0  0  0
 27 24  1  0  0  0  0
 28 25  1  0  0  0  0
 29 26  1  1  0  0  0
 29 30  1  0  0  0  0
 30 22  1  6  0  0  0
 31 29  1  0  0  0  0
M  END
>  <MODEL>
5

>  <REMARK>
 VINA RESULT:      -6.4      3.714      5.883
  Name = 
  2 active torsions:
  status: ('A' for Active; 'I' for Inactive)
    1  A    between atoms: C_5  and  C_30
    2  A    between atoms: C_10  and  N_16
                            x       y       z     vdW  Elec       q    Type
                         _______ _______ _______ _____ _____    ______ ____

>  <TORSDO>
F 2

$$$$
=
 OpenBabel11122413263D

 31 35  0  0  1  0  0  0  0  0999 V2000
  160.6020  209.6600  154.8220 C   0  0  0  0  0  0  0  0  0  0  0  0
  162.0520  209.8320  151.3040 C   0  0  2  0  0  3  0  0  0  0  0  0
  161.6180  208.5770  150.5620 C   0  0  0  0  0  0  0  0  0  0  0  0
  160.9080  206.2480  150.6260 C   0  0  0  0  0  0  0  0  0  0  0  0
  161.2060  210.1300  152.5190 C   0  0  0  0  0  0  0  0  0  0  0  0
  159.6240  210.6570  154.7730 C   0  0  0  0  0  3  0  0  0  0  0  0
  161.2320  207.4350  151.2840 C   0  0  0  0  0  3  0  0  0  0  0  0
  160.7620  211.6580  150.1140 C   0  0  2  0  0  3  0  0  0  0  0  0
  160.7820  208.9440  155.9580 F   0  0  0  0  0  0  0  0  0  0  0  0
  162.1220  209.6610  148.3080 C   0  0  0  0  0  2  0  0  0  0  0  0
  160.4870  205.0560  151.4080 C   0  0  0  0  0  1  0  0  0  0  0  0
  160.0720  211.9320  151.3330 O   0  0  0  0  0  0  0  0  0  0  0  0
  162.1550  211.0710  150.3920 C   0  0  2  0  0  3  0  0  0  0  0  0
  161.3930  209.3990  153.7000 C   0  0  0  0  0  3  0  0  0  0  0  0
  160.9870  206.1770  149.2350 C   0  0  0  0  0  3  0  0  0  0  0  0
  160.2300  211.1440  152.4780 C   0  0  0  0  0  0  0  0  0  0  0  0
  159.4420  211.4020  153.6040 C   0  0  0  0  0  3  0  0  0  0  0  0
  162.8920  210.7110  149.1020 C   0  0  0  0  0  2  0  0  0  0  0  0
  161.7310  208.4840  149.1530 C   0  0  0  0  0  0  0  0  0  0  0  0
  161.3950  207.2920  148.5030 C   0  0  0  0  0  3  0  0  0  0  0  0
  160.0450  211.9290  147.3720 O   0  0  0  0  0  0  0  0  0  0  0  0
  160.4910  212.9520  147.9610 C   0  0  0  0  0  0  0  0  0  0  0  0
  160.8750  212.8820  149.3340 N   0  0  0  0  0  2  0  0  0  0  0  0
  161.1080  214.0040  144.3670 N   0  0  0  0  0  0  0  0  0  0  0  0
  159.5230  214.4410  146.1890 C   0  0  0  0  0  2  0  0  0  0  0  0
  163.0370  214.1290  147.4910 O   0  0  0  0  0  1  0  0  0  0  0  0
  161.3060  213.1890  143.1830 C   0  0  0  0  0  1  0  0  0  0  0  0
  159.8150  213.6210  144.9300 C   0  0  0  0  0  2  0  0  0  0  0  0
  162.0190  214.4530  146.5930 C   0  0  2  0  0  3  0  0  0  0  0  0
  160.6330  214.2550  147.2290 C   0  0  2  0  0  3  0  0  0  0  0  0
  162.1560  213.6290  145.3130 C   0  0  0  0  0  2  0  0  0  0  0  0
  1  9  1  0  0  0  0
  2  3  1  6  0  0  0
  2  5  1  0  0  0  0
  3  7  1  0  0  0  0
  4  7  2  0  0  0  0
  4 11  1  0  0  0  0
  5 14  1  0  0  0  0
  6  1  1  0  0  0  0
  8 23  1  1  0  0  0
  8 13  1  0  0  0  0
  8 12  1  0  0  0  0
 10 18  1  0  0  0  0
 10 19  1  0  0  0  0
 12 16  1  0  0  0  0
 13 18  1  6  0  0  0
 13  2  1  0  0  0  0
 14  1  2  0  0  0  0
 15  4  1  0  0  0  0
 16  5  2  0  0  0  0
 16 17  1  0  0  0  0
 17  6  2  0  0  0  0
 19  3  2  0  0  0  0
 20 19  1  0  0  0  0
 20 15  2  0  0  0  0
 21 22  2  0  0  0  0
 22 23  1  0  0  0  0
 24 28  1  0  0  0  0
 24 31  1  0  0  0  0
 25 30  1  0  0  0  0
 27 24  1  0  0  0  0
 28 25  1  0  0  0  0
 29 30  1  0  0  0  0
 29 26  1  1  0  0  0
 30 22  1  6  0  0  0
 31 29  1  0  0  0  0
M  END
>  <MODEL>
6

>  <REMARK>
 VINA RESULT:      -5.9      3.331      5.878
  Name = 
  2 active torsions:
  status: ('A' for Active; 'I' for Inactive)
    1  A    between atoms: C_5  and  C_30
    2  A    between atoms: C_10  and  N_16
                            x       y       z     vdW  Elec       q    Type
                         _______ _______ _______ _____ _____    ______ ____

>  <TORSDO>
F 2

$$$$
=
 OpenBabel11122413263D

 31 35  0  0  1  0  0  0  0  0999 V2000
  157.9030  213.8440  152.7480 C   0  0  0  0  0  0  0  0  0  0  0  0
  160.7670  213.2090  150.3190 C   0  0  2  0  0  3  0  0  0  0  0  0
  161.1190  211.7310  150.3940 C   0  0  0  0  0  0  0  0  0  0  0  0
  161.1500  209.6480  151.6560 C   0  0  0  0  0  0  0  0  0  0  0  0
  159.3920  213.5230  150.8590 C   0  0  0  0  0  0  0  0  0  0  0  0
  156.8390  214.0820  151.8740 C   0  0  0  0  0  3  0  0  0  0  0  0
  160.7670  210.9840  151.5300 C   0  0  0  0  0  3  0  0  0  0  0  0
  159.7690  213.4290  148.0020 C   0  0  2  0  0  3  0  0  0  0  0  0
  157.6990  213.8790  154.0870 F   0  0  0  0  0  0  0  0  0  0  0  0
  162.3310  211.8430  148.1510 C   0  0  0  0  0  2  0  0  0  0  0  0
  160.7530  208.8720  152.8600 C   0  0  0  0  0  1  0  0  0  0  0  0
  158.5280  213.8060  148.5990 O   0  0  0  0  0  0  0  0  0  0  0  0
  160.9510  213.8060  148.9090 C   0  0  2  0  0  3  0  0  0  0  0  0
  159.1760  213.5690  152.2430 C   0  0  0  0  0  3  0  0  0  0  0  0
  161.9120  209.0430  150.6560 C   0  0  0  0  0  3  0  0  0  0  0  0
  158.3210  213.7780  149.9810 C   0  0  0  0  0  0  0  0  0  0  0  0
  157.0500  214.0540  150.4930 C   0  0  0  0  0  3  0  0  0  0  0  0
  162.2890  213.3580  148.3220 C   0  0  0  0  0  2  0  0  0  0  0  0
  161.9240  211.1200  149.4020 C   0  0  0  0  0  0  0  0  0  0  0  0
  162.2950  209.7770  149.5330 C   0  0  0  0  0  3  0  0  0  0  0  0
  159.9360  212.0750  145.5030 O   0  0  0  0  0  0  0  0  0  0  0  0
  159.9730  213.3360  145.4850 C   0  0  0  0  0  0  0  0  0  0  0  0
  159.9010  214.0760  146.7050 N   0  0  0  0  0  2  0  0  0  0  0  0
  160.8350  212.4320  141.9010 N   0  0  0  0  0  0  0  0  0  0  0  0
  159.0760  213.5950  143.1570 C   0  0  0  0  0  2  0  0  0  0  0  0
  162.4770  214.3340  144.5790 O   0  0  0  0  0  1  0  0  0  0  0  0
  161.1800  211.1450  141.3270 C   0  0  0  0  0  1  0  0  0  0  0  0
  159.5220  212.2750  142.5250 C   0  0  0  0  0  2  0  0  0  0  0  0
  161.5230  214.0500  143.6020 C   0  0  2  0  0  3  0  0  0  0  0  0
  160.1010  214.0800  144.1880 C   0  0  2  0  0  3  0  0  0  0  0  0
  161.8170  212.7010  142.9480 C   0  0  0  0  0  2  0  0  0  0  0  0
  1  9  1  0  0  0  0
  2  3  1  6  0  0  0
  2  5  1  0  0  0  0
  3  7  1  0  0  0  0
  4 11  1  0  0  0  0
  5 14  2  0  0  0  0
  6  1  2  0  0  0  0
  7  4  2  0  0  0  0
  8 23  1  6  0  0  0
  8 12  1  0  0  0  0
  8 13  1  0  0  0  0
 10 18  1  0  0  0  0
 10 19  1  0  0  0  0
 12 16  1  0  0  0  0
 13 18  1  6  0  0  0
 13  2  1  0  0  0  0
 14  1  1  0  0  0  0
 15  4  1  0  0  0  0
 16 17  2  0  0  0  0
 16  5  1  0  0  0  0
 17  6  1  0  0  0  0
 19 20  1  0  0  0  0
 19  3  2  0  0  0  0
 20 15  2  0  0  0  0
 22 21  2  0  0  0  0
 22 23  1  0  0  0  0
 24 28  1  0  0  0  0
 24 31  1  0  0  0  0
 25 30  1  0  0  0  0
 27 24  1  0  0  0  0
 28 25  1  0  0  0  0
 29 30  1  0  0  0  0
 29 26  1  1  0  0  0
 30 22  1  1  0  0  0
 31 29  1  0  0  0  0
M  END
>  <MODEL>
7

>  <REMARK>
 VINA RESULT:      -5.7      5.045      7.735
  Name = 
  2 active torsions:
  status: ('A' for Active; 'I' for Inactive)
    1  A    between atoms: C_5  and  C_30
    2  A    between atoms: C_10  and  N_16
                            x       y       z     vdW  Elec       q    Type
                         _______ _______ _______ _____ _____    ______ ____

>  <TORSDO>
F 2

$$$$
=
 OpenBabel11122413263D

 31 35  0  0  1  0  0  0  0  0999 V2000
  162.2600  213.4600  147.4570 C   0  0  0  0  0  0  0  0  0  0  0  0
  159.8640  214.0210  150.3640 C   0  0  2  0  0  3  0  0  0  0  0  0
  158.4460  213.9640  149.8140 C   0  0  0  0  0  0  0  0  0  0  0  0
  156.9190  214.2260  147.9350 C   0  0  0  0  0  0  0  0  0  0  0  0
  160.8840  213.3790  149.4540 C   0  0  0  0  0  0  0  0  0  0  0  0
  162.7580  212.1860  147.7440 C   0  0  0  0  0  3  0  0  0  0  0  0
  158.2170  214.1920  148.4470 C   0  0  0  0  0  3  0  0  0  0  0  0
  159.9960  211.9270  151.7820 C   0  0  2  0  0  3  0  0  0  0  0  0
  162.6810  214.1170  146.3490 F   0  0  0  0  0  0  0  0  0  0  0  0
  157.4910  213.5680  152.1460 C   0  0  0  0  0  2  0  0  0  0  0  0
  156.7000  214.4520  146.4820 C   0  0  0  0  0  1  0  0  0  0  0  0
  161.0210  211.4360  150.9180 O   0  0  0  0  0  0  0  0  0  0  0  0
  159.9810  213.4640  151.7970 C   0  0  2  0  0  3  0  0  0  0  0  0
  161.3290  214.0560  148.3110 C   0  0  0  0  0  3  0  0  0  0  0  0
  155.8280  214.0540  148.7870 C   0  0  0  0  0  3  0  0  0  0  0  0
  161.3980  212.1010  149.7480 C   0  0  0  0  0  0  0  0  0  0  0  0
  162.3310  211.5100  148.8910 C   0  0  0  0  0  3  0  0  0  0  0  0
  158.8530  214.0170  152.6670 C   0  0  0  0  0  2  0  0  0  0  0  0
  157.3320  213.8290  150.6770 C   0  0  0  0  0  0  0  0  0  0  0  0
  156.0350  213.8540  150.1520 C   0  0  0  0  0  3  0  0  0  0  0  0
  160.4500  209.1930  152.4380 O   0  0  0  0  0  0  0  0  0  0  0  0
  160.4350  210.0240  153.3860 C   0  0  0  0  0  0  0  0  0  0  0  0
  160.2050  211.4100  153.1270 N   0  0  0  0  0  2  0  0  0  0  0  0
  159.8100  211.4850  156.8330 N   0  0  0  0  0  0  0  0  0  0  0  0
  159.3210  209.4460  155.5580 C   0  0  0  0  0  2  0  0  0  0  0  0
  162.7890  210.7050  154.8310 O   0  0  0  0  0  1  0  0  0  0  0  0
  159.2500  212.7710  157.2080 C   0  0  0  0  0  1  0  0  0  0  0  0
  158.8120  210.8200  155.9990 C   0  0  0  0  0  2  0  0  0  0  0  0
  161.6410  210.4520  155.5830 C   0  0  2  0  0  3  0  0  0  0  0  0
  160.6480  209.5740  154.8020 C   0  0  2  0  0  3  0  0  0  0  0  0
  160.9880  211.7640  156.0150 C   0  0  0  0  0  2  0  0  0  0  0  0
  1  6  2  0  0  0  0
  1 14  1  0  0  0  0
  2  5  1  6  0  0  0
  2 13  1  0  0  0  0
  3  2  1  0  0  0  0
  3 19  1  0  0  0  0
  4  7  1  0  0  0  0
  4 15  2  0  0  0  0
  5 16  1  0  0  0  0
  6 17  1  0  0  0  0
  7  3  2  0  0  0  0
  8 13  1  0  0  0  0
  8 23  1  1  0  0  0
  9  1  1  0  0  0  0
 10 18  1  0  0  0  0
 11  4  1  0  0  0  0
 12  8  1  0  0  0  0
 13 18  1  1  0  0  0
 14  5  2  0  0  0  0
 15 20  1  0  0  0  0
 16 12  1  0  0  0  0
 17 16  2  0  0  0  0
 19 10  1  0  0  0  0
 20 19  2  0  0  0  0
 21 22  2  0  0  0  0
 23 22  1  0  0  0  0
 24 27  1  0  0  0  0
 25 28  1  0  0  0  0
 28 24  1  0  0  0  0
 29 26  1  6  0  0  0
 29 31  1  0  0  0  0
 30 22  1  6  0  0  0
 30 25  1  0  0  0  0
 30 29  1  0  0  0  0
 31 24  1  0  0  0  0
M  END
>  <MODEL>
8

>  <REMARK>
 VINA RESULT:      -5.3      5.703      8.764
  Name = 
  2 active torsions:
  status: ('A' for Active; 'I' for Inactive)
    1  A    between atoms: C_5  and  C_30
    2  A    between atoms: C_10  and  N_16
                            x       y       z     vdW  Elec       q    Type
                         _______ _______ _______ _____ _____    ______ ____

>  <TORSDO>
F 2

$$$$
