=
 OpenBabel11122413083D

 31 35  0  0  1  0  0  0  0  0999 V2000
  161.5400  211.0240  156.3800 C   0  0  0  0  0  0  0  0  0  0  0  0
  161.9460  209.4190  152.9700 C   0  0  2  0  0  3  0  0  0  0  0  0
  161.5460  208.1300  152.2800 C   0  0  0  0  0  0  0  0  0  0  0  0
  161.1380  205.7350  152.4130 C   0  0  0  0  0  0  0  0  0  0  0  0
  161.2250  209.6120  154.3170 C   0  0  1  0  0  3  0  0  0  0  0  0
  160.0650  211.1640  156.5150 C   0  0  0  0  0  2  0  0  0  0  0  0
  161.4360  206.9500  153.0320 C   0  0  0  0  0  3  0  0  0  0  0  0
  160.4440  211.2590  152.0660 C   0  0  0  0  0  0  0  0  0  0  0  0
  162.3070  211.4950  157.2600 O   0  0  0  0  0  0  0  0  0  0  0  0
  161.4950  209.2830  150.0100 C   0  0  0  0  0  2  0  0  0  0  0  0
  161.0220  204.6080  153.1540 F   0  0  0  0  0  0  0  0  0  0  0  0
  159.3490  210.5160  152.7780 C   0  0  0  0  0  2  0  0  0  0  0  0
  161.8330  210.6740  152.0760 C   0  0  2  0  0  3  0  0  0  0  0  0
  160.2460  212.3990  151.4690 N   0  0  0  0  0  0  0  0  0  0  0  0
  162.0790  210.3620  155.2380 N   0  0  0  0  0  2  0  0  0  0  0  0
  160.9630  205.6810  151.0290 C   0  0  0  0  0  3  0  0  0  0  0  0
  159.7730  210.1840  154.2080 C   0  0  2  0  0  3  0  0  0  0  0  0
  159.4820  211.3780  155.1260 C   0  0  0  0  0  2  0  0  0  0  0  0
  162.3340  210.3790  150.6630 C   0  0  0  0  0  2  0  0  0  0  0  0
  161.4040  208.0610  150.8730 C   0  0  0  0  0  0  0  0  0  0  0  0
  161.0940  206.8420  150.2640 C   0  0  0  0  0  3  0  0  0  0  0  0
  158.0420  212.9010  152.1270 O   0  0  0  0  0  0  0  0  0  0  0  0
  159.0140  213.1320  151.3580 C   0  0  0  0  0  0  0  0  0  0  0  0
  157.9090  212.9580  147.8700 C   0  0  0  0  0  0  0  0  0  0  0  0
  157.4020  214.3560  149.8580 C   0  0  0  0  0  2  0  0  0  0  0  0
  161.1170  213.8320  149.5030 O   0  0  0  0  0  1  0  0  0  0  0  0
  157.5190  212.7990  146.7250 O   0  0  0  0  0  0  0  0  0  0  0  0
  156.9290  213.1990  148.9760 C   0  0  0  0  0  2  0  0  0  0  0  0
  159.7940  214.0030  149.0920 C   0  0  2  0  0  3  0  0  0  0  0  0
  158.8610  214.1900  150.3040 C   0  0  2  0  0  3  0  0  0  0  0  0
  159.3670  212.8410  148.1950 C   0  0  0  0  0  2  0  0  0  0  0  0
  1  6  1  0  0  0  0
  1  9  2  0  0  0  0
  2  3  1  6  0  0  0
  2  5  1  0  0  0  0
  3  7  1  0  0  0  0
  4  7  2  0  0  0  0
  4 11  1  0  0  0  0
  5 15  1  1  0  0  0
  8 13  1  0  0  0  0
  8 12  1  0  0  0  0
 10 19  1  0  0  0  0
 10 20  1  0  0  0  0
 13 19  1  6  0  0  0
 13  2  1  0  0  0  0
 14  8  2  0  0  0  0
 15  1  1  0  0  0  0
 16  4  1  0  0  0  0
 17 12  1  6  0  0  0
 17  5  1  0  0  0  0
 17 18  1  0  0  0  0
 18  6  1  0  0  0  0
 20  3  2  0  0  0  0
 21 20  1  0  0  0  0
 21 16  2  0  0  0  0
 23 14  1  0  0  0  0
 23 22  2  0  0  0  0
 24 31  1  0  0  0  0
 24 28  1  0  0  0  0
 25 30  1  0  0  0  0
 27 24  2  0  0  0  0
 28 25  1  0  0  0  0
 29 26  1  1  0  0  0
 29 30  1  0  0  0  0
 30 23  1  1  0  0  0
 31 29  1  0  0  0  0
M  END
>  <MODEL>
1

>  <REMARK>
 VINA RESULT:      -6.8      0.000      0.000
  Name = 
  2 active torsions:
  status: ('A' for Active; 'I' for Inactive)
    1  A    between atoms: C_5  and  N_16
    2  A    between atoms: C_5  and  C_30
                            x       y       z     vdW  Elec       q    Type
                         _______ _______ _______ _____ _____    ______ ____

>  <TORSDO>
F 2

$$$$
=
 OpenBabel11122413083D

 31 35  0  0  1  0  0  0  0  0999 V2000
  161.0310  206.8640  150.6860 C   0  0  0  0  0  0  0  0  0  0  0  0
  160.2690  209.5160  153.2860 C   0  0  2  0  0  3  0  0  0  0  0  0
  160.9220  210.0950  154.5260 C   0  0  0  0  0  0  0  0  0  0  0  0
  162.2930  209.7620  156.5080 C   0  0  0  0  0  0  0  0  0  0  0  0
  161.2300  208.6260  152.4770 C   0  0  1  0  0  3  0  0  0  0  0  0
  162.2800  207.3630  150.0500 C   0  0  0  0  0  2  0  0  0  0  0  0
  161.7350  209.2760  155.3240 C   0  0  0  0  0  3  0  0  0  0  0  0
  160.5200  211.2300  151.4260 C   0  0  0  0  0  0  0  0  0  0  0  0
  160.4570  205.8370  150.2420 O   0  0  0  0  0  0  0  0  0  0  0  0
  159.7810  212.3420  154.1570 C   0  0  0  0  0  2  0  0  0  0  0  0
  163.0860  208.9630  157.2600 F   0  0  0  0  0  0  0  0  0  0  0  0
  161.9860  210.9150  151.5310 C   0  0  0  0  0  2  0  0  0  0  0  0
  159.5730  210.5660  152.3920 C   0  0  2  0  0  3  0  0  0  0  0  0
  160.0360  212.0290  150.5190 N   0  0  0  0  0  0  0  0  0  0  0  0
  160.4810  207.5690  151.7970 N   0  0  0  0  0  2  0  0  0  0  0  0
  162.0310  211.0700  156.9170 C   0  0  0  0  0  3  0  0  0  0  0  0
  162.2070  209.4040  151.5330 C   0  0  2  0  0  3  0  0  0  0  0  0
  162.2560  208.8840  150.0910 C   0  0  0  0  0  2  0  0  0  0  0  0
  158.8200  211.5880  153.2430 C   0  0  0  0  0  2  0  0  0  0  0  0
  160.6300  211.4090  154.9660 C   0  0  0  0  0  0  0  0  0  0  0  0
  161.2030  211.8900  156.1470 C   0  0  0  0  0  3  0  0  0  0  0  0
  160.9930  213.9780  149.6100 O   0  0  0  0  0  0  0  0  0  0  0  0
  160.7580  212.7440  149.5020 C   0  0  0  0  0  0  0  0  0  0  0  0
  162.3460  213.9550  146.4310 C   0  0  0  0  0  0  0  0  0  0  0  0
  162.7560  212.1520  148.0880 C   0  0  0  0  0  2  0  0  0  0  0  0
  159.1060  212.3180  147.1690 O   0  0  0  0  0  1  0  0  0  0  0  0
  162.8770  214.4530  145.4530 O   0  0  0  0  0  0  0  0  0  0  0  0
  163.1690  213.5470  147.6140 C   0  0  0  0  0  2  0  0  0  0  0  0
  160.4860  212.4150  146.9880 C   0  0  2  0  0  3  0  0  0  0  0  0
  161.2380  212.0250  148.2740 C   0  0  2  0  0  3  0  0  0  0  0  0
  160.8550  213.8140  146.4920 C   0  0  0  0  0  2  0  0  0  0  0  0
  1 15  1  0  0  0  0
  2  3  1  1  0  0  0
  3 20  2  0  0  0  0
  3  7  1  0  0  0  0
  4 16  1  0  0  0  0
  4 11  1  0  0  0  0
  5 15  1  6  0  0  0
  5  2  1  0  0  0  0
  6 18  1  0  0  0  0
  6  1  1  0  0  0  0
  7  4  2  0  0  0  0
  8 12  1  0  0  0  0
  8 13  1  0  0  0  0
  9  1  2  0  0  0  0
 10 20  1  0  0  0  0
 12 17  1  0  0  0  0
 13 19  1  1  0  0  0
 13  2  1  0  0  0  0
 14  8  2  0  0  0  0
 17 18  1  6  0  0  0
 17  5  1  0  0  0  0
 19 10  1  0  0  0  0
 20 21  1  0  0  0  0
 21 16  2  0  0  0  0
 23 22  2  0  0  0  0
 23 14  1  0  0  0  0
 24 31  1  0  0  0  0
 24 28  1  0  0  0  0
 25 30  1  0  0  0  0
 27 24  2  0  0  0  0
 28 25  1  0  0  0  0
 29 26  1  1  0  0  0
 29 30  1  0  0  0  0
 30 23  1  1  0  0  0
 31 29  1  0  0  0  0
M  END
>  <MODEL>
2

>  <REMARK>
 VINA RESULT:      -5.9      2.692      5.040
  Name = 
  2 active torsions:
  status: ('A' for Active; 'I' for Inactive)
    1  A    between atoms: C_5  and  N_16
    2  A    between atoms: C_5  and  C_30
                            x       y       z     vdW  Elec       q    Type
                         _______ _______ _______ _____ _____    ______ ____

>  <TORSDO>
F 2

$$$$
=
 OpenBabel11122413083D

 31 35  0  0  1  0  0  0  0  0999 V2000
  161.1760  207.5490  150.5750 C   0  0  0  0  0  0  0  0  0  0  0  0
  160.1160  209.8690  153.3800 C   0  0  2  0  0  3  0  0  0  0  0  0
  160.7130  210.4430  154.6510 C   0  0  0  0  0  0  0  0  0  0  0  0
  162.1660  210.1620  156.5820 C   0  0  0  0  0  0  0  0  0  0  0  0
  161.1720  209.1860  152.4920 C   0  0  1  0  0  3  0  0  0  0  0  0
  162.3270  208.2650  149.9610 C   0  0  0  0  0  2  0  0  0  0  0  0
  161.6520  209.6900  155.3720 C   0  0  0  0  0  3  0  0  0  0  0  0
  160.0780  211.7330  151.6530 C   0  0  0  0  0  0  0  0  0  0  0  0
  160.7420  206.4860  150.0630 O   0  0  0  0  0  0  0  0  0  0  0  0
  159.2600  212.5260  154.4700 C   0  0  0  0  0  2  0  0  0  0  0  0
  163.0810  209.4300  157.2600 F   0  0  0  0  0  0  0  0  0  0  0  0
  161.5760  211.6220  151.7120 C   0  0  0  0  0  2  0  0  0  0  0  0
  159.2580  210.8720  152.5780 C   0  0  2  0  0  3  0  0  0  0  0  0
  159.4650  212.5190  150.8160 N   0  0  0  0  0  0  0  0  0  0  0  0
  160.5620  208.0860  151.7450 N   0  0  0  0  0  2  0  0  0  0  0  0
  161.7330  211.3860  157.0930 C   0  0  0  0  0  3  0  0  0  0  0  0
  162.0060  210.1610  151.5960 C   0  0  2  0  0  3  0  0  0  0  0  0
  162.0920  209.7600  150.1180 C   0  0  0  0  0  2  0  0  0  0  0  0
  158.3900  211.7130  153.5150 C   0  0  0  0  0  2  0  0  0  0  0  0
  160.2510  211.6660  155.1940 C   0  0  0  0  0  0  0  0  0  0  0  0
  160.7800  212.1350  156.4000 C   0  0  0  0  0  3  0  0  0  0  0  0
  161.3020  213.4660  149.6890 O   0  0  0  0  0  0  0  0  0  0  0  0
  160.0530  213.4020  149.8450 C   0  0  0  0  0  0  0  0  0  0  0  0
  157.6530  212.6220  147.1910 C   0  0  0  0  0  0  0  0  0  0  0  0
  157.6860  214.0170  149.2450 C   0  0  0  0  0  2  0  0  0  0  0  0
  160.8710  214.4530  147.2800 O   0  0  0  0  0  1  0  0  0  0  0  0
  156.8700  212.2600  146.3290 O   0  0  0  0  0  0  0  0  0  0  0  0
  157.2190  212.6990  148.6230 C   0  0  0  0  0  2  0  0  0  0  0  0
  159.5100  214.2320  147.4970 C   0  0  2  0  0  3  0  0  0  0  0  0
  159.1770  214.2810  149.0000 C   0  0  2  0  0  3  0  0  0  0  0  0
  159.0790  212.9210  146.8410 C   0  0  0  0  0  2  0  0  0  0  0  0
  1 15  1  0  0  0  0
  2  3  1  1  0  0  0
  3 20  2  0  0  0  0
  3  7  1  0  0  0  0
  4 16  1  0  0  0  0
  4 11  1  0  0  0  0
  5 15  1  6  0  0  0
  5  2  1  0  0  0  0
  6 18  1  0  0  0  0
  6  1  1  0  0  0  0
  7  4  2  0  0  0  0
  8 12  1  0  0  0  0
  8 13  1  0  0  0  0
  9  1  2  0  0  0  0
 10 20  1  0  0  0  0
 13  2  1  0  0  0  0
 13 19  1  1  0  0  0
 14  8  2  0  0  0  0
 17 18  1  6  0  0  0
 17 12  1  0  0  0  0
 17  5  1  0  0  0  0
 19 10  1  0  0  0  0
 20 21  1  0  0  0  0
 21 16  2  0  0  0  0
 22 23  2  0  0  0  0
 23 14  1  0  0  0  0
 24 28  1  0  0  0  0
 27 24  2  0  0  0  0
 28 25  1  0  0  0  0
 29 26  1  1  0  0  0
 29 30  1  0  0  0  0
 30 25  1  0  0  0  0
 30 23  1  1  0  0  0
 31 24  1  0  0  0  0
 31 29  1  0  0  0  0
M  END
>  <MODEL>
3

>  <REMARK>
 VINA RESULT:      -4.9      2.414      4.551
  Name = 
  2 active torsions:
  status: ('A' for Active; 'I' for Inactive)
    1  A    between atoms: C_5  and  N_16
    2  A    between atoms: C_5  and  C_30
                            x       y       z     vdW  Elec       q    Type
                         _______ _______ _______ _____ _____    ______ ____

>  <TORSDO>
F 2

$$$$
=
 OpenBabel11122413083D

 31 35  0  0  1  0  0  0  0  0999 V2000
  161.5490  208.1330  156.2640 C   0  0  0  0  0  0  0  0  0  0  0  0
  161.9600  208.0800  152.4960 C   0  0  2  0  0  3  0  0  0  0  0  0
  161.5120  207.2230  151.3270 C   0  0  0  0  0  0  0  0  0  0  0  0
  160.9760  205.0200  150.4440 C   0  0  0  0  0  0  0  0  0  0  0  0
  161.2150  207.7340  153.7980 C   0  0  1  0  0  3  0  0  0  0  0  0
  160.0800  208.2890  156.4420 C   0  0  0  0  0  2  0  0  0  0  0  0
  161.3210  205.8460  151.5160 C   0  0  0  0  0  3  0  0  0  0  0  0
  160.5790  210.2140  152.4430 C   0  0  0  0  0  0  0  0  0  0  0  0
  162.3160  208.1470  157.2610 O   0  0  0  0  0  0  0  0  0  0  0  0
  161.5800  209.2210  149.7500 C   0  0  0  0  0  2  0  0  0  0  0  0
  160.7820  203.6960  150.6450 F   0  0  0  0  0  0  0  0  0  0  0  0
  159.4290  209.3060  152.7760 C   0  0  0  0  0  2  0  0  0  0  0  0
  161.9350  209.5980  152.2090 C   0  0  2  0  0  3  0  0  0  0  0  0
  160.4570  211.5080  152.3780 N   0  0  0  0  0  0  0  0  0  0  0  0
  162.0820  207.9790  154.9500 N   0  0  0  0  0  2  0  0  0  0  0  0
  160.8350  205.5610  149.1650 C   0  0  0  0  0  3  0  0  0  0  0  0
  159.7980  208.3830  153.9360 C   0  0  2  0  0  3  0  0  0  0  0  0
  159.5460  209.0970  155.2690 C   0  0  0  0  0  2  0  0  0  0  0  0
  162.4580  209.8930  150.8030 C   0  0  0  0  0  2  0  0  0  0  0  0
  161.4030  207.7580  150.0210 C   0  0  0  0  0  0  0  0  0  0  0  0
  161.0460  206.9250  148.9560 C   0  0  0  0  0  3  0  0  0  0  0  0
  158.2600  212.1590  151.8360 O   0  0  0  0  0  0  0  0  0  0  0  0
  159.2680  212.2910  152.5810 C   0  0  0  0  0  0  0  0  0  0  0  0
  157.3750  212.3570  155.7170 C   0  0  0  0  0  0  0  0  0  0  0  0
  159.7300  212.7230  155.0190 C   0  0  0  0  0  2  0  0  0  0  0  0
  157.3520  214.4530  152.6630 O   0  0  0  0  0  1  0  0  0  0  0  0
  156.7120  212.2810  156.7370 O   0  0  0  0  0  0  0  0  0  0  0  0
  158.7400  211.7430  155.6550 C   0  0  0  0  0  2  0  0  0  0  0  0
  157.8280  213.9500  153.8750 C   0  0  2  0  0  3  0  0  0  0  0  0
  159.2110  213.2970  153.6940 C   0  0  2  0  0  3  0  0  0  0  0  0
  156.8030  212.9970  154.4890 C   0  0  0  0  0  2  0  0  0  0  0  0
  1  6  1  0  0  0  0
  1  9  2  0  0  0  0
  2  3  1  6  0  0  0
  2  5  1  0  0  0  0
  3  7  1  0  0  0  0
  4 11  1  0  0  0  0
  4  7  2  0  0  0  0
  5 17  1  0  0  0  0
  5 15  1  1  0  0  0
  8 12  1  0  0  0  0
 10 20  1  0  0  0  0
 10 19  1  0  0  0  0
 13 19  1  6  0  0  0
 13  8  1  0  0  0  0
 13  2  1  0  0  0  0
 14  8  2  0  0  0  0
 14 23  1  0  0  0  0
 15  1  1  0  0  0  0
 16  4  1  0  0  0  0
 17 12  1  6  0  0  0
 17 18  1  0  0  0  0
 18  6  1  0  0  0  0
 20  3  2  0  0  0  0
 21 16  2  0  0  0  0
 21 20  1  0  0  0  0
 22 23  2  0  0  0  0
 24 27  2  0  0  0  0
 25 28  1  0  0  0  0
 28 24  1  0  0  0  0
 29 26  1  6  0  0  0
 29 31  1  0  0  0  0
 30 23  1  6  0  0  0
 30 29  1  0  0  0  0
 30 25  1  0  0  0  0
 31 24  1  0  0  0  0
M  END
>  <MODEL>
4

>  <REMARK>
 VINA RESULT:      -4.8      2.555      3.758
  Name = 
  2 active torsions:
  status: ('A' for Active; 'I' for Inactive)
    1  A    between atoms: C_5  and  N_16
    2  A    between atoms: C_5  and  C_30
                            x       y       z     vdW  Elec       q    Type
                         _______ _______ _______ _____ _____    ______ ____

>  <TORSDO>
F 2

$$$$
=
 OpenBabel11122413083D

 31 35  0  0  1  0  0  0  0  0999 V2000
  161.6780  202.4530  151.2420 C   0  0  0  0  0  0  0  0  0  0  0  0
  161.9240  203.4490  147.5920 C   0  0  2  0  0  3  0  0  0  0  0  0
  161.0470  203.4120  146.3550 C   0  0  0  0  0  0  0  0  0  0  0  0
  159.3340  202.2820  145.0480 C   0  0  0  0  0  0  0  0  0  0  0  0
  161.1360  203.1440  148.8790 C   0  0  1  0  0  3  0  0  0  0  0  0
  160.5650  203.3000  151.7490 C   0  0  0  0  0  2  0  0  0  0  0  0
  160.1070  202.3810  146.2070 C   0  0  0  0  0  3  0  0  0  0  0  0
  162.0090  205.8610  148.3880 C   0  0  0  0  0  0  0  0  0  0  0  0
  162.3310  201.7220  152.0290 O   0  0  0  0  0  0  0  0  0  0  0  0
  162.2190  205.4530  145.3830 C   0  0  0  0  0  2  0  0  0  0  0  0
  158.4220  201.2890  144.9260 F   0  0  0  0  0  0  0  0  0  0  0  0
  160.5520  205.6600  148.6950 C   0  0  0  0  0  2  0  0  0  0  0  0
  162.7660  204.7360  147.7290 C   0  0  2  0  0  3  0  0  0  0  0  0
  162.6470  206.9540  148.6940 N   0  0  0  0  0  0  0  0  0  0  0  0
  162.0060  202.4860  149.8540 N   0  0  0  0  0  2  0  0  0  0  0  0
  159.5060  203.2030  144.0140 C   0  0  0  0  0  3  0  0  0  0  0  0
  160.3460  204.3590  149.4690 C   0  0  2  0  0  3  0  0  0  0  0  0
  160.5690  204.6050  150.9660 C   0  0  0  0  0  2  0  0  0  0  0  0
  163.3400  205.1550  146.3760 C   0  0  0  0  0  2  0  0  0  0  0  0
  161.2420  204.3210  145.2880 C   0  0  0  0  0  0  0  0  0  0  0  0
  160.4560  204.2200  144.1360 C   0  0  0  0  0  3  0  0  0  0  0  0
  161.2010  208.8080  148.8060 O   0  0  0  0  0  0  0  0  0  0  0  0
  162.1220  208.1290  149.3350 C   0  0  0  0  0  0  0  0  0  0  0  0
  160.4850  209.1880  152.4360 C   0  0  0  0  0  0  0  0  0  0  0  0
  162.3010  207.6200  151.7950 C   0  0  0  0  0  2  0  0  0  0  0  0
  162.6560  210.8980  149.9700 O   0  0  0  0  0  1  0  0  0  0  0  0
  159.8480  209.5140  153.4240 O   0  0  0  0  0  0  0  0  0  0  0  0
  160.8310  207.7490  152.2010 C   0  0  0  0  0  2  0  0  0  0  0  0
  162.3310  210.0340  151.0170 C   0  0  2  0  0  3  0  0  0  0  0  0
  162.6770  208.5770  150.6560 C   0  0  2  0  0  3  0  0  0  0  0  0
  160.8640  210.2100  151.4090 C   0  0  0  0  0  2  0  0  0  0  0  0
  1  6  1  0  0  0  0
  1  9  2  0  0  0  0
  2  3  1  6  0  0  0
  2 13  1  0  0  0  0
  2  5  1  0  0  0  0
  4  7  2  0  0  0  0
  5 17  1  0  0  0  0
  5 15  1  1  0  0  0
  7  3  1  0  0  0  0
  8 14  2  0  0  0  0
  8 12  1  0  0  0  0
 10 19  1  0  0  0  0
 11  4  1  0  0  0  0
 13 19  1  6  0  0  0
 13  8  1  0  0  0  0
 14 23  1  0  0  0  0
 15  1  1  0  0  0  0
 16 21  2  0  0  0  0
 16  4  1  0  0  0  0
 17 12  1  6  0  0  0
 17 18  1  0  0  0  0
 18  6  1  0  0  0  0
 20 10  1  0  0  0  0
 20  3  2  0  0  0  0
 21 20  1  0  0  0  0
 22 23  2  0  0  0  0
 24 27  2  0  0  0  0
 25 28  1  0  0  0  0
 28 24  1  0  0  0  0
 29 26  1  6  0  0  0
 29 31  1  0  0  0  0
 30 23  1  6  0  0  0
 30 29  1  0  0  0  0
 30 25  1  0  0  0  0
 31 24  1  0  0  0  0
M  END
>  <MODEL>
5

>  <REMARK>
 VINA RESULT:      -4.5      4.995      7.543
  Name = 
  2 active torsions:
  status: ('A' for Active; 'I' for Inactive)
    1  A    between atoms: C_5  and  N_16
    2  A    between atoms: C_5  and  C_30
                            x       y       z     vdW  Elec       q    Type
                         _______ _______ _______ _____ _____    ______ ____

>  <TORSDO>
F 2

$$$$
