=
 OpenBabel11122412403D

 30 35  0  0  1  0  0  0  0  0999 V2000
  161.2340  204.7500  148.9980 C   0  0  0  0  0  0  0  0  0  0  0  0
  160.8190  202.2380  148.6920 C   0  0  0  0  0  0  0  0  0  0  0  0
  161.1690  204.3400  153.1760 N   0  0  0  0  0  2  0  0  0  0  0  0
  161.4290  205.8620  149.8600 C   0  0  0  0  0  0  0  0  0  0  0  0
  161.3940  204.9610  147.5200 C   0  0  0  0  0  2  0  0  0  0  0  0
  161.3010  208.5770  147.4240 O   0  0  0  0  0  0  0  0  0  0  0  0
  160.7880  208.6900  151.1280 C   0  0  1  0  0  3  0  0  0  0  0  0
  161.2480  207.4130  147.9100 C   0  0  0  0  0  0  0  0  0  0  0  0
  160.6340  207.7470  152.3230 C   0  0  2  0  0  3  0  0  0  0  0  0
  161.4490  205.6860  153.5400 C   0  0  0  0  0  0  0  0  0  0  0  0
  160.7570  206.2670  147.0650 C   0  0  1  0  0  3  0  0  0  0  0  0
  161.5610  207.1940  149.2990 N   0  0  0  0  0  0  0  0  0  0  0  0
  160.8040  200.9460  149.3060 N   0  0  0  0  0  0  0  0  0  0  0  0
  160.7770  208.6530  153.5330 C   0  0  0  0  0  2  0  0  0  0  0  0
  160.9920  210.0680  151.7190 C   0  0  0  0  0  2  0  0  0  0  0  0
  160.6950  202.3170  147.4420 O   0  0  0  0  0  0  0  0  0  0  0  0
  161.1770  204.3700  151.7590 C   0  0  0  0  0  0  0  0  0  0  0  0
  160.7590  200.7820  150.5930 C   0  0  0  0  0  3  0  0  0  0  0  0
  161.0000  203.4490  149.5340 C   0  0  0  0  0  0  0  0  0  0  0  0
  161.4190  205.6290  151.2470 C   0  0  0  0  0  0  0  0  0  0  0  0
  161.5690  206.0450  154.7410 O   0  0  0  0  0  0  0  0  0  0  0  0
  161.6530  206.6000  152.3650 C   0  0  1  0  0  3  0  0  0  0  0  0
  160.5410  210.0200  153.0990 N   0  0  0  0  0  2  0  0  0  0  0  0
  163.1570  208.2530  150.6830 O   0  0  0  0  0  1  0  0  0  0  0  0
  160.6380  201.9340  151.5510 C   0  0  0  0  0  2  0  0  0  0  0  0
  160.9670  203.2670  150.9340 C   0  0  0  0  0  0  0  0  0  0  0  0
  161.8890  208.3700  150.1060 C   0  0  2  0  0  3  0  0  0  0  0  0
  160.9810  206.4790  145.5950 C   0  0  0  0  0  3  0  0  0  0  0  0
  161.3940  205.7180  143.4070 O   0  0  0  0  0  1  0  0  0  0  0  0
  161.1930  205.4690  144.7570 C   0  0  0  0  0  3  0  0  0  0  0  0
  1 19  2  0  0  0  0
  1  4  1  0  0  0  0
  2 13  1  0  0  0  0
  2 19  1  0  0  0  0
  3 10  1  0  0  0  0
  4 20  2  0  0  0  0
  5  1  1  0  0  0  0
  6  8  2  0  0  0  0
  7 15  1  1  0  0  0
  7  9  1  0  0  0  0
  8 12  1  0  0  0  0
  9 22  1  0  0  0  0
  9 14  1  1  0  0  0
 10 21  2  0  0  0  0
 11 28  1  6  0  0  0
 11  5  1  0  0  0  0
 11  8  1  0  0  0  0
 12  4  1  0  0  0  0
 12 27  1  0  0  0  0
 13 18  2  0  0  0  0
 15 23  1  0  0  0  0
 16  2  2  0  0  0  0
 17  3  1  0  0  0  0
 18 25  1  0  0  0  0
 19 26  1  0  0  0  0
 20 17  1  0  0  0  0
 22 20  1  6  0  0  0
 22 10  1  0  0  0  0
 23 14  1  0  0  0  0
 26 25  1  0  0  0  0
 26 17  2  0  0  0  0
 27 24  1  1  0  0  0
 27  7  1  0  0  0  0
 29 30  1  0  0  0  0
 30 28  2  0  0  0  0
M  END
>  <MODEL>
1

>  <REMARK>
 VINA RESULT:      -7.8      0.000      0.000
  Name = 
  1 active torsions:
  status: ('A' for Active; 'I' for Inactive)
    1  A    between atoms: C_11  and  C_28
                            x       y       z     vdW  Elec       q    Type
                         _______ _______ _______ _____ _____    ______ ____

>  <TORSDO>
F 1

$$$$
=
 OpenBabel11122412403D

 30 35  0  0  1  0  0  0  0  0999 V2000
  161.5410  208.2500  151.5930 C   0  0  0  0  0  0  0  0  0  0  0  0
  161.6120  210.7190  150.9050 C   0  0  0  0  0  0  0  0  0  0  0  0
  162.0000  207.0340  147.6000 N   0  0  0  0  0  2  0  0  0  0  0  0
  161.5960  206.8770  151.2330 C   0  0  0  0  0  0  0  0  0  0  0  0
  161.4970  208.6000  153.0530 C   0  0  0  0  0  2  0  0  0  0  0  0
  160.6640  205.3520  154.4150 O   0  0  0  0  0  0  0  0  0  0  0  0
  160.5330  203.9080  150.9670 C   0  0  1  0  0  3  0  0  0  0  0  0
  160.9000  206.2360  153.5450 C   0  0  0  0  0  0  0  0  0  0  0  0
  160.7010  204.3330  149.5070 C   0  0  2  0  0  3  0  0  0  0  0  0
  162.0390  205.6260  147.7960 C   0  0  0  0  0  0  0  0  0  0  0  0
  160.5650  207.6770  153.8260 C   0  0  1  0  0  3  0  0  0  0  0  0
  161.3960  205.8570  152.2460 N   0  0  0  0  0  0  0  0  0  0  0  0
  161.9240  211.6640  149.8780 N   0  0  0  0  0  0  0  0  0  0  0  0
  160.7840  203.0220  148.7440 C   0  0  0  0  0  2  0  0  0  0  0  0
  160.5150  202.3950  150.9520 C   0  0  0  0  0  2  0  0  0  0  0  0
  161.3440  211.1430  152.0590 O   0  0  0  0  0  0  0  0  0  0  0  0
  161.8530  207.5480  148.9140 C   0  0  0  0  0  0  0  0  0  0  0  0
  162.0490  211.3280  148.6300 C   0  0  0  0  0  3  0  0  0  0  0  0
  161.6320  209.2650  150.5960 C   0  0  0  0  0  0  0  0  0  0  0  0
  161.7800  206.5600  149.8750 C   0  0  0  0  0  0  0  0  0  0  0  0
  162.2100  204.8210  146.8420 O   0  0  0  0  0  0  0  0  0  0  0  0
  161.9290  205.2120  149.2360 C   0  0  1  0  0  3  0  0  0  0  0  0
  160.2310  201.9770  149.5900 N   0  0  0  0  0  2  0  0  0  0  0  0
  162.8820  204.1250  151.6310 O   0  0  0  0  0  1  0  0  0  0  0  0
  161.7990  209.9290  148.1410 C   0  0  0  0  0  2  0  0  0  0  0  0
  161.7840  208.9000  149.2400 C   0  0  0  0  0  0  0  0  0  0  0  0
  161.5620  204.4270  151.9820 C   0  0  2  0  0  3  0  0  0  0  0  0
  160.5850  208.0130  155.2890 C   0  0  0  0  0  3  0  0  0  0  0  0
  161.6500  208.7320  157.2610 O   0  0  0  0  0  1  0  0  0  0  0  0
  161.6850  208.4330  155.9060 C   0  0  0  0  0  3  0  0  0  0  0  0
  1  5  1  0  0  0  0
  2 16  2  0  0  0  0
  3 10  1  0  0  0  0
  3 17  1  0  0  0  0
  4  1  1  0  0  0  0
  4 12  1  0  0  0  0
  5 11  1  0  0  0  0
  7 15  1  6  0  0  0
  7 27  1  0  0  0  0
  8 11  1  0  0  0  0
  8  6  2  0  0  0  0
  9 14  1  6  0  0  0
  9  7  1  0  0  0  0
 11 28  1  1  0  0  0
 12  8  1  0  0  0  0
 13  2  1  0  0  0  0
 14 23  1  0  0  0  0
 17 26  2  0  0  0  0
 17 20  1  0  0  0  0
 18 13  2  0  0  0  0
 19  2  1  0  0  0  0
 19  1  2  0  0  0  0
 20  4  2  0  0  0  0
 21 10  2  0  0  0  0
 22 10  1  6  0  0  0
 22  9  1  0  0  0  0
 22 20  1  0  0  0  0
 23 15  1  0  0  0  0
 25 18  1  0  0  0  0
 25 26  1  0  0  0  0
 26 19  1  0  0  0  0
 27 24  1  6  0  0  0
 27 12  1  0  0  0  0
 28 30  2  0  0  0  0
 30 29  1  0  0  0  0
M  END
>  <MODEL>
2

>  <REMARK>
 VINA RESULT:      -7.1      1.978      7.409
  Name = 
  1 active torsions:
  status: ('A' for Active; 'I' for Inactive)
    1  A    between atoms: C_11  and  C_28
                            x       y       z     vdW  Elec       q    Type
                         _______ _______ _______ _____ _____    ______ ____

>  <TORSDO>
F 1

$$$$
=
 OpenBabel11122412403D

 30 35  0  0  1  0  0  0  0  0999 V2000
  161.6270  208.1560  149.8740 C   0  0  0  0  0  0  0  0  0  0  0  0
  161.5350  206.1440  148.2870 C   0  0  0  0  0  0  0  0  0  0  0  0
  160.7810  205.7030  153.1750 N   0  0  0  0  0  2  0  0  0  0  0  0
  161.5360  208.6820  151.1900 C   0  0  0  0  0  0  0  0  0  0  0  0
  162.0530  209.0790  148.7690 C   0  0  0  0  0  2  0  0  0  0  0  0
  161.6180  212.2550  150.4490 O   0  0  0  0  0  0  0  0  0  0  0  0
  160.3760  210.4970  153.5090 C   0  0  1  0  0  3  0  0  0  0  0  0
  161.5870  211.0050  150.2730 C   0  0  0  0  0  0  0  0  0  0  0  0
  160.0860  209.0840  154.0170 C   0  0  2  0  0  3  0  0  0  0  0  0
  160.8470  206.6810  154.2060 C   0  0  0  0  0  0  0  0  0  0  0  0
  161.3900  210.4450  148.8890 C   0  0  1  0  0  3  0  0  0  0  0  0
  161.6420  210.1140  151.4040 N   0  0  0  0  0  0  0  0  0  0  0  0
  161.5290  204.7190  148.1650 N   0  0  0  0  0  0  0  0  0  0  0  0
  159.8960  209.2570  155.5140 C   0  0  0  0  0  2  0  0  0  0  0  0
  160.3210  211.3890  154.7300 C   0  0  0  0  0  2  0  0  0  0  0  0
  161.6520  206.8420  147.2470 O   0  0  0  0  0  0  0  0  0  0  0  0
  161.0660  206.4410  151.9980 C   0  0  0  0  0  0  0  0  0  0  0  0
  161.2480  203.9310  149.1570 C   0  0  0  0  0  3  0  0  0  0  0  0
  161.4240  206.7650  149.6330 C   0  0  0  0  0  0  0  0  0  0  0  0
  161.2770  207.7840  152.2410 C   0  0  0  0  0  0  0  0  0  0  0  0
  160.6920  206.3860  155.4200 O   0  0  0  0  0  0  0  0  0  0  0  0
  161.1870  208.0580  153.7120 C   0  0  1  0  0  3  0  0  0  0  0  0
  159.6140  210.6600  155.7690 N   0  0  0  0  0  2  0  0  0  0  0  0
  162.8190  210.3140  153.4430 O   0  0  0  0  0  1  0  0  0  0  0  0
  160.8250  204.4470  150.5050 C   0  0  0  0  0  2  0  0  0  0  0  0
  161.1340  205.9050  150.7150 C   0  0  0  0  0  0  0  0  0  0  0  0
  161.6840  210.7210  152.7350 C   0  0  2  0  0  3  0  0  0  0  0  0
  161.8770  211.3640  147.8050 C   0  0  0  0  0  3  0  0  0  0  0  0
  161.5580  213.0050  146.1490 O   0  0  0  0  0  1  0  0  0  0  0  0
  161.0580  212.1750  147.1420 C   0  0  0  0  0  3  0  0  0  0  0  0
  1  4  1  0  0  0  0
  2 19  1  0  0  0  0
  3 10  1  0  0  0  0
  4 12  1  0  0  0  0
  4 20  2  0  0  0  0
  5 11  1  0  0  0  0
  5  1  1  0  0  0  0
  7  9  1  0  0  0  0
  7 15  1  1  0  0  0
  8  6  2  0  0  0  0
  8 12  1  0  0  0  0
  9 14  1  1  0  0  0
 10 21  2  0  0  0  0
 11 28  1  6  0  0  0
 11  8  1  0  0  0  0
 12 27  1  0  0  0  0
 13  2  1  0  0  0  0
 13 18  2  0  0  0  0
 14 23  1  0  0  0  0
 15 23  1  0  0  0  0
 16  2  2  0  0  0  0
 17 20  1  0  0  0  0
 17  3  1  0  0  0  0
 18 25  1  0  0  0  0
 19  1  2  0  0  0  0
 19 26  1  0  0  0  0
 22 20  1  6  0  0  0
 22  9  1  0  0  0  0
 22 10  1  0  0  0  0
 25 26  1  0  0  0  0
 26 17  2  0  0  0  0
 27 24  1  1  0  0  0
 27  7  1  0  0  0  0
 29 30  1  0  0  0  0
 30 28  2  0  0  0  0
M  END
>  <MODEL>
3

>  <REMARK>
 VINA RESULT:      -7.0      2.289      3.793
  Name = 
  1 active torsions:
  status: ('A' for Active; 'I' for Inactive)
    1  A    between atoms: C_11  and  C_28
                            x       y       z     vdW  Elec       q    Type
                         _______ _______ _______ _____ _____    ______ ____

>  <TORSDO>
F 1

$$$$
=
 OpenBabel11122412403D

 30 35  0  0  1  0  0  0  0  0999 V2000
  161.3010  208.2770  151.3630 C   0  0  0  0  0  0  0  0  0  0  0  0
  161.3000  208.7250  153.8880 C   0  0  0  0  0  0  0  0  0  0  0  0
  160.7090  204.1700  152.0040 N   0  0  0  0  0  2  0  0  0  0  0  0
  161.1890  207.3620  150.2830 C   0  0  0  0  0  0  0  0  0  0  0  0
  161.3890  209.7420  151.0460 C   0  0  0  0  0  2  0  0  0  0  0  0
  162.1390  209.5390  147.5110 O   0  0  0  0  0  0  0  0  0  0  0  0
  162.1420  205.8030  147.6980 C   0  0  1  0  0  3  0  0  0  0  0  0
  161.9150  209.1440  148.6890 C   0  0  0  0  0  0  0  0  0  0  0  0
  161.9560  204.6760  148.7160 C   0  0  2  0  0  3  0  0  0  0  0  0
  160.6250  203.7390  150.6510 C   0  0  0  0  0  0  0  0  0  0  0  0
  162.3060  210.0080  149.8590 C   0  0  1  0  0  3  0  0  0  0  0  0
  161.3760  207.8280  148.9210 N   0  0  0  0  0  0  0  0  0  0  0  0
  160.9980  208.2190  155.1900 N   0  0  0  0  0  0  0  0  0  0  0  0
  161.8100  203.4260  147.8660 C   0  0  0  0  0  2  0  0  0  0  0  0
  162.1060  205.1360  146.3400 C   0  0  0  0  0  2  0  0  0  0  0  0
  161.6090  209.9390  153.7650 O   0  0  0  0  0  0  0  0  0  0  0  0
  160.9030  205.5700  151.8960 C   0  0  0  0  0  0  0  0  0  0  0  0
  160.8330  206.9530  155.4300 C   0  0  0  0  0  3  0  0  0  0  0  0
  161.2220  207.8200  152.7110 C   0  0  0  0  0  0  0  0  0  0  0  0
  160.9640  206.0070  150.5880 C   0  0  0  0  0  0  0  0  0  0  0  0
  160.4050  202.5390  150.3420 O   0  0  0  0  0  0  0  0  0  0  0  0
  160.7530  204.8550  149.6530 C   0  0  1  0  0  3  0  0  0  0  0  0
  162.3440  203.7170  146.5460 N   0  0  0  0  0  2  0  0  0  0  0  0
  159.8180  206.5780  147.6580 O   0  0  0  0  0  1  0  0  0  0  0  0
  161.0230  205.9000  154.3750 C   0  0  0  0  0  2  0  0  0  0  0  0
  161.0270  206.4460  152.9720 C   0  0  0  0  0  0  0  0  0  0  0  0
  161.1540  206.9780  147.7490 C   0  0  2  0  0  3  0  0  0  0  0  0
  162.3310  211.4720  149.5300 C   0  0  0  0  0  3  0  0  0  0  0  0
  161.2970  213.5270  149.0330 O   0  0  0  0  0  1  0  0  0  0  0  0
  161.2190  212.1750  149.3350 C   0  0  0  0  0  3  0  0  0  0  0  0
  1 19  1  0  0  0  0
  2 13  1  0  0  0  0
  4 20  1  0  0  0  0
  4  1  2  0  0  0  0
  5  1  1  0  0  0  0
  6  8  2  0  0  0  0
  7 15  1  6  0  0  0
  7 27  1  0  0  0  0
  7  9  1  0  0  0  0
  8 12  1  0  0  0  0
  8 11  1  0  0  0  0
  9 14  1  6  0  0  0
  9 22  1  0  0  0  0
 10  3  1  0  0  0  0
 11 28  1  6  0  0  0
 11  5  1  0  0  0  0
 12  4  1  0  0  0  0
 13 18  2  0  0  0  0
 15 23  1  0  0  0  0
 16  2  2  0  0  0  0
 17  3  1  0  0  0  0
 17 26  1  0  0  0  0
 19 26  2  0  0  0  0
 19  2  1  0  0  0  0
 20 17  2  0  0  0  0
 21 10  2  0  0  0  0
 22 20  1  1  0  0  0
 22 10  1  0  0  0  0
 23 14  1  0  0  0  0
 25 18  1  0  0  0  0
 26 25  1  0  0  0  0
 27 24  1  1  0  0  0
 27 12  1  0  0  0  0
 29 30  1  0  0  0  0
 30 28  2  0  0  0  0
M  END
>  <MODEL>
4

>  <REMARK>
 VINA RESULT:      -6.9      2.085      5.805
  Name = 
  1 active torsions:
  status: ('A' for Active; 'I' for Inactive)
    1  A    between atoms: C_11  and  C_28
                            x       y       z     vdW  Elec       q    Type
                         _______ _______ _______ _____ _____    ______ ____

>  <TORSDO>
F 1

$$$$
=
 OpenBabel11122412403D

 30 35  0  0  1  0  0  0  0  0999 V2000
  161.3340  209.6550  151.4930 C   0  0  0  0  0  0  0  0  0  0  0  0
  161.1810  212.0320  150.5420 C   0  0  0  0  0  0  0  0  0  0  0  0
  162.0520  208.0780  147.6680 N   0  0  0  0  0  2  0  0  0  0  0  0
  161.5390  208.2650  151.2850 C   0  0  0  0  0  0  0  0  0  0  0  0
  161.2050  210.1510  152.9050 C   0  0  0  0  0  2  0  0  0  0  0  0
  160.6560  206.9970  154.5920 O   0  0  0  0  0  0  0  0  0  0  0  0
  160.7900  205.1900  151.3190 C   0  0  1  0  0  3  0  0  0  0  0  0
  160.8310  207.8030  153.6360 C   0  0  0  0  0  0  0  0  0  0  0  0
  160.9650  205.4740  149.8260 C   0  0  2  0  0  3  0  0  0  0  0  0
  162.2250  206.7100  148.0170 C   0  0  0  0  0  0  0  0  0  0  0  0
  160.3440  209.2230  153.7510 C   0  0  1  0  0  3  0  0  0  0  0  0
  161.4080  207.3430  152.3990 N   0  0  0  0  0  0  0  0  0  0  0  0
  161.4320  212.8900  149.4260 N   0  0  0  0  0  0  0  0  0  0  0  0
  161.2060  204.1050  149.2130 C   0  0  0  0  0  2  0  0  0  0  0  0
  160.9250  203.6910  151.4690 C   0  0  0  0  0  2  0  0  0  0  0  0
  160.8310  212.5460  151.6360 O   0  0  0  0  0  0  0  0  0  0  0  0
  161.8080  208.7100  148.9140 C   0  0  0  0  0  0  0  0  0  0  0  0
  161.6330  212.4380  148.2260 C   0  0  0  0  0  3  0  0  0  0  0  0
  161.3570  210.5630  150.3940 C   0  0  0  0  0  0  0  0  0  0  0  0
  161.8020  207.8270  149.9750 C   0  0  0  0  0  0  0  0  0  0  0  0
  162.5090  205.8310  147.1610 O   0  0  0  0  0  0  0  0  0  0  0  0
  162.1070  206.4420  149.4900 C   0  0  1  0  0  3  0  0  0  0  0  0
  160.7320  203.1040  150.1540 N   0  0  0  0  0  2  0  0  0  0  0  0
  163.0810  205.7190  152.0110 O   0  0  0  0  0  1  0  0  0  0  0  0
  161.5420  210.9770  147.8860 C   0  0  0  0  0  2  0  0  0  0  0  0
  161.5930  210.0750  149.0900 C   0  0  0  0  0  0  0  0  0  0  0  0
  161.7260  205.9180  152.2960 C   0  0  2  0  0  3  0  0  0  0  0  0
  160.2790  209.7130  155.1690 C   0  0  0  0  0  3  0  0  0  0  0  0
  161.1440  210.8610  157.0320 O   0  0  0  0  0  1  0  0  0  0  0  0
  161.2530  210.4320  155.7170 C   0  0  0  0  0  3  0  0  0  0  0  0
  1  5  1  0  0  0  0
  2 16  2  0  0  0  0
  3 10  1  0  0  0  0
  3 17  1  0  0  0  0
  4  1  1  0  0  0  0
  4 12  1  0  0  0  0
  5 11  1  0  0  0  0
  7 15  1  6  0  0  0
  7 27  1  0  0  0  0
  8 11  1  0  0  0  0
  8  6  2  0  0  0  0
  9 14  1  6  0  0  0
  9  7  1  0  0  0  0
 11 28  1  1  0  0  0
 12  8  1  0  0  0  0
 13  2  1  0  0  0  0
 14 23  1  0  0  0  0
 17 26  2  0  0  0  0
 17 20  1  0  0  0  0
 18 13  2  0  0  0  0
 19  2  1  0  0  0  0
 19  1  2  0  0  0  0
 20  4  2  0  0  0  0
 21 10  2  0  0  0  0
 22 10  1  6  0  0  0
 22  9  1  0  0  0  0
 22 20  1  0  0  0  0
 23 15  1  0  0  0  0
 25 18  1  0  0  0  0
 25 26  1  0  0  0  0
 26 19  1  0  0  0  0
 27 24  1  6  0  0  0
 27 12  1  0  0  0  0
 28 30  2  0  0  0  0
 30 29  1  0  0  0  0
M  END
>  <MODEL>
5

>  <REMARK>
 VINA RESULT:      -6.7      2.426      7.674
  Name = 
  1 active torsions:
  status: ('A' for Active; 'I' for Inactive)
    1  A    between atoms: C_11  and  C_28
                            x       y       z     vdW  Elec       q    Type
                         _______ _______ _______ _____ _____    ______ ____

>  <TORSDO>
F 1

$$$$
=
 OpenBabel11122412403D

 30 35  0  0  1  0  0  0  0  0999 V2000
  160.9330  210.5280  151.8740 C   0  0  0  0  0  0  0  0  0  0  0  0
  161.9970  208.6760  150.4540 C   0  0  0  0  0  0  0  0  0  0  0  0
  160.5130  207.9130  155.1310 N   0  0  0  0  0  2  0  0  0  0  0  0
  160.3690  210.9550  153.1050 C   0  0  0  0  0  0  0  0  0  0  0  0
  161.1590  211.5560  150.8020 C   0  0  0  0  0  2  0  0  0  0  0  0
  159.1300  214.2460  152.1250 O   0  0  0  0  0  0  0  0  0  0  0  0
  158.1230  212.1000  155.0190 C   0  0  1  0  0  3  0  0  0  0  0  0
  159.6500  213.0980  152.0410 C   0  0  0  0  0  0  0  0  0  0  0  0
  158.3400  210.6890  155.5680 C   0  0  2  0  0  3  0  0  0  0  0  0
  159.9620  208.8190  156.0790 C   0  0  0  0  0  0  0  0  0  0  0  0
  159.9860  212.5220  150.6910 C   0  0  1  0  0  3  0  0  0  0  0  0
  159.8340  212.2990  153.2260 N   0  0  0  0  0  0  0  0  0  0  0  0
  162.6000  207.3800  150.4410 N   0  0  0  0  0  0  0  0  0  0  0  0
  157.7960  210.7520  156.9840 C   0  0  0  0  0  2  0  0  0  0  0  0
  157.4600  212.8760  156.1370 C   0  0  0  0  0  2  0  0  0  0  0  0
  162.0270  209.3710  149.4050 O   0  0  0  0  0  0  0  0  0  0  0  0
  160.7030  208.7140  153.9770 C   0  0  0  0  0  0  0  0  0  0  0  0
  162.4700  206.5360  151.4200 C   0  0  0  0  0  3  0  0  0  0  0  0
  161.3700  209.1820  151.7040 C   0  0  0  0  0  0  0  0  0  0  0  0
  160.2920  210.0200  154.1530 C   0  0  0  0  0  0  0  0  0  0  0  0
  159.6980  208.4740  157.2610 O   0  0  0  0  0  0  0  0  0  0  0  0
  159.8000  210.2170  155.5550 C   0  0  1  0  0  3  0  0  0  0  0  0
  156.9190  211.9080  157.0750 N   0  0  0  0  0  2  0  0  0  0  0  0
  160.3840  212.9500  155.4300 O   0  0  0  0  0  1  0  0  0  0  0  0
  161.6090  206.8150  152.6190 C   0  0  0  0  0  2  0  0  0  0  0  0
  161.2440  208.2680  152.7730 C   0  0  0  0  0  0  0  0  0  0  0  0
  159.3520  212.8550  154.4910 C   0  0  2  0  0  3  0  0  0  0  0  0
  160.2630  213.5700  149.6530 C   0  0  0  0  0  3  0  0  0  0  0  0
  161.3630  214.3860  147.7390 O   0  0  0  0  0  1  0  0  0  0  0  0
  161.1430  213.3840  148.6740 C   0  0  0  0  0  3  0  0  0  0  0  0
  1  4  1  0  0  0  0
  2 19  1  0  0  0  0
  3 10  1  0  0  0  0
  4 12  1  0  0  0  0
  4 20  2  0  0  0  0
  5  1  1  0  0  0  0
  7  9  1  0  0  0  0
  7 15  1  1  0  0  0
  8  6  2  0  0  0  0
  8 12  1  0  0  0  0
  9 14  1  1  0  0  0
 10 21  2  0  0  0  0
 11 28  1  6  0  0  0
 11  5  1  0  0  0  0
 11  8  1  0  0  0  0
 12 27  1  0  0  0  0
 13  2  1  0  0  0  0
 13 18  2  0  0  0  0
 14 23  1  0  0  0  0
 15 23  1  0  0  0  0
 16  2  2  0  0  0  0
 17 20  1  0  0  0  0
 17  3  1  0  0  0  0
 18 25  1  0  0  0  0
 19  1  2  0  0  0  0
 19 26  1  0  0  0  0
 22 20  1  6  0  0  0
 22  9  1  0  0  0  0
 22 10  1  0  0  0  0
 25 26  1  0  0  0  0
 26 17  2  0  0  0  0
 27  7  1  0  0  0  0
 27 24  1  1  0  0  0
 29 30  1  0  0  0  0
 30 28  2  0  0  0  0
M  END
>  <MODEL>
6

>  <REMARK>
 VINA RESULT:      -5.8      3.943      6.434
  Name = 
  1 active torsions:
  status: ('A' for Active; 'I' for Inactive)
    1  A    between atoms: C_11  and  C_28
                            x       y       z     vdW  Elec       q    Type
                         _______ _______ _______ _____ _____    ______ ____

>  <TORSDO>
F 1

$$$$
