=
 OpenBabel11122413123D

 31 35  0  0  1  0  0  0  0  0999 V2000
  160.8740  206.2730  146.4520 C   0  0  0  0  0  0  0  0  0  0  0  0
  160.2340  204.9880  149.9740 C   0  0  2  0  0  3  0  0  0  0  0  0
  160.6950  203.5370  149.9980 C   0  0  0  0  0  0  0  0  0  0  0  0
  161.3000  201.4830  148.8440 C   0  0  0  0  0  0  0  0  0  0  0  0
  160.8280  205.7780  148.8300 C   0  0  0  0  0  0  0  0  0  0  0  0
  161.9560  207.1340  146.6480 C   0  0  0  0  0  3  0  0  0  0  0  0
  160.9100  202.8240  148.8080 C   0  0  0  0  0  3  0  0  0  0  0  0
  161.9790  206.0110  151.4770 C   0  0  2  0  0  3  0  0  0  0  0  0
  160.3600  206.0850  145.1780 O   0  0  0  0  0  1  0  0  0  0  0  0
  160.5860  203.5340  152.4330 O   0  0  0  0  0  0  0  0  0  0  0  0
  161.5810  200.6160  147.3500 Cl  0  0  0  0  0  0  0  0  0  0  0  0
  162.4220  207.0010  150.3990 C   0  0  0  0  0  2  0  0  0  0  0  0
  160.4860  205.6950  151.3210 C   0  0  2  0  0  3  0  0  0  0  0  0
  160.3120  205.6000  147.5390 C   0  0  0  0  0  3  0  0  0  0  0  0
  161.4680  200.8360  150.0700 C   0  0  0  0  0  3  0  0  0  0  0  0
  161.9210  206.6520  149.0260 C   0  0  0  0  0  0  0  0  0  0  0  0
  162.4700  207.3300  147.9320 C   0  0  0  0  0  3  0  0  0  0  0  0
  159.9680  204.8190  152.4640 C   0  0  0  0  0  2  0  0  0  0  0  0
  160.8310  202.8650  151.2300 C   0  0  0  0  0  0  0  0  0  0  0  0
  161.2320  201.5260  151.2610 C   0  0  0  0  0  3  0  0  0  0  0  0
  160.6170  208.2490  152.6210 O   0  0  0  0  0  0  0  0  0  0  0  0
  161.5200  207.7010  153.3090 C   0  0  0  0  0  0  0  0  0  0  0  0
  162.2420  206.5810  152.7910 N   0  0  0  0  0  2  0  0  0  0  0  0
  159.5940  209.7820  155.8210 C   0  0  1  0  0  3  0  0  0  0  0  0
  160.9330  207.6610  155.7510 C   0  0  0  0  0  2  0  0  0  0  0  0
  162.6170  210.3280  153.6970 O   0  0  0  0  0  1  0  0  0  0  0  0
  158.2530  210.3300  155.7610 N   0  0  0  0  0  1  0  0  0  0  0  0
  159.5280  208.2630  155.6990 C   0  0  0  0  0  2  0  0  0  0  0  0
  161.8480  209.7910  154.7290 C   0  0  2  0  0  3  0  0  0  0  0  0
  161.8410  208.2530  154.6680 C   0  0  2  0  0  3  0  0  0  0  0  0
  160.4340  210.3690  154.6900 C   0  0  0  0  0  2  0  0  0  0  0  0
  1  6  2  0  0  0  0
  1 14  1  0  0  0  0
  2  5  1  6  0  0  0
  2  3  1  0  0  0  0
  2 13  1  0  0  0  0
  3 19  1  0  0  0  0
  4 15  2  0  0  0  0
  5 16  1  0  0  0  0
  6 17  1  0  0  0  0
  7  4  1  0  0  0  0
  7  3  2  0  0  0  0
  8 23  1  1  0  0  0
  9  1  1  0  0  0  0
 10 18  1  0  0  0  0
 11  4  1  0  0  0  0
 12  8  1  0  0  0  0
 13  8  1  0  0  0  0
 13 18  1  1  0  0  0
 14  5  2  0  0  0  0
 15 20  1  0  0  0  0
 16 12  1  0  0  0  0
 17 16  2  0  0  0  0
 19 20  2  0  0  0  0
 19 10  1  0  0  0  0
 21 22  2  0  0  0  0
 23 22  1  0  0  0  0
 24 27  1  6  0  0  0
 28 25  1  0  0  0  0
 28 24  1  0  0  0  0
 29 26  1  6  0  0  0
 30 22  1  6  0  0  0
 30 29  1  0  0  0  0
 30 25  1  0  0  0  0
 31 29  1  0  0  0  0
 31 24  1  0  0  0  0
M  END
>  <MODEL>
1

>  <REMARK>
 VINA RESULT:      -6.4      0.000      0.000
  Name = 
  2 active torsions:
  status: ('A' for Active; 'I' for Inactive)
    1  A    between atoms: C_5  and  C_30
    2  A    between atoms: C_10  and  N_16
                            x       y       z     vdW  Elec       q    Type
                         _______ _______ _______ _____ _____    ______ ____

>  <TORSDO>
F 2

$$$$
=
 OpenBabel11122413123D

 31 35  0  0  1  0  0  0  0  0999 V2000
  161.1160  203.8740  145.6070 C   0  0  0  0  0  0  0  0  0  0  0  0
  160.4820  205.8200  148.8130 C   0  0  2  0  0  3  0  0  0  0  0  0
  160.8360  204.8900  149.9640 C   0  0  0  0  0  0  0  0  0  0  0  0
  161.2600  202.6590  150.8370 C   0  0  0  0  0  0  0  0  0  0  0  0
  161.0990  205.3980  147.5000 C   0  0  0  0  0  0  0  0  0  0  0  0
  162.2620  204.4970  145.1100 C   0  0  0  0  0  3  0  0  0  0  0  0
  160.9660  203.5060  149.7660 C   0  0  0  0  0  3  0  0  0  0  0  0
  162.3360  207.5100  149.0460 C   0  0  2  0  0  3  0  0  0  0  0  0
  160.5540  202.8060  144.9230 O   0  0  0  0  0  1  0  0  0  0  0  0
  160.7950  206.7740  151.5110 O   0  0  0  0  0  0  0  0  0  0  0  0
  161.4370  200.9390  150.5660 Cl  0  0  0  0  0  0  0  0  0  0  0  0
  162.8190  207.2750  147.6150 C   0  0  0  0  0  2  0  0  0  0  0  0
  160.8210  207.2900  149.1340 C   0  0  2  0  0  3  0  0  0  0  0  0
  160.5370  204.3240  146.7960 C   0  0  0  0  0  3  0  0  0  0  0  0
  161.4140  203.1840  152.1220 C   0  0  0  0  0  3  0  0  0  0  0  0
  162.2580  206.0290  146.9920 C   0  0  0  0  0  0  0  0  0  0  0  0
  162.8230  205.5780  145.7950 C   0  0  0  0  0  3  0  0  0  0  0  0
  160.2720  207.6510  150.5160 C   0  0  0  0  0  2  0  0  0  0  0  0
  160.9580  205.4060  151.2710 C   0  0  0  0  0  0  0  0  0  0  0  0
  161.2610  204.5550  152.3380 C   0  0  0  0  0  3  0  0  0  0  0  0
  161.3790  209.9040  147.8110 O   0  0  0  0  0  0  0  0  0  0  0  0
  162.1570  210.0260  148.7950 C   0  0  0  0  0  0  0  0  0  0  0  0
  162.6760  208.8670  149.4520 N   0  0  0  0  0  2  0  0  0  0  0  0
  161.0840  213.5240  147.8160 C   0  0  1  0  0  3  0  0  0  0  0  0
  161.3740  212.1450  149.8920 C   0  0  0  0  0  2  0  0  0  0  0  0
  164.2380  211.5460  147.5250 O   0  0  0  0  0  1  0  0  0  0  0  0
  160.1250  213.9740  146.8250 N   0  0  0  0  0  1  0  0  0  0  0  0
  160.3800  212.6390  148.8400 C   0  0  0  0  0  2  0  0  0  0  0  0
  163.2150  212.2540  148.1560 C   0  0  2  0  0  3  0  0  0  0  0  0
  162.5500  211.4010  149.2510 C   0  0  2  0  0  3  0  0  0  0  0  0
  162.2020  212.7490  147.1250 C   0  0  0  0  0  2  0  0  0  0  0  0
  1 14  1  0  0  0  0
  2  5  1  6  0  0  0
  2 13  1  0  0  0  0
  2  3  1  0  0  0  0
  3 19  1  0  0  0  0
  4 15  2  0  0  0  0
  6  1  2  0  0  0  0
  6 17  1  0  0  0  0
  7  3  2  0  0  0  0
  7  4  1  0  0  0  0
  8 13  1  0  0  0  0
  8 23  1  6  0  0  0
  9  1  1  0  0  0  0
 11  4  1  0  0  0  0
 12  8  1  0  0  0  0
 13 18  1  1  0  0  0
 14  5  2  0  0  0  0
 15 20  1  0  0  0  0
 16  5  1  0  0  0  0
 16 12  1  0  0  0  0
 17 16  2  0  0  0  0
 18 10  1  0  0  0  0
 19 10  1  0  0  0  0
 19 20  2  0  0  0  0
 21 22  2  0  0  0  0
 22 23  1  0  0  0  0
 24 27  1  6  0  0  0
 24 28  1  0  0  0  0
 28 25  1  0  0  0  0
 29 26  1  6  0  0  0
 29 30  1  0  0  0  0
 30 22  1  6  0  0  0
 30 25  1  0  0  0  0
 31 24  1  0  0  0  0
 31 29  1  0  0  0  0
M  END
>  <MODEL>
2

>  <REMARK>
 VINA RESULT:      -5.8      3.664      4.769
  Name = 
  2 active torsions:
  status: ('A' for Active; 'I' for Inactive)
    1  A    between atoms: C_5  and  C_30
    2  A    between atoms: C_10  and  N_16
                            x       y       z     vdW  Elec       q    Type
                         _______ _______ _______ _____ _____    ______ ____

>  <TORSDO>
F 2

$$$$
=
 OpenBabel11122413123D

 31 35  0  0  1  0  0  0  0  0999 V2000
  161.9710  206.4630  147.3560 C   0  0  0  0  0  0  0  0  0  0  0  0
  162.4360  209.0830  150.0730 C   0  0  2  0  0  3  0  0  0  0  0  0
  161.8110  210.3690  149.5490 C   0  0  0  0  0  0  0  0  0  0  0  0
  160.9790  211.7300  147.7130 C   0  0  0  0  0  0  0  0  0  0  0  0
  161.9450  207.8500  149.3500 C   0  0  0  0  0  0  0  0  0  0  0  0
  160.9950  205.6360  147.9130 C   0  0  0  0  0  3  0  0  0  0  0  0
  161.5230  210.5330  148.1850 C   0  0  0  0  0  3  0  0  0  0  0  0
  160.8110  208.5440  151.9220 C   0  0  2  0  0  3  0  0  0  0  0  0
  162.4680  206.1940  146.0890 O   0  0  0  0  0  1  0  0  0  0  0  0
  161.9030  211.3350  151.7860 O   0  0  0  0  0  0  0  0  0  0  0  0
  160.6100  211.9080  146.0120 Cl  0  0  0  0  0  0  0  0  0  0  0  0
  160.4930  207.1710  151.3330 C   0  0  0  0  0  2  0  0  0  0  0  0
  162.2590  208.9360  151.5980 C   0  0  2  0  0  3  0  0  0  0  0  0
  162.4450  207.5650  148.0720 C   0  0  0  0  0  3  0  0  0  0  0  0
  160.7300  212.7810  148.5970 C   0  0  0  0  0  3  0  0  0  0  0  0
  160.9590  207.0080  149.9130 C   0  0  0  0  0  0  0  0  0  0  0  0
  160.4990  205.9020  149.1910 C   0  0  0  0  0  3  0  0  0  0  0  0
  162.6650  210.2390  152.2890 C   0  0  0  0  0  2  0  0  0  0  0  0
  161.5900  211.4490  150.4280 C   0  0  0  0  0  0  0  0  0  0  0  0
  161.0370  212.6420  149.9520 C   0  0  0  0  0  3  0  0  0  0  0  0
  159.4030  210.5060  153.4530 O   0  0  0  0  0  0  0  0  0  0  0  0
  159.8870  209.5210  154.0710 C   0  0  0  0  0  0  0  0  0  0  0  0
  160.6080  208.5080  153.3640 N   0  0  0  0  0  2  0  0  0  0  0  0
  162.1430  210.2770  157.0180 C   0  0  1  0  0  3  0  0  0  0  0  0
  159.8240  210.8130  156.2240 C   0  0  0  0  0  2  0  0  0  0  0  0
  160.6100  207.1880  155.5850 O   0  0  0  0  0  1  0  0  0  0  0  0
  163.5130  210.7520  157.0600 N   0  0  0  0  0  1  0  0  0  0  0  0
  161.2740  211.2960  156.2880 C   0  0  0  0  0  2  0  0  0  0  0  0
  160.6550  208.4210  156.2370 C   0  0  2  0  0  3  0  0  0  0  0  0
  159.7170  209.4360  155.5610 C   0  0  2  0  0  3  0  0  0  0  0  0
  162.0940  208.9300  156.3030 C   0  0  0  0  0  2  0  0  0  0  0  0
  1  6  2  0  0  0  0
  1 14  1  0  0  0  0
  2  5  1  6  0  0  0
  2 13  1  0  0  0  0
  3  2  1  0  0  0  0
  3 19  1  0  0  0  0
  4  7  1  0  0  0  0
  4 15  2  0  0  0  0
  5 16  1  0  0  0  0
  6 17  1  0  0  0  0
  7  3  2  0  0  0  0
  8 23  1  1  0  0  0
  9  1  1  0  0  0  0
 10 18  1  0  0  0  0
 11  4  1  0  0  0  0
 12  8  1  0  0  0  0
 13  8  1  0  0  0  0
 13 18  1  1  0  0  0
 14  5  2  0  0  0  0
 15 20  1  0  0  0  0
 16 12  1  0  0  0  0
 17 16  2  0  0  0  0
 19 10  1  0  0  0  0
 20 19  2  0  0  0  0
 21 22  2  0  0  0  0
 23 22  1  0  0  0  0
 24 27  1  6  0  0  0
 25 28  1  0  0  0  0
 28 24  1  0  0  0  0
 29 26  1  6  0  0  0
 29 31  1  0  0  0  0
 30 22  1  6  0  0  0
 30 25  1  0  0  0  0
 30 29  1  0  0  0  0
 31 24  1  0  0  0  0
M  END
>  <MODEL>
3

>  <REMARK>
 VINA RESULT:      -5.5      3.429      5.661
  Name = 
  2 active torsions:
  status: ('A' for Active; 'I' for Inactive)
    1  A    between atoms: C_5  and  C_30
    2  A    between atoms: C_10  and  N_16
                            x       y       z     vdW  Elec       q    Type
                         _______ _______ _______ _____ _____    ______ ____

>  <TORSDO>
F 2

$$$$
=
 OpenBabel11122413123D

 31 35  0  0  1  0  0  0  0  0999 V2000
  161.0110  204.6530  145.1450 C   0  0  0  0  0  0  0  0  0  0  0  0
  160.4510  205.2900  148.8530 C   0  0  2  0  0  3  0  0  0  0  0  0
  160.8580  204.0150  149.5790 C   0  0  0  0  0  0  0  0  0  0  0  0
  161.3440  201.6310  149.5730 C   0  0  0  0  0  0  0  0  0  0  0  0
  161.0320  205.3870  147.4610 C   0  0  0  0  0  0  0  0  0  0  0  0
  162.1300  205.4440  144.8800 C   0  0  0  0  0  3  0  0  0  0  0  0
  161.0020  202.8010  148.8890 C   0  0  0  0  0  3  0  0  0  0  0  0
  162.2860  206.8280  149.6370 C   0  0  2  0  0  3  0  0  0  0  0  0
  160.4440  203.8910  144.1340 O   0  0  0  0  0  1  0  0  0  0  0  0
  160.8370  205.2090  151.7040 O   0  0  0  0  0  0  0  0  0  0  0  0
  161.5380  200.1320  148.6930 Cl  0  0  0  0  0  0  0  0  0  0  0  0
  162.7260  207.1400  148.2070 C   0  0  0  0  0  2  0  0  0  0  0  0
  160.7780  206.5520  149.6770 C   0  0  2  0  0  3  0  0  0  0  0  0
  160.4630  204.6270  146.4300 C   0  0  0  0  0  3  0  0  0  0  0  0
  161.5320  201.6600  150.9560 C   0  0  0  0  0  3  0  0  0  0  0  0
  162.1630  206.1900  147.1880 C   0  0  0  0  0  0  0  0  0  0  0  0
  162.6970  206.2170  145.8950 C   0  0  0  0  0  3  0  0  0  0  0  0
  160.2690  206.3740  151.1090 C   0  0  0  0  0  2  0  0  0  0  0  0
  161.0130  204.0260  150.9810 C   0  0  0  0  0  0  0  0  0  0  0  0
  161.3650  202.8550  151.6590 C   0  0  0  0  0  3  0  0  0  0  0  0
  161.2630  209.4840  149.3700 O   0  0  0  0  0  0  0  0  0  0  0  0
  162.0660  209.2600  150.3150 C   0  0  0  0  0  0  0  0  0  0  0  0
  162.6180  207.9540  150.4990 N   0  0  0  0  0  2  0  0  0  0  0  0
  160.2290  211.2260  152.9820 C   0  0  1  0  0  3  0  0  0  0  0  0
  162.3840  209.9710  152.7030 C   0  0  0  0  0  2  0  0  0  0  0  0
  161.6680  212.0220  149.6290 O   0  0  0  0  0  1  0  0  0  0  0  0
  158.8600  211.1250  153.4530 N   0  0  0  0  0  1  0  0  0  0  0  0
  160.9400  209.8930  153.2000 C   0  0  0  0  0  2  0  0  0  0  0  0
  161.6650  211.6860  150.9840 C   0  0  2  0  0  3  0  0  0  0  0  0
  162.4520  210.3870  151.2300 C   0  0  2  0  0  3  0  0  0  0  0  0
  160.2310  211.5910  151.5000 C   0  0  0  0  0  2  0  0  0  0  0  0
  1 14  1  0  0  0  0
  2  5  1  6  0  0  0
  2  3  1  0  0  0  0
  2 13  1  0  0  0  0
  3 19  1  0  0  0  0
  4 15  2  0  0  0  0
  6  1  2  0  0  0  0
  6 17  1  0  0  0  0
  7  4  1  0  0  0  0
  7  3  2  0  0  0  0
  8 13  1  0  0  0  0
  8 23  1  1  0  0  0
  9  1  1  0  0  0  0
 11  4  1  0  0  0  0
 12  8  1  0  0  0  0
 13 18  1  1  0  0  0
 14  5  2  0  0  0  0
 15 20  1  0  0  0  0
 16  5  1  0  0  0  0
 16 12  1  0  0  0  0
 17 16  2  0  0  0  0
 18 10  1  0  0  0  0
 19 20  2  0  0  0  0
 19 10  1  0  0  0  0
 21 22  2  0  0  0  0
 22 23  1  0  0  0  0
 24 28  1  0  0  0  0
 24 27  1  6  0  0  0
 25 28  1  0  0  0  0
 29 26  1  6  0  0  0
 29 30  1  0  0  0  0
 29 31  1  0  0  0  0
 30 22  1  6  0  0  0
 30 25  1  0  0  0  0
 31 24  1  0  0  0  0
M  END
>  <MODEL>
4

>  <REMARK>
 VINA RESULT:      -5.4      2.092      2.551
  Name = 
  2 active torsions:
  status: ('A' for Active; 'I' for Inactive)
    1  A    between atoms: C_5  and  C_30
    2  A    between atoms: C_10  and  N_16
                            x       y       z     vdW  Elec       q    Type
                         _______ _______ _______ _____ _____    ______ ____

>  <TORSDO>
F 2

$$$$
=
 OpenBabel11122413123D

 31 35  0  0  1  0  0  0  0  0999 V2000
  160.7620  201.5710  148.7740 C   0  0  0  0  0  0  0  0  0  0  0  0
  162.3090  204.8360  149.9620 C   0  0  2  0  0  3  0  0  0  0  0  0
  161.8000  205.9240  149.0260 C   0  0  0  0  0  0  0  0  0  0  0  0
  160.7870  206.6140  146.9250 C   0  0  0  0  0  0  0  0  0  0  0  0
  161.4570  203.5880  149.9360 C   0  0  0  0  0  0  0  0  0  0  0  0
  159.8270  201.3100  149.7760 C   0  0  0  0  0  3  0  0  0  0  0  0
  161.2200  205.6040  147.7890 C   0  0  0  0  0  3  0  0  0  0  0  0
  161.1180  205.5050  152.0790 C   0  0  2  0  0  3  0  0  0  0  0  0
  160.8830  200.7060  147.6950 O   0  0  0  0  0  1  0  0  0  0  0  0
  162.5960  207.6350  150.5700 O   0  0  0  0  0  0  0  0  0  0  0  0
  160.0490  206.1950  145.3950 Cl  0  0  0  0  0  0  0  0  0  0  0  0
  160.4400  204.1420  152.2070 C   0  0  0  0  0  2  0  0  0  0  0  0
  162.4870  205.3520  151.4040 C   0  0  2  0  0  3  0  0  0  0  0  0
  161.5750  202.7040  148.8540 C   0  0  0  0  0  3  0  0  0  0  0  0
  160.9410  207.9540  147.2840 C   0  0  0  0  0  3  0  0  0  0  0  0
  160.5110  203.3190  150.9520 C   0  0  0  0  0  0  0  0  0  0  0  0
  159.7100  202.1760  150.8660 C   0  0  0  0  0  3  0  0  0  0  0  0
  163.2620  206.6710  151.3830 C   0  0  0  0  0  2  0  0  0  0  0  0
  161.9850  207.2810  149.3640 C   0  0  0  0  0  0  0  0  0  0  0  0
  161.5410  208.2870  148.5000 C   0  0  0  0  0  3  0  0  0  0  0  0
  160.5070  208.2100  152.7760 O   0  0  0  0  0  0  0  0  0  0  0  0
  160.9390  207.4560  153.6880 C   0  0  0  0  0  0  0  0  0  0  0  0
  161.2690  206.0940  153.4030 N   0  0  0  0  0  2  0  0  0  0  0  0
  159.0410  209.9780  155.7810 C   0  0  1  0  0  3  0  0  0  0  0  0
  159.9540  207.6500  155.9900 C   0  0  0  0  0  2  0  0  0  0  0  0
  162.4260  209.8590  154.2070 O   0  0  0  0  0  1  0  0  0  0  0  0
  157.8550  210.7540  155.4760 N   0  0  0  0  0  1  0  0  0  0  0  0
  158.7150  208.4910  155.6810 C   0  0  0  0  0  2  0  0  0  0  0  0
  161.4070  209.5240  155.1000 C   0  0  2  0  0  3  0  0  0  0  0  0
  161.1250  208.0110  155.0710 C   0  0  2  0  0  3  0  0  0  0  0  0
  160.1530  210.3440  154.8030 C   0  0  0  0  0  2  0  0  0  0  0  0
  1 14  2  0  0  0  0
  1  6  1  0  0  0  0
  2  3  1  6  0  0  0
  2 13  1  0  0  0  0
  3 19  1  0  0  0  0
  4 15  2  0  0  0  0
  4  7  1  0  0  0  0
  5  2  1  0  0  0  0
  5 16  2  0  0  0  0
  6 17  2  0  0  0  0
  7  3  2  0  0  0  0
  8 12  1  0  0  0  0
  8 23  1  1  0  0  0
  9  1  1  0  0  0  0
 10 18  1  0  0  0  0
 11  4  1  0  0  0  0
 13 18  1  6  0  0  0
 13  8  1  0  0  0  0
 14  5  1  0  0  0  0
 15 20  1  0  0  0  0
 16 12  1  0  0  0  0
 17 16  1  0  0  0  0
 19 10  1  0  0  0  0
 20 19  2  0  0  0  0
 21 22  2  0  0  0  0
 23 22  1  0  0  0  0
 24 27  1  6  0  0  0
 28 24  1  0  0  0  0
 28 25  1  0  0  0  0
 29 26  1  6  0  0  0
 30 22  1  6  0  0  0
 30 29  1  0  0  0  0
 30 25  1  0  0  0  0
 31 29  1  0  0  0  0
 31 24  1  0  0  0  0
M  END
>  <MODEL>
5

>  <REMARK>
 VINA RESULT:      -5.1      1.983      3.939
  Name = 
  2 active torsions:
  status: ('A' for Active; 'I' for Inactive)
    1  A    between atoms: C_5  and  C_30
    2  A    between atoms: C_10  and  N_16
                            x       y       z     vdW  Elec       q    Type
                         _______ _______ _______ _____ _____    ______ ____

>  <TORSDO>
F 2

$$$$
=
 OpenBabel11122413123D

 31 35  0  0  1  0  0  0  0  0999 V2000
  162.0310  213.1910  147.8870 C   0  0  0  0  0  0  0  0  0  0  0  0
  159.6530  214.1620  150.6930 C   0  0  2  0  0  3  0  0  0  0  0  0
  158.2510  214.1460  150.0990 C   0  0  0  0  0  0  0  0  0  0  0  0
  156.7580  214.1740  148.1790 C   0  0  0  0  0  0  0  0  0  0  0  0
  160.6480  213.3690  149.8770 C   0  0  0  0  0  0  0  0  0  0  0  0
  162.4170  211.9040  148.2650 C   0  0  0  0  0  3  0  0  0  0  0  0
  158.0500  214.1550  148.7100 C   0  0  0  0  0  3  0  0  0  0  0  0
  159.4780  212.1860  152.2470 C   0  0  2  0  0  3  0  0  0  0  0  0
  162.5170  213.7440  146.7120 O   0  0  0  0  0  1  0  0  0  0  0  0
  157.2930  214.2390  152.3390 O   0  0  0  0  0  0  0  0  0  0  0  0
  156.5280  214.1670  146.4440 Cl  0  0  0  0  0  0  0  0  0  0  0  0
  160.6620  211.4790  151.5880 C   0  0  0  0  0  2  0  0  0  0  0  0
  159.6610  213.7070  152.1660 C   0  0  2  0  0  3  0  0  0  0  0  0
  161.1510  213.9200  148.6910 C   0  0  0  0  0  3  0  0  0  0  0  0
  155.6530  214.1970  149.0310 C   0  0  0  0  0  3  0  0  0  0  0  0
  161.0440  212.0660  150.2590 C   0  0  0  0  0  0  0  0  0  0  0  0
  161.9330  211.3490  149.4520 C   0  0  0  0  0  3  0  0  0  0  0  0
  158.5700  214.4530  152.9370 C   0  0  0  0  0  2  0  0  0  0  0  0
  157.1290  214.2060  150.9520 C   0  0  0  0  0  0  0  0  0  0  0  0
  155.8380  214.2150  150.4150 C   0  0  0  0  0  3  0  0  0  0  0  0
  160.0530  209.5640  153.2310 O   0  0  0  0  0  0  0  0  0  0  0  0
  159.6840  210.4330  154.0650 C   0  0  0  0  0  0  0  0  0  0  0  0
  159.3760  211.7610  153.6360 N   0  0  0  0  0  2  0  0  0  0  0  0
  162.0520  210.4710  157.0220 C   0  0  1  0  0  3  0  0  0  0  0  0
  159.7400  211.2540  156.4390 C   0  0  0  0  0  2  0  0  0  0  0  0
  160.3370  207.8100  155.0410 O   0  0  0  0  0  1  0  0  0  0  0  0
  163.4430  210.8710  157.1100 N   0  0  0  0  0  1  0  0  0  0  0  0
  161.2120  211.6530  156.5490 C   0  0  0  0  0  2  0  0  0  0  0  0
  160.4580  208.8780  155.9300 C   0  0  2  0  0  3  0  0  0  0  0  0
  159.5510  210.0480  155.5110 C   0  0  2  0  0  3  0  0  0  0  0  0
  161.9210  209.3040  156.0480 C   0  0  0  0  0  2  0  0  0  0  0  0
  1  6  2  0  0  0  0
  1 14  1  0  0  0  0
  2  5  1  6  0  0  0
  2 13  1  0  0  0  0
  3  2  1  0  0  0  0
  3 19  1  0  0  0  0
  4  7  1  0  0  0  0
  4 15  2  0  0  0  0
  5 16  1  0  0  0  0
  6 17  1  0  0  0  0
  7  3  2  0  0  0  0
  8 23  1  1  0  0  0
  9  1  1  0  0  0  0
 10 18  1  0  0  0  0
 11  4  1  0  0  0  0
 12  8  1  0  0  0  0
 13  8  1  0  0  0  0
 13 18  1  1  0  0  0
 14  5  2  0  0  0  0
 15 20  1  0  0  0  0
 16 12  1  0  0  0  0
 17 16  2  0  0  0  0
 19 10  1  0  0  0  0
 20 19  2  0  0  0  0
 21 22  2  0  0  0  0
 23 22  1  0  0  0  0
 24 27  1  6  0  0  0
 25 28  1  0  0  0  0
 28 24  1  0  0  0  0
 29 26  1  6  0  0  0
 29 31  1  0  0  0  0
 30 22  1  6  0  0  0
 30 29  1  0  0  0  0
 30 25  1  0  0  0  0
 31 24  1  0  0  0  0
M  END
>  <MODEL>
6

>  <REMARK>
 VINA RESULT:      -5.1      6.145      8.242
  Name = 
  2 active torsions:
  status: ('A' for Active; 'I' for Inactive)
    1  A    between atoms: C_5  and  C_30
    2  A    between atoms: C_10  and  N_16
                            x       y       z     vdW  Elec       q    Type
                         _______ _______ _______ _____ _____    ______ ____

>  <TORSDO>
F 2

$$$$
=
 OpenBabel11122413123D

 31 35  0  0  1  0  0  0  0  0999 V2000
  161.7860  203.8000  151.9190 C   0  0  0  0  0  0  0  0  0  0  0  0
  162.5490  207.5040  151.5110 C   0  0  2  0  0  3  0  0  0  0  0  0
  162.0730  207.8950  150.1180 C   0  0  0  0  0  0  0  0  0  0  0  0
  161.3980  207.2960  147.8590 C   0  0  0  0  0  0  0  0  0  0  0  0
  161.9200  206.2240  152.0120 C   0  0  0  0  0  0  0  0  0  0  0  0
  160.7230  203.8200  152.8230 C   0  0  0  0  0  3  0  0  0  0  0  0
  161.8030  206.9220  149.1430 C   0  0  0  0  0  3  0  0  0  0  0  0
  160.8760  208.7740  152.9030 C   0  0  2  0  0  3  0  0  0  0  0  0
  162.2480  202.5920  151.4170 O   0  0  0  0  0  1  0  0  0  0  0  0
  162.2770  210.2530  150.7020 O   0  0  0  0  0  0  0  0  0  0  0  0
  161.0490  206.0680  146.6630 Cl  0  0  0  0  0  0  0  0  0  0  0  0
  160.4040  207.5050  153.6120 C   0  0  0  0  0  2  0  0  0  0  0  0
  162.3580  208.6470  152.5280 C   0  0  2  0  0  3  0  0  0  0  0  0
  162.3830  204.9980  151.5160 C   0  0  0  0  0  3  0  0  0  0  0  0
  161.2720  208.6470  147.5320 C   0  0  0  0  0  3  0  0  0  0  0  0
  160.8460  206.2400  152.9310 C   0  0  0  0  0  0  0  0  0  0  0  0
  160.2630  205.0350  153.3350 C   0  0  0  0  0  3  0  0  0  0  0  0
  162.9110  209.9490  151.9430 C   0  0  0  0  0  2  0  0  0  0  0  0
  161.9770  209.2580  149.7680 C   0  0  0  0  0  0  0  0  0  0  0  0
  161.5620  209.6260  148.4850 C   0  0  0  0  0  3  0  0  0  0  0  0
  159.3350  211.0970  152.2710 O   0  0  0  0  0  0  0  0  0  0  0  0
  159.8830  211.0510  153.4050 C   0  0  0  0  0  0  0  0  0  0  0  0
  160.6720  209.9190  153.7800 N   0  0  0  0  0  2  0  0  0  0  0  0
  157.1400  212.1220  155.7880 C   0  0  1  0  0  3  0  0  0  0  0  0
  159.6210  211.7460  155.8040 C   0  0  0  0  0  2  0  0  0  0  0  0
  158.5950  213.5020  152.6370 O   0  0  0  0  0  1  0  0  0  0  0  0
  155.8550  211.5150  156.0800 N   0  0  0  0  0  1  0  0  0  0  0  0
  158.2540  211.1320  156.1130 C   0  0  0  0  0  2  0  0  0  0  0  0
  158.5460  213.1410  153.9840 C   0  0  2  0  0  3  0  0  0  0  0  0
  159.7150  212.2090  154.3460 C   0  0  2  0  0  3  0  0  0  0  0  0
  157.1930  212.5140  154.3140 C   0  0  0  0  0  2  0  0  0  0  0  0
  1  6  1  0  0  0  0
  2  3  1  6  0  0  0
  2  5  1  0  0  0  0
  2 13  1  0  0  0  0
  4  7  1  0  0  0  0
  5 16  2  0  0  0  0
  6 17  2  0  0  0  0
  7  3  2  0  0  0  0
  8 12  1  0  0  0  0
  8 23  1  1  0  0  0
  9  1  1  0  0  0  0
 10 18  1  0  0  0  0
 11  4  1  0  0  0  0
 13 18  1  6  0  0  0
 13  8  1  0  0  0  0
 14  1  2  0  0  0  0
 14  5  1  0  0  0  0
 15  4  2  0  0  0  0
 15 20  1  0  0  0  0
 16 17  1  0  0  0  0
 16 12  1  0  0  0  0
 19  3  1  0  0  0  0
 19 10  1  0  0  0  0
 20 19  2  0  0  0  0
 21 22  2  0  0  0  0
 22 23  1  0  0  0  0
 24 27  1  6  0  0  0
 24 28  1  0  0  0  0
 25 28  1  0  0  0  0
 29 26  1  6  0  0  0
 29 31  1  0  0  0  0
 29 30  1  0  0  0  0
 30 22  1  6  0  0  0
 30 25  1  0  0  0  0
 31 24  1  0  0  0  0
M  END
>  <MODEL>
7

>  <REMARK>
 VINA RESULT:      -4.2      2.732      5.174
  Name = 
  2 active torsions:
  status: ('A' for Active; 'I' for Inactive)
    1  A    between atoms: C_5  and  C_30
    2  A    between atoms: C_10  and  N_16
                            x       y       z     vdW  Elec       q    Type
                         _______ _______ _______ _____ _____    ______ ____

>  <TORSDO>
F 2

$$$$
=
 OpenBabel11122413123D

 31 35  0  0  1  0  0  0  0  0999 V2000
  160.9220  206.0510  146.4470 C   0  0  0  0  0  0  0  0  0  0  0  0
  160.3310  205.7900  150.1950 C   0  0  2  0  0  3  0  0  0  0  0  0
  160.8200  204.4110  150.6180 C   0  0  0  0  0  0  0  0  0  0  0  0
  161.4580  202.1270  150.0760 C   0  0  0  0  0  0  0  0  0  0  0  0
  160.9010  206.2380  148.8690 C   0  0  0  0  0  0  0  0  0  0  0  0
  161.9880  206.9500  146.3820 C   0  0  0  0  0  3  0  0  0  0  0  0
  161.0410  203.3980  149.6710 C   0  0  0  0  0  3  0  0  0  0  0  0
  162.0660  207.2220  151.3310 C   0  0  2  0  0  3  0  0  0  0  0  0
  160.4020  205.5050  145.2820 O   0  0  0  0  0  1  0  0  0  0  0  0
  160.7290  205.0870  152.9580 O   0  0  0  0  0  0  0  0  0  0  0  0
  161.7450  200.8820  148.8800 Cl  0  0  0  0  0  0  0  0  0  0  0  0
  162.4820  207.8780  150.0150 C   0  0  0  0  0  2  0  0  0  0  0  0
  160.5790  206.8500  151.2880 C   0  0  2  0  0  3  0  0  0  0  0  0
  160.3800  205.6980  147.6860 C   0  0  0  0  0  3  0  0  0  0  0  0
  161.6470  201.8520  151.4320 C   0  0  0  0  0  3  0  0  0  0  0  0
  161.9790  207.1520  148.8000 C   0  0  0  0  0  0  0  0  0  0  0  0
  162.5060  207.5060  147.5540 C   0  0  0  0  0  3  0  0  0  0  0  0
  160.0860  206.3180  152.6360 C   0  0  0  0  0  2  0  0  0  0  0  0
  160.9780  204.1130  151.9870 C   0  0  0  0  0  0  0  0  0  0  0  0
  161.4050  202.8430  152.3850 C   0  0  0  0  0  3  0  0  0  0  0  0
  160.8950  209.8100  151.6480 O   0  0  0  0  0  0  0  0  0  0  0  0
  161.7030  209.4230  152.5340 C   0  0  0  0  0  0  0  0  0  0  0  0
  162.3270  208.1410  152.4310 N   0  0  0  0  0  2  0  0  0  0  0  0
  160.4240  209.6990  156.0890 C   0  0  1  0  0  3  0  0  0  0  0  0
  162.6140  209.5640  154.8700 C   0  0  0  0  0  2  0  0  0  0  0  0
  160.2470  211.8480  153.0390 O   0  0  0  0  0  1  0  0  0  0  0  0
  159.4180  208.9260  156.7920 N   0  0  0  0  0  1  0  0  0  0  0  0
  161.5430  208.7730  155.6230 C   0  0  0  0  0  2  0  0  0  0  0  0
  160.8320  211.2060  154.1320 C   0  0  2  0  0  3  0  0  0  0  0  0
  162.0180  210.3330  153.6860 C   0  0  2  0  0  3  0  0  0  0  0  0
  159.7830  210.3990  154.8940 C   0  0  0  0  0  2  0  0  0  0  0  0
  1 14  1  0  0  0  0
  2  5  1  6  0  0  0
  2  3  1  0  0  0  0
  2 13  1  0  0  0  0
  3 19  1  0  0  0  0
  4 15  2  0  0  0  0
  6  1  2  0  0  0  0
  6 17  1  0  0  0  0
  7  4  1  0  0  0  0
  7  3  2  0  0  0  0
  8 23  1  1  0  0  0
  9  1  1  0  0  0  0
 11  4  1  0  0  0  0
 12  8  1  0  0  0  0
 13  8  1  0  0  0  0
 13 18  1  1  0  0  0
 14  5  2  0  0  0  0
 15 20  1  0  0  0  0
 16  5  1  0  0  0  0
 16 12  1  0  0  0  0
 17 16  2  0  0  0  0
 18 10  1  0  0  0  0
 19 20  2  0  0  0  0
 19 10  1  0  0  0  0
 21 22  2  0  0  0  0
 23 22  1  0  0  0  0
 24 27  1  6  0  0  0
 25 28  1  0  0  0  0
 28 24  1  0  0  0  0
 29 26  1  6  0  0  0
 29 31  1  0  0  0  0
 30 22  1  6  0  0  0
 30 29  1  0  0  0  0
 30 25  1  0  0  0  0
 31 24  1  0  0  0  0
M  END
>  <MODEL>
8

>  <REMARK>
 VINA RESULT:      -4.0      1.254      1.495
  Name = 
  2 active torsions:
  status: ('A' for Active; 'I' for Inactive)
    1  A    between atoms: C_5  and  C_30
    2  A    between atoms: C_10  and  N_16
                            x       y       z     vdW  Elec       q    Type
                         _______ _______ _______ _____ _____    ______ ____

>  <TORSDO>
F 2

$$$$
=
 OpenBabel11122413123D

 31 35  0  0  1  0  0  0  0  0999 V2000
  161.5870  202.8440  151.4480 C   0  0  0  0  0  0  0  0  0  0  0  0
  162.4410  206.5490  151.3300 C   0  0  2  0  0  3  0  0  0  0  0  0
  161.9820  207.0580  149.9700 C   0  0  0  0  0  0  0  0  0  0  0  0
  161.3060  206.6510  147.6690 C   0  0  0  0  0  0  0  0  0  0  0  0
  161.7790  205.2500  151.7290 C   0  0  0  0  0  0  0  0  0  0  0  0
  160.5200  202.8200  152.3480 C   0  0  0  0  0  3  0  0  0  0  0  0
  161.6940  206.1690  148.9220 C   0  0  0  0  0  3  0  0  0  0  0  0
  160.7910  207.7480  152.8100 C   0  0  2  0  0  3  0  0  0  0  0  0
  162.0230  201.6680  150.8560 O   0  0  0  0  0  1  0  0  0  0  0  0
  162.2390  209.3580  150.7350 O   0  0  0  0  0  0  0  0  0  0  0  0
  160.9340  205.5270  146.3800 Cl  0  0  0  0  0  0  0  0  0  0  0  0
  160.2850  206.4400  153.4170 C   0  0  0  0  0  2  0  0  0  0  0  0
  162.2720  207.6150  152.4310 C   0  0  2  0  0  3  0  0  0  0  0  0
  162.2140  204.0540  151.1420 C   0  0  0  0  0  3  0  0  0  0  0  0
  161.2130  208.0260  147.4470 C   0  0  0  0  0  3  0  0  0  0  0  0
  160.7000  205.2210  152.6420 C   0  0  0  0  0  0  0  0  0  0  0  0
  160.0860  204.0030  152.9500 C   0  0  0  0  0  3  0  0  0  0  0  0
  162.8580  208.9440  151.9510 C   0  0  0  0  0  2  0  0  0  0  0  0
  161.9210  208.4450  149.7250 C   0  0  0  0  0  0  0  0  0  0  0  0
  161.5220  208.9210  148.4730 C   0  0  0  0  0  3  0  0  0  0  0  0
  161.3660  207.5980  155.6070 O   0  0  0  0  0  0  0  0  0  0  0  0
  160.9220  208.6890  155.1600 C   0  0  0  0  0  0  0  0  0  0  0  0
  160.6090  208.8270  153.7720 N   0  0  0  0  0  2  0  0  0  0  0  0
  159.2200  212.0600  154.8590 C   0  0  1  0  0  3  0  0  0  0  0  0
  159.2150  210.0660  156.3830 C   0  0  0  0  0  2  0  0  0  0  0  0
  162.7370  210.9070  155.3570 O   0  0  0  0  0  1  0  0  0  0  0  0
  158.5520  212.6810  153.7310 N   0  0  0  0  0  1  0  0  0  0  0  0
  158.5230  210.7460  155.2010 C   0  0  0  0  0  2  0  0  0  0  0  0
  161.3990  211.1370  155.6780 C   0  0  2  0  0  3  0  0  0  0  0  0
  160.7040  209.8340  156.1080 C   0  0  2  0  0  3  0  0  0  0  0  0
  160.6830  211.8060  154.5060 C   0  0  0  0  0  2  0  0  0  0  0  0
  1  6  1  0  0  0  0
  2  3  1  6  0  0  0
  2  5  1  0  0  0  0
  2 13  1  0  0  0  0
  4  7  1  0  0  0  0
  5 16  2  0  0  0  0
  6 17  2  0  0  0  0
  7  3  2  0  0  0  0
  8 12  1  0  0  0  0
  8 23  1  1  0  0  0
  9  1  1  0  0  0  0
 10 18  1  0  0  0  0
 11  4  1  0  0  0  0
 13 18  1  6  0  0  0
 13  8  1  0  0  0  0
 14  1  2  0  0  0  0
 14  5  1  0  0  0  0
 15  4  2  0  0  0  0
 15 20  1  0  0  0  0
 16 17  1  0  0  0  0
 16 12  1  0  0  0  0
 19  3  1  0  0  0  0
 19 10  1  0  0  0  0
 20 19  2  0  0  0  0
 22 21  2  0  0  0  0
 23 22  1  0  0  0  0
 24 27  1  6  0  0  0
 24 28  1  0  0  0  0
 28 25  1  0  0  0  0
 29 26  1  6  0  0  0
 29 30  1  0  0  0  0
 30 22  1  6  0  0  0
 30 25  1  0  0  0  0
 31 24  1  0  0  0  0
 31 29  1  0  0  0  0
M  END
>  <MODEL>
9

>  <REMARK>
 VINA RESULT:      -3.6      2.296      4.543
  Name = 
  2 active torsions:
  status: ('A' for Active; 'I' for Inactive)
    1  A    between atoms: C_5  and  C_30
    2  A    between atoms: C_10  and  N_16
                            x       y       z     vdW  Elec       q    Type
                         _______ _______ _______ _____ _____    ______ ____

>  <TORSDO>
F 2

$$$$
