=
 OpenBabel11122412583D

 32 37  0  0  1  0  0  0  0  0999 V2000
  162.2510  206.7360  148.9910 C   0  0  0  0  0  2  0  0  0  0  0  0
  161.7480  210.8270  152.5800 C   0  0  1  0  0  3  0  0  0  0  0  0
  160.8520  209.7280  157.2600 C   0  0  0  0  0  3  0  0  0  0  0  0
  159.7330  210.5640  157.2600 C   0  0  0  0  0  3  0  0  0  0  0  0
  159.9800  212.1960  151.2800 C   0  0  0  0  0  0  0  0  0  0  0  0
  158.7280  212.8080  151.2570 C   0  0  0  0  0  0  0  0  0  0  0  0
  161.6020  209.2110  150.7050 N   0  0  2  0  0  0  0  0  0  0  0  0
  161.0760  208.4330  152.9900 C   0  0  0  0  0  2  0  0  0  0  0  0
  156.7090  213.4880  152.0910 N   0  0  0  0  0  0  0  0  0  0  0  0
  160.8250  206.8970  151.1110 C   0  0  0  0  0  2  0  0  0  0  0  0
  161.5230  209.4590  156.0640 C   0  0  0  0  0  3  0  0  0  0  0  0
  161.7600  209.6610  153.5830 C   0  0  2  0  0  3  0  0  0  0  0  0
  161.0860  210.0340  154.8670 C   0  0  0  0  0  0  0  0  0  0  0  0
  159.5190  211.5060  153.5900 C   0  0  0  0  0  0  0  0  0  0  0  0
  156.7470  214.0340  150.7410 C   0  0  0  0  0  3  0  0  0  0  0  0
  161.5980  207.9440  148.7230 O   0  0  0  0  0  0  0  0  0  0  0  0
  161.6710  208.0600  151.6320 C   0  0  1  0  0  3  0  0  0  0  0  0
  158.1050  213.5930  150.1500 C   0  0  0  0  0  3  0  0  0  0  0  0
  162.3100  208.8880  149.4690 C   0  0  0  0  0  2  0  0  0  0  0  0
  161.5840  205.9830  150.1440 C   0  0  1  0  0  3  0  0  0  0  0  0
  159.2870  211.1350  156.0660 C   0  0  0  0  0  3  0  0  0  0  0  0
  159.9570  210.8760  154.8590 C   0  0  0  0  0  0  0  0  0  0  0  0
  158.2700  212.1530  153.5260 C   0  0  0  0  0  3  0  0  0  0  0  0
  162.3600  210.3280  151.2690 C   0  0  0  0  0  2  0  0  0  0  0  0
  160.8130  212.3160  150.1740 O   0  0  0  0  0  1  0  0  0  0  0  0
  155.6180  213.6790  153.0310 C   0  0  0  0  0  1  0  0  0  0  0  0
  160.3740  211.4840  152.4480 C   0  0  0  0  0  0  0  0  0  0  0  0
  157.9020  212.7780  152.3390 C   0  0  0  0  0  0  0  0  0  0  0  0
  160.6760  204.9820  149.6020 N   0  0  0  0  0  2  0  0  0  0  0  0
  160.7070  203.6060  149.9910 C   0  0  0  0  0  0  0  0  0  0  0  0
  161.5920  203.1720  150.8270 N   0  0  0  0  0  2  0  0  0  0  0  0
  159.7260  202.6570  149.4030 C   0  0  0  0  0  1  0  0  0  0  0  0
  1 20  1  0  0  0  0
  2 24  1  6  0  0  0
  2 12  1  0  0  0  0
  4  3  1  0  0  0  0
  5 27  1  0  0  0  0
  6  5  2  0  0  0  0
  6 28  1  0  0  0  0
  7 19  1  6  0  0  0
  7 24  1  0  0  0  0
  7 17  1  0  0  0  0
  9 28  1  0  0  0  0
  9 26  1  0  0  0  0
 11  3  2  0  0  0  0
 12  8  1  6  0  0  0
 12 13  1  0  0  0  0
 13 11  1  0  0  0  0
 14 22  1  0  0  0  0
 15  9  1  0  0  0  0
 16  1  1  0  0  0  0
 16 19  1  0  0  0  0
 17 10  1  6  0  0  0
 17  8  1  0  0  0  0
 18 15  2  0  0  0  0
 18  6  1  0  0  0  0
 20 29  1  6  0  0  0
 20 10  1  0  0  0  0
 21  4  2  0  0  0  0
 22 13  2  0  0  0  0
 22 21  1  0  0  0  0
 23 14  1  0  0  0  0
 25  5  1  0  0  0  0
 27  2  1  0  0  0  0
 27 14  2  0  0  0  0
 28 23  2  0  0  0  0
 29 30  1  0  0  0  0
 30 31  2  0  0  0  0
 32 30  1  0  0  0  0
M  END
>  <MODEL>
1

>  <REMARK>
 VINA RESULT:      -5.8      0.000      0.000
  Name = 
  1 active torsions:
  status: ('A' for Active; 'I' for Inactive)
    1  A    between atoms: C_20  and  N_29
                            x       y       z     vdW  Elec       q    Type
                         _______ _______ _______ _____ _____    ______ ____

>  <TORSDO>
F 1

$$$$
=
 OpenBabel11122412583D

 32 37  0  0  1  0  0  0  0  0999 V2000
  158.7230  211.2310  156.7230 C   0  0  0  0  0  2  0  0  0  0  0  0
  162.2330  209.4520  152.9310 C   0  0  1  0  0  3  0  0  0  0  0  0
  162.1200  211.5100  148.4970 C   0  0  0  0  0  3  0  0  0  0  0  0
  161.9730  210.2560  147.9000 C   0  0  0  0  0  3  0  0  0  0  0  0
  161.6890  206.9310  153.1290 C   0  0  0  0  0  0  0  0  0  0  0  0
  161.2900  205.7460  152.5120 C   0  0  0  0  0  0  0  0  0  0  0  0
  160.4970  209.7720  154.6730 N   0  0  2  0  0  0  0  0  0  0  0  0
  160.2140  210.8930  152.4900 C   0  0  0  0  0  2  0  0  0  0  0  0
  160.6640  204.3900  150.7780 N   0  0  0  0  0  0  0  0  0  0  0  0
  158.4650  211.0930  154.1800 C   0  0  0  0  0  2  0  0  0  0  0  0
  162.0510  211.6340  149.8870 C   0  0  0  0  0  3  0  0  0  0  0  0
  161.6880  210.6680  152.1650 C   0  0  2  0  0  3  0  0  0  0  0  0
  161.8500  210.5040  150.6860 C   0  0  0  0  0  0  0  0  0  0  0  0
  161.5150  208.0390  150.9460 C   0  0  0  0  0  0  0  0  0  0  0  0
  160.7140  203.5030  151.9340 C   0  0  0  0  0  3  0  0  0  0  0  0
  159.0730  209.8890  156.5420 O   0  0  0  0  0  0  0  0  0  0  0  0
  159.9800  210.9820  153.9990 C   0  0  1  0  0  3  0  0  0  0  0  0
  161.1380  204.3930  153.1240 C   0  0  0  0  0  3  0  0  0  0  0  0
  160.4060  209.9390  156.1210 C   0  0  0  0  0  2  0  0  0  0  0  0
  158.0610  211.8120  155.4720 C   0  0  1  0  0  3  0  0  0  0  0  0
  161.7630  209.1250  148.6920 C   0  0  0  0  0  3  0  0  0  0  0  0
  161.6980  209.2370  150.0900 C   0  0  0  0  0  0  0  0  0  0  0  0
  161.1330  206.8160  150.3630 C   0  0  0  0  0  3  0  0  0  0  0  0
  161.9340  209.6570  154.4180 C   0  0  0  0  0  2  0  0  0  0  0  0
  162.0250  206.9130  154.4770 O   0  0  0  0  0  1  0  0  0  0  0  0
  160.3320  203.9710  149.4280 C   0  0  0  0  0  1  0  0  0  0  0  0
  161.7570  208.1200  152.3500 C   0  0  0  0  0  0  0  0  0  0  0  0
  161.0140  205.6960  151.1800 C   0  0  0  0  0  0  0  0  0  0  0  0
  156.6150  211.7640  155.6270 N   0  0  0  0  0  2  0  0  0  0  0  0
  155.8820  212.6980  156.4250 C   0  0  0  0  0  0  0  0  0  0  0  0
  156.4920  213.6190  157.0950 N   0  0  0  0  0  2  0  0  0  0  0  0
  154.4020  212.5880  156.5080 C   0  0  0  0  0  1  0  0  0  0  0  0
  2 24  1  1  0  0  0
  3 11  1  0  0  0  0
  4  3  2  0  0  0  0
  4 21  1  0  0  0  0
  5 25  1  0  0  0  0
  6 18  1  0  0  0  0
  6  5  1  0  0  0  0
  7 24  1  1  0  0  0
  7 19  1  0  0  0  0
  9 28  1  0  0  0  0
  9 15  1  0  0  0  0
 10 20  1  0  0  0  0
 11 13  2  0  0  0  0
 12  8  1  6  0  0  0
 12  2  1  0  0  0  0
 13 12  1  0  0  0  0
 14 27  1  0  0  0  0
 15 18  2  0  0  0  0
 16  1  1  0  0  0  0
 17  8  1  6  0  0  0
 17 10  1  0  0  0  0
 17  7  1  0  0  0  0
 19 16  1  0  0  0  0
 20 29  1  1  0  0  0
 20  1  1  0  0  0  0
 21 22  2  0  0  0  0
 22 13  1  0  0  0  0
 22 14  1  0  0  0  0
 23 14  2  0  0  0  0
 23 28  1  0  0  0  0
 26  9  1  0  0  0  0
 27  2  1  0  0  0  0
 27  5  2  0  0  0  0
 28  6  2  0  0  0  0
 29 30  1  0  0  0  0
 30 32  1  0  0  0  0
 30 31  2  0  0  0  0
M  END
>  <MODEL>
2

>  <REMARK>
 VINA RESULT:      -4.6      2.635      8.003
  Name = 
  1 active torsions:
  status: ('A' for Active; 'I' for Inactive)
    1  A    between atoms: C_20  and  N_29
                            x       y       z     vdW  Elec       q    Type
                         _______ _______ _______ _____ _____    ______ ____

>  <TORSDO>
F 1

$$$$
=
 OpenBabel11122412583D

 32 37  0  0  1  0  0  0  0  0999 V2000
  159.3330  210.0550  155.9440 C   0  0  0  0  0  2  0  0  0  0  0  0
  162.4660  209.9540  151.4670 C   0  0  1  0  0  3  0  0  0  0  0  0
  161.7450  213.3640  148.0370 C   0  0  0  0  0  3  0  0  0  0  0  0
  161.5910  212.3760  147.0630 C   0  0  0  0  0  3  0  0  0  0  0  0
  162.0690  207.4770  150.8380 C   0  0  0  0  0  0  0  0  0  0  0  0
  161.6590  206.5380  149.8920 C   0  0  0  0  0  0  0  0  0  0  0  0
  160.9280  209.5230  153.3640 N   0  0  2  0  0  0  0  0  0  0  0  0
  160.3420  211.2840  151.7340 C   0  0  0  0  0  2  0  0  0  0  0  0
  160.9050  205.7960  147.8630 N   0  0  0  0  0  0  0  0  0  0  0  0
  158.7920  210.7580  153.5420 C   0  0  0  0  0  2  0  0  0  0  0  0
  161.8310  213.0080  149.3860 C   0  0  0  0  0  3  0  0  0  0  0  0
  161.7780  211.3060  151.2180 C   0  0  2  0  0  3  0  0  0  0  0  0
  161.7770  211.6630  149.7640 C   0  0  0  0  0  0  0  0  0  0  0  0
  161.5930  209.2350  149.1930 C   0  0  0  0  0  0  0  0  0  0  0  0
  161.1290  204.5800  148.6360 C   0  0  0  0  0  3  0  0  0  0  0  0
  159.7230  208.8860  155.2820 O   0  0  0  0  0  0  0  0  0  0  0  0
  160.2790  210.8420  153.1960 C   0  0  1  0  0  3  0  0  0  0  0  0
  161.6440  205.0510  150.0140 C   0  0  0  0  0  3  0  0  0  0  0  0
  160.9950  209.1860  154.7840 C   0  0  0  0  0  2  0  0  0  0  0  0
  158.5050  210.9640  155.0340 C   0  0  1  0  0  3  0  0  0  0  0  0
  161.5280  211.0310  147.4350 C   0  0  0  0  0  3  0  0  0  0  0  0
  161.6190  210.6610  148.7860 C   0  0  0  0  0  0  0  0  0  0  0  0
  161.2060  208.2500  148.2630 C   0  0  0  0  0  3  0  0  0  0  0  0
  162.3300  209.6220  152.9550 C   0  0  0  0  0  2  0  0  0  0  0  0
  162.5580  207.0360  152.0620 O   0  0  0  0  0  1  0  0  0  0  0  0
  160.4400  205.8280  146.4880 C   0  0  0  0  0  1  0  0  0  0  0  0
  161.9910  208.8600  150.5110 C   0  0  0  0  0  0  0  0  0  0  0  0
  161.2350  206.9160  148.6540 C   0  0  0  0  0  0  0  0  0  0  0  0
  157.0890  210.7460  155.2950 N   0  0  0  0  0  2  0  0  0  0  0  0
  156.3620  211.4530  156.3030 C   0  0  0  0  0  0  0  0  0  0  0  0
  156.9540  212.3050  157.0730 N   0  0  0  0  0  2  0  0  0  0  0  0
  154.9110  211.1820  156.4850 C   0  0  0  0  0  1  0  0  0  0  0  0
  2 24  1  1  0  0  0
  3 11  1  0  0  0  0
  4 21  1  0  0  0  0
  4  3  2  0  0  0  0
  5 25  1  0  0  0  0
  6 18  1  0  0  0  0
  6  5  2  0  0  0  0
  7 24  1  1  0  0  0
  7 19  1  0  0  0  0
  9 15  1  0  0  0  0
  9 28  1  0  0  0  0
 10 20  1  0  0  0  0
 11 13  2  0  0  0  0
 12  2  1  0  0  0  0
 12  8  1  6  0  0  0
 13 12  1  0  0  0  0
 14 27  2  0  0  0  0
 15 18  2  0  0  0  0
 16  1  1  0  0  0  0
 17  8  1  6  0  0  0
 17  7  1  0  0  0  0
 17 10  1  0  0  0  0
 19 16  1  0  0  0  0
 20 29  1  6  0  0  0
 20  1  1  0  0  0  0
 21 22  2  0  0  0  0
 22 14  1  0  0  0  0
 22 13  1  0  0  0  0
 23 28  2  0  0  0  0
 23 14  1  0  0  0  0
 26  9  1  0  0  0  0
 27  5  1  0  0  0  0
 27  2  1  0  0  0  0
 28  6  1  0  0  0  0
 29 30  1  0  0  0  0
 30 32  1  0  0  0  0
 30 31  2  0  0  0  0
M  END
>  <MODEL>
3

>  <REMARK>
 VINA RESULT:      -4.0      2.647      7.627
  Name = 
  1 active torsions:
  status: ('A' for Active; 'I' for Inactive)
    1  A    between atoms: C_20  and  N_29
                            x       y       z     vdW  Elec       q    Type
                         _______ _______ _______ _____ _____    ______ ____

>  <TORSDO>
F 1

$$$$
=
 OpenBabel11122412583D

 32 37  0  0  1  0  0  0  0  0999 V2000
  162.4590  206.3740  147.4590 C   0  0  0  0  0  2  0  0  0  0  0  0
  162.1720  209.2250  152.1130 C   0  0  1  0  0  3  0  0  0  0  0  0
  160.1520  207.1040  156.0280 C   0  0  0  0  0  3  0  0  0  0  0  0
  159.2670  208.1750  156.1730 C   0  0  0  0  0  3  0  0  0  0  0  0
  161.0400  211.3380  151.1400 C   0  0  0  0  0  0  0  0  0  0  0  0
  159.9830  212.2460  151.1740 C   0  0  0  0  0  0  0  0  0  0  0  0
  162.0460  208.3240  149.8060 N   0  0  2  0  0  0  0  0  0  0  0  0
  160.9220  207.0920  151.6280 C   0  0  0  0  0  2  0  0  0  0  0  0
  158.0390  213.1760  151.9430 N   0  0  0  0  0  0  0  0  0  0  0  0
  160.7150  206.2940  149.3310 C   0  0  0  0  0  2  0  0  0  0  0  0
  160.9690  207.0210  154.8980 C   0  0  0  0  0  3  0  0  0  0  0  0
  161.7300  207.8620  152.6680 C   0  0  2  0  0  3  0  0  0  0  0  0
  160.9150  208.0150  153.9150 C   0  0  0  0  0  0  0  0  0  0  0  0
  159.9930  210.1600  153.0210 C   0  0  0  0  0  0  0  0  0  0  0  0
  158.4620  214.0580  150.8630 C   0  0  0  0  0  3  0  0  0  0  0  0
  162.1540  207.7370  147.5300 O   0  0  0  0  0  0  0  0  0  0  0  0
  161.6760  206.9810  150.3020 C   0  0  1  0  0  3  0  0  0  0  0  0
  159.7780  213.4560  150.3230 C   0  0  0  0  0  3  0  0  0  0  0  0
  162.8950  208.1950  148.6240 C   0  0  0  0  0  2  0  0  0  0  0  0
  161.4290  205.5290  148.2120 C   0  0  1  0  0  3  0  0  0  0  0  0
  159.2020  209.1660  155.1910 C   0  0  0  0  0  3  0  0  0  0  0  0
  160.0220  209.0960  154.0540 C   0  0  0  0  0  0  0  0  0  0  0  0
  158.9540  211.1120  153.0290 C   0  0  0  0  0  3  0  0  0  0  0  0
  162.9050  208.9810  150.7920 C   0  0  0  0  0  2  0  0  0  0  0  0
  162.0800  211.5420  150.2410 O   0  0  0  0  0  1  0  0  0  0  0  0
  156.8530  213.3740  152.7580 C   0  0  0  0  0  1  0  0  0  0  0  0
  161.0300  210.2390  152.0450 C   0  0  0  0  0  0  0  0  0  0  0  0
  158.9740  212.1290  152.0800 C   0  0  0  0  0  0  0  0  0  0  0  0
  160.4480  205.0130  147.2680 N   0  0  0  0  0  2  0  0  0  0  0  0
  160.8040  204.4250  146.0140 C   0  0  0  0  0  0  0  0  0  0  0  0
  162.0380  204.3650  145.6360 N   0  0  0  0  0  2  0  0  0  0  0  0
  159.7360  203.9030  145.1210 C   0  0  0  0  0  1  0  0  0  0  0  0
  1 16  1  0  0  0  0
  1 20  1  0  0  0  0
  2 24  1  6  0  0  0
  2 12  1  0  0  0  0
  3  4  1  0  0  0  0
  5  6  2  0  0  0  0
  5 27  1  0  0  0  0
  6 28  1  0  0  0  0
  7 19  1  6  0  0  0
  7 17  1  0  0  0  0
  7 24  1  0  0  0  0
  9 28  1  0  0  0  0
  9 26  1  0  0  0  0
 11  3  2  0  0  0  0
 12  8  1  6  0  0  0
 12 13  1  0  0  0  0
 13 22  2  0  0  0  0
 13 11  1  0  0  0  0
 14 23  1  0  0  0  0
 14 22  1  0  0  0  0
 15  9  1  0  0  0  0
 16 19  1  0  0  0  0
 17 10  1  6  0  0  0
 17  8  1  0  0  0  0
 18 15  2  0  0  0  0
 18  6  1  0  0  0  0
 20 29  1  6  0  0  0
 20 10  1  0  0  0  0
 21  4  2  0  0  0  0
 22 21  1  0  0  0  0
 25  5  1  0  0  0  0
 27  2  1  0  0  0  0
 27 14  2  0  0  0  0
 28 23  2  0  0  0  0
 30 29  1  0  0  0  0
 31 30  2  0  0  0  0
 32 30  1  0  0  0  0
M  END
>  <MODEL>
4

>  <REMARK>
 VINA RESULT:      -3.2      1.936      2.250
  Name = 
  1 active torsions:
  status: ('A' for Active; 'I' for Inactive)
    1  A    between atoms: C_20  and  N_29
                            x       y       z     vdW  Elec       q    Type
                         _______ _______ _______ _____ _____    ______ ____

>  <TORSDO>
F 1

$$$$
