=
 OpenBabel11122412433D

 30 35  0  0  1  0  0  0  0  0999 V2000
  160.6730  211.6980  151.8020 C   0  0  0  0  0  0  0  0  0  0  0  0
  160.6740  213.5700  150.1640 C   0  0  0  0  0  0  0  0  0  0  0  0
  162.3330  209.1090  149.0110 O   0  0  0  0  0  0  0  0  0  0  0  0
  161.0200  210.3660  152.1170 C   0  0  0  0  0  0  0  0  0  0  0  0
  160.0160  212.4810  152.8040 N   0  0  0  0  0  2  0  0  0  0  0  0
  159.5890  210.1110  155.4570 O   0  0  0  0  0  0  0  0  0  0  0  0
  160.8140  207.4150  153.3520 C   0  0  1  0  0  3  0  0  0  0  0  0
  159.9020  210.5810  154.3300 C   0  0  0  0  0  0  0  0  0  0  0  0
  160.9900  207.1850  151.8360 C   0  0  2  0  0  3  0  0  0  0  0  0
  162.3450  207.8350  149.6480 C   0  0  2  0  0  3  0  0  0  0  0  0
  159.2540  211.8600  153.8840 C   0  0  2  0  0  3  0  0  0  0  0  0
  160.8160  209.8750  153.4570 N   0  0  0  0  0  0  0  0  0  0  0  0
  160.9610  214.0200  148.9110 N   0  0  0  0  0  0  0  0  0  0  0  0
  161.4470  205.7450  151.7290 C   0  0  0  0  0  2  0  0  0  0  0  0
  161.2790  206.2220  154.0500 N   0  0  0  0  0  2  0  0  0  0  0  0
  160.1150  214.4340  151.0490 F   0  0  0  0  0  0  0  0  0  0  0  0
  161.8140  210.0670  149.8570 C   0  0  0  0  0  0  0  0  0  0  0  0
  161.5210  213.2200  147.9660 C   0  0  0  0  0  3  0  0  0  0  0  0
  160.9610  212.2340  150.5180 C   0  0  0  0  0  0  0  0  0  0  0  0
  161.5620  209.5600  151.1000 C   0  0  0  0  0  0  0  0  0  0  0  0
  161.3240  206.9500  148.9450 C   0  0  0  0  0  1  0  0  0  0  0  0
  162.0060  208.1290  151.1460 C   0  0  1  0  0  3  0  0  0  0  0  0
  161.1830  205.1440  153.0840 C   0  0  0  0  0  2  0  0  0  0  0  0
  161.7050  208.6160  155.2660 O   0  0  0  0  0  1  0  0  0  0  0  0
  161.8200  211.8920  148.2590 C   0  0  0  0  0  3  0  0  0  0  0  0
  161.5430  211.3960  149.5330 C   0  0  0  0  0  0  0  0  0  0  0  0
  161.5270  208.6610  153.8790 C   0  0  1  0  0  3  0  0  0  0  0  0
  157.8350  211.5720  153.4170 C   0  0  0  0  0  2  0  0  0  0  0  0
  156.0770  211.0550  155.0790 C   0  0  0  0  0  1  0  0  0  0  0  0
  156.8290  212.1680  154.3820 C   0  0  0  0  0  2  0  0  0  0  0  0
  1  4  1  0  0  0  0
  1  5  1  0  0  0  0
  2 19  1  0  0  0  0
  2 16  1  0  0  0  0
  3 10  1  0  0  0  0
  3 17  1  0  0  0  0
  4 12  1  0  0  0  0
  5 11  1  0  0  0  0
  7 27  1  0  0  0  0
  7 15  1  1  0  0  0
  8  6  2  0  0  0  0
  9 14  1  1  0  0  0
  9  7  1  0  0  0  0
 10 21  1  6  0  0  0
 10 22  1  0  0  0  0
 11 28  1  6  0  0  0
 11  8  1  0  0  0  0
 12 27  1  0  0  0  0
 12  8  1  0  0  0  0
 13  2  2  0  0  0  0
 14 23  1  0  0  0  0
 17 20  1  0  0  0  0
 18 25  2  0  0  0  0
 18 13  1  0  0  0  0
 19  1  2  0  0  0  0
 20  4  2  0  0  0  0
 22 20  1  6  0  0  0
 22  9  1  0  0  0  0
 23 15  1  0  0  0  0
 25 26  1  0  0  0  0
 26 17  2  0  0  0  0
 26 19  1  0  0  0  0
 27 24  1  1  0  0  0
 28 30  1  0  0  0  0
 30 29  1  0  0  0  0
M  END
>  <MODEL>
1

>  <REMARK>
 VINA RESULT:      -6.8      0.000      0.000
  Name = 
  2 active torsions:
  status: ('A' for Active; 'I' for Inactive)
    1  A    between atoms: C_11  and  C_28
    2  A    between atoms: C_28  and  C_30
                            x       y       z     vdW  Elec       q    Type
                         _______ _______ _______ _____ _____    ______ ____

>  <TORSDO>
F 2

$$$$
=
 OpenBabel11122412433D

 30 35  0  0  1  0  0  0  0  0999 V2000
  161.4000  208.6040  152.3620 C   0  0  0  0  0  0  0  0  0  0  0  0
  161.1170  207.1650  154.3720 C   0  0  0  0  0  0  0  0  0  0  0  0
  159.5510  211.8040  154.2580 O   0  0  0  0  0  0  0  0  0  0  0  0
  161.2670  209.8720  151.7540 C   0  0  0  0  0  0  0  0  0  0  0  0
  161.9640  207.5390  151.5920 N   0  0  0  0  0  2  0  0  0  0  0  0
  162.4300  209.0850  148.3930 O   0  0  0  0  0  0  0  0  0  0  0  0
  160.7070  212.0850  149.5040 C   0  0  1  0  0  3  0  0  0  0  0  0
  162.0910  208.9400  149.5990 C   0  0  0  0  0  0  0  0  0  0  0  0
  159.7350  212.4460  150.6460 C   0  0  2  0  0  3  0  0  0  0  0  0
  159.4400  212.8130  153.2590 C   0  0  2  0  0  3  0  0  0  0  0  0
  161.9260  207.5470  150.1320 C   0  0  2  0  0  3  0  0  0  0  0  0
  161.8050  210.0880  150.4340 N   0  0  0  0  0  0  0  0  0  0  0  0
  160.6710  207.0280  155.6510 N   0  0  0  0  0  0  0  0  0  0  0  0
  159.3520  213.8850  150.3700 C   0  0  0  0  0  2  0  0  0  0  0  0
  160.9570  213.2900  148.7220 N   0  0  0  0  0  2  0  0  0  0  0  0
  161.7010  206.0980  153.7720 F   0  0  0  0  0  0  0  0  0  0  0  0
  160.1730  210.6840  153.7470 C   0  0  0  0  0  0  0  0  0  0  0  0
  160.0750  208.0470  156.3230 C   0  0  0  0  0  3  0  0  0  0  0  0
  160.9700  208.3990  153.7010 C   0  0  0  0  0  0  0  0  0  0  0  0
  160.6120  210.8900  152.4690 C   0  0  0  0  0  0  0  0  0  0  0  0
  157.9650  212.9680  152.9090 C   0  0  0  0  0  1  0  0  0  0  0  0
  160.3240  212.3060  152.0730 C   0  0  1  0  0  3  0  0  0  0  0  0
  159.8170  214.1540  148.9620 C   0  0  0  0  0  2  0  0  0  0  0  0
  163.0200  211.5420  149.0000 O   0  0  0  0  0  1  0  0  0  0  0  0
  159.8990  209.2840  155.7080 C   0  0  0  0  0  3  0  0  0  0  0  0
  160.3470  209.4650  154.4000 C   0  0  0  0  0  0  0  0  0  0  0  0
  162.0230  211.4660  149.9780 C   0  0  1  0  0  3  0  0  0  0  0  0
  160.6020  206.9740  149.6460 C   0  0  0  0  0  2  0  0  0  0  0  0
  161.1910  204.7180  148.8190 C   0  0  0  0  0  1  0  0  0  0  0  0
  160.5300  205.4880  149.9410 C   0  0  0  0  0  2  0  0  0  0  0  0
  1 19  1  0  0  0  0
  2 13  1  0  0  0  0
  4  1  2  0  0  0  0
  4 20  1  0  0  0  0
  5  1  1  0  0  0  0
  6  8  2  0  0  0  0
  7 15  1  1  0  0  0
  7 27  1  0  0  0  0
  7  9  1  0  0  0  0
  8 11  1  0  0  0  0
  8 12  1  0  0  0  0
  9 14  1  6  0  0  0
  9 22  1  0  0  0  0
 10 21  1  6  0  0  0
 10  3  1  0  0  0  0
 11 28  1  1  0  0  0
 11  5  1  0  0  0  0
 12  4  1  0  0  0  0
 13 18  2  0  0  0  0
 15 23  1  0  0  0  0
 16  2  1  0  0  0  0
 17  3  1  0  0  0  0
 17 26  1  0  0  0  0
 19  2  2  0  0  0  0
 19 26  1  0  0  0  0
 20 17  2  0  0  0  0
 22 20  1  1  0  0  0
 22 10  1  0  0  0  0
 23 14  1  0  0  0  0
 25 18  1  0  0  0  0
 26 25  2  0  0  0  0
 27 24  1  6  0  0  0
 27 12  1  0  0  0  0
 28 30  1  0  0  0  0
 29 30  1  0  0  0  0
M  END
>  <MODEL>
2

>  <REMARK>
 VINA RESULT:      -6.7      2.443      6.938
  Name = 
  2 active torsions:
  status: ('A' for Active; 'I' for Inactive)
    1  A    between atoms: C_11  and  C_28
    2  A    between atoms: C_28  and  C_30
                            x       y       z     vdW  Elec       q    Type
                         _______ _______ _______ _____ _____    ______ ____

>  <TORSDO>
F 2

$$$$
=
 OpenBabel11122412433D

 30 35  0  0  1  0  0  0  0  0999 V2000
  160.4580  212.3810  151.6520 C   0  0  0  0  0  0  0  0  0  0  0  0
  160.7460  213.2810  149.3510 C   0  0  0  0  0  0  0  0  0  0  0  0
  162.2850  208.8030  150.5980 O   0  0  0  0  0  0  0  0  0  0  0  0
  160.6950  211.3470  152.5850 C   0  0  0  0  0  0  0  0  0  0  0  0
  159.7340  213.5340  152.0890 N   0  0  0  0  0  2  0  0  0  0  0  0
  158.8810  212.6600  155.4570 O   0  0  0  0  0  0  0  0  0  0  0  0
  160.1920  209.3020  155.0020 C   0  0  1  0  0  3  0  0  0  0  0  0
  159.3450  212.5570  154.2900 C   0  0  0  0  0  0  0  0  0  0  0  0
  160.5270  208.3970  153.7970 C   0  0  2  0  0  3  0  0  0  0  0  0
  162.1560  207.9680  151.7450 C   0  0  2  0  0  3  0  0  0  0  0  0
  158.8220  213.4800  153.2290 C   0  0  2  0  0  3  0  0  0  0  0  0
  160.3140  211.5310  153.9630 N   0  0  0  0  0  0  0  0  0  0  0  0
  161.1980  213.1010  148.0790 N   0  0  0  0  0  0  0  0  0  0  0  0
  160.9160  207.0740  154.4220 C   0  0  0  0  0  2  0  0  0  0  0  0
  160.5100  208.5700  156.2220 N   0  0  0  0  0  2  0  0  0  0  0  0
  160.1370  214.4530  149.6610 F   0  0  0  0  0  0  0  0  0  0  0  0
  161.7250  210.0400  150.8350 C   0  0  0  0  0  0  0  0  0  0  0  0
  161.8180  211.9580  147.6870 C   0  0  0  0  0  3  0  0  0  0  0  0
  160.9190  212.2620  150.3130 C   0  0  0  0  0  0  0  0  0  0  0  0
  161.3060  210.1650  152.1300 C   0  0  0  0  0  0  0  0  0  0  0  0
  161.1760  206.8520  151.4060 C   0  0  0  0  0  1  0  0  0  0  0  0
  161.6640  208.9200  152.8840 C   0  0  1  0  0  3  0  0  0  0  0  0
  160.4670  207.1670  155.8570 C   0  0  0  0  0  2  0  0  0  0  0  0
  160.9220  211.2580  156.2440 O   0  0  0  0  0  1  0  0  0  0  0  0
  162.0100  210.9180  148.5920 C   0  0  0  0  0  3  0  0  0  0  0  0
  161.5640  211.0660  149.9060 C   0  0  0  0  0  0  0  0  0  0  0  0
  160.9060  210.6540  154.9810 C   0  0  1  0  0  3  0  0  0  0  0  0
  157.4520  213.0000  152.7720 C   0  0  0  0  0  2  0  0  0  0  0  0
  156.5130  214.1270  150.7810 C   0  0  0  0  0  1  0  0  0  0  0  0
  156.6170  214.1700  152.2900 C   0  0  0  0  0  2  0  0  0  0  0  0
  1  5  1  0  0  0  0
  1  4  1  0  0  0  0
  2 16  1  0  0  0  0
  2 19  1  0  0  0  0
  3 17  1  0  0  0  0
  3 10  1  0  0  0  0
  4 12  1  0  0  0  0
  5 11  1  0  0  0  0
  7 15  1  1  0  0  0
  8  6  2  0  0  0  0
  9 14  1  1  0  0  0
  9  7  1  0  0  0  0
 10 21  1  6  0  0  0
 10 22  1  0  0  0  0
 11 28  1  6  0  0  0
 11  8  1  0  0  0  0
 12  8  1  0  0  0  0
 12 27  1  0  0  0  0
 13  2  2  0  0  0  0
 14 23  1  0  0  0  0
 17 20  1  0  0  0  0
 18 13  1  0  0  0  0
 18 25  2  0  0  0  0
 19  1  2  0  0  0  0
 20  4  2  0  0  0  0
 22 20  1  6  0  0  0
 22  9  1  0  0  0  0
 23 15  1  0  0  0  0
 25 26  1  0  0  0  0
 26 19  1  0  0  0  0
 26 17  2  0  0  0  0
 27  7  1  0  0  0  0
 27 24  1  1  0  0  0
 29 30  1  0  0  0  0
 30 28  1  0  0  0  0
M  END
>  <MODEL>
3

>  <REMARK>
 VINA RESULT:      -5.9      1.625      2.205
  Name = 
  2 active torsions:
  status: ('A' for Active; 'I' for Inactive)
    1  A    between atoms: C_11  and  C_28
    2  A    between atoms: C_28  and  C_30
                            x       y       z     vdW  Elec       q    Type
                         _______ _______ _______ _____ _____    ______ ____

>  <TORSDO>
F 2

$$$$
=
 OpenBabel11122412433D

 30 35  0  0  1  0  0  0  0  0999 V2000
  161.0930  210.8230  151.8820 C   0  0  0  0  0  0  0  0  0  0  0  0
  161.5530  211.0340  149.4460 C   0  0  0  0  0  0  0  0  0  0  0  0
  162.1960  206.8190  151.8550 O   0  0  0  0  0  0  0  0  0  0  0  0
  161.1250  210.0380  153.0550 C   0  0  0  0  0  0  0  0  0  0  0  0
  160.6050  212.1640  151.9780 N   0  0  0  0  0  2  0  0  0  0  0  0
  159.5950  212.3570  155.4100 O   0  0  0  0  0  0  0  0  0  0  0  0
  160.2330  208.8110  155.8800 C   0  0  1  0  0  3  0  0  0  0  0  0
  160.0320  211.8740  154.3320 C   0  0  0  0  0  0  0  0  0  0  0  0
  160.3890  207.5820  154.9600 C   0  0  2  0  0  3  0  0  0  0  0  0
  161.9070  206.3460  153.1670 C   0  0  2  0  0  3  0  0  0  0  0  0
  159.6980  212.5750  153.0470 C   0  0  2  0  0  3  0  0  0  0  0  0
  160.7840  210.6360  154.3220 N   0  0  0  0  0  0  0  0  0  0  0  0
  161.9630  210.4530  148.2850 N   0  0  0  0  0  0  0  0  0  0  0  0
  160.5140  206.4140  155.9170 C   0  0  0  0  0  2  0  0  0  0  0  0
  160.4030  208.3710  157.2600 N   0  0  0  0  0  2  0  0  0  0  0  0
  161.1810  212.3380  149.4210 F   0  0  0  0  0  0  0  0  0  0  0  0
  161.8850  208.1580  151.7450 C   0  0  0  0  0  0  0  0  0  0  0  0
  162.3510  209.1520  148.2250 C   0  0  0  0  0  3  0  0  0  0  0  0
  161.5240  210.2820  150.6410 C   0  0  0  0  0  0  0  0  0  0  0  0
  161.4970  208.6860  152.9440 C   0  0  0  0  0  0  0  0  0  0  0  0
  160.7300  205.3830  153.0700 C   0  0  0  0  0  1  0  0  0  0  0  0
  161.6070  207.6320  154.0040 C   0  0  1  0  0  3  0  0  0  0  0  0
  160.0900  206.9550  157.2570 C   0  0  0  0  0  2  0  0  0  0  0  0
  161.3260  210.8480  156.6260 O   0  0  0  0  0  1  0  0  0  0  0  0
  162.3370  208.3620  149.3710 C   0  0  0  0  0  3  0  0  0  0  0  0
  161.9270  208.9230  150.5800 C   0  0  0  0  0  0  0  0  0  0  0  0
  161.1950  209.9560  155.5570 C   0  0  1  0  0  3  0  0  0  0  0  0
  158.2620  212.2580  152.6570 C   0  0  0  0  0  2  0  0  0  0  0  0
  156.3110  212.9330  154.0200 C   0  0  0  0  0  1  0  0  0  0  0  0
  157.3480  213.4100  153.0260 C   0  0  0  0  0  2  0  0  0  0  0  0
  1  5  1  0  0  0  0
  1  4  1  0  0  0  0
  2 19  1  0  0  0  0
  3 10  1  0  0  0  0
  4 12  1  0  0  0  0
  5 11  1  0  0  0  0
  7 15  1  1  0  0  0
  8  6  2  0  0  0  0
  9  7  1  0  0  0  0
  9 14  1  1  0  0  0
 10 21  1  6  0  0  0
 10 22  1  0  0  0  0
 11 28  1  6  0  0  0
 11  8  1  0  0  0  0
 12  8  1  0  0  0  0
 12 27  1  0  0  0  0
 13  2  2  0  0  0  0
 14 23  1  0  0  0  0
 16  2  1  0  0  0  0
 17  3  1  0  0  0  0
 17 20  1  0  0  0  0
 18 13  1  0  0  0  0
 18 25  2  0  0  0  0
 19  1  2  0  0  0  0
 20  4  2  0  0  0  0
 22 20  1  6  0  0  0
 22  9  1  0  0  0  0
 23 15  1  0  0  0  0
 25 26  1  0  0  0  0
 26 19  1  0  0  0  0
 26 17  2  0  0  0  0
 27  7  1  0  0  0  0
 27 24  1  1  0  0  0
 28 30  1  0  0  0  0
 30 29  1  0  0  0  0
M  END
>  <MODEL>
4

>  <REMARK>
 VINA RESULT:      -5.5      1.993      2.886
  Name = 
  2 active torsions:
  status: ('A' for Active; 'I' for Inactive)
    1  A    between atoms: C_11  and  C_28
    2  A    between atoms: C_28  and  C_30
                            x       y       z     vdW  Elec       q    Type
                         _______ _______ _______ _____ _____    ______ ____

>  <TORSDO>
F 2

$$$$
=
 OpenBabel11122412433D

 30 35  0  0  1  0  0  0  0  0999 V2000
  160.6230  211.2400  152.2530 C   0  0  0  0  0  0  0  0  0  0  0  0
  160.1130  210.6090  154.6050 C   0  0  0  0  0  0  0  0  0  0  0  0
  157.4770  213.9520  152.1840 O   0  0  0  0  0  0  0  0  0  0  0  0
  160.3540  212.0610  151.1360 C   0  0  0  0  0  0  0  0  0  0  0  0
  161.6670  210.2690  152.1440 N   0  0  0  0  0  2  0  0  0  0  0  0
  162.6920  210.6410  148.7310 O   0  0  0  0  0  0  0  0  0  0  0  0
  159.9650  212.9530  148.0810 C   0  0  1  0  0  3  0  0  0  0  0  0
  162.0390  210.8140  149.7950 C   0  0  0  0  0  0  0  0  0  0  0  0
  158.6210  213.2980  148.7560 C   0  0  2  0  0  3  0  0  0  0  0  0
  157.4230  214.4220  150.8410 C   0  0  2  0  0  3  0  0  0  0  0  0
  162.0940  209.7460  150.8490 C   0  0  2  0  0  3  0  0  0  0  0  0
  161.2050  211.9840  149.9750 N   0  0  0  0  0  0  0  0  0  0  0  0
  159.3380  210.7740  155.7120 N   0  0  0  0  0  0  0  0  0  0  0  0
  157.9740  214.2890  147.8110 C   0  0  0  0  0  2  0  0  0  0  0  0
  160.1170  213.8040  146.9070 N   0  0  0  0  0  2  0  0  0  0  0  0
  161.1220  209.7030  154.6510 F   0  0  0  0  0  0  0  0  0  0  0  0
  158.5070  213.0470  152.3380 C   0  0  0  0  0  0  0  0  0  0  0  0
  158.3080  211.6600  155.7490 C   0  0  0  0  0  3  0  0  0  0  0  0
  159.8610  211.3740  153.4450 C   0  0  0  0  0  0  0  0  0  0  0  0
  159.2570  212.9380  151.2010 C   0  0  0  0  0  0  0  0  0  0  0  0
  156.1510  213.8750  150.2030 C   0  0  0  0  0  1  0  0  0  0  0  0
  158.7400  213.9030  150.1770 C   0  0  1  0  0  3  0  0  0  0  0  0
  158.7710  214.1980  146.5360 C   0  0  0  0  0  2  0  0  0  0  0  0
  162.3740  213.1820  148.2880 O   0  0  0  0  0  1  0  0  0  0  0  0
  158.0110  212.4360  154.6320 C   0  0  0  0  0  3  0  0  0  0  0  0
  158.7850  212.2980  153.4800 C   0  0  0  0  0  0  0  0  0  0  0  0
  161.1770  213.0860  149.0050 C   0  0  1  0  0  3  0  0  0  0  0  0
  161.2000  208.5850  150.4390 C   0  0  0  0  0  2  0  0  0  0  0  0
  162.0340  206.5880  151.6370 C   0  0  0  0  0  1  0  0  0  0  0  0
  160.9640  207.6590  151.6150 C   0  0  0  0  0  2  0  0  0  0  0  0
  1 19  1  0  0  0  0
  2 16  1  0  0  0  0
  2 13  1  0  0  0  0
  3 17  1  0  0  0  0
  4 20  1  0  0  0  0
  4  1  2  0  0  0  0
  5  1  1  0  0  0  0
  6  8  2  0  0  0  0
  7 15  1  6  0  0  0
  7  9  1  0  0  0  0
  7 27  1  0  0  0  0
  8 12  1  0  0  0  0
  8 11  1  0  0  0  0
  9 14  1  6  0  0  0
  9 22  1  0  0  0  0
 10 21  1  6  0  0  0
 10  3  1  0  0  0  0
 11 28  1  6  0  0  0
 11  5  1  0  0  0  0
 12  4  1  0  0  0  0
 13 18  2  0  0  0  0
 17 26  1  0  0  0  0
 19 26  1  0  0  0  0
 19  2  2  0  0  0  0
 20 17  2  0  0  0  0
 22 10  1  0  0  0  0
 22 20  1  1  0  0  0
 23 15  1  0  0  0  0
 23 14  1  0  0  0  0
 25 18  1  0  0  0  0
 26 25  2  0  0  0  0
 27 24  1  6  0  0  0
 27 12  1  0  0  0  0
 28 30  1  0  0  0  0
 30 29  1  0  0  0  0
M  END
>  <MODEL>
5

>  <REMARK>
 VINA RESULT:      -5.4      2.552      6.873
  Name = 
  2 active torsions:
  status: ('A' for Active; 'I' for Inactive)
    1  A    between atoms: C_11  and  C_28
    2  A    between atoms: C_28  and  C_30
                            x       y       z     vdW  Elec       q    Type
                         _______ _______ _______ _____ _____    ______ ____

>  <TORSDO>
F 2

$$$$
=
 OpenBabel11122412433D

 30 35  0  0  1  0  0  0  0  0999 V2000
  160.8240  211.2210  153.2820 C   0  0  0  0  0  0  0  0  0  0  0  0
  160.9370  210.4330  155.6390 C   0  0  0  0  0  0  0  0  0  0  0  0
  157.6720  213.7750  154.1740 O   0  0  0  0  0  0  0  0  0  0  0  0
  160.2580  212.0900  152.3240 C   0  0  0  0  0  0  0  0  0  0  0  0
  161.8390  210.3100  152.8530 N   0  0  0  0  0  2  0  0  0  0  0  0
  161.9680  210.9260  149.3260 O   0  0  0  0  0  0  0  0  0  0  0  0
  159.0900  213.1340  149.5260 C   0  0  1  0  0  3  0  0  0  0  0  0
  161.5960  211.0050  150.5280 C   0  0  0  0  0  0  0  0  0  0  0  0
  157.9460  213.3740  150.5330 C   0  0  2  0  0  3  0  0  0  0  0  0
  157.2680  214.3180  152.9200 C   0  0  2  0  0  3  0  0  0  0  0  0
  161.9480  209.8830  151.4610 C   0  0  2  0  0  3  0  0  0  0  0  0
  160.7940  212.1210  150.9860 N   0  0  0  0  0  0  0  0  0  0  0  0
  160.4580  210.4970  156.9110 N   0  0  0  0  0  0  0  0  0  0  0  0
  157.0510  214.3840  149.8460 C   0  0  0  0  0  2  0  0  0  0  0  0
  158.9160  214.0570  148.4110 N   0  0  0  0  0  2  0  0  0  0  0  0
  161.9560  209.5760  155.3740 F   0  0  0  0  0  0  0  0  0  0  0  0
  158.7370  212.9150  154.0080 C   0  0  0  0  0  0  0  0  0  0  0  0
  159.4410  211.3270  157.2610 C   0  0  0  0  0  3  0  0  0  0  0  0
  160.3790  211.2490  154.6320 C   0  0  0  0  0  0  0  0  0  0  0  0
  159.1830  212.9070  152.7160 C   0  0  0  0  0  0  0  0  0  0  0  0
  155.8970  213.7470  152.5810 C   0  0  0  0  0  1  0  0  0  0  0  0
  158.3950  213.9030  151.9190 C   0  0  1  0  0  3  0  0  0  0  0  0
  157.5080  214.4050  148.4110 C   0  0  0  0  0  2  0  0  0  0  0  0
  161.4660  213.4690  149.1470 O   0  0  0  0  0  1  0  0  0  0  0  0
  158.8490  212.1500  156.3070 C   0  0  0  0  0  3  0  0  0  0  0  0
  159.3160  212.1160  154.9930 C   0  0  0  0  0  0  0  0  0  0  0  0
  160.4890  213.2740  150.1290 C   0  0  1  0  0  3  0  0  0  0  0  0
  161.0190  208.7050  151.2070 C   0  0  0  0  0  2  0  0  0  0  0  0
  161.6370  206.5910  152.3320 C   0  0  0  0  0  1  0  0  0  0  0  0
  160.8550  207.8800  152.4680 C   0  0  0  0  0  2  0  0  0  0  0  0
  1 19  1  0  0  0  0
  2 13  1  0  0  0  0
  4 20  1  0  0  0  0
  4  1  2  0  0  0  0
  5  1  1  0  0  0  0
  6  8  2  0  0  0  0
  7 15  1  6  0  0  0
  7 27  1  0  0  0  0
  7  9  1  0  0  0  0
  8 12  1  0  0  0  0
  8 11  1  0  0  0  0
  9 14  1  6  0  0  0
  9 22  1  0  0  0  0
 10 21  1  6  0  0  0
 10  3  1  0  0  0  0
 11 28  1  1  0  0  0
 11  5  1  0  0  0  0
 12  4  1  0  0  0  0
 13 18  2  0  0  0  0
 16  2  1  0  0  0  0
 17  3  1  0  0  0  0
 17 26  1  0  0  0  0
 19 26  1  0  0  0  0
 19  2  2  0  0  0  0
 20 17  2  0  0  0  0
 22 20  1  1  0  0  0
 22 10  1  0  0  0  0
 23 15  1  0  0  0  0
 23 14  1  0  0  0  0
 25 18  1  0  0  0  0
 26 25  2  0  0  0  0
 27 24  1  6  0  0  0
 27 12  1  0  0  0  0
 28 30  1  0  0  0  0
 29 30  1  0  0  0  0
M  END
>  <MODEL>
6

>  <REMARK>
 VINA RESULT:      -5.2      2.593      6.977
  Name = 
  2 active torsions:
  status: ('A' for Active; 'I' for Inactive)
    1  A    between atoms: C_11  and  C_28
    2  A    between atoms: C_28  and  C_30
                            x       y       z     vdW  Elec       q    Type
                         _______ _______ _______ _____ _____    ______ ____

>  <TORSDO>
F 2

$$$$
=
 OpenBabel11122412433D

 30 35  0  0  1  0  0  0  0  0999 V2000
  161.7050  205.6530  149.9120 C   0  0  0  0  0  0  0  0  0  0  0  0
  161.5900  203.1820  149.6560 C   0  0  0  0  0  0  0  0  0  0  0  0
  160.9240  205.3780  153.9820 O   0  0  0  0  0  0  0  0  0  0  0  0
  161.6850  206.7840  150.7580 C   0  0  0  0  0  0  0  0  0  0  0  0
  161.8860  205.8620  148.5080 N   0  0  0  0  0  2  0  0  0  0  0  0
  161.9450  209.4360  148.2750 O   0  0  0  0  0  0  0  0  0  0  0  0
  161.0830  209.7590  151.7900 C   0  0  1  0  0  3  0  0  0  0  0  0
  161.8470  208.2850  148.7800 C   0  0  0  0  0  0  0  0  0  0  0  0
  160.4580  208.8460  152.8660 C   0  0  2  0  0  3  0  0  0  0  0  0
  160.7950  206.7250  154.4270 C   0  0  2  0  0  3  0  0  0  0  0  0
  161.5420  207.1300  147.8720 C   0  0  2  0  0  3  0  0  0  0  0  0
  161.9620  208.0880  150.2100 N   0  0  0  0  0  0  0  0  0  0  0  0
  161.4060  201.9600  150.2280 N   0  0  0  0  0  0  0  0  0  0  0  0
  160.3000  209.7470  154.0730 C   0  0  0  0  0  2  0  0  0  0  0  0
  161.3820  211.0470  152.4050 N   0  0  0  0  0  2  0  0  0  0  0  0
  161.8260  203.2420  148.3210 F   0  0  0  0  0  0  0  0  0  0  0  0
  161.2060  205.3390  152.6320 C   0  0  0  0  0  0  0  0  0  0  0  0
  161.1660  201.8120  151.5570 C   0  0  0  0  0  3  0  0  0  0  0  0
  161.5370  204.3480  150.4480 C   0  0  0  0  0  0  0  0  0  0  0  0
  161.3950  206.5920  152.1210 C   0  0  0  0  0  0  0  0  0  0  0  0
  159.3340  206.9600  154.7910 C   0  0  0  0  0  1  0  0  0  0  0  0
  161.2980  207.5960  153.2300 C   0  0  1  0  0  3  0  0  0  0  0  0
  160.4980  211.1460  153.5510 C   0  0  0  0  0  2  0  0  0  0  0  0
  163.0960  210.1580  150.4900 O   0  0  0  0  0  1  0  0  0  0  0  0
  161.0970  202.9290  152.3860 C   0  0  0  0  0  3  0  0  0  0  0  0
  161.2840  204.1980  151.8360 C   0  0  0  0  0  0  0  0  0  0  0  0
  162.3310  209.1740  151.1270 C   0  0  1  0  0  3  0  0  0  0  0  0
  160.0630  207.1460  147.5130 C   0  0  0  0  0  2  0  0  0  0  0  0
  160.4560  206.2030  145.2610 C   0  0  0  0  0  1  0  0  0  0  0  0
  159.7350  206.0010  146.5750 C   0  0  0  0  0  2  0  0  0  0  0  0
  1 19  2  0  0  0  0
  1  4  1  0  0  0  0
  2 13  2  0  0  0  0
  2 19  1  0  0  0  0
  3 10  1  0  0  0  0
  4 20  2  0  0  0  0
  5  1  1  0  0  0  0
  6  8  2  0  0  0  0
  7 15  1  1  0  0  0
  7  9  1  0  0  0  0
  8 12  1  0  0  0  0
  9 22  1  0  0  0  0
  9 14  1  1  0  0  0
 10 21  1  6  0  0  0
 11 28  1  1  0  0  0
 11  5  1  0  0  0  0
 11  8  1  0  0  0  0
 12  4  1  0  0  0  0
 12 27  1  0  0  0  0
 13 18  1  0  0  0  0
 15 23  1  0  0  0  0
 16  2  1  0  0  0  0
 17  3  1  0  0  0  0
 18 25  2  0  0  0  0
 19 26  1  0  0  0  0
 20 17  1  0  0  0  0
 22 20  1  6  0  0  0
 22 10  1  0  0  0  0
 23 14  1  0  0  0  0
 26 25  1  0  0  0  0
 26 17  2  0  0  0  0
 27 24  1  6  0  0  0
 27  7  1  0  0  0  0
 29 30  1  0  0  0  0
 30 28  1  0  0  0  0
M  END
>  <MODEL>
7

>  <REMARK>
 VINA RESULT:      -4.3      3.437      7.396
  Name = 
  2 active torsions:
  status: ('A' for Active; 'I' for Inactive)
    1  A    between atoms: C_11  and  C_28
    2  A    between atoms: C_28  and  C_30
                            x       y       z     vdW  Elec       q    Type
                         _______ _______ _______ _____ _____    ______ ____

>  <TORSDO>
F 2

$$$$
=
 OpenBabel11122412433D

 30 35  0  0  1  0  0  0  0  0999 V2000
  161.6950  204.3500  147.9200 C   0  0  0  0  0  0  0  0  0  0  0  0
  161.4890  202.2340  146.6280 C   0  0  0  0  0  0  0  0  0  0  0  0
  161.0610  202.3500  151.5050 O   0  0  0  0  0  0  0  0  0  0  0  0
  161.7440  205.0030  149.1710 C   0  0  0  0  0  0  0  0  0  0  0  0
  161.8290  205.1430  146.7370 N   0  0  0  0  0  2  0  0  0  0  0  0
  161.9970  208.4650  148.0680 O   0  0  0  0  0  0  0  0  0  0  0  0
  161.2810  207.2450  151.4150 C   0  0  1  0  0  3  0  0  0  0  0  0
  161.8800  207.2100  148.0310 C   0  0  0  0  0  0  0  0  0  0  0  0
  160.6680  205.9650  152.0200 C   0  0  2  0  0  3  0  0  0  0  0  0
  160.9930  203.3730  152.4930 C   0  0  2  0  0  3  0  0  0  0  0  0
  161.5030  206.5670  146.7280 C   0  0  2  0  0  3  0  0  0  0  0  0
  162.0440  206.4120  149.2270 N   0  0  0  0  0  0  0  0  0  0  0  0
  161.2870  200.8880  146.6250 N   0  0  0  0  0  0  0  0  0  0  0  0
  160.5850  206.2560  153.5040 C   0  0  0  0  0  2  0  0  0  0  0  0
  161.6450  208.1360  152.5100 N   0  0  0  0  0  2  0  0  0  0  0  0
  161.6750  202.8630  145.4400 F   0  0  0  0  0  0  0  0  0  0  0  0
  161.2900  202.8960  150.2590 C   0  0  0  0  0  0  0  0  0  0  0  0
  161.0920  200.1830  147.7690 C   0  0  0  0  0  3  0  0  0  0  0  0
  161.5040  202.9430  147.8480 C   0  0  0  0  0  0  0  0  0  0  0  0
  161.5010  204.2440  150.3300 C   0  0  0  0  0  0  0  0  0  0  0  0
  159.5560  203.4470  152.9940 C   0  0  0  0  0  1  0  0  0  0  0  0
  161.4790  204.6690  151.7670 C   0  0  1  0  0  3  0  0  0  0  0  0
  160.8100  207.7410  153.6280 C   0  0  0  0  0  2  0  0  0  0  0  0
  163.2540  208.1410  150.3190 O   0  0  0  0  0  1  0  0  0  0  0  0
  161.0920  200.8320  149.0010 C   0  0  0  0  0  3  0  0  0  0  0  0
  161.2990  202.2100  149.0450 C   0  0  0  0  0  0  0  0  0  0  0  0
  162.4830  206.9890  150.5050 C   0  0  1  0  0  3  0  0  0  0  0  0
  160.0130  206.7550  146.4850 C   0  0  0  0  0  2  0  0  0  0  0  0
  160.7150  205.7580  144.3330 C   0  0  0  0  0  1  0  0  0  0  0  0
  159.5620  205.9240  145.2990 C   0  0  0  0  0  2  0  0  0  0  0  0
  1  4  1  0  0  0  0
  2 19  1  0  0  0  0
  3 10  1  0  0  0  0
  4 12  1  0  0  0  0
  4 20  2  0  0  0  0
  5  1  1  0  0  0  0
  7  9  1  0  0  0  0
  7 15  1  1  0  0  0
  8  6  2  0  0  0  0
  8 12  1  0  0  0  0
  9 14  1  1  0  0  0
 10 21  1  6  0  0  0
 11 28  1  1  0  0  0
 11  5  1  0  0  0  0
 11  8  1  0  0  0  0
 12 27  1  0  0  0  0
 13  2  2  0  0  0  0
 13 18  1  0  0  0  0
 14 23  1  0  0  0  0
 15 23  1  0  0  0  0
 16  2  1  0  0  0  0
 17 20  1  0  0  0  0
 17  3  1  0  0  0  0
 18 25  2  0  0  0  0
 19  1  2  0  0  0  0
 19 26  1  0  0  0  0
 22 20  1  6  0  0  0
 22  9  1  0  0  0  0
 22 10  1  0  0  0  0
 25 26  1  0  0  0  0
 26 17  2  0  0  0  0
 27 24  1  6  0  0  0
 27  7  1  0  0  0  0
 29 30  1  0  0  0  0
 30 28  1  0  0  0  0
M  END
>  <MODEL>
8

>  <REMARK>
 VINA RESULT:      -4.2      4.629      8.244
  Name = 
  2 active torsions:
  status: ('A' for Active; 'I' for Inactive)
    1  A    between atoms: C_11  and  C_28
    2  A    between atoms: C_28  and  C_30
                            x       y       z     vdW  Elec       q    Type
                         _______ _______ _______ _____ _____    ______ ____

>  <TORSDO>
F 2

$$$$
