=
 OpenBabel11122414253D

 34 42  0  0  1  0  0  0  0  0999 V2000
  160.8830  207.0060  154.1970 C   0  0  0  0  0  0  0  0  0  0  0  0
  161.4040  204.8310  153.0000 C   0  0  0  0  0  2  0  0  0  0  0  0
  159.0370  213.5360  154.3180 C   0  0  1  0  0  0  0  0  0  0  0  0
  159.9960  209.0780  155.0940 C   0  0  0  0  0  0  0  0  0  0  0  0
  159.6730  211.0520  153.6910 C   0  0  0  0  0  0  0  0  0  0  0  0
  159.2740  213.3300  152.4030 C   0  0  1  0  0  3  0  0  0  0  0  0
  158.9430  214.4530  153.1770 N   0  0  0  0  0  2  0  0  0  0  0  0
  159.0520  212.4610  156.4950 C   0  0  0  0  0  3  0  0  0  0  0  0
  161.9510  206.9250  151.9060 C   0  0  2  0  0  3  0  0  0  0  0  0
  161.0250  207.0020  148.7750 C   0  0  0  0  0  2  0  0  0  0  0  0
  159.8970  210.1790  152.4840 C   0  0  0  0  0  2  0  0  0  0  0  0
  159.3680  211.2340  156.1670 N   0  0  0  0  0  0  0  0  0  0  0  0
  161.0700  208.1460  151.5490 C   0  0  1  0  0  3  0  0  0  0  0  0
  161.9650  204.5020  151.6290 C   0  0  0  0  0  2  0  0  0  0  0  0
  159.6640  210.5170  154.9410 C   0  0  0  0  0  0  0  0  0  0  0  0
  158.8810  213.6260  155.6160 C   0  0  0  0  0  2  0  0  0  0  0  0
  160.8390  205.8960  149.8290 C   0  0  2  0  0  3  0  0  0  0  0  0
  160.5770  208.3640  154.0290 C   0  0  0  0  0  0  0  0  0  0  0  0
  159.3790  212.4190  153.4640 N   0  0  0  0  0  0  0  0  0  0  0  0
  160.9370  209.0910  152.7560 C   0  0  2  0  0  3  0  0  0  0  0  0
  160.0110  207.1190  156.4450 C   0  0  0  0  0  3  0  0  0  0  0  0
  162.0450  208.0760  149.1570 C   0  0  0  0  0  2  0  0  0  0  0  0
  159.7340  208.4390  156.2670 N   0  0  0  0  0  0  0  0  0  0  0  0
  161.6080  208.9330  150.3450 C   0  0  0  0  0  2  0  0  0  0  0  0
  162.0030  205.8120  150.8410 C   0  0  1  0  0  3  0  0  0  0  0  0
  160.5860  206.3780  155.4120 C   0  0  0  0  0  3  0  0  0  0  0  0
  161.4630  206.2750  153.1100 N   0  0  0  0  0  0  0  0  0  0  0  0
  160.6560  204.6750  149.1710 O   0  0  0  0  0  0  0  0  0  0  0  0
  161.0380  204.9190  147.8500 C   0  0  0  0  0  2  0  0  0  0  0  0
  160.6930  201.7130  146.8270 O   0  0  0  0  0  0  0  0  0  0  0  0
  161.4740  203.5470  145.8410 C   0  0  0  0  0  3  0  0  0  0  0  0
  161.7780  203.7150  147.2940 C   0  0  2  0  0  3  0  0  0  0  0  0
  160.8610  202.3970  145.6390 C   0  0  0  0  0  3  0  0  0  0  0  0
  161.2210  202.4400  147.9210 C   0  0  0  0  0  2  0  0  0  0  0  0
  1 26  1  0  0  0  0
  2 27  1  0  0  0  0
  3 16  1  6  0  0  0
  4 23  2  0  0  0  0
  5 15  2  0  0  0  0
  6  7  1  1  0  0  0
  6 19  1  0  0  0  0
  6  3  1  0  0  0  0
  7  3  1  0  0  0  0
  9 27  1  1  0  0  0
 10 22  1  0  0  0  0
 10 17  1  0  0  0  0
 11  5  1  0  0  0  0
 12  8  2  0  0  0  0
 13 24  1  6  0  0  0
 13  9  1  0  0  0  0
 13 20  1  0  0  0  0
 14  2  1  0  0  0  0
 15  4  1  0  0  0  0
 15 12  1  0  0  0  0
 16  8  1  0  0  0  0
 17 28  1  6  0  0  0
 17 25  1  0  0  0  0
 18  1  2  0  0  0  0
 18  4  1  0  0  0  0
 19  5  1  0  0  0  0
 19  3  1  0  0  0  0
 20 11  1  6  0  0  0
 20 18  1  0  0  0  0
 22 24  1  0  0  0  0
 23 21  1  0  0  0  0
 25 14  1  1  0  0  0
 25  9  1  0  0  0  0
 26 21  2  0  0  0  0
 27  1  1  0  0  0  0
 29 28  1  0  0  0  0
 30 34  1  0  0  0  0
 31 32  1  0  0  0  0
 32 29  1  1  0  0  0
 32 34  1  0  0  0  0
 33 31  2  0  0  0  0
 33 30  1  0  0  0  0
M  END
>  <MODEL>
1

>  <REMARK>
 VINA RESULT:      -9.7      0.000      0.000
  Name = 
  3 active torsions:
  status: ('A' for Active; 'I' for Inactive)
    1  A    between atoms: C_17  and  O_28
    2  A    between atoms: O_28  and  C_29
    3  A    between atoms: C_29  and  C_32
                            x       y       z     vdW  Elec       q    Type
                         _______ _______ _______ _____ _____    ______ ____

>  <TORSDO>
F 3

$$$$
=
 OpenBabel11122414253D

 34 42  0  0  1  0  0  0  0  0999 V2000
  161.7960  209.4210  151.1080 C   0  0  0  0  0  0  0  0  0  0  0  0
  161.4130  211.1090  152.9630 C   0  0  0  0  0  2  0  0  0  0  0  0
  161.2060  203.2480  148.3510 C   0  0  1  0  0  0  0  0  0  0  0  0
  161.7090  207.7320  149.3700 C   0  0  0  0  0  0  0  0  0  0  0  0
  161.1230  205.4110  149.8610 C   0  0  0  0  0  0  0  0  0  0  0  0
  160.5650  202.8380  150.1360 C   0  0  1  0  0  3  0  0  0  0  0  0
  160.7750  202.0150  149.0180 N   0  0  0  0  0  2  0  0  0  0  0  0
  161.9870  204.9590  146.8150 C   0  0  0  0  0  3  0  0  0  0  0  0
  161.7530  208.7830  153.5550 C   0  0  2  0  0  3  0  0  0  0  0  0
  159.5990  207.7050  155.7610 C   0  0  0  0  0  2  0  0  0  0  0  0
  160.6710  205.8580  151.2270 C   0  0  0  0  0  2  0  0  0  0  0  0
  161.9390  206.0210  147.5770 N   0  0  0  0  0  0  0  0  0  0  0  0
  161.0030  207.5020  153.1170 C   0  0  1  0  0  3  0  0  0  0  0  0
  161.2750  210.9920  154.4690 C   0  0  0  0  0  2  0  0  0  0  0  0
  161.5670  206.3150  148.9480 C   0  0  0  0  0  0  0  0  0  0  0  0
  161.6370  203.5730  147.1570 C   0  0  0  0  0  2  0  0  0  0  0  0
  159.7150  209.0870  155.0930 C   0  0  2  0  0  3  0  0  0  0  0  0
  161.6600  208.0770  150.7330 C   0  0  0  0  0  0  0  0  0  0  0  0
  160.9740  204.0400  149.5390 N   0  0  0  0  0  0  0  0  0  0  0  0
  161.5470  206.9870  151.7720 C   0  0  2  0  0  3  0  0  0  0  0  0
  162.0010  210.0180  148.7780 C   0  0  0  0  0  3  0  0  0  0  0  0
  160.8360  206.8190  155.6040 C   0  0  0  0  0  2  0  0  0  0  0  0
  161.8790  208.7070  148.4360 N   0  0  0  0  0  0  0  0  0  0  0  0
  161.0870  206.3790  154.1620 C   0  0  0  0  0  2  0  0  0  0  0  0
  161.1730  209.5000  154.7890 C   0  0  1  0  0  3  0  0  0  0  0  0
  161.9560  210.4000  150.1200 C   0  0  0  0  0  3  0  0  0  0  0  0
  161.7350  209.7760  152.4950 N   0  0  0  0  0  0  0  0  0  0  0  0
  159.0830  210.0340  155.9050 O   0  0  0  0  0  0  0  0  0  0  0  0
  157.8860  210.3280  155.2470 C   0  0  0  0  0  2  0  0  0  0  0  0
  159.0930  213.4540  155.7150 O   0  0  0  0  0  0  0  0  0  0  0  0
  157.6680  212.5790  154.2490 C   0  0  0  0  0  3  0  0  0  0  0  0
  157.4990  211.7760  155.4970 C   0  0  2  0  0  3  0  0  0  0  0  0
  158.5810  213.5120  154.4330 C   0  0  0  0  0  3  0  0  0  0  0  0
  158.4960  212.4110  156.4620 C   0  0  0  0  0  2  0  0  0  0  0  0
  1 27  1  0  0  0  0
  2 14  1  0  0  0  0
  3 16  1  6  0  0  0
  3  7  1  0  0  0  0
  3 19  1  0  0  0  0
  3  6  1  0  0  0  0
  4 18  2  0  0  0  0
  5 11  1  0  0  0  0
  6  7  1  1  0  0  0
  8 16  1  0  0  0  0
  8 12  2  0  0  0  0
  9 27  1  6  0  0  0
  9 25  1  0  0  0  0
 12 15  1  0  0  0  0
 13  9  1  0  0  0  0
 13 24  1  1  0  0  0
 15  4  1  0  0  0  0
 15  5  2  0  0  0  0
 17 10  1  0  0  0  0
 17 28  1  1  0  0  0
 18  1  1  0  0  0  0
 18 20  1  0  0  0  0
 19  5  1  0  0  0  0
 19  6  1  0  0  0  0
 20 11  1  6  0  0  0
 20 13  1  0  0  0  0
 21 26  1  0  0  0  0
 22 10  1  0  0  0  0
 23 21  2  0  0  0  0
 23  4  1  0  0  0  0
 24 22  1  0  0  0  0
 25 14  1  6  0  0  0
 25 17  1  0  0  0  0
 26  1  2  0  0  0  0
 27  2  1  0  0  0  0
 29 28  1  0  0  0  0
 30 34  1  0  0  0  0
 31 33  2  0  0  0  0
 31 32  1  0  0  0  0
 32 29  1  6  0  0  0
 32 34  1  0  0  0  0
 33 30  1  0  0  0  0
M  END
>  <MODEL>
2

>  <REMARK>
 VINA RESULT:      -9.2      3.300      8.986
  Name = 
  3 active torsions:
  status: ('A' for Active; 'I' for Inactive)
    1  A    between atoms: C_17  and  O_28
    2  A    between atoms: O_28  and  C_29
    3  A    between atoms: C_29  and  C_32
                            x       y       z     vdW  Elec       q    Type
                         _______ _______ _______ _____ _____    ______ ____

>  <TORSDO>
F 3

$$$$
=
 OpenBabel11122414253D

 34 42  0  0  1  0  0  0  0  0999 V2000
  161.8370  208.4460  150.2780 C   0  0  0  0  0  0  0  0  0  0  0  0
  161.6460  210.3760  151.9120 C   0  0  0  0  0  2  0  0  0  0  0  0
  160.8720  201.9880  148.4280 C   0  0  1  0  0  0  0  0  0  0  0  0
  161.5680  206.5460  148.7940 C   0  0  0  0  0  0  0  0  0  0  0  0
  160.9650  204.3330  149.6350 C   0  0  0  0  0  0  0  0  0  0  0  0
  160.3660  201.8400  150.2950 C   0  0  1  0  0  3  0  0  0  0  0  0
  160.4640  200.8700  149.2850 N   0  0  0  0  0  2  0  0  0  0  0  0
  161.5720  203.4520  146.6210 C   0  0  0  0  0  3  0  0  0  0  0  0
  161.9720  208.1380  152.7840 C   0  0  2  0  0  3  0  0  0  0  0  0
  159.9750  207.4390  155.2710 C   0  0  0  0  0  2  0  0  0  0  0  0
  160.6350  204.9720  150.9590 C   0  0  0  0  0  2  0  0  0  0  0  0
  161.6120  204.6060  147.2350 N   0  0  0  0  0  0  0  0  0  0  0  0
  161.1570  206.8380  152.5800 C   0  0  1  0  0  3  0  0  0  0  0  0
  161.6250  210.4640  153.4270 C   0  0  0  0  0  2  0  0  0  0  0  0
  161.3580  205.0920  148.5790 C   0  0  0  0  0  0  0  0  0  0  0  0
  161.2150  202.1370  147.1720 C   0  0  0  0  0  2  0  0  0  0  0  0
  160.0720  208.7160  154.4170 C   0  0  2  0  0  3  0  0  0  0  0  0
  161.6370  207.0700  150.0980 C   0  0  0  0  0  0  0  0  0  0  0  0
  160.7560  202.9380  149.5130 N   0  0  0  0  0  0  0  0  0  0  0  0
  161.5800  206.1310  151.2800 C   0  0  2  0  0  3  0  0  0  0  0  0
  161.8700  208.7220  147.8800 C   0  0  0  0  0  3  0  0  0  0  0  0
  161.1720  206.4960  155.1420 C   0  0  0  0  0  2  0  0  0  0  0  0
  161.6880  207.3830  147.7270 N   0  0  0  0  0  0  0  0  0  0  0  0
  161.2960  205.8610  153.7570 C   0  0  0  0  0  2  0  0  0  0  0  0
  161.5110  209.0320  153.9510 C   0  0  1  0  0  3  0  0  0  0  0  0
  161.9420  209.2790  149.1580 C   0  0  0  0  0  3  0  0  0  0  0  0
  161.8950  208.9820  151.6050 N   0  0  0  0  0  0  0  0  0  0  0  0
  159.5310  209.7830  155.1400 O   0  0  0  0  0  0  0  0  0  0  0  0
  159.9310  209.5620  156.4600 C   0  0  0  0  0  2  0  0  0  0  0  0
  160.4700  212.9010  156.3950 O   0  0  0  0  0  0  0  0  0  0  0  0
  158.6610  211.6610  156.7630 C   0  0  0  0  0  3  0  0  0  0  0  0
  159.8110  210.8470  157.2600 C   0  0  2  0  0  3  0  0  0  0  0  0
  159.0960  212.8110  156.2870 C   0  0  0  0  0  3  0  0  0  0  0  0
  161.0190  211.7360  156.9830 C   0  0  0  0  0  2  0  0  0  0  0  0
  1 27  1  0  0  0  0
  2 14  1  0  0  0  0
  3 16  1  6  0  0  0
  3  7  1  0  0  0  0
  3 19  1  0  0  0  0
  3  6  1  0  0  0  0
  4 18  2  0  0  0  0
  5 11  1  0  0  0  0
  6  7  1  1  0  0  0
  8 16  1  0  0  0  0
  8 12  2  0  0  0  0
  9 27  1  6  0  0  0
  9 25  1  0  0  0  0
 12 15  1  0  0  0  0
 13  9  1  0  0  0  0
 13 24  1  1  0  0  0
 15  4  1  0  0  0  0
 15  5  2  0  0  0  0
 17 28  1  1  0  0  0
 17 10  1  0  0  0  0
 18  1  1  0  0  0  0
 18 20  1  0  0  0  0
 19  5  1  0  0  0  0
 19  6  1  0  0  0  0
 20 11  1  6  0  0  0
 20 13  1  0  0  0  0
 21 26  1  0  0  0  0
 22 10  1  0  0  0  0
 23 21  2  0  0  0  0
 23  4  1  0  0  0  0
 24 22  1  0  0  0  0
 25 14  1  6  0  0  0
 25 17  1  0  0  0  0
 26  1  2  0  0  0  0
 27  2  1  0  0  0  0
 28 29  1  0  0  0  0
 30 34  1  0  0  0  0
 31 32  1  0  0  0  0
 32 29  1  6  0  0  0
 33 30  1  0  0  0  0
 33 31  2  0  0  0  0
 34 32  1  0  0  0  0
M  END
>  <MODEL>
3

>  <REMARK>
 VINA RESULT:      -8.7      3.363      9.341
  Name = 
  3 active torsions:
  status: ('A' for Active; 'I' for Inactive)
    1  A    between atoms: C_17  and  O_28
    2  A    between atoms: O_28  and  C_29
    3  A    between atoms: C_29  and  C_32
                            x       y       z     vdW  Elec       q    Type
                         _______ _______ _______ _____ _____    ______ ____

>  <TORSDO>
F 3

$$$$
=
 OpenBabel11122414253D

 34 42  0  0  1  0  0  0  0  0999 V2000
  161.4890  208.4560  149.5430 C   0  0  0  0  0  0  0  0  0  0  0  0
  161.6260  207.1630  147.3640 C   0  0  0  0  0  2  0  0  0  0  0  0
  161.2460  208.8630  156.3130 C   0  0  1  0  0  0  0  0  0  0  0  0
  161.7230  209.4370  151.7480 C   0  0  0  0  0  0  0  0  0  0  0  0
  161.3840  208.1270  153.7820 C   0  0  0  0  0  0  0  0  0  0  0  0
  161.0280  206.9440  156.1230 C   0  0  1  0  0  3  0  0  0  0  0  0
  161.0210  207.7660  157.2610 N   0  0  0  0  0  2  0  0  0  0  0  0
  161.6250  210.9860  155.1970 C   0  0  0  0  0  3  0  0  0  0  0  0
  160.4320  206.1800  149.2310 C   0  0  2  0  0  3  0  0  0  0  0  0
  161.1970  203.0430  149.7190 C   0  0  0  0  0  2  0  0  0  0  0  0
  161.4040  206.8820  152.9330 C   0  0  0  0  0  2  0  0  0  0  0  0
  161.6910  210.6030  153.9470 N   0  0  0  0  0  0  0  0  0  0  0  0
  160.8850  205.8690  150.6780 C   0  0  1  0  0  3  0  0  0  0  0  0
  161.1530  205.7870  146.9350 C   0  0  0  0  0  2  0  0  0  0  0  0
  161.5940  209.3490  153.2250 C   0  0  0  0  0  0  0  0  0  0  0  0
  161.4050  210.1610  156.3930 C   0  0  0  0  0  2  0  0  0  0  0  0
  161.7440  204.0390  148.6800 C   0  0  2  0  0  3  0  0  0  0  0  0
  161.3590  208.3490  150.9350 C   0  0  0  0  0  0  0  0  0  0  0  0
  161.2380  207.9620  155.1810 N   0  0  0  0  0  0  0  0  0  0  0  0
  160.7560  207.1180  151.5680 C   0  0  2  0  0  3  0  0  0  0  0  0
  162.3490  210.6930  149.8260 C   0  0  0  0  0  3  0  0  0  0  0  0
  159.9080  203.4910  150.4100 C   0  0  0  0  0  2  0  0  0  0  0  0
  162.2030  210.5740  151.1730 N   0  0  0  0  0  0  0  0  0  0  0  0
  160.0960  204.7120  151.3100 C   0  0  0  0  0  2  0  0  0  0  0  0
  160.6910  205.0640  148.2010 C   0  0  1  0  0  3  0  0  0  0  0  0
  161.9990  209.6340  148.9870 C   0  0  0  0  0  3  0  0  0  0  0  0
  161.1300  207.3440  148.7140 N   0  0  0  0  0  0  0  0  0  0  0  0
  162.2740  203.3210  147.6030 O   0  0  0  0  0  0  0  0  0  0  0  0
  161.3130  202.3490  147.3140 C   0  0  0  0  0  2  0  0  0  0  0  0
  159.3720  201.4420  144.6960 O   0  0  0  0  0  0  0  0  0  0  0  0
  160.7040  203.1840  145.0690 C   0  0  0  0  0  3  0  0  0  0  0  0
  161.3110  202.0480  145.8260 C   0  0  2  0  0  3  0  0  0  0  0  0
  159.6110  202.7810  144.4510 C   0  0  0  0  0  3  0  0  0  0  0  0
  160.3630  200.8870  145.5400 C   0  0  0  0  0  2  0  0  0  0  0  0
  1 18  1  0  0  0  0
  2 27  1  0  0  0  0
  3 16  1  1  0  0  0
  3  7  1  0  0  0  0
  4 15  1  0  0  0  0
  5 19  1  0  0  0  0
  6  3  1  0  0  0  0
  6  7  1  6  0  0  0
  8 16  1  0  0  0  0
  9 27  1  6  0  0  0
  9 13  1  0  0  0  0
 10 22  1  0  0  0  0
 11  5  1  0  0  0  0
 12  8  2  0  0  0  0
 13 24  1  1  0  0  0
 13 20  1  0  0  0  0
 14  2  1  0  0  0  0
 15  5  2  0  0  0  0
 15 12  1  0  0  0  0
 17 28  1  6  0  0  0
 17 10  1  0  0  0  0
 18 20  1  0  0  0  0
 18  4  2  0  0  0  0
 19  6  1  0  0  0  0
 19  3  1  0  0  0  0
 20 11  1  1  0  0  0
 21 23  2  0  0  0  0
 22 24  1  0  0  0  0
 23  4  1  0  0  0  0
 25 14  1  6  0  0  0
 25 17  1  0  0  0  0
 25  9  1  0  0  0  0
 26  1  2  0  0  0  0
 26 21  1  0  0  0  0
 27  1  1  0  0  0  0
 29 28  1  0  0  0  0
 30 34  1  0  0  0  0
 31 32  1  0  0  0  0
 32 29  1  1  0  0  0
 33 30  1  0  0  0  0
 33 31  2  0  0  0  0
 34 32  1  0  0  0  0
M  END
>  <MODEL>
4

>  <REMARK>
 VINA RESULT:      -7.4      2.201      4.460
  Name = 
  3 active torsions:
  status: ('A' for Active; 'I' for Inactive)
    1  A    between atoms: C_17  and  O_28
    2  A    between atoms: O_28  and  C_29
    3  A    between atoms: C_29  and  C_32
                            x       y       z     vdW  Elec       q    Type
                         _______ _______ _______ _____ _____    ______ ____

>  <TORSDO>
F 3

$$$$
=
 OpenBabel11122414253D

 34 42  0  0  1  0  0  0  0  0999 V2000
  161.0310  207.1290  153.9650 C   0  0  0  0  0  0  0  0  0  0  0  0
  161.6400  204.9000  152.9200 C   0  0  0  0  0  2  0  0  0  0  0  0
  159.0330  213.6070  153.6300 C   0  0  1  0  0  0  0  0  0  0  0  0
  160.0680  209.2290  154.7060 C   0  0  0  0  0  0  0  0  0  0  0  0
  159.7460  211.1060  153.1760 C   0  0  0  0  0  0  0  0  0  0  0  0
  159.3370  213.2920  151.7400 C   0  0  1  0  0  3  0  0  0  0  0  0
  158.9550  214.4510  152.4330 N   0  0  0  0  0  2  0  0  0  0  0  0
  159.0020  212.6650  155.8680 C   0  0  0  0  0  3  0  0  0  0  0  0
  162.1730  206.9360  151.7180 C   0  0  2  0  0  3  0  0  0  0  0  0
  161.3490  206.8020  148.5610 C   0  0  0  0  0  2  0  0  0  0  0  0
  160.0290  210.1680  152.0320 C   0  0  0  0  0  2  0  0  0  0  0  0
  159.3560  211.4290  155.6250 N   0  0  0  0  0  0  0  0  0  0  0  0
  161.2770  208.1120  151.2600 C   0  0  1  0  0  3  0  0  0  0  0  0
  162.2520  204.5030  151.5900 C   0  0  0  0  0  2  0  0  0  0  0  0
  159.7080  210.6470  154.4550 C   0  0  0  0  0  0  0  0  0  0  0  0
  158.8330  213.7710  154.9150 C   0  0  0  0  0  2  0  0  0  0  0  0
  161.1540  205.7570  149.6740 C   0  0  2  0  0  3  0  0  0  0  0  0
  160.6990  208.4670  153.7050 C   0  0  0  0  0  0  0  0  0  0  0  0
  159.4280  212.4490  152.8570 N   0  0  0  0  0  0  0  0  0  0  0  0
  161.0840  209.1240  152.4020 C   0  0  2  0  0  3  0  0  0  0  0  0
  160.0840  207.3560  156.1740 C   0  0  0  0  0  3  0  0  0  0  0  0
  162.3310  207.9220  148.9080 C   0  0  0  0  0  2  0  0  0  0  0  0
  159.7820  208.6550  155.9070 N   0  0  0  0  0  0  0  0  0  0  0  0
  161.8360  208.8380  150.0270 C   0  0  0  0  0  2  0  0  0  0  0  0
  162.2860  205.7640  150.7250 C   0  0  1  0  0  3  0  0  0  0  0  0
  160.7090  206.5680  155.2070 C   0  0  0  0  0  3  0  0  0  0  0  0
  161.6620  206.3480  152.9440 N   0  0  0  0  0  0  0  0  0  0  0  0
  161.0200  204.4940  149.0860 O   0  0  0  0  0  0  0  0  0  0  0  0
  160.3780  203.7160  150.0530 C   0  0  0  0  0  2  0  0  0  0  0  0
  161.3960  201.2560  147.9670 O   0  0  0  0  0  0  0  0  0  0  0  0
  160.8190  201.2850  150.1140 C   0  0  0  0  0  3  0  0  0  0  0  0
  160.0110  202.3630  149.4690 C   0  0  2  0  0  3  0  0  0  0  0  0
  161.5820  200.6950  149.2150 C   0  0  0  0  0  3  0  0  0  0  0  0
  160.4450  202.3040  148.0080 C   0  0  0  0  0  2  0  0  0  0  0  0
  1 26  1  0  0  0  0
  2 27  1  0  0  0  0
  3 16  1  6  0  0  0
  4 23  2  0  0  0  0
  5 15  2  0  0  0  0
  6  7  1  1  0  0  0
  6 19  1  0  0  0  0
  6  3  1  0  0  0  0
  7  3  1  0  0  0  0
  9 27  1  1  0  0  0
 10 22  1  0  0  0  0
 10 17  1  0  0  0  0
 11  5  1  0  0  0  0
 12  8  2  0  0  0  0
 13 24  1  6  0  0  0
 13  9  1  0  0  0  0
 13 20  1  0  0  0  0
 14  2  1  0  0  0  0
 15  4  1  0  0  0  0
 15 12  1  0  0  0  0
 16  8  1  0  0  0  0
 17 28  1  6  0  0  0
 17 25  1  0  0  0  0
 18  1  2  0  0  0  0
 18  4  1  0  0  0  0
 19  5  1  0  0  0  0
 19  3  1  0  0  0  0
 20 11  1  6  0  0  0
 20 18  1  0  0  0  0
 22 24  1  0  0  0  0
 23 21  1  0  0  0  0
 25 14  1  1  0  0  0
 25  9  1  0  0  0  0
 26 21  2  0  0  0  0
 27  1  1  0  0  0  0
 28 29  1  0  0  0  0
 30 34  1  0  0  0  0
 30 33  1  0  0  0  0
 32 29  1  1  0  0  0
 32 31  1  0  0  0  0
 33 31  2  0  0  0  0
 34 32  1  0  0  0  0
M  END
>  <MODEL>
5

>  <REMARK>
 VINA RESULT:      -7.1      0.943      1.385
  Name = 
  3 active torsions:
  status: ('A' for Active; 'I' for Inactive)
    1  A    between atoms: C_17  and  O_28
    2  A    between atoms: O_28  and  C_29
    3  A    between atoms: C_29  and  C_32
                            x       y       z     vdW  Elec       q    Type
                         _______ _______ _______ _____ _____    ______ ____

>  <TORSDO>
F 3

$$$$
