=
 OpenBabel11122413033D

 32 37  0  0  1  0  0  0  0  0999 V2000
  160.4700  205.9780  149.0080 C   0  0  0  0  0  2  0  0  0  0  0  0
  161.3400  209.2250  152.7870 C   0  0  2  0  0  3  0  0  0  0  0  0
  161.3350  212.6260  149.2580 C   0  0  0  0  0  2  0  0  0  0  0  0
  160.0490  213.0290  149.6660 O   0  0  0  0  0  0  0  0  0  0  0  0
  159.9930  209.7250  154.9220 C   0  0  1  0  0  3  0  0  0  0  0  0
  158.9460  210.6480  155.5670 C   0  0  1  0  0  3  0  0  0  0  0  0
  161.6890  206.8040  151.9630 C   0  0  2  0  0  3  0  0  0  0  0  0
  162.7140  208.9020  150.8800 C   0  0  0  0  0  2  0  0  0  0  0  0
  159.7880  212.9620  155.3350 C   0  0  2  0  0  3  0  0  0  0  0  0
  162.8400  206.6820  149.6320 C   0  0  0  0  0  2  0  0  0  0  0  0
  161.5220  211.1270  149.5080 C   0  0  0  0  0  2  0  0  0  0  0  0
  161.4170  209.4240  151.3210 N   0  0  2  0  0  0  0  0  0  0  0  0
  161.3770  210.8590  151.0130 C   0  0  2  0  0  3  0  0  0  0  0  0
  159.9350  211.2980  152.9870 C   0  0  1  0  0  3  0  0  0  0  0  0
  159.8390  212.7970  156.8390 C   0  0  0  0  0  2  0  0  0  0  0  0
  160.4270  205.4540  150.3730 N   0  0  0  0  0  2  0  0  0  0  0  0
  162.7530  207.3730  150.9980 C   0  0  2  0  0  3  0  0  0  0  0  0
  159.4830  211.0570  157.2610 S   0  0  0  0  0  0  0  0  0  0  0  0
  160.3270  206.5610  151.3130 C   0  0  0  0  0  2  0  0  0  0  0  0
  161.6100  206.9770  148.7710 C   0  0  1  0  0  3  0  0  0  0  0  0
  160.0090  212.9290  151.0690 C   0  0  0  0  0  2  0  0  0  0  0  0
  160.0490  211.4550  151.4810 C   0  0  1  0  0  3  0  0  0  0  0  0
  158.7130  211.8350  153.4290 O   0  0  0  0  0  0  0  0  0  0  0  0
  161.5190  207.7340  153.1660 C   0  0  0  0  0  2  0  0  0  0  0  0
  159.6800  208.3070  155.3730 C   0  0  0  0  0  1  0  0  0  0  0  0
  159.3980  214.2610  155.0160 O   0  0  0  0  0  1  0  0  0  0  0  0
  160.0330  209.8180  153.3800 C   0  0  1  0  0  3  0  0  0  0  0  0
  158.7570  211.9710  154.8340 C   0  0  1  0  0  3  0  0  0  0  0  0
  161.9700  206.9680  147.3610 N   0  0  0  0  0  2  0  0  0  0  0  0
  162.2080  205.7620  146.6330 C   0  0  0  0  0  0  0  0  0  0  0  0
  162.5380  205.8280  145.2510 N   0  0  0  0  0  1  0  0  0  0  0  0
  162.1340  204.6410  147.2040 O   0  0  0  0  0  0  0  0  0  0  0  0
  1 16  1  0  0  0  0
  2 24  1  6  0  0  0
  2 27  1  0  0  0  0
  3 11  1  0  0  0  0
  3  4  1  0  0  0  0
  4 21  1  0  0  0  0
  5 25  1  6  0  0  0
  5  6  1  0  0  0  0
  6 18  1  1  0  0  0
  7 19  1  6  0  0  0
  7 24  1  0  0  0  0
  8 17  1  0  0  0  0
  9 26  1  1  0  0  0
  9 15  1  0  0  0  0
 12  8  1  1  0  0  0
 12  2  1  0  0  0  0
 13 11  1  6  0  0  0
 13 12  1  0  0  0  0
 13 22  1  0  0  0  0
 14 27  1  0  0  0  0
 14 23  1  6  0  0  0
 15 18  1  0  0  0  0
 16 19  1  0  0  0  0
 17 10  1  6  0  0  0
 17  7  1  0  0  0  0
 20 29  1  6  0  0  0
 20  1  1  0  0  0  0
 20 10  1  0  0  0  0
 22 21  1  1  0  0  0
 22 14  1  0  0  0  0
 23 28  1  0  0  0  0
 27  5  1  0  0  0  0
 28  9  1  0  0  0  0
 28  6  1  0  0  0  0
 30 32  2  0  0  0  0
 30 29  1  0  0  0  0
 31 30  1  0  0  0  0
M  END
>  <MODEL>
1

>  <REMARK>
 VINA RESULT:      -5.0      0.000      0.000
  Name = 
  1 active torsions:
  status: ('A' for Active; 'I' for Inactive)
    1  A    between atoms: C_20  and  N_29
                            x       y       z     vdW  Elec       q    Type
                         _______ _______ _______ _____ _____    ______ ____

>  <TORSDO>
F 1

$$$$
=
 OpenBabel11122413033D

 32 37  0  0  1  0  0  0  0  0999 V2000
  163.0800  204.6360  145.8060 C   0  0  0  0  0  2  0  0  0  0  0  0
  160.7320  206.9630  149.6330 C   0  0  2  0  0  3  0  0  0  0  0  0
  160.2110  202.4450  151.4600 C   0  0  0  0  0  2  0  0  0  0  0  0
  161.2420  202.7130  152.3820 O   0  0  0  0  0  0  0  0  0  0  0  0
  161.5410  208.8070  151.2350 C   0  0  1  0  0  3  0  0  0  0  0  0
  162.1540  209.1030  152.6140 C   0  0  1  0  0  3  0  0  0  0  0  0
  161.2560  207.0610  147.1080 C   0  0  2  0  0  3  0  0  0  0  0  0
  159.8090  205.2670  148.2540 C   0  0  0  0  0  2  0  0  0  0  0  0
  160.6920  208.0280  154.2950 C   0  0  2  0  0  3  0  0  0  0  0  0
  160.5440  204.9020  145.8400 C   0  0  0  0  0  2  0  0  0  0  0  0
  160.4540  203.2150  150.1600 C   0  0  0  0  0  2  0  0  0  0  0  0
  160.8090  205.5220  149.2960 N   0  0  2  0  0  0  0  0  0  0  0  0
  160.4560  204.7180  150.4720 C   0  0  2  0  0  3  0  0  0  0  0  0
  161.3970  206.4370  151.9980 C   0  0  1  0  0  3  0  0  0  0  0  0
  160.4780  209.4880  154.6330 C   0  0  0  0  0  2  0  0  0  0  0  0
  163.0840  206.0990  145.8120 N   0  0  0  0  0  2  0  0  0  0  0  0
  160.2200  205.9280  146.9320 C   0  0  2  0  0  3  0  0  0  0  0  0
  161.2810  210.5190  153.3580 S   0  0  0  0  0  0  0  0  0  0  0  0
  162.7060  206.5780  147.1340 C   0  0  0  0  0  2  0  0  0  0  0  0
  161.7370  204.0250  146.2260 C   0  0  1  0  0  3  0  0  0  0  0  0
  161.1080  204.0580  152.7730 C   0  0  0  0  0  2  0  0  0  0  0  0
  161.4590  204.9740  151.5980 C   0  0  1  0  0  3  0  0  0  0  0  0
  162.3210  206.6870  153.0280 O   0  0  0  0  0  0  0  0  0  0  0  0
  160.9610  207.8500  148.3850 C   0  0  0  0  0  2  0  0  0  0  0  0
  162.2020  209.7480  150.2400 C   0  0  0  0  0  1  0  0  0  0  0  0
  160.7120  207.2710  155.4650 O   0  0  0  0  0  1  0  0  0  0  0  0
  161.6970  207.3360  150.7910 C   0  0  1  0  0  3  0  0  0  0  0  0
  162.0370  207.9460  153.6000 C   0  0  1  0  0  3  0  0  0  0  0  0
  161.6040  202.7050  145.6290 N   0  0  0  0  0  2  0  0  0  0  0  0
  160.9400  201.6240  146.2870 C   0  0  0  0  0  0  0  0  0  0  0  0
  160.8310  200.3640  145.6360 N   0  0  0  0  0  1  0  0  0  0  0  0
  160.4560  201.7740  147.4410 O   0  0  0  0  0  0  0  0  0  0  0  0
  1 16  1  0  0  0  0
  1 20  1  0  0  0  0
  2 24  1  6  0  0  0
  2 27  1  0  0  0  0
  3  4  1  0  0  0  0
  4 21  1  0  0  0  0
  5 25  1  6  0  0  0
  5  6  1  0  0  0  0
  6 18  1  1  0  0  0
  6 28  1  0  0  0  0
  7 19  1  1  0  0  0
  7 24  1  0  0  0  0
  9 15  1  0  0  0  0
  9 26  1  1  0  0  0
 10 20  1  0  0  0  0
 11  3  1  0  0  0  0
 12  8  1  6  0  0  0
 12  2  1  0  0  0  0
 12 13  1  0  0  0  0
 13 11  1  6  0  0  0
 13 22  1  0  0  0  0
 14 23  1  1  0  0  0
 16 19  1  0  0  0  0
 17 10  1  6  0  0  0
 17  7  1  0  0  0  0
 17  8  1  0  0  0  0
 18 15  1  0  0  0  0
 20 29  1  6  0  0  0
 22 14  1  0  0  0  0
 22 21  1  1  0  0  0
 23 28  1  0  0  0  0
 27  5  1  0  0  0  0
 27 14  1  0  0  0  0
 28  9  1  0  0  0  0
 29 30  1  0  0  0  0
 30 32  2  0  0  0  0
 31 30  1  0  0  0  0
M  END
>  <MODEL>
2

>  <REMARK>
 VINA RESULT:      -4.1      3.056      5.806
  Name = 
  1 active torsions:
  status: ('A' for Active; 'I' for Inactive)
    1  A    between atoms: C_20  and  N_29
                            x       y       z     vdW  Elec       q    Type
                         _______ _______ _______ _____ _____    ______ ____

>  <TORSDO>
F 1

$$$$
=
 OpenBabel11122413033D

 32 37  0  0  1  0  0  0  0  0999 V2000
  160.1960  205.4170  148.2240 C   0  0  0  0  0  2  0  0  0  0  0  0
  161.8080  207.9070  152.3200 C   0  0  2  0  0  3  0  0  0  0  0  0
  161.5740  211.8680  149.4430 C   0  0  0  0  0  2  0  0  0  0  0  0
  160.3870  212.2560  150.0960 O   0  0  0  0  0  0  0  0  0  0  0  0
  160.8050  208.0920  154.6820 C   0  0  1  0  0  3  0  0  0  0  0  0
  159.9260  208.9390  155.6180 C   0  0  1  0  0  3  0  0  0  0  0  0
  161.8630  205.6530  151.0640 C   0  0  2  0  0  3  0  0  0  0  0  0
  162.8830  207.8550  150.2050 C   0  0  0  0  0  2  0  0  0  0  0  0
  160.8970  211.2130  155.6520 C   0  0  2  0  0  3  0  0  0  0  0  0
  162.6740  205.8830  148.6020 C   0  0  0  0  0  2  0  0  0  0  0  0
  161.6820  210.3410  149.4110 C   0  0  0  0  0  2  0  0  0  0  0  0
  161.7000  208.3550  150.9120 N   0  0  2  0  0  0  0  0  0  0  0  0
  161.7230  209.8220  150.8560 C   0  0  2  0  0  3  0  0  0  0  0  0
  160.6000  209.9800  153.0650 C   0  0  1  0  0  3  0  0  0  0  0  0
  161.1390  210.7870  157.0830 C   0  0  0  0  0  2  0  0  0  0  0  0
  160.3000  204.6650  149.4740 N   0  0  0  0  0  2  0  0  0  0  0  0
  162.8250  206.3290  150.0610 C   0  0  2  0  0  3  0  0  0  0  0  0
  160.7170  209.0190  157.2590 S   0  0  0  0  0  0  0  0  0  0  0  0
  160.4110  205.5940  150.5900 C   0  0  0  0  0  2  0  0  0  0  0  0
  161.3640  206.3840  147.9920 C   0  0  1  0  0  3  0  0  0  0  0  0
  160.5320  211.9150  151.4530 C   0  0  0  0  0  2  0  0  0  0  0  0
  160.5190  210.3910  151.6050 C   0  0  1  0  0  3  0  0  0  0  0  0
  159.4920  210.4910  153.7640 O   0  0  0  0  0  0  0  0  0  0  0  0
  161.9270  206.3660  152.4160 C   0  0  0  0  0  2  0  0  0  0  0  0
  160.4520  206.6350  154.9330 C   0  0  0  0  0  1  0  0  0  0  0  0
  160.5630  212.5670  155.6130 O   0  0  0  0  0  1  0  0  0  0  0  0
  160.6420  208.4510  153.1880 C   0  0  1  0  0  3  0  0  0  0  0  0
  159.7360  210.3770  155.1500 C   0  0  1  0  0  3  0  0  0  0  0  0
  161.5270  206.6040  146.5620 N   0  0  0  0  0  2  0  0  0  0  0  0
  161.5470  205.5340  145.6140 C   0  0  0  0  0  0  0  0  0  0  0  0
  161.6920  205.8250  144.2290 N   0  0  0  0  0  1  0  0  0  0  0  0
  161.4450  204.3380  145.9930 O   0  0  0  0  0  0  0  0  0  0  0  0
  1 16  1  0  0  0  0
  2 24  1  6  0  0  0
  2 27  1  0  0  0  0
  3  4  1  0  0  0  0
  4 21  1  0  0  0  0
  5 25  1  6  0  0  0
  5  6  1  0  0  0  0
  6 18  1  1  0  0  0
  7 19  1  6  0  0  0
  7 24  1  0  0  0  0
  9 26  1  1  0  0  0
  9 15  1  0  0  0  0
 11  3  1  0  0  0  0
 12  8  1  6  0  0  0
 12  2  1  0  0  0  0
 13 11  1  6  0  0  0
 13 12  1  0  0  0  0
 13 22  1  0  0  0  0
 14 27  1  0  0  0  0
 14 23  1  1  0  0  0
 15 18  1  0  0  0  0
 16 19  1  0  0  0  0
 17 10  1  6  0  0  0
 17  8  1  0  0  0  0
 17  7  1  0  0  0  0
 20 29  1  6  0  0  0
 20  1  1  0  0  0  0
 20 10  1  0  0  0  0
 22 21  1  1  0  0  0
 22 14  1  0  0  0  0
 23 28  1  0  0  0  0
 27  5  1  0  0  0  0
 28  6  1  0  0  0  0
 28  9  1  0  0  0  0
 30 32  2  0  0  0  0
 30 29  1  0  0  0  0
 31 30  1  0  0  0  0
M  END
>  <MODEL>
3

>  <REMARK>
 VINA RESULT:      -4.0      1.303      1.510
  Name = 
  1 active torsions:
  status: ('A' for Active; 'I' for Inactive)
    1  A    between atoms: C_20  and  N_29
                            x       y       z     vdW  Elec       q    Type
                         _______ _______ _______ _____ _____    ______ ____

>  <TORSDO>
F 1

$$$$
=
 OpenBabel11122413033D

 32 37  0  0  1  0  0  0  0  0999 V2000
  163.5560  204.0300  146.5010 C   0  0  0  0  0  2  0  0  0  0  0  0
  160.8240  207.3830  149.1220 C   0  0  2  0  0  3  0  0  0  0  0  0
  160.6060  203.8600  152.5230 C   0  0  0  0  0  2  0  0  0  0  0  0
  161.5620  204.5570  153.2880 O   0  0  0  0  0  0  0  0  0  0  0  0
  161.3880  209.7650  149.9130 C   0  0  1  0  0  3  0  0  0  0  0  0
  161.9030  210.6190  151.0840 C   0  0  1  0  0  3  0  0  0  0  0  0
  161.4650  206.5720  146.7570 C   0  0  2  0  0  3  0  0  0  0  0  0
  160.1230  205.2090  148.4800 C   0  0  0  0  0  2  0  0  0  0  0  0
  160.4560  210.1180  153.0270 C   0  0  2  0  0  3  0  0  0  0  0  0
  161.0080  204.0360  146.3970 C   0  0  0  0  0  2  0  0  0  0  0  0
  160.8460  204.1030  151.0310 C   0  0  0  0  0  2  0  0  0  0  0  0
  161.0430  205.9360  149.3600 N   0  0  2  0  0  0  0  0  0  0  0  0
  160.7020  205.6050  150.7490 C   0  0  2  0  0  3  0  0  0  0  0  0
  161.4120  207.8570  151.5180 C   0  0  1  0  0  3  0  0  0  0  0  0
  160.1000  211.5680  152.7810 C   0  0  0  0  0  2  0  0  0  0  0  0
  163.4320  205.3790  145.9500 N   0  0  0  0  0  2  0  0  0  0  0  0
  160.5410  205.3590  147.0120 C   0  0  2  0  0  3  0  0  0  0  0  0
  160.8740  212.1170  151.2220 S   0  0  0  0  0  0  0  0  0  0  0  0
  162.9480  206.2820  146.9850 C   0  0  0  0  0  2  0  0  0  0  0  0
  162.2510  203.4920  147.1030 C   0  0  1  0  0  3  0  0  0  0  0  0
  161.2920  205.9300  153.1360 C   0  0  0  0  0  2  0  0  0  0  0  0
  161.6210  206.3650  151.7060 C   0  0  1  0  0  3  0  0  0  0  0  0
  162.2580  208.5670  152.3880 O   0  0  0  0  0  0  0  0  0  0  0  0
  161.0380  207.7510  147.6340 C   0  0  0  0  0  2  0  0  0  0  0  0
  162.0140  210.3220  148.6450 C   0  0  0  0  0  1  0  0  0  0  0  0
  160.4820  209.8650  154.3980 O   0  0  0  0  0  1  0  0  0  0  0  0
  161.6940  208.2590  150.0640 C   0  0  1  0  0  3  0  0  0  0  0  0
  161.8370  209.9140  152.4340 C   0  0  1  0  0  3  0  0  0  0  0  0
  162.2640  202.0380  147.0520 N   0  0  0  0  0  2  0  0  0  0  0  0
  161.2440  201.2360  147.6510 C   0  0  0  0  0  0  0  0  0  0  0  0
  161.3110  199.8190  147.5460 N   0  0  0  0  0  1  0  0  0  0  0  0
  160.2900  201.7710  148.2770 O   0  0  0  0  0  0  0  0  0  0  0  0
  1 20  1  0  0  0  0
  2 24  1  6  0  0  0
  2 12  1  0  0  0  0
  2 27  1  0  0  0  0
  3  4  1  0  0  0  0
  5 25  1  6  0  0  0
  5 27  1  0  0  0  0
  5  6  1  0  0  0  0
  6 18  1  1  0  0  0
  6 28  1  0  0  0  0
  7 19  1  1  0  0  0
  7 17  1  0  0  0  0
  7 24  1  0  0  0  0
  9 26  1  1  0  0  0
 10 20  1  0  0  0  0
 11  3  1  0  0  0  0
 12  8  1  6  0  0  0
 12 13  1  0  0  0  0
 13 11  1  6  0  0  0
 13 22  1  0  0  0  0
 14 22  1  0  0  0  0
 14 23  1  1  0  0  0
 15  9  1  0  0  0  0
 16  1  1  0  0  0  0
 16 19  1  0  0  0  0
 17 10  1  1  0  0  0
 17  8  1  0  0  0  0
 18 15  1  0  0  0  0
 20 29  1  6  0  0  0
 21  4  1  0  0  0  0
 22 21  1  1  0  0  0
 23 28  1  0  0  0  0
 27 14  1  0  0  0  0
 28  9  1  0  0  0  0
 29 30  1  0  0  0  0
 30 32  2  0  0  0  0
 31 30  1  0  0  0  0
M  END
>  <MODEL>
4

>  <REMARK>
 VINA RESULT:      -2.4      2.839      5.514
  Name = 
  1 active torsions:
  status: ('A' for Active; 'I' for Inactive)
    1  A    between atoms: C_20  and  N_29
                            x       y       z     vdW  Elec       q    Type
                         _______ _______ _______ _____ _____    ______ ____

>  <TORSDO>
F 1

$$$$
