=
 OpenBabel11122413513D

 37 42  0  0  1  0  0  0  0  0999 V2000
  161.3810  206.4740  148.1280 C   0  0  0  0  0  0  0  0  0  0  0  0
  161.4020  207.0680  152.2770 C   0  0  0  0  0  0  0  0  0  0  0  0
  159.4810  209.8740  152.9120 C   0  0  0  0  0  2  0  0  0  0  0  0
  161.1800  205.4670  150.4880 C   0  0  0  0  0  0  0  0  0  0  0  0
  161.7040  208.5220  152.3780 C   0  0  2  0  0  3  0  0  0  0  0  0
  161.5580  206.7130  150.9710 C   0  0  0  0  0  0  0  0  0  0  0  0
  160.8460  209.3430  153.3690 C   0  0  2  0  0  3  0  0  0  0  0  0
  160.7520  204.5040  151.4150 C   0  0  0  0  0  3  0  0  0  0  0  0
  161.9390  207.8750  150.1520 C   0  0  1  0  0  3  0  0  0  0  0  0
  160.4990  206.4330  146.8990 C   0  0  0  0  0  1  0  0  0  0  0  0
  160.8020  206.4480  154.6880 C   0  0  0  0  0  2  0  0  0  0  0  0
  160.6840  204.8280  152.7880 C   0  0  0  0  0  3  0  0  0  0  0  0
  161.1440  207.8200  148.8490 C   0  0  0  0  0  2  0  0  0  0  0  0
  160.5370  211.7800  151.4790 C   0  0  1  0  0  3  0  0  0  0  0  0
  159.5020  210.6430  151.5810 C   0  0  0  0  0  2  0  0  0  0  0  0
  161.0070  206.1220  153.2390 C   0  0  0  0  0  0  0  0  0  0  0  0
  161.5690  209.0150  150.9920 N   0  0  2  0  0  0  0  0  0  0  0  0
  161.0460  205.2420  149.0040 C   0  0  0  0  0  2  0  0  0  0  0  0
  160.8710  208.9420  154.8500 C   0  0  1  0  0  3  0  0  0  0  0  0
  162.8280  206.3800  147.6700 C   0  0  0  0  0  1  0  0  0  0  0  0
  162.0180  211.3630  151.6080 C   0  0  0  0  0  2  0  0  0  0  0  0
  162.4480  210.1560  150.7540 C   0  0  0  0  0  2  0  0  0  0  0  0
  161.6160  207.6450  155.1560 C   0  0  0  0  0  2  0  0  0  0  0  0
  162.7310  210.0220  156.1200 C   0  0  0  0  0  3  0  0  0  0  0  0
  161.4030  210.0650  155.6810 C   0  0  0  0  0  0  0  0  0  0  0  0
  160.5900  211.1530  156.0370 C   0  0  0  0  0  3  0  0  0  0  0  0
  160.2410  213.3350  157.1980 C   0  0  0  0  0  1  0  0  0  0  0  0
  162.4340  212.1390  157.2580 C   0  0  0  0  0  3  0  0  0  0  0  0
  161.1060  212.1860  156.8230 C   0  0  0  0  0  0  0  0  0  0  0  0
  163.2460  211.0570  156.9060 C   0  0  0  0  0  3  0  0  0  0  0  0
  160.2450  213.9550  147.6780 O   0  0  0  0  0  0  0  0  0  0  0  0
  161.2380  213.2310  147.9530 C   0  0  0  0  0  0  0  0  0  0  0  0
  160.3180  212.5690  150.2310 C   0  0  0  0  0  0  0  0  0  0  0  0
  161.3130  212.5310  149.2020 N   0  0  0  0  0  2  0  0  0  0  0  0
  159.2650  213.2500  150.0890 O   0  0  0  0  0  0  0  0  0  0  0  0
  162.0100  213.0430  145.7150 O   0  0  0  0  0  1  0  0  0  0  0  0
  162.2710  213.1140  147.0270 O   0  0  0  0  0  0  0  0  0  0  0  0
  1 13  1  0  0  0  0
  1 18  1  0  0  0  0
  2 16  1  0  0  0  0
  4  6  1  0  0  0  0
  4  8  2  0  0  0  0
  5  2  1  6  0  0  0
  5  7  1  0  0  0  0
  6  2  2  0  0  0  0
  7  3  1  6  0  0  0
  7 19  1  0  0  0  0
  8 12  1  0  0  0  0
  9 13  1  6  0  0  0
  9  6  1  0  0  0  0
  9 17  1  0  0  0  0
 10  1  1  0  0  0  0
 11 23  1  0  0  0  0
 12 16  2  0  0  0  0
 14 33  1  6  0  0  0
 14 15  1  0  0  0  0
 14 21  1  0  0  0  0
 15  3  1  0  0  0  0
 16 11  1  0  0  0  0
 17 22  1  1  0  0  0
 17  5  1  0  0  0  0
 18  4  1  0  0  0  0
 19 23  1  0  0  0  0
 19 25  1  1  0  0  0
 20  1  1  0  0  0  0
 22 21  1  0  0  0  0
 24 30  1  0  0  0  0
 25 26  1  0  0  0  0
 25 24  2  0  0  0  0
 26 29  2  0  0  0  0
 29 27  1  0  0  0  0
 29 28  1  0  0  0  0
 30 28  2  0  0  0  0
 31 32  2  0  0  0  0
 32 34  1  0  0  0  0
 34 33  1  0  0  0  0
 35 33  2  0  0  0  0
 36 37  1  0  0  0  0
 37 32  1  0  0  0  0
M  END
>  <MODEL>
1

>  <REMARK>
 VINA RESULT:      -4.8      0.000      0.000
  Name = 
  3 active torsions:
  status: ('A' for Active; 'I' for Inactive)
    1  A    between atoms: C_4  and  O_37
    2  A    between atoms: C_8  and  C_18
    3  A    between atoms: C_23  and  C_30
                            x       y       z     vdW  Elec       q    Type
                         _______ _______ _______ _____ _____    ______ ____

>  <TORSDO>
F 3

$$$$
=
 OpenBabel11122413513D

 37 42  0  0  1  0  0  0  0  0999 V2000
  161.3890  206.5210  148.1020 C   0  0  0  0  0  0  0  0  0  0  0  0
  161.4160  207.0920  152.2540 C   0  0  0  0  0  0  0  0  0  0  0  0
  159.4500  209.8610  152.9130 C   0  0  0  0  0  2  0  0  0  0  0  0
  161.2140  205.4970  150.4570 C   0  0  0  0  0  0  0  0  0  0  0  0
  161.6930  208.5500  152.3620 C   0  0  2  0  0  3  0  0  0  0  0  0
  161.5730  206.7470  150.9460 C   0  0  0  0  0  0  0  0  0  0  0  0
  160.8250  209.3500  153.3620 C   0  0  2  0  0  3  0  0  0  0  0  0
  160.8070  204.5220  151.3800 C   0  0  0  0  0  3  0  0  0  0  0  0
  161.9310  207.9190  150.1320 C   0  0  1  0  0  3  0  0  0  0  0  0
  160.5030  206.4720  146.8760 C   0  0  0  0  0  1  0  0  0  0  0  0
  160.8360  206.4480  154.6640 C   0  0  0  0  0  2  0  0  0  0  0  0
  160.7390  204.8360  152.7550 C   0  0  0  0  0  3  0  0  0  0  0  0
  161.1320  207.8590  148.8310 C   0  0  0  0  0  2  0  0  0  0  0  0
  160.4670  211.7920  151.4870 C   0  0  1  0  0  3  0  0  0  0  0  0
  159.4520  210.6370  151.5870 C   0  0  0  0  0  2  0  0  0  0  0  0
  161.0410  206.1330  153.2120 C   0  0  0  0  0  0  0  0  0  0  0  0
  161.5450  209.0480  150.9800 N   0  0  2  0  0  0  0  0  0  0  0  0
  161.0780  205.2780  148.9730 C   0  0  0  0  0  2  0  0  0  0  0  0
  160.8630  208.9410  154.8410 C   0  0  1  0  0  3  0  0  0  0  0  0
  162.8350  206.4540  147.6380 C   0  0  0  0  0  1  0  0  0  0  0  0
  161.9560  211.4000  151.6080 C   0  0  0  0  0  2  0  0  0  0  0  0
  162.4030  210.2050  150.7460 C   0  0  0  0  0  2  0  0  0  0  0  0
  161.6320  207.6550  155.1360 C   0  0  0  0  0  2  0  0  0  0  0  0
  162.7090  210.0430  156.1130 C   0  0  0  0  0  3  0  0  0  0  0  0
  161.3800  210.0680  155.6760 C   0  0  0  0  0  0  0  0  0  0  0  0
  160.5510  211.1420  156.0380 C   0  0  0  0  0  3  0  0  0  0  0  0
  160.1700  213.3130  157.2090 C   0  0  0  0  0  1  0  0  0  0  0  0
  162.3810  212.1500  157.2610 C   0  0  0  0  0  3  0  0  0  0  0  0
  161.0510  212.1790  156.8280 C   0  0  0  0  0  0  0  0  0  0  0  0
  163.2090  211.0830  156.9030 C   0  0  0  0  0  3  0  0  0  0  0  0
  159.3960  214.1840  147.9670 O   0  0  0  0  0  0  0  0  0  0  0  0
  158.5670  213.9450  148.8830 C   0  0  0  0  0  0  0  0  0  0  0  0
  160.2300  212.5850  150.2450 C   0  0  0  0  0  0  0  0  0  0  0  0
  158.9380  213.1600  150.0230 N   0  0  0  0  0  2  0  0  0  0  0  0
  161.1630  212.7480  149.4110 O   0  0  0  0  0  0  0  0  0  0  0  0
  156.4150  214.3530  149.8010 O   0  0  0  0  0  1  0  0  0  0  0  0
  157.2750  214.4530  148.7790 O   0  0  0  0  0  0  0  0  0  0  0  0
  1 13  1  0  0  0  0
  1 18  1  0  0  0  0
  2 16  1  0  0  0  0
  4  6  1  0  0  0  0
  4  8  2  0  0  0  0
  5  2  1  6  0  0  0
  5  7  1  0  0  0  0
  6  2  2  0  0  0  0
  7  3  1  6  0  0  0
  7 19  1  0  0  0  0
  8 12  1  0  0  0  0
  9 13  1  6  0  0  0
  9  6  1  0  0  0  0
  9 17  1  0  0  0  0
 10  1  1  0  0  0  0
 11 23  1  0  0  0  0
 12 16  2  0  0  0  0
 14 33  1  6  0  0  0
 14 15  1  0  0  0  0
 14 21  1  0  0  0  0
 15  3  1  0  0  0  0
 16 11  1  0  0  0  0
 17 22  1  1  0  0  0
 17  5  1  0  0  0  0
 18  4  1  0  0  0  0
 19 23  1  0  0  0  0
 19 25  1  1  0  0  0
 20  1  1  0  0  0  0
 22 21  1  0  0  0  0
 24 30  1  0  0  0  0
 25 26  1  0  0  0  0
 25 24  2  0  0  0  0
 26 29  2  0  0  0  0
 29 27  1  0  0  0  0
 29 28  1  0  0  0  0
 30 28  2  0  0  0  0
 31 32  2  0  0  0  0
 32 34  1  0  0  0  0
 34 33  1  0  0  0  0
 35 33  2  0  0  0  0
 37 32  1  0  0  0  0
 37 36  1  0  0  0  0
M  END
>  <MODEL>
2

>  <REMARK>
 VINA RESULT:      -3.3      1.025      1.644
  Name = 
  3 active torsions:
  status: ('A' for Active; 'I' for Inactive)
    1  A    between atoms: C_4  and  O_37
    2  A    between atoms: C_8  and  C_18
    3  A    between atoms: C_23  and  C_30
                            x       y       z     vdW  Elec       q    Type
                         _______ _______ _______ _____ _____    ______ ____

>  <TORSDO>
F 3

$$$$
=
 OpenBabel11122413513D

 37 42  0  0  1  0  0  0  0  0999 V2000
  159.5620  212.4600  155.8310 C   0  0  0  0  0  0  0  0  0  0  0  0
  160.4650  208.5850  154.5130 C   0  0  0  0  0  0  0  0  0  0  0  0
  162.8190  208.8900  151.9970 C   0  0  0  0  0  2  0  0  0  0  0  0
  160.1100  210.0140  156.4210 C   0  0  0  0  0  0  0  0  0  0  0  0
  160.3790  208.7350  153.0340 C   0  0  2  0  0  3  0  0  0  0  0  0
  160.0010  209.7410  155.0640 C   0  0  0  0  0  0  0  0  0  0  0  0
  161.5200  208.1010  152.2040 C   0  0  2  0  0  3  0  0  0  0  0  0
  160.5900  208.9980  157.2610 C   0  0  0  0  0  3  0  0  0  0  0  0
  159.6140  210.7030  154.0200 C   0  0  1  0  0  3  0  0  0  0  0  0
  160.1630  213.7890  156.2370 C   0  0  0  0  0  1  0  0  0  0  0  0
  161.4590  206.2410  154.7840 C   0  0  0  0  0  2  0  0  0  0  0  0
  160.9770  207.7560  156.7140 C   0  0  0  0  0  3  0  0  0  0  0  0
  160.1130  212.0860  154.4370 C   0  0  0  0  0  2  0  0  0  0  0  0
  161.7480  210.4780  150.2280 C   0  0  1  0  0  3  0  0  0  0  0  0
  162.6270  210.3250  151.4850 C   0  0  0  0  0  2  0  0  0  0  0  0
  160.9230  207.5330  155.3240 C   0  0  0  0  0  0  0  0  0  0  0  0
  160.2910  210.1950  152.8260 N   0  0  2  0  0  0  0  0  0  0  0  0
  159.9080  211.4200  156.9260 C   0  0  0  0  0  2  0  0  0  0  0  0
  161.7460  206.5880  152.3250 C   0  0  1  0  0  3  0  0  0  0  0  0
  158.0530  212.6280  155.7640 C   0  0  0  0  0  1  0  0  0  0  0  0
  160.2830  210.0090  150.3640 C   0  0  0  0  0  2  0  0  0  0  0  0
  159.5360  210.5060  151.6160 C   0  0  0  0  0  2  0  0  0  0  0  0
  160.9180  205.8950  153.4050 C   0  0  0  0  0  2  0  0  0  0  0  0
  161.3280  204.5450  150.9490 C   0  0  0  0  0  3  0  0  0  0  0  0
  161.5430  205.9270  151.0000 C   0  0  0  0  0  0  0  0  0  0  0  0
  161.5770  206.6670  149.8070 C   0  0  0  0  0  3  0  0  0  0  0  0
  161.4320  206.8160  147.3190 C   0  0  0  0  0  1  0  0  0  0  0  0
  161.1790  204.6470  148.5340 C   0  0  0  0  0  3  0  0  0  0  0  0
  161.3950  206.0280  148.5790 C   0  0  0  0  0  0  0  0  0  0  0  0
  161.1450  203.9060  149.7190 C   0  0  0  0  0  3  0  0  0  0  0  0
  162.0690  214.4530  148.3960 O   0  0  0  0  0  0  0  0  0  0  0  0
  162.4300  213.4110  147.7870 C   0  0  0  0  0  0  0  0  0  0  0  0
  161.8070  211.8810  149.7220 C   0  0  0  0  0  0  0  0  0  0  0  0
  162.3180  212.1240  148.4060 N   0  0  0  0  0  2  0  0  0  0  0  0
  161.4020  212.8320  150.4450 O   0  0  0  0  0  0  0  0  0  0  0  0
  162.2220  214.0830  145.5190 O   0  0  0  0  0  1  0  0  0  0  0  0
  162.9430  213.5210  146.4980 O   0  0  0  0  0  0  0  0  0  0  0  0
  1 10  1  0  0  0  0
  1 18  1  0  0  0  0
  2  6  2  0  0  0  0
  2 16  1  0  0  0  0
  4 18  1  0  0  0  0
  4  8  2  0  0  0  0
  5  2  1  1  0  0  0
  6  4  1  0  0  0  0
  7  3  1  1  0  0  0
  7 19  1  0  0  0  0
  7  5  1  0  0  0  0
  9 13  1  1  0  0  0
  9  6  1  0  0  0  0
 11 16  1  0  0  0  0
 12  8  1  0  0  0  0
 13  1  1  0  0  0  0
 14 33  1  1  0  0  0
 14 21  1  0  0  0  0
 14 15  1  0  0  0  0
 15  3  1  0  0  0  0
 16 12  2  0  0  0  0
 17 22  1  6  0  0  0
 17  5  1  0  0  0  0
 17  9  1  0  0  0  0
 19 25  1  6  0  0  0
 19 23  1  0  0  0  0
 20  1  1  0  0  0  0
 21 22  1  0  0  0  0
 23 11  1  0  0  0  0
 24 25  1  0  0  0  0
 26 25  2  0  0  0  0
 27 29  1  0  0  0  0
 28 29  2  0  0  0  0
 28 30  1  0  0  0  0
 29 26  1  0  0  0  0
 30 24  2  0  0  0  0
 32 31  2  0  0  0  0
 32 34  1  0  0  0  0
 33 35  2  0  0  0  0
 34 33  1  0  0  0  0
 36 37  1  0  0  0  0
 37 32  1  0  0  0  0
M  END
>  <MODEL>
3

>  <REMARK>
 VINA RESULT:      -2.1      1.441      6.293
  Name = 
  3 active torsions:
  status: ('A' for Active; 'I' for Inactive)
    1  A    between atoms: C_4  and  O_37
    2  A    between atoms: C_8  and  C_18
    3  A    between atoms: C_23  and  C_30
                            x       y       z     vdW  Elec       q    Type
                         _______ _______ _______ _____ _____    ______ ____

>  <TORSDO>
F 3

$$$$
