=
 OpenBabel11122414393D

 34 42  0  0  1  0  0  0  0  0999 V2000
  161.4540  207.2450  148.6570 C   0  0  2  0  0  3  0  0  0  0  0  0
  161.7910  209.5670  149.1800 O   0  0  0  0  0  0  0  0  0  0  0  0
  161.2480  200.6450  149.8230 C   0  0  2  0  0  3  0  0  0  0  0  0
  160.8680  204.8850  148.2860 C   0  0  1  0  0  3  0  0  0  0  0  0
  161.4830  203.1720  150.1820 C   0  0  2  0  0  3  0  0  0  0  0  0
  161.6330  201.6010  151.9800 O   0  0  0  0  0  1  0  0  0  0  0  0
  162.3330  200.8670  148.9480 O   0  0  0  0  0  0  0  0  0  0  0  0
  160.7240  202.3030  147.8390 C   0  0  1  0  0  3  0  0  0  0  0  0
  162.4060  208.0270  150.8940 C   0  0  2  0  0  3  0  0  0  0  0  0
  160.8430  208.7100  153.6040 C   0  0  0  0  0  2  0  0  0  0  0  0
  161.1380  204.3500  151.0850 C   0  0  0  0  0  2  0  0  0  0  0  0
  159.6560  202.8390  148.5870 O   0  0  0  0  0  0  0  0  0  0  0  0
  161.5390  206.8520  151.3880 C   0  0  1  0  0  3  0  0  0  0  0  0
  162.1360  210.3030  150.3240 C   0  0  0  0  0  2  0  0  0  0  0  0
  160.9190  203.4360  148.7830 C   0  0  2  0  0  0  0  0  0  0  0  0
  161.0510  200.8830  148.3560 C   0  0  2  0  0  3  0  0  0  0  0  0
  160.7750  209.4770  152.2810 C   0  0  2  0  0  3  0  0  0  0  0  0
  161.8220  205.8130  149.0570 C   0  0  2  0  0  3  0  0  0  0  0  0
  161.0060  201.8430  150.7570 C   0  0  2  0  0  3  0  0  0  0  0  0
  161.8910  205.5910  150.5940 C   0  0  2  0  0  3  0  0  0  0  0  0
  160.6910  206.2640  146.5000 C   0  0  0  0  0  2  0  0  0  0  0  0
  160.6400  207.2150  153.3840 C   0  0  0  0  0  2  0  0  0  0  0  0
  161.1400  204.9880  146.9070 O   0  0  0  0  0  0  0  0  0  0  0  0
  161.7570  206.6530  152.7550 O   0  0  0  0  0  0  0  0  0  0  0  0
  162.1170  209.3790  151.5270 C   0  0  1  0  0  3  0  0  0  0  0  0
  161.5390  207.3760  147.1380 C   0  0  0  0  0  2  0  0  0  0  0  0
  162.3150  208.2800  149.3840 C   0  0  1  0  0  3  0  0  0  0  0  0
  160.4610  210.8570  152.5560 N   0  0  0  0  0  0  0  0  0  0  0  0
  159.2680  211.2080  152.8810 C   0  0  0  0  0  3  0  0  0  0  0  0
  156.9510  213.9990  153.3070 C   0  0  0  0  0  2  0  0  0  0  0  0
  158.8300  213.4500  151.8840 C   0  0  0  0  0  2  0  0  0  0  0  0
  158.9320  212.6380  153.1660 C   0  0  0  0  0  3  0  0  0  0  0  0
  157.4590  214.0990  151.8860 C   0  0  0  0  0  2  0  0  0  0  0  0
  157.5950  212.7560  153.8730 C   0  0  0  0  0  2  0  0  0  0  0  0
  1 26  1  6  0  0  0
  1 18  1  0  0  0  0
  1 27  1  0  0  0  0
  2 27  1  0  0  0  0
  2 14  1  0  0  0  0
  3  7  1  6  0  0  0
  3 19  1  0  0  0  0
  4 23  1  6  0  0  0
  4 15  1  0  0  0  0
  4 18  1  0  0  0  0
  5 19  1  0  0  0  0
  5 11  1  1  0  0  0
  8 16  1  0  0  0  0
  8 12  1  1  0  0  0
  8 15  1  0  0  0  0
  9 13  1  0  0  0  0
  9 25  1  0  0  0  0
 12 15  1  0  0  0  0
 13 24  1  0  0  0  0
 14 25  1  0  0  0  0
 15  5  1  0  0  0  0
 16  7  1  0  0  0  0
 16  3  1  0  0  0  0
 17 28  1  0  0  0  0
 17 10  1  0  0  0  0
 18 20  1  0  0  0  0
 19  6  1  0  0  0  0
 20 11  1  0  0  0  0
 20 13  1  0  0  0  0
 21 23  1  0  0  0  0
 21 26  1  0  0  0  0
 22 10  1  0  0  0  0
 24 22  1  0  0  0  0
 25 17  1  0  0  0  0
 27  9  1  0  0  0  0
 28 29  2  0  0  0  0
 29 32  1  0  0  0  0
 30 34  1  0  0  0  0
 31 33  1  0  0  0  0
 31 32  1  0  0  0  0
 32 34  1  0  0  0  0
 33 30  1  0  0  0  0
M  END
>  <MODEL>
1

>  <REMARK>
 VINA RESULT:      -7.4      0.000      0.000
  Name = 
  2 active torsions:
  status: ('A' for Active; 'I' for Inactive)
    1  A    between atoms: C_17  and  N_28
    2  A    between atoms: C_29  and  C_32
                            x       y       z     vdW  Elec       q    Type
                         _______ _______ _______ _____ _____    ______ ____

>  <TORSDO>
F 2

$$$$
=
 OpenBabel11122414393D

 34 42  0  0  1  0  0  0  0  0999 V2000
  161.7030  209.4230  151.3480 C   0  0  2  0  0  3  0  0  0  0  0  0
  161.8420  210.8860  153.2500 O   0  0  0  0  0  0  0  0  0  0  0  0
  161.3490  203.5630  148.1080 C   0  0  2  0  0  3  0  0  0  0  0  0
  161.2850  207.8740  149.4830 C   0  0  1  0  0  3  0  0  0  0  0  0
  161.4270  205.3010  149.9910 C   0  0  2  0  0  3  0  0  0  0  0  0
  161.1440  202.9620  150.4130 O   0  0  0  0  0  1  0  0  0  0  0  0
  162.6180  204.1090  147.8180 O   0  0  0  0  0  0  0  0  0  0  0  0
  161.3180  206.1340  147.5180 C   0  0  1  0  0  3  0  0  0  0  0  0
  162.0290  208.5570  153.7280 C   0  0  2  0  0  3  0  0  0  0  0  0
  159.8060  207.6870  155.8620 C   0  0  0  0  0  2  0  0  0  0  0  0
  160.8360  205.7320  151.3280 C   0  0  0  0  0  2  0  0  0  0  0  0
  160.0820  206.2580  148.1860 O   0  0  0  0  0  0  0  0  0  0  0  0
  161.0900  207.4600  153.1880 C   0  0  1  0  0  3  0  0  0  0  0  0
  161.8640  210.7270  154.6450 C   0  0  0  0  0  2  0  0  0  0  0  0
  161.2380  206.4300  148.9740 C   0  0  2  0  0  0  0  0  0  0  0  0
  161.5320  204.6610  147.1030 C   0  0  2  0  0  3  0  0  0  0  0  0
  160.0640  209.0940  155.3200 C   0  0  2  0  0  3  0  0  0  0  0  0
  161.9870  208.0050  150.8450 C   0  0  2  0  0  3  0  0  0  0  0  0
  160.8480  203.9770  149.5020 C   0  0  2  0  0  3  0  0  0  0  0  0
  161.6620  206.8960  151.8850 C   0  0  2  0  0  3  0  0  0  0  0  0
  161.5430  210.0580  148.9460 C   0  0  0  0  0  2  0  0  0  0  0  0
  159.6990  206.6730  154.7280 C   0  0  0  0  0  2  0  0  0  0  0  0
  161.9000  208.7470  148.5630 O   0  0  0  0  0  0  0  0  0  0  0  0
  160.9520  206.4500  154.1470 O   0  0  0  0  0  0  0  0  0  0  0  0
  161.5560  209.2800  154.9790 C   0  0  1  0  0  3  0  0  0  0  0  0
  162.1730  210.4280  150.2980 C   0  0  0  0  0  2  0  0  0  0  0  0
  162.3250  209.6770  152.7230 C   0  0  1  0  0  3  0  0  0  0  0  0
  159.6590  210.0590  156.3130 N   0  0  0  0  0  0  0  0  0  0  0  0
  158.6640  210.8440  156.1000 C   0  0  0  0  0  3  0  0  0  0  0  0
  156.6970  213.6940  157.2610 C   0  0  0  0  0  2  0  0  0  0  0  0
  159.0380  213.1370  157.0020 C   0  0  0  0  0  2  0  0  0  0  0  0
  158.2380  211.8490  157.1230 C   0  0  0  0  0  3  0  0  0  0  0  0
  158.0330  214.2610  156.8360 C   0  0  0  0  0  2  0  0  0  0  0  0
  156.7760  212.2180  156.9530 C   0  0  0  0  0  2  0  0  0  0  0  0
  1 26  1  6  0  0  0
  1 27  1  0  0  0  0
  2 14  1  0  0  0  0
  3  7  1  1  0  0  0
  3 19  1  0  0  0  0
  4 23  1  6  0  0  0
  4 18  1  0  0  0  0
  5 11  1  1  0  0  0
  8 12  1  6  0  0  0
  8 15  1  0  0  0  0
  9 25  1  0  0  0  0
 11 20  1  0  0  0  0
 12 15  1  0  0  0  0
 13  9  1  0  0  0  0
 13 24  1  0  0  0  0
 14 25  1  0  0  0  0
 15  4  1  0  0  0  0
 15  5  1  0  0  0  0
 16  8  1  0  0  0  0
 16  7  1  0  0  0  0
 16  3  1  0  0  0  0
 17 10  1  0  0  0  0
 17 28  1  0  0  0  0
 18  1  1  0  0  0  0
 18 20  1  0  0  0  0
 19  5  1  0  0  0  0
 19  6  1  0  0  0  0
 20 13  1  0  0  0  0
 21 26  1  0  0  0  0
 22 10  1  0  0  0  0
 23 21  1  0  0  0  0
 24 22  1  0  0  0  0
 25 17  1  0  0  0  0
 27  2  1  0  0  0  0
 27  9  1  0  0  0  0
 29 28  2  0  0  0  0
 29 32  1  0  0  0  0
 31 32  1  0  0  0  0
 33 31  1  0  0  0  0
 33 30  1  0  0  0  0
 34 32  1  0  0  0  0
 34 30  1  0  0  0  0
M  END
>  <MODEL>
2

>  <REMARK>
 VINA RESULT:      -7.2      2.287      3.444
  Name = 
  2 active torsions:
  status: ('A' for Active; 'I' for Inactive)
    1  A    between atoms: C_17  and  N_28
    2  A    between atoms: C_29  and  C_32
                            x       y       z     vdW  Elec       q    Type
                         _______ _______ _______ _____ _____    ______ ____

>  <TORSDO>
F 2

$$$$
=
 OpenBabel11122414393D

 34 42  0  0  1  0  0  0  0  0999 V2000
  160.7130  207.1100  154.0850 C   0  0  2  0  0  3  0  0  0  0  0  0
  161.7210  205.1400  153.1470 O   0  0  0  0  0  0  0  0  0  0  0  0
  159.0640  213.5990  154.4440 C   0  0  2  0  0  3  0  0  0  0  0  0
  159.4880  209.1100  154.8270 C   0  0  1  0  0  3  0  0  0  0  0  0
  159.9960  211.3700  153.5880 C   0  0  2  0  0  3  0  0  0  0  0  0
  160.0810  213.3800  152.2920 O   0  0  0  0  0  1  0  0  0  0  0  0
  159.9830  213.3580  155.4870 O   0  0  0  0  0  0  0  0  0  0  0  0
  158.6110  211.3840  155.8020 C   0  0  1  0  0  3  0  0  0  0  0  0
  162.2400  207.1870  152.0390 C   0  0  2  0  0  3  0  0  0  0  0  0
  161.4460  206.9980  148.9440 C   0  0  0  0  0  2  0  0  0  0  0  0
  160.1400  210.4490  152.3830 C   0  0  0  0  0  2  0  0  0  0  0  0
  157.8770  210.8800  154.7080 O   0  0  0  0  0  0  0  0  0  0  0  0
  161.2120  208.2610  151.6270 C   0  0  1  0  0  3  0  0  0  0  0  0
  162.4530  204.8360  151.9880 C   0  0  0  0  0  2  0  0  0  0  0  0
  159.2630  210.6210  154.7030 C   0  0  2  0  0  0  0  0  0  0  0  0
  158.6590  212.9270  155.7210 C   0  0  2  0  0  3  0  0  0  0  0  0
  161.3240  205.8940  149.9960 C   0  0  2  0  0  3  0  0  0  0  0  0
  160.7750  208.6400  154.1280 C   0  0  2  0  0  3  0  0  0  0  0  0
  159.3160  212.6880  153.2310 C   0  0  2  0  0  3  0  0  0  0  0  0
  161.0760  209.2920  152.7490 C   0  0  2  0  0  3  0  0  0  0  0  0
  159.3310  207.2790  156.1490 C   0  0  0  0  0  2  0  0  0  0  0  0
  160.8310  208.3020  149.4410 C   0  0  0  0  0  2  0  0  0  0  0  0
  159.5100  208.6800  156.1690 O   0  0  0  0  0  0  0  0  0  0  0  0
  161.6290  208.8730  150.4390 O   0  0  0  0  0  0  0  0  0  0  0  0
  162.4290  206.0380  151.0630 C   0  0  1  0  0  3  0  0  0  0  0  0
  160.5380  206.5780  155.5060 C   0  0  0  0  0  2  0  0  0  0  0  0
  161.9310  206.5090  153.3800 C   0  0  1  0  0  3  0  0  0  0  0  0
  161.4290  204.6130  149.3440 N   0  0  0  0  0  0  0  0  0  0  0  0
  161.7690  204.5310  148.1070 C   0  0  0  0  0  3  0  0  0  0  0  0
  160.5590  201.8780  145.9050 C   0  0  0  0  0  2  0  0  0  0  0  0
  161.2050  202.1060  148.2270 C   0  0  0  0  0  2  0  0  0  0  0  0
  161.8790  203.2050  147.4200 C   0  0  0  0  0  3  0  0  0  0  0  0
  160.1920  201.4490  147.3080 C   0  0  0  0  0  2  0  0  0  0  0  0
  161.2060  203.2340  146.0610 C   0  0  0  0  0  2  0  0  0  0  0  0
  1 18  1  0  0  0  0
  1 26  1  1  0  0  0
  2 27  1  0  0  0  0
  3  7  1  1  0  0  0
  3 16  1  0  0  0  0
  4 23  1  1  0  0  0
  5 11  1  6  0  0  0
  5 15  1  0  0  0  0
  6 19  1  0  0  0  0
  7 16  1  0  0  0  0
  8 12  1  6  0  0  0
  9 27  1  0  0  0  0
 10 22  1  0  0  0  0
 10 17  1  0  0  0  0
 11 20  1  0  0  0  0
 13  9  1  0  0  0  0
 13 20  1  0  0  0  0
 14  2  1  0  0  0  0
 15 12  1  0  0  0  0
 15  4  1  0  0  0  0
 15  8  1  0  0  0  0
 16  8  1  0  0  0  0
 17 25  1  0  0  0  0
 18  4  1  0  0  0  0
 19  5  1  0  0  0  0
 19  3  1  0  0  0  0
 20 18  1  0  0  0  0
 21 23  1  0  0  0  0
 22 24  1  0  0  0  0
 24 13  1  0  0  0  0
 25 14  1  0  0  0  0
 25  9  1  0  0  0  0
 26 21  1  0  0  0  0
 27  1  1  0  0  0  0
 28 17  1  0  0  0  0
 29 28  2  0  0  0  0
 30 34  1  0  0  0  0
 30 33  1  0  0  0  0
 32 29  1  0  0  0  0
 32 31  1  0  0  0  0
 33 31  1  0  0  0  0
 34 32  1  0  0  0  0
M  END
>  <MODEL>
3

>  <REMARK>
 VINA RESULT:      -6.8      2.760      9.230
  Name = 
  2 active torsions:
  status: ('A' for Active; 'I' for Inactive)
    1  A    between atoms: C_17  and  N_28
    2  A    between atoms: C_29  and  C_32
                            x       y       z     vdW  Elec       q    Type
                         _______ _______ _______ _____ _____    ______ ____

>  <TORSDO>
F 2

$$$$
=
 OpenBabel11122414393D

 34 42  0  0  1  0  0  0  0  0999 V2000
  161.6580  209.3690  150.6180 C   0  0  2  0  0  3  0  0  0  0  0  0
  161.9290  210.4530  148.4900 O   0  0  0  0  0  0  0  0  0  0  0  0
  160.3980  208.9500  157.1900 C   0  0  2  0  0  3  0  0  0  0  0  0
  161.0940  208.3090  152.7650 C   0  0  1  0  0  3  0  0  0  0  0  0
  160.6670  209.8890  154.8200 C   0  0  2  0  0  3  0  0  0  0  0  0
  159.8800  211.2200  156.6470 O   0  0  0  0  0  1  0  0  0  0  0  0
  161.7710  208.6690  157.0240 O   0  0  0  0  0  0  0  0  0  0  0  0
  160.9400  207.3180  155.1900 C   0  0  1  0  0  3  0  0  0  0  0  0
  161.5980  211.9080  150.3500 C   0  0  2  0  0  3  0  0  0  0  0  0
  159.0720  213.8050  149.8300 C   0  0  0  0  0  2  0  0  0  0  0  0
  160.0650  210.7910  153.7510 C   0  0  0  0  0  2  0  0  0  0  0  0
  159.7020  207.6510  154.6020 O   0  0  0  0  0  0  0  0  0  0  0  0
  160.5050  211.7440  151.4250 C   0  0  1  0  0  3  0  0  0  0  0  0
  161.8010  211.7630  148.0010 C   0  0  0  0  0  2  0  0  0  0  0  0
  160.7980  208.4700  154.2600 C   0  0  2  0  0  0  0  0  0  0  0  0
  160.8840  207.6170  156.7060 C   0  0  2  0  0  3  0  0  0  0  0  0
  159.6550  212.7630  148.8740 C   0  0  2  0  0  3  0  0  0  0  0  0
  161.6900  209.5790  152.1350 C   0  0  2  0  0  3  0  0  0  0  0  0
  159.8750  209.9260  156.1230 C   0  0  2  0  0  3  0  0  0  0  0  0
  161.0600  210.9240  152.5930 C   0  0  2  0  0  3  0  0  0  0  0  0
  161.8350  206.9380  151.1230 C   0  0  0  0  0  2  0  0  0  0  0  0
  158.8580  213.2160  151.2200 C   0  0  0  0  0  2  0  0  0  0  0  0
  161.9490  207.2200  152.5020 O   0  0  0  0  0  0  0  0  0  0  0  0
  160.0850  213.0050  151.8600 O   0  0  0  0  0  0  0  0  0  0  0  0
  161.1780  212.6300  149.0790 C   0  0  1  0  0  3  0  0  0  0  0  0
  162.4100  208.0840  150.2770 C   0  0  0  0  0  2  0  0  0  0  0  0
  162.1990  210.5840  149.8620 C   0  0  1  0  0  3  0  0  0  0  0  0
  159.3730  213.1630  147.5170 N   0  0  0  0  0  0  0  0  0  0  0  0
  158.8750  212.3280  146.6760 C   0  0  0  0  0  3  0  0  0  0  0  0
  159.8180  213.1240  143.2380 C   0  0  0  0  0  2  0  0  0  0  0  0
  158.7140  214.2370  145.0820 C   0  0  0  0  0  2  0  0  0  0  0  0
  158.5800  212.7330  145.2660 C   0  0  0  0  0  3  0  0  0  0  0  0
  159.7030  214.4520  143.9520 C   0  0  0  0  0  2  0  0  0  0  0  0
  159.5460  212.0800  144.2950 C   0  0  0  0  0  2  0  0  0  0  0  0
  1 26  1  1  0  0  0
  1 18  1  0  0  0  0
  2 27  1  0  0  0  0
  3  7  1  6  0  0  0
  4 23  1  1  0  0  0
  4 15  1  0  0  0  0
  5 11  1  6  0  0  0
  5 19  1  0  0  0  0
  8 12  1  6  0  0  0
  8 16  1  0  0  0  0
  9 13  1  0  0  0  0
 10 22  1  0  0  0  0
 13 24  1  0  0  0  0
 13 20  1  0  0  0  0
 14  2  1  0  0  0  0
 14 25  1  0  0  0  0
 15 12  1  0  0  0  0
 15  5  1  0  0  0  0
 15  8  1  0  0  0  0
 16  7  1  0  0  0  0
 16  3  1  0  0  0  0
 17 25  1  0  0  0  0
 17 10  1  0  0  0  0
 18 20  1  0  0  0  0
 18  4  1  0  0  0  0
 19  6  1  0  0  0  0
 19  3  1  0  0  0  0
 20 11  1  0  0  0  0
 21 23  1  0  0  0  0
 22 24  1  0  0  0  0
 25  9  1  0  0  0  0
 26 21  1  0  0  0  0
 27  9  1  0  0  0  0
 27  1  1  0  0  0  0
 28 17  1  0  0  0  0
 29 28  2  0  0  0  0
 30 33  1  0  0  0  0
 30 34  1  0  0  0  0
 31 32  1  0  0  0  0
 32 29  1  0  0  0  0
 33 31  1  0  0  0  0
 34 32  1  0  0  0  0
M  END
>  <MODEL>
4

>  <REMARK>
 VINA RESULT:      -5.7      3.738      7.156
  Name = 
  2 active torsions:
  status: ('A' for Active; 'I' for Inactive)
    1  A    between atoms: C_17  and  N_28
    2  A    between atoms: C_29  and  C_32
                            x       y       z     vdW  Elec       q    Type
                         _______ _______ _______ _____ _____    ______ ____

>  <TORSDO>
F 2

$$$$
=
 OpenBabel11122414393D

 34 42  0  0  1  0  0  0  0  0999 V2000
  161.6050  208.2230  150.6950 C   0  0  2  0  0  3  0  0  0  0  0  0
  161.4460  207.0900  148.5810 O   0  0  0  0  0  0  0  0  0  0  0  0
  160.6190  209.1590  157.2610 C   0  0  2  0  0  3  0  0  0  0  0  0
  161.9550  209.1730  152.9370 C   0  0  1  0  0  3  0  0  0  0  0  0
  160.6280  208.0910  154.9300 C   0  0  2  0  0  3  0  0  0  0  0  0
  159.7890  206.9530  156.8610 O   0  0  0  0  0  1  0  0  0  0  0  0
  159.8520  210.1380  156.5940 O   0  0  0  0  0  0  0  0  0  0  0  0
  161.8760  210.3590  155.2760 C   0  0  1  0  0  3  0  0  0  0  0  0
  160.1900  206.1230  150.3630 C   0  0  2  0  0  3  0  0  0  0  0  0
  161.0300  203.0610  150.7690 C   0  0  0  0  0  2  0  0  0  0  0  0
  160.8640  206.8130  154.1350 C   0  0  0  0  0  2  0  0  0  0  0  0
  162.7600  209.2640  155.1920 O   0  0  0  0  0  0  0  0  0  0  0  0
  160.7280  205.8420  151.7800 C   0  0  1  0  0  3  0  0  0  0  0  0
  160.9010  205.8800  148.1230 C   0  0  0  0  0  2  0  0  0  0  0  0
  161.5810  209.1770  154.4230 C   0  0  2  0  0  0  0  0  0  0  0  0
  161.2370  210.3970  156.6840 C   0  0  2  0  0  3  0  0  0  0  0  0
  161.5570  204.0280  149.7070 C   0  0  2  0  0  3  0  0  0  0  0  0
  160.9570  208.3820  152.0730 C   0  0  2  0  0  3  0  0  0  0  0  0
  160.7510  207.8690  156.4340 C   0  0  2  0  0  3  0  0  0  0  0  0
  160.4430  207.0460  152.6810 C   0  0  2  0  0  3  0  0  0  0  0  0
  162.7910  210.3540  151.1960 C   0  0  0  0  0  2  0  0  0  0  0  0
  161.0890  203.6850  152.1580 C   0  0  0  0  0  2  0  0  0  0  0  0
  162.0860  210.4740  152.4140 O   0  0  0  0  0  0  0  0  0  0  0  0
  160.1210  204.6880  152.2890 O   0  0  0  0  0  0  0  0  0  0  0  0
  160.4700  205.0520  149.3200 C   0  0  1  0  0  3  0  0  0  0  0  0
  161.9550  209.6050  150.1470 C   0  0  0  0  0  2  0  0  0  0  0  0
  160.7210  207.4190  149.7380 C   0  0  1  0  0  3  0  0  0  0  0  0
  161.9620  203.2750  148.5460 N   0  0  0  0  0  0  0  0  0  0  0  0
  161.1250  202.5160  147.9310 C   0  0  0  0  0  3  0  0  0  0  0  0
  160.4560  200.5730  144.9110 C   0  0  0  0  0  2  0  0  0  0  0  0
  161.5810  200.2380  147.0280 C   0  0  0  0  0  2  0  0  0  0  0  0
  161.5370  201.7280  146.7260 C   0  0  0  0  0  3  0  0  0  0  0  0
  160.6820  199.5600  146.0110 C   0  0  0  0  0  2  0  0  0  0  0  0
  160.5560  201.9210  145.5860 C   0  0  0  0  0  2  0  0  0  0  0  0
  1 26  1  6  0  0  0
  1 18  1  0  0  0  0
  2 27  1  0  0  0  0
  3  7  1  6  0  0  0
  4 23  1  6  0  0  0
  4 15  1  0  0  0  0
  5 11  1  6  0  0  0
  5 19  1  0  0  0  0
  7 16  1  0  0  0  0
  8 12  1  1  0  0  0
  8 16  1  0  0  0  0
  9 13  1  0  0  0  0
 10 22  1  0  0  0  0
 13 24  1  0  0  0  0
 13 20  1  0  0  0  0
 14  2  1  0  0  0  0
 14 25  1  0  0  0  0
 15  5  1  0  0  0  0
 15 12  1  0  0  0  0
 15  8  1  0  0  0  0
 16  3  1  0  0  0  0
 17 10  1  0  0  0  0
 18 20  1  0  0  0  0
 18  4  1  0  0  0  0
 19  6  1  0  0  0  0
 19  3  1  0  0  0  0
 20 11  1  0  0  0  0
 21 23  1  0  0  0  0
 22 24  1  0  0  0  0
 25 17  1  0  0  0  0
 25  9  1  0  0  0  0
 26 21  1  0  0  0  0
 27  9  1  0  0  0  0
 27  1  1  0  0  0  0
 28 17  1  0  0  0  0
 29 28  2  0  0  0  0
 30 34  1  0  0  0  0
 30 33  1  0  0  0  0
 32 31  1  0  0  0  0
 32 29  1  0  0  0  0
 33 31  1  0  0  0  0
 34 32  1  0  0  0  0
M  END
>  <MODEL>
5

>  <REMARK>
 VINA RESULT:      -5.5      3.257      8.634
  Name = 
  2 active torsions:
  status: ('A' for Active; 'I' for Inactive)
    1  A    between atoms: C_17  and  N_28
    2  A    between atoms: C_29  and  C_32
                            x       y       z     vdW  Elec       q    Type
                         _______ _______ _______ _____ _____    ______ ____

>  <TORSDO>
F 2

$$$$
=
 OpenBabel11122414393D

 34 42  0  0  1  0  0  0  0  0999 V2000
  161.0770  204.8070  151.3710 C   0  0  2  0  0  3  0  0  0  0  0  0
  160.9830  206.2730  153.2740 O   0  0  0  0  0  0  0  0  0  0  0  0
  160.8280  203.1240  144.8860 C   0  0  2  0  0  3  0  0  0  0  0  0
  161.4290  203.4340  149.3600 C   0  0  1  0  0  3  0  0  0  0  0  0
  160.8380  204.5140  147.0390 C   0  0  2  0  0  3  0  0  0  0  0  0
  160.7120  205.5120  144.8680 O   0  0  0  0  0  1  0  0  0  0  0  0
  159.6940  202.5470  145.4960 O   0  0  0  0  0  0  0  0  0  0  0  0
  161.3160  201.9520  147.1980 C   0  0  1  0  0  3  0  0  0  0  0  0
  160.3900  207.2590  151.1860 C   0  0  2  0  0  3  0  0  0  0  0  0
  162.2310  209.8140  150.6110 C   0  0  0  0  0  2  0  0  0  0  0  0
  161.3560  205.7770  147.7170 C   0  0  0  0  0  2  0  0  0  0  0  0
  162.4860  202.7290  147.3290 O   0  0  0  0  0  0  0  0  0  0  0  0
  161.1950  207.1250  149.8770 C   0  0  1  0  0  3  0  0  0  0  0  0
  160.8000  207.6490  153.4790 C   0  0  0  0  0  2  0  0  0  0  0  0
  161.2990  203.2940  147.8400 C   0  0  2  0  0  0  0  0  0  0  0  0
  160.9170  201.8730  145.7060 C   0  0  2  0  0  3  0  0  0  0  0  0
  162.2500  208.9250  151.8560 C   0  0  2  0  0  3  0  0  0  0  0  0
  160.6260  204.6220  149.9200 C   0  0  2  0  0  3  0  0  0  0  0  0
  161.2490  204.4340  145.5730 C   0  0  2  0  0  3  0  0  0  0  0  0
  160.6710  205.9280  149.0790 C   0  0  2  0  0  3  0  0  0  0  0  0
  161.5670  202.3660  151.3510 C   0  0  0  0  0  2  0  0  0  0  0  0
  162.2890  208.9780  149.3370 C   0  0  0  0  0  2  0  0  0  0  0  0
  161.0490  202.2600  150.0410 O   0  0  0  0  0  0  0  0  0  0  0  0
  161.0790  208.3050  149.1350 O   0  0  0  0  0  0  0  0  0  0  0  0
  160.8450  208.3550  152.1370 C   0  0  1  0  0  3  0  0  0  0  0  0
  160.8740  203.4960  152.1280 C   0  0  0  0  0  2  0  0  0  0  0  0
  160.3710  205.9870  152.0420 C   0  0  1  0  0  3  0  0  0  0  0  0
  162.7010  209.7060  152.9810 N   0  0  0  0  0  0  0  0  0  0  0  0
  161.8570  210.2710  153.7690 C   0  0  0  0  0  3  0  0  0  0  0  0
  162.8420  210.7130  157.2590 C   0  0  0  0  0  2  0  0  0  0  0  0
  161.1380  211.5730  155.7700 C   0  0  0  0  0  2  0  0  0  0  0  0
  162.3150  211.0850  154.9390 C   0  0  0  0  0  3  0  0  0  0  0  0
  161.3810  211.1000  157.1910 C   0  0  0  0  0  2  0  0  0  0  0  0
  163.2000  210.2680  155.8610 C   0  0  0  0  0  2  0  0  0  0  0  0
  1 27  1  0  0  0  0
  1 26  1  1  0  0  0
  2 14  1  0  0  0  0
  3  7  1  1  0  0  0
  3 19  1  0  0  0  0
  3 16  1  0  0  0  0
  4 18  1  0  0  0  0
  4 23  1  1  0  0  0
  5 11  1  1  0  0  0
  5 15  1  0  0  0  0
  6 19  1  0  0  0  0
  7 16  1  0  0  0  0
  8 12  1  6  0  0  0
  8 15  1  0  0  0  0
  9 27  1  0  0  0  0
  9 25  1  0  0  0  0
 10 17  1  0  0  0  0
 11 20  1  0  0  0  0
 12 15  1  0  0  0  0
 13  9  1  0  0  0  0
 15  4  1  0  0  0  0
 16  8  1  0  0  0  0
 17 25  1  0  0  0  0
 17 28  1  0  0  0  0
 18  1  1  0  0  0  0
 19  5  1  0  0  0  0
 20 13  1  0  0  0  0
 20 18  1  0  0  0  0
 21 26  1  0  0  0  0
 22 10  1  0  0  0  0
 23 21  1  0  0  0  0
 24 22  1  0  0  0  0
 24 13  1  0  0  0  0
 25 14  1  0  0  0  0
 27  2  1  0  0  0  0
 28 29  2  0  0  0  0
 29 32  1  0  0  0  0
 31 33  1  0  0  0  0
 32 31  1  0  0  0  0
 32 34  1  0  0  0  0
 33 30  1  0  0  0  0
 34 30  1  0  0  0  0
M  END
>  <MODEL>
6

>  <REMARK>
 VINA RESULT:      -5.4      2.325      4.397
  Name = 
  2 active torsions:
  status: ('A' for Active; 'I' for Inactive)
    1  A    between atoms: C_17  and  N_28
    2  A    between atoms: C_29  and  C_32
                            x       y       z     vdW  Elec       q    Type
                         _______ _______ _______ _____ _____    ______ ____

>  <TORSDO>
F 2

$$$$
=
 OpenBabel11122414393D

 34 42  0  0  1  0  0  0  0  0999 V2000
  161.2260  210.7220  150.7970 C   0  0  2  0  0  3  0  0  0  0  0  0
  162.0570  210.9520  148.5530 O   0  0  0  0  0  0  0  0  0  0  0  0
  158.1900  212.6420  156.4580 C   0  0  2  0  0  3  0  0  0  0  0  0
  160.1080  210.4820  152.9750 C   0  0  1  0  0  3  0  0  0  0  0  0
  159.0900  212.6480  154.0580 C   0  0  2  0  0  3  0  0  0  0  0  0
  157.7950  214.4530  154.9480 O   0  0  0  0  0  1  0  0  0  0  0  0
  159.5600  212.5010  156.7630 O   0  0  0  0  0  0  0  0  0  0  0  0
  159.3040  210.4630  155.4730 C   0  0  1  0  0  3  0  0  0  0  0  0
  161.1890  212.9430  149.5370 C   0  0  2  0  0  3  0  0  0  0  0  0
  158.8680  214.1600  147.6980 C   0  0  0  0  0  2  0  0  0  0  0  0
  158.7910  212.9960  152.6050 C   0  0  0  0  0  2  0  0  0  0  0  0
  158.2730  210.3870  154.5140 O   0  0  0  0  0  0  0  0  0  0  0  0
  159.8420  213.0540  150.2810 C   0  0  1  0  0  3  0  0  0  0  0  0
  162.0420  211.9530  147.5700 C   0  0  0  0  0  2  0  0  0  0  0  0
  159.4020  211.1530  154.1580 C   0  0  2  0  0  0  0  0  0  0  0  0
  158.8210  211.3000  156.6800 C   0  0  2  0  0  3  0  0  0  0  0  0
  159.7170  212.9200  147.4110 C   0  0  2  0  0  3  0  0  0  0  0  0
  160.8280  211.4880  152.0610 C   0  0  2  0  0  3  0  0  0  0  0  0
  157.9650  213.0690  154.9980 C   0  0  2  0  0  3  0  0  0  0  0  0
  160.0660  212.8130  151.7760 C   0  0  2  0  0  3  0  0  0  0  0  0
  161.3080  208.7030  152.2520 C   0  0  0  0  0  2  0  0  0  0  0  0
  158.2870  214.1140  149.1070 C   0  0  0  0  0  2  0  0  0  0  0  0
  161.0260  209.4950  153.3870 O   0  0  0  0  0  0  0  0  0  0  0  0
  159.2900  214.3200  150.0610 O   0  0  0  0  0  0  0  0  0  0  0  0
  161.1240  213.0730  148.0240 C   0  0  1  0  0  3  0  0  0  0  0  0
  162.0710  209.5120  151.1920 C   0  0  0  0  0  2  0  0  0  0  0  0
  161.9300  211.6230  149.7810 C   0  0  1  0  0  3  0  0  0  0  0  0
  159.8160  212.7410  145.9840 N   0  0  0  0  0  0  0  0  0  0  0  0
  160.2230  213.6980  145.2280 C   0  0  0  0  0  3  0  0  0  0  0  0
  160.5860  211.7020  142.1910 C   0  0  0  0  0  2  0  0  0  0  0  0
  161.7790  213.4980  143.2910 C   0  0  0  0  0  2  0  0  0  0  0  0
  160.3270  213.5220  143.7450 C   0  0  0  0  0  3  0  0  0  0  0  0
  161.9740  212.2050  142.5220 C   0  0  0  0  0  2  0  0  0  0  0  0
  159.7030  212.2120  143.3040 C   0  0  0  0  0  2  0  0  0  0  0  0
  1 26  1  1  0  0  0
  1 18  1  0  0  0  0
  2 27  1  0  0  0  0
  3 16  1  0  0  0  0
  3  7  1  6  0  0  0
  4 23  1  1  0  0  0
  4 15  1  0  0  0  0
  5 11  1  6  0  0  0
  5 15  1  0  0  0  0
  5 19  1  0  0  0  0
  6 19  1  0  0  0  0
  8 12  1  6  0  0  0
  8 16  1  0  0  0  0
  9 27  1  0  0  0  0
  9 13  1  0  0  0  0
 10 22  1  0  0  0  0
 13 20  1  0  0  0  0
 14 25  1  0  0  0  0
 14  2  1  0  0  0  0
 15 12  1  0  0  0  0
 15  8  1  0  0  0  0
 16  7  1  0  0  0  0
 17 10  1  0  0  0  0
 17 25  1  0  0  0  0
 18  4  1  0  0  0  0
 19  3  1  0  0  0  0
 20 18  1  0  0  0  0
 20 11  1  0  0  0  0
 21 23  1  0  0  0  0
 22 24  1  0  0  0  0
 24 13  1  0  0  0  0
 25  9  1  0  0  0  0
 26 21  1  0  0  0  0
 27  1  1  0  0  0  0
 28 17  1  0  0  0  0
 29 28  2  0  0  0  0
 30 33  1  0  0  0  0
 30 34  1  0  0  0  0
 31 32  1  0  0  0  0
 32 29  1  0  0  0  0
 33 31  1  0  0  0  0
 34 32  1  0  0  0  0
M  END
>  <MODEL>
7

>  <REMARK>
 VINA RESULT:      -5.3      4.974      8.994
  Name = 
  2 active torsions:
  status: ('A' for Active; 'I' for Inactive)
    1  A    between atoms: C_17  and  N_28
    2  A    between atoms: C_29  and  C_32
                            x       y       z     vdW  Elec       q    Type
                         _______ _______ _______ _____ _____    ______ ____

>  <TORSDO>
F 2

$$$$
=
 OpenBabel11122414393D

 34 42  0  0  1  0  0  0  0  0999 V2000
  160.7330  207.9090  153.8530 C   0  0  2  0  0  3  0  0  0  0  0  0
  161.9230  206.3910  152.4190 O   0  0  0  0  0  0  0  0  0  0  0  0
  158.5890  213.8560  156.0880 C   0  0  2  0  0  3  0  0  0  0  0  0
  159.3320  209.5040  155.0970 C   0  0  1  0  0  3  0  0  0  0  0  0
  159.7190  212.0630  154.6470 C   0  0  2  0  0  3  0  0  0  0  0  0
  159.7060  214.3780  154.0390 O   0  0  0  0  0  1  0  0  0  0  0  0
  159.4800  213.3570  157.0610 O   0  0  0  0  0  0  0  0  0  0  0  0
  158.2480  211.3060  156.6680 C   0  0  1  0  0  3  0  0  0  0  0  0
  162.3310  208.7080  152.0290 C   0  0  2  0  0  3  0  0  0  0  0  0
  161.6800  209.4450  148.9820 C   0  0  0  0  0  2  0  0  0  0  0  0
  159.9810  211.5720  153.2280 C   0  0  0  0  0  2  0  0  0  0  0  0
  157.5990  211.1250  155.4290 O   0  0  0  0  0  0  0  0  0  0  0  0
  161.2440  209.7940  151.9040 C   0  0  1  0  0  3  0  0  0  0  0  0
  162.7220  206.5060  151.2700 C   0  0  0  0  0  2  0  0  0  0  0  0
  159.0000  210.9620  155.4300 C   0  0  2  0  0  0  0  0  0  0  0  0
  158.1840  212.7970  157.0680 C   0  0  2  0  0  3  0  0  0  0  0  0
  161.5980  208.0630  149.6340 C   0  0  2  0  0  3  0  0  0  0  0  0
  160.6780  209.3500  154.3680 C   0  0  2  0  0  3  0  0  0  0  0  0
  158.9580  213.3840  154.6710 C   0  0  2  0  0  3  0  0  0  0  0  0
  160.9850  210.4160  153.2780 C   0  0  2  0  0  3  0  0  0  0  0  0
  159.2590  207.3460  155.7800 C   0  0  0  0  0  2  0  0  0  0  0  0
  160.9500  210.4910  149.8170 C   0  0  0  0  0  2  0  0  0  0  0  0
  159.3310  208.6800  156.2400 O   0  0  0  0  0  0  0  0  0  0  0  0
  161.6610  210.7690  150.9900 O   0  0  0  0  0  0  0  0  0  0  0  0
  162.6450  207.9320  150.7600 C   0  0  1  0  0  3  0  0  0  0  0  0
  160.5400  206.9520  155.0280 C   0  0  0  0  0  2  0  0  0  0  0  0
  162.0200  207.6300  153.0740 C   0  0  1  0  0  3  0  0  0  0  0  0
  161.8260  207.0570  148.6270 N   0  0  0  0  0  0  0  0  0  0  0  0
  160.8510  206.3550  148.1680 C   0  0  0  0  0  3  0  0  0  0  0  0
  162.8490  204.6410  145.6360 C   0  0  0  0  0  2  0  0  0  0  0  0
  160.7410  205.8260  145.7350 C   0  0  0  0  0  2  0  0  0  0  0  0
  161.0770  205.3060  147.1240 C   0  0  0  0  0  3  0  0  0  0  0  0
  161.9770  205.6190  144.8800 C   0  0  0  0  0  2  0  0  0  0  0  0
  162.5290  204.8680  147.0940 C   0  0  0  0  0  2  0  0  0  0  0  0
  1 18  1  0  0  0  0
  1 26  1  1  0  0  0
  2 27  1  0  0  0  0
  3  7  1  1  0  0  0
  3 16  1  0  0  0  0
  4 15  1  0  0  0  0
  4 23  1  1  0  0  0
  5 11  1  6  0  0  0
  5 19  1  0  0  0  0
  5 15  1  0  0  0  0
  6 19  1  0  0  0  0
  7 16  1  0  0  0  0
  8 12  1  6  0  0  0
  8 16  1  0  0  0  0
  9 27  1  0  0  0  0
 10 17  1  0  0  0  0
 10 22  1  0  0  0  0
 11 20  1  0  0  0  0
 12 15  1  0  0  0  0
 13  9  1  0  0  0  0
 13 20  1  0  0  0  0
 14  2  1  0  0  0  0
 15  8  1  0  0  0  0
 17 25  1  0  0  0  0
 18  4  1  0  0  0  0
 19  3  1  0  0  0  0
 20 18  1  0  0  0  0
 21 23  1  0  0  0  0
 22 24  1  0  0  0  0
 24 13  1  0  0  0  0
 25 14  1  0  0  0  0
 25  9  1  0  0  0  0
 26 21  1  0  0  0  0
 27  1  1  0  0  0  0
 28 17  1  0  0  0  0
 29 28  2  0  0  0  0
 30 34  1  0  0  0  0
 31 32  1  0  0  0  0
 32 29  1  0  0  0  0
 33 30  1  0  0  0  0
 33 31  1  0  0  0  0
 34 32  1  0  0  0  0
M  END
>  <MODEL>
8

>  <REMARK>
 VINA RESULT:      -5.3      3.079      9.152
  Name = 
  2 active torsions:
  status: ('A' for Active; 'I' for Inactive)
    1  A    between atoms: C_17  and  N_28
    2  A    between atoms: C_29  and  C_32
                            x       y       z     vdW  Elec       q    Type
                         _______ _______ _______ _____ _____    ______ ____

>  <TORSDO>
F 2

$$$$
