=
 OpenBabel11122412363D

 30 34  0  0  1  0  0  0  0  0999 V2000
  161.7490  209.8660  150.1200 N   0  0  0  0  0  0  0  0  0  0  0  0
  162.0750  211.9710  148.7910 C   0  0  0  0  0  0  0  0  0  0  0  0
  159.5010  211.9510  153.0470 C   0  0  0  0  0  2  0  0  0  0  0  0
  161.6000  209.3110  151.4840 C   0  0  2  0  0  3  0  0  0  0  0  0
  162.1280  208.9830  149.0130 C   0  0  0  0  0  2  0  0  0  0  0  0
  160.4290  205.9300  150.3480 O   0  0  0  0  0  1  0  0  0  0  0  0
  160.6850  207.3030  150.2910 C   0  0  2  0  0  3  0  0  0  0  0  0
  159.4560  210.8900  154.0800 C   0  0  0  0  0  0  0  0  0  0  0  0
  161.1970  207.7680  148.9100 C   0  0  2  0  0  3  0  0  0  0  0  0
  161.5490  207.7760  151.4690 C   0  0  1  0  0  3  0  0  0  0  0  0
  161.8030  213.3310  148.6110 C   0  0  0  0  0  3  0  0  0  0  0  0
  162.9170  211.3430  147.8810 O   0  0  0  0  0  1  0  0  0  0  0  0
  160.1600  211.2940  151.9340 N   0  0  0  0  0  0  0  0  0  0  0  0
  160.9920  214.0160  149.5130 C   0  0  0  0  0  3  0  0  0  0  0  0
  161.5150  211.2750  149.8900 C   0  0  0  0  0  0  0  0  0  0  0  0
  160.3230  209.8590  152.1440 C   0  0  2  0  0  3  0  0  0  0  0  0
  158.9210  211.0380  155.1670 O   0  0  0  0  0  0  0  0  0  0  0  0
  160.1330  209.6280  153.6610 C   0  0  1  0  0  3  0  0  0  0  0  0
  160.4480  213.3450  150.6070 C   0  0  0  0  0  3  0  0  0  0  0  0
  160.7050  211.9820  150.8000 C   0  0  0  0  0  0  0  0  0  0  0  0
  161.2020  208.7670  155.6830 O   0  0  0  0  0  0  0  0  0  0  0  0
  161.4190  209.4740  154.4900 C   0  0  0  0  0  3  0  0  0  0  0  0
  162.0100  210.7170  154.7490 O   0  0  0  0  0  0  0  0  0  0  0  0
  162.1430  209.2870  156.5680 C   0  0  0  0  0  2  0  0  0  0  0  0
  162.7490  210.4910  155.9060 C   0  0  0  0  0  2  0  0  0  0  0  0
  162.9940  205.8330  152.0960 C   0  0  0  0  0  1  0  0  0  0  0  0
  162.9620  207.1980  151.4380 C   0  0  0  0  0  2  0  0  0  0  0  0
  161.9080  206.6510  148.1460 C   0  0  0  0  0  2  0  0  0  0  0  0
  162.1290  205.7370  145.8360 C   0  0  0  0  0  1  0  0  0  0  0  0
  161.1660  206.2970  146.8660 C   0  0  0  0  0  2  0  0  0  0  0  0
  2 15  1  0  0  0  0
  3  8  1  0  0  0  0
  4  1  1  6  0  0  0
  4 16  1  0  0  0  0
  5  1  1  0  0  0  0
  7  6  1  6  0  0  0
  7 10  1  0  0  0  0
  8 17  2  0  0  0  0
  9 28  1  1  0  0  0
  9  5  1  0  0  0  0
  9  7  1  0  0  0  0
 10 27  1  6  0  0  0
 10  4  1  0  0  0  0
 11  2  2  0  0  0  0
 11 14  1  0  0  0  0
 12  2  1  0  0  0  0
 13  3  1  0  0  0  0
 14 19  2  0  0  0  0
 15  1  1  0  0  0  0
 15 20  2  0  0  0  0
 16 13  1  1  0  0  0
 16 18  1  0  0  0  0
 18  8  1  0  0  0  0
 18 22  1  1  0  0  0
 19 20  1  0  0  0  0
 20 13  1  0  0  0  0
 21 24  1  0  0  0  0
 22 23  1  0  0  0  0
 22 21  1  0  0  0  0
 23 25  1  0  0  0  0
 25 24  1  0  0  0  0
 27 26  1  0  0  0  0
 29 30  1  0  0  0  0
 30 28  1  0  0  0  0
M  END
>  <MODEL>
1

>  <REMARK>
 VINA RESULT:      -5.3      0.000      0.000
  Name = 
  4 active torsions:
  status: ('A' for Active; 'I' for Inactive)
    1  A    between atoms: C_9  and  C_22
    2  A    between atoms: C_11  and  C_28
    3  A    between atoms: C_12  and  C_27
    4  A    between atoms: C_28  and  C_30
                            x       y       z     vdW  Elec       q    Type
                         _______ _______ _______ _____ _____    ______ ____

>  <TORSDO>
F 4

$$$$
=
 OpenBabel11122412363D

 30 34  0  0  1  0  0  0  0  0999 V2000
  160.9410  211.4470  151.2030 N   0  0  0  0  0  0  0  0  0  0  0  0
  161.1650  212.8040  149.1030 C   0  0  0  0  0  0  0  0  0  0  0  0
  157.4870  213.6200  152.3510 C   0  0  0  0  0  2  0  0  0  0  0  0
  160.5140  211.4780  152.6200 C   0  0  2  0  0  3  0  0  0  0  0  0
  161.8340  210.3820  150.7370 C   0  0  0  0  0  2  0  0  0  0  0  0
  160.5600  207.7510  153.0690 O   0  0  0  0  0  1  0  0  0  0  0  0
  160.4970  208.9790  152.4040 C   0  0  2  0  0  3  0  0  0  0  0  0
  157.3740  213.1240  153.7430 C   0  0  0  0  0  0  0  0  0  0  0  0
  161.2870  208.9900  151.0770 C   0  0  2  0  0  3  0  0  0  0  0  0
  160.8250  210.1550  153.3360 C   0  0  1  0  0  3  0  0  0  0  0  0
  160.6550  213.7880  148.2510 C   0  0  0  0  0  3  0  0  0  0  0  0
  162.3660  212.1950  148.7610 O   0  0  0  0  0  1  0  0  0  0  0  0
  158.5890  212.8410  151.8170 N   0  0  0  0  0  0  0  0  0  0  0  0
  159.4710  214.4530  148.5640 C   0  0  0  0  0  3  0  0  0  0  0  0
  160.4710  212.4660  150.2900 C   0  0  0  0  0  0  0  0  0  0  0  0
  159.0050  211.7670  152.7140 C   0  0  2  0  0  3  0  0  0  0  0  0
  156.5120  213.5040  154.5200 O   0  0  0  0  0  0  0  0  0  0  0  0
  158.4190  212.1210  154.1000 C   0  0  1  0  0  3  0  0  0  0  0  0
  158.7890  214.1400  149.7380 C   0  0  0  0  0  3  0  0  0  0  0  0
  159.2810  213.1530  150.6020 C   0  0  0  0  0  0  0  0  0  0  0  0
  159.3510  212.1460  156.3590 O   0  0  0  0  0  0  0  0  0  0  0  0
  159.3880  212.7700  155.1020 C   0  0  0  0  0  3  0  0  0  0  0  0
  159.1500  214.1450  155.2220 O   0  0  0  0  0  0  0  0  0  0  0  0
  159.6640  213.1620  157.2580 C   0  0  0  0  0  2  0  0  0  0  0  0
  159.6440  214.4510  156.4860 C   0  0  0  0  0  2  0  0  0  0  0  0
  162.3540  210.5820  155.2690 C   0  0  0  0  0  1  0  0  0  0  0  0
  162.2720  210.1410  153.8210 C   0  0  0  0  0  2  0  0  0  0  0  0
  162.4340  207.9820  151.0720 C   0  0  0  0  0  2  0  0  0  0  0  0
  160.9610  206.8870  149.3820 C   0  0  0  0  0  1  0  0  0  0  0  0
  162.3940  207.1020  149.8310 C   0  0  0  0  0  2  0  0  0  0  0  0
  2 15  1  0  0  0  0
  3  8  1  0  0  0  0
  4  1  1  6  0  0  0
  4 16  1  0  0  0  0
  4 10  1  0  0  0  0
  5  9  1  0  0  0  0
  5  1  1  0  0  0  0
  7  6  1  1  0  0  0
  7 10  1  0  0  0  0
  8 18  1  0  0  0  0
  8 17  2  0  0  0  0
  9 28  1  1  0  0  0
  9  7  1  0  0  0  0
 10 27  1  6  0  0  0
 11 14  1  0  0  0  0
 11  2  2  0  0  0  0
 12  2  1  0  0  0  0
 13  3  1  0  0  0  0
 14 19  2  0  0  0  0
 15 20  2  0  0  0  0
 15  1  1  0  0  0  0
 16 13  1  6  0  0  0
 16 18  1  0  0  0  0
 18 22  1  1  0  0  0
 19 20  1  0  0  0  0
 20 13  1  0  0  0  0
 21 24  1  0  0  0  0
 22 23  1  0  0  0  0
 22 21  1  0  0  0  0
 23 25  1  0  0  0  0
 25 24  1  0  0  0  0
 27 26  1  0  0  0  0
 29 30  1  0  0  0  0
 30 28  1  0  0  0  0
M  END
>  <MODEL>
2

>  <REMARK>
 VINA RESULT:      -5.2      1.996      3.167
  Name = 
  4 active torsions:
  status: ('A' for Active; 'I' for Inactive)
    1  A    between atoms: C_9  and  C_22
    2  A    between atoms: C_11  and  C_28
    3  A    between atoms: C_12  and  C_27
    4  A    between atoms: C_28  and  C_30
                            x       y       z     vdW  Elec       q    Type
                         _______ _______ _______ _____ _____    ______ ____

>  <TORSDO>
F 4

$$$$
=
 OpenBabel11122412363D

 30 34  0  0  1  0  0  0  0  0999 V2000
  159.5260  211.3830  153.2340 N   0  0  0  0  0  0  0  0  0  0  0  0
  157.5420  212.9100  153.0390 C   0  0  0  0  0  0  0  0  0  0  0  0
  160.9570  212.6050  149.4350 C   0  0  0  0  0  2  0  0  0  0  0  0
  160.4680  210.5270  152.4790 C   0  0  2  0  0  3  0  0  0  0  0  0
  159.3770  211.2000  154.6810 C   0  0  0  0  0  2  0  0  0  0  0  0
  162.9060  210.1310  155.3070 O   0  0  0  0  0  1  0  0  0  0  0  0
  161.8810  210.6990  154.5460 C   0  0  2  0  0  3  0  0  0  0  0  0
  162.0060  211.5730  149.2590 C   0  0  0  0  0  0  0  0  0  0  0  0
  160.7270  211.2630  155.4050 C   0  0  2  0  0  3  0  0  0  0  0  0
  161.4190  209.7670  153.4160 C   0  0  1  0  0  3  0  0  0  0  0  0
  156.8550  213.8980  152.3290 C   0  0  0  0  0  3  0  0  0  0  0  0
  156.9840  212.4410  154.2220 O   0  0  0  0  0  1  0  0  0  0  0  0
  160.4700  212.3480  150.7780 N   0  0  0  0  0  0  0  0  0  0  0  0
  157.3540  214.3800  151.1210 C   0  0  0  0  0  3  0  0  0  0  0  0
  158.7630  212.3960  152.5380 C   0  0  0  0  0  0  0  0  0  0  0  0
  161.2920  211.3800  151.4980 C   0  0  2  0  0  3  0  0  0  0  0  0
  162.7000  211.4900  148.2580 O   0  0  0  0  0  0  0  0  0  0  0  0
  162.1260  210.6470  150.4220 C   0  0  1  0  0  3  0  0  0  0  0  0
  158.5460  213.8710  150.6100 C   0  0  0  0  0  3  0  0  0  0  0  0
  159.2520  212.8830  151.3100 C   0  0  0  0  0  0  0  0  0  0  0  0
  162.3380  208.2170  150.5810 O   0  0  0  0  0  0  0  0  0  0  0  0
  161.6110  209.2640  149.9910 C   0  0  0  0  0  3  0  0  0  0  0  0
  161.6000  209.1360  148.5960 O   0  0  0  0  0  0  0  0  0  0  0  0
  162.2740  207.1850  149.6490 C   0  0  0  0  0  2  0  0  0  0  0  0
  161.6850  207.7630  148.3940 C   0  0  0  0  0  2  0  0  0  0  0  0
  161.5590  207.2720  153.5480 C   0  0  0  0  0  1  0  0  0  0  0  0
  160.7500  208.4950  153.9330 C   0  0  0  0  0  2  0  0  0  0  0  0
  160.6090  210.5590  156.7560 C   0  0  0  0  0  2  0  0  0  0  0  0
  160.3540  208.1290  157.2610 C   0  0  0  0  0  1  0  0  0  0  0  0
  159.6810  209.3560  156.6750 C   0  0  0  0  0  2  0  0  0  0  0  0
  1  5  1  0  0  0  0
  2 12  1  0  0  0  0
  3 13  1  0  0  0  0
  4  1  1  1  0  0  0
  4 10  1  0  0  0  0
  5  9  1  0  0  0  0
  7  6  1  1  0  0  0
  7  9  1  0  0  0  0
  8  3  1  0  0  0  0
  8 18  1  0  0  0  0
  9 28  1  1  0  0  0
 10 27  1  1  0  0  0
 10  7  1  0  0  0  0
 11  2  2  0  0  0  0
 13 20  1  0  0  0  0
 14 11  1  0  0  0  0
 15  2  1  0  0  0  0
 15  1  1  0  0  0  0
 16 13  1  6  0  0  0
 16  4  1  0  0  0  0
 17  8  2  0  0  0  0
 18 22  1  6  0  0  0
 18 16  1  0  0  0  0
 19 14  2  0  0  0  0
 19 20  1  0  0  0  0
 20 15  2  0  0  0  0
 22 21  1  0  0  0  0
 23 22  1  0  0  0  0
 24 21  1  0  0  0  0
 25 23  1  0  0  0  0
 25 24  1  0  0  0  0
 26 27  1  0  0  0  0
 30 28  1  0  0  0  0
 30 29  1  0  0  0  0
M  END
>  <MODEL>
3

>  <REMARK>
 VINA RESULT:      -4.6      1.828      6.038
  Name = 
  4 active torsions:
  status: ('A' for Active; 'I' for Inactive)
    1  A    between atoms: C_9  and  C_22
    2  A    between atoms: C_11  and  C_28
    3  A    between atoms: C_12  and  C_27
    4  A    between atoms: C_28  and  C_30
                            x       y       z     vdW  Elec       q    Type
                         _______ _______ _______ _____ _____    ______ ____

>  <TORSDO>
F 4

$$$$
=
 OpenBabel11122412363D

 30 34  0  0  1  0  0  0  0  0999 V2000
  160.0090  211.3920  153.1040 N   0  0  0  0  0  0  0  0  0  0  0  0
  158.7870  213.4120  152.2470 C   0  0  0  0  0  0  0  0  0  0  0  0
  161.7700  210.7320  149.3040 C   0  0  0  0  0  2  0  0  0  0  0  0
  160.5300  210.0550  152.7430 C   0  0  2  0  0  3  0  0  0  0  0  0
  159.8130  211.7400  154.5140 C   0  0  0  0  0  2  0  0  0  0  0  0
  162.6390  209.6700  155.8250 O   0  0  0  0  0  1  0  0  0  0  0  0
  161.9140  210.3150  154.8190 C   0  0  2  0  0  3  0  0  0  0  0  0
  162.3260  209.3810  149.5570 C   0  0  0  0  0  0  0  0  0  0  0  0
  161.0850  211.5100  155.3390 C   0  0  2  0  0  3  0  0  0  0  0  0
  161.1120  209.3250  153.9630 C   0  0  1  0  0  3  0  0  0  0  0  0
  158.5400  214.3120  151.2070 C   0  0  0  0  0  3  0  0  0  0  0  0
  158.1010  213.5830  153.4430 O   0  0  0  0  0  1  0  0  0  0  0  0
  161.2350  211.1100  150.5990 N   0  0  0  0  0  0  0  0  0  0  0  0
  159.1780  214.1670  149.9770 C   0  0  0  0  0  3  0  0  0  0  0  0
  159.7020  212.3470  152.0610 C   0  0  0  0  0  0  0  0  0  0  0  0
  161.6140  210.1810  151.6580 C   0  0  2  0  0  3  0  0  0  0  0  0
  162.9200  208.7340  148.7090 O   0  0  0  0  0  0  0  0  0  0  0  0
  162.0800  208.8910  150.9440 C   0  0  1  0  0  3  0  0  0  0  0  0
  160.0670  213.1130  149.7760 C   0  0  0  0  0  3  0  0  0  0  0  0
  160.3320  212.2040  150.8090 C   0  0  0  0  0  0  0  0  0  0  0  0
  161.4280  206.6530  151.6770 O   0  0  0  0  0  0  0  0  0  0  0  0
  161.0570  207.7450  150.8770 C   0  0  0  0  0  3  0  0  0  0  0  0
  160.8340  207.3390  149.5550 O   0  0  0  0  0  0  0  0  0  0  0  0
  160.8870  205.5480  151.0250 C   0  0  0  0  0  2  0  0  0  0  0  0
  160.3970  206.0250  149.6870 C   0  0  0  0  0  2  0  0  0  0  0  0
  160.3590  207.1810  155.0110 C   0  0  0  0  0  1  0  0  0  0  0  0
  160.0000  208.6300  154.7460 C   0  0  0  0  0  2  0  0  0  0  0  0
  160.7110  211.3630  156.8130 C   0  0  0  0  0  2  0  0  0  0  0  0
  160.2960  213.7830  157.2530 C   0  0  0  0  0  1  0  0  0  0  0  0
  159.6770  212.3980  157.2300 C   0  0  0  0  0  2  0  0  0  0  0  0
  1  5  1  0  0  0  0
  2 12  1  0  0  0  0
  3  8  1  0  0  0  0
  3 13  1  0  0  0  0
  4  1  1  1  0  0  0
  4 10  1  0  0  0  0
  5  9  1  0  0  0  0
  7  9  1  0  0  0  0
  7  6  1  1  0  0  0
  8 18  1  0  0  0  0
  9 28  1  1  0  0  0
 10 27  1  1  0  0  0
 10  7  1  0  0  0  0
 11  2  2  0  0  0  0
 13 20  1  0  0  0  0
 14 11  1  0  0  0  0
 15  2  1  0  0  0  0
 15  1  1  0  0  0  0
 16 13  1  6  0  0  0
 16  4  1  0  0  0  0
 17  8  2  0  0  0  0
 18 22  1  6  0  0  0
 18 16  1  0  0  0  0
 19 14  2  0  0  0  0
 19 20  1  0  0  0  0
 20 15  2  0  0  0  0
 22 21  1  0  0  0  0
 23 25  1  0  0  0  0
 23 22  1  0  0  0  0
 24 21  1  0  0  0  0
 25 24  1  0  0  0  0
 27 26  1  0  0  0  0
 28 30  1  0  0  0  0
 30 29  1  0  0  0  0
M  END
>  <MODEL>
4

>  <REMARK>
 VINA RESULT:      -4.4      1.866      6.116
  Name = 
  4 active torsions:
  status: ('A' for Active; 'I' for Inactive)
    1  A    between atoms: C_9  and  C_22
    2  A    between atoms: C_11  and  C_28
    3  A    between atoms: C_12  and  C_27
    4  A    between atoms: C_28  and  C_30
                            x       y       z     vdW  Elec       q    Type
                         _______ _______ _______ _____ _____    ______ ____

>  <TORSDO>
F 4

$$$$
=
 OpenBabel11122412363D

 30 34  0  0  1  0  0  0  0  0999 V2000
  159.9290  211.7770  152.3140 N   0  0  0  0  0  0  0  0  0  0  0  0
  159.5700  213.2560  150.3170 C   0  0  0  0  0  0  0  0  0  0  0  0
  156.2060  212.9500  153.9690 C   0  0  0  0  0  2  0  0  0  0  0  0
  159.6740  211.6250  153.7640 C   0  0  2  0  0  3  0  0  0  0  0  0
  160.9940  210.9970  151.6780 C   0  0  0  0  0  2  0  0  0  0  0  0
  160.6780  208.0100  153.9070 O   0  0  0  0  0  1  0  0  0  0  0  0
  160.2420  209.2160  153.3520 C   0  0  2  0  0  3  0  0  0  0  0  0
  156.3790  212.3680  155.3210 C   0  0  0  0  0  0  0  0  0  0  0  0
  160.8450  209.4960  151.9570 C   0  0  2  0  0  3  0  0  0  0  0  0
  160.3780  210.3860  154.3370 C   0  0  1  0  0  3  0  0  0  0  0  0
  158.7410  214.1250  149.6010 C   0  0  0  0  0  3  0  0  0  0  0  0
  160.8350  212.9870  149.8100 O   0  0  0  0  0  1  0  0  0  0  0  0
  157.3950  212.5010  153.2670 N   0  0  0  0  0  0  0  0  0  0  0  0
  157.4750  214.4530  150.0820 C   0  0  0  0  0  3  0  0  0  0  0  0
  159.1220  212.6920  151.5370 C   0  0  0  0  0  0  0  0  0  0  0  0
  158.1620  211.5210  154.0300 C   0  0  2  0  0  3  0  0  0  0  0  0
  155.5470  212.4790  156.2070 O   0  0  0  0  0  0  0  0  0  0  0  0
  157.6710  211.6420  155.4910 C   0  0  1  0  0  3  0  0  0  0  0  0
  157.0300  213.9170  151.2900 C   0  0  0  0  0  3  0  0  0  0  0  0
  157.8450  213.0410  152.0180 C   0  0  0  0  0  0  0  0  0  0  0  0
  159.0400  213.6360  155.8410 O   0  0  0  0  0  0  0  0  0  0  0  0
  158.5620  212.4600  156.4400 C   0  0  0  0  0  3  0  0  0  0  0  0
  159.6210  211.6890  156.9360 O   0  0  0  0  0  0  0  0  0  0  0  0
  160.2680  213.8630  156.4560 C   0  0  0  0  0  2  0  0  0  0  0  0
  160.5880  212.6350  157.2600 C   0  0  0  0  0  2  0  0  0  0  0  0
  162.2830  209.9340  155.8960 C   0  0  0  0  0  1  0  0  0  0  0  0
  161.8320  210.7100  154.6740 C   0  0  0  0  0  2  0  0  0  0  0  0
  162.1960  208.8090  151.7580 C   0  0  0  0  0  2  0  0  0  0  0  0
  161.3140  206.7450  150.6710 C   0  0  0  0  0  1  0  0  0  0  0  0
  162.2050  207.9600  150.4960 C   0  0  0  0  0  2  0  0  0  0  0  0
  2 15  1  0  0  0  0
  3  8  1  0  0  0  0
  4  1  1  6  0  0  0
  4 16  1  0  0  0  0
  4 10  1  0  0  0  0
  5  9  1  0  0  0  0
  5  1  1  0  0  0  0
  7  6  1  1  0  0  0
  7 10  1  0  0  0  0
  8 18  1  0  0  0  0
  8 17  2  0  0  0  0
  9 28  1  1  0  0  0
  9  7  1  0  0  0  0
 10 27  1  6  0  0  0
 11 14  1  0  0  0  0
 11  2  2  0  0  0  0
 12  2  1  0  0  0  0
 13  3  1  0  0  0  0
 14 19  2  0  0  0  0
 15 20  2  0  0  0  0
 15  1  1  0  0  0  0
 16 13  1  6  0  0  0
 16 18  1  0  0  0  0
 18 22  1  1  0  0  0
 19 20  1  0  0  0  0
 20 13  1  0  0  0  0
 21 22  1  0  0  0  0
 21 24  1  0  0  0  0
 22 23  1  0  0  0  0
 23 25  1  0  0  0  0
 24 25  1  0  0  0  0
 27 26  1  0  0  0  0
 30 29  1  0  0  0  0
 30 28  1  0  0  0  0
M  END
>  <MODEL>
5

>  <REMARK>
 VINA RESULT:      -4.3      2.355      3.933
  Name = 
  4 active torsions:
  status: ('A' for Active; 'I' for Inactive)
    1  A    between atoms: C_9  and  C_22
    2  A    between atoms: C_11  and  C_28
    3  A    between atoms: C_12  and  C_27
    4  A    between atoms: C_28  and  C_30
                            x       y       z     vdW  Elec       q    Type
                         _______ _______ _______ _____ _____    ______ ____

>  <TORSDO>
F 4

$$$$
=
 OpenBabel11122412363D

 30 34  0  0  1  0  0  0  0  0999 V2000
  158.6300  211.4630  153.6800 N   0  0  0  0  0  0  0  0  0  0  0  0
  156.2690  212.2310  154.0590 C   0  0  0  0  0  0  0  0  0  0  0  0
  159.2080  214.4160  150.6930 C   0  0  0  0  0  2  0  0  0  0  0  0
  159.6990  211.3050  152.6690 C   0  0  2  0  0  3  0  0  0  0  0  0
  158.6990  210.7100  154.9350 C   0  0  0  0  0  2  0  0  0  0  0  0
  162.4320  210.6700  155.1630 O   0  0  0  0  0  1  0  0  0  0  0  0
  161.2080  211.1240  154.6640 C   0  0  2  0  0  3  0  0  0  0  0  0
  160.4940  213.9210  150.1480 C   0  0  0  0  0  0  0  0  0  0  0  0
  160.0380  210.9220  155.6530 C   0  0  2  0  0  3  0  0  0  0  0  0
  160.9290  210.5930  153.2510 C   0  0  1  0  0  3  0  0  0  0  0  0
  155.2440  213.1390  153.7810 C   0  0  0  0  0  3  0  0  0  0  0  0
  156.0100  211.1980  154.9520 O   0  0  0  0  0  1  0  0  0  0  0  0
  158.9700  213.5300  151.8180 N   0  0  0  0  0  0  0  0  0  0  0  0
  155.4420  214.1740  152.8690 C   0  0  0  0  0  3  0  0  0  0  0  0
  157.5270  212.3630  153.4220 C   0  0  0  0  0  0  0  0  0  0  0  0
  160.1170  212.6790  152.1170 C   0  0  2  0  0  3  0  0  0  0  0  0
  161.0680  214.4480  149.2080 O   0  0  0  0  0  0  0  0  0  0  0  0
  161.0110  212.7150  150.8570 C   0  0  1  0  0  3  0  0  0  0  0  0
  156.6700  214.3040  152.2220 C   0  0  0  0  0  3  0  0  0  0  0  0
  157.7110  213.4070  152.4930 C   0  0  0  0  0  0  0  0  0  0  0  0
  161.9770  210.6260  150.0320 O   0  0  0  0  0  0  0  0  0  0  0  0
  160.8930  211.5110  149.9070 C   0  0  0  0  0  3  0  0  0  0  0  0
  160.7400  211.9240  148.5780 O   0  0  0  0  0  0  0  0  0  0  0  0
  162.1110  210.0640  148.7650 C   0  0  0  0  0  2  0  0  0  0  0  0
  161.2150  210.8420  147.8440 C   0  0  0  0  0  2  0  0  0  0  0  0
  161.4980  208.4710  152.0540 C   0  0  0  0  0  1  0  0  0  0  0  0
  160.7340  209.0790  153.2140 C   0  0  0  0  0  2  0  0  0  0  0  0
  160.2830  209.7620  156.6170 C   0  0  0  0  0  2  0  0  0  0  0  0
  160.0110  207.2900  156.8120 C   0  0  0  0  0  1  0  0  0  0  0  0
  159.3910  208.5730  156.2910 C   0  0  0  0  0  2  0  0  0  0  0  0
  1  5  1  0  0  0  0
  2 12  1  0  0  0  0
  3 13  1  0  0  0  0
  4 10  1  0  0  0  0
  4  1  1  1  0  0  0
  5  9  1  0  0  0  0
  7  6  1  1  0  0  0
  7  9  1  0  0  0  0
  8  3  1  0  0  0  0
  8 18  1  0  0  0  0
  9 28  1  6  0  0  0
 10 27  1  1  0  0  0
 10  7  1  0  0  0  0
 11  2  1  0  0  0  0
 13 20  1  0  0  0  0
 14 11  2  0  0  0  0
 15  1  1  0  0  0  0
 15  2  2  0  0  0  0
 16 13  1  6  0  0  0
 16  4  1  0  0  0  0
 17  8  2  0  0  0  0
 18 22  1  6  0  0  0
 18 16  1  0  0  0  0
 19 20  2  0  0  0  0
 19 14  1  0  0  0  0
 20 15  1  0  0  0  0
 22 21  1  0  0  0  0
 23 22  1  0  0  0  0
 24 21  1  0  0  0  0
 25 23  1  0  0  0  0
 25 24  1  0  0  0  0
 26 27  1  0  0  0  0
 30 28  1  0  0  0  0
 30 29  1  0  0  0  0
M  END
>  <MODEL>
6

>  <REMARK>
 VINA RESULT:      -2.7      2.478      6.457
  Name = 
  4 active torsions:
  status: ('A' for Active; 'I' for Inactive)
    1  A    between atoms: C_9  and  C_22
    2  A    between atoms: C_11  and  C_28
    3  A    between atoms: C_12  and  C_27
    4  A    between atoms: C_28  and  C_30
                            x       y       z     vdW  Elec       q    Type
                         _______ _______ _______ _____ _____    ______ ____

>  <TORSDO>
F 4

$$$$
=
 OpenBabel11122412363D

 30 34  0  0  1  0  0  0  0  0999 V2000
  160.8980  210.8250  153.9440 N   0  0  0  0  0  0  0  0  0  0  0  0
  161.8040  210.4620  156.2580 C   0  0  0  0  0  0  0  0  0  0  0  0
  161.0600  206.6690  153.1270 C   0  0  0  0  0  2  0  0  0  0  0  0
  160.9270  210.3390  152.5470 C   0  0  2  0  0  3  0  0  0  0  0  0
  160.4100  212.1770  154.2330 C   0  0  0  0  0  2  0  0  0  0  0  0
  157.9240  212.3020  151.4410 O   0  0  0  0  0  1  0  0  0  0  0  0
  158.8040  211.6540  152.3130 C   0  0  2  0  0  3  0  0  0  0  0  0
  160.8130  206.7270  151.6670 C   0  0  0  0  0  0  0  0  0  0  0  0
  159.0170  212.4190  153.6390 C   0  0  2  0  0  3  0  0  0  0  0  0
  160.1080  211.2430  151.6140 C   0  0  1  0  0  3  0  0  0  0  0  0
  162.2140  209.5780  157.2600 C   0  0  0  0  0  3  0  0  0  0  0  0
  161.8790  211.8260  156.5120 O   0  0  0  0  0  1  0  0  0  0  0  0
  160.9090  208.0530  153.5380 N   0  0  0  0  0  0  0  0  0  0  0  0
  162.1890  208.2020  157.0450 C   0  0  0  0  0  3  0  0  0  0  0  0
  161.3480  209.9610  155.0140 C   0  0  0  0  0  0  0  0  0  0  0  0
  160.3830  208.9010  152.4730 C   0  0  2  0  0  3  0  0  0  0  0  0
  160.7990  205.7380  150.9520 O   0  0  0  0  0  0  0  0  0  0  0  0
  160.5910  208.1120  151.1600 C   0  0  1  0  0  3  0  0  0  0  0  0
  161.7580  207.6980  155.8190 C   0  0  0  0  0  3  0  0  0  0  0  0
  161.3380  208.5680  154.8040 C   0  0  0  0  0  0  0  0  0  0  0  0
  161.4810  209.4610  149.3260 O   0  0  0  0  0  0  0  0  0  0  0  0
  161.8080  208.5160  150.3110 C   0  0  0  0  0  3  0  0  0  0  0  0
  162.4260  207.3960  149.7410 O   0  0  0  0  0  0  0  0  0  0  0  0
  162.3760  209.2030  148.2900 C   0  0  0  0  0  2  0  0  0  0  0  0
  163.0710  207.9140  148.6230 C   0  0  0  0  0  2  0  0  0  0  0  0
  160.7570  212.6960  149.6830 C   0  0  0  0  0  1  0  0  0  0  0  0
  160.9430  212.4400  151.1650 C   0  0  0  0  0  2  0  0  0  0  0  0
  158.7860  213.9220  153.4880 C   0  0  0  0  0  2  0  0  0  0  0  0
  156.8230  213.2660  154.8810 C   0  0  0  0  0  1  0  0  0  0  0  0
  157.7110  214.4160  154.4450 C   0  0  0  0  0  2  0  0  0  0  0  0
  1  5  1  0  0  0  0
  1 15  1  0  0  0  0
  2 12  1  0  0  0  0
  2 11  1  0  0  0  0
  3 13  1  0  0  0  0
  4  1  1  1  0  0  0
  7  6  1  6  0  0  0
  7  9  1  0  0  0  0
  8  3  1  0  0  0  0
  9 28  1  6  0  0  0
  9  5  1  0  0  0  0
 10 27  1  1  0  0  0
 10  7  1  0  0  0  0
 10  4  1  0  0  0  0
 13 20  1  0  0  0  0
 14 11  2  0  0  0  0
 15  2  2  0  0  0  0
 16  4  1  0  0  0  0
 16 13  1  1  0  0  0
 17  8  2  0  0  0  0
 18 22  1  1  0  0  0
 18  8  1  0  0  0  0
 18 16  1  0  0  0  0
 19 14  1  0  0  0  0
 20 15  1  0  0  0  0
 20 19  2  0  0  0  0
 21 22  1  0  0  0  0
 23 22  1  0  0  0  0
 24 25  1  0  0  0  0
 24 21  1  0  0  0  0
 25 23  1  0  0  0  0
 26 27  1  0  0  0  0
 28 30  1  0  0  0  0
 30 29  1  0  0  0  0
M  END
>  <MODEL>
7

>  <REMARK>
 VINA RESULT:      -2.4      1.990      6.985
  Name = 
  4 active torsions:
  status: ('A' for Active; 'I' for Inactive)
    1  A    between atoms: C_9  and  C_22
    2  A    between atoms: C_11  and  C_28
    3  A    between atoms: C_12  and  C_27
    4  A    between atoms: C_28  and  C_30
                            x       y       z     vdW  Elec       q    Type
                         _______ _______ _______ _____ _____    ______ ____

>  <TORSDO>
F 4

$$$$
