=
 OpenBabel11122414033D

 28 32  0  0  1  0  0  0  0  0999 V2000
  157.8770  212.6890  154.8930 C   0  0  0  0  0  0  0  0  0  0  0  0
  160.3010  211.4800  156.8880 O   0  0  0  0  0  0  0  0  0  0  0  0
  161.8340  211.6870  150.2280 O   0  0  0  0  0  0  0  0  0  0  0  0
  155.8220  210.7950  155.1270 C   0  0  0  0  0  3  0  0  0  0  0  0
  161.4950  209.6770  151.4490 C   0  0  1  0  0  3  0  0  0  0  0  0
  158.9230  213.7510  154.7270 C   0  0  0  0  0  2  0  0  0  0  0  0
  161.0340  209.1730  157.2610 O   0  0  0  0  0  0  0  0  0  0  0  0
  160.9620  210.2870  156.2560 S   0  0  0  0  0  0  0  0  0  0  0  0
  162.6880  210.4760  154.3310 C   0  0  1  0  0  3  0  0  0  0  0  0
  160.0230  209.7280  154.8350 C   0  0  2  0  0  3  0  0  0  0  0  0
  158.6230  214.2600  151.2030 O   0  0  0  0  0  0  0  0  0  0  0  0
  159.4330  210.4880  152.5760 C   0  0  2  0  0  3  0  0  0  0  0  0
  162.3400  209.0900  154.0200 N   0  0  0  0  0  2  0  0  0  0  0  0
  162.5700  210.7100  155.7650 N   0  0  0  0  0  2  0  0  0  0  0  0
  159.1440  213.8700  152.2810 C   0  0  0  0  0  0  0  0  0  0  0  0
  158.1200  211.3430  154.5440 C   0  0  0  0  0  0  0  0  0  0  0  0
  161.1470  211.0490  151.0100 C   0  0  0  0  0  0  0  0  0  0  0  0
  164.1100  210.7500  153.8920 C   0  0  0  0  0  1  0  0  0  0  0  0
  160.1400  212.8490  152.2630 N   0  0  0  0  0  2  0  0  0  0  0  0
  157.0800  210.4050  154.6620 C   0  0  0  0  0  3  0  0  0  0  0  0
  156.6110  213.0710  155.3510 C   0  0  0  0  0  3  0  0  0  0  0  0
  155.5890  212.1280  155.4720 C   0  0  0  0  0  3  0  0  0  0  0  0
  158.7300  214.4290  153.4900 O   0  0  0  0  0  0  0  0  0  0  0  0
  160.3900  209.2990  152.4340 C   0  0  2  0  0  3  0  0  0  0  0  0
  159.8930  211.5800  151.5910 C   0  0  2  0  0  3  0  0  0  0  0  0
  160.8830  208.9330  153.8430 C   0  0  2  0  0  3  0  0  0  0  0  0
  161.4670  208.7240  150.2680 C   0  0  0  0  0  1  0  0  0  0  0  0
  159.4700  210.9050  154.0480 C   0  0  1  0  0  3  0  0  0  0  0  0
  1 21  1  0  0  0  0
  3 17  2  0  0  0  0
  4 22  1  0  0  0  0
  5 27  1  6  0  0  0
  5 24  1  0  0  0  0
  6  1  1  0  0  0  0
  8  2  2  0  0  0  0
  8  7  2  0  0  0  0
  9 18  1  1  0  0  0
  9 14  1  0  0  0  0
 10  8  1  1  0  0  0
 11 15  2  0  0  0  0
 12 28  1  0  0  0  0
 13  9  1  0  0  0  0
 14  8  1  0  0  0  0
 15 23  1  0  0  0  0
 16 20  1  0  0  0  0
 16  1  2  0  0  0  0
 17  5  1  0  0  0  0
 17 25  1  0  0  0  0
 19 15  1  0  0  0  0
 20  4  2  0  0  0  0
 21 22  2  0  0  0  0
 23  6  1  0  0  0  0
 24 12  1  0  0  0  0
 24 26  1  0  0  0  0
 25 19  1  0  0  0  0
 25 12  1  0  0  0  0
 26 13  1  0  0  0  0
 26 10  1  0  0  0  0
 28 16  1  0  0  0  0
 28 10  1  0  0  0  0
M  END
>  <MODEL>
1

>  <REMARK>
 VINA RESULT:      -0.4      0.000      0.000
  Name = 
  0 active torsions:
  status: ('A' for Active; 'I' for Inactive)
                            x       y       z     vdW  Elec       q    Type
                         _______ _______ _______ _____ _____    ______ ____

>  <TORSDO>
F 0

$$$$
=
 OpenBabel11122414033D

 28 32  0  0  1  0  0  0  0  0999 V2000
  158.5670  213.6740  152.0870 C   0  0  0  0  0  0  0  0  0  0  0  0
  159.5420  214.0040  155.2910 O   0  0  0  0  0  0  0  0  0  0  0  0
  162.5810  208.9570  151.8180 O   0  0  0  0  0  0  0  0  0  0  0  0
  155.8730  212.9220  152.2920 C   0  0  0  0  0  3  0  0  0  0  0  0
  161.0350  208.6070  153.5890 C   0  0  1  0  0  3  0  0  0  0  0  0
  159.9960  214.0850  151.8960 C   0  0  0  0  0  2  0  0  0  0  0  0
  158.9700  212.6680  157.2600 O   0  0  0  0  0  0  0  0  0  0  0  0
  159.6880  212.6580  155.9420 S   0  0  0  0  0  0  0  0  0  0  0  0
  161.7100  211.0900  155.5230 C   0  0  1  0  0  3  0  0  0  0  0  0
  158.9810  211.3790  154.9050 C   0  0  2  0  0  3  0  0  0  0  0  0
  160.8570  211.8430  149.2520 O   0  0  0  0  0  0  0  0  0  0  0  0
  159.4040  210.2830  152.7480 C   0  0  2  0  0  3  0  0  0  0  0  0
  160.8330  210.0080  155.9680 N   0  0  0  0  0  2  0  0  0  0  0  0
  161.3680  212.3260  156.2150 N   0  0  0  0  0  2  0  0  0  0  0  0
  160.8440  212.3110  150.4200 C   0  0  0  0  0  0  0  0  0  0  0  0
  158.2160  212.5000  152.7900 C   0  0  0  0  0  0  0  0  0  0  0  0
  161.5040  209.2260  152.3270 C   0  0  0  0  0  0  0  0  0  0  0  0
  163.1500  210.7290  155.8210 C   0  0  0  0  0  1  0  0  0  0  0  0
  161.2020  211.4830  151.5250 N   0  0  0  0  0  2  0  0  0  0  0  0
  156.8630  212.1340  152.8810 C   0  0  0  0  0  3  0  0  0  0  0  0
  157.5670  214.4530  151.4950 C   0  0  0  0  0  3  0  0  0  0  0  0
  156.2260  214.0830  151.6000 C   0  0  0  0  0  3  0  0  0  0  0  0
  160.4620  213.6360  150.6280 O   0  0  0  0  0  0  0  0  0  0  0  0
  159.6790  209.2580  153.8540 C   0  0  2  0  0  3  0  0  0  0  0  0
  160.5550  210.1940  151.7280 C   0  0  2  0  0  3  0  0  0  0  0  0
  159.5730  209.9930  155.2010 C   0  0  2  0  0  3  0  0  0  0  0  0
  160.8490  207.1120  153.4030 C   0  0  0  0  0  1  0  0  0  0  0  0
  159.2690  211.6440  153.4360 C   0  0  1  0  0  3  0  0  0  0  0  0
  1 16  1  0  0  0  0
  2  8  2  0  0  0  0
  3 17  2  0  0  0  0
  4 20  1  0  0  0  0
  5 27  1  6  0  0  0
  5 24  1  0  0  0  0
  6  1  1  0  0  0  0
  8 14  1  0  0  0  0
  8  7  2  0  0  0  0
  9 18  1  1  0  0  0
  9 13  1  0  0  0  0
  9 14  1  0  0  0  0
 10 26  1  0  0  0  0
 10  8  1  1  0  0  0
 11 15  2  0  0  0  0
 12 28  1  0  0  0  0
 12 24  1  0  0  0  0
 15 23  1  0  0  0  0
 15 19  1  0  0  0  0
 16 20  2  0  0  0  0
 16 28  1  0  0  0  0
 17  5  1  0  0  0  0
 19 25  1  0  0  0  0
 21 22  1  0  0  0  0
 21  1  2  0  0  0  0
 22  4  2  0  0  0  0
 23  6  1  0  0  0  0
 24 26  1  0  0  0  0
 25 17  1  0  0  0  0
 25 12  1  0  0  0  0
 26 13  1  0  0  0  0
 28 10  1  0  0  0  0
M  END
>  <MODEL>
2

>  <REMARK>
 VINA RESULT:       0.7      1.969      2.792
  Name = 
  0 active torsions:
  status: ('A' for Active; 'I' for Inactive)
                            x       y       z     vdW  Elec       q    Type
                         _______ _______ _______ _____ _____    ______ ____

>  <TORSDO>
F 0

$$$$
=
 OpenBabel11122414033D

 28 32  0  0  1  0  0  0  0  0999 V2000
  159.0610  213.1870  152.0320 C   0  0  0  0  0  0  0  0  0  0  0  0
  159.7420  214.4530  155.0740 O   0  0  0  0  0  0  0  0  0  0  0  0
  161.9330  208.0630  154.0120 O   0  0  0  0  0  0  0  0  0  0  0  0
  156.2610  213.0320  151.9930 C   0  0  0  0  0  3  0  0  0  0  0  0
  160.1700  208.6310  155.5010 C   0  0  1  0  0  3  0  0  0  0  0  0
  160.5580  213.2520  151.9710 C   0  0  0  0  0  2  0  0  0  0  0  0
  158.6820  214.0180  157.2380 O   0  0  0  0  0  0  0  0  0  0  0  0
  159.5150  213.4200  156.1410 S   0  0  0  0  0  0  0  0  0  0  0  0
  161.1720  211.4820  156.6130 C   0  0  1  0  0  3  0  0  0  0  0  0
  158.6550  211.9990  155.4670 C   0  0  2  0  0  3  0  0  0  0  0  0
  161.1730  210.1080  150.3890 O   0  0  0  0  0  0  0  0  0  0  0  0
  159.0500  210.1570  153.8900 C   0  0  2  0  0  3  0  0  0  0  0  0
  160.0350  210.7950  157.2240 N   0  0  0  0  0  2  0  0  0  0  0  0
  161.0410  212.9220  156.7970 N   0  0  0  0  0  2  0  0  0  0  0  0
  161.1420  210.9540  151.3220 C   0  0  0  0  0  0  0  0  0  0  0  0
  158.3860  212.4160  153.0030 C   0  0  0  0  0  0  0  0  0  0  0  0
  160.8950  208.6760  154.2090 C   0  0  0  0  0  0  0  0  0  0  0  0
  162.4560  211.0070  157.2600 C   0  0  0  0  0  1  0  0  0  0  0  0
  161.1880  210.5200  152.6800 N   0  0  0  0  0  2  0  0  0  0  0  0
  156.9840  212.3440  152.9700 C   0  0  0  0  0  3  0  0  0  0  0  0
  158.3270  213.8670  151.0530 C   0  0  0  0  0  3  0  0  0  0  0  0
  156.9330  213.7940  151.0360 C   0  0  0  0  0  3  0  0  0  0  0  0
  161.0430  212.3120  151.0190 O   0  0  0  0  0  0  0  0  0  0  0  0
  158.9730  209.5580  155.2990 C   0  0  2  0  0  3  0  0  0  0  0  0
  160.2530  209.5170  153.1730 C   0  0  2  0  0  3  0  0  0  0  0  0
  158.8900  210.7270  156.2940 C   0  0  2  0  0  3  0  0  0  0  0  0
  159.6780  207.2230  155.7790 C   0  0  0  0  0  1  0  0  0  0  0  0
  159.1490  211.6750  154.0660 C   0  0  1  0  0  3  0  0  0  0  0  0
  1 16  1  0  0  0  0
  2  8  2  0  0  0  0
  3 17  2  0  0  0  0
  4 20  1  0  0  0  0
  5 27  1  6  0  0  0
  6  1  1  0  0  0  0
  8 14  1  0  0  0  0
  8  7  2  0  0  0  0
  9 14  1  0  0  0  0
  9 13  1  0  0  0  0
  9 18  1  1  0  0  0
 10  8  1  1  0  0  0
 10 26  1  0  0  0  0
 11 15  2  0  0  0  0
 12 28  1  0  0  0  0
 12 24  1  0  0  0  0
 15 19  1  0  0  0  0
 16 28  1  0  0  0  0
 17  5  1  0  0  0  0
 19 25  1  0  0  0  0
 20 16  2  0  0  0  0
 21  1  2  0  0  0  0
 22 21  1  0  0  0  0
 22  4  2  0  0  0  0
 23 15  1  0  0  0  0
 23  6  1  0  0  0  0
 24  5  1  0  0  0  0
 24 26  1  0  0  0  0
 25 12  1  0  0  0  0
 25 17  1  0  0  0  0
 26 13  1  0  0  0  0
 28 10  1  0  0  0  0
M  END
>  <MODEL>
3

>  <REMARK>
 VINA RESULT:       1.5      2.219      3.752
  Name = 
  0 active torsions:
  status: ('A' for Active; 'I' for Inactive)
                            x       y       z     vdW  Elec       q    Type
                         _______ _______ _______ _____ _____    ______ ____

>  <TORSDO>
F 0

$$$$
=
 OpenBabel11122414033D

 28 32  0  0  1  0  0  0  0  0999 V2000
  158.9700  211.9350  152.3700 C   0  0  0  0  0  0  0  0  0  0  0  0
  156.7320  212.3500  149.8910 O   0  0  0  0  0  0  0  0  0  0  0  0
  163.1960  211.4120  147.8640 O   0  0  0  0  0  0  0  0  0  0  0  0
  158.9540  214.4080  153.6940 C   0  0  0  0  0  3  0  0  0  0  0  0
  162.0180  213.4640  147.6370 C   0  0  1  0  0  3  0  0  0  0  0  0
  159.0250  210.5830  151.7230 C   0  0  0  0  0  2  0  0  0  0  0  0
  156.2880  214.2980  148.4760 O   0  0  0  0  0  0  0  0  0  0  0  0
  157.2930  213.2350  148.8140 S   0  0  0  0  0  0  0  0  0  0  0  0
  159.0270  212.4200  147.0660 C   0  0  1  0  0  3  0  0  0  0  0  0
  158.8050  214.0210  149.3690 C   0  0  2  0  0  3  0  0  0  0  0  0
  162.5600  210.0760  151.8260 O   0  0  0  0  0  0  0  0  0  0  0  0
  161.1130  213.4170  149.9520 C   0  0  2  0  0  3  0  0  0  0  0  0
  159.3740  213.8310  146.9030 N   0  0  0  0  0  2  0  0  0  0  0  0
  157.6130  212.2900  147.3960 N   0  0  0  0  0  2  0  0  0  0  0  0
  161.4330  210.3110  151.3140 C   0  0  0  0  0  0  0  0  0  0  0  0
  159.2930  213.1140  151.6620 C   0  0  0  0  0  0  0  0  0  0  0  0
  162.4900  212.2690  148.3750 C   0  0  0  0  0  0  0  0  0  0  0  0
  159.3130  211.6770  145.7790 C   0  0  0  0  0  1  0  0  0  0  0  0
  161.3480  210.9460  150.0400 N   0  0  0  0  0  2  0  0  0  0  0  0
  159.2850  214.3450  152.3380 C   0  0  0  0  0  3  0  0  0  0  0  0
  158.6470  212.0090  153.7290 C   0  0  0  0  0  3  0  0  0  0  0  0
  158.6340  213.2390  154.3880 C   0  0  0  0  0  3  0  0  0  0  0  0
  160.2740  209.9640  152.0070 O   0  0  0  0  0  0  0  0  0  0  0  0
  161.1550  214.2200  148.6460 C   0  0  2  0  0  3  0  0  0  0  0  0
  162.0430  212.2010  149.7850 C   0  0  2  0  0  3  0  0  0  0  0  0
  159.7020  214.4530  148.2010 C   0  0  2  0  0  3  0  0  0  0  0  0
  163.1960  214.3300  147.2320 C   0  0  0  0  0  1  0  0  0  0  0  0
  159.6450  213.0650  150.2010 C   0  0  1  0  0  3  0  0  0  0  0  0
  1 21  1  0  0  0  0
  3 17  2  0  0  0  0
  4 22  1  0  0  0  0
  5 27  1  1  0  0  0
  5 17  1  0  0  0  0
  5 24  1  0  0  0  0
  6 23  1  0  0  0  0
  6  1  1  0  0  0  0
  7  8  2  0  0  0  0
  8  2  2  0  0  0  0
  9 18  1  6  0  0  0
  9 14  1  0  0  0  0
 10  8  1  6  0  0  0
 10 28  1  0  0  0  0
 12 28  1  0  0  0  0
 13  9  1  0  0  0  0
 13 26  1  0  0  0  0
 14  8  1  0  0  0  0
 15 11  2  0  0  0  0
 15 23  1  0  0  0  0
 16 20  1  0  0  0  0
 16  1  2  0  0  0  0
 17 25  1  0  0  0  0
 19 15  1  0  0  0  0
 20  4  2  0  0  0  0
 21 22  2  0  0  0  0
 24 12  1  0  0  0  0
 25 12  1  0  0  0  0
 25 19  1  0  0  0  0
 26 24  1  0  0  0  0
 26 10  1  0  0  0  0
 28 16  1  0  0  0  0
M  END
>  <MODEL>
4

>  <REMARK>
 VINA RESULT:       1.6      3.615      6.242
  Name = 
  0 active torsions:
  status: ('A' for Active; 'I' for Inactive)
                            x       y       z     vdW  Elec       q    Type
                         _______ _______ _______ _____ _____    ______ ____

>  <TORSDO>
F 0

$$$$
=
 OpenBabel11122414033D

 28 32  0  0  1  0  0  0  0  0999 V2000
  160.7620  209.2530  155.7050 C   0  0  0  0  0  0  0  0  0  0  0  0
  157.9060  210.6910  156.7520 O   0  0  0  0  0  0  0  0  0  0  0  0
  159.4110  211.6560  150.1520 O   0  0  0  0  0  0  0  0  0  0  0  0
  162.7510  210.6200  157.1320 C   0  0  0  0  0  3  0  0  0  0  0  0
  159.4620  213.3770  151.7900 C   0  0  1  0  0  3  0  0  0  0  0  0
  159.7560  208.4680  154.9160 C   0  0  0  0  0  2  0  0  0  0  0  0
  157.4130  213.0350  157.2610 O   0  0  0  0  0  0  0  0  0  0  0  0
  157.7590  212.0670  156.1660 S   0  0  0  0  0  0  0  0  0  0  0  0
  157.0350  212.4950  153.7130 C   0  0  1  0  0  3  0  0  0  0  0  0
  159.2900  212.5870  155.3930 C   0  0  2  0  0  3  0  0  0  0  0  0
  161.4850  208.3550  151.7920 O   0  0  0  0  0  0  0  0  0  0  0  0
  160.6920  212.0090  153.4610 C   0  0  2  0  0  3  0  0  0  0  0  0
  157.6730  213.8020  153.8610 N   0  0  0  0  0  2  0  0  0  0  0  0
  156.4840  212.0620  154.9920 N   0  0  0  0  0  2  0  0  0  0  0  0
  160.6060  208.7080  152.6220 C   0  0  0  0  0  0  0  0  0  0  0  0
  160.8850  210.6530  155.5720 C   0  0  0  0  0  0  0  0  0  0  0  0
  159.7710  212.0300  151.2580 C   0  0  0  0  0  0  0  0  0  0  0  0
  155.9220  212.5880  152.6920 C   0  0  0  0  0  1  0  0  0  0  0  0
  159.8710  209.9120  152.4130 N   0  0  0  0  0  2  0  0  0  0  0  0
  161.8890  211.3250  156.2890 C   0  0  0  0  0  3  0  0  0  0  0  0
  161.6350  208.5560  156.5470 C   0  0  0  0  0  3  0  0  0  0  0  0
  162.6230  209.2360  157.2610 C   0  0  0  0  0  3  0  0  0  0  0  0
  160.3720  207.9270  153.7530 O   0  0  0  0  0  0  0  0  0  0  0  0
  160.0690  213.3840  153.1920 C   0  0  2  0  0  3  0  0  0  0  0  0
  160.5600  211.1740  152.1740 C   0  0  2  0  0  3  0  0  0  0  0  0
  159.0680  213.6660  154.3240 C   0  0  2  0  0  3  0  0  0  0  0  0
  160.1330  214.4430  150.9440 C   0  0  0  0  0  1  0  0  0  0  0  0
  159.9610  211.4280  154.6740 C   0  0  1  0  0  3  0  0  0  0  0  0
  1 21  1  0  0  0  0
  3 17  2  0  0  0  0
  4 22  1  0  0  0  0
  5 27  1  6  0  0  0
  5 24  1  0  0  0  0
  6  1  1  0  0  0  0
  8  2  2  0  0  0  0
  8  7  2  0  0  0  0
  9 18  1  6  0  0  0
  9 13  1  0  0  0  0
  9 14  1  0  0  0  0
 10  8  1  6  0  0  0
 11 15  2  0  0  0  0
 12 28  1  0  0  0  0
 13 26  1  0  0  0  0
 14  8  1  0  0  0  0
 15 23  1  0  0  0  0
 16  1  2  0  0  0  0
 16 20  1  0  0  0  0
 17  5  1  0  0  0  0
 17 25  1  0  0  0  0
 19 15  1  0  0  0  0
 20  4  2  0  0  0  0
 21 22  2  0  0  0  0
 23  6  1  0  0  0  0
 24 12  1  0  0  0  0
 24 26  1  0  0  0  0
 25 19  1  0  0  0  0
 25 12  1  0  0  0  0
 26 10  1  0  0  0  0
 28 10  1  0  0  0  0
 28 16  1  0  0  0  0
M  END
>  <MODEL>
5

>  <REMARK>
 VINA RESULT:       2.2      2.413      5.111
  Name = 
  0 active torsions:
  status: ('A' for Active; 'I' for Inactive)
                            x       y       z     vdW  Elec       q    Type
                         _______ _______ _______ _____ _____    ______ ____

>  <TORSDO>
F 0

$$$$
