=
 OpenBabel11122414183D

 34 40  0  0  1  0  0  0  0  0999 V2000
  162.1120  208.0400  149.2420 C   0  0  2  0  0  3  0  0  0  0  0  0
  161.8950  206.6290  147.1840 C   0  0  0  0  0  2  0  0  0  0  0  0
  161.2650  209.1860  155.8820 C   0  0  2  0  0  3  0  0  0  0  0  0
  161.7680  209.3900  151.4150 C   0  0  0  0  0  0  0  0  0  0  0  0
  161.1130  208.1760  153.4930 C   0  0  0  0  0  0  0  0  0  0  0  0
  160.1330  207.1370  155.3960 O   0  0  0  0  0  0  0  0  0  0  0  0
  161.2610  208.7250  157.2610 N   0  0  0  0  0  1  0  0  0  0  0  0
  160.3260  210.9810  154.3240 C   0  0  0  0  0  2  0  0  0  0  0  0
  160.6170  205.9280  149.1410 C   0  0  2  0  0  3  0  0  0  0  0  0
  160.8500  202.7470  149.6630 C   0  0  0  0  0  2  0  0  0  0  0  0
  161.0010  207.0480  152.7730 C   0  0  0  0  0  3  0  0  0  0  0  0
  161.5970  210.6950  153.5350 C   0  0  0  0  0  2  0  0  0  0  0  0
  161.2200  205.7030  150.5480 C   0  0  1  0  0  3  0  0  0  0  0  0
  161.2000  205.3320  146.8410 C   0  0  0  0  0  2  0  0  0  0  0  0
  161.4950  209.4140  152.8300 N   0  0  0  0  0  0  0  0  0  0  0  0
  160.4170  210.4510  155.7570 C   0  0  0  0  0  2  0  0  0  0  0  0
  161.5980  203.5750  148.6260 C   0  0  2  0  0  3  0  0  0  0  0  0
  161.6740  208.1120  150.6840 C   0  0  0  0  0  0  0  0  0  0  0  0
  160.8040  208.1080  154.9440 C   0  0  0  0  0  0  0  0  0  0  0  0
  161.2770  207.0020  151.3190 C   0  0  0  0  0  0  0  0  0  0  0  0
  162.2700  210.5190  149.3530 C   0  0  0  0  0  3  0  0  0  0  0  0
  161.0900  203.2670  151.0720 C   0  0  0  0  0  2  0  0  0  0  0  0
  162.0500  210.4860  150.7720 N   0  0  0  0  0  0  0  0  0  0  0  0
  160.4380  204.6220  151.2890 C   0  0  0  0  0  2  0  0  0  0  0  0
  160.7100  204.7440  148.1590 C   0  0  1  0  0  3  0  0  0  0  0  0
  162.2750  209.4030  148.6200 C   0  0  0  0  0  3  0  0  0  0  0  0
  161.1750  207.1600  148.4040 C   0  0  1  0  0  3  0  0  0  0  0  0
  161.9220  202.7450  147.5480 O   0  0  0  0  0  0  0  0  0  0  0  0
  161.7580  201.4460  148.0370 C   0  0  0  0  0  2  0  0  0  0  0  0
  160.3810  200.5380  144.8780 O   0  0  0  0  0  0  0  0  0  0  0  0
  161.2560  199.3860  146.7480 C   0  0  0  0  0  2  0  0  0  0  0  0
  160.7210  200.7100  147.2100 C   0  0  2  0  0  3  0  0  0  0  0  0
  161.2430  199.4930  145.2410 C   0  0  0  0  0  2  0  0  0  0  0  0
  160.4660  201.4640  145.9270 C   0  0  0  0  0  2  0  0  0  0  0  0
  1 26  1  6  0  0  0
  1 18  1  0  0  0  0
  2 27  1  0  0  0  0
  3  7  1  1  0  0  0
  4 15  1  0  0  0  0
  5 19  1  0  0  0  0
  8 16  1  0  0  0  0
  9 13  1  0  0  0  0
 10 22  1  0  0  0  0
 11  5  2  0  0  0  0
 12  8  1  0  0  0  0
 13 24  1  0  0  0  0
 13 20  1  0  0  0  0
 14  2  1  0  0  0  0
 14 25  1  0  0  0  0
 15  5  1  0  0  0  0
 15 12  1  0  0  0  0
 16  3  1  0  0  0  0
 17 10  1  0  0  0  0
 18 20  2  0  0  0  0
 18  4  1  0  0  0  0
 19  6  2  0  0  0  0
 19  3  1  0  0  0  0
 20 11  1  0  0  0  0
 21 23  1  0  0  0  0
 22 24  1  0  0  0  0
 23  4  2  0  0  0  0
 25 17  1  0  0  0  0
 25  9  1  0  0  0  0
 26 21  2  0  0  0  0
 27  9  1  0  0  0  0
 27  1  1  0  0  0  0
 28 29  1  0  0  0  0
 28 17  1  0  0  0  0
 30 33  1  0  0  0  0
 30 34  1  0  0  0  0
 31 32  1  0  0  0  0
 32 29  1  0  0  0  0
 33 31  1  0  0  0  0
 34 32  1  0  0  0  0
M  END
>  <MODEL>
1

>  <REMARK>
 VINA RESULT:      -9.5      0.000      0.000
  Name = 
  3 active torsions:
  status: ('A' for Active; 'I' for Inactive)
    1  A    between atoms: C_17  and  O_28
    2  A    between atoms: O_28  and  C_29
    3  A    between atoms: C_29  and  C_32
                            x       y       z     vdW  Elec       q    Type
                         _______ _______ _______ _____ _____    ______ ____

>  <TORSDO>
F 3

$$$$
=
 OpenBabel11122414183D

 34 40  0  0  1  0  0  0  0  0999 V2000
  161.2320  209.1450  150.9850 C   0  0  0  0  0  0  0  0  0  0  0  0
  161.5830  210.8840  152.7530 C   0  0  0  0  0  2  0  0  0  0  0  0
  160.3290  202.7350  148.9310 C   0  0  2  0  0  3  0  0  0  0  0  0
  161.3240  207.0960  149.4170 C   0  0  1  0  0  3  0  0  0  0  0  0
  160.8590  204.8360  150.3640 C   0  0  0  0  0  0  0  0  0  0  0  0
  160.7950  202.6380  151.2740 O   0  0  0  0  0  0  0  0  0  0  0  0
  159.7520  201.4120  149.1100 N   0  0  0  0  0  1  0  0  0  0  0  0
  162.2490  203.9930  147.8080 C   0  0  0  0  0  2  0  0  0  0  0  0
  161.8810  208.5570  153.4220 C   0  0  2  0  0  3  0  0  0  0  0  0
  160.4410  207.9150  156.2430 C   0  0  0  0  0  2  0  0  0  0  0  0
  160.7990  205.3850  151.5880 C   0  0  0  0  0  3  0  0  0  0  0  0
  161.2640  205.1550  147.8510 C   0  0  0  0  0  2  0  0  0  0  0  0
  160.8360  207.4380  153.1980 C   0  0  1  0  0  3  0  0  0  0  0  0
  161.8700  210.8630  154.2360 C   0  0  0  0  0  2  0  0  0  0  0  0
  161.1400  205.6810  149.2140 N   0  0  0  0  0  0  0  0  0  0  0  0
  161.5480  202.6480  148.0150 C   0  0  0  0  0  2  0  0  0  0  0  0
  160.3740  209.2070  155.4390 C   0  0  2  0  0  3  0  0  0  0  0  0
  161.2030  207.6500  150.7790 C   0  0  0  0  0  0  0  0  0  0  0  0
  160.6640  203.3680  150.2510 C   0  0  0  0  0  0  0  0  0  0  0  0
  160.9860  206.8350  151.8200 C   0  0  0  0  0  0  0  0  0  0  0  0
  161.8930  209.2810  148.5920 C   0  0  0  0  0  3  0  0  0  0  0  0
  159.9690  206.7220  155.4250 C   0  0  0  0  0  2  0  0  0  0  0  0
  161.6410  207.8770  148.4250 N   0  0  0  0  0  0  0  0  0  0  0  0
  160.9400  206.3920  154.3030 C   0  0  0  0  0  2  0  0  0  0  0  0
  161.7020  209.4180  154.6880 C   0  0  1  0  0  3  0  0  0  0  0  0
  161.7380  209.8840  149.7740 C   0  0  0  0  0  3  0  0  0  0  0  0
  162.0270  209.5320  152.2390 C   0  0  1  0  0  3  0  0  0  0  0  0
  160.1370  210.2650  156.3220 O   0  0  0  0  0  0  0  0  0  0  0  0
  158.7520  210.4470  156.2980 C   0  0  0  0  0  2  0  0  0  0  0  0
  156.4800  212.5100  154.4870 O   0  0  0  0  0  0  0  0  0  0  0  0
  158.7650  212.6100  155.0810 C   0  0  0  0  0  2  0  0  0  0  0  0
  158.3490  211.1700  155.0250 C   0  0  2  0  0  3  0  0  0  0  0  0
  157.4620  213.3700  154.9980 C   0  0  0  0  0  2  0  0  0  0  0  0
  156.8430  211.2320  154.9330 C   0  0  0  0  0  2  0  0  0  0  0  0
  1 27  1  0  0  0  0
  2 14  1  0  0  0  0
  3  7  1  1  0  0  0
  3 19  1  0  0  0  0
  4 23  1  1  0  0  0
  4 18  1  0  0  0  0
  5 11  2  0  0  0  0
  8 12  1  0  0  0  0
  8 16  1  0  0  0  0
  9 25  1  0  0  0  0
 11 20  1  0  0  0  0
 12 15  1  0  0  0  0
 13  9  1  0  0  0  0
 13 24  1  0  0  0  0
 14 25  1  0  0  0  0
 15  4  1  0  0  0  0
 15  5  1  0  0  0  0
 16  3  1  0  0  0  0
 17 10  1  0  0  0  0
 17 28  1  0  0  0  0
 18  1  1  0  0  0  0
 18 20  2  0  0  0  0
 19  5  1  0  0  0  0
 19  6  2  0  0  0  0
 20 13  1  0  0  0  0
 21 26  1  0  0  0  0
 22 10  1  0  0  0  0
 23 21  2  0  0  0  0
 24 22  1  0  0  0  0
 25 17  1  0  0  0  0
 26  1  2  0  0  0  0
 27  2  1  0  0  0  0
 27  9  1  0  0  0  0
 29 28  1  0  0  0  0
 30 34  1  0  0  0  0
 30 33  1  0  0  0  0
 32 31  1  0  0  0  0
 32 29  1  0  0  0  0
 33 31  1  0  0  0  0
 34 32  1  0  0  0  0
M  END
>  <MODEL>
2

>  <REMARK>
 VINA RESULT:      -9.0      2.721      8.706
  Name = 
  3 active torsions:
  status: ('A' for Active; 'I' for Inactive)
    1  A    between atoms: C_17  and  O_28
    2  A    between atoms: O_28  and  C_29
    3  A    between atoms: C_29  and  C_32
                            x       y       z     vdW  Elec       q    Type
                         _______ _______ _______ _____ _____    ______ ____

>  <TORSDO>
F 3

$$$$
=
 OpenBabel11122414183D

 34 40  0  0  1  0  0  0  0  0999 V2000
  161.5820  204.7810  151.8020 C   0  0  0  0  0  0  0  0  0  0  0  0
  161.3480  206.0480  153.9490 C   0  0  0  0  0  2  0  0  0  0  0  0
  161.6050  204.3610  145.0230 C   0  0  2  0  0  3  0  0  0  0  0  0
  161.3100  203.7150  149.4660 C   0  0  1  0  0  3  0  0  0  0  0  0
  161.2900  205.1990  147.4620 C   0  0  0  0  0  0  0  0  0  0  0  0
  160.8900  206.5770  145.5640 O   0  0  0  0  0  0  0  0  0  0  0  0
  161.9300  204.9100  143.7170 N   0  0  0  0  0  1  0  0  0  0  0  0
  160.0490  202.7280  146.2250 C   0  0  0  0  0  2  0  0  0  0  0  0
  160.5960  207.1730  151.9190 C   0  0  2  0  0  3  0  0  0  0  0  0
  161.6090  210.2390  151.7880 C   0  0  0  0  0  2  0  0  0  0  0  0
  161.3140  206.2650  148.2780 C   0  0  0  0  0  3  0  0  0  0  0  0
  161.2050  202.6470  147.2140 C   0  0  0  0  0  2  0  0  0  0  0  0
  161.4560  207.3530  150.6450 C   0  0  1  0  0  3  0  0  0  0  0  0
  160.9100  207.4440  154.3290 C   0  0  0  0  0  2  0  0  0  0  0  0
  161.2740  203.8610  148.0330 N   0  0  0  0  0  0  0  0  0  0  0  0
  160.4890  203.3260  144.8860 C   0  0  0  0  0  2  0  0  0  0  0  0
  161.9750  209.1830  152.8240 C   0  0  2  0  0  3  0  0  0  0  0  0
  161.3820  204.9210  150.3130 C   0  0  0  0  0  0  0  0  0  0  0  0
  161.2460  205.4450  145.9980 C   0  0  0  0  0  0  0  0  0  0  0  0
  161.3510  206.1380  149.7530 C   0  0  0  0  0  0  0  0  0  0  0  0
  161.2040  202.3500  151.4430 C   0  0  0  0  0  3  0  0  0  0  0  0
  161.9570  209.7830  150.3790 C   0  0  0  0  0  2  0  0  0  0  0  0
  161.2330  202.5390  150.0190 N   0  0  0  0  0  0  0  0  0  0  0  0
  161.0650  208.6390  149.9240 C   0  0  0  0  0  2  0  0  0  0  0  0
  160.7860  208.2260  153.0280 C   0  0  1  0  0  3  0  0  0  0  0  0
  161.3350  203.3770  152.2870 C   0  0  0  0  0  3  0  0  0  0  0  0
  160.7390  205.7930  152.5880 C   0  0  1  0  0  3  0  0  0  0  0  0
  162.2930  209.8320  154.0210 O   0  0  0  0  0  0  0  0  0  0  0  0
  161.3700  210.8770  154.1170 C   0  0  0  0  0  2  0  0  0  0  0  0
  159.7520  210.0260  157.1750 O   0  0  0  0  0  0  0  0  0  0  0  0
  161.9800  210.3810  156.4710 C   0  0  0  0  0  2  0  0  0  0  0  0
  161.0650  211.1640  155.5760 C   0  0  2  0  0  3  0  0  0  0  0  0
  161.0460  209.4940  157.2610 C   0  0  0  0  0  2  0  0  0  0  0  0
  159.6900  210.6430  155.9180 C   0  0  0  0  0  2  0  0  0  0  0  0
  1 26  2  0  0  0  0
  1 27  1  0  0  0  0
  2 14  1  0  0  0  0
  3  7  1  6  0  0  0
  3 19  1  0  0  0  0
  4 23  1  1  0  0  0
  4 18  1  0  0  0  0
  5 15  1  0  0  0  0
  5 11  2  0  0  0  0
  6 19  2  0  0  0  0
  8 12  1  0  0  0  0
  9 27  1  0  0  0  0
  9 25  1  0  0  0  0
 10 17  1  0  0  0  0
 11 20  1  0  0  0  0
 12 15  1  0  0  0  0
 13  9  1  0  0  0  0
 15  4  1  0  0  0  0
 16  3  1  0  0  0  0
 16  8  1  0  0  0  0
 17 25  1  0  0  0  0
 17 28  1  0  0  0  0
 18  1  1  0  0  0  0
 19  5  1  0  0  0  0
 20 18  2  0  0  0  0
 20 13  1  0  0  0  0
 21 26  1  0  0  0  0
 22 10  1  0  0  0  0
 23 21  2  0  0  0  0
 24 22  1  0  0  0  0
 24 13  1  0  0  0  0
 25 14  1  0  0  0  0
 27  2  1  0  0  0  0
 28 29  1  0  0  0  0
 29 32  1  0  0  0  0
 30 33  1  0  0  0  0
 31 33  1  0  0  0  0
 32 34  1  0  0  0  0
 32 31  1  0  0  0  0
 34 30  1  0  0  0  0
M  END
>  <MODEL>
3

>  <REMARK>
 VINA RESULT:      -8.2      3.080      9.296
  Name = 
  3 active torsions:
  status: ('A' for Active; 'I' for Inactive)
    1  A    between atoms: C_17  and  O_28
    2  A    between atoms: O_28  and  C_29
    3  A    between atoms: C_29  and  C_32
                            x       y       z     vdW  Elec       q    Type
                         _______ _______ _______ _____ _____    ______ ____

>  <TORSDO>
F 3

$$$$
=
 OpenBabel11122414183D

 34 40  0  0  1  0  0  0  0  0999 V2000
  161.3360  207.9790  149.4240 C   0  0  0  0  0  0  0  0  0  0  0  0
  161.9080  210.1680  150.5000 C   0  0  0  0  0  2  0  0  0  0  0  0
  160.0520  201.3140  149.6320 C   0  0  2  0  0  3  0  0  0  0  0  0
  161.2160  205.5350  148.6000 C   0  0  1  0  0  3  0  0  0  0  0  0
  160.7800  203.7280  150.2610 C   0  0  0  0  0  0  0  0  0  0  0  0
  160.7410  201.9420  151.8340 O   0  0  0  0  0  0  0  0  0  0  0  0
  159.4580  200.1540  150.2770 N   0  0  0  0  0  1  0  0  0  0  0  0
  161.8890  202.0330  148.0080 C   0  0  0  0  0  2  0  0  0  0  0  0
  162.2030  208.1620  151.8570 C   0  0  2  0  0  3  0  0  0  0  0  0
  161.0270  208.5390  154.8440 C   0  0  0  0  0  2  0  0  0  0  0  0
  160.8560  204.6400  151.2430 C   0  0  0  0  0  3  0  0  0  0  0  0
  160.9470  203.2030  147.7550 C   0  0  0  0  0  2  0  0  0  0  0  0
  161.1090  207.0940  152.0940 C   0  0  1  0  0  3  0  0  0  0  0  0
  162.3370  210.6040  151.8810 C   0  0  0  0  0  2  0  0  0  0  0  0
  160.9720  204.1440  148.8800 N   0  0  0  0  0  0  0  0  0  0  0  0
  161.1730  200.8680  148.6950 C   0  0  0  0  0  2  0  0  0  0  0  0
  160.9190  209.5090  153.6740 C   0  0  2  0  0  3  0  0  0  0  0  0
  161.2440  206.5020  149.7150 C   0  0  0  0  0  0  0  0  0  0  0  0
  160.5330  202.3140  150.6440 C   0  0  0  0  0  0  0  0  0  0  0  0
  161.1060  206.0750  150.9770 C   0  0  0  0  0  0  0  0  0  0  0  0
  161.7640  207.3070  147.0680 C   0  0  0  0  0  3  0  0  0  0  0  0
  160.4430  207.1780  154.4970 C   0  0  0  0  0  2  0  0  0  0  0  0
  161.4560  205.9400  147.3860 N   0  0  0  0  0  0  0  0  0  0  0  0
  161.2890  206.4500  153.4660 C   0  0  0  0  0  2  0  0  0  0  0  0
  162.1730  209.3910  152.7880 C   0  0  1  0  0  3  0  0  0  0  0  0
  161.7430  208.2630  148.0010 C   0  0  0  0  0  3  0  0  0  0  0  0
  162.2600  208.6990  150.4150 C   0  0  1  0  0  3  0  0  0  0  0  0
  160.8000  210.8050  154.1850 O   0  0  0  0  0  0  0  0  0  0  0  0
  159.5060  211.2060  153.8430 C   0  0  0  0  0  2  0  0  0  0  0  0
  157.9660  211.4630  157.0460 O   0  0  0  0  0  0  0  0  0  0  0  0
  159.9330  212.2950  156.0320 C   0  0  0  0  0  2  0  0  0  0  0  0
  158.9120  212.0440  154.9610 C   0  0  2  0  0  3  0  0  0  0  0  0
  159.3400  211.6450  157.2610 C   0  0  0  0  0  2  0  0  0  0  0  0
  157.8340  211.2560  155.6660 C   0  0  0  0  0  2  0  0  0  0  0  0
  1 18  1  0  0  0  0
  1 27  1  0  0  0  0
  2 14  1  0  0  0  0
  3  7  1  1  0  0  0
  3 19  1  0  0  0  0
  4 23  1  1  0  0  0
  4 15  1  0  0  0  0
  4 18  1  0  0  0  0
  5 19  1  0  0  0  0
  5 11  2  0  0  0  0
  8 16  1  0  0  0  0
  9 13  1  0  0  0  0
  9 25  1  0  0  0  0
 12  8  1  0  0  0  0
 12 15  1  0  0  0  0
 13 24  1  0  0  0  0
 14 25  1  0  0  0  0
 15  5  1  0  0  0  0
 16  3  1  0  0  0  0
 17 28  1  0  0  0  0
 17 10  1  0  0  0  0
 18 20  2  0  0  0  0
 19  6  2  0  0  0  0
 20 11  1  0  0  0  0
 20 13  1  0  0  0  0
 21 23  2  0  0  0  0
 21 26  1  0  0  0  0
 22 10  1  0  0  0  0
 24 22  1  0  0  0  0
 25 17  1  0  0  0  0
 26  1  2  0  0  0  0
 27  2  1  0  0  0  0
 27  9  1  0  0  0  0
 29 28  1  0  0  0  0
 29 32  1  0  0  0  0
 30 33  1  0  0  0  0
 31 33  1  0  0  0  0
 32 34  1  0  0  0  0
 32 31  1  0  0  0  0
 34 30  1  0  0  0  0
M  END
>  <MODEL>
4

>  <REMARK>
 VINA RESULT:      -7.5      3.019      8.746
  Name = 
  3 active torsions:
  status: ('A' for Active; 'I' for Inactive)
    1  A    between atoms: C_17  and  O_28
    2  A    between atoms: O_28  and  C_29
    3  A    between atoms: C_29  and  C_32
                            x       y       z     vdW  Elec       q    Type
                         _______ _______ _______ _____ _____    ______ ____

>  <TORSDO>
F 3

$$$$
