=
 OpenBabel11122413123D

 31 35  0  0  1  0  0  0  0  0999 V2000
  161.3090  205.1060  144.9820 C   0  0  0  0  0  0  0  0  0  0  0  0
  160.3650  205.2390  148.6650 C   0  0  2  0  0  3  0  0  0  0  0  0
  160.7480  203.9010  149.2780 C   0  0  0  0  0  0  0  0  0  0  0  0
  161.2640  201.5350  149.0480 C   0  0  0  0  0  0  0  0  0  0  0  0
  161.0800  205.4820  147.3650 C   0  0  0  0  0  0  0  0  0  0  0  0
  162.5350  205.7760  144.9940 C   0  0  0  0  0  3  0  0  0  0  0  0
  160.9280  202.7640  148.4750 C   0  0  0  0  0  3  0  0  0  0  0  0
  162.0610  206.8780  149.6600 C   0  0  0  0  0  0  0  0  0  0  0  0
  160.8140  204.5840  143.7950 O   0  0  0  0  0  1  0  0  0  0  0  0
  160.6330  204.8720  151.5070 O   0  0  0  0  0  0  0  0  0  0  0  0
  161.5040  200.1320  148.0300 Cl  0  0  0  0  0  0  0  0  0  0  0  0
  162.7830  206.7660  148.5820 N   0  0  0  0  0  0  0  0  0  0  0  0
  160.5990  206.4240  149.6370 C   0  0  2  0  0  3  0  0  0  0  0  0
  162.6210  207.6330  150.7460 N   0  0  0  0  0  2  0  0  0  0  0  0
  160.5830  204.9530  146.1670 C   0  0  0  0  0  3  0  0  0  0  0  0
  161.4110  201.4260  150.4330 C   0  0  0  0  0  3  0  0  0  0  0  0
  162.3050  206.1640  147.3730 C   0  0  0  0  0  0  0  0  0  0  0  0
  163.0330  206.3070  146.1890 C   0  0  0  0  0  3  0  0  0  0  0  0
  160.0290  206.0630  151.0100 C   0  0  0  0  0  2  0  0  0  0  0  0
  160.8590  203.7720  150.6780 C   0  0  0  0  0  0  0  0  0  0  0  0
  161.2060  202.5430  151.2460 C   0  0  0  0  0  3  0  0  0  0  0  0
  162.1500  207.0480  153.0380 C   0  0  0  0  0  1  0  0  0  0  0  0
  161.9090  208.0690  151.9380 C   0  0  1  0  0  3  0  0  0  0  0  0
  160.1150  211.2050  153.1270 C   0  0  1  0  0  3  0  0  0  0  0  0
  162.0120  209.8100  153.6880 O   0  0  0  0  0  0  0  0  0  0  0  0
  161.9230  210.1780  149.8280 O   0  0  0  0  0  0  0  0  0  0  0  0
  158.6540  211.4060  153.4660 C   0  0  0  0  0  1  0  0  0  0  0  0
  160.6050  209.9040  153.7520 C   0  0  0  0  0  2  0  0  0  0  0  0
  161.9940  210.8090  151.2120 S   0  0  2  0  0  0  0  0  0  0  0  0
  162.4040  209.4620  152.3720 C   0  0  2  0  0  3  0  0  0  0  0  0
  160.2720  211.1400  151.6170 C   0  0  0  0  0  2  0  0  0  0  0  0
  1  6  2  0  0  0  0
  1 15  1  0  0  0  0
  2  5  1  6  0  0  0
  2  3  1  0  0  0  0
  2 13  1  0  0  0  0
  3 20  1  0  0  0  0
  4 16  2  0  0  0  0
  5 17  1  0  0  0  0
  6 18  1  0  0  0  0
  7  4  1  0  0  0  0
  7  3  2  0  0  0  0
  8 14  1  0  0  0  0
  9  1  1  0  0  0  0
 11  4  1  0  0  0  0
 12  8  2  0  0  0  0
 13  8  1  0  0  0  0
 13 19  1  1  0  0  0
 14 23  1  0  0  0  0
 15  5  2  0  0  0  0
 16 21  1  0  0  0  0
 17 12  1  0  0  0  0
 18 17  2  0  0  0  0
 19 10  1  0  0  0  0
 20 21  2  0  0  0  0
 20 10  1  0  0  0  0
 23 22  1  1  0  0  0
 24 27  1  6  0  0  0
 24 28  1  0  0  0  0
 25 28  1  0  0  0  0
 29 26  2  6  0  0  0
 29 31  1  0  0  0  0
 29 30  1  0  0  0  0
 30 23  1  6  0  0  0
 30 25  1  0  0  0  0
 31 24  1  0  0  0  0
M  END
>  <MODEL>
1

>  <REMARK>
 VINA RESULT:      -5.4      0.000      0.000
  Name = 
  2 active torsions:
  status: ('A' for Active; 'I' for Inactive)
    1  A    between atoms: C_5  and  N_16
    2  A    between atoms: C_5  and  C_30
                            x       y       z     vdW  Elec       q    Type
                         _______ _______ _______ _____ _____    ______ ____

>  <TORSDO>
F 2

$$$$
=
 OpenBabel11122413123D

 31 35  0  0  1  0  0  0  0  0999 V2000
  162.3080  207.5370  139.4140 C   0  0  0  0  0  0  0  0  0  0  0  0
  160.1590  210.6580  139.7490 C   0  0  2  0  0  3  0  0  0  0  0  0
  161.0130  211.8420  139.3220 C   0  0  0  0  0  0  0  0  0  0  0  0
  163.1910  212.8550  138.9390 C   0  0  0  0  0  0  0  0  0  0  0  0
  160.7170  209.3570  139.2440 C   0  0  0  0  0  0  0  0  0  0  0  0
  161.8790  207.0470  138.1780 C   0  0  0  0  0  3  0  0  0  0  0  0
  162.4130  211.7570  139.3160 C   0  0  0  0  0  3  0  0  0  0  0  0
  158.4530  210.4180  137.8550 C   0  0  0  0  0  0  0  0  0  0  0  0
  163.3110  206.8800  140.1120 O   0  0  0  0  0  1  0  0  0  0  0  0
  159.0140  213.2020  139.0420 O   0  0  0  0  0  0  0  0  0  0  0  0
  164.9360  212.7250  138.9180 Cl  0  0  0  0  0  0  0  0  0  0  0  0
  159.1950  209.4920  137.3210 N   0  0  0  0  0  0  0  0  0  0  0  0
  158.6770  210.8120  139.3180 C   0  0  2  0  0  3  0  0  0  0  0  0
  157.3130  210.8580  137.1010 N   0  0  0  0  0  2  0  0  0  0  0  0
  161.7320  208.6950  139.9460 C   0  0  0  0  0  3  0  0  0  0  0  0
  162.5750  214.0550  138.5750 C   0  0  0  0  0  3  0  0  0  0  0  0
  160.2800  208.8570  138.0080 C   0  0  0  0  0  0  0  0  0  0  0  0
  160.8650  207.7050  137.4750 C   0  0  0  0  0  3  0  0  0  0  0  0
  158.1970  212.2200  139.6730 C   0  0  0  0  0  2  0  0  0  0  0  0
  160.4010  213.0700  138.9930 C   0  0  0  0  0  0  0  0  0  0  0  0
  161.1830  214.1620  138.6050 C   0  0  0  0  0  3  0  0  0  0  0  0
  156.4200  213.0970  137.0110 C   0  0  0  0  0  1  0  0  0  0  0  0
  156.2380  211.7050  137.5950 C   0  0  1  0  0  3  0  0  0  0  0  0
  152.9350  211.3090  139.4410 C   0  0  1  0  0  3  0  0  0  0  0  0
  153.8080  212.0490  137.3070 O   0  0  0  0  0  0  0  0  0  0  0  0
  155.7560  208.8550  138.3310 O   0  0  0  0  0  0  0  0  0  0  0  0
  152.5240  211.8380  140.7970 C   0  0  0  0  0  1  0  0  0  0  0  0
  153.6450  212.4110  138.6610 C   0  0  0  0  0  2  0  0  0  0  0  0
  154.4400  209.5550  138.0210 S   0  0  2  0  0  0  0  0  0  0  0  0
  154.8720  211.1200  137.1900 C   0  0  2  0  0  3  0  0  0  0  0  0
  153.8740  210.1290  139.6300 C   0  0  0  0  0  2  0  0  0  0  0  0
  1 15  1  0  0  0  0
  1  9  1  0  0  0  0
  2  5  1  6  0  0  0
  3  2  1  0  0  0  0
  4  7  2  0  0  0  0
  5 15  2  0  0  0  0
  6  1  2  0  0  0  0
  7  3  1  0  0  0  0
  8 13  1  0  0  0  0
 10 19  1  0  0  0  0
 11  4  1  0  0  0  0
 12  8  2  0  0  0  0
 12 17  1  0  0  0  0
 13 19  1  6  0  0  0
 13  2  1  0  0  0  0
 14 23  1  0  0  0  0
 14  8  1  0  0  0  0
 16 21  2  0  0  0  0
 16  4  1  0  0  0  0
 17  5  1  0  0  0  0
 18 17  2  0  0  0  0
 18  6  1  0  0  0  0
 20 10  1  0  0  0  0
 20  3  2  0  0  0  0
 21 20  1  0  0  0  0
 23 22  1  6  0  0  0
 24 31  1  0  0  0  0
 24 27  1  1  0  0  0
 25 28  1  0  0  0  0
 28 24  1  0  0  0  0
 29 26  2  1  0  0  0
 29 31  1  0  0  0  0
 30 25  1  0  0  0  0
 30 23  1  1  0  0  0
 30 29  1  0  0  0  0
M  END
>  <MODEL>
2

>  <REMARK>
 VINA RESULT:      -5.0     11.372     13.625
  Name = 
  2 active torsions:
  status: ('A' for Active; 'I' for Inactive)
    1  A    between atoms: C_5  and  N_16
    2  A    between atoms: C_5  and  C_30
                            x       y       z     vdW  Elec       q    Type
                         _______ _______ _______ _____ _____    ______ ____

>  <TORSDO>
F 2

$$$$
=
 OpenBabel11122413123D

 31 35  0  0  1  0  0  0  0  0999 V2000
  162.1970  213.7850  147.2020 C   0  0  0  0  0  0  0  0  0  0  0  0
  159.8250  214.4430  150.1020 C   0  0  2  0  0  3  0  0  0  0  0  0
  158.4080  214.3130  149.5640 C   0  0  0  0  0  0  0  0  0  0  0  0
  156.8370  214.3260  147.7070 C   0  0  0  0  0  0  0  0  0  0  0  0
  160.8260  213.7770  149.1990 C   0  0  0  0  0  0  0  0  0  0  0  0
  162.5310  212.4460  147.4250 C   0  0  0  0  0  3  0  0  0  0  0  0
  158.1430  214.4300  148.1900 C   0  0  0  0  0  3  0  0  0  0  0  0
  160.1080  212.3780  151.5890 C   0  0  0  0  0  0  0  0  0  0  0  0
  162.7100  214.4530  146.0990 O   0  0  0  0  0  1  0  0  0  0  0  0
  157.5530  214.0790  151.8300 O   0  0  0  0  0  0  0  0  0  0  0  0
  156.5280  214.4530  145.9890 Cl  0  0  0  0  0  0  0  0  0  0  0  0
  160.7030  211.7670  150.6050 N   0  0  0  0  0  0  0  0  0  0  0  0
  159.9600  213.9020  151.5480 C   0  0  2  0  0  3  0  0  0  0  0  0
  159.8250  211.6040  152.7640 N   0  0  0  0  0  2  0  0  0  0  0  0
  161.3410  214.4500  148.0850 C   0  0  0  0  0  3  0  0  0  0  0  0
  155.7780  214.1170  148.5940 C   0  0  0  0  0  3  0  0  0  0  0  0
  161.1720  212.4370  149.4290 C   0  0  0  0  0  0  0  0  0  0  0  0
  162.0200  211.7730  148.5390 C   0  0  0  0  0  3  0  0  0  0  0  0
  158.8080  214.4470  152.3940 C   0  0  0  0  0  2  0  0  0  0  0  0
  157.3280  214.1440  150.4550 C   0  0  0  0  0  0  0  0  0  0  0  0
  156.0240  214.0280  149.9650 C   0  0  0  0  0  3  0  0  0  0  0  0
  158.0690  211.4500  154.4120 C   0  0  0  0  0  1  0  0  0  0  0  0
  159.3790  212.1300  154.0460 C   0  0  1  0  0  3  0  0  0  0  0  0
  160.7640  208.9520  155.6130 C   0  0  1  0  0  3  0  0  0  0  0  0
  161.5130  211.0550  154.6760 O   0  0  0  0  0  0  0  0  0  0  0  0
  158.3720  211.7810  156.8310 O   0  0  0  0  0  0  0  0  0  0  0  0
  160.5200  207.5080  155.2320 C   0  0  0  0  0  1  0  0  0  0  0  0
  161.0230  209.7710  154.3530 C   0  0  0  0  0  2  0  0  0  0  0  0
  159.7870  211.2350  156.7050 S   0  0  2  0  0  0  0  0  0  0  0  0
  160.4460  211.8700  155.1270 C   0  0  2  0  0  3  0  0  0  0  0  0
  159.5390  209.4920  156.3330 C   0  0  0  0  0  2  0  0  0  0  0  0
  1  6  2  0  0  0  0
  1 15  1  0  0  0  0
  2  5  1  6  0  0  0
  2 13  1  0  0  0  0
  3  2  1  0  0  0  0
  3 20  1  0  0  0  0
  4  7  1  0  0  0  0
  4 16  2  0  0  0  0
  5 17  1  0  0  0  0
  6 18  1  0  0  0  0
  7  3  2  0  0  0  0
  8 14  1  0  0  0  0
  9  1  1  0  0  0  0
 10 19  1  0  0  0  0
 11  4  1  0  0  0  0
 12  8  2  0  0  0  0
 13  8  1  0  0  0  0
 13 19  1  1  0  0  0
 14 23  1  0  0  0  0
 15  5  2  0  0  0  0
 16 21  1  0  0  0  0
 17 12  1  0  0  0  0
 18 17  2  0  0  0  0
 20 10  1  0  0  0  0
 21 20  2  0  0  0  0
 23 22  1  1  0  0  0
 24 27  1  6  0  0  0
 24 31  1  0  0  0  0
 25 30  1  0  0  0  0
 28 25  1  0  0  0  0
 28 24  1  0  0  0  0
 29 26  2  6  0  0  0
 30 23  1  6  0  0  0
 30 29  1  0  0  0  0
 31 29  1  0  0  0  0
M  END
>  <MODEL>
3

>  <REMARK>
 VINA RESULT:      -4.7      6.368      8.609
  Name = 
  2 active torsions:
  status: ('A' for Active; 'I' for Inactive)
    1  A    between atoms: C_5  and  N_16
    2  A    between atoms: C_5  and  C_30
                            x       y       z     vdW  Elec       q    Type
                         _______ _______ _______ _____ _____    ______ ____

>  <TORSDO>
F 2

$$$$
=
 OpenBabel11122413123D

 31 35  0  0  1  0  0  0  0  0999 V2000
  161.7370  210.3240  155.1220 C   0  0  0  0  0  0  0  0  0  0  0  0
  162.3930  209.8840  151.4010 C   0  0  2  0  0  3  0  0  0  0  0  0
  161.8390  208.5250  151.0020 C   0  0  0  0  0  0  0  0  0  0  0  0
  161.1240  206.2750  151.5850 C   0  0  0  0  0  0  0  0  0  0  0  0
  161.8100  210.3650  152.7000 C   0  0  0  0  0  0  0  0  0  0  0  0
  160.5820  211.1100  155.1010 C   0  0  0  0  0  3  0  0  0  0  0  0
  161.6180  207.5260  151.9620 C   0  0  0  0  0  3  0  0  0  0  0  0
  160.7840  211.5480  150.3070 C   0  0  0  0  0  0  0  0  0  0  0  0
  162.2740  209.9110  156.3330 O   0  0  0  0  0  1  0  0  0  0  0  0
  161.8670  209.1850  148.6590 O   0  0  0  0  0  0  0  0  0  0  0  0
  160.8350  205.0470  152.7980 Cl  0  0  0  0  0  0  0  0  0  0  0  0
  160.1430  211.6510  151.4360 N   0  0  0  0  0  0  0  0  0  0  0  0
  162.1940  210.9520  150.2940 C   0  0  2  0  0  3  0  0  0  0  0  0
  160.2130  212.2120  149.1690 N   0  0  0  0  0  2  0  0  0  0  0  0
  162.3490  209.9460  153.9230 C   0  0  0  0  0  3  0  0  0  0  0  0
  160.8570  206.0050  150.2400 C   0  0  0  0  0  3  0  0  0  0  0  0
  160.6570  211.1640  152.6810 C   0  0  0  0  0  0  0  0  0  0  0  0
  160.0430  211.5320  153.8810 C   0  0  0  0  0  3  0  0  0  0  0  0
  162.6160  210.3610  148.9480 C   0  0  0  0  0  2  0  0  0  0  0  0
  161.6050  208.2300  149.6420 C   0  0  0  0  0  0  0  0  0  0  0  0
  161.1000  206.9810  149.2710 C   0  0  0  0  0  3  0  0  0  0  0  0
  160.0050  211.7760  146.8050 C   0  0  0  0  0  1  0  0  0  0  0  0
  160.8640  212.4150  147.8840 C   0  0  1  0  0  3  0  0  0  0  0  0
  161.6100  214.4120  144.7330 C   0  0  1  0  0  3  0  0  0  0  0  0
  160.1360  214.4300  146.6530 O   0  0  0  0  0  0  0  0  0  0  0  0
  163.6710  213.4250  147.8940 O   0  0  0  0  0  0  0  0  0  0  0  0
  161.6720  213.9470  143.2940 C   0  0  0  0  0  1  0  0  0  0  0  0
  160.3760  213.8180  145.4040 C   0  0  0  0  0  2  0  0  0  0  0  0
  162.7510  214.4160  147.1940 S   0  0  2  0  0  0  0  0  0  0  0  0
  161.0460  213.9210  147.6130 C   0  0  2  0  0  3  0  0  0  0  0  0
  162.8620  213.9480  145.4600 C   0  0  0  0  0  2  0  0  0  0  0  0
  1  9  1  0  0  0  0
  2  3  1  6  0  0  0
  2  5  1  0  0  0  0
  3  7  1  0  0  0  0
  4  7  2  0  0  0  0
  4 11  1  0  0  0  0
  5 15  1  0  0  0  0
  6  1  1  0  0  0  0
  8 12  2  0  0  0  0
 10 19  1  0  0  0  0
 10 20  1  0  0  0  0
 12 17  1  0  0  0  0
 13 19  1  6  0  0  0
 13  8  1  0  0  0  0
 13  2  1  0  0  0  0
 14  8  1  0  0  0  0
 15  1  2  0  0  0  0
 16  4  1  0  0  0  0
 17  5  2  0  0  0  0
 17 18  1  0  0  0  0
 18  6  2  0  0  0  0
 20  3  2  0  0  0  0
 21 20  1  0  0  0  0
 21 16  2  0  0  0  0
 23 22  1  6  0  0  0
 23 14  1  0  0  0  0
 24 27  1  6  0  0  0
 24 28  1  0  0  0  0
 24 31  1  0  0  0  0
 25 30  1  0  0  0  0
 28 25  1  0  0  0  0
 29 30  1  0  0  0  0
 29 26  2  1  0  0  0
 30 23  1  6  0  0  0
 31 29  1  0  0  0  0
M  END
>  <MODEL>
4

>  <REMARK>
 VINA RESULT:      -4.6      4.085      7.540
  Name = 
  2 active torsions:
  status: ('A' for Active; 'I' for Inactive)
    1  A    between atoms: C_5  and  N_16
    2  A    between atoms: C_5  and  C_30
                            x       y       z     vdW  Elec       q    Type
                         _______ _______ _______ _____ _____    ______ ____

>  <TORSDO>
F 2

$$$$
=
 OpenBabel11122413123D

 31 35  0  0  1  0  0  0  0  0999 V2000
  160.7530  208.7850  155.9370 C   0  0  0  0  0  0  0  0  0  0  0  0
  162.0980  209.1730  152.4000 C   0  0  2  0  0  3  0  0  0  0  0  0
  161.6580  207.9480  151.6130 C   0  0  0  0  0  0  0  0  0  0  0  0
  160.9000  205.6380  151.5370 C   0  0  0  0  0  0  0  0  0  0  0  0
  161.2720  209.3630  153.6420 C   0  0  0  0  0  0  0  0  0  0  0  0
  159.6030  209.5780  155.8770 C   0  0  0  0  0  3  0  0  0  0  0  0
  161.2860  206.7640  152.2680 C   0  0  0  0  0  3  0  0  0  0  0  0
  160.6800  211.0690  151.4240 C   0  0  0  0  0  0  0  0  0  0  0  0
  161.0640  208.1020  157.1040 O   0  0  0  0  0  1  0  0  0  0  0  0
  162.1050  209.1120  149.5230 O   0  0  0  0  0  0  0  0  0  0  0  0
  160.4200  204.1760  152.3710 Cl  0  0  0  0  0  0  0  0  0  0  0  0
  159.8400  210.9300  152.4080 N   0  0  0  0  0  0  0  0  0  0  0  0
  162.0820  210.4640  151.5410 C   0  0  2  0  0  3  0  0  0  0  0  0
  160.3150  211.9800  150.3760 N   0  0  0  0  0  2  0  0  0  0  0  0
  161.5850  208.6720  154.8190 C   0  0  0  0  0  3  0  0  0  0  0  0
  160.8940  205.6800  150.1410 C   0  0  0  0  0  3  0  0  0  0  0  0
  160.1250  210.1680  153.5870 C   0  0  0  0  0  0  0  0  0  0  0  0
  159.2900  210.2710  154.7030 C   0  0  0  0  0  3  0  0  0  0  0  0
  162.7610  210.1800  150.2000 C   0  0  0  0  0  2  0  0  0  0  0  0
  161.6880  207.9680  150.2030 C   0  0  0  0  0  0  0  0  0  0  0  0
  161.2890  206.8420  149.4760 C   0  0  0  0  0  3  0  0  0  0  0  0
  160.9760  211.5720  148.0920 C   0  0  0  0  0  1  0  0  0  0  0  0
  161.1890  212.4520  149.3130 C   0  0  1  0  0  3  0  0  0  0  0  0
  158.7310  214.1090  146.9290 C   0  0  1  0  0  3  0  0  0  0  0  0
  159.5230  214.2740  149.2110 O   0  0  0  0  0  0  0  0  0  0  0  0
  162.5970  213.5970  146.9460 O   0  0  0  0  0  0  0  0  0  0  0  0
  157.6270  213.4870  146.1030 C   0  0  0  0  0  1  0  0  0  0  0  0
  158.6910  213.5360  148.3420 C   0  0  0  0  0  2  0  0  0  0  0  0
  161.3940  214.4530  147.3150 S   0  0  2  0  0  0  0  0  0  0  0  0
  160.8760  213.9240  148.9820 C   0  0  2  0  0  3  0  0  0  0  0  0
  160.0720  213.7950  146.2860 C   0  0  0  0  0  2  0  0  0  0  0  0
  1  9  1  0  0  0  0
  2  3  1  6  0  0  0
  2  5  1  0  0  0  0
  3  7  1  0  0  0  0
  4  7  2  0  0  0  0
  4 11  1  0  0  0  0
  5 15  1  0  0  0  0
  6  1  1  0  0  0  0
  8 13  1  0  0  0  0
  8 12  2  0  0  0  0
 10 19  1  0  0  0  0
 10 20  1  0  0  0  0
 12 17  1  0  0  0  0
 13 19  1  6  0  0  0
 13  2  1  0  0  0  0
 14  8  1  0  0  0  0
 15  1  2  0  0  0  0
 16  4  1  0  0  0  0
 17  5  2  0  0  0  0
 17 18  1  0  0  0  0
 18  6  2  0  0  0  0
 20  3  2  0  0  0  0
 21 16  2  0  0  0  0
 21 20  1  0  0  0  0
 23 22  1  6  0  0  0
 23 14  1  0  0  0  0
 24 27  1  6  0  0  0
 24 28  1  0  0  0  0
 28 25  1  0  0  0  0
 29 26  2  6  0  0  0
 29 30  1  0  0  0  0
 30 25  1  0  0  0  0
 30 23  1  6  0  0  0
 31 24  1  0  0  0  0
 31 29  1  0  0  0  0
M  END
>  <MODEL>
5

>  <REMARK>
 VINA RESULT:      -4.3      3.520      7.015
  Name = 
  2 active torsions:
  status: ('A' for Active; 'I' for Inactive)
    1  A    between atoms: C_5  and  N_16
    2  A    between atoms: C_5  and  C_30
                            x       y       z     vdW  Elec       q    Type
                         _______ _______ _______ _____ _____    ______ ____

>  <TORSDO>
F 2

$$$$
=
 OpenBabel11122413123D

 31 35  0  0  1  0  0  0  0  0999 V2000
  161.9180  203.4800  152.0100 C   0  0  0  0  0  0  0  0  0  0  0  0
  162.5800  207.1460  151.2400 C   0  0  2  0  0  3  0  0  0  0  0  0
  162.0820  207.4080  149.8270 C   0  0  0  0  0  0  0  0  0  0  0  0
  161.4660  206.6050  147.6150 C   0  0  0  0  0  0  0  0  0  0  0  0
  161.9810  205.8950  151.8190 C   0  0  0  0  0  0  0  0  0  0  0  0
  160.7300  203.5690  152.7410 C   0  0  0  0  0  3  0  0  0  0  0  0
  161.9070  206.3540  148.9170 C   0  0  0  0  0  3  0  0  0  0  0  0
  160.8970  208.3830  152.7210 C   0  0  0  0  0  0  0  0  0  0  0  0
  162.4750  202.2390  151.7400 O   0  0  0  0  0  1  0  0  0  0  0  0
  162.0740  209.8030  150.2560 O   0  0  0  0  0  0  0  0  0  0  0  0
  161.2340  205.2770  146.4990 Cl  0  0  0  0  0  0  0  0  0  0  0  0
  160.2560  207.2660  152.9060 N   0  0  0  0  0  0  0  0  0  0  0  0
  162.3310  208.3500  152.1860 C   0  0  2  0  0  3  0  0  0  0  0  0
  160.2940  209.5770  153.2460 N   0  0  0  0  0  2  0  0  0  0  0  0
  162.5410  204.6420  151.5440 C   0  0  0  0  0  3  0  0  0  0  0  0
  161.2060  207.9150  147.2050 C   0  0  0  0  0  3  0  0  0  0  0  0
  160.7950  205.9830  152.5630 C   0  0  0  0  0  0  0  0  0  0  0  0
  160.1690  204.8200  153.0190 C   0  0  0  0  0  3  0  0  0  0  0  0
  162.7740  209.6350  151.4860 C   0  0  0  0  0  2  0  0  0  0  0  0
  161.8570  208.7310  149.3920 C   0  0  0  0  0  0  0  0  0  0  0  0
  161.4040  208.9750  148.0920 C   0  0  0  0  0  3  0  0  0  0  0  0
  160.2420  211.8300  152.3860 C   0  0  0  0  0  1  0  0  0  0  0  0
  160.9320  210.8800  153.3510 C   0  0  1  0  0  3  0  0  0  0  0  0
  160.9010  209.1580  156.7430 C   0  0  1  0  0  3  0  0  0  0  0  0
  161.9310  211.0310  155.6070 O   0  0  0  0  0  0  0  0  0  0  0  0
  158.2010  210.9200  154.5490 O   0  0  0  0  0  0  0  0  0  0  0  0
  161.1430  207.7030  157.0840 C   0  0  0  0  0  1  0  0  0  0  0  0
  161.9560  209.6260  155.7470 C   0  0  0  0  0  2  0  0  0  0  0  0
  159.2610  211.0140  155.6370 S   0  0  2  0  0  0  0  0  0  0  0  0
  160.8310  211.4060  154.7960 C   0  0  2  0  0  3  0  0  0  0  0  0
  159.5170  209.3020  156.1310 C   0  0  0  0  0  2  0  0  0  0  0  0
  1  6  1  0  0  0  0
  2  3  1  6  0  0  0
  2  5  1  0  0  0  0
  2 13  1  0  0  0  0
  4  7  1  0  0  0  0
  5 17  2  0  0  0  0
  6 18  2  0  0  0  0
  7  3  2  0  0  0  0
  8 12  2  0  0  0  0
  8 14  1  0  0  0  0
  9  1  1  0  0  0  0
 10 19  1  0  0  0  0
 11  4  1  0  0  0  0
 13 19  1  6  0  0  0
 13  8  1  0  0  0  0
 14 23  1  0  0  0  0
 15  5  1  0  0  0  0
 15  1  2  0  0  0  0
 16  4  2  0  0  0  0
 16 21  1  0  0  0  0
 17 12  1  0  0  0  0
 17 18  1  0  0  0  0
 20  3  1  0  0  0  0
 20 10  1  0  0  0  0
 21 20  2  0  0  0  0
 23 22  1  6  0  0  0
 24 27  1  6  0  0  0
 25 28  1  0  0  0  0
 28 24  1  0  0  0  0
 29 26  2  6  0  0  0
 29 31  1  0  0  0  0
 30 23  1  6  0  0  0
 30 25  1  0  0  0  0
 30 29  1  0  0  0  0
 31 24  1  0  0  0  0
M  END
>  <MODEL>
6

>  <REMARK>
 VINA RESULT:      -3.2      2.978      5.324
  Name = 
  2 active torsions:
  status: ('A' for Active; 'I' for Inactive)
    1  A    between atoms: C_5  and  N_16
    2  A    between atoms: C_5  and  C_30
                            x       y       z     vdW  Elec       q    Type
                         _______ _______ _______ _____ _____    ______ ____

>  <TORSDO>
F 2

$$$$
=
 OpenBabel11122413123D

 31 35  0  0  1  0  0  0  0  0999 V2000
  162.0860  212.7920  142.6900 C   0  0  0  0  0  0  0  0  0  0  0  0
  160.7640  211.8180  139.2590 C   0  0  2  0  0  3  0  0  0  0  0  0
  160.9670  210.3190  139.1060 C   0  0  0  0  0  0  0  0  0  0  0  0
  162.0950  208.2580  139.7370 C   0  0  0  0  0  0  0  0  0  0  0  0
  160.8180  212.2440  140.7000 C   0  0  0  0  0  0  0  0  0  0  0  0
  160.9030  212.8350  143.4330 C   0  0  0  0  0  3  0  0  0  0  0  0
  161.9020  209.6330  139.8960 C   0  0  0  0  0  3  0  0  0  0  0  0
  158.2270  212.0720  139.5000 C   0  0  0  0  0  0  0  0  0  0  0  0
  163.3030  213.0400  143.3090 O   0  0  0  0  0  1  0  0  0  0  0  0
  159.3640  210.2730  137.2750 O   0  0  0  0  0  0  0  0  0  0  0  0
  163.2510  207.4150  140.7440 Cl  0  0  0  0  0  0  0  0  0  0  0  0
  158.3670  212.1150  140.7930 N   0  0  0  0  0  0  0  0  0  0  0  0
  159.4460  212.3060  138.6030 C   0  0  2  0  0  3  0  0  0  0  0  0
  156.8860  212.0300  138.9880 N   0  0  0  0  0  2  0  0  0  0  0  0
  162.0460  212.4910  141.3260 C   0  0  0  0  0  3  0  0  0  0  0  0
  161.3620  207.5560  138.7770 C   0  0  0  0  0  3  0  0  0  0  0  0
  159.6300  212.2990  141.4440 C   0  0  0  0  0  0  0  0  0  0  0  0
  159.6740  212.5910  142.8100 C   0  0  0  0  0  3  0  0  0  0  0  0
  159.3280  211.6960  137.2060 C   0  0  0  0  0  2  0  0  0  0  0  0
  160.2610  209.6090  138.1120 C   0  0  0  0  0  0  0  0  0  0  0  0
  160.4480  208.2320  137.9650 C   0  0  0  0  0  3  0  0  0  0  0  0
  156.1910  210.8330  137.0120 C   0  0  0  0  0  1  0  0  0  0  0  0
  156.4980  212.2030  137.5970 C   0  0  1  0  0  3  0  0  0  0  0  0
  154.5420  214.2010  140.1760 C   0  0  1  0  0  3  0  0  0  0  0  0
  155.5100  214.4370  137.9700 O   0  0  0  0  0  0  0  0  0  0  0  0
  153.8590  210.9320  138.1620 O   0  0  0  0  0  0  0  0  0  0  0  0
  154.8540  214.4490  141.6360 C   0  0  0  0  0  1  0  0  0  0  0  0
  155.8080  214.3970  139.3490 C   0  0  0  0  0  2  0  0  0  0  0  0
  153.7530  212.4470  138.2630 S   0  0  2  0  0  0  0  0  0  0  0  0
  155.2660  213.1230  137.4990 C   0  0  2  0  0  3  0  0  0  0  0  0
  154.0360  212.7780  140.0100 C   0  0  0  0  0  2  0  0  0  0  0  0
  1  9  1  0  0  0  0
  1  6  1  0  0  0  0
  2  3  1  1  0  0  0
  2  5  1  0  0  0  0
  3  7  1  0  0  0  0
  4  7  2  0  0  0  0
  4 11  1  0  0  0  0
  5 15  1  0  0  0  0
  5 17  2  0  0  0  0
  8 12  2  0  0  0  0
 10 20  1  0  0  0  0
 12 17  1  0  0  0  0
 13 19  1  6  0  0  0
 13  2  1  0  0  0  0
 13  8  1  0  0  0  0
 14  8  1  0  0  0  0
 15  1  2  0  0  0  0
 16  4  1  0  0  0  0
 17 18  1  0  0  0  0
 18  6  2  0  0  0  0
 19 10  1  0  0  0  0
 20  3  2  0  0  0  0
 21 20  1  0  0  0  0
 21 16  2  0  0  0  0
 23 22  1  1  0  0  0
 23 14  1  0  0  0  0
 24 27  1  1  0  0  0
 25 28  1  0  0  0  0
 28 24  1  0  0  0  0
 29 26  2  1  0  0  0
 29 31  1  0  0  0  0
 30 23  1  1  0  0  0
 30 25  1  0  0  0  0
 30 29  1  0  0  0  0
 31 24  1  0  0  0  0
M  END
>  <MODEL>
7

>  <REMARK>
 VINA RESULT:      -2.9     10.084     12.925
  Name = 
  2 active torsions:
  status: ('A' for Active; 'I' for Inactive)
    1  A    between atoms: C_5  and  N_16
    2  A    between atoms: C_5  and  C_30
                            x       y       z     vdW  Elec       q    Type
                         _______ _______ _______ _____ _____    ______ ____

>  <TORSDO>
F 2

$$$$
=
 OpenBabel11122413123D

 31 35  0  0  1  0  0  0  0  0999 V2000
  161.3890  203.3620  146.0910 C   0  0  0  0  0  0  0  0  0  0  0  0
  160.5170  205.9030  148.7840 C   0  0  2  0  0  3  0  0  0  0  0  0
  161.0100  205.3440  150.1100 C   0  0  0  0  0  0  0  0  0  0  0  0
  161.6940  203.4630  151.4930 C   0  0  0  0  0  0  0  0  0  0  0  0
  161.1840  205.2350  147.6140 C   0  0  0  0  0  0  0  0  0  0  0  0
  162.5630  203.9140  145.5700 C   0  0  0  0  0  3  0  0  0  0  0  0
  161.2560  203.9710  150.2670 C   0  0  0  0  0  3  0  0  0  0  0  0
  162.1090  207.8510  148.3090 C   0  0  0  0  0  0  0  0  0  0  0  0
  160.9090  202.1580  145.5960 O   0  0  0  0  0  1  0  0  0  0  0  0
  160.8720  207.5570  151.1130 O   0  0  0  0  0  0  0  0  0  0  0  0
  162.0140  201.7510  151.6650 Cl  0  0  0  0  0  0  0  0  0  0  0  0
  162.8130  207.0710  147.5410 N   0  0  0  0  0  0  0  0  0  0  0  0
  160.6840  207.4420  148.6930 C   0  0  2  0  0  3  0  0  0  0  0  0
  162.6350  209.1620  148.5680 N   0  0  0  0  0  2  0  0  0  0  0  0
  160.7020  204.0190  147.1160 C   0  0  0  0  0  3  0  0  0  0  0  0
  161.8780  204.3220  152.5790 C   0  0  0  0  0  3  0  0  0  0  0  0
  162.3560  205.7940  147.0820 C   0  0  0  0  0  0  0  0  0  0  0  0
  163.0450  205.1300  146.0640 C   0  0  0  0  0  3  0  0  0  0  0  0
  160.1720  208.0770  149.9860 C   0  0  0  0  0  2  0  0  0  0  0  0
  161.1600  206.1960  151.2230 C   0  0  0  0  0  0  0  0  0  0  0  0
  161.6100  205.6850  152.4440 C   0  0  0  0  0  3  0  0  0  0  0  0
  162.3820  210.3590  150.6480 C   0  0  0  0  0  1  0  0  0  0  0  0
  161.9190  210.2580  149.2030 C   0  0  1  0  0  3  0  0  0  0  0  0
  160.0960  213.5950  149.0740 C   0  0  1  0  0  3  0  0  0  0  0  0
  162.3300  212.6920  149.3140 O   0  0  0  0  0  0  0  0  0  0  0  0
  160.5040  210.6070  146.6010 O   0  0  0  0  0  0  0  0  0  0  0  0
  158.9230  214.0800  149.8970 C   0  0  0  0  0  1  0  0  0  0  0  0
  161.1120  212.9200  149.9910 C   0  0  0  0  0  2  0  0  0  0  0  0
  161.0040  211.9490  147.1190 S   0  0  2  0  0  0  0  0  0  0  0  0
  162.1910  211.5760  148.4530 C   0  0  2  0  0  3  0  0  0  0  0  0
  159.6000  212.6000  148.0380 C   0  0  0  0  0  2  0  0  0  0  0  0
  1 15  1  0  0  0  0
  2  5  1  6  0  0  0
  2  3  1  0  0  0  0
  3  7  2  0  0  0  0
  3 20  1  0  0  0  0
  4 11  1  0  0  0  0
  4 16  2  0  0  0  0
  6 18  1  0  0  0  0
  6  1  2  0  0  0  0
  7  4  1  0  0  0  0
  8 14  1  0  0  0  0
  8 13  1  0  0  0  0
  9  1  1  0  0  0  0
 10 20  1  0  0  0  0
 12  8  2  0  0  0  0
 13  2  1  0  0  0  0
 13 19  1  1  0  0  0
 14 23  1  0  0  0  0
 15  5  2  0  0  0  0
 17 12  1  0  0  0  0
 17  5  1  0  0  0  0
 18 17  2  0  0  0  0
 19 10  1  0  0  0  0
 20 21  2  0  0  0  0
 21 16  1  0  0  0  0
 23 22  1  1  0  0  0
 24 27  1  1  0  0  0
 24 28  1  0  0  0  0
 25 28  1  0  0  0  0
 29 26  2  1  0  0  0
 29 31  1  0  0  0  0
 29 30  1  0  0  0  0
 30 23  1  1  0  0  0
 30 25  1  0  0  0  0
 31 24  1  0  0  0  0
M  END
>  <MODEL>
8

>  <REMARK>
 VINA RESULT:      -2.5      2.430      3.113
  Name = 
  2 active torsions:
  status: ('A' for Active; 'I' for Inactive)
    1  A    between atoms: C_5  and  N_16
    2  A    between atoms: C_5  and  C_30
                            x       y       z     vdW  Elec       q    Type
                         _______ _______ _______ _____ _____    ______ ____

>  <TORSDO>
F 2

$$$$
