=
 OpenBabel11122413043D

 32 37  0  0  1  0  0  0  0  0999 V2000
  159.8270  211.2470  154.6240 C   0  0  1  0  0  3  0  0  0  0  0  0
  160.2690  212.8500  150.0370 C   0  0  0  0  0  3  0  0  0  0  0  0
  158.9930  213.4070  150.1250 C   0  0  0  0  0  3  0  0  0  0  0  0
  158.0240  212.2420  156.1280 C   0  0  2  0  0  3  0  0  0  0  0  0
  156.5870  212.4610  155.8710 N   0  0  2  0  0  0  0  0  0  0  0  0
  161.1470  209.5880  155.4060 C   0  0  2  0  0  3  0  0  0  0  0  0
  161.8370  210.7020  153.2610 O   0  0  0  0  0  0  0  0  0  0  0  0
  155.0190  212.8940  154.0870 C   0  0  2  0  0  3  0  0  0  0  0  0
  160.8240  212.2710  151.1340 N   0  0  0  0  0  0  0  0  0  0  0  0
  160.8300  211.6650  153.5460 C   0  0  1  0  0  3  0  0  0  0  0  0
  160.1550  212.2120  152.3160 C   0  0  0  0  0  0  0  0  0  0  0  0
  158.0690  212.6830  153.6830 C   0  0  2  0  0  3  0  0  0  0  0  0
  155.1170  211.4000  154.2590 C   0  0  0  0  0  2  0  0  0  0  0  0
  161.6370  209.4630  153.9330 C   0  0  2  0  0  3  0  0  0  0  0  0
  155.9810  211.1860  155.4910 C   0  0  0  0  0  2  0  0  0  0  0  0
  158.3250  213.3710  151.3070 N   0  0  0  0  0  0  0  0  0  0  0  0
  158.8810  212.8130  152.4160 C   0  0  0  0  0  0  0  0  0  0  0  0
  157.2850  213.8130  153.9350 O   0  0  0  0  0  0  0  0  0  0  0  0
  160.5680  210.8380  155.7360 O   0  0  0  0  0  0  0  0  0  0  0  0
  158.4870  213.1400  157.2580 C   0  0  0  0  0  1  0  0  0  0  0  0
  155.0260  213.2290  152.7310 O   0  0  0  0  0  1  0  0  0  0  0  0
  158.9280  212.4390  154.9100 C   0  0  2  0  0  3  0  0  0  0  0  0
  156.2310  213.4480  154.8200 C   0  0  2  0  0  3  0  0  0  0  0  0
  161.0030  208.6780  151.7070 C   0  0  0  0  0  2  0  0  0  0  0  0
  160.7080  208.5650  153.1300 C   0  0  1  0  0  3  0  0  0  0  0  0
  161.5010  207.5210  152.4640 N   0  0  0  0  0  0  0  0  0  0  0  0
  160.5920  206.4200  152.1970 C   0  0  0  0  0  2  0  0  0  0  0  0
  161.2240  205.4540  151.2500 C   0  0  0  0  0  0  0  0  0  0  0  0
  160.8770  205.5020  149.8030 C   0  0  0  0  0  1  0  0  0  0  0  0
  162.0110  204.6170  151.6590 O   0  0  0  0  0  0  0  0  0  0  0  0
  163.1130  210.4270  156.4620 O   0  0  0  0  0  1  0  0  0  0  0  0
  162.3020  209.2990  156.3450 C   0  0  0  0  0  2  0  0  0  0  0  0
  1 22  1  0  0  0  0
  1 19  1  1  0  0  0
  2  3  2  0  0  0  0
  2  9  1  0  0  0  0
  3 16  1  0  0  0  0
  4 20  1  1  0  0  0
  5 15  1  6  0  0  0
  5  4  1  0  0  0  0
  6 19  1  0  0  0  0
  6 32  1  1  0  0  0
  7 10  1  0  0  0  0
  8 21  1  6  0  0  0
  8 13  1  0  0  0  0
  8 23  1  0  0  0  0
  9 11  2  0  0  0  0
 10 11  1  6  0  0  0
 10  1  1  0  0  0  0
 11 17  1  0  0  0  0
 12 17  1  6  0  0  0
 12 18  1  0  0  0  0
 12 22  1  0  0  0  0
 13 15  1  0  0  0  0
 14  7  1  6  0  0  0
 14  6  1  0  0  0  0
 16 17  2  0  0  0  0
 18 23  1  0  0  0  0
 22  4  1  0  0  0  0
 23  5  1  0  0  0  0
 24 26  1  0  0  0  0
 24 25  1  0  0  0  0
 25 14  1  0  0  0  0
 26 25  1  0  0  0  0
 27 26  1  0  0  0  0
 28 30  2  0  0  0  0
 28 27  1  0  0  0  0
 29 28  1  0  0  0  0
 32 31  1  0  0  0  0
M  END
>  <MODEL>
1

>  <REMARK>
 VINA RESULT:      -4.2      0.000      0.000
  Name = 
  4 active torsions:
  status: ('A' for Active; 'I' for Inactive)
    1  A    between atoms: C_7  and  C_19
    2  A    between atoms: C_10  and  C_17
    3  A    between atoms: N_20  and  C_29
    4  A    between atoms: C_29  and  C_30
                            x       y       z     vdW  Elec       q    Type
                         _______ _______ _______ _____ _____    ______ ____

>  <TORSDO>
F 4

$$$$
=
 OpenBabel11122413043D

 32 37  0  0  1  0  0  0  0  0999 V2000
  160.4250  211.8360  150.5440 C   0  0  1  0  0  3  0  0  0  0  0  0
  163.7690  212.2300  147.0120 C   0  0  0  0  0  3  0  0  0  0  0  0
  162.8500  212.9440  146.2420 C   0  0  0  0  0  3  0  0  0  0  0  0
  158.3910  213.3740  150.5170 C   0  0  2  0  0  3  0  0  0  0  0  0
  157.4610  213.6990  149.4180 N   0  0  2  0  0  0  0  0  0  0  0  0
  160.6190  210.2630  152.1550 C   0  0  2  0  0  3  0  0  0  0  0  0
  162.6500  210.7390  150.7530 O   0  0  0  0  0  0  0  0  0  0  0  0
  157.3470  213.8820  147.0130 C   0  0  2  0  0  3  0  0  0  0  0  0
  163.4420  211.8670  148.2800 N   0  0  0  0  0  0  0  0  0  0  0  0
  161.9280  211.8580  150.2530 C   0  0  1  0  0  3  0  0  0  0  0  0
  162.2290  212.1740  148.8120 C   0  0  0  0  0  0  0  0  0  0  0  0
  159.9240  213.2090  148.5680 C   0  0  2  0  0  3  0  0  0  0  0  0
  156.9670  212.4710  147.3850 C   0  0  0  0  0  2  0  0  0  0  0  0
  161.8120  209.7310  151.3070 C   0  0  2  0  0  3  0  0  0  0  0  0
  156.8930  212.4540  148.9030 C   0  0  0  0  0  2  0  0  0  0  0  0
  161.6430  213.2730  146.7730 N   0  0  0  0  0  0  0  0  0  0  0  0
  161.3150  212.9330  148.0480 C   0  0  0  0  0  0  0  0  0  0  0  0
  159.4360  214.4530  148.1570 O   0  0  0  0  0  0  0  0  0  0  0  0
  160.2760  211.6170  151.9150 O   0  0  0  0  0  0  0  0  0  0  0  0
  158.3290  214.4520  151.5800 C   0  0  0  0  0  1  0  0  0  0  0  0
  158.2050  213.8790  145.9110 O   0  0  0  0  0  1  0  0  0  0  0  0
  159.8430  213.1620  150.0820 C   0  0  2  0  0  3  0  0  0  0  0  0
  158.0160  214.4420  148.2590 C   0  0  2  0  0  3  0  0  0  0  0  0
  162.4310  207.9930  149.7040 C   0  0  0  0  0  2  0  0  0  0  0  0
  161.3220  208.7870  150.2190 C   0  0  1  0  0  3  0  0  0  0  0  0
  161.4950  207.3980  150.6700 N   0  0  0  0  0  0  0  0  0  0  0  0
  160.5540  206.5970  149.9060 C   0  0  0  0  0  2  0  0  0  0  0  0
  161.0380  205.1870  149.8200 C   0  0  0  0  0  0  0  0  0  0  0  0
  161.2890  204.4120  151.0660 C   0  0  0  0  0  1  0  0  0  0  0  0
  161.2430  204.6730  148.7320 O   0  0  0  0  0  0  0  0  0  0  0  0
  159.7560  210.2170  154.3760 O   0  0  0  0  0  1  0  0  0  0  0  0
  160.9230  210.0670  153.6270 C   0  0  0  0  0  2  0  0  0  0  0  0
  1 19  1  1  0  0  0
  2  9  1  0  0  0  0
  3 16  1  0  0  0  0
  3  2  2  0  0  0  0
  4 20  1  1  0  0  0
  5 15  1  6  0  0  0
  5  4  1  0  0  0  0
  6 32  1  1  0  0  0
  8 21  1  6  0  0  0
  8 13  1  0  0  0  0
  8 23  1  0  0  0  0
  9 11  2  0  0  0  0
 10 11  1  6  0  0  0
 10  1  1  0  0  0  0
 10  7  1  0  0  0  0
 12 17  1  1  0  0  0
 12 22  1  0  0  0  0
 13 15  1  0  0  0  0
 14  7  1  6  0  0  0
 14  6  1  0  0  0  0
 16 17  2  0  0  0  0
 17 11  1  0  0  0  0
 18 23  1  0  0  0  0
 18 12  1  0  0  0  0
 19  6  1  0  0  0  0
 22  4  1  0  0  0  0
 22  1  1  0  0  0  0
 23  5  1  0  0  0  0
 24 25  1  0  0  0  0
 24 26  1  0  0  0  0
 25 26  1  0  0  0  0
 25 14  1  0  0  0  0
 27 26  1  0  0  0  0
 28 27  1  0  0  0  0
 28 29  1  0  0  0  0
 30 28  2  0  0  0  0
 32 31  1  0  0  0  0
M  END
>  <MODEL>
2

>  <REMARK>
 VINA RESULT:      -2.9      3.288      4.796
  Name = 
  4 active torsions:
  status: ('A' for Active; 'I' for Inactive)
    1  A    between atoms: C_7  and  C_19
    2  A    between atoms: C_10  and  C_17
    3  A    between atoms: N_20  and  C_29
    4  A    between atoms: C_29  and  C_30
                            x       y       z     vdW  Elec       q    Type
                         _______ _______ _______ _____ _____    ______ ____

>  <TORSDO>
F 4

$$$$
=
 OpenBabel11122413043D

 32 37  0  0  1  0  0  0  0  0999 V2000
  160.9870  210.1990  151.9370 C   0  0  1  0  0  3  0  0  0  0  0  0
  163.0940  212.0160  147.9290 C   0  0  0  0  0  3  0  0  0  0  0  0
  162.2070  213.0920  147.9680 C   0  0  0  0  0  3  0  0  0  0  0  0
  159.5170  211.7100  153.3710 C   0  0  2  0  0  3  0  0  0  0  0  0
  158.4190  212.6160  152.9800 N   0  0  2  0  0  0  0  0  0  0  0  0
  161.2370  208.0230  152.4940 C   0  0  2  0  0  3  0  0  0  0  0  0
  162.8020  208.9620  150.7670 O   0  0  0  0  0  0  0  0  0  0  0  0
  157.6390  213.9790  151.1460 C   0  0  2  0  0  3  0  0  0  0  0  0
  163.0810  211.0990  148.9310 N   0  0  0  0  0  0  0  0  0  0  0  0
  162.2830  210.2370  151.1240 C   0  0  1  0  0  3  0  0  0  0  0  0
  162.2090  211.2010  149.9690 C   0  0  0  0  0  0  0  0  0  0  0  0
  160.2930  212.4090  151.1160 C   0  0  2  0  0  3  0  0  0  0  0  0
  157.0320  212.6080  150.9890 C   0  0  0  0  0  2  0  0  0  0  0  0
  161.9370  207.8860  151.1100 C   0  0  2  0  0  3  0  0  0  0  0  0
  157.4170  211.8440  152.2450 C   0  0  0  0  0  2  0  0  0  0  0  0
  161.3460  213.2130  149.0120 N   0  0  0  0  0  0  0  0  0  0  0  0
  161.3400  212.3130  150.0310 C   0  0  0  0  0  0  0  0  0  0  0  0
  160.0480  213.7290  151.5080 O   0  0  0  0  0  0  0  0  0  0  0  0
  161.2060  209.3400  153.0160 O   0  0  0  0  0  0  0  0  0  0  0  0
  160.0620  212.1180  154.7250 C   0  0  0  0  0  1  0  0  0  0  0  0
  158.0930  214.4530  149.9140 O   0  0  0  0  0  1  0  0  0  0  0  0
  160.6620  211.6230  152.3600 C   0  0  2  0  0  3  0  0  0  0  0  0
  158.7740  213.7870  152.1400 C   0  0  2  0  0  3  0  0  0  0  0  0
  161.3870  208.2190  148.7520 C   0  0  0  0  0  2  0  0  0  0  0  0
  160.9130  207.6530  150.0090 C   0  0  1  0  0  3  0  0  0  0  0  0
  161.4950  206.7720  148.9850 N   0  0  0  0  0  0  0  0  0  0  0  0
  160.3790  206.1490  148.2940 C   0  0  0  0  0  2  0  0  0  0  0  0
  160.8470  205.5450  147.0120 C   0  0  0  0  0  0  0  0  0  0  0  0
  161.6270  204.2770  147.0320 C   0  0  0  0  0  1  0  0  0  0  0  0
  160.6060  206.0940  145.9490 O   0  0  0  0  0  0  0  0  0  0  0  0
  161.2680  205.8570  153.4880 O   0  0  0  0  0  1  0  0  0  0  0  0
  161.9070  207.0970  153.4900 C   0  0  0  0  0  2  0  0  0  0  0  0
  1 22  1  0  0  0  0
  1 19  1  1  0  0  0
  2  3  2  0  0  0  0
  2  9  1  0  0  0  0
  3 16  1  0  0  0  0
  4 20  1  1  0  0  0
  5 15  1  6  0  0  0
  5  4  1  0  0  0  0
  6 19  1  0  0  0  0
  6 32  1  1  0  0  0
  7 10  1  0  0  0  0
  8 21  1  6  0  0  0
  8 23  1  0  0  0  0
  9 11  2  0  0  0  0
 10 11  1  6  0  0  0
 10  1  1  0  0  0  0
 11 17  1  0  0  0  0
 12 17  1  6  0  0  0
 12 18  1  0  0  0  0
 12 22  1  0  0  0  0
 13  8  1  0  0  0  0
 13 15  1  0  0  0  0
 14  7  1  6  0  0  0
 14  6  1  0  0  0  0
 16 17  2  0  0  0  0
 18 23  1  0  0  0  0
 22  4  1  0  0  0  0
 23  5  1  0  0  0  0
 24 26  1  0  0  0  0
 24 25  1  0  0  0  0
 25 14  1  0  0  0  0
 26 25  1  0  0  0  0
 27 26  1  0  0  0  0
 28 29  1  0  0  0  0
 28 27  1  0  0  0  0
 30 28  2  0  0  0  0
 31 32  1  0  0  0  0
M  END
>  <MODEL>
3

>  <REMARK>
 VINA RESULT:      -2.4      2.579      3.716
  Name = 
  4 active torsions:
  status: ('A' for Active; 'I' for Inactive)
    1  A    between atoms: C_7  and  C_19
    2  A    between atoms: C_10  and  C_17
    3  A    between atoms: N_20  and  C_29
    4  A    between atoms: C_29  and  C_30
                            x       y       z     vdW  Elec       q    Type
                         _______ _______ _______ _____ _____    ______ ____

>  <TORSDO>
F 4

$$$$
=
 OpenBabel11122413043D

 32 37  0  0  1  0  0  0  0  0999 V2000
  160.8150  210.0430  152.2080 C   0  0  1  0  0  3  0  0  0  0  0  0
  161.3650  208.7790  156.8890 C   0  0  0  0  0  3  0  0  0  0  0  0
  161.6350  207.4700  156.4880 C   0  0  0  0  0  3  0  0  0  0  0  0
  161.7130  208.5050  150.3840 C   0  0  2  0  0  3  0  0  0  0  0  0
  161.5480  207.0500  150.2020 N   0  0  2  0  0  0  0  0  0  0  0  0
  159.7120  211.9310  151.6380 C   0  0  2  0  0  3  0  0  0  0  0  0
  160.4200  211.6850  154.0370 O   0  0  0  0  0  0  0  0  0  0  0  0
  161.2010  205.0050  151.4390 C   0  0  2  0  0  3  0  0  0  0  0  0
  161.1920  209.7460  155.9490 N   0  0  0  0  0  0  0  0  0  0  0  0
  161.1790  210.5640  153.6010 C   0  0  1  0  0  3  0  0  0  0  0  0
  161.2640  209.4610  154.6220 C   0  0  0  0  0  0  0  0  0  0  0  0
  161.5730  207.7700  152.7540 C   0  0  2  0  0  3  0  0  0  0  0  0
  159.8460  205.5570  151.0770 C   0  0  0  0  0  2  0  0  0  0  0  0
  159.3580  212.0240  153.1520 C   0  0  2  0  0  3  0  0  0  0  0  0
  160.1190  206.7430  150.1660 C   0  0  0  0  0  2  0  0  0  0  0  0
  161.7290  207.1810  155.1640 N   0  0  0  0  0  0  0  0  0  0  0  0
  161.5800  208.1450  154.2170 C   0  0  0  0  0  0  0  0  0  0  0  0
  162.5310  206.8000  152.4450 O   0  0  0  0  0  0  0  0  0  0  0  0
  160.8470  211.1370  151.3410 O   0  0  0  0  0  0  0  0  0  0  0  0
  162.9280  208.9840  149.6150 C   0  0  0  0  0  1  0  0  0  0  0  0
  161.2060  204.5560  152.7620 O   0  0  0  0  0  1  0  0  0  0  0  0
  161.8150  208.9580  151.8410 C   0  0  2  0  0  3  0  0  0  0  0  0
  162.1610  206.1660  151.2260 C   0  0  2  0  0  3  0  0  0  0  0  0
  158.1140  210.8130  154.8720 C   0  0  0  0  0  2  0  0  0  0  0  0
  158.1170  211.2020  153.4680 C   0  0  1  0  0  3  0  0  0  0  0  0
  157.2800  211.9380  154.4270 N   0  0  0  0  0  0  0  0  0  0  0  0
  155.9290  211.4260  154.2720 C   0  0  0  0  0  2  0  0  0  0  0  0
  155.3770  211.0350  155.6030 C   0  0  0  0  0  0  0  0  0  0  0  0
  155.5100  211.9610  156.7620 C   0  0  0  0  0  1  0  0  0  0  0  0
  154.8320  209.9530  155.7480 O   0  0  0  0  0  0  0  0  0  0  0  0
  160.4650  213.2570  149.8050 O   0  0  0  0  0  1  0  0  0  0  0  0
  159.9080  213.3280  151.0820 C   0  0  0  0  0  2  0  0  0  0  0  0
  1 19  1  6  0  0  0
  1 10  1  0  0  0  0
  3  2  1  0  0  0  0
  4 20  1  6  0  0  0
  4 22  1  0  0  0  0
  5 15  1  1  0  0  0
  5  4  1  0  0  0  0
  5 23  1  0  0  0  0
  6 32  1  1  0  0  0
  6 14  1  0  0  0  0
  8 21  1  1  0  0  0
  9  2  2  0  0  0  0
 10  7  1  1  0  0  0
 10 11  1  0  0  0  0
 11  9  1  0  0  0  0
 12 18  1  1  0  0  0
 12 17  1  0  0  0  0
 13  8  1  0  0  0  0
 14 25  1  0  0  0  0
 14  7  1  1  0  0  0
 15 13  1  0  0  0  0
 16  3  2  0  0  0  0
 17 11  2  0  0  0  0
 17 16  1  0  0  0  0
 19  6  1  0  0  0  0
 22  1  1  0  0  0  0
 22 12  1  0  0  0  0
 23  8  1  0  0  0  0
 23 18  1  0  0  0  0
 25 26  1  0  0  0  0
 25 24  1  0  0  0  0
 26 24  1  0  0  0  0
 27 26  1  0  0  0  0
 27 28  1  0  0  0  0
 28 30  2  0  0  0  0
 28 29  1  0  0  0  0
 31 32  1  0  0  0  0
M  END
>  <MODEL>
4

>  <REMARK>
 VINA RESULT:      -1.7      2.169      7.363
  Name = 
  4 active torsions:
  status: ('A' for Active; 'I' for Inactive)
    1  A    between atoms: C_7  and  C_19
    2  A    between atoms: C_10  and  C_17
    3  A    between atoms: N_20  and  C_29
    4  A    between atoms: C_29  and  C_30
                            x       y       z     vdW  Elec       q    Type
                         _______ _______ _______ _____ _____    ______ ____

>  <TORSDO>
F 4

$$$$
