=
 OpenBabel11122414143D

 28 32  0  0  1  0  0  0  0  0999 V2000
  161.0050  208.4080  155.7590 C   0  0  2  0  0  3  0  0  0  0  0  0
  156.7580  210.3460  154.1340 O   0  0  0  0  0  1  0  0  0  0  0  0
  162.5570  210.8250  150.7300 O   0  0  0  0  0  0  0  0  0  0  0  0
  162.5520  210.7090  156.3130 C   0  0  0  0  0  2  0  0  0  0  0  0
  160.4390  211.6460  151.3310 N   0  0  0  0  0  0  0  0  0  0  0  0
  160.7580  207.1930  154.8610 C   0  0  0  0  0  2  0  0  0  0  0  0
  157.4930  210.3910  156.3880 C   0  0  0  0  0  1  0  0  0  0  0  0
  157.4920  211.1060  155.0490 C   0  0  1  0  0  0  0  0  0  0  0  0
  157.2880  213.5730  154.3040 C   0  0  2  0  0  3  0  0  0  0  0  0
  158.9440  211.2840  154.5530 C   0  0  2  0  0  3  0  0  0  0  0  0
  160.6960  206.0050  151.4160 C   0  0  0  0  0  1  0  0  0  0  0  0
  159.7310  209.8430  152.7190 C   0  0  1  0  0  3  0  0  0  0  0  0
  157.8360  213.0070  153.0020 C   0  0  0  0  0  2  0  0  0  0  0  0
  156.7940  212.4610  155.2400 C   0  0  0  0  0  2  0  0  0  0  0  0
  160.8330  207.2560  152.2560 C   0  0  2  0  0  3  0  0  0  0  0  0
  160.9670  209.7570  155.0050 C   0  0  2  0  0  3  0  0  0  0  0  0
  161.4730  210.6860  151.3560 C   0  0  0  0  0  0  0  0  0  0  0  0
  156.2420  214.4530  154.0330 O   0  0  0  0  0  1  0  0  0  0  0  0
  161.1880  208.3410  151.4310 O   0  0  0  0  0  0  0  0  0  0  0  0
  161.2140  210.8180  155.9020 O   0  0  0  0  0  0  0  0  0  0  0  0
  162.3310  208.2490  156.5080 C   0  0  0  0  0  2  0  0  0  0  0  0
  162.6950  209.5240  157.2600 C   0  0  0  0  0  2  0  0  0  0  0  0
  162.0470  206.9680  153.5870 S   0  0  0  0  0  0  0  0  0  0  0  0
  159.3110  211.1940  152.1210 C   0  0  1  0  0  3  0  0  0  0  0  0
  161.1540  209.5190  152.2020 C   0  0  2  0  0  3  0  0  0  0  0  0
  159.0640  212.1390  153.2820 C   0  0  2  0  0  3  0  0  0  0  0  0
  160.4200  212.8180  150.4720 C   0  0  0  0  0  1  0  0  0  0  0  0
  159.6270  209.9500  154.2510 C   0  0  1  0  0  3  0  0  0  0  0  0
  1  6  1  6  0  0  0
  1 21  1  0  0  0  0
  2  8  1  0  0  0  0
  3 17  2  0  0  0  0
  4 22  1  0  0  0  0
  5 17  1  0  0  0  0
  5 24  1  0  0  0  0
  8 14  1  0  0  0  0
  8  7  1  1  0  0  0
  9 18  1  6  0  0  0
  9 14  1  0  0  0  0
 10  8  1  0  0  0  0
 11 15  1  0  0  0  0
 12 28  1  0  0  0  0
 13 26  1  0  0  0  0
 13  9  1  0  0  0  0
 15 23  1  0  0  0  0
 16  1  1  0  0  0  0
 16 20  1  0  0  0  0
 17 25  1  0  0  0  0
 19 25  1  0  0  0  0
 19 15  1  0  0  0  0
 20  4  1  0  0  0  0
 21 22  1  0  0  0  0
 23  6  1  0  0  0  0
 24 12  1  0  0  0  0
 24 26  1  0  0  0  0
 25 12  1  0  0  0  0
 26 10  1  0  0  0  0
 27  5  1  0  0  0  0
 28 10  1  0  0  0  0
 28 16  1  0  0  0  0
M  END
>  <MODEL>
1

>  <REMARK>
 VINA RESULT:      -2.2      0.000      0.000
  Name = 
  0 active torsions:
  status: ('A' for Active; 'I' for Inactive)
                            x       y       z     vdW  Elec       q    Type
                         _______ _______ _______ _____ _____    ______ ____

>  <TORSDO>
F 0

$$$$
=
 OpenBabel11122414143D

 28 32  0  0  1  0  0  0  0  0999 V2000
  161.2160  210.4170  156.1710 C   0  0  2  0  0  3  0  0  0  0  0  0
  158.8070  211.4780  151.9880 O   0  0  0  0  0  1  0  0  0  0  0  0
  162.7910  206.0820  152.6680 O   0  0  0  0  0  0  0  0  0  0  0  0
  163.9190  210.8010  155.4320 C   0  0  0  0  0  2  0  0  0  0  0  0
  161.8050  207.7720  151.3670 N   0  0  0  0  0  0  0  0  0  0  0  0
  160.0930  209.4400  156.5330 C   0  0  0  0  0  2  0  0  0  0  0  0
  159.8800  213.0730  153.3750 C   0  0  0  0  0  1  0  0  0  0  0  0
  160.0270  212.1260  152.1980 C   0  0  1  0  0  0  0  0  0  0  0  0
  161.2150  212.2440  149.9050 C   0  0  2  0  0  3  0  0  0  0  0  0
  161.1370  211.0940  152.4960 C   0  0  2  0  0  3  0  0  0  0  0  0
  158.5800  206.2210  155.7370 C   0  0  0  0  0  1  0  0  0  0  0  0
  160.4650  208.7920  153.0530 C   0  0  1  0  0  3  0  0  0  0  0  0
  161.0080  210.7370  149.9540 C   0  0  0  0  0  2  0  0  0  0  0  0
  160.3620  212.9670  150.9560 C   0  0  0  0  0  2  0  0  0  0  0  0
  159.6280  207.2080  155.2690 C   0  0  2  0  0  3  0  0  0  0  0  0
  161.8470  210.1520  154.7850 C   0  0  2  0  0  3  0  0  0  0  0  0
  162.0140  207.0690  152.5720 C   0  0  0  0  0  0  0  0  0  0  0  0
  160.8950  212.7220  148.6350 O   0  0  0  0  0  1  0  0  0  0  0  0
  160.3830  206.6350  154.2280 O   0  0  0  0  0  0  0  0  0  0  0  0
  162.8750  211.0870  154.5370 O   0  0  0  0  0  0  0  0  0  0  0  0
  162.2920  210.4100  157.2610 C   0  0  0  0  0  2  0  0  0  0  0  0
  163.5090  211.2250  156.8380 C   0  0  0  0  0  2  0  0  0  0  0  0
  160.6650  207.7120  156.6830 S   0  0  0  0  0  0  0  0  0  0  0  0
  160.8380  208.8350  151.5640 C   0  0  1  0  0  3  0  0  0  0  0  0
  161.2410  207.6210  153.7030 C   0  0  2  0  0  3  0  0  0  0  0  0
  161.4760  210.1870  151.3020 C   0  0  2  0  0  3  0  0  0  0  0  0
  162.3190  207.3630  150.0710 C   0  0  0  0  0  1  0  0  0  0  0  0
  160.7800  210.1710  153.6620 C   0  0  1  0  0  3  0  0  0  0  0  0
  1  6  1  1  0  0  0
  1 21  1  0  0  0  0
  2  8  1  0  0  0  0
  4 22  1  0  0  0  0
  5 24  1  0  0  0  0
  5 17  1  0  0  0  0
  6 23  1  0  0  0  0
  8 10  1  0  0  0  0
  8  7  1  1  0  0  0
  9 18  1  6  0  0  0
  9 13  1  0  0  0  0
  9 14  1  0  0  0  0
 10 28  1  0  0  0  0
 12 28  1  0  0  0  0
 12 25  1  0  0  0  0
 13 26  1  0  0  0  0
 14  8  1  0  0  0  0
 15 11  1  0  0  0  0
 15 23  1  0  0  0  0
 16  1  1  0  0  0  0
 17  3  2  0  0  0  0
 17 25  1  0  0  0  0
 19 15  1  0  0  0  0
 20 16  1  0  0  0  0
 20  4  1  0  0  0  0
 22 21  1  0  0  0  0
 24 12  1  0  0  0  0
 25 19  1  0  0  0  0
 26 24  1  0  0  0  0
 26 10  1  0  0  0  0
 27  5  1  0  0  0  0
 28 16  1  0  0  0  0
M  END
>  <MODEL>
2

>  <REMARK>
 VINA RESULT:      -0.2      2.386      3.839
  Name = 
  0 active torsions:
  status: ('A' for Active; 'I' for Inactive)
                            x       y       z     vdW  Elec       q    Type
                         _______ _______ _______ _____ _____    ______ ____

>  <TORSDO>
F 0

$$$$
=
 OpenBabel11122414143D

 28 32  0  0  1  0  0  0  0  0999 V2000
  162.0510  209.9670  152.9520 C   0  0  2  0  0  3  0  0  0  0  0  0
  160.3800  214.2980  151.2540 O   0  0  0  0  0  1  0  0  0  0  0  0
  157.1450  210.6910  155.9420 O   0  0  0  0  0  0  0  0  0  0  0  0
  160.1280  208.1430  151.9680 C   0  0  0  0  0  2  0  0  0  0  0  0
  157.1610  212.2160  154.1540 N   0  0  0  0  0  0  0  0  0  0  0  0
  162.6490  210.7050  154.1540 C   0  0  0  0  0  2  0  0  0  0  0  0
  161.3710  212.6100  149.9170 C   0  0  0  0  0  1  0  0  0  0  0  0
  160.0810  213.1620  150.4970 C   0  0  1  0  0  0  0  0  0  0  0  0
  157.6730  213.4680  149.6100 C   0  0  2  0  0  3  0  0  0  0  0  0
  159.4070  212.0910  151.3810 C   0  0  2  0  0  3  0  0  0  0  0  0
  161.8720  212.4450  157.2610 C   0  0  0  0  0  1  0  0  0  0  0  0
  159.5170  212.3620  153.8250 C   0  0  1  0  0  3  0  0  0  0  0  0
  157.3700  213.6310  151.0920 C   0  0  0  0  0  2  0  0  0  0  0  0
  159.1770  213.5730  149.3240 C   0  0  0  0  0  2  0  0  0  0  0  0
  161.2360  211.8280  156.0340 C   0  0  2  0  0  3  0  0  0  0  0  0
  160.5420  210.2280  152.7500 C   0  0  2  0  0  3  0  0  0  0  0  0
  157.7850  211.3740  155.1000 C   0  0  0  0  0  0  0  0  0  0  0  0
  156.9900  214.4400  148.8800 O   0  0  0  0  0  1  0  0  0  0  0  0
  159.8370  211.7970  156.1950 O   0  0  0  0  0  0  0  0  0  0  0  0
  160.0720  209.5060  151.6320 O   0  0  0  0  0  0  0  0  0  0  0  0
  162.3260  208.4650  153.0660 C   0  0  0  0  0  2  0  0  0  0  0  0
  161.5820  207.6860  151.9870 C   0  0  0  0  0  2  0  0  0  0  0  0
  161.9390  210.1690  155.7490 S   0  0  0  0  0  0  0  0  0  0  0  0
  158.1570  212.8900  153.3450 C   0  0  1  0  0  3  0  0  0  0  0  0
  159.2570  211.3700  154.9850 C   0  0  2  0  0  3  0  0  0  0  0  0
  158.0130  212.4930  151.8870 C   0  0  2  0  0  3  0  0  0  0  0  0
  155.7420  212.5240  154.1320 C   0  0  0  0  0  1  0  0  0  0  0  0
  160.2390  211.7420  152.6150 C   0  0  1  0  0  3  0  0  0  0  0  0
  1 21  1  1  0  0  0
  1  6  1  0  0  0  0
  4 22  1  0  0  0  0
  5 17  1  0  0  0  0
  6 23  1  0  0  0  0
  8  7  1  6  0  0  0
  8  2  1  0  0  0  0
  8 10  1  0  0  0  0
  9 18  1  6  0  0  0
  9 13  1  0  0  0  0
 10 26  1  0  0  0  0
 10 28  1  0  0  0  0
 12 25  1  0  0  0  0
 13 26  1  0  0  0  0
 14  9  1  0  0  0  0
 14  8  1  0  0  0  0
 15 19  1  0  0  0  0
 15 11  1  0  0  0  0
 16  1  1  0  0  0  0
 17  3  2  0  0  0  0
 20  4  1  0  0  0  0
 20 16  1  0  0  0  0
 22 21  1  0  0  0  0
 23 15  1  0  0  0  0
 24 12  1  0  0  0  0
 24  5  1  0  0  0  0
 25 17  1  0  0  0  0
 25 19  1  0  0  0  0
 26 24  1  0  0  0  0
 27  5  1  0  0  0  0
 28 16  1  0  0  0  0
 28 12  1  0  0  0  0
M  END
>  <MODEL>
3

>  <REMARK>
 VINA RESULT:       0.1      2.214      5.026
  Name = 
  0 active torsions:
  status: ('A' for Active; 'I' for Inactive)
                            x       y       z     vdW  Elec       q    Type
                         _______ _______ _______ _____ _____    ______ ____

>  <TORSDO>
F 0

$$$$
=
 OpenBabel11122414143D

 28 32  0  0  1  0  0  0  0  0999 V2000
  161.2090  209.2710  156.2260 C   0  0  2  0  0  3  0  0  0  0  0  0
  157.6710  211.0640  153.2780 O   0  0  0  0  0  1  0  0  0  0  0  0
  163.2740  208.1370  150.9350 O   0  0  0  0  0  0  0  0  0  0  0  0
  163.3720  211.0200  155.7170 C   0  0  0  0  0  2  0  0  0  0  0  0
  161.5020  209.6660  150.7330 N   0  0  0  0  0  0  0  0  0  0  0  0
  160.5970  207.8770  156.0600 C   0  0  0  0  0  2  0  0  0  0  0  0
  158.4420  212.1110  155.2600 C   0  0  0  0  0  1  0  0  0  0  0  0
  158.6160  211.9740  153.7580 C   0  0  1  0  0  0  0  0  0  0  0  0
  159.1210  213.6180  151.8280 C   0  0  2  0  0  3  0  0  0  0  0  0
  160.0450  211.4780  153.4430 C   0  0  2  0  0  3  0  0  0  0  0  0
  160.1090  205.1000  153.7500 C   0  0  0  0  0  1  0  0  0  0  0  0
  160.3340  209.1360  152.7420 C   0  0  1  0  0  3  0  0  0  0  0  0
  159.4480  212.3270  151.0920 C   0  0  0  0  0  2  0  0  0  0  0  0
  158.3470  213.3490  153.1260 C   0  0  0  0  0  2  0  0  0  0  0  0
  160.6240  206.5200  153.8340 C   0  0  2  0  0  3  0  0  0  0  0  0
  161.5470  209.9650  154.8870 C   0  0  2  0  0  3  0  0  0  0  0  0
  162.2120  208.6390  151.3900 C   0  0  0  0  0  0  0  0  0  0  0  0
  158.3700  214.4530  151.0020 O   0  0  0  0  0  1  0  0  0  0  0  0
  161.2600  206.8630  152.6250 O   0  0  0  0  0  0  0  0  0  0  0  0
  162.1130  211.2350  155.1310 O   0  0  0  0  0  0  0  0  0  0  0  0
  162.4500  209.1990  157.1210 C   0  0  0  0  0  2  0  0  0  0  0  0
  163.1870  210.5330  157.1490 C   0  0  0  0  0  2  0  0  0  0  0  0
  161.7340  206.6840  155.2730 S   0  0  0  0  0  0  0  0  0  0  0  0
  160.3100  210.0150  151.4820 C   0  0  1  0  0  3  0  0  0  0  0  0
  161.5880  208.2310  152.6640 C   0  0  2  0  0  3  0  0  0  0  0  0
  160.3770  211.4590  151.9430 C   0  0  2  0  0  3  0  0  0  0  0  0
  161.8030  210.1580  149.3990 C   0  0  0  0  0  1  0  0  0  0  0  0
  160.3030  210.0660  153.9690 C   0  0  1  0  0  3  0  0  0  0  0  0
  1  6  1  6  0  0  0
  1 21  1  0  0  0  0
  2  8  1  0  0  0  0
  3 17  2  0  0  0  0
  4 22  1  0  0  0  0
  5 17  1  0  0  0  0
  5 24  1  0  0  0  0
  8  7  1  1  0  0  0
  9 18  1  6  0  0  0
  9 14  1  0  0  0  0
 10  8  1  0  0  0  0
 10 28  1  0  0  0  0
 11 15  1  0  0  0  0
 12 28  1  0  0  0  0
 13  9  1  0  0  0  0
 13 26  1  0  0  0  0
 14  8  1  0  0  0  0
 15 23  1  0  0  0  0
 16 20  1  0  0  0  0
 16  1  1  0  0  0  0
 17 25  1  0  0  0  0
 19 25  1  0  0  0  0
 19 15  1  0  0  0  0
 20  4  1  0  0  0  0
 21 22  1  0  0  0  0
 23  6  1  0  0  0  0
 24 26  1  0  0  0  0
 24 12  1  0  0  0  0
 25 12  1  0  0  0  0
 26 10  1  0  0  0  0
 27  5  1  0  0  0  0
 28 16  1  0  0  0  0
M  END
>  <MODEL>
4

>  <REMARK>
 VINA RESULT:       0.3      1.601      2.020
  Name = 
  0 active torsions:
  status: ('A' for Active; 'I' for Inactive)
                            x       y       z     vdW  Elec       q    Type
                         _______ _______ _______ _____ _____    ______ ____

>  <TORSDO>
F 0

$$$$
