=
 OpenBabel11122413593D

 37 43  0  0  1  0  0  0  0  0999 V2000
  160.6760  206.2240  150.3020 C   0  0  1  0  0  3  0  0  0  0  0  0
  160.4390  208.9730  152.1340 O   0  0  0  0  0  0  0  0  0  0  0  0
  160.9880  205.2990  147.8920 C   0  0  2  0  0  3  0  0  0  0  0  0
  161.4920  207.4120  150.6560 C   0  0  2  0  0  3  0  0  0  0  0  0
  160.5080  206.4530  148.8070 C   0  0  2  0  0  3  0  0  0  0  0  0
  161.3330  207.8890  152.1030 C   0  0  2  0  0  3  0  0  0  0  0  0
  161.7390  204.1920  148.6460 C   0  0  0  0  0  2  0  0  0  0  0  0
  161.0900  207.7050  148.4970 O   0  0  0  0  0  0  0  0  0  0  0  0
  161.2050  204.7020  152.1660 C   0  0  0  0  0  2  0  0  0  0  0  0
  161.1160  203.9170  149.8740 O   0  0  0  0  0  0  0  0  0  0  0  0
  162.6300  210.2750  151.9210 C   0  0  0  0  0  2  0  0  0  0  0  0
  161.1130  210.2310  152.0960 C   0  0  1  0  0  3  0  0  0  0  0  0
  161.4750  204.9930  150.6900 C   0  0  1  0  0  3  0  0  0  0  0  0
  161.0730  208.3970  149.6780 N   0  0  2  0  0  0  0  0  0  0  0  0
  160.9290  206.7630  153.0780 C   0  0  1  0  0  3  0  0  0  0  0  0
  161.7460  210.5640  150.7190 C   0  0  2  0  0  3  0  0  0  0  0  0
  162.0680  209.4710  149.6740 C   0  0  2  0  0  3  0  0  0  0  0  0
  161.8230  205.6770  152.9740 O   0  0  0  0  0  0  0  0  0  0  0  0
  159.9640  206.7280  155.3830 C   0  0  0  0  0  3  0  0  0  0  0  0
  160.8940  207.2620  154.4880 C   0  0  0  0  0  0  0  0  0  0  0  0
  161.7660  208.2710  154.9170 C   0  0  0  0  0  3  0  0  0  0  0  0
  162.5740  209.7450  156.6870 N   0  0  0  0  0  1  0  0  0  0  0  0
  160.7810  208.1840  157.0910 N   0  0  0  0  0  0  0  0  0  0  0  0
  161.6930  208.7220  156.2360 C   0  0  0  0  0  0  0  0  0  0  0  0
  159.9230  207.2060  156.6950 C   0  0  0  0  0  3  0  0  0  0  0  0
  162.1750  210.1390  148.3040 C   0  0  0  0  0  2  0  0  0  0  0  0
  162.2110  211.6550  148.4450 C   0  0  0  0  0  0  0  0  0  0  0  0
  163.5930  212.2520  148.5560 C   0  0  0  0  0  2  0  0  0  0  0  0
  162.7950  212.3960  147.2660 C   0  0  0  0  0  2  0  0  0  0  0  0
  161.1140  212.4030  149.1940 C   0  0  0  0  0  2  0  0  0  0  0  0
  160.3980  213.3980  148.2930 C   0  0  0  0  0  2  0  0  0  0  0  0
  159.3690  212.7620  147.5980 O   0  0  0  0  0  1  0  0  0  0  0  0
  161.7820  205.7780  146.8350 O   0  0  0  0  0  0  0  0  0  0  0  0
  161.1270  205.4820  145.6230 C   0  0  0  0  0  0  0  0  0  0  0  0
  160.8750  204.1210  145.5180 F   0  0  0  0  0  0  0  0  0  0  0  0
  159.9390  206.1870  145.5160 F   0  0  0  0  0  0  0  0  0  0  0  0
  161.9500  205.8560  144.5770 F   0  0  0  0  0  0  0  0  0  0  0  0
  1  4  1  0  0  0  0
  1 13  1  0  0  0  0
  3  7  1  0  0  0  0
  3  5  1  0  0  0  0
  4  6  1  0  0  0  0
  5  1  1  0  0  0  0
  6  2  1  0  0  0  0
  6 15  1  0  0  0  0
  7 10  1  0  0  0  0
  8  5  1  0  0  0  0
  8 14  1  0  0  0  0
  9 18  1  0  0  0  0
 10 13  1  0  0  0  0
 11 12  1  0  0  0  0
 12  2  1  0  0  0  0
 13  9  1  0  0  0  0
 14  4  1  0  0  0  0
 15 20  1  0  0  0  0
 16 11  1  0  0  0  0
 16 12  1  0  0  0  0
 17 14  1  0  0  0  0
 17 16  1  0  0  0  0
 18 15  1  0  0  0  0
 19 25  1  0  0  0  0
 20 21  1  0  0  0  0
 20 19  2  0  0  0  0
 21 24  2  0  0  0  0
 24 22  1  0  0  0  0
 24 23  1  0  0  0  0
 25 23  2  0  0  0  0
 26 27  1  0  0  0  0
 26 17  1  0  0  0  0
 27 28  1  0  0  0  0
 27 30  1  0  0  0  0
 29 27  1  0  0  0  0
 29 28  1  0  0  0  0
 31 30  1  0  0  0  0
 32 31  1  0  0  0  0
 33  3  1  0  0  0  0
 34 33  1  0  0  0  0
 35 34  1  0  0  0  0
 36 34  1  0  0  0  0
 37 34  1  0  0  0  0
M  END
>  <MODEL>
1

>  <REMARK>
 VINA RESULT:      -8.0      0.000      0.000
  Name = 
  7 active torsions:
  status: ('A' for Active; 'I' for Inactive)
    1  A    between atoms: C_1  and  C_4
    2  A    between atoms: C_1  and  C_27
    3  A    between atoms: C_2  and  O_22
    4  A    between atoms: C_4  and  C_12
    5  A    between atoms: C_6  and  O_22
    6  A    between atoms: C_8  and  C_12
    7  A    between atoms: C_23  and  C_30
                            x       y       z     vdW  Elec       q    Type
                         _______ _______ _______ _____ _____    ______ ____

>  <TORSDO>
F 7

$$$$
=
 OpenBabel11122413593D

 37 43  0  0  1  0  0  0  0  0999 V2000
  161.4580  211.6660  150.6200 C   0  0  1  0  0  3  0  0  0  0  0  0
  162.4730  209.0160  152.3290 O   0  0  0  0  0  0  0  0  0  0  0  0
  161.2370  212.7060  148.2480 C   0  0  2  0  0  3  0  0  0  0  0  0
  161.1580  210.2170  150.7290 C   0  0  2  0  0  3  0  0  0  0  0  0
  161.9760  211.7240  149.1910 C   0  0  2  0  0  3  0  0  0  0  0  0
  161.2330  209.6520  152.1510 C   0  0  2  0  0  3  0  0  0  0  0  0
  159.9710  213.3150  148.8670 C   0  0  0  0  0  2  0  0  0  0  0  0
  162.0320  210.3980  148.7010 O   0  0  0  0  0  0  0  0  0  0  0  0
  160.0140  212.5910  152.3900 C   0  0  0  0  0  2  0  0  0  0  0  0
  160.1880  213.6470  150.2140 O   0  0  0  0  0  0  0  0  0  0  0  0
  161.0980  206.9960  151.5740 C   0  0  0  0  0  2  0  0  0  0  0  0
  162.4000  207.6110  152.0830 C   0  0  1  0  0  3  0  0  0  0  0  0
  160.1640  212.4180  150.8790 C   0  0  1  0  0  3  0  0  0  0  0  0
  162.1180  209.6180  149.8230 N   0  0  2  0  0  0  0  0  0  0  0  0
  160.9470  210.7060  153.2430 C   0  0  1  0  0  3  0  0  0  0  0  0
  162.2260  207.2430  150.5860 C   0  0  2  0  0  3  0  0  0  0  0  0
  161.6770  208.2490  149.5480 C   0  0  2  0  0  3  0  0  0  0  0  0
  159.7190  211.3530  152.9940 O   0  0  0  0  0  0  0  0  0  0  0  0
  161.6110  210.6910  155.6520 C   0  0  0  0  0  3  0  0  0  0  0  0
  160.9280  210.0760  154.6010 C   0  0  0  0  0  0  0  0  0  0  0  0
  160.2510  208.8710  154.8260 C   0  0  0  0  0  3  0  0  0  0  0  0
  159.5840  207.0840  156.3490 N   0  0  0  0  0  1  0  0  0  0  0  0
  160.9380  208.9260  157.1140 N   0  0  0  0  0  0  0  0  0  0  0  0
  160.2680  208.3070  156.1040 C   0  0  0  0  0  0  0  0  0  0  0  0
  161.6040  210.0960  156.9160 C   0  0  0  0  0  3  0  0  0  0  0  0
  162.1090  207.7830  148.1590 C   0  0  0  0  0  2  0  0  0  0  0  0
  161.4480  206.4580  147.8040 C   0  0  0  0  0  0  0  0  0  0  0  0
  161.0150  206.3280  146.3630 C   0  0  0  0  0  2  0  0  0  0  0  0
  162.2390  205.5750  146.8690 C   0  0  0  0  0  2  0  0  0  0  0  0
  160.5840  205.7130  148.8160 C   0  0  0  0  0  2  0  0  0  0  0  0
  160.9060  204.2260  148.8400 C   0  0  0  0  0  2  0  0  0  0  0  0
  161.2360  203.8270  150.1360 O   0  0  0  0  0  1  0  0  0  0  0  0
  160.9210  212.0980  147.0200 O   0  0  0  0  0  0  0  0  0  0  0  0
  161.4130  212.9170  145.9830 C   0  0  0  0  0  0  0  0  0  0  0  0
  160.8870  214.1980  146.0750 F   0  0  0  0  0  0  0  0  0  0  0  0
  162.7970  212.9770  146.0120 F   0  0  0  0  0  0  0  0  0  0  0  0
  161.0270  212.3720  144.7730 F   0  0  0  0  0  0  0  0  0  0  0  0
  1  4  1  0  0  0  0
  1 13  1  0  0  0  0
  3  7  1  0  0  0  0
  3  5  1  0  0  0  0
  4  6  1  0  0  0  0
  5  1  1  0  0  0  0
  6  2  1  0  0  0  0
  6 15  1  0  0  0  0
  7 10  1  0  0  0  0
  8  5  1  0  0  0  0
  8 14  1  0  0  0  0
  9 18  1  0  0  0  0
 10 13  1  0  0  0  0
 11 12  1  0  0  0  0
 12  2  1  0  0  0  0
 13  9  1  0  0  0  0
 14  4  1  0  0  0  0
 15 20  1  0  0  0  0
 16 11  1  0  0  0  0
 16 12  1  0  0  0  0
 17 14  1  0  0  0  0
 17 16  1  0  0  0  0
 18 15  1  0  0  0  0
 19 25  1  0  0  0  0
 20 21  1  0  0  0  0
 20 19  2  0  0  0  0
 21 24  2  0  0  0  0
 24 22  1  0  0  0  0
 24 23  1  0  0  0  0
 25 23  2  0  0  0  0
 26 17  1  0  0  0  0
 27 26  1  0  0  0  0
 27 30  1  0  0  0  0
 28 29  1  0  0  0  0
 28 27  1  0  0  0  0
 29 27  1  0  0  0  0
 30 31  1  0  0  0  0
 31 32  1  0  0  0  0
 33  3  1  0  0  0  0
 34 36  1  0  0  0  0
 34 35  1  0  0  0  0
 34 33  1  0  0  0  0
 37 34  1  0  0  0  0
M  END
>  <MODEL>
2

>  <REMARK>
 VINA RESULT:      -7.4      2.606      5.773
  Name = 
  7 active torsions:
  status: ('A' for Active; 'I' for Inactive)
    1  A    between atoms: C_1  and  C_4
    2  A    between atoms: C_1  and  C_27
    3  A    between atoms: C_2  and  O_22
    4  A    between atoms: C_4  and  C_12
    5  A    between atoms: C_6  and  O_22
    6  A    between atoms: C_8  and  C_12
    7  A    between atoms: C_23  and  C_30
                            x       y       z     vdW  Elec       q    Type
                         _______ _______ _______ _____ _____    ______ ____

>  <TORSDO>
F 7

$$$$
=
 OpenBabel11122413593D

 37 43  0  0  1  0  0  0  0  0999 V2000
  162.0760  207.0390  150.0670 C   0  0  1  0  0  3  0  0  0  0  0  0
  162.5270  210.0010  151.4790 O   0  0  0  0  0  0  0  0  0  0  0  0
  161.5490  204.5320  150.5120 C   0  0  2  0  0  3  0  0  0  0  0  0
  161.3210  208.0210  150.8840 C   0  0  2  0  0  3  0  0  0  0  0  0
  162.1290  205.8690  151.0380 C   0  0  2  0  0  3  0  0  0  0  0  0
  161.6080  209.4880  150.5490 C   0  0  2  0  0  3  0  0  0  0  0  0
  160.8340  204.6650  149.1600 C   0  0  0  0  0  2  0  0  0  0  0  0
  161.5540  206.2990  152.2570 O   0  0  0  0  0  0  0  0  0  0  0  0
  161.6630  207.8860  147.7900 C   0  0  0  0  0  2  0  0  0  0  0  0
  161.5470  205.5190  148.3030 O   0  0  0  0  0  0  0  0  0  0  0  0
  160.3590  210.6700  152.6580 C   0  0  0  0  0  2  0  0  0  0  0  0
  161.8830  210.6720  152.5620 C   0  0  1  0  0  3  0  0  0  0  0  0
  161.2820  206.8000  148.7950 C   0  0  1  0  0  3  0  0  0  0  0  0
  161.6830  207.6610  152.2400 N   0  0  2  0  0  0  0  0  0  0  0  0
  162.0620  209.7050  149.0890 C   0  0  1  0  0  3  0  0  0  0  0  0
  161.1500  209.7220  153.5450 C   0  0  2  0  0  3  0  0  0  0  0  0
  160.7170  208.2940  153.1410 C   0  0  2  0  0  3  0  0  0  0  0  0
  161.1360  209.1290  148.1950 O   0  0  0  0  0  0  0  0  0  0  0  0
  163.3530  211.5990  148.0970 C   0  0  0  0  0  3  0  0  0  0  0  0
  162.2220  211.1620  148.7900 C   0  0  0  0  0  0  0  0  0  0  0  0
  161.2660  212.0940  149.2120 C   0  0  0  0  0  3  0  0  0  0  0  0
  160.4950  214.4060  149.3480 N   0  0  0  0  0  1  0  0  0  0  0  0
  162.5670  213.8500  148.2470 N   0  0  0  0  0  0  0  0  0  0  0  0
  161.4580  213.4480  148.9270 C   0  0  0  0  0  0  0  0  0  0  0  0
  163.5090  212.9620  147.8300 C   0  0  0  0  0  3  0  0  0  0  0  0
  160.5170  207.4790  154.4180 C   0  0  0  0  0  2  0  0  0  0  0  0
  160.4380  208.3930  155.6340 C   0  0  0  0  0  0  0  0  0  0  0  0
  160.8600  207.7580  156.9370 C   0  0  0  0  0  2  0  0  0  0  0  0
  161.7680  208.7660  156.2450 C   0  0  0  0  0  2  0  0  0  0  0  0
  159.3560  209.4620  155.7480 C   0  0  0  0  0  2  0  0  0  0  0  0
  159.7030  210.5000  156.8040 C   0  0  0  0  0  2  0  0  0  0  0  0
  159.7630  211.7690  156.2280 O   0  0  0  0  0  1  0  0  0  0  0  0
  160.6830  203.9440  151.4510 O   0  0  0  0  0  0  0  0  0  0  0  0
  161.0760  202.6010  151.6310 C   0  0  0  0  0  0  0  0  0  0  0  0
  160.6670  201.8210  150.5600 F   0  0  0  0  0  0  0  0  0  0  0  0
  162.4500  202.5030  151.7850 F   0  0  0  0  0  0  0  0  0  0  0  0
  160.4750  202.1180  152.7780 F   0  0  0  0  0  0  0  0  0  0  0  0
  1  4  1  0  0  0  0
  1  5  1  0  0  0  0
  2 12  1  0  0  0  0
  3  5  1  0  0  0  0
  3 33  1  0  0  0  0
  4 14  1  0  0  0  0
  5  8  1  0  0  0  0
  6  4  1  0  0  0  0
  6  2  1  0  0  0  0
  7  3  1  0  0  0  0
  9 18  1  0  0  0  0
  9 13  1  0  0  0  0
 10 13  1  0  0  0  0
 10  7  1  0  0  0  0
 11 16  1  0  0  0  0
 12 11  1  0  0  0  0
 12 16  1  0  0  0  0
 13  1  1  0  0  0  0
 14  8  1  0  0  0  0
 14 17  1  0  0  0  0
 15  6  1  0  0  0  0
 17 16  1  0  0  0  0
 17 26  1  0  0  0  0
 18 15  1  0  0  0  0
 19 20  1  0  0  0  0
 20 15  1  0  0  0  0
 20 21  2  0  0  0  0
 23 24  2  0  0  0  0
 24 21  1  0  0  0  0
 24 22  1  0  0  0  0
 25 19  2  0  0  0  0
 25 23  1  0  0  0  0
 26 27  1  0  0  0  0
 27 30  1  0  0  0  0
 27 29  1  0  0  0  0
 27 28  1  0  0  0  0
 29 28  1  0  0  0  0
 30 31  1  0  0  0  0
 32 31  1  0  0  0  0
 33 34  1  0  0  0  0
 34 36  1  0  0  0  0
 34 37  1  0  0  0  0
 35 34  1  0  0  0  0
M  END
>  <MODEL>
3

>  <REMARK>
 VINA RESULT:      -7.0      2.805      6.427
  Name = 
  7 active torsions:
  status: ('A' for Active; 'I' for Inactive)
    1  A    between atoms: C_1  and  C_4
    2  A    between atoms: C_1  and  C_27
    3  A    between atoms: C_2  and  O_22
    4  A    between atoms: C_4  and  C_12
    5  A    between atoms: C_6  and  O_22
    6  A    between atoms: C_8  and  C_12
    7  A    between atoms: C_23  and  C_30
                            x       y       z     vdW  Elec       q    Type
                         _______ _______ _______ _____ _____    ______ ____

>  <TORSDO>
F 7

$$$$
=
 OpenBabel11122413593D

 37 43  0  0  1  0  0  0  0  0999 V2000
  160.7560  204.4190  150.6370 C   0  0  1  0  0  3  0  0  0  0  0  0
  160.6970  207.5120  149.4520 O   0  0  0  0  0  0  0  0  0  0  0  0
  161.0490  201.9120  150.0140 C   0  0  2  0  0  3  0  0  0  0  0  0
  161.6560  205.3740  149.9440 C   0  0  2  0  0  3  0  0  0  0  0  0
  160.6420  203.3390  149.5710 C   0  0  2  0  0  3  0  0  0  0  0  0
  161.5020  206.8330  150.3830 C   0  0  2  0  0  3  0  0  0  0  0  0
  161.6920  201.8630  151.4070 C   0  0  0  0  0  2  0  0  0  0  0  0
  161.3290  203.7970  148.4220 O   0  0  0  0  0  0  0  0  0  0  0  0
  161.1190  205.0400  152.9940 C   0  0  0  0  0  2  0  0  0  0  0  0
  161.0210  202.7200  152.2940 O   0  0  0  0  0  0  0  0  0  0  0  0
  162.9890  208.0330  148.4460 C   0  0  0  0  0  2  0  0  0  0  0  0
  161.4700  208.1910  148.4630 C   0  0  1  0  0  3  0  0  0  0  0  0
  161.4450  203.9990  151.9240 C   0  0  1  0  0  3  0  0  0  0  0  0
  161.3400  205.1600  148.5450 N   0  0  2  0  0  0  0  0  0  0  0  0
  160.9870  206.9850  151.8310 C   0  0  1  0  0  3  0  0  0  0  0  0
  162.1590  207.2460  147.4440 C   0  0  2  0  0  3  0  0  0  0  0  0
  162.4180  205.7530  147.7500 C   0  0  2  0  0  3  0  0  0  0  0  0
  161.7940  206.2460  152.7210 O   0  0  0  0  0  0  0  0  0  0  0  0
  161.6280  209.3720  151.4630 C   0  0  0  0  0  3  0  0  0  0  0  0
  160.9590  208.4240  152.2410 C   0  0  0  0  0  0  0  0  0  0  0  0
  160.2900  208.8290  153.4020 C   0  0  0  0  0  3  0  0  0  0  0  0
  159.6210  210.6060  154.9360 N   0  0  0  0  0  1  0  0  0  0  0  0
  160.9540  211.0860  152.9850 N   0  0  0  0  0  0  0  0  0  0  0  0
  160.2980  210.1790  153.7600 C   0  0  0  0  0  0  0  0  0  0  0  0
  161.6120  210.7130  151.8540 C   0  0  0  0  0  3  0  0  0  0  0  0
  162.6090  205.0220  146.4220 C   0  0  0  0  0  2  0  0  0  0  0  0
  161.2870  204.9060  145.6750 C   0  0  0  0  0  0  0  0  0  0  0  0
  160.5360  206.2050  145.5030 C   0  0  0  0  0  2  0  0  0  0  0  0
  161.2550  205.5700  144.3190 C   0  0  0  0  0  2  0  0  0  0  0  0
  160.4170  203.6600  145.8000 C   0  0  0  0  0  2  0  0  0  0  0  0
  159.8830  203.2110  144.4490 C   0  0  0  0  0  2  0  0  0  0  0  0
  159.5520  201.8560  144.4900 O   0  0  0  0  0  1  0  0  0  0  0  0
  161.9040  201.3070  149.0750 O   0  0  0  0  0  0  0  0  0  0  0  0
  161.1080  200.6900  148.0880 C   0  0  0  0  0  0  0  0  0  0  0  0
  161.4720  199.3620  147.9200 F   0  0  0  0  0  0  0  0  0  0  0  0
  159.7630  200.7690  148.4160 F   0  0  0  0  0  0  0  0  0  0  0  0
  161.3020  201.3520  146.8900 F   0  0  0  0  0  0  0  0  0  0  0  0
  1 13  1  0  0  0  0
  2  6  1  0  0  0  0
  3  7  1  0  0  0  0
  4  6  1  0  0  0  0
  4  1  1  0  0  0  0
  5  3  1  0  0  0  0
  5  1  1  0  0  0  0
  6 15  1  0  0  0  0
  7 10  1  0  0  0  0
  8 14  1  0  0  0  0
  8  5  1  0  0  0  0
 11 12  1  0  0  0  0
 12  2  1  0  0  0  0
 13 10  1  0  0  0  0
 13  9  1  0  0  0  0
 14  4  1  0  0  0  0
 15 20  1  0  0  0  0
 15 18  1  0  0  0  0
 16 17  1  0  0  0  0
 16 11  1  0  0  0  0
 16 12  1  0  0  0  0
 17 14  1  0  0  0  0
 18  9  1  0  0  0  0
 19 25  2  0  0  0  0
 19 20  1  0  0  0  0
 20 21  2  0  0  0  0
 21 24  1  0  0  0  0
 23 24  2  0  0  0  0
 24 22  1  0  0  0  0
 25 23  1  0  0  0  0
 26 17  1  0  0  0  0
 27 30  1  0  0  0  0
 27 26  1  0  0  0  0
 28 27  1  0  0  0  0
 29 28  1  0  0  0  0
 29 27  1  0  0  0  0
 31 32  1  0  0  0  0
 31 30  1  0  0  0  0
 33  3  1  0  0  0  0
 34 36  1  0  0  0  0
 34 33  1  0  0  0  0
 35 34  1  0  0  0  0
 37 34  1  0  0  0  0
M  END
>  <MODEL>
4

>  <REMARK>
 VINA RESULT:      -6.9      2.842      5.140
  Name = 
  7 active torsions:
  status: ('A' for Active; 'I' for Inactive)
    1  A    between atoms: C_1  and  C_4
    2  A    between atoms: C_1  and  C_27
    3  A    between atoms: C_2  and  O_22
    4  A    between atoms: C_4  and  C_12
    5  A    between atoms: C_6  and  O_22
    6  A    between atoms: C_8  and  C_12
    7  A    between atoms: C_23  and  C_30
                            x       y       z     vdW  Elec       q    Type
                         _______ _______ _______ _____ _____    ______ ____

>  <TORSDO>
F 7

$$$$
=
 OpenBabel11122413593D

 37 43  0  0  1  0  0  0  0  0999 V2000
  159.0460  213.5970  151.1990 C   0  0  1  0  0  3  0  0  0  0  0  0
  159.4210  212.4900  154.2980 O   0  0  0  0  0  0  0  0  0  0  0  0
  160.0480  213.5740  148.8000 C   0  0  2  0  0  3  0  0  0  0  0  0
  159.0830  212.3090  151.9350 C   0  0  2  0  0  3  0  0  0  0  0  0
  160.2820  213.4410  150.3250 C   0  0  2  0  0  3  0  0  0  0  0  0
  158.4250  212.3430  153.3180 C   0  0  2  0  0  3  0  0  0  0  0  0
  158.5650  213.6470  148.4120 C   0  0  0  0  0  2  0  0  0  0  0  0
  160.9210  212.2350  150.7000 O   0  0  0  0  0  0  0  0  0  0  0  0
  156.6690  214.2080  151.4170 C   0  0  0  0  0  2  0  0  0  0  0  0
  157.8540  214.4530  149.3150 O   0  0  0  0  0  0  0  0  0  0  0  0
  159.2750  209.9370  154.2650 C   0  0  0  0  0  2  0  0  0  0  0  0
  159.8340  211.2360  154.8410 C   0  0  1  0  0  3  0  0  0  0  0  0
  157.7230  213.6570  150.4570 C   0  0  1  0  0  3  0  0  0  0  0  0
  160.4990  212.0030  151.9810 N   0  0  2  0  0  0  0  0  0  0  0  0
  157.3140  213.4070  153.4410 C   0  0  1  0  0  3  0  0  0  0  0  0
  160.6750  210.3730  153.8650 C   0  0  2  0  0  3  0  0  0  0  0  0
  160.6380  210.5880  152.3340 C   0  0  2  0  0  3  0  0  0  0  0  0
  156.3670  213.2520  152.4070 O   0  0  0  0  0  0  0  0  0  0  0  0
  156.5890  214.4510  155.5920 C   0  0  0  0  0  3  0  0  0  0  0  0
  156.6360  213.3210  154.7720 C   0  0  0  0  0  0  0  0  0  0  0  0
  156.0660  212.1210  155.2140 C   0  0  0  0  0  3  0  0  0  0  0  0
  154.8700  210.8650  156.9310 N   0  0  0  0  0  1  0  0  0  0  0  0
  155.4180  213.1910  157.2490 N   0  0  0  0  0  0  0  0  0  0  0  0
  155.4550  212.0760  156.4690 C   0  0  0  0  0  0  0  0  0  0  0  0
  155.9680  214.3660  156.8400 C   0  0  0  0  0  3  0  0  0  0  0  0
  161.9040  209.9770  151.7370 C   0  0  0  0  0  2  0  0  0  0  0  0
  161.7230  208.4840  151.4990 C   0  0  0  0  0  0  0  0  0  0  0  0
  161.1810  208.1160  150.1390 C   0  0  0  0  0  2  0  0  0  0  0  0
  162.6490  207.8800  150.4710 C   0  0  0  0  0  2  0  0  0  0  0  0
  161.3260  207.5480  152.6350 C   0  0  0  0  0  2  0  0  0  0  0  0
  162.2770  206.3660  152.7460 C   0  0  0  0  0  2  0  0  0  0  0  0
  161.5890  205.1730  152.5260 O   0  0  0  0  0  1  0  0  0  0  0  0
  160.6750  212.5330  148.0920 O   0  0  0  0  0  0  0  0  0  0  0  0
  161.7540  213.0800  147.3680 C   0  0  0  0  0  0  0  0  0  0  0  0
  162.9430  212.9290  148.0680 F   0  0  0  0  0  0  0  0  0  0  0  0
  161.8660  212.4870  146.1210 F   0  0  0  0  0  0  0  0  0  0  0  0
  161.5210  214.4310  147.1870 F   0  0  0  0  0  0  0  0  0  0  0  0
  1  4  1  0  0  0  0
  2 12  1  0  0  0  0
  3  5  1  0  0  0  0
  4 14  1  0  0  0  0
  4  6  1  0  0  0  0
  5  8  1  0  0  0  0
  5  1  1  0  0  0  0
  6 15  1  0  0  0  0
  6  2  1  0  0  0  0
  7  3  1  0  0  0  0
  7 10  1  0  0  0  0
  8 14  1  0  0  0  0
  9 18  1  0  0  0  0
 10 13  1  0  0  0  0
 11 12  1  0  0  0  0
 13  1  1  0  0  0  0
 13  9  1  0  0  0  0
 14 17  1  0  0  0  0
 15 20  1  0  0  0  0
 16 11  1  0  0  0  0
 16 12  1  0  0  0  0
 17 16  1  0  0  0  0
 18 15  1  0  0  0  0
 19 25  1  0  0  0  0
 20 21  1  0  0  0  0
 20 19  2  0  0  0  0
 21 24  2  0  0  0  0
 24 22  1  0  0  0  0
 24 23  1  0  0  0  0
 25 23  2  0  0  0  0
 26 17  1  0  0  0  0
 27 26  1  0  0  0  0
 27 30  1  0  0  0  0
 28 29  1  0  0  0  0
 28 27  1  0  0  0  0
 29 27  1  0  0  0  0
 30 31  1  0  0  0  0
 32 31  1  0  0  0  0
 33  3  1  0  0  0  0
 34 35  1  0  0  0  0
 34 33  1  0  0  0  0
 36 34  1  0  0  0  0
 37 34  1  0  0  0  0
M  END
>  <MODEL>
5

>  <REMARK>
 VINA RESULT:      -6.3      4.447      7.219
  Name = 
  7 active torsions:
  status: ('A' for Active; 'I' for Inactive)
    1  A    between atoms: C_1  and  C_4
    2  A    between atoms: C_1  and  C_27
    3  A    between atoms: C_2  and  O_22
    4  A    between atoms: C_4  and  C_12
    5  A    between atoms: C_6  and  O_22
    6  A    between atoms: C_8  and  C_12
    7  A    between atoms: C_23  and  C_30
                            x       y       z     vdW  Elec       q    Type
                         _______ _______ _______ _____ _____    ______ ____

>  <TORSDO>
F 7

$$$$
=
 OpenBabel11122413593D

 37 43  0  0  1  0  0  0  0  0999 V2000
  160.7510  204.1670  150.4130 C   0  0  1  0  0  3  0  0  0  0  0  0
  160.7990  207.2890  149.3090 O   0  0  0  0  0  0  0  0  0  0  0  0
  160.9100  201.6660  149.7190 C   0  0  2  0  0  3  0  0  0  0  0  0
  161.6730  205.0980  149.7170 C   0  0  2  0  0  3  0  0  0  0  0  0
  160.5560  203.1210  149.3240 C   0  0  2  0  0  3  0  0  0  0  0  0
  161.5990  206.5510  150.1980 C   0  0  2  0  0  3  0  0  0  0  0  0
  161.5900  201.5510  151.0900 C   0  0  0  0  0  2  0  0  0  0  0  0
  161.2290  203.5780  148.1670 O   0  0  0  0  0  0  0  0  0  0  0  0
  161.2110  204.7080  152.7730 C   0  0  0  0  0  2  0  0  0  0  0  0
  160.9850  202.4140  152.0180 O   0  0  0  0  0  0  0  0  0  0  0  0
  163.0830  207.7330  148.2460 C   0  0  0  0  0  2  0  0  0  0  0  0
  161.5740  207.9590  148.3140 C   0  0  1  0  0  3  0  0  0  0  0  0
  161.4570  203.6820  151.6670 C   0  0  1  0  0  3  0  0  0  0  0  0
  161.3070  204.9360  148.3240 N   0  0  2  0  0  0  0  0  0  0  0  0
  161.1340  206.6870  151.6640 C   0  0  1  0  0  3  0  0  0  0  0  0
  162.1880  207.0110  147.2510 C   0  0  2  0  0  3  0  0  0  0  0  0
  162.3870  205.5000  147.5110 C   0  0  2  0  0  3  0  0  0  0  0  0
  161.9320  205.8890  152.5090 O   0  0  0  0  0  0  0  0  0  0  0  0
  162.0010  209.0180  151.4270 C   0  0  0  0  0  3  0  0  0  0  0  0
  161.1850  208.1140  152.1100 C   0  0  0  0  0  0  0  0  0  0  0  0
  160.4420  208.5500  153.2150 C   0  0  0  0  0  3  0  0  0  0  0  0
  159.7770  210.3450  154.7290 N   0  0  0  0  0  1  0  0  0  0  0  0
  161.3250  210.7510  152.9260 N   0  0  0  0  0  0  0  0  0  0  0  0
  160.5260  209.8870  153.6100 C   0  0  0  0  0  0  0  0  0  0  0  0
  162.0570  210.3480  151.8530 C   0  0  0  0  0  3  0  0  0  0  0  0
  162.5050  204.7970  146.1600 C   0  0  0  0  0  2  0  0  0  0  0  0
  161.5320  205.3950  145.1530 C   0  0  0  0  0  0  0  0  0  0  0  0
  160.2910  204.5750  144.9000 C   0  0  0  0  0  2  0  0  0  0  0  0
  160.2130  205.8520  145.7280 C   0  0  0  0  0  2  0  0  0  0  0  0
  162.0310  206.2090  143.9640 C   0  0  0  0  0  2  0  0  0  0  0  0
  161.3430  205.7940  142.6730 C   0  0  0  0  0  2  0  0  0  0  0  0
  161.9510  206.4170  141.5820 O   0  0  0  0  0  1  0  0  0  0  0  0
  161.7080  201.0490  148.7390 O   0  0  0  0  0  0  0  0  0  0  0  0
  160.8650  200.6120  147.6960 C   0  0  0  0  0  0  0  0  0  0  0  0
  160.9260  201.4810  146.6170 F   0  0  0  0  0  0  0  0  0  0  0  0
  161.2060  199.3320  147.2870 F   0  0  0  0  0  0  0  0  0  0  0  0
  159.5650  200.5860  148.1650 F   0  0  0  0  0  0  0  0  0  0  0  0
  1 13  1  0  0  0  0
  2  6  1  0  0  0  0
  3  7  1  0  0  0  0
  4  6  1  0  0  0  0
  4  1  1  0  0  0  0
  5  3  1  0  0  0  0
  5  1  1  0  0  0  0
  6 15  1  0  0  0  0
  7 10  1  0  0  0  0
  8 14  1  0  0  0  0
  8  5  1  0  0  0  0
 11 12  1  0  0  0  0
 12  2  1  0  0  0  0
 13 10  1  0  0  0  0
 13  9  1  0  0  0  0
 14  4  1  0  0  0  0
 15 20  1  0  0  0  0
 15 18  1  0  0  0  0
 16 17  1  0  0  0  0
 16 11  1  0  0  0  0
 16 12  1  0  0  0  0
 17 14  1  0  0  0  0
 18  9  1  0  0  0  0
 19 25  2  0  0  0  0
 19 20  1  0  0  0  0
 20 21  2  0  0  0  0
 21 24  1  0  0  0  0
 23 24  2  0  0  0  0
 24 22  1  0  0  0  0
 25 23  1  0  0  0  0
 26 17  1  0  0  0  0
 27 29  1  0  0  0  0
 27 26  1  0  0  0  0
 28 27  1  0  0  0  0
 28 29  1  0  0  0  0
 30 27  1  0  0  0  0
 31 30  1  0  0  0  0
 32 31  1  0  0  0  0
 33  3  1  0  0  0  0
 34 37  1  0  0  0  0
 34 33  1  0  0  0  0
 35 34  1  0  0  0  0
 36 34  1  0  0  0  0
M  END
>  <MODEL>
6

>  <REMARK>
 VINA RESULT:      -6.2      2.871      5.028
  Name = 
  7 active torsions:
  status: ('A' for Active; 'I' for Inactive)
    1  A    between atoms: C_1  and  C_4
    2  A    between atoms: C_1  and  C_27
    3  A    between atoms: C_2  and  O_22
    4  A    between atoms: C_4  and  C_12
    5  A    between atoms: C_6  and  O_22
    6  A    between atoms: C_8  and  C_12
    7  A    between atoms: C_23  and  C_30
                            x       y       z     vdW  Elec       q    Type
                         _______ _______ _______ _____ _____    ______ ____

>  <TORSDO>
F 7

$$$$
=
 OpenBabel11122413593D

 37 43  0  0  1  0  0  0  0  0999 V2000
  161.7970  206.7290  152.1970 C   0  0  1  0  0  3  0  0  0  0  0  0
  162.6890  206.4870  149.0170 O   0  0  0  0  0  0  0  0  0  0  0  0
  161.5980  208.3370  154.2310 C   0  0  2  0  0  3  0  0  0  0  0  0
  161.4190  207.2930  150.8780 C   0  0  2  0  0  3  0  0  0  0  0  0
  162.2960  207.9870  152.8930 C   0  0  2  0  0  3  0  0  0  0  0  0
  161.4840  206.3000  149.7140 C   0  0  2  0  0  3  0  0  0  0  0  0
  160.3780  207.4560  154.5340 C   0  0  0  0  0  2  0  0  0  0  0  0
  162.2700  209.0380  151.9450 O   0  0  0  0  0  0  0  0  0  0  0  0
  160.4350  204.6760  152.2520 C   0  0  0  0  0  2  0  0  0  0  0  0
  160.6340  206.1190  154.1910 O   0  0  0  0  0  0  0  0  0  0  0  0
  161.1920  208.0370  147.6400 C   0  0  0  0  0  2  0  0  0  0  0  0
  162.5340  207.3530  147.8930 C   0  0  1  0  0  3  0  0  0  0  0  0
  160.5520  206.0990  152.7960 C   0  0  1  0  0  3  0  0  0  0  0  0
  162.3290  208.4110  150.7300 N   0  0  2  0  0  0  0  0  0  0  0  0
  161.2750  204.8330  150.1490 C   0  0  1  0  0  3  0  0  0  0  0  0
  162.3170  208.8420  148.2710 C   0  0  2  0  0  3  0  0  0  0  0  0
  161.8080  209.2720  149.6660 C   0  0  2  0  0  3  0  0  0  0  0  0
  160.0810  204.7040  150.8890 O   0  0  0  0  0  0  0  0  0  0  0  0
  160.8670  202.5880  149.1310 C   0  0  0  0  0  3  0  0  0  0  0  0
  161.2410  203.9230  148.9620 C   0  0  0  0  0  0  0  0  0  0  0  0
  161.5990  204.3850  147.6900 C   0  0  0  0  0  3  0  0  0  0  0  0
  161.9280  203.9570  145.3090 N   0  0  0  0  0  1  0  0  0  0  0  0
  161.1970  202.2060  146.7960 N   0  0  0  0  0  0  0  0  0  0  0  0
  161.5700  203.5020  146.6080 C   0  0  0  0  0  0  0  0  0  0  0  0
  160.8490  201.7360  148.0240 C   0  0  0  0  0  3  0  0  0  0  0  0
  162.1930  210.7350  149.8830 C   0  0  0  0  0  2  0  0  0  0  0  0
  161.9560  211.5470  148.6170 C   0  0  0  0  0  0  0  0  0  0  0  0
  162.5330  212.9420  148.6380 C   0  0  0  0  0  2  0  0  0  0  0  0
  163.1930  211.8500  147.8060 C   0  0  0  0  0  2  0  0  0  0  0  0
  160.6780  211.3810  147.8010 C   0  0  0  0  0  2  0  0  0  0  0  0
  160.4050  212.5990  146.9330 C   0  0  0  0  0  2  0  0  0  0  0  0
  160.1110  212.2030  145.6280 O   0  0  0  0  0  1  0  0  0  0  0  0
  161.2290  209.6930  154.2780 O   0  0  0  0  0  0  0  0  0  0  0  0
  161.9870  210.3210  155.2880 C   0  0  0  0  0  0  0  0  0  0  0  0
  161.3390  211.4530  155.7590 F   0  0  0  0  0  0  0  0  0  0  0  0
  162.2310  209.4500  156.3380 F   0  0  0  0  0  0  0  0  0  0  0  0
  163.2020  210.7040  154.7500 F   0  0  0  0  0  0  0  0  0  0  0  0
  1 13  1  0  0  0  0
  1  5  1  0  0  0  0
  2  6  1  0  0  0  0
  3 33  1  0  0  0  0
  3  7  1  0  0  0  0
  4  1  1  0  0  0  0
  5  3  1  0  0  0  0
  6 15  1  0  0  0  0
  6  4  1  0  0  0  0
  8  5  1  0  0  0  0
  9 13  1  0  0  0  0
 10  7  1  0  0  0  0
 11 12  1  0  0  0  0
 11 16  1  0  0  0  0
 12 16  1  0  0  0  0
 12  2  1  0  0  0  0
 13 10  1  0  0  0  0
 14  4  1  0  0  0  0
 14  8  1  0  0  0  0
 15 18  1  0  0  0  0
 16 17  1  0  0  0  0
 17 26  1  0  0  0  0
 17 14  1  0  0  0  0
 18  9  1  0  0  0  0
 20 19  1  0  0  0  0
 20 15  1  0  0  0  0
 21 20  2  0  0  0  0
 22 24  1  0  0  0  0
 23 25  1  0  0  0  0
 24 23  2  0  0  0  0
 24 21  1  0  0  0  0
 25 19  2  0  0  0  0
 27 28  1  0  0  0  0
 27 26  1  0  0  0  0
 29 27  1  0  0  0  0
 29 28  1  0  0  0  0
 30 27  1  0  0  0  0
 31 30  1  0  0  0  0
 32 31  1  0  0  0  0
 33 34  1  0  0  0  0
 34 35  1  0  0  0  0
 34 36  1  0  0  0  0
 37 34  1  0  0  0  0
M  END
>  <MODEL>
7

>  <REMARK>
 VINA RESULT:      -5.7      3.836      6.592
  Name = 
  7 active torsions:
  status: ('A' for Active; 'I' for Inactive)
    1  A    between atoms: C_1  and  C_4
    2  A    between atoms: C_1  and  C_27
    3  A    between atoms: C_2  and  O_22
    4  A    between atoms: C_4  and  C_12
    5  A    between atoms: C_6  and  O_22
    6  A    between atoms: C_8  and  C_12
    7  A    between atoms: C_23  and  C_30
                            x       y       z     vdW  Elec       q    Type
                         _______ _______ _______ _____ _____    ______ ____

>  <TORSDO>
F 7

$$$$
=
 OpenBabel11122413593D

 37 43  0  0  1  0  0  0  0  0999 V2000
  161.9250  206.5870  152.2100 C   0  0  1  0  0  3  0  0  0  0  0  0
  162.8290  207.3130  149.1080 O   0  0  0  0  0  0  0  0  0  0  0  0
  161.5770  207.5470  154.6010 C   0  0  2  0  0  3  0  0  0  0  0  0
  161.4910  207.4550  151.0870 C   0  0  2  0  0  3  0  0  0  0  0  0
  162.3020  207.6460  153.2360 C   0  0  2  0  0  3  0  0  0  0  0  0
  161.6480  206.8310  149.6970 C   0  0  2  0  0  3  0  0  0  0  0  0
  160.4470  206.5090  154.6210 C   0  0  0  0  0  2  0  0  0  0  0  0
  162.1750  208.9090  152.6120 O   0  0  0  0  0  0  0  0  0  0  0  0
  160.7650  204.4820  151.6660 C   0  0  0  0  0  2  0  0  0  0  0  0
  160.8280  205.3470  153.9310 O   0  0  0  0  0  0  0  0  0  0  0  0
  161.1880  209.0380  148.1730 C   0  0  0  0  0  2  0  0  0  0  0  0
  162.5900  208.4380  148.2610 C   0  0  1  0  0  3  0  0  0  0  0  0
  160.7460  205.7040  152.5830 C   0  0  1  0  0  3  0  0  0  0  0  0
  162.2910  208.6490  151.2740 N   0  0  2  0  0  0  0  0  0  0  0  0
  161.5810  205.2880  149.7080 C   0  0  1  0  0  3  0  0  0  0  0  0
  162.2320  209.7380  149.0270 C   0  0  2  0  0  3  0  0  0  0  0  0
  161.6880  209.7180  150.4750 C   0  0  2  0  0  3  0  0  0  0  0  0
  160.4060  204.8520  150.3550 O   0  0  0  0  0  0  0  0  0  0  0  0
  162.0890  205.5530  147.2760 C   0  0  0  0  0  3  0  0  0  0  0  0
  161.6320  204.7410  148.3160 C   0  0  0  0  0  0  0  0  0  0  0  0
  161.2080  203.4350  148.0400 C   0  0  0  0  0  3  0  0  0  0  0  0
  160.8320  201.6400  146.4300 N   0  0  0  0  0  1  0  0  0  0  0  0
  161.7100  203.7730  145.7290 N   0  0  0  0  0  0  0  0  0  0  0  0
  161.2570  202.9650  146.7260 C   0  0  0  0  0  0  0  0  0  0  0  0
  162.1230  205.0450  145.9750 C   0  0  0  0  0  3  0  0  0  0  0  0
  161.9320  211.0940  151.0930 C   0  0  0  0  0  2  0  0  0  0  0  0
  160.6220  211.7170  151.5560 C   0  0  0  0  0  0  0  0  0  0  0  0
  159.6840  210.7740  152.2690 C   0  0  0  0  0  2  0  0  0  0  0  0
  160.4570  211.8280  153.0530 C   0  0  0  0  0  2  0  0  0  0  0  0
  159.9480  212.8240  150.7520 C   0  0  0  0  0  2  0  0  0  0  0  0
  160.8240  213.2920  149.5990 C   0  0  0  0  0  2  0  0  0  0  0  0
  160.3100  212.8290  148.3870 O   0  0  0  0  0  1  0  0  0  0  0  0
  161.0810  208.7980  155.0090 O   0  0  0  0  0  0  0  0  0  0  0  0
  161.7950  209.2010  156.1570 C   0  0  0  0  0  0  0  0  0  0  0  0
  162.8340  210.0550  155.8160 F   0  0  0  0  0  0  0  0  0  0  0  0
  160.9570  209.8250  157.0680 F   0  0  0  0  0  0  0  0  0  0  0  0
  162.3300  208.0780  156.7580 F   0  0  0  0  0  0  0  0  0  0  0  0
  1 13  1  0  0  0  0
  1  5  1  0  0  0  0
  2  6  1  0  0  0  0
  3  7  1  0  0  0  0
  3 33  1  0  0  0  0
  4 14  1  0  0  0  0
  4  1  1  0  0  0  0
  5  3  1  0  0  0  0
  6 15  1  0  0  0  0
  6  4  1  0  0  0  0
  8  5  1  0  0  0  0
  9 13  1  0  0  0  0
 10  7  1  0  0  0  0
 11 12  1  0  0  0  0
 11 16  1  0  0  0  0
 12 16  1  0  0  0  0
 12  2  1  0  0  0  0
 13 10  1  0  0  0  0
 14  8  1  0  0  0  0
 15 18  1  0  0  0  0
 16 17  1  0  0  0  0
 17 26  1  0  0  0  0
 17 14  1  0  0  0  0
 18  9  1  0  0  0  0
 19 20  1  0  0  0  0
 20 15  1  0  0  0  0
 21 20  2  0  0  0  0
 22 24  1  0  0  0  0
 23 25  1  0  0  0  0
 23 24  2  0  0  0  0
 24 21  1  0  0  0  0
 25 19  2  0  0  0  0
 26 27  1  0  0  0  0
 27 28  1  0  0  0  0
 27 29  1  0  0  0  0
 28 29  1  0  0  0  0
 30 27  1  0  0  0  0
 31 30  1  0  0  0  0
 32 31  1  0  0  0  0
 33 34  1  0  0  0  0
 34 37  1  0  0  0  0
 34 36  1  0  0  0  0
 35 34  1  0  0  0  0
M  END
>  <MODEL>
8

>  <REMARK>
 VINA RESULT:      -5.5      3.933      6.910
  Name = 
  7 active torsions:
  status: ('A' for Active; 'I' for Inactive)
    1  A    between atoms: C_1  and  C_4
    2  A    between atoms: C_1  and  C_27
    3  A    between atoms: C_2  and  O_22
    4  A    between atoms: C_4  and  C_12
    5  A    between atoms: C_6  and  O_22
    6  A    between atoms: C_8  and  C_12
    7  A    between atoms: C_23  and  C_30
                            x       y       z     vdW  Elec       q    Type
                         _______ _______ _______ _____ _____    ______ ____

>  <TORSDO>
F 7

$$$$
