=
 OpenBabel11122414193D

 34 40  0  0  1  0  0  0  0  0999 V2000
  161.9540  208.2670  149.5250 C   0  0  2  0  0  3  0  0  0  0  0  0
  161.9250  206.6810  147.5900 C   0  0  0  0  0  2  0  0  0  0  0  0
  160.2130  209.4930  156.0470 C   0  0  0  0  0  0  0  0  0  0  0  0
  161.6140  209.6200  151.7020 C   0  0  0  0  0  0  0  0  0  0  0  0
  160.8370  208.4200  153.7290 C   0  0  0  0  0  0  0  0  0  0  0  0
  160.5250  207.1930  155.7180 O   0  0  0  0  0  0  0  0  0  0  0  0
  160.5420  209.4290  157.2610 O   0  0  0  0  0  0  0  0  0  0  0  0
  159.6330  211.1490  154.1720 C   0  0  0  0  0  2  0  0  0  0  0  0
  160.6020  206.0390  149.5330 C   0  0  2  0  0  3  0  0  0  0  0  0
  160.8020  202.9690  150.2920 C   0  0  0  0  0  2  0  0  0  0  0  0
  160.8700  207.3060  153.0480 N   0  0  0  0  0  0  0  0  0  0  0  0
  161.0690  210.9530  153.7400 C   0  0  0  0  0  2  0  0  0  0  0  0
  161.2310  205.9040  150.9350 C   0  0  1  0  0  3  0  0  0  0  0  0
  161.3040  205.3360  147.2890 C   0  0  0  0  0  2  0  0  0  0  0  0
  161.1850  209.6630  153.0730 N   0  0  0  0  0  0  0  0  0  0  0  0
  159.4240  210.6980  155.6100 C   0  0  0  0  0  2  0  0  0  0  0  0
  161.5520  203.6360  149.1450 C   0  0  2  0  0  3  0  0  0  0  0  0
  161.5570  208.3350  150.9810 C   0  0  0  0  0  0  0  0  0  0  0  0
  160.5100  208.3320  155.1780 C   0  0  0  0  0  0  0  0  0  0  0  0
  161.2030  207.2310  151.6490 C   0  0  0  0  0  0  0  0  0  0  0  0
  162.5410  210.6890  149.7240 C   0  0  0  0  0  2  0  0  0  0  0  0
  161.2050  203.5490  151.5660 N   0  0  0  0  0  2  0  0  0  0  0  0
  162.0210  210.6970  151.0940 N   0  0  0  0  0  0  0  0  0  0  0  0
  160.5150  204.8200  151.7330 C   0  0  0  0  0  2  0  0  0  0  0  0
  160.7300  204.8160  148.6000 C   0  0  1  0  0  3  0  0  0  0  0  0
  161.8230  209.6440  148.8740 C   0  0  0  0  0  2  0  0  0  0  0  0
  161.1180  207.2480  148.7350 C   0  0  1  0  0  3  0  0  0  0  0  0
  161.7630  202.6880  148.1400 O   0  0  0  0  0  0  0  0  0  0  0  0
  161.5300  201.4560  148.7550 C   0  0  0  0  0  2  0  0  0  0  0  0
  160.5420  201.2950  145.6220 N   0  0  0  0  0  2  0  0  0  0  0  0
  161.5170  199.7710  147.1320 C   0  0  0  0  0  2  0  0  0  0  0  0
  160.6630  200.6450  147.9160 N   0  0  0  0  0  0  0  0  0  0  0  0
  161.1460  199.9820  145.6920 C   0  0  0  0  0  2  0  0  0  0  0  0
  160.0260  201.5470  146.9620 C   0  0  0  0  0  2  0  0  0  0  0  0
  1 26  1  6  0  0  0
  1 18  1  0  0  0  0
  2 27  1  0  0  0  0
  3  7  2  0  0  0  0
  4 15  1  0  0  0  0
  5 19  1  0  0  0  0
  8 16  1  0  0  0  0
  9 13  1  0  0  0  0
 10 22  1  0  0  0  0
 11  5  2  0  0  0  0
 12  8  1  0  0  0  0
 13 20  1  0  0  0  0
 13 24  1  0  0  0  0
 14  2  1  0  0  0  0
 14 25  1  0  0  0  0
 15  5  1  0  0  0  0
 15 12  1  0  0  0  0
 16  3  1  0  0  0  0
 17 10  1  0  0  0  0
 18 20  2  0  0  0  0
 18  4  1  0  0  0  0
 19  6  2  0  0  0  0
 19  3  1  0  0  0  0
 20 11  1  0  0  0  0
 21 23  1  0  0  0  0
 22 24  1  0  0  0  0
 23  4  2  0  0  0  0
 25 17  1  0  0  0  0
 25  9  1  0  0  0  0
 26 21  1  0  0  0  0
 27  1  1  0  0  0  0
 27  9  1  0  0  0  0
 28 29  1  0  0  0  0
 28 17  1  0  0  0  0
 30 33  1  0  0  0  0
 30 34  1  0  0  0  0
 31 32  1  0  0  0  0
 32 29  1  0  0  0  0
 33 31  1  0  0  0  0
 34 32  1  0  0  0  0
M  END
>  <MODEL>
1

>  <REMARK>
 VINA RESULT:      -8.4      0.000      0.000
  Name = 
  3 active torsions:
  status: ('A' for Active; 'I' for Inactive)
    1  A    between atoms: C_17  and  O_28
    2  A    between atoms: O_28  and  C_29
    3  A    between atoms: C_29  and  N_32
                            x       y       z     vdW  Elec       q    Type
                         _______ _______ _______ _____ _____    ______ ____

>  <TORSDO>
F 3

$$$$
=
 OpenBabel11122414193D

 34 40  0  0  1  0  0  0  0  0999 V2000
  161.3800  204.8990  152.1230 C   0  0  2  0  0  3  0  0  0  0  0  0
  161.0730  206.4770  154.0400 C   0  0  0  0  0  2  0  0  0  0  0  0
  161.6140  204.0050  145.3250 C   0  0  0  0  0  0  0  0  0  0  0  0
  161.4760  203.6270  149.8740 C   0  0  0  0  0  0  0  0  0  0  0  0
  161.6740  204.9430  147.7810 C   0  0  0  0  0  0  0  0  0  0  0  0
  162.2950  206.1810  145.8720 O   0  0  0  0  0  0  0  0  0  0  0  0
  162.3230  203.9770  144.2840 O   0  0  0  0  0  0  0  0  0  0  0  0
  160.1150  202.5490  146.8160 C   0  0  0  0  0  2  0  0  0  0  0  0
  160.6210  207.3730  151.8200 C   0  0  2  0  0  3  0  0  0  0  0  0
  161.7170  210.3090  151.3480 C   0  0  0  0  0  2  0  0  0  0  0  0
  161.7270  206.0290  148.5030 N   0  0  0  0  0  0  0  0  0  0  0  0
  161.3410  202.4220  147.6930 C   0  0  0  0  0  2  0  0  0  0  0  0
  161.6820  207.3440  150.7000 C   0  0  1  0  0  3  0  0  0  0  0  0
  160.6960  207.9320  154.2090 C   0  0  0  0  0  2  0  0  0  0  0  0
  161.5130  203.6630  148.4380 N   0  0  0  0  0  0  0  0  0  0  0  0
  160.4850  203.0150  145.4160 C   0  0  0  0  0  2  0  0  0  0  0  0
  161.8920  209.5060  152.6320 C   0  0  2  0  0  3  0  0  0  0  0  0
  161.4690  204.9020  150.6150 C   0  0  0  0  0  0  0  0  0  0  0  0
  161.8600  205.0820  146.3110 C   0  0  0  0  0  0  0  0  0  0  0  0
  161.5990  206.0470  149.9360 C   0  0  0  0  0  0  0  0  0  0  0  0
  161.4590  202.4040  151.9760 C   0  0  0  0  0  2  0  0  0  0  0  0
  162.3730  209.6350  150.2360 N   0  0  0  0  0  2  0  0  0  0  0  0
  161.4200  202.4940  150.5150 N   0  0  0  0  0  0  0  0  0  0  0  0
  161.5150  208.5500  149.7830 C   0  0  0  0  0  2  0  0  0  0  0  0
  160.7030  208.5490  152.8170 C   0  0  1  0  0  3  0  0  0  0  0  0
  160.7500  203.5950  152.6150 C   0  0  0  0  0  2  0  0  0  0  0  0
  160.5770  206.0910  152.6670 C   0  0  1  0  0  3  0  0  0  0  0  0
  161.9690  210.3970  153.7070 O   0  0  0  0  0  0  0  0  0  0  0  0
  160.8870  211.2630  153.5330 C   0  0  0  0  0  2  0  0  0  0  0  0
  159.0570  210.4920  156.1550 N   0  0  0  0  0  2  0  0  0  0  0  0
  161.2920  211.1670  155.8350 C   0  0  0  0  0  2  0  0  0  0  0  0
  160.5050  211.8350  154.8140 N   0  0  0  0  0  0  0  0  0  0  0  0
  160.3200  210.6300  156.8460 C   0  0  0  0  0  2  0  0  0  0  0  0
  159.1190  211.4490  155.0570 C   0  0  0  0  0  2  0  0  0  0  0  0
  1 26  1  6  0  0  0
  1 27  1  0  0  0  0
  2 14  1  0  0  0  0
  3 16  1  0  0  0  0
  3 19  1  0  0  0  0
  4 23  2  0  0  0  0
  4 18  1  0  0  0  0
  5 15  1  0  0  0  0
  5 11  2  0  0  0  0
  6 19  2  0  0  0  0
  7  3  2  0  0  0  0
  8 12  1  0  0  0  0
  9 27  1  0  0  0  0
  9 25  1  0  0  0  0
 10 17  1  0  0  0  0
 11 20  1  0  0  0  0
 12 15  1  0  0  0  0
 13  9  1  0  0  0  0
 15  4  1  0  0  0  0
 16  8  1  0  0  0  0
 17 25  1  0  0  0  0
 17 28  1  0  0  0  0
 18  1  1  0  0  0  0
 19  5  1  0  0  0  0
 20 18  2  0  0  0  0
 20 13  1  0  0  0  0
 21 26  1  0  0  0  0
 22 10  1  0  0  0  0
 23 21  1  0  0  0  0
 24 22  1  0  0  0  0
 24 13  1  0  0  0  0
 25 14  1  0  0  0  0
 27  2  1  0  0  0  0
 29 28  1  0  0  0  0
 29 32  1  0  0  0  0
 30 33  1  0  0  0  0
 31 33  1  0  0  0  0
 32 34  1  0  0  0  0
 32 31  1  0  0  0  0
 34 30  1  0  0  0  0
M  END
>  <MODEL>
2

>  <REMARK>
 VINA RESULT:      -8.2      2.084      9.148
  Name = 
  3 active torsions:
  status: ('A' for Active; 'I' for Inactive)
    1  A    between atoms: C_17  and  O_28
    2  A    between atoms: O_28  and  C_29
    3  A    between atoms: C_29  and  N_32
                            x       y       z     vdW  Elec       q    Type
                         _______ _______ _______ _____ _____    ______ ____

>  <TORSDO>
F 3

$$$$
=
 OpenBabel11122414193D

 34 40  0  0  1  0  0  0  0  0999 V2000
  161.8330  208.2830  149.6050 C   0  0  2  0  0  3  0  0  0  0  0  0
  161.9500  206.1530  148.2990 C   0  0  0  0  0  2  0  0  0  0  0  0
  159.8040  211.4750  155.3290 C   0  0  0  0  0  0  0  0  0  0  0  0
  161.3520  210.2520  151.2100 C   0  0  0  0  0  0  0  0  0  0  0  0
  160.5610  209.7390  153.5040 C   0  0  0  0  0  0  0  0  0  0  0  0
  160.2380  209.2160  155.7810 O   0  0  0  0  0  0  0  0  0  0  0  0
  160.0930  211.8310  156.5020 O   0  0  0  0  0  0  0  0  0  0  0  0
  159.2120  212.3890  153.0040 C   0  0  0  0  0  2  0  0  0  0  0  0
  160.5910  206.1070  150.3210 C   0  0  2  0  0  3  0  0  0  0  0  0
  160.9120  203.4710  152.0510 C   0  0  0  0  0  2  0  0  0  0  0  0
  160.6730  208.4680  153.2280 N   0  0  0  0  0  0  0  0  0  0  0  0
  160.6710  212.1460  152.6860 C   0  0  0  0  0  2  0  0  0  0  0  0
  161.1750  206.4750  151.7010 C   0  0  1  0  0  3  0  0  0  0  0  0
  161.4060  204.7490  148.4460 C   0  0  0  0  0  2  0  0  0  0  0  0
  160.8720  210.7170  152.4820 N   0  0  0  0  0  0  0  0  0  0  0  0
  158.9740  212.4230  154.5060 C   0  0  0  0  0  2  0  0  0  0  0  0
  161.6690  203.7680  150.7610 C   0  0  2  0  0  3  0  0  0  0  0  0
  161.3820  208.8010  150.9510 C   0  0  0  0  0  0  0  0  0  0  0  0
  160.1880  210.1120  154.8960 C   0  0  0  0  0  0  0  0  0  0  0  0
  161.0590  207.9590  151.9380 C   0  0  0  0  0  0  0  0  0  0  0  0
  162.2960  210.6670  149.0070 C   0  0  0  0  0  2  0  0  0  0  0  0
  161.2400  204.4590  153.0700 N   0  0  0  0  0  2  0  0  0  0  0  0
  161.7280  211.0920  150.2890 N   0  0  0  0  0  0  0  0  0  0  0  0
  160.4850  205.6730  152.7970 C   0  0  0  0  0  2  0  0  0  0  0  0
  160.8110  204.6560  149.8440 C   0  0  1  0  0  3  0  0  0  0  0  0
  161.6600  209.3620  148.5360 C   0  0  0  0  0  2  0  0  0  0  0  0
  161.0770  207.0150  149.1790 C   0  0  1  0  0  3  0  0  0  0  0  0
  161.9610  202.5570  150.1280 O   0  0  0  0  0  0  0  0  0  0  0  0
  161.0050  201.6600  150.6100 C   0  0  0  0  0  2  0  0  0  0  0  0
  160.0100  201.8670  147.4820 N   0  0  0  0  0  2  0  0  0  0  0  0
  161.6800  200.6460  148.6130 C   0  0  0  0  0  2  0  0  0  0  0  0
  160.5680  200.7840  149.5350 N   0  0  0  0  0  0  0  0  0  0  0  0
  161.1620  201.0220  147.2530 C   0  0  0  0  0  2  0  0  0  0  0  0
  159.5240  201.4940  148.8050 C   0  0  0  0  0  2  0  0  0  0  0  0
  1 26  1  6  0  0  0
  1 18  1  0  0  0  0
  2 14  1  0  0  0  0
  2 27  1  0  0  0  0
  3  7  2  0  0  0  0
  4 15  1  0  0  0  0
  5 19  1  0  0  0  0
  8 16  1  0  0  0  0
  9 13  1  0  0  0  0
 10 22  1  0  0  0  0
 11  5  2  0  0  0  0
 12  8  1  0  0  0  0
 13 20  1  0  0  0  0
 13 24  1  0  0  0  0
 14 25  1  0  0  0  0
 15 12  1  0  0  0  0
 15  5  1  0  0  0  0
 16  3  1  0  0  0  0
 17 10  1  0  0  0  0
 18  4  1  0  0  0  0
 18 20  2  0  0  0  0
 19  3  1  0  0  0  0
 19  6  2  0  0  0  0
 20 11  1  0  0  0  0
 21 23  1  0  0  0  0
 23  4  2  0  0  0  0
 24 22  1  0  0  0  0
 25  9  1  0  0  0  0
 25 17  1  0  0  0  0
 26 21  1  0  0  0  0
 27  1  1  0  0  0  0
 27  9  1  0  0  0  0
 28 29  1  0  0  0  0
 28 17  1  0  0  0  0
 30 34  1  0  0  0  0
 31 32  1  0  0  0  0
 32 29  1  0  0  0  0
 33 30  1  0  0  0  0
 33 31  1  0  0  0  0
 34 32  1  0  0  0  0
M  END
>  <MODEL>
3

>  <REMARK>
 VINA RESULT:      -7.1      1.291      1.519
  Name = 
  3 active torsions:
  status: ('A' for Active; 'I' for Inactive)
    1  A    between atoms: C_17  and  O_28
    2  A    between atoms: O_28  and  C_29
    3  A    between atoms: C_29  and  N_32
                            x       y       z     vdW  Elec       q    Type
                         _______ _______ _______ _____ _____    ______ ____

>  <TORSDO>
F 3

$$$$
=
 OpenBabel11122414193D

 34 40  0  0  1  0  0  0  0  0999 V2000
  160.7310  206.9620  153.7180 C   0  0  2  0  0  3  0  0  0  0  0  0
  161.7810  205.3680  152.1010 C   0  0  0  0  0  2  0  0  0  0  0  0
  159.4130  213.4770  155.4140 C   0  0  0  0  0  0  0  0  0  0  0  0
  159.9430  208.9480  155.1730 C   0  0  0  0  0  0  0  0  0  0  0  0
  159.9650  211.2210  154.1820 C   0  0  0  0  0  0  0  0  0  0  0  0
  159.5880  213.2740  153.0850 O   0  0  0  0  0  0  0  0  0  0  0  0
  158.6210  214.4530  155.3330 O   0  0  0  0  0  0  0  0  0  0  0  0
  160.4840  211.8490  157.0850 C   0  0  0  0  0  2  0  0  0  0  0  0
  162.2520  207.7320  151.7470 C   0  0  2  0  0  3  0  0  0  0  0  0
  162.1810  208.6370  148.7100 C   0  0  0  0  0  2  0  0  0  0  0  0
  160.3720  210.6960  153.0580 N   0  0  0  0  0  0  0  0  0  0  0  0
  159.4010  210.8920  156.6410 C   0  0  0  0  0  2  0  0  0  0  0  0
  161.1210  208.7650  151.5520 C   0  0  1  0  0  3  0  0  0  0  0  0
  162.6510  205.4760  150.8680 C   0  0  0  0  0  2  0  0  0  0  0  0
  159.7530  210.3640  155.3290 N   0  0  0  0  0  0  0  0  0  0  0  0
  160.1370  213.2840  156.7190 C   0  0  0  0  0  2  0  0  0  0  0  0
  161.8920  207.2260  149.2090 C   0  0  2  0  0  3  0  0  0  0  0  0
  160.4720  208.4400  153.8950 C   0  0  0  0  0  0  0  0  0  0  0  0
  159.6680  212.6790  154.1930 C   0  0  0  0  0  0  0  0  0  0  0  0
  160.6650  209.2970  152.8860 C   0  0  0  0  0  0  0  0  0  0  0  0
  159.7850  206.6710  156.0140 C   0  0  0  0  0  2  0  0  0  0  0  0
  161.2090  209.5750  149.2540 N   0  0  0  0  0  2  0  0  0  0  0  0
  159.6810  208.1260  156.1490 N   0  0  0  0  0  0  0  0  0  0  0  0
  161.5830  209.8850  150.6270 C   0  0  0  0  0  2  0  0  0  0  0  0
  162.6940  206.9500  150.4910 C   0  0  1  0  0  3  0  0  0  0  0  0
  160.9280  206.2910  155.0770 C   0  0  0  0  0  2  0  0  0  0  0  0
  161.9520  206.6810  152.8280 C   0  0  1  0  0  3  0  0  0  0  0  0
  162.2520  206.3180  148.2080 O   0  0  0  0  0  0  0  0  0  0  0  0
  161.3550  206.5610  147.1650 C   0  0  0  0  0  2  0  0  0  0  0  0
  161.5040  203.6600  145.6230 N   0  0  0  0  0  2  0  0  0  0  0  0
  160.7470  205.8130  145.0340 C   0  0  0  0  0  2  0  0  0  0  0  0
  161.8750  205.9980  145.9300 N   0  0  0  0  0  0  0  0  0  0  0  0
  160.7730  204.3750  144.6000 C   0  0  0  0  0  2  0  0  0  0  0  0
  162.3640  204.6600  146.2440 C   0  0  0  0  0  2  0  0  0  0  0  0
  1 18  1  0  0  0  0
  1 26  1  1  0  0  0
  2 27  1  0  0  0  0
  3 16  1  0  0  0  0
  4 15  1  0  0  0  0
  4 23  2  0  0  0  0
  5 19  1  0  0  0  0
  5 15  1  0  0  0  0
  6 19  2  0  0  0  0
  7  3  2  0  0  0  0
  9 27  1  0  0  0  0
 10 17  1  0  0  0  0
 10 22  1  0  0  0  0
 11  5  2  0  0  0  0
 12  8  1  0  0  0  0
 13  9  1  0  0  0  0
 13 20  1  0  0  0  0
 14  2  1  0  0  0  0
 15 12  1  0  0  0  0
 16  8  1  0  0  0  0
 17 25  1  0  0  0  0
 18  4  1  0  0  0  0
 19  3  1  0  0  0  0
 20 11  1  0  0  0  0
 20 18  2  0  0  0  0
 21 23  1  0  0  0  0
 22 24  1  0  0  0  0
 24 13  1  0  0  0  0
 25 14  1  0  0  0  0
 25  9  1  0  0  0  0
 26 21  1  0  0  0  0
 27  1  1  0  0  0  0
 28 17  1  0  0  0  0
 29 28  1  0  0  0  0
 30 34  1  0  0  0  0
 31 32  1  0  0  0  0
 32 34  1  0  0  0  0
 32 29  1  0  0  0  0
 33 31  1  0  0  0  0
 33 30  1  0  0  0  0
M  END
>  <MODEL>
4

>  <REMARK>
 VINA RESULT:      -6.9      2.917      4.668
  Name = 
  3 active torsions:
  status: ('A' for Active; 'I' for Inactive)
    1  A    between atoms: C_17  and  O_28
    2  A    between atoms: O_28  and  C_29
    3  A    between atoms: C_29  and  N_32
                            x       y       z     vdW  Elec       q    Type
                         _______ _______ _______ _____ _____    ______ ____

>  <TORSDO>
F 3

$$$$
=
 OpenBabel11122414193D

 34 40  0  0  1  0  0  0  0  0999 V2000
  161.3670  207.9530  149.5730 C   0  0  2  0  0  3  0  0  0  0  0  0
  161.9180  210.0840  150.7620 C   0  0  0  0  0  2  0  0  0  0  0  0
  160.4990  201.1590  149.9460 C   0  0  0  0  0  0  0  0  0  0  0  0
  161.0120  205.5330  148.7380 C   0  0  0  0  0  0  0  0  0  0  0  0
  160.7000  203.7370  150.4200 C   0  0  0  0  0  0  0  0  0  0  0  0
  159.9790  202.1480  152.0070 O   0  0  0  0  0  0  0  0  0  0  0  0
  159.7010  200.2010  150.1330 O   0  0  0  0  0  0  0  0  0  0  0  0
  162.0450  202.2160  148.1910 C   0  0  0  0  0  2  0  0  0  0  0  0
  162.2220  208.0280  152.0330 C   0  0  2  0  0  3  0  0  0  0  0  0
  161.2390  208.1950  155.0420 C   0  0  0  0  0  2  0  0  0  0  0  0
  160.7650  204.6430  151.3580 N   0  0  0  0  0  0  0  0  0  0  0  0
  160.8950  203.1680  147.9480 C   0  0  0  0  0  2  0  0  0  0  0  0
  161.0670  207.0260  152.2460 C   0  0  1  0  0  3  0  0  0  0  0  0
  162.3820  210.4740  152.1480 C   0  0  0  0  0  2  0  0  0  0  0  0
  160.8520  204.1360  149.0370 N   0  0  0  0  0  0  0  0  0  0  0  0
  161.5800  200.9640  148.9180 C   0  0  0  0  0  2  0  0  0  0  0  0
  161.1350  209.3250  154.0240 C   0  0  2  0  0  3  0  0  0  0  0  0
  161.1470  206.4850  149.8550 C   0  0  0  0  0  0  0  0  0  0  0  0
  160.3940  202.3400  150.8320 C   0  0  0  0  0  0  0  0  0  0  0  0
  161.0170  206.0380  151.1080 C   0  0  0  0  0  0  0  0  0  0  0  0
  161.1490  207.3710  147.1510 C   0  0  0  0  0  2  0  0  0  0  0  0
  160.4560  207.0480  154.6060 N   0  0  0  0  0  2  0  0  0  0  0  0
  161.0650  205.9520  147.5060 N   0  0  0  0  0  0  0  0  0  0  0  0
  161.2140  206.3280  153.5930 C   0  0  0  0  0  2  0  0  0  0  0  0
  162.2860  209.2220  153.0090 C   0  0  1  0  0  3  0  0  0  0  0  0
  161.9700  208.1420  148.1800 C   0  0  0  0  0  2  0  0  0  0  0  0
  162.2740  208.6230  150.6170 C   0  0  1  0  0  3  0  0  0  0  0  0
  161.1970  210.5450  154.7050 O   0  0  0  0  0  0  0  0  0  0  0  0
  159.8690  210.8560  155.0060 C   0  0  0  0  0  2  0  0  0  0  0  0
  157.4350  212.8740  154.1040 N   0  0  0  0  0  2  0  0  0  0  0  0
  159.6790  212.5850  153.4430 C   0  0  0  0  0  2  0  0  0  0  0  0
  159.1760  211.2700  153.7970 N   0  0  0  0  0  0  0  0  0  0  0  0
  158.4820  213.4840  153.3140 C   0  0  0  0  0  2  0  0  0  0  0  0
  157.7740  211.4570  154.1530 C   0  0  0  0  0  2  0  0  0  0  0  0
  1 26  1  6  0  0  0
  1 18  1  0  0  0  0
  1 27  1  0  0  0  0
  2 14  1  0  0  0  0
  3  7  2  0  0  0  0
  3 19  1  0  0  0  0
  4 15  1  0  0  0  0
  4 18  1  0  0  0  0
  5 19  1  0  0  0  0
  5 11  2  0  0  0  0
  8 16  1  0  0  0  0
  9 13  1  0  0  0  0
  9 25  1  0  0  0  0
 12  8  1  0  0  0  0
 12 15  1  0  0  0  0
 13 24  1  0  0  0  0
 14 25  1  0  0  0  0
 15  5  1  0  0  0  0
 16  3  1  0  0  0  0
 17 28  1  0  0  0  0
 17 10  1  0  0  0  0
 18 20  2  0  0  0  0
 19  6  2  0  0  0  0
 20 11  1  0  0  0  0
 20 13  1  0  0  0  0
 21 23  1  0  0  0  0
 21 26  1  0  0  0  0
 22 10  1  0  0  0  0
 23  4  2  0  0  0  0
 24 22  1  0  0  0  0
 25 17  1  0  0  0  0
 27  2  1  0  0  0  0
 27  9  1  0  0  0  0
 28 29  1  0  0  0  0
 30 34  1  0  0  0  0
 31 32  1  0  0  0  0
 32 34  1  0  0  0  0
 32 29  1  0  0  0  0
 33 31  1  0  0  0  0
 33 30  1  0  0  0  0
M  END
>  <MODEL>
5

>  <REMARK>
 VINA RESULT:      -6.4      2.082      8.333
  Name = 
  3 active torsions:
  status: ('A' for Active; 'I' for Inactive)
    1  A    between atoms: C_17  and  O_28
    2  A    between atoms: O_28  and  C_29
    3  A    between atoms: C_29  and  N_32
                            x       y       z     vdW  Elec       q    Type
                         _______ _______ _______ _____ _____    ______ ____

>  <TORSDO>
F 3

$$$$
=
 OpenBabel11122414193D

 34 40  0  0  1  0  0  0  0  0999 V2000
  160.6870  206.8310  154.0340 C   0  0  2  0  0  3  0  0  0  0  0  0
  161.7410  205.0670  152.6060 C   0  0  0  0  0  2  0  0  0  0  0  0
  159.3590  213.4930  154.9890 C   0  0  0  0  0  0  0  0  0  0  0  0
  159.8940  208.9660  155.2570 C   0  0  0  0  0  0  0  0  0  0  0  0
  159.9150  211.1140  154.0170 C   0  0  0  0  0  0  0  0  0  0  0  0
  159.5370  213.0310  152.6970 O   0  0  0  0  0  0  0  0  0  0  0  0
  158.5650  214.4530  154.7990 O   0  0  0  0  0  0  0  0  0  0  0  0
  160.4300  212.0630  156.8330 C   0  0  0  0  0  2  0  0  0  0  0  0
  162.2090  207.3780  151.9900 C   0  0  2  0  0  3  0  0  0  0  0  0
  162.1410  207.9380  148.8720 C   0  0  0  0  0  2  0  0  0  0  0  0
  160.3240  210.4670  152.9600 N   0  0  0  0  0  0  0  0  0  0  0  0
  159.3480  211.0620  156.4970 C   0  0  0  0  0  2  0  0  0  0  0  0
  161.0780  208.3810  151.6800 C   0  0  1  0  0  3  0  0  0  0  0  0
  162.6120  205.0380  151.3700 C   0  0  0  0  0  2  0  0  0  0  0  0
  159.7030  210.3900  155.2530 N   0  0  0  0  0  0  0  0  0  0  0  0
  160.0810  213.4480  156.3080 C   0  0  0  0  0  2  0  0  0  0  0  0
  161.8530  206.5910  149.5240 C   0  0  2  0  0  3  0  0  0  0  0  0
  160.4260  208.3190  154.0440 C   0  0  0  0  0  0  0  0  0  0  0  0
  159.6160  212.5640  153.8650 C   0  0  0  0  0  0  0  0  0  0  0  0
  160.6190  209.0580  152.9460 C   0  0  0  0  0  0  0  0  0  0  0  0
  159.7380  206.7970  156.3460 C   0  0  0  0  0  2  0  0  0  0  0  0
  161.1670  208.9290  149.3060 N   0  0  0  0  0  2  0  0  0  0  0  0
  159.6330  208.2580  156.3190 N   0  0  0  0  0  0  0  0  0  0  0  0
  161.5390  209.3910  150.6360 C   0  0  0  0  0  2  0  0  0  0  0  0
  162.6540  206.4610  150.8310 C   0  0  1  0  0  3  0  0  0  0  0  0
  160.8830  206.3160  155.4600 C   0  0  0  0  0  2  0  0  0  0  0  0
  161.9090  206.4540  153.1820 C   0  0  1  0  0  3  0  0  0  0  0  0
  162.2150  205.5770  148.6320 O   0  0  0  0  0  0  0  0  0  0  0  0
  161.1040  204.7320  148.5800 C   0  0  0  0  0  2  0  0  0  0  0  0
  159.8190  201.7340  148.9980 N   0  0  0  0  0  2  0  0  0  0  0  0
  161.1730  202.7420  147.3530 C   0  0  0  0  0  2  0  0  0  0  0  0
  161.5400  203.3460  148.6210 N   0  0  0  0  0  0  0  0  0  0  0  0
  160.3640  201.5180  147.6760 C   0  0  0  0  0  2  0  0  0  0  0  0
  160.7320  202.6760  149.6350 C   0  0  0  0  0  2  0  0  0  0  0  0
  1 18  1  0  0  0  0
  1 26  1  1  0  0  0
  2 27  1  0  0  0  0
  3 16  1  0  0  0  0
  4 23  2  0  0  0  0
  5 15  1  0  0  0  0
  6 19  2  0  0  0  0
  7  3  2  0  0  0  0
  9 27  1  0  0  0  0
 10 22  1  0  0  0  0
 10 17  1  0  0  0  0
 11  5  2  0  0  0  0
 12  8  1  0  0  0  0
 13  9  1  0  0  0  0
 13 20  1  0  0  0  0
 14  2  1  0  0  0  0
 15  4  1  0  0  0  0
 15 12  1  0  0  0  0
 16  8  1  0  0  0  0
 17 25  1  0  0  0  0
 18  4  1  0  0  0  0
 19  5  1  0  0  0  0
 19  3  1  0  0  0  0
 20 11  1  0  0  0  0
 20 18  2  0  0  0  0
 22 24  1  0  0  0  0
 23 21  1  0  0  0  0
 24 13  1  0  0  0  0
 25 14  1  0  0  0  0
 25  9  1  0  0  0  0
 26 21  1  0  0  0  0
 27  1  1  0  0  0  0
 28 17  1  0  0  0  0
 29 32  1  0  0  0  0
 29 28  1  0  0  0  0
 30 34  1  0  0  0  0
 31 33  1  0  0  0  0
 31 32  1  0  0  0  0
 32 34  1  0  0  0  0
 33 30  1  0  0  0  0
M  END
>  <MODEL>
6

>  <REMARK>
 VINA RESULT:      -6.2      2.272      4.353
  Name = 
  3 active torsions:
  status: ('A' for Active; 'I' for Inactive)
    1  A    between atoms: C_17  and  O_28
    2  A    between atoms: O_28  and  C_29
    3  A    between atoms: C_29  and  N_32
                            x       y       z     vdW  Elec       q    Type
                         _______ _______ _______ _____ _____    ______ ____

>  <TORSDO>
F 3

$$$$
