=
 OpenBabel11122414353D

 34 40  0  0  1  0  0  0  0  0999 V2000
  160.9810  207.5820  154.0770 C   0  0  1  0  0  3  0  0  0  0  0  0
  161.4720  205.3850  153.1910 C   0  0  0  0  0  2  0  0  0  0  0  0
  158.3580  213.4820  153.2210 C   0  0  0  0  0  0  0  0  0  0  0  0
  160.5480  209.8910  154.8760 C   0  0  2  0  0  3  0  0  0  0  0  0
  160.0910  211.7020  153.2330 C   0  0  0  0  0  0  0  0  0  0  0  0
  160.0290  213.4410  151.3450 C   0  0  0  0  0  1  0  0  0  0  0  0
  157.4100  213.5170  152.3910 O   0  0  0  0  0  0  0  0  0  0  0  0
  159.2040  213.5830  155.5420 C   0  0  0  0  0  2  0  0  0  0  0  0
  161.5860  207.2200  151.8660 C   0  0  2  0  0  3  0  0  0  0  0  0
  161.2590  207.0340  148.6220 C   0  0  0  0  0  2  0  0  0  0  0  0
  160.4790  210.7400  152.1660 C   0  0  0  0  0  3  0  0  0  0  0  0
  159.5510  212.1080  155.7270 C   0  0  0  0  0  2  0  0  0  0  0  0
  160.8850  208.4490  151.2760 C   0  0  1  0  0  3  0  0  0  0  0  0
  161.8770  204.8610  151.8210 C   0  0  0  0  0  2  0  0  0  0  0  0
  160.0440  211.2860  154.5370 C   0  0  0  0  0  0  0  0  0  0  0  0
  158.1090  213.7340  154.5970 N   0  0  0  0  0  2  0  0  0  0  0  0
  160.9740  206.0100  149.7380 C   0  0  2  0  0  3  0  0  0  0  0  0
  160.2600  208.8960  153.7540 C   0  0  1  0  0  3  0  0  0  0  0  0
  159.7480  213.1150  152.8090 C   0  0  1  0  0  3  0  0  0  0  0  0
  160.6430  209.4350  152.4000 C   0  0  0  0  0  0  0  0  0  0  0  0
  160.6240  208.1100  156.4790 C   0  0  0  0  0  2  0  0  0  0  0  0
  161.9010  208.3510  149.0080 C   0  0  0  0  0  3  0  0  0  0  0  0
  159.9660  209.3740  156.1210 N   0  0  0  0  0  2  0  0  0  0  0  0
  161.7200  209.0050  150.1640 C   0  0  0  0  0  3  0  0  0  0  0  0
  161.9560  206.0870  150.9180 C   0  0  1  0  0  3  0  0  0  0  0  0
  160.4090  207.0510  155.3910 C   0  0  0  0  0  2  0  0  0  0  0  0
  160.8050  206.6560  152.9570 N   0  0  2  0  0  0  0  0  0  0  0  0
  160.9560  204.6760  149.1540 N   0  0  0  0  0  2  0  0  0  0  0  0
  161.4700  204.7880  147.9050 O   0  0  0  0  0  0  0  0  0  0  0  0
  160.5270  201.4230  147.5910 N   0  0  0  0  0  2  0  0  0  0  0  0
  161.2580  203.2010  146.1550 C   0  0  0  0  0  2  0  0  0  0  0  0
  161.7840  203.4800  147.5320 C   0  0  2  0  0  3  0  0  0  0  0  0
  160.8620  201.7470  146.2100 C   0  0  0  0  0  2  0  0  0  0  0  0
  161.0580  202.4970  148.4240 C   0  0  0  0  0  2  0  0  0  0  0  0
  1 26  1  1  0  0  0
  3 16  1  0  0  0  0
  4 15  1  6  0  0  0
  4 23  1  0  0  0  0
  5 15  2  0  0  0  0
  6 19  1  0  0  0  0
  7  3  2  0  0  0  0
  8 12  1  0  0  0  0
  9 27  1  0  0  0  0
 10 22  1  0  0  0  0
 10 17  1  0  0  0  0
 11 20  2  0  0  0  0
 11  5  1  0  0  0  0
 13  9  1  0  0  0  0
 13 20  1  0  0  0  0
 14  2  1  0  0  0  0
 15 12  1  0  0  0  0
 16  8  1  0  0  0  0
 17 25  1  0  0  0  0
 18  1  1  0  0  0  0
 18  4  1  0  0  0  0
 19  3  1  0  0  0  0
 19  5  1  0  0  0  0
 20 18  1  0  0  0  0
 22 24  2  0  0  0  0
 23 21  1  0  0  0  0
 24 13  1  0  0  0  0
 25 14  1  0  0  0  0
 25  9  1  0  0  0  0
 26 21  1  0  0  0  0
 27  2  1  0  0  0  0
 27  1  1  0  0  0  0
 28 17  1  0  0  0  0
 29 28  1  0  0  0  0
 30 34  1  0  0  0  0
 31 33  1  0  0  0  0
 31 32  1  0  0  0  0
 32 29  1  0  0  0  0
 32 34  1  0  0  0  0
 33 30  1  0  0  0  0
M  END
>  <MODEL>
1

>  <REMARK>
 VINA RESULT:      -9.8      0.000      0.000
  Name = 
  3 active torsions:
  status: ('A' for Active; 'I' for Inactive)
    1  A    between atoms: C_17  and  N_28
    2  A    between atoms: N_28  and  O_29
    3  A    between atoms: O_29  and  C_32
                            x       y       z     vdW  Elec       q    Type
                         _______ _______ _______ _____ _____    ______ ____

>  <TORSDO>
F 3

$$$$
=
 OpenBabel11122414353D

 34 40  0  0  1  0  0  0  0  0999 V2000
  160.9380  207.9320  154.2980 C   0  0  1  0  0  3  0  0  0  0  0  0
  161.7140  205.9070  153.2270 C   0  0  0  0  0  2  0  0  0  0  0  0
  157.7410  213.5910  153.8770 C   0  0  0  0  0  0  0  0  0  0  0  0
  160.2130  210.0840  155.2990 C   0  0  2  0  0  3  0  0  0  0  0  0
  159.6530  212.0070  153.8230 C   0  0  0  0  0  0  0  0  0  0  0  0
  159.5080  213.9260  152.1230 C   0  0  0  0  0  1  0  0  0  0  0  0
  156.8420  213.6190  152.9940 O   0  0  0  0  0  0  0  0  0  0  0  0
  158.4400  213.5250  156.2480 C   0  0  0  0  0  2  0  0  0  0  0  0
  161.7020  207.8780  152.1070 C   0  0  2  0  0  3  0  0  0  0  0  0
  161.5780  208.0140  148.8470 C   0  0  0  0  0  2  0  0  0  0  0  0
  160.2030  211.2120  152.6910 C   0  0  0  0  0  3  0  0  0  0  0  0
  158.9340  212.0820  156.3040 C   0  0  0  0  0  2  0  0  0  0  0  0
  160.9040  209.0850  151.6010 C   0  0  1  0  0  3  0  0  0  0  0  0
  162.2500  205.5790  151.8400 C   0  0  0  0  0  2  0  0  0  0  0  0
  159.5800  211.4480  155.0720 C   0  0  0  0  0  0  0  0  0  0  0  0
  157.3890  213.6640  155.2520 N   0  0  0  0  0  2  0  0  0  0  0  0
  161.3440  206.8500  149.8300 C   0  0  2  0  0  3  0  0  0  0  0  0
  160.0970  209.1930  154.0640 C   0  0  1  0  0  3  0  0  0  0  0  0
  159.1830  213.4150  153.5240 C   0  0  1  0  0  3  0  0  0  0  0  0
  160.4950  209.9130  152.8010 C   0  0  0  0  0  0  0  0  0  0  0  0
  160.3920  208.1560  156.7130 C   0  0  0  0  0  2  0  0  0  0  0  0
  162.0510  209.3400  149.4080 C   0  0  0  0  0  3  0  0  0  0  0  0
  159.6220  209.3780  156.4420 N   0  0  0  0  0  2  0  0  0  0  0  0
  161.7350  209.8420  150.6090 C   0  0  0  0  0  3  0  0  0  0  0  0
  162.2450  206.8980  151.0750 C   0  0  1  0  0  3  0  0  0  0  0  0
  160.3550  207.2050  155.5090 C   0  0  0  0  0  2  0  0  0  0  0  0
  160.9270  207.1210  153.0790 N   0  0  2  0  0  0  0  0  0  0  0  0
  161.5040  205.5940  149.1120 N   0  0  0  0  0  2  0  0  0  0  0  0
  161.8690  205.9080  147.8460 O   0  0  0  0  0  0  0  0  0  0  0  0
  161.1340  204.5850  144.6810 N   0  0  0  0  0  2  0  0  0  0  0  0
  161.7090  203.7580  146.8590 C   0  0  0  0  0  2  0  0  0  0  0  0
  161.0670  205.1020  147.0350 C   0  0  2  0  0  3  0  0  0  0  0  0
  161.3360  203.3630  145.4510 C   0  0  0  0  0  2  0  0  0  0  0  0
  160.9980  205.6780  145.6380 C   0  0  0  0  0  2  0  0  0  0  0  0
  1 26  1  1  0  0  0
  3 16  1  0  0  0  0
  4 15  1  6  0  0  0
  4 23  1  0  0  0  0
  5 15  2  0  0  0  0
  6 19  1  0  0  0  0
  7  3  2  0  0  0  0
  8 12  1  0  0  0  0
  9 27  1  0  0  0  0
 10 22  1  0  0  0  0
 10 17  1  0  0  0  0
 11 20  2  0  0  0  0
 11  5  1  0  0  0  0
 13  9  1  0  0  0  0
 13 20  1  0  0  0  0
 14  2  1  0  0  0  0
 15 12  1  0  0  0  0
 16  8  1  0  0  0  0
 17 25  1  0  0  0  0
 18  1  1  0  0  0  0
 18  4  1  0  0  0  0
 19  5  1  0  0  0  0
 19  3  1  0  0  0  0
 20 18  1  0  0  0  0
 22 24  2  0  0  0  0
 23 21  1  0  0  0  0
 24 13  1  0  0  0  0
 25 14  1  0  0  0  0
 25  9  1  0  0  0  0
 26 21  1  0  0  0  0
 27  2  1  0  0  0  0
 27  1  1  0  0  0  0
 28 17  1  0  0  0  0
 29 28  1  0  0  0  0
 30 33  1  0  0  0  0
 30 34  1  0  0  0  0
 31 32  1  0  0  0  0
 32 29  1  0  0  0  0
 33 31  1  0  0  0  0
 34 32  1  0  0  0  0
M  END
>  <MODEL>
2

>  <REMARK>
 VINA RESULT:      -9.1      1.182      1.368
  Name = 
  3 active torsions:
  status: ('A' for Active; 'I' for Inactive)
    1  A    between atoms: C_17  and  N_28
    2  A    between atoms: N_28  and  O_29
    3  A    between atoms: O_29  and  C_32
                            x       y       z     vdW  Elec       q    Type
                         _______ _______ _______ _____ _____    ______ ____

>  <TORSDO>
F 3

$$$$
=
 OpenBabel11122414353D

 34 40  0  0  1  0  0  0  0  0999 V2000
  161.7790  207.6660  149.6370 C   0  0  1  0  0  3  0  0  0  0  0  0
  161.7490  209.7460  150.8700 C   0  0  0  0  0  2  0  0  0  0  0  0
  159.7290  201.5130  149.0290 C   0  0  0  0  0  0  0  0  0  0  0  0
  161.8540  205.4670  148.4910 C   0  0  2  0  0  3  0  0  0  0  0  0
  161.1780  203.4100  149.7170 C   0  0  0  0  0  0  0  0  0  0  0  0
  160.8040  201.4210  151.2970 C   0  0  0  0  0  1  0  0  0  0  0  0
  158.6000  201.2860  149.5420 O   0  0  0  0  0  0  0  0  0  0  0  0
  161.1840  201.8100  147.0520 C   0  0  0  0  0  2  0  0  0  0  0  0
  161.7090  207.7570  151.9550 C   0  0  2  0  0  3  0  0  0  0  0  0
  160.4860  207.4540  154.9680 C   0  0  0  0  0  2  0  0  0  0  0  0
  161.1450  204.2390  150.9530 C   0  0  0  0  0  3  0  0  0  0  0  0
  161.3940  203.3200  147.1440 C   0  0  0  0  0  2  0  0  0  0  0  0
  161.0210  206.4050  152.1750 C   0  0  1  0  0  3  0  0  0  0  0  0
  161.6990  210.1020  152.3490 C   0  0  0  0  0  2  0  0  0  0  0  0
  161.4430  204.0020  148.5100 C   0  0  0  0  0  0  0  0  0  0  0  0
  159.8970  201.4410  147.6200 N   0  0  0  0  0  2  0  0  0  0  0  0
  160.4000  208.6000  153.9420 C   0  0  2  0  0  3  0  0  0  0  0  0
  161.1550  206.2660  149.5880 C   0  0  1  0  0  3  0  0  0  0  0  0
  160.8990  201.9280  149.8610 C   0  0  1  0  0  3  0  0  0  0  0  0
  161.2130  205.5720  150.9250 C   0  0  0  0  0  0  0  0  0  0  0  0
  162.1580  207.4570  147.1900 C   0  0  0  0  0  2  0  0  0  0  0  0
  161.3590  206.2600  154.6360 C   0  0  0  0  0  3  0  0  0  0  0  0
  161.5790  206.1070  147.1990 N   0  0  0  0  0  2  0  0  0  0  0  0
  161.5780  205.7650  153.4100 C   0  0  0  0  0  3  0  0  0  0  0  0
  161.6700  208.7710  153.0920 C   0  0  1  0  0  3  0  0  0  0  0  0
  161.5310  208.3310  148.2840 C   0  0  0  0  0  2  0  0  0  0  0  0
  161.1960  208.4060  150.7580 N   0  0  2  0  0  0  0  0  0  0  0  0
  160.0680  209.8320  154.6430 N   0  0  0  0  0  2  0  0  0  0  0  0
  159.7580  209.4870  155.9170 O   0  0  0  0  0  0  0  0  0  0  0  0
  159.7910  212.9940  155.9730 N   0  0  0  0  0  2  0  0  0  0  0  0
  158.1610  211.2380  155.8540 C   0  0  0  0  0  2  0  0  0  0  0  0
  159.3810  210.6840  156.5270 C   0  0  2  0  0  3  0  0  0  0  0  0
  158.3580  212.7320  155.9250 C   0  0  0  0  0  2  0  0  0  0  0  0
  160.4470  211.7350  156.3110 C   0  0  0  0  0  2  0  0  0  0  0  0
  1 26  1  6  0  0  0
  1 27  1  0  0  0  0
  2 14  1  0  0  0  0
  3  7  2  0  0  0  0
  3 19  1  0  0  0  0
  4 23  1  6  0  0  0
  4 15  1  0  0  0  0
  4 18  1  0  0  0  0
  5 19  1  0  0  0  0
  5 11  1  0  0  0  0
  8 12  1  0  0  0  0
  8 16  1  0  0  0  0
  9 13  1  0  0  0  0
  9 25  1  0  0  0  0
 12 15  1  0  0  0  0
 13 24  1  0  0  0  0
 14 25  1  0  0  0  0
 15  5  2  0  0  0  0
 16  3  1  0  0  0  0
 17 28  1  0  0  0  0
 17 10  1  0  0  0  0
 18  1  1  0  0  0  0
 18 20  1  0  0  0  0
 19  6  1  0  0  0  0
 20 11  2  0  0  0  0
 20 13  1  0  0  0  0
 21 23  1  0  0  0  0
 21 26  1  0  0  0  0
 22 10  1  0  0  0  0
 24 22  2  0  0  0  0
 25 17  1  0  0  0  0
 27  2  1  0  0  0  0
 27  9  1  0  0  0  0
 28 29  1  0  0  0  0
 29 32  1  0  0  0  0
 30 34  1  0  0  0  0
 31 33  1  0  0  0  0
 31 32  1  0  0  0  0
 33 30  1  0  0  0  0
 34 32  1  0  0  0  0
M  END
>  <MODEL>
3

>  <REMARK>
 VINA RESULT:      -8.6      2.097      9.363
  Name = 
  3 active torsions:
  status: ('A' for Active; 'I' for Inactive)
    1  A    between atoms: C_17  and  N_28
    2  A    between atoms: N_28  and  O_29
    3  A    between atoms: O_29  and  C_32
                            x       y       z     vdW  Elec       q    Type
                         _______ _______ _______ _____ _____    ______ ____

>  <TORSDO>
F 3

$$$$
=
 OpenBabel11122414353D

 34 40  0  0  1  0  0  0  0  0999 V2000
  161.5010  207.9260  149.6960 C   0  0  1  0  0  3  0  0  0  0  0  0
  161.7310  206.4400  147.8020 C   0  0  0  0  0  2  0  0  0  0  0  0
  161.8300  208.8430  156.1360 C   0  0  0  0  0  0  0  0  0  0  0  0
  161.1710  209.3590  151.6940 C   0  0  2  0  0  3  0  0  0  0  0  0
  160.8310  208.3120  153.9250 C   0  0  0  0  0  0  0  0  0  0  0  0
  160.1260  207.0000  156.0170 C   0  0  0  0  0  1  0  0  0  0  0  0
  162.6340  208.0760  156.7330 O   0  0  0  0  0  0  0  0  0  0  0  0
  161.2010  211.0790  155.2900 C   0  0  0  0  0  2  0  0  0  0  0  0
  160.8750  205.6930  149.7620 C   0  0  2  0  0  3  0  0  0  0  0  0
  160.9710  202.5370  150.6000 C   0  0  0  0  0  2  0  0  0  0  0  0
  160.7120  207.0060  153.2190 C   0  0  0  0  0  3  0  0  0  0  0  0
  161.4050  210.8280  153.7980 C   0  0  0  0  0  2  0  0  0  0  0  0
  161.0540  205.4920  151.2720 C   0  0  1  0  0  3  0  0  0  0  0  0
  161.4180  204.9700  147.5630 C   0  0  0  0  0  2  0  0  0  0  0  0
  161.1290  209.4430  153.2130 C   0  0  0  0  0  0  0  0  0  0  0  0
  162.0920  210.2380  156.0730 N   0  0  0  0  0  2  0  0  0  0  0  0
  161.6870  203.3190  149.4820 C   0  0  2  0  0  3  0  0  0  0  0  0
  161.6910  208.0060  151.2160 C   0  0  1  0  0  3  0  0  0  0  0  0
  160.6250  208.3160  155.4250 C   0  0  1  0  0  3  0  0  0  0  0  0
  161.0320  206.8550  151.9310 C   0  0  0  0  0  0  0  0  0  0  0  0
  161.8540  210.3860  149.6380 C   0  0  0  0  0  2  0  0  0  0  0  0
  159.9470  203.2710  151.4420 C   0  0  0  0  0  3  0  0  0  0  0  0
  161.9990  210.4160  151.1000 N   0  0  0  0  0  2  0  0  0  0  0  0
  159.9860  204.5680  151.7750 C   0  0  0  0  0  3  0  0  0  0  0  0
  160.8430  204.4530  148.8770 C   0  0  1  0  0  3  0  0  0  0  0  0
  162.3300  209.0440  149.0660 C   0  0  0  0  0  2  0  0  0  0  0  0
  161.8920  206.5920  149.2390 N   0  0  2  0  0  0  0  0  0  0  0  0
  162.1170  202.3790  148.4570 N   0  0  0  0  0  2  0  0  0  0  0  0
  161.0130  201.7050  148.0540 O   0  0  0  0  0  0  0  0  0  0  0  0
  160.4530  199.6580  145.2600 N   0  0  0  0  0  2  0  0  0  0  0  0
  160.1210  201.9540  145.8710 C   0  0  0  0  0  2  0  0  0  0  0  0
  161.2440  201.4170  146.7080 C   0  0  2  0  0  3  0  0  0  0  0  0
  159.9870  200.9450  144.7580 C   0  0  0  0  0  2  0  0  0  0  0  0
  161.2050  199.9220  146.4830 C   0  0  0  0  0  2  0  0  0  0  0  0
  1 26  1  6  0  0  0
  1 18  1  0  0  0  0
  2 27  1  0  0  0  0
  3  7  2  0  0  0  0
  4 23  1  1  0  0  0
  4 15  1  0  0  0  0
  5 19  1  0  0  0  0
  8 16  1  0  0  0  0
  9 13  1  0  0  0  0
 10 22  1  0  0  0  0
 11  5  1  0  0  0  0
 12  8  1  0  0  0  0
 13 24  1  0  0  0  0
 13 20  1  0  0  0  0
 14  2  1  0  0  0  0
 14 25  1  0  0  0  0
 15 12  1  0  0  0  0
 15  5  2  0  0  0  0
 16  3  1  0  0  0  0
 17 10  1  0  0  0  0
 18  4  1  0  0  0  0
 18 20  1  0  0  0  0
 19  6  1  0  0  0  0
 19  3  1  0  0  0  0
 20 11  2  0  0  0  0
 21 23  1  0  0  0  0
 22 24  2  0  0  0  0
 25 17  1  0  0  0  0
 25  9  1  0  0  0  0
 26 21  1  0  0  0  0
 27  1  1  0  0  0  0
 27  9  1  0  0  0  0
 28 17  1  0  0  0  0
 29 28  1  0  0  0  0
 30 34  1  0  0  0  0
 31 32  1  0  0  0  0
 32 29  1  0  0  0  0
 33 30  1  0  0  0  0
 33 31  1  0  0  0  0
 34 32  1  0  0  0  0
M  END
>  <MODEL>
4

>  <REMARK>
 VINA RESULT:      -7.5      2.607      4.542
  Name = 
  3 active torsions:
  status: ('A' for Active; 'I' for Inactive)
    1  A    between atoms: C_17  and  N_28
    2  A    between atoms: N_28  and  O_29
    3  A    between atoms: O_29  and  C_32
                            x       y       z     vdW  Elec       q    Type
                         _______ _______ _______ _____ _____    ______ ____

>  <TORSDO>
F 3

$$$$
