=
 OpenBabel11122414273D

 34 42  0  0  1  0  0  0  0  0999 V2000
  160.8650  207.6850  154.0460 C   0  0  0  0  0  0  0  0  0  0  0  0
  161.5790  205.4110  153.1800 C   0  0  0  0  0  2  0  0  0  0  0  0
  158.0750  213.4990  152.8840 C   0  0  2  0  0  3  0  0  0  0  0  0
  159.7690  209.8020  154.5680 C   0  0  0  0  0  0  0  0  0  0  0  0
  159.4040  211.4820  152.7010 C   0  0  1  0  0  3  0  0  0  0  0  0
  160.1500  213.6270  151.4090 C   0  0  0  0  0  2  0  0  0  0  0  0
  158.6470  213.6750  151.4930 C   0  0  1  0  0  3  0  0  0  0  0  0
  158.9510  213.5090  155.5000 S   0  0  0  0  0  0  0  0  0  0  0  0
  161.9740  207.3650  151.7970 C   0  0  2  0  0  3  0  0  0  0  0  0
  161.1880  206.9190  148.6550 C   0  0  0  0  0  2  0  0  0  0  0  0
  160.6530  210.8520  152.0710 C   0  0  0  0  0  2  0  0  0  0  0  0
  158.3600  211.8120  155.0420 C   0  0  0  0  0  2  0  0  0  0  0  0
  160.9820  208.4290  151.2660 C   0  0  1  0  0  3  0  0  0  0  0  0
  162.1760  204.9320  151.8700 C   0  0  0  0  0  2  0  0  0  0  0  0
  159.2840  211.0940  154.1360 N   0  0  0  0  0  0  0  0  0  0  0  0
  158.3160  214.4520  154.0310 C   0  0  0  0  0  2  0  0  0  0  0  0
  161.0240  205.9700  149.8550 C   0  0  2  0  0  3  0  0  0  0  0  0
  160.4400  208.9650  153.6590 C   0  0  0  0  0  0  0  0  0  0  0  0
  159.4670  213.0020  152.6080 C   0  0  2  0  0  0  0  0  0  0  0  0
  160.6790  209.4140  152.3200 N   0  0  0  0  0  0  0  0  0  0  0  0
  159.9810  208.0710  156.2690 C   0  0  0  0  0  3  0  0  0  0  0  0
  162.0530  208.1500  148.9310 C   0  0  0  0  0  2  0  0  0  0  0  0
  159.5510  209.3420  155.8790 C   0  0  0  0  0  3  0  0  0  0  0  0
  161.4400  209.1020  149.9580 C   0  0  0  0  0  2  0  0  0  0  0  0
  162.1480  206.1190  150.9060 C   0  0  1  0  0  3  0  0  0  0  0  0
  160.6300  207.2410  155.3530 C   0  0  0  0  0  3  0  0  0  0  0  0
  161.5260  206.8540  153.0830 N   0  0  0  0  0  0  0  0  0  0  0  0
  160.9470  204.6570  149.3820 O   0  0  0  0  0  0  0  0  0  0  0  0
  161.0820  204.7660  147.9950 C   0  0  0  0  0  2  0  0  0  0  0  0
  160.6330  201.5690  146.9950 N   0  0  0  0  0  0  0  0  0  0  0  0
  161.5320  203.4140  145.9430 C   0  0  0  0  0  2  0  0  0  0  0  0
  161.7910  203.5430  147.4450 C   0  0  2  0  0  3  0  0  0  0  0  0
  160.7960  202.1190  145.8440 C   0  0  0  0  0  3  0  0  0  0  0  0
  161.1940  202.3460  148.0050 N   0  0  0  0  0  2  0  0  0  0  0  0
  1 26  1  0  0  0  0
  3 16  1  1  0  0  0
  4 23  2  0  0  0  0
  5 11  1  1  0  0  0
  5 15  1  0  0  0  0
  7  6  1  1  0  0  0
  7 19  1  0  0  0  0
  7  3  1  0  0  0  0
  9 27  1  1  0  0  0
 10 22  1  0  0  0  0
 10 17  1  0  0  0  0
 11 20  1  0  0  0  0
 12  8  1  0  0  0  0
 13 24  1  6  0  0  0
 13  9  1  0  0  0  0
 13 20  1  0  0  0  0
 14  2  1  0  0  0  0
 15  4  1  0  0  0  0
 15 12  1  0  0  0  0
 16  8  1  0  0  0  0
 17 28  1  6  0  0  0
 17 25  1  0  0  0  0
 18  1  2  0  0  0  0
 18  4  1  0  0  0  0
 19  6  1  1  0  0  0
 19  5  1  0  0  0  0
 19  3  1  0  0  0  0
 20 18  1  0  0  0  0
 22 24  1  0  0  0  0
 23 21  1  0  0  0  0
 25  9  1  0  0  0  0
 25 14  1  1  0  0  0
 26 21  2  0  0  0  0
 27  2  1  0  0  0  0
 27  1  1  0  0  0  0
 29 28  1  0  0  0  0
 30 34  1  0  0  0  0
 31 32  1  0  0  0  0
 32 29  1  1  0  0  0
 32 34  1  0  0  0  0
 33 31  1  0  0  0  0
 33 30  2  0  0  0  0
M  END
>  <MODEL>
1

>  <REMARK>
 VINA RESULT:      -9.1      0.000      0.000
  Name = 
  3 active torsions:
  status: ('A' for Active; 'I' for Inactive)
    1  A    between atoms: C_17  and  O_28
    2  A    between atoms: O_28  and  C_29
    3  A    between atoms: C_29  and  C_32
                            x       y       z     vdW  Elec       q    Type
                         _______ _______ _______ _____ _____    ______ ____

>  <TORSDO>
F 3

$$$$
=
 OpenBabel11122414273D

 34 42  0  0  1  0  0  0  0  0999 V2000
  161.6930  209.2520  151.2550 C   0  0  0  0  0  0  0  0  0  0  0  0
  161.3690  211.1120  152.9490 C   0  0  0  0  0  2  0  0  0  0  0  0
  160.2820  203.1660  149.2770 C   0  0  2  0  0  3  0  0  0  0  0  0
  161.5020  207.3740  149.7090 C   0  0  0  0  0  0  0  0  0  0  0  0
  160.8430  205.1000  150.6250 C   0  0  1  0  0  3  0  0  0  0  0  0
  161.5130  202.7180  151.4630 C   0  0  0  0  0  2  0  0  0  0  0  0
  160.2490  202.5530  150.6620 C   0  0  1  0  0  3  0  0  0  0  0  0
  162.1320  204.2020  147.5140 S   0  0  0  0  0  0  0  0  0  0  0  0
  161.6460  208.8370  153.7490 C   0  0  2  0  0  3  0  0  0  0  0  0
  159.5420  208.0230  156.1150 C   0  0  0  0  0  2  0  0  0  0  0  0
  161.5080  205.5780  151.9220 C   0  0  0  0  0  2  0  0  0  0  0  0
  160.9880  205.5450  148.0830 C   0  0  0  0  0  2  0  0  0  0  0  0
  160.8360  207.5590  153.4220 C   0  0  1  0  0  3  0  0  0  0  0  0
  161.2230  211.1350  154.4590 C   0  0  0  0  0  2  0  0  0  0  0  0
  161.2330  205.9710  149.4790 N   0  0  0  0  0  0  0  0  0  0  0  0
  161.2130  202.7280  148.1720 C   0  0  0  0  0  2  0  0  0  0  0  0
  159.6510  209.3230  155.3000 C   0  0  2  0  0  3  0  0  0  0  0  0
  161.4930  207.8830  151.0190 C   0  0  0  0  0  0  0  0  0  0  0  0
  161.2530  203.6660  150.3110 C   0  0  2  0  0  0  0  0  0  0  0  0
  161.2630  207.0020  152.1260 N   0  0  0  0  0  0  0  0  0  0  0  0
  161.9440  209.6190  148.8730 C   0  0  0  0  0  3  0  0  0  0  0  0
  160.7290  207.0710  155.9570 C   0  0  0  0  0  2  0  0  0  0  0  0
  161.7360  208.2560  148.6400 C   0  0  0  0  0  3  0  0  0  0  0  0
  160.8660  206.5050  154.5440 C   0  0  0  0  0  2  0  0  0  0  0  0
  161.1060  209.6820  154.9200 C   0  0  1  0  0  3  0  0  0  0  0  0
  161.9150  210.1170  150.1770 C   0  0  0  0  0  3  0  0  0  0  0  0
  161.6560  209.7350  152.6040 N   0  0  0  0  0  0  0  0  0  0  0  0
  159.0480  210.3570  156.0200 O   0  0  0  0  0  0  0  0  0  0  0  0
  157.8310  210.5840  155.3720 C   0  0  0  0  0  2  0  0  0  0  0  0
  159.0690  213.7280  155.4490 N   0  0  0  0  0  0  0  0  0  0  0  0
  157.5010  212.7090  154.1000 C   0  0  0  0  0  2  0  0  0  0  0  0
  157.4500  212.0490  155.4790 C   0  0  2  0  0  3  0  0  0  0  0  0
  158.5700  213.7370  154.2630 C   0  0  0  0  0  3  0  0  0  0  0  0
  158.4620  212.7560  156.2390 N   0  0  0  0  0  2  0  0  0  0  0  0
  1 27  1  0  0  0  0
  2 14  1  0  0  0  0
  3 16  1  6  0  0  0
  3 19  1  0  0  0  0
  3  7  1  0  0  0  0
  4 18  2  0  0  0  0
  5 11  1  1  0  0  0
  7  6  1  6  0  0  0
  8 12  1  0  0  0  0
  8 16  1  0  0  0  0
  9 27  1  6  0  0  0
  9 25  1  0  0  0  0
 11 20  1  0  0  0  0
 12 15  1  0  0  0  0
 13  9  1  0  0  0  0
 13 24  1  1  0  0  0
 15  4  1  0  0  0  0
 15  5  1  0  0  0  0
 17 28  1  1  0  0  0
 17 10  1  0  0  0  0
 18  1  1  0  0  0  0
 18 20  1  0  0  0  0
 19  5  1  0  0  0  0
 19  7  1  0  0  0  0
 19  6  1  6  0  0  0
 20 13  1  0  0  0  0
 21 26  1  0  0  0  0
 22 10  1  0  0  0  0
 23 21  2  0  0  0  0
 23  4  1  0  0  0  0
 24 22  1  0  0  0  0
 25 14  1  6  0  0  0
 25 17  1  0  0  0  0
 26  1  2  0  0  0  0
 27  2  1  0  0  0  0
 29 28  1  0  0  0  0
 30 34  1  0  0  0  0
 31 33  1  0  0  0  0
 31 32  1  0  0  0  0
 32 29  1  6  0  0  0
 32 34  1  0  0  0  0
 33 30  2  0  0  0  0
M  END
>  <MODEL>
2

>  <REMARK>
 VINA RESULT:      -8.9      3.212      8.874
  Name = 
  3 active torsions:
  status: ('A' for Active; 'I' for Inactive)
    1  A    between atoms: C_17  and  O_28
    2  A    between atoms: O_28  and  C_29
    3  A    between atoms: C_29  and  C_32
                            x       y       z     vdW  Elec       q    Type
                         _______ _______ _______ _____ _____    ______ ____

>  <TORSDO>
F 3

$$$$
=
 OpenBabel11122414273D

 34 42  0  0  1  0  0  0  0  0999 V2000
  161.4390  208.5300  149.9000 C   0  0  0  0  0  0  0  0  0  0  0  0
  161.5560  207.2130  147.7350 C   0  0  0  0  0  2  0  0  0  0  0  0
  161.9270  208.6250  156.4330 C   0  0  2  0  0  3  0  0  0  0  0  0
  161.7230  209.4940  152.1230 C   0  0  0  0  0  0  0  0  0  0  0  0
  161.4010  208.0030  154.1520 C   0  0  1  0  0  3  0  0  0  0  0  0
  159.8950  207.1230  156.0970 C   0  0  0  0  0  2  0  0  0  0  0  0
  161.2830  207.2730  156.6600 C   0  0  1  0  0  3  0  0  0  0  0  0
  161.1950  211.1560  155.6210 S   0  0  0  0  0  0  0  0  0  0  0  0
  160.4420  206.2200  149.6490 C   0  0  2  0  0  3  0  0  0  0  0  0
  161.2280  203.0840  150.1330 C   0  0  0  0  0  2  0  0  0  0  0  0
  160.4390  207.2150  153.2530 C   0  0  0  0  0  2  0  0  0  0  0  0
  162.3370  210.4020  154.3700 C   0  0  0  0  0  2  0  0  0  0  0  0
  160.9700  205.9440  151.0780 C   0  0  1  0  0  3  0  0  0  0  0  0
  161.1250  205.8130  147.3400 C   0  0  0  0  0  2  0  0  0  0  0  0
  161.7000  209.3390  153.5610 N   0  0  0  0  0  0  0  0  0  0  0  0
  161.4010  209.9240  156.9950 C   0  0  0  0  0  2  0  0  0  0  0  0
  161.7610  204.0830  149.0910 C   0  0  2  0  0  3  0  0  0  0  0  0
  161.3660  208.4150  151.2960 C   0  0  0  0  0  0  0  0  0  0  0  0
  160.7960  208.2040  155.5360 C   0  0  2  0  0  0  0  0  0  0  0  0
  160.9360  207.1790  151.8820 N   0  0  0  0  0  0  0  0  0  0  0  0
  162.2020  210.8170  150.1350 C   0  0  0  0  0  3  0  0  0  0  0  0
  159.9910  203.5600  150.8960 C   0  0  0  0  0  2  0  0  0  0  0  0
  162.1360  210.6980  151.5260 C   0  0  0  0  0  3  0  0  0  0  0  0
  160.2580  204.7750  151.7840 C   0  0  0  0  0  2  0  0  0  0  0  0
  160.6940  205.0990  148.6220 C   0  0  1  0  0  3  0  0  0  0  0  0
  161.8620  209.7340  149.3230 C   0  0  0  0  0  3  0  0  0  0  0  0
  161.0860  207.4000  149.0920 N   0  0  0  0  0  0  0  0  0  0  0  0
  162.2860  203.3680  148.0110 O   0  0  0  0  0  0  0  0  0  0  0  0
  161.2630  202.4970  147.6260 C   0  0  0  0  0  2  0  0  0  0  0  0
  159.6810  201.1940  144.9380 N   0  0  0  0  0  0  0  0  0  0  0  0
  160.8370  203.1640  145.2560 C   0  0  0  0  0  2  0  0  0  0  0  0
  161.4410  202.0990  146.1730 C   0  0  2  0  0  3  0  0  0  0  0  0
  159.7460  202.4220  144.5570 C   0  0  0  0  0  3  0  0  0  0  0  0
  160.6510  200.9150  145.8960 N   0  0  0  0  0  2  0  0  0  0  0  0
  1 18  1  0  0  0  0
  2 27  1  0  0  0  0
  3  7  1  0  0  0  0
  3 16  1  1  0  0  0
  4 15  1  0  0  0  0
  5 11  1  6  0  0  0
  5 19  1  0  0  0  0
  7  6  1  1  0  0  0
  8 16  1  0  0  0  0
  9 27  1  6  0  0  0
  9 13  1  0  0  0  0
 10 22  1  0  0  0  0
 12  8  1  0  0  0  0
 13 24  1  1  0  0  0
 13 20  1  0  0  0  0
 14  2  1  0  0  0  0
 15  5  1  0  0  0  0
 15 12  1  0  0  0  0
 17 28  1  6  0  0  0
 17 10  1  0  0  0  0
 18 20  1  0  0  0  0
 18  4  2  0  0  0  0
 19  6  1  1  0  0  0
 19  3  1  0  0  0  0
 19  7  1  0  0  0  0
 20 11  1  0  0  0  0
 21 23  2  0  0  0  0
 22 24  1  0  0  0  0
 23  4  1  0  0  0  0
 25 14  1  6  0  0  0
 25 17  1  0  0  0  0
 25  9  1  0  0  0  0
 26  1  2  0  0  0  0
 26 21  1  0  0  0  0
 27  1  1  0  0  0  0
 29 28  1  0  0  0  0
 30 34  1  0  0  0  0
 31 32  1  0  0  0  0
 32 29  1  1  0  0  0
 33 30  2  0  0  0  0
 33 31  1  0  0  0  0
 34 32  1  0  0  0  0
M  END
>  <MODEL>
3

>  <REMARK>
 VINA RESULT:      -6.8      2.438      4.519
  Name = 
  3 active torsions:
  status: ('A' for Active; 'I' for Inactive)
    1  A    between atoms: C_17  and  O_28
    2  A    between atoms: O_28  and  C_29
    3  A    between atoms: C_29  and  C_32
                            x       y       z     vdW  Elec       q    Type
                         _______ _______ _______ _____ _____    ______ ____

>  <TORSDO>
F 3

$$$$
=
 OpenBabel11122414273D

 34 42  0  0  1  0  0  0  0  0999 V2000
  161.9200  208.1140  149.9780 C   0  0  0  0  0  0  0  0  0  0  0  0
  161.8480  210.1820  151.4450 C   0  0  0  0  0  2  0  0  0  0  0  0
  159.9860  201.9490  148.8870 C   0  0  2  0  0  3  0  0  0  0  0  0
  161.4890  206.0820  148.6980 C   0  0  0  0  0  0  0  0  0  0  0  0
  160.7710  203.9860  149.9370 C   0  0  1  0  0  3  0  0  0  0  0  0
  161.3620  201.6810  151.0150 C   0  0  0  0  0  2  0  0  0  0  0  0
  160.0300  201.5100  150.3360 C   0  0  1  0  0  3  0  0  0  0  0  0
  161.7450  202.6330  146.8770 S   0  0  0  0  0  0  0  0  0  0  0  0
  162.0510  208.0060  152.5000 C   0  0  2  0  0  3  0  0  0  0  0  0
  160.1030  207.6310  155.0980 C   0  0  0  0  0  2  0  0  0  0  0  0
  161.5680  204.5690  151.1110 C   0  0  0  0  0  2  0  0  0  0  0  0
  160.7350  204.1120  147.3550 C   0  0  0  0  0  2  0  0  0  0  0  0
  161.1410  206.7580  152.3970 C   0  0  1  0  0  3  0  0  0  0  0  0
  161.8270  210.3970  152.9460 C   0  0  0  0  0  2  0  0  0  0  0  0
  161.1180  204.6840  148.6660 N   0  0  0  0  0  0  0  0  0  0  0  0
  160.7960  201.3170  147.7800 C   0  0  0  0  0  2  0  0  0  0  0  0
  160.2230  208.8130  154.1210 C   0  0  2  0  0  3  0  0  0  0  0  0
  161.6190  206.7440  149.9310 C   0  0  0  0  0  0  0  0  0  0  0  0
  161.0670  202.5000  149.7760 C   0  0  2  0  0  0  0  0  0  0  0  0
  161.4270  206.0200  151.1530 N   0  0  0  0  0  0  0  0  0  0  0  0
  161.9960  208.1740  147.5570 C   0  0  0  0  0  3  0  0  0  0  0  0
  161.2140  206.5870  154.9740 C   0  0  0  0  0  2  0  0  0  0  0  0
  161.6880  206.8110  147.5120 C   0  0  0  0  0  3  0  0  0  0  0  0
  161.2000  205.8460  153.6370 C   0  0  0  0  0  2  0  0  0  0  0  0
  161.6610  209.0210  153.5930 C   0  0  1  0  0  3  0  0  0  0  0  0
  162.1050  208.8260  148.7870 C   0  0  0  0  0  3  0  0  0  0  0  0
  162.0220  208.7570  151.2540 N   0  0  0  0  0  0  0  0  0  0  0  0
  159.7440  209.9660  154.7490 O   0  0  0  0  0  0  0  0  0  0  0  0
  158.7700  210.4680  153.8820 C   0  0  0  0  0  2  0  0  0  0  0  0
  157.1890  213.2400  152.7670 N   0  0  0  0  0  0  0  0  0  0  0  0
  157.8040  212.5460  154.8780 C   0  0  0  0  0  2  0  0  0  0  0  0
  158.8130  211.9840  153.8750 C   0  0  2  0  0  3  0  0  0  0  0  0
  156.8580  213.3050  154.0080 C   0  0  0  0  0  3  0  0  0  0  0  0
  158.3400  212.4750  152.5950 N   0  0  0  0  0  2  0  0  0  0  0  0
  1 27  1  0  0  0  0
  2 14  1  0  0  0  0
  3 16  1  6  0  0  0
  3 19  1  0  0  0  0
  3  7  1  0  0  0  0
  4 18  2  0  0  0  0
  5 11  1  1  0  0  0
  7  6  1  6  0  0  0
  8 12  1  0  0  0  0
  8 16  1  0  0  0  0
  9 27  1  6  0  0  0
  9 25  1  0  0  0  0
 11 20  1  0  0  0  0
 12 15  1  0  0  0  0
 13  9  1  0  0  0  0
 13 24  1  1  0  0  0
 15  4  1  0  0  0  0
 15  5  1  0  0  0  0
 17 28  1  1  0  0  0
 17 10  1  0  0  0  0
 18  1  1  0  0  0  0
 18 20  1  0  0  0  0
 19  5  1  0  0  0  0
 19  7  1  0  0  0  0
 19  6  1  6  0  0  0
 20 13  1  0  0  0  0
 21 26  1  0  0  0  0
 22 10  1  0  0  0  0
 23 21  2  0  0  0  0
 23  4  1  0  0  0  0
 24 22  1  0  0  0  0
 25 14  1  6  0  0  0
 25 17  1  0  0  0  0
 26  1  2  0  0  0  0
 27  2  1  0  0  0  0
 29 28  1  0  0  0  0
 30 33  2  0  0  0  0
 32 29  1  6  0  0  0
 32 31  1  0  0  0  0
 33 31  1  0  0  0  0
 34 30  1  0  0  0  0
 34 32  1  0  0  0  0
M  END
>  <MODEL>
4

>  <REMARK>
 VINA RESULT:      -6.8      3.282      9.032
  Name = 
  3 active torsions:
  status: ('A' for Active; 'I' for Inactive)
    1  A    between atoms: C_17  and  O_28
    2  A    between atoms: O_28  and  C_29
    3  A    between atoms: C_29  and  C_32
                            x       y       z     vdW  Elec       q    Type
                         _______ _______ _______ _____ _____    ______ ____

>  <TORSDO>
F 3

$$$$
