=
 OpenBabel11122414263D

 34 40  0  0  1  0  0  0  0  0999 V2000
  161.1120  208.1020  150.2570 C   0  0  2  0  0  3  0  0  0  0  0  0
  161.6460  210.2090  151.6190 C   0  0  0  0  0  3  0  0  0  0  0  0
  160.1830  201.1310  147.8770 C   0  0  0  0  0  2  0  0  0  0  0  0
  161.3050  205.7470  149.2320 C   0  0  0  0  0  0  0  0  0  0  0  0
  161.1010  203.7770  150.8140 C   0  0  0  0  0  0  0  0  0  0  0  0
  161.0160  201.3460  150.2070 C   0  0  0  0  0  2  0  0  0  0  0  0
  159.7770  201.3210  149.3290 C   0  0  0  0  0  2  0  0  0  0  0  0
  161.5890  203.1280  147.1470 C   0  0  0  0  0  2  0  0  0  0  0  0
  161.5820  208.2240  152.7120 C   0  0  0  0  0  0  0  0  0  0  0  0
  160.4540  208.1170  155.6690 C   0  0  0  0  0  2  0  0  0  0  0  0
  161.2020  204.6220  151.8010 N   0  0  0  0  0  0  0  0  0  0  0  0
  162.1190  203.4670  148.5410 C   0  0  0  0  0  2  0  0  0  0  0  0
  161.4010  206.9040  152.8700 C   0  0  0  0  0  0  0  0  0  0  0  0
  161.6820  210.5130  152.9140 C   0  0  0  0  0  3  0  0  0  0  0  0
  161.0970  204.2550  149.3650 C   0  0  2  0  0  3  0  0  0  0  0  0
  160.2060  202.4710  147.1560 C   0  0  0  0  0  2  0  0  0  0  0  0
  160.3980  209.2570  154.6540 C   0  0  2  0  0  3  0  0  0  0  0  0
  161.2640  206.6040  150.4320 C   0  0  0  0  0  0  0  0  0  0  0  0
  160.9590  202.4190  151.1430 O   0  0  0  0  0  0  0  0  0  0  0  0
  161.2840  206.0470  151.6560 C   0  0  0  0  0  0  0  0  0  0  0  0
  161.8670  207.7560  147.9270 C   0  0  0  0  0  3  0  0  0  0  0  0
  160.1580  206.7710  155.0240 C   0  0  0  0  0  2  0  0  0  0  0  0
  161.5640  206.3130  148.0440 C   0  0  0  0  0  3  0  0  0  0  0  0
  161.3590  206.2800  154.2300 C   0  0  0  0  0  2  0  0  0  0  0  0
  161.6580  209.2750  153.7770 C   0  0  1  0  0  3  0  0  0  0  0  0
  161.7160  208.5850  148.9660 C   0  0  0  0  0  3  0  0  0  0  0  0
  161.6350  208.8060  151.4230 N   0  0  0  0  0  0  0  0  0  0  0  0
  160.2740  210.4640  155.3480 O   0  0  0  0  0  0  0  0  0  0  0  0
  158.9490  210.4860  155.7940 C   0  0  0  0  0  2  0  0  0  0  0  0
  159.0470  213.3870  153.7140 C   0  0  0  0  0  2  0  0  0  0  0  0
  157.5280  211.5560  154.0430 C   0  0  0  0  0  2  0  0  0  0  0  0
  158.2690  211.7690  155.3520 C   0  0  0  0  0  3  0  0  0  0  0  0
  158.3120  212.2930  152.9800 C   0  0  0  0  0  2  0  0  0  0  0  0
  159.3270  212.8260  155.0920 C   0  0  0  0  0  2  0  0  0  0  0  0
  1 26  1  6  0  0  0
  1 18  1  0  0  0  0
  1 27  1  0  0  0  0
  2 14  2  0  0  0  0
  3  7  1  0  0  0  0
  4 15  1  0  0  0  0
  4 18  1  0  0  0  0
  5 19  1  0  0  0  0
  5 11  2  0  0  0  0
  6 19  1  0  0  0  0
  7  6  1  0  0  0  0
  8 16  1  0  0  0  0
  8 12  1  0  0  0  0
  9 13  2  0  0  0  0
  9 25  1  0  0  0  0
 13 24  1  0  0  0  0
 15 12  1  6  0  0  0
 15  5  1  0  0  0  0
 16  3  1  0  0  0  0
 17 28  1  1  0  0  0
 17 10  1  0  0  0  0
 18 20  2  0  0  0  0
 20 11  1  0  0  0  0
 20 13  1  0  0  0  0
 21 23  1  0  0  0  0
 21 26  2  0  0  0  0
 22 10  1  0  0  0  0
 23  4  2  0  0  0  0
 24 22  1  0  0  0  0
 25 14  1  6  0  0  0
 25 17  1  0  0  0  0
 27  2  1  0  0  0  0
 27  9  1  0  0  0  0
 28 29  1  0  0  0  0
 30 34  1  0  0  0  0
 31 32  1  0  0  0  0
 32 29  1  0  0  0  0
 33 30  1  0  0  0  0
 33 31  1  0  0  0  0
 34 32  1  0  0  0  0
M  END
>  <MODEL>
1

>  <REMARK>
 VINA RESULT:      -9.3      0.000      0.000
  Name = 
  3 active torsions:
  status: ('A' for Active; 'I' for Inactive)
    1  A    between atoms: C_17  and  O_28
    2  A    between atoms: O_28  and  C_29
    3  A    between atoms: C_29  and  C_32
                            x       y       z     vdW  Elec       q    Type
                         _______ _______ _______ _____ _____    ______ ____

>  <TORSDO>
F 3

$$$$
=
 OpenBabel11122414263D

 34 40  0  0  1  0  0  0  0  0999 V2000
  160.2590  207.4290  154.1420 C   0  0  2  0  0  3  0  0  0  0  0  0
  161.4480  205.2420  153.5260 C   0  0  0  0  0  3  0  0  0  0  0  0
  157.8800  214.4520  154.5190 C   0  0  0  0  0  2  0  0  0  0  0  0
  159.8430  209.9210  154.6440 C   0  0  0  0  0  0  0  0  0  0  0  0
  160.0530  211.5430  152.7080 C   0  0  0  0  0  0  0  0  0  0  0  0
  159.5260  213.9930  152.7170 C   0  0  0  0  0  2  0  0  0  0  0  0
  158.0550  213.9620  153.0920 C   0  0  0  0  0  2  0  0  0  0  0  0
  159.0980  212.8600  156.0920 C   0  0  0  0  0  2  0  0  0  0  0  0
  161.6070  206.9810  152.0810 C   0  0  0  0  0  0  0  0  0  0  0  0
  161.6390  206.4130  148.9660 C   0  0  0  0  0  2  0  0  0  0  0  0
  160.5870  210.5750  152.0190 N   0  0  0  0  0  0  0  0  0  0  0  0
  160.1320  212.3860  155.0700 C   0  0  0  0  0  2  0  0  0  0  0  0
  161.3740  208.2100  151.5940 C   0  0  0  0  0  0  0  0  0  0  0  0
  161.9860  204.7380  152.4170 C   0  0  0  0  0  3  0  0  0  0  0  0
  159.5620  211.3170  154.1340 C   0  0  2  0  0  3  0  0  0  0  0  0
  157.7610  213.2720  155.4720 C   0  0  0  0  0  2  0  0  0  0  0  0
  161.3200  205.4630  150.1180 C   0  0  2  0  0  3  0  0  0  0  0  0
  160.3250  208.8830  153.7140 C   0  0  0  0  0  0  0  0  0  0  0  0
  159.9170  212.7860  152.0690 O   0  0  0  0  0  0  0  0  0  0  0  0
  160.7410  209.2250  152.4820 C   0  0  0  0  0  0  0  0  0  0  0  0
  160.0700  208.2740  156.4590 C   0  0  0  0  0  3  0  0  0  0  0  0
  161.0030  207.7810  149.1680 C   0  0  0  0  0  2  0  0  0  0  0  0
  159.6990  209.6090  155.9410 C   0  0  0  0  0  3  0  0  0  0  0  0
  161.7770  208.5850  150.2010 C   0  0  0  0  0  2  0  0  0  0  0  0
  162.1650  205.7960  151.3560 C   0  0  1  0  0  3  0  0  0  0  0  0
  160.3880  207.2710  155.6320 C   0  0  0  0  0  3  0  0  0  0  0  0
  161.2360  206.6370  153.4030 N   0  0  0  0  0  0  0  0  0  0  0  0
  161.5710  204.1540  149.6970 O   0  0  0  0  0  0  0  0  0  0  0  0
  160.8430  204.0130  148.5120 C   0  0  0  0  0  2  0  0  0  0  0  0
  160.6530  201.6250  145.8640 C   0  0  0  0  0  2  0  0  0  0  0  0
  161.6960  203.7650  146.1790 C   0  0  0  0  0  2  0  0  0  0  0  0
  161.5870  203.1100  147.5450 C   0  0  0  0  0  3  0  0  0  0  0  0
  160.7660  203.0030  145.2610 C   0  0  0  0  0  2  0  0  0  0  0  0
  160.7970  201.8270  147.3570 C   0  0  0  0  0  2  0  0  0  0  0  0
  1 26  1  1  0  0  0
  3 16  1  0  0  0  0
  4 23  2  0  0  0  0
  5 15  1  0  0  0  0
  6  7  1  0  0  0  0
  7  3  1  0  0  0  0
  9 27  1  0  0  0  0
 10 22  1  0  0  0  0
 10 17  1  0  0  0  0
 11 20  1  0  0  0  0
 11  5  2  0  0  0  0
 12  8  1  0  0  0  0
 13  9  2  0  0  0  0
 13 20  1  0  0  0  0
 14  2  2  0  0  0  0
 15  4  1  0  0  0  0
 15 12  1  1  0  0  0
 16  8  1  0  0  0  0
 17 28  1  6  0  0  0
 17 25  1  0  0  0  0
 18  1  1  0  0  0  0
 18  4  1  0  0  0  0
 19  5  1  0  0  0  0
 19  6  1  0  0  0  0
 20 18  2  0  0  0  0
 22 24  1  0  0  0  0
 23 21  1  0  0  0  0
 24 13  1  0  0  0  0
 25  9  1  0  0  0  0
 25 14  1  1  0  0  0
 26 21  2  0  0  0  0
 27  2  1  0  0  0  0
 27  1  1  0  0  0  0
 29 28  1  0  0  0  0
 30 34  1  0  0  0  0
 31 32  1  0  0  0  0
 32 29  1  0  0  0  0
 33 30  1  0  0  0  0
 33 31  1  0  0  0  0
 34 32  1  0  0  0  0
M  END
>  <MODEL>
2

>  <REMARK>
 VINA RESULT:      -8.8      1.613      9.209
  Name = 
  3 active torsions:
  status: ('A' for Active; 'I' for Inactive)
    1  A    between atoms: C_17  and  O_28
    2  A    between atoms: O_28  and  C_29
    3  A    between atoms: C_29  and  C_32
                            x       y       z     vdW  Elec       q    Type
                         _______ _______ _______ _____ _____    ______ ____

>  <TORSDO>
F 3

$$$$
=
 OpenBabel11122414263D

 34 40  0  0  1  0  0  0  0  0999 V2000
  160.4610  207.8150  153.7650 C   0  0  2  0  0  3  0  0  0  0  0  0
  161.9600  206.0520  152.6610 C   0  0  0  0  0  3  0  0  0  0  0  0
  157.1520  214.1080  155.9050 C   0  0  0  0  0  2  0  0  0  0  0  0
  159.6920  209.9880  154.9130 C   0  0  0  0  0  0  0  0  0  0  0  0
  159.7820  212.1180  153.5410 C   0  0  0  0  0  0  0  0  0  0  0  0
  158.9340  214.3830  154.1970 C   0  0  0  0  0  2  0  0  0  0  0  0
  157.4630  214.0780  154.4180 C   0  0  0  0  0  2  0  0  0  0  0  0
  158.4890  212.2730  157.0630 C   0  0  0  0  0  2  0  0  0  0  0  0
  161.9600  208.1430  151.7870 C   0  0  0  0  0  0  0  0  0  0  0  0
  162.2270  208.5160  148.6550 C   0  0  0  0  0  2  0  0  0  0  0  0
  160.4750  211.4590  152.6560 N   0  0  0  0  0  0  0  0  0  0  0  0
  159.6270  212.2380  156.0430 C   0  0  0  0  0  2  0  0  0  0  0  0
  161.5910  209.4270  151.6500 C   0  0  0  0  0  0  0  0  0  0  0  0
  162.6170  205.9570  151.5060 C   0  0  0  0  0  3  0  0  0  0  0  0
  159.2530  211.4310  154.7970 C   0  0  2  0  0  3  0  0  0  0  0  0
  157.1420  212.6950  156.4710 C   0  0  0  0  0  2  0  0  0  0  0  0
  161.9790  207.2420  149.4580 C   0  0  2  0  0  3  0  0  0  0  0  0
  160.3540  209.3280  153.7730 C   0  0  0  0  0  0  0  0  0  0  0  0
  159.5150  213.4690  153.2720 O   0  0  0  0  0  0  0  0  0  0  0  0
  160.7840  210.0590  152.7300 C   0  0  0  0  0  0  0  0  0  0  0  0
  160.0420  207.9200  156.2000 C   0  0  0  0  0  3  0  0  0  0  0  0
  161.4050  209.6850  149.1790 C   0  0  0  0  0  2  0  0  0  0  0  0
  159.5240  209.2970  156.0510 C   0  0  0  0  0  3  0  0  0  0  0  0
  162.0120  210.2340  150.4610 C   0  0  0  0  0  2  0  0  0  0  0  0
  162.7080  207.2920  150.8080 C   0  0  1  0  0  3  0  0  0  0  0  0
  160.5330  207.2450  155.1540 C   0  0  0  0  0  3  0  0  0  0  0  0
  161.5710  207.3890  152.9200 N   0  0  0  0  0  0  0  0  0  0  0  0
  162.4230  206.1500  148.7070 O   0  0  0  0  0  0  0  0  0  0  0  0
  162.0010  206.4170  147.4010 C   0  0  0  0  0  2  0  0  0  0  0  0
  161.2840  203.3670  145.6880 C   0  0  0  0  0  2  0  0  0  0  0  0
  161.9780  205.5770  145.0510 C   0  0  0  0  0  2  0  0  0  0  0  0
  162.4900  205.3300  146.4610 C   0  0  0  0  0  3  0  0  0  0  0  0
  160.9280  204.5220  144.7840 C   0  0  0  0  0  2  0  0  0  0  0  0
  161.9220  203.9950  146.9080 C   0  0  0  0  0  2  0  0  0  0  0  0
  1 18  1  0  0  0  0
  1 26  1  1  0  0  0
  2 27  1  0  0  0  0
  3 16  1  0  0  0  0
  4 23  2  0  0  0  0
  5 15  1  0  0  0  0
  6  7  1  0  0  0  0
  7  3  1  0  0  0  0
  9 27  1  0  0  0  0
 10 22  1  0  0  0  0
 10 17  1  0  0  0  0
 11 20  1  0  0  0  0
 11  5  2  0  0  0  0
 12  8  1  0  0  0  0
 13  9  2  0  0  0  0
 13 20  1  0  0  0  0
 14  2  2  0  0  0  0
 15  4  1  0  0  0  0
 15 12  1  1  0  0  0
 16  8  1  0  0  0  0
 17 28  1  6  0  0  0
 17 25  1  0  0  0  0
 18  4  1  0  0  0  0
 19  5  1  0  0  0  0
 19  6  1  0  0  0  0
 20 18  2  0  0  0  0
 22 24  1  0  0  0  0
 23 21  1  0  0  0  0
 24 13  1  0  0  0  0
 25 14  1  1  0  0  0
 25  9  1  0  0  0  0
 26 21  2  0  0  0  0
 27  1  1  0  0  0  0
 29 28  1  0  0  0  0
 30 34  1  0  0  0  0
 31 32  1  0  0  0  0
 32 34  1  0  0  0  0
 32 29  1  0  0  0  0
 33 31  1  0  0  0  0
 33 30  1  0  0  0  0
M  END
>  <MODEL>
3

>  <REMARK>
 VINA RESULT:      -8.4      2.104      9.259
  Name = 
  3 active torsions:
  status: ('A' for Active; 'I' for Inactive)
    1  A    between atoms: C_17  and  O_28
    2  A    between atoms: O_28  and  C_29
    3  A    between atoms: C_29  and  C_32
                            x       y       z     vdW  Elec       q    Type
                         _______ _______ _______ _____ _____    ______ ____

>  <TORSDO>
F 3

$$$$
=
 OpenBabel11122414263D

 34 40  0  0  1  0  0  0  0  0999 V2000
  161.4210  205.3150  152.6800 C   0  0  2  0  0  3  0  0  0  0  0  0
  160.8310  206.3240  154.9630 C   0  0  0  0  0  3  0  0  0  0  0  0
  162.3940  204.0200  145.4340 C   0  0  0  0  0  2  0  0  0  0  0  0
  161.2590  204.6250  150.2040 C   0  0  0  0  0  0  0  0  0  0  0  0
  161.3220  206.4800  148.4780 C   0  0  0  0  0  0  0  0  0  0  0  0
  161.4070  206.2320  145.9860 C   0  0  0  0  0  2  0  0  0  0  0  0
  162.7020  205.4550  145.8260 C   0  0  0  0  0  2  0  0  0  0  0  0
  161.0750  202.9180  147.3160 C   0  0  0  0  0  2  0  0  0  0  0  0
  160.7860  207.6900  153.1540 C   0  0  0  0  0  0  0  0  0  0  0  0
  161.7070  210.7030  153.4620 C   0  0  0  0  0  2  0  0  0  0  0  0
  161.1670  207.3270  149.4560 N   0  0  0  0  0  0  0  0  0  0  0  0
  160.4560  204.2090  147.8540 C   0  0  0  0  0  2  0  0  0  0  0  0
  160.9350  208.0450  151.8680 C   0  0  0  0  0  0  0  0  0  0  0  0
  160.7110  207.5580  155.4490 C   0  0  0  0  0  3  0  0  0  0  0  0
  161.4320  204.9820  148.7450 C   0  0  2  0  0  3  0  0  0  0  0  0
  162.4420  203.1160  146.6580 C   0  0  0  0  0  2  0  0  0  0  0  0
  161.8520  209.5440  154.4450 C   0  0  2  0  0  3  0  0  0  0  0  0
  161.2330  205.6910  151.2230 C   0  0  0  0  0  0  0  0  0  0  0  0
  161.4180  207.0070  147.1810 O   0  0  0  0  0  0  0  0  0  0  0  0
  161.1200  206.9770  150.8470 C   0  0  0  0  0  0  0  0  0  0  0  0
  160.8220  203.0110  152.0100 C   0  0  0  0  0  3  0  0  0  0  0  0
  162.0250  210.2790  152.0360 C   0  0  0  0  0  2  0  0  0  0  0  0
  161.0920  203.3530  150.5970 C   0  0  0  0  0  3  0  0  0  0  0  0
  160.8730  209.4800  151.4450 C   0  0  0  0  0  2  0  0  0  0  0  0
  160.6560  208.5860  154.3460 C   0  0  1  0  0  3  0  0  0  0  0  0
  160.9160  203.9300  152.9780 C   0  0  0  0  0  3  0  0  0  0  0  0
  160.8320  206.3300  153.5460 N   0  0  0  0  0  0  0  0  0  0  0  0
  161.9490  210.0670  155.7380 O   0  0  0  0  0  0  0  0  0  0  0  0
  161.3990  211.3490  155.6470 C   0  0  0  0  0  2  0  0  0  0  0  0
  158.5660  213.0230  157.0360 C   0  0  0  0  0  2  0  0  0  0  0  0
  159.3380  210.7520  156.9230 C   0  0  0  0  0  2  0  0  0  0  0  0
  160.5640  211.6480  156.8790 C   0  0  0  0  0  3  0  0  0  0  0  0
  158.1480  211.6350  156.6200 C   0  0  0  0  0  2  0  0  0  0  0  0
  160.0610  213.0780  156.8030 C   0  0  0  0  0  2  0  0  0  0  0  0
  1 26  1  6  0  0  0
  1 27  1  0  0  0  0
  2 14  2  0  0  0  0
  3  7  1  0  0  0  0
  3 16  1  0  0  0  0
  4 23  2  0  0  0  0
  4 18  1  0  0  0  0
  5 15  1  0  0  0  0
  5 11  2  0  0  0  0
  6 19  1  0  0  0  0
  7  6  1  0  0  0  0
  8 12  1  0  0  0  0
  9 27  1  0  0  0  0
  9 25  1  0  0  0  0
 10 17  1  0  0  0  0
 11 20  1  0  0  0  0
 13  9  2  0  0  0  0
 15 12  1  6  0  0  0
 15  4  1  0  0  0  0
 16  8  1  0  0  0  0
 17 28  1  1  0  0  0
 18  1  1  0  0  0  0
 19  5  1  0  0  0  0
 20 18  2  0  0  0  0
 20 13  1  0  0  0  0
 21 26  2  0  0  0  0
 22 10  1  0  0  0  0
 23 21  1  0  0  0  0
 24 13  1  0  0  0  0
 24 22  1  0  0  0  0
 25 17  1  0  0  0  0
 25 14  1  1  0  0  0
 27  2  1  0  0  0  0
 29 28  1  0  0  0  0
 29 32  1  0  0  0  0
 32 31  1  0  0  0  0
 33 31  1  0  0  0  0
 33 30  1  0  0  0  0
 34 32  1  0  0  0  0
 34 30  1  0  0  0  0
M  END
>  <MODEL>
4

>  <REMARK>
 VINA RESULT:      -8.4      1.941      3.686
  Name = 
  3 active torsions:
  status: ('A' for Active; 'I' for Inactive)
    1  A    between atoms: C_17  and  O_28
    2  A    between atoms: O_28  and  C_29
    3  A    between atoms: C_29  and  C_32
                            x       y       z     vdW  Elec       q    Type
                         _______ _______ _______ _____ _____    ______ ____

>  <TORSDO>
F 3

$$$$
=
 OpenBabel11122414263D

 34 40  0  0  1  0  0  0  0  0999 V2000
  161.2110  207.7980  149.5280 C   0  0  2  0  0  3  0  0  0  0  0  0
  161.7050  209.6890  151.1880 C   0  0  0  0  0  3  0  0  0  0  0  0
  160.4310  201.2400  146.1350 C   0  0  0  0  0  2  0  0  0  0  0  0
  161.4520  205.6280  148.1610 C   0  0  0  0  0  0  0  0  0  0  0  0
  161.3090  203.4390  149.4300 C   0  0  0  0  0  0  0  0  0  0  0  0
  161.2770  201.1250  148.4670 C   0  0  0  0  0  2  0  0  0  0  0  0
  160.0330  201.2000  147.6000 C   0  0  0  0  0  2  0  0  0  0  0  0
  161.7820  203.3580  145.7060 C   0  0  0  0  0  2  0  0  0  0  0  0
  161.6980  207.5620  151.9720 C   0  0  0  0  0  0  0  0  0  0  0  0
  160.5980  206.9850  154.8840 C   0  0  0  0  0  2  0  0  0  0  0  0
  161.3980  204.1290  150.5320 N   0  0  0  0  0  0  0  0  0  0  0  0
  162.3150  203.4980  147.1320 C   0  0  0  0  0  2  0  0  0  0  0  0
  161.5500  206.2290  151.9300 C   0  0  0  0  0  0  0  0  0  0  0  0
  161.7450  209.7970  152.5140 C   0  0  0  0  0  3  0  0  0  0  0  0
  161.2820  204.1280  148.0700 C   0  0  2  0  0  3  0  0  0  0  0  0
  160.4160  202.6740  145.6220 C   0  0  0  0  0  2  0  0  0  0  0  0
  160.5060  208.2630  154.0520 C   0  0  2  0  0  3  0  0  0  0  0  0
  161.4000  206.2940  149.4760 C   0  0  0  0  0  0  0  0  0  0  0  0
  161.2030  202.0440  149.5530 O   0  0  0  0  0  0  0  0  0  0  0  0
  161.4440  205.5620  150.6030 C   0  0  0  0  0  0  0  0  0  0  0  0
  161.9540  207.8240  147.1690 C   0  0  0  0  0  3  0  0  0  0  0  0
  160.3290  205.7440  154.0460 C   0  0  0  0  0  2  0  0  0  0  0  0
  161.6880  206.3720  147.0700 C   0  0  0  0  0  3  0  0  0  0  0  0
  161.5350  205.4080  153.1820 C   0  0  0  0  0  2  0  0  0  0  0  0
  161.7580  208.4430  153.1810 C   0  0  1  0  0  3  0  0  0  0  0  0
  161.7920  208.4840  148.3220 C   0  0  0  0  0  3  0  0  0  0  0  0
  161.7270  208.3320  150.7840 N   0  0  0  0  0  0  0  0  0  0  0  0
  160.3580  209.3490  154.9200 O   0  0  0  0  0  0  0  0  0  0  0  0
  160.0820  208.7760  156.1650 C   0  0  0  0  0  2  0  0  0  0  0  0
  163.0810  210.4240  157.1870 C   0  0  0  0  0  2  0  0  0  0  0  0
  160.7600  211.0200  157.0240 C   0  0  0  0  0  2  0  0  0  0  0  0
  160.8260  209.5200  157.2590 C   0  0  0  0  0  3  0  0  0  0  0  0
  162.1460  211.4500  156.5960 C   0  0  0  0  0  2  0  0  0  0  0  0
  162.2930  209.1320  157.2140 C   0  0  0  0  0  2  0  0  0  0  0  0
  1 26  1  6  0  0  0
  1 27  1  0  0  0  0
  2 14  2  0  0  0  0
  3  7  1  0  0  0  0
  4 18  1  0  0  0  0
  5 19  1  0  0  0  0
  5 11  2  0  0  0  0
  6 19  1  0  0  0  0
  7  6  1  0  0  0  0
  8 12  1  0  0  0  0
  9 25  1  0  0  0  0
 11 20  1  0  0  0  0
 13  9  2  0  0  0  0
 13 24  1  0  0  0  0
 15 12  1  6  0  0  0
 15  4  1  0  0  0  0
 15  5  1  0  0  0  0
 16  8  1  0  0  0  0
 16  3  1  0  0  0  0
 17 10  1  0  0  0  0
 17 28  1  1  0  0  0
 18  1  1  0  0  0  0
 18 20  2  0  0  0  0
 20 13  1  0  0  0  0
 21 26  2  0  0  0  0
 22 10  1  0  0  0  0
 23 21  1  0  0  0  0
 23  4  2  0  0  0  0
 24 22  1  0  0  0  0
 25 14  1  6  0  0  0
 25 17  1  0  0  0  0
 27  2  1  0  0  0  0
 27  9  1  0  0  0  0
 28 29  1  0  0  0  0
 29 32  1  0  0  0  0
 30 34  1  0  0  0  0
 31 32  1  0  0  0  0
 33 31  1  0  0  0  0
 33 30  1  0  0  0  0
 34 32  1  0  0  0  0
M  END
>  <MODEL>
5

>  <REMARK>
 VINA RESULT:      -8.2      1.802      2.276
  Name = 
  3 active torsions:
  status: ('A' for Active; 'I' for Inactive)
    1  A    between atoms: C_17  and  O_28
    2  A    between atoms: O_28  and  C_29
    3  A    between atoms: C_29  and  C_32
                            x       y       z     vdW  Elec       q    Type
                         _______ _______ _______ _____ _____    ______ ____

>  <TORSDO>
F 3

$$$$
=
 OpenBabel11122414263D

 34 40  0  0  1  0  0  0  0  0999 V2000
  161.2730  207.8670  149.1630 C   0  0  2  0  0  3  0  0  0  0  0  0
  161.9800  210.2050  149.9440 C   0  0  0  0  0  3  0  0  0  0  0  0
  159.8580  200.6000  148.6150 C   0  0  0  0  0  2  0  0  0  0  0  0
  161.2910  205.3250  148.7510 C   0  0  0  0  0  0  0  0  0  0  0  0
  161.0440  203.8220  150.7770 C   0  0  0  0  0  0  0  0  0  0  0  0
  160.7990  201.3280  150.7950 C   0  0  0  0  0  2  0  0  0  0  0  0
  159.5250  201.1660  149.9840 C   0  0  0  0  0  2  0  0  0  0  0  0
  161.3410  202.2600  147.3750 C   0  0  0  0  0  2  0  0  0  0  0  0
  161.8520  208.5600  151.4980 C   0  0  0  0  0  0  0  0  0  0  0  0
  160.8450  209.2560  154.4180 C   0  0  0  0  0  2  0  0  0  0  0  0
  161.2340  204.8750  151.5200 N   0  0  0  0  0  0  0  0  0  0  0  0
  161.9470  202.8970  148.6260 C   0  0  0  0  0  2  0  0  0  0  0  0
  161.6040  207.3330  151.9830 C   0  0  0  0  0  0  0  0  0  0  0  0
  162.0870  210.8160  151.1230 C   0  0  0  0  0  3  0  0  0  0  0  0
  161.0060  203.9280  149.2560 C   0  0  2  0  0  3  0  0  0  0  0  0
  159.9250  201.7160  147.5830 C   0  0  0  0  0  2  0  0  0  0  0  0
  160.8100  210.1130  153.1540 C   0  0  2  0  0  3  0  0  0  0  0  0
  161.3480  206.4510  149.7010 C   0  0  0  0  0  0  0  0  0  0  0  0
  160.8410  202.5990  151.4360 O   0  0  0  0  0  0  0  0  0  0  0  0
  161.3880  206.2140  151.0240 C   0  0  0  0  0  0  0  0  0  0  0  0
  161.9080  206.9110  146.9720 C   0  0  0  0  0  3  0  0  0  0  0  0
  160.4470  207.8150  154.1360 C   0  0  0  0  0  2  0  0  0  0  0  0
  161.5310  205.5630  147.4520 C   0  0  0  0  0  3  0  0  0  0  0  0
  161.5840  207.0680  153.4560 C   0  0  0  0  0  2  0  0  0  0  0  0
  162.0300  209.8320  152.2660 C   0  0  1  0  0  3  0  0  0  0  0  0
  161.8470  207.9780  147.7770 C   0  0  0  0  0  3  0  0  0  0  0  0
  161.8830  208.8010  150.1030 N   0  0  0  0  0  0  0  0  0  0  0  0
  160.7820  211.4590  153.5300 O   0  0  0  0  0  0  0  0  0  0  0  0
  159.4540  211.8550  153.3440 C   0  0  0  0  0  2  0  0  0  0  0  0
  157.6290  214.1460  151.3010 C   0  0  0  0  0  2  0  0  0  0  0  0
  158.5730  214.1840  153.5090 C   0  0  0  0  0  2  0  0  0  0  0  0
  159.4030  213.2180  152.6800 C   0  0  0  0  0  3  0  0  0  0  0  0
  157.2870  214.4130  152.7460 C   0  0  0  0  0  2  0  0  0  0  0  0
  158.7130  213.0890  151.3340 C   0  0  0  0  0  2  0  0  0  0  0  0
  1 26  1  6  0  0  0
  1 18  1  0  0  0  0
  1 27  1  0  0  0  0
  2 27  1  0  0  0  0
  2 14  2  0  0  0  0
  3  7  1  0  0  0  0
  4 15  1  0  0  0  0
  4 18  1  0  0  0  0
  5 19  1  0  0  0  0
  5 11  2  0  0  0  0
  6 19  1  0  0  0  0
  7  6  1  0  0  0  0
  8 16  1  0  0  0  0
  8 12  1  0  0  0  0
  9 13  2  0  0  0  0
  9 25  1  0  0  0  0
 13 24  1  0  0  0  0
 15 12  1  6  0  0  0
 15  5  1  0  0  0  0
 16  3  1  0  0  0  0
 17 28  1  1  0  0  0
 17 10  1  0  0  0  0
 18 20  2  0  0  0  0
 20 11  1  0  0  0  0
 20 13  1  0  0  0  0
 21 23  1  0  0  0  0
 21 26  2  0  0  0  0
 22 10  1  0  0  0  0
 23  4  2  0  0  0  0
 24 22  1  0  0  0  0
 25 14  1  6  0  0  0
 25 17  1  0  0  0  0
 27  9  1  0  0  0  0
 29 28  1  0  0  0  0
 30 34  1  0  0  0  0
 30 33  1  0  0  0  0
 32 29  1  0  0  0  0
 32 31  1  0  0  0  0
 33 31  1  0  0  0  0
 34 32  1  0  0  0  0
M  END
>  <MODEL>
6

>  <REMARK>
 VINA RESULT:      -7.0      1.192      1.666
  Name = 
  3 active torsions:
  status: ('A' for Active; 'I' for Inactive)
    1  A    between atoms: C_17  and  O_28
    2  A    between atoms: O_28  and  C_29
    3  A    between atoms: C_29  and  C_32
                            x       y       z     vdW  Elec       q    Type
                         _______ _______ _______ _____ _____    ______ ____

>  <TORSDO>
F 3

$$$$
