=
 OpenBabel11122412383D

 30 35  0  0  1  0  0  0  0  0999 V2000
  161.1590  205.6020  149.7700 C   0  0  0  0  0  0  0  0  0  0  0  0
  161.1380  203.0900  149.5340 C   0  0  0  0  0  0  0  0  0  0  0  0
  161.0200  205.3040  153.8720 N   0  0  0  0  0  2  0  0  0  0  0  0
  161.1870  206.7580  150.6130 C   0  0  0  0  0  0  0  0  0  0  0  0
  161.1750  205.7890  148.4260 N   0  0  0  0  0  0  0  0  0  0  0  0
  161.4860  209.2780  148.1470 O   0  0  0  0  0  0  0  0  0  0  0  0
  160.5090  209.5700  151.7360 C   0  0  1  0  0  3  0  0  0  0  0  0
  161.3670  208.1380  148.6770 C   0  0  0  0  0  0  0  0  0  0  0  0
  160.4660  208.8160  153.0530 C   0  0  2  0  0  3  0  0  0  0  0  0
  160.9030  206.6220  154.1350 C   0  0  0  0  0  0  0  0  0  0  0  0
  161.2530  207.0170  147.8600 C   0  0  0  0  0  0  0  0  0  0  0  0
  161.3650  207.9980  150.0400 N   0  0  0  0  0  0  0  0  0  0  0  0
  161.1420  201.8380  150.1570 C   0  0  0  0  0  3  0  0  0  0  0  0
  161.2260  209.6770  154.0420 C   0  0  0  0  0  2  0  0  0  0  0  0
  160.6200  211.0370  152.1150 C   0  0  0  0  0  2  0  0  0  0  0  0
  161.1220  203.0460  147.7740 Cl  0  0  0  0  0  0  0  0  0  0  0  0
  161.1210  205.2770  152.5320 C   0  0  0  0  0  0  0  0  0  0  0  0
  161.1490  201.7250  151.5430 C   0  0  0  0  0  3  0  0  0  0  0  0
  161.1440  204.2800  150.3220 C   0  0  0  0  0  0  0  0  0  0  0  0
  161.0940  206.5450  152.0100 C   0  0  0  0  0  0  0  0  0  0  0  0
  160.7180  207.0580  155.3030 O   0  0  0  0  0  0  0  0  0  0  0  0
  160.9420  207.4220  153.0370 N   0  0  0  0  0  0  0  0  0  0  0  0
  160.9680  211.1000  153.5950 C   0  0  0  0  0  2  0  0  0  0  0  0
  163.0450  209.1130  151.4850 C   0  0  0  0  0  1  0  0  0  0  0  0
  161.1510  202.8700  152.3310 C   0  0  0  0  0  3  0  0  0  0  0  0
  161.1510  204.1360  151.7380 C   0  0  0  0  0  0  0  0  0  0  0  0
  161.6680  209.1910  150.8270 C   0  0  2  0  0  3  0  0  0  0  0  0
  161.2420  207.1630  146.4690 O   0  0  0  0  0  0  0  0  0  0  0  0
  161.4650  205.4550  144.8040 C   0  0  0  0  0  1  0  0  0  0  0  0
  160.5060  206.2900  145.6260 C   0  0  0  0  0  2  0  0  0  0  0  0
  1 19  2  0  0  0  0
  1  4  1  0  0  0  0
  2 13  2  0  0  0  0
  2 19  1  0  0  0  0
  3 10  1  0  0  0  0
  4 20  2  0  0  0  0
  5  1  1  0  0  0  0
  6  8  2  0  0  0  0
  7 15  1  1  0  0  0
  7  9  1  0  0  0  0
  8 12  1  0  0  0  0
  9 14  1  1  0  0  0
 10 21  2  0  0  0  0
 11  5  2  0  0  0  0
 11  8  1  0  0  0  0
 12  4  1  0  0  0  0
 12 27  1  0  0  0  0
 13 18  1  0  0  0  0
 15 23  1  0  0  0  0
 16  2  1  0  0  0  0
 17  3  1  0  0  0  0
 18 25  2  0  0  0  0
 19 26  1  0  0  0  0
 20 17  1  0  0  0  0
 20 22  1  0  0  0  0
 22  9  1  0  0  0  0
 22 10  1  0  0  0  0
 23 14  1  0  0  0  0
 26 25  1  0  0  0  0
 26 17  2  0  0  0  0
 27 24  1  1  0  0  0
 27  7  1  0  0  0  0
 28 11  1  0  0  0  0
 29 30  1  0  0  0  0
 30 28  1  0  0  0  0
M  END
>  <MODEL>
1

>  <REMARK>
 VINA RESULT:      -8.0      0.000      0.000
  Name = 
  2 active torsions:
  status: ('A' for Active; 'I' for Inactive)
    1  A    between atoms: C_11  and  O_28
    2  A    between atoms: O_28  and  C_30
                            x       y       z     vdW  Elec       q    Type
                         _______ _______ _______ _____ _____    ______ ____

>  <TORSDO>
F 2

$$$$
=
 OpenBabel11122412383D

 30 35  0  0  1  0  0  0  0  0999 V2000
  161.5000  208.3470  151.6640 C   0  0  0  0  0  0  0  0  0  0  0  0
  161.2050  208.9930  154.0860 C   0  0  0  0  0  0  0  0  0  0  0  0
  160.7400  204.3980  152.5370 N   0  0  0  0  0  2  0  0  0  0  0  0
  161.4660  207.3410  150.6470 C   0  0  0  0  0  0  0  0  0  0  0  0
  161.7910  209.6200  151.2970 N   0  0  0  0  0  0  0  0  0  0  0  0
  162.0550  209.3610  147.8020 O   0  0  0  0  0  0  0  0  0  0  0  0
  162.2970  205.6570  148.1770 C   0  0  1  0  0  3  0  0  0  0  0  0
  161.8940  209.0180  149.0060 C   0  0  0  0  0  0  0  0  0  0  0  0
  161.9560  204.5000  149.0990 C   0  0  2  0  0  3  0  0  0  0  0  0
  160.9900  203.9000  151.3080 C   0  0  0  0  0  0  0  0  0  0  0  0
  162.0110  209.9770  150.0090 C   0  0  0  0  0  0  0  0  0  0  0  0
  161.5920  207.7210  149.3290 N   0  0  0  0  0  0  0  0  0  0  0  0
  160.8900  208.6010  155.3900 C   0  0  0  0  0  3  0  0  0  0  0  0
  161.1410  203.5370  148.2610 C   0  0  0  0  0  2  0  0  0  0  0  0
  162.3240  205.0640  146.7780 C   0  0  0  0  0  2  0  0  0  0  0  0
  161.5780  210.7030  153.8920 Cl  0  0  0  0  0  0  0  0  0  0  0  0
  160.9160  205.7190  152.3630 C   0  0  0  0  0  0  0  0  0  0  0  0
  160.5790  207.2790  155.6880 C   0  0  0  0  0  3  0  0  0  0  0  0
  161.2080  208.0320  153.0300 C   0  0  0  0  0  0  0  0  0  0  0  0
  161.2360  206.0070  151.0610 C   0  0  0  0  0  0  0  0  0  0  0  0
  160.9900  202.6620  151.0740 O   0  0  0  0  0  0  0  0  0  0  0  0
  161.2970  204.8370  150.3720 N   0  0  0  0  0  0  0  0  0  0  0  0
  161.6890  203.6830  146.8570 C   0  0  0  0  0  2  0  0  0  0  0  0
  159.8290  206.4400  148.1430 C   0  0  0  0  0  1  0  0  0  0  0  0
  160.5790  206.3230  154.6780 C   0  0  0  0  0  3  0  0  0  0  0  0
  160.8870  206.6850  153.3630 C   0  0  0  0  0  0  0  0  0  0  0  0
  161.3090  206.8130  148.2200 C   0  0  2  0  0  3  0  0  0  0  0  0
  162.3310  211.2970  149.6790 O   0  0  0  0  0  0  0  0  0  0  0  0
  161.6590  212.9100  148.0400 C   0  0  0  0  0  1  0  0  0  0  0  0
  161.3330  212.2590  149.3670 C   0  0  0  0  0  2  0  0  0  0  0  0
  1 19  1  0  0  0  0
  2 13  1  0  0  0  0
  4 20  1  0  0  0  0
  4  1  2  0  0  0  0
  5  1  1  0  0  0  0
  6  8  2  0  0  0  0
  7 15  1  6  0  0  0
  7 27  1  0  0  0  0
  7  9  1  0  0  0  0
  8 12  1  0  0  0  0
  8 11  1  0  0  0  0
  9 14  1  6  0  0  0
  9 22  1  0  0  0  0
 10  3  1  0  0  0  0
 11  5  2  0  0  0  0
 12  4  1  0  0  0  0
 13 18  2  0  0  0  0
 15 23  1  0  0  0  0
 16  2  1  0  0  0  0
 17  3  1  0  0  0  0
 17 26  1  0  0  0  0
 19 26  1  0  0  0  0
 19  2  2  0  0  0  0
 20 17  2  0  0  0  0
 21 10  2  0  0  0  0
 22 20  1  0  0  0  0
 22 10  1  0  0  0  0
 23 14  1  0  0  0  0
 25 18  1  0  0  0  0
 26 25  2  0  0  0  0
 27 24  1  1  0  0  0
 27 12  1  0  0  0  0
 28 11  1  0  0  0  0
 29 30  1  0  0  0  0
 30 28  1  0  0  0  0
M  END
>  <MODEL>
2

>  <REMARK>
 VINA RESULT:      -7.9      2.712      5.588
  Name = 
  2 active torsions:
  status: ('A' for Active; 'I' for Inactive)
    1  A    between atoms: C_11  and  O_28
    2  A    between atoms: O_28  and  C_30
                            x       y       z     vdW  Elec       q    Type
                         _______ _______ _______ _____ _____    ______ ____

>  <TORSDO>
F 2

$$$$
=
 OpenBabel11122412383D

 30 35  0  0  1  0  0  0  0  0999 V2000
  161.4180  207.8880  150.1620 C   0  0  0  0  0  0  0  0  0  0  0  0
  161.4670  205.7400  148.8390 C   0  0  0  0  0  0  0  0  0  0  0  0
  160.7880  205.8190  153.6630 N   0  0  0  0  0  2  0  0  0  0  0  0
  161.3240  208.5520  151.4260 C   0  0  0  0  0  0  0  0  0  0  0  0
  161.5920  208.6470  149.0510 N   0  0  0  0  0  0  0  0  0  0  0  0
  161.8770  211.8870  150.3810 O   0  0  0  0  0  0  0  0  0  0  0  0
  160.4690  210.6050  153.5890 C   0  0  1  0  0  3  0  0  0  0  0  0
  161.7150  210.6360  150.3350 C   0  0  0  0  0  0  0  0  0  0  0  0
  160.2790  209.3510  154.4220 C   0  0  2  0  0  3  0  0  0  0  0  0
  160.6190  206.8890  154.4650 C   0  0  0  0  0  0  0  0  0  0  0  0
  161.7180  209.9950  149.0990 C   0  0  0  0  0  0  0  0  0  0  0  0
  161.5500  209.9100  151.4840 N   0  0  0  0  0  0  0  0  0  0  0  0
  161.4160  204.3430  148.8400 C   0  0  0  0  0  3  0  0  0  0  0  0
  160.9000  209.6570  155.7700 C   0  0  0  0  0  2  0  0  0  0  0  0
  160.5090  211.7500  154.5880 C   0  0  0  0  0  2  0  0  0  0  0  0
  161.6650  206.4760  147.2520 Cl  0  0  0  0  0  0  0  0  0  0  0  0
  161.0520  206.3810  152.4710 C   0  0  0  0  0  0  0  0  0  0  0  0
  161.2580  203.6300  150.0230 C   0  0  0  0  0  3  0  0  0  0  0  0
  161.3580  206.4600  150.0660 C   0  0  0  0  0  0  0  0  0  0  0  0
  161.0660  207.7500  152.5630 C   0  0  0  0  0  0  0  0  0  0  0  0
  160.2870  206.7730  155.6760 O   0  0  0  0  0  0  0  0  0  0  0  0
  160.7770  208.0890  153.8470 N   0  0  0  0  0  0  0  0  0  0  0  0
  160.6740  211.1400  155.9720 C   0  0  0  0  0  2  0  0  0  0  0  0
  163.0240  210.2090  153.4570 C   0  0  0  0  0  1  0  0  0  0  0  0
  161.1460  204.3090  151.2310 C   0  0  0  0  0  3  0  0  0  0  0  0
  161.1960  205.7070  151.2630 C   0  0  0  0  0  0  0  0  0  0  0  0
  161.7360  210.6210  152.7470 C   0  0  2  0  0  3  0  0  0  0  0  0
  161.8740  210.7390  147.9250 O   0  0  0  0  0  0  0  0  0  0  0  0
  161.6930  212.8960  146.8980 C   0  0  0  0  0  1  0  0  0  0  0  0
  160.9480  211.7470  147.5440 C   0  0  0  0  0  2  0  0  0  0  0  0
  1  4  1  0  0  0  0
  2 13  2  0  0  0  0
  2 19  1  0  0  0  0
  3 10  1  0  0  0  0
  4 12  1  0  0  0  0
  4 20  2  0  0  0  0
  5 11  2  0  0  0  0
  5  1  1  0  0  0  0
  7  9  1  0  0  0  0
  7 15  1  1  0  0  0
  8  6  2  0  0  0  0
  8 12  1  0  0  0  0
  9 14  1  1  0  0  0
 10 21  2  0  0  0  0
 11  8  1  0  0  0  0
 12 27  1  0  0  0  0
 13 18  1  0  0  0  0
 14 23  1  0  0  0  0
 15 23  1  0  0  0  0
 16  2  1  0  0  0  0
 17 20  1  0  0  0  0
 17  3  1  0  0  0  0
 18 25  2  0  0  0  0
 19  1  2  0  0  0  0
 19 26  1  0  0  0  0
 20 22  1  0  0  0  0
 22  9  1  0  0  0  0
 22 10  1  0  0  0  0
 25 26  1  0  0  0  0
 26 17  2  0  0  0  0
 27 24  1  1  0  0  0
 27  7  1  0  0  0  0
 28 11  1  0  0  0  0
 29 30  1  0  0  0  0
 30 28  1  0  0  0  0
M  END
>  <MODEL>
3

>  <REMARK>
 VINA RESULT:      -6.8      1.914      2.871
  Name = 
  2 active torsions:
  status: ('A' for Active; 'I' for Inactive)
    1  A    between atoms: C_11  and  O_28
    2  A    between atoms: O_28  and  C_30
                            x       y       z     vdW  Elec       q    Type
                         _______ _______ _______ _____ _____    ______ ____

>  <TORSDO>
F 2

$$$$
=
 OpenBabel11122412383D

 30 35  0  0  1  0  0  0  0  0999 V2000
  161.3250  207.8850  151.4720 C   0  0  0  0  0  0  0  0  0  0  0  0
  161.6640  210.3290  150.9430 C   0  0  0  0  0  0  0  0  0  0  0  0
  161.8330  206.8700  147.5160 N   0  0  0  0  0  2  0  0  0  0  0  0
  161.2930  206.5240  151.0300 C   0  0  0  0  0  0  0  0  0  0  0  0
  161.1150  208.1370  152.7880 N   0  0  0  0  0  0  0  0  0  0  0  0
  160.8300  204.9070  154.1430 O   0  0  0  0  0  0  0  0  0  0  0  0
  160.3530  203.5880  150.6850 C   0  0  1  0  0  3  0  0  0  0  0  0
  160.9700  205.8230  153.2860 C   0  0  0  0  0  0  0  0  0  0  0  0
  160.6200  203.8820  149.2210 C   0  0  2  0  0  3  0  0  0  0  0  0
  161.5500  205.5570  147.6390 C   0  0  0  0  0  0  0  0  0  0  0  0
  160.9160  207.1530  153.6970 C   0  0  0  0  0  0  0  0  0  0  0  0
  161.1890  205.5210  151.9680 N   0  0  0  0  0  0  0  0  0  0  0  0
  161.9560  211.3090  149.9890 C   0  0  0  0  0  3  0  0  0  0  0  0
  161.3710  202.6760  148.6930 C   0  0  0  0  0  2  0  0  0  0  0  0
  160.2850  202.0730  150.7870 C   0  0  0  0  0  2  0  0  0  0  0  0
  161.4000  210.9340  152.5750 Cl  0  0  0  0  0  0  0  0  0  0  0  0
  161.7410  207.3130  148.7810 C   0  0  0  0  0  0  0  0  0  0  0  0
  162.1830  210.9720  148.6590 C   0  0  0  0  0  3  0  0  0  0  0  0
  161.5990  208.9550  150.5600 C   0  0  0  0  0  0  0  0  0  0  0  0
  161.4390  206.2880  149.6420 C   0  0  0  0  0  0  0  0  0  0  0  0
  161.4710  204.7930  146.6400 O   0  0  0  0  0  0  0  0  0  0  0  0
  161.3020  205.1500  148.9110 N   0  0  0  0  0  0  0  0  0  0  0  0
  160.8310  201.5050  149.4850 C   0  0  0  0  0  2  0  0  0  0  0  0
  162.8650  203.8340  151.2610 C   0  0  0  0  0  1  0  0  0  0  0  0
  162.1200  209.6420  148.2610 C   0  0  0  0  0  3  0  0  0  0  0  0
  161.8340  208.6390  149.1920 C   0  0  0  0  0  0  0  0  0  0  0  0
  161.4120  204.1140  151.6420 C   0  0  2  0  0  3  0  0  0  0  0  0
  160.6800  207.4600  155.0410 O   0  0  0  0  0  0  0  0  0  0  0  0
  159.8100  209.5400  155.8510 C   0  0  0  0  0  1  0  0  0  0  0  0
  161.0520  208.7090  155.6040 C   0  0  0  0  0  2  0  0  0  0  0  0
  1  5  1  0  0  0  0
  2 16  1  0  0  0  0
  3 10  1  0  0  0  0
  3 17  1  0  0  0  0
  4  1  1  0  0  0  0
  4 12  1  0  0  0  0
  5 11  2  0  0  0  0
  7 15  1  6  0  0  0
  7 27  1  0  0  0  0
  8 11  1  0  0  0  0
  8  6  2  0  0  0  0
  9 14  1  1  0  0  0
  9  7  1  0  0  0  0
 10 22  1  0  0  0  0
 11 28  1  0  0  0  0
 12  8  1  0  0  0  0
 13  2  2  0  0  0  0
 14 23  1  0  0  0  0
 17 26  2  0  0  0  0
 17 20  1  0  0  0  0
 18 13  1  0  0  0  0
 19  2  1  0  0  0  0
 19  1  2  0  0  0  0
 20  4  2  0  0  0  0
 21 10  2  0  0  0  0
 22  9  1  0  0  0  0
 22 20  1  0  0  0  0
 23 15  1  0  0  0  0
 25 18  2  0  0  0  0
 25 26  1  0  0  0  0
 26 19  1  0  0  0  0
 27 24  1  6  0  0  0
 27 12  1  0  0  0  0
 28 30  1  0  0  0  0
 30 29  1  0  0  0  0
M  END
>  <MODEL>
4

>  <REMARK>
 VINA RESULT:      -6.5      2.415      7.147
  Name = 
  2 active torsions:
  status: ('A' for Active; 'I' for Inactive)
    1  A    between atoms: C_11  and  O_28
    2  A    between atoms: O_28  and  C_30
                            x       y       z     vdW  Elec       q    Type
                         _______ _______ _______ _____ _____    ______ ____

>  <TORSDO>
F 2

$$$$
=
 OpenBabel11122412383D

 30 35  0  0  1  0  0  0  0  0999 V2000
  161.4210  206.1460  150.3460 C   0  0  0  0  0  0  0  0  0  0  0  0
  161.1450  205.3740  152.7330 C   0  0  0  0  0  0  0  0  0  0  0  0
  160.8060  202.3250  148.9480 N   0  0  0  0  0  2  0  0  0  0  0  0
  161.4040  205.8470  148.9470 C   0  0  0  0  0  0  0  0  0  0  0  0
  161.6650  207.4260  150.7250 N   0  0  0  0  0  0  0  0  0  0  0  0
  161.8790  209.1020  147.6430 O   0  0  0  0  0  0  0  0  0  0  0  0
  162.2480  205.7920  145.9620 C   0  0  1  0  0  3  0  0  0  0  0  0
  161.7490  208.1580  148.4710 C   0  0  0  0  0  0  0  0  0  0  0  0
  161.9610  204.3090  146.1120 C   0  0  2  0  0  3  0  0  0  0  0  0
  161.0520  202.5780  147.6460 C   0  0  0  0  0  0  0  0  0  0  0  0
  161.8520  208.4290  149.8330 C   0  0  0  0  0  0  0  0  0  0  0  0
  161.4960  206.8820  148.0420 N   0  0  0  0  0  0  0  0  0  0  0  0
  160.8650  204.3290  153.6180 C   0  0  0  0  0  3  0  0  0  0  0  0
  161.1640  203.9200  144.8840 C   0  0  0  0  0  2  0  0  0  0  0  0
  162.2720  206.0480  144.4640 C   0  0  0  0  0  2  0  0  0  0  0  0
  161.4600  206.9310  153.4930 Cl  0  0  0  0  0  0  0  0  0  0  0  0
  160.9360  203.5370  149.5150 C   0  0  0  0  0  0  0  0  0  0  0  0
  160.6020  203.0450  153.1550 C   0  0  0  0  0  3  0  0  0  0  0  0
  161.1620  205.1340  151.3260 C   0  0  0  0  0  0  0  0  0  0  0  0
  161.2240  204.4930  148.5750 C   0  0  0  0  0  0  0  0  0  0  0  0
  161.0880  201.6620  146.7810 O   0  0  0  0  0  0  0  0  0  0  0  0
  161.3120  203.8820  147.3640 N   0  0  0  0  0  0  0  0  0  0  0  0
  161.6840  204.8200  143.7840 C   0  0  0  0  0  2  0  0  0  0  0  0
  159.7560  206.3800  146.3460 C   0  0  0  0  0  1  0  0  0  0  0  0
  160.6170  202.7850  151.7890 C   0  0  0  0  0  3  0  0  0  0  0  0
  160.8910  203.8100  150.8780 C   0  0  0  0  0  0  0  0  0  0  0  0
  161.2240  206.7060  146.6180 C   0  0  2  0  0  3  0  0  0  0  0  0
  162.1230  209.7290  150.2690 O   0  0  0  0  0  0  0  0  0  0  0  0
  160.7480  210.3860  152.1170 C   0  0  0  0  0  1  0  0  0  0  0  0
  162.1520  210.0710  151.6470 C   0  0  0  0  0  2  0  0  0  0  0  0
  1  5  1  0  0  0  0
  1 19  1  0  0  0  0
  2 16  1  0  0  0  0
  2 13  1  0  0  0  0
  3 17  1  0  0  0  0
  4  1  2  0  0  0  0
  6  8  2  0  0  0  0
  7 15  1  6  0  0  0
  7  9  1  0  0  0  0
  7 27  1  0  0  0  0
  8 11  1  0  0  0  0
  9 14  1  6  0  0  0
  9 22  1  0  0  0  0
 10  3  1  0  0  0  0
 11 28  1  0  0  0  0
 11  5  2  0  0  0  0
 12  8  1  0  0  0  0
 12  4  1  0  0  0  0
 17 26  1  0  0  0  0
 18 13  2  0  0  0  0
 19  2  2  0  0  0  0
 20  4  1  0  0  0  0
 20 17  2  0  0  0  0
 21 10  2  0  0  0  0
 22 10  1  0  0  0  0
 22 20  1  0  0  0  0
 23 15  1  0  0  0  0
 23 14  1  0  0  0  0
 25 18  1  0  0  0  0
 26 19  1  0  0  0  0
 26 25  2  0  0  0  0
 27 24  1  1  0  0  0
 27 12  1  0  0  0  0
 28 30  1  0  0  0  0
 30 29  1  0  0  0  0
M  END
>  <MODEL>
5

>  <REMARK>
 VINA RESULT:      -5.5      2.195      5.954
  Name = 
  2 active torsions:
  status: ('A' for Active; 'I' for Inactive)
    1  A    between atoms: C_11  and  O_28
    2  A    between atoms: O_28  and  C_30
                            x       y       z     vdW  Elec       q    Type
                         _______ _______ _______ _____ _____    ______ ____

>  <TORSDO>
F 2

$$$$
=
 OpenBabel11122412383D

 30 35  0  0  1  0  0  0  0  0999 V2000
  161.5510  206.2130  148.2870 C   0  0  0  0  0  0  0  0  0  0  0  0
  161.4990  204.8750  146.1480 C   0  0  0  0  0  0  0  0  0  0  0  0
  160.8500  202.8300  150.5230 N   0  0  0  0  0  2  0  0  0  0  0  0
  161.4920  206.2500  149.7160 C   0  0  0  0  0  0  0  0  0  0  0  0
  161.7520  207.3790  147.6230 N   0  0  0  0  0  0  0  0  0  0  0  0
  162.1830  209.6800  150.2440 O   0  0  0  0  0  0  0  0  0  0  0  0
  160.7370  207.1600  152.5850 C   0  0  1  0  0  3  0  0  0  0  0  0
  161.9660  208.5860  149.6530 C   0  0  0  0  0  0  0  0  0  0  0  0
  160.4980  205.6740  152.7800 C   0  0  2  0  0  3  0  0  0  0  0  0
  160.7310  203.4380  151.7200 C   0  0  0  0  0  0  0  0  0  0  0  0
  161.9360  208.5600  148.2610 C   0  0  0  0  0  0  0  0  0  0  0  0
  161.7770  207.4320  150.3650 N   0  0  0  0  0  0  0  0  0  0  0  0
  161.3890  203.6250  145.5310 C   0  0  0  0  0  3  0  0  0  0  0  0
  161.1380  205.3280  154.1090 C   0  0  0  0  0  2  0  0  0  0  0  0
  160.8320  207.7410  153.9860 C   0  0  0  0  0  2  0  0  0  0  0  0
  161.7220  206.2310  145.0480 Cl  0  0  0  0  0  0  0  0  0  0  0  0
  161.1310  203.8530  149.6970 C   0  0  0  0  0  0  0  0  0  0  0  0
  161.2060  202.4670  146.2800 C   0  0  0  0  0  3  0  0  0  0  0  0
  161.4290  204.9790  147.5700 C   0  0  0  0  0  0  0  0  0  0  0  0
  161.2050  205.0360  150.3860 C   0  0  0  0  0  0  0  0  0  0  0  0
  160.4000  202.8090  152.7610 O   0  0  0  0  0  0  0  0  0  0  0  0
  160.9370  204.7810  151.6940 N   0  0  0  0  0  0  0  0  0  0  0  0
  160.9780  206.5740  154.9530 C   0  0  0  0  0  2  0  0  0  0  0  0
  163.2720  206.7700  152.2310 C   0  0  0  0  0  1  0  0  0  0  0  0
  161.1290  202.5440  147.6660 C   0  0  0  0  0  3  0  0  0  0  0  0
  161.2400  203.7790  148.3120 C   0  0  0  0  0  0  0  0  0  0  0  0
  161.9990  207.5010  151.8070 C   0  0  2  0  0  3  0  0  0  0  0  0
  162.1170  209.7420  147.5360 O   0  0  0  0  0  0  0  0  0  0  0  0
  162.5010  212.0810  147.8850 C   0  0  0  0  0  1  0  0  0  0  0  0
  161.4850  210.9580  147.9060 C   0  0  0  0  0  2  0  0  0  0  0  0
  1  4  1  0  0  0  0
  2 19  1  0  0  0  0
  3 10  1  0  0  0  0
  4 12  1  0  0  0  0
  4 20  2  0  0  0  0
  5 11  2  0  0  0  0
  5  1  1  0  0  0  0
  7  9  1  0  0  0  0
  7 15  1  1  0  0  0
  8  6  2  0  0  0  0
  8 12  1  0  0  0  0
  9 14  1  1  0  0  0
 10 21  2  0  0  0  0
 11  8  1  0  0  0  0
 12 27  1  0  0  0  0
 13  2  2  0  0  0  0
 13 18  1  0  0  0  0
 14 23  1  0  0  0  0
 15 23  1  0  0  0  0
 16  2  1  0  0  0  0
 17 20  1  0  0  0  0
 17  3  1  0  0  0  0
 18 25  2  0  0  0  0
 19  1  2  0  0  0  0
 19 26  1  0  0  0  0
 20 22  1  0  0  0  0
 22 10  1  0  0  0  0
 22  9  1  0  0  0  0
 25 26  1  0  0  0  0
 26 17  2  0  0  0  0
 27 24  1  1  0  0  0
 27  7  1  0  0  0  0
 28 30  1  0  0  0  0
 28 11  1  0  0  0  0
 29 30  1  0  0  0  0
M  END
>  <MODEL>
6

>  <REMARK>
 VINA RESULT:      -5.1      2.170      3.651
  Name = 
  2 active torsions:
  status: ('A' for Active; 'I' for Inactive)
    1  A    between atoms: C_11  and  O_28
    2  A    between atoms: O_28  and  C_30
                            x       y       z     vdW  Elec       q    Type
                         _______ _______ _______ _____ _____    ______ ____

>  <TORSDO>
F 2

$$$$
