=
 OpenBabel11122412543D

 32 38  0  0  1  0  0  0  0  0999 V2000
  160.7130  209.3250  157.1760 C   0  0  1  0  0  3  0  0  0  0  0  0
  160.9740  207.1300  152.3650 C   0  0  0  0  0  0  0  0  0  0  0  0
  162.0370  210.9960  149.5960 C   0  0  0  0  0  3  0  0  0  0  0  0
  162.1690  210.1700  148.4810 C   0  0  0  0  0  3  0  0  0  0  0  0
  160.8900  204.7900  151.3510 C   0  0  0  0  0  0  0  0  0  0  0  0
  161.0140  203.9840  150.1440 C   0  0  0  0  0  0  0  0  0  0  0  0
  161.1000  207.4620  154.8560 C   0  0  1  0  0  3  0  0  0  0  0  0
  161.0610  209.3870  153.3630 N   0  0  0  0  0  2  0  0  0  0  0  0
  161.3580  203.4740  148.0560 C   0  0  0  0  0  0  0  0  0  0  0  0
  160.9910  209.8740  155.7750 C   0  0  2  0  0  3  0  0  0  0  0  0
  161.7040  210.4460  150.8340 C   0  0  0  0  0  3  0  0  0  0  0  0
  161.1630  208.5240  152.2180 C   0  0  0  0  0  0  0  0  0  0  0  0
  161.4990  209.0640  150.9720 C   0  0  0  0  0  0  0  0  0  0  0  0
  161.4320  206.8320  149.9660 C   0  0  0  0  0  0  0  0  0  0  0  0
  161.0760  202.3580  148.6940 O   0  0  0  0  0  0  0  0  0  0  0  0
  160.1060  207.9030  157.1900 C   0  0  0  0  0  2  0  0  0  0  0  0
  160.6020  208.8930  154.6530 C   0  0  2  0  0  3  0  0  0  0  0  0
  160.8600  202.6200  149.9710 C   0  0  0  0  0  3  0  0  0  0  0  0
  160.7110  206.8790  156.2160 C   0  0  0  0  0  2  0  0  0  0  0  0
  162.1420  209.3920  156.6550 C   0  0  1  0  0  3  0  0  0  0  0  0
  161.9680  208.7950  148.6040 C   0  0  0  0  0  3  0  0  0  0  0  0
  161.6320  208.2220  149.8440 C   0  0  0  0  0  0  0  0  0  0  0  0
  161.5890  205.9760  148.7100 C   0  0  0  0  0  2  0  0  0  0  0  0
  160.5740  206.5930  153.7220 C   0  0  0  0  0  2  0  0  0  0  0  0
  160.6190  204.2240  152.4440 O   0  0  0  0  0  0  0  0  0  0  0  0
  161.6610  203.5540  146.6010 C   0  0  0  0  0  1  0  0  0  0  0  0
  161.0970  206.2710  151.2400 C   0  0  0  0  0  0  0  0  0  0  0  0
  161.3270  204.5260  148.9390 C   0  0  0  0  0  0  0  0  0  0  0  0
  162.8400  210.5920  157.2610 C   0  0  0  0  0  2  0  0  0  0  0  0
  163.8830  211.0950  156.3250 C   0  0  0  0  0  0  0  0  0  0  0  0
  164.9150  211.8940  156.7980 O   0  0  0  0  0  1  0  0  0  0  0  0
  163.8110  210.8230  155.0980 O   0  0  0  0  0  0  0  0  0  0  0  0
  1 16  1  6  0  0  0
  2 24  1  0  0  0  0
  3 11  2  0  0  0  0
  4 21  2  0  0  0  0
  4  3  1  0  0  0  0
  5 25  2  0  0  0  0
  6  5  1  0  0  0  0
  7 24  1  6  0  0  0
  7 19  1  0  0  0  0
  8 17  1  0  0  0  0
  9 15  1  0  0  0  0
  9 28  2  0  0  0  0
 10 20  1  0  0  0  0
 10  1  1  0  0  0  0
 11 13  1  0  0  0  0
 12  2  1  0  0  0  0
 12  8  1  0  0  0  0
 13 12  2  0  0  0  0
 14 27  1  0  0  0  0
 15 18  1  0  0  0  0
 17  7  1  0  0  0  0
 17 10  1  0  0  0  0
 18  6  2  0  0  0  0
 19 16  1  0  0  0  0
 20  1  1  0  0  0  0
 20 29  1  0  0  0  0
 21 22  1  0  0  0  0
 22 14  2  0  0  0  0
 22 13  1  0  0  0  0
 23 28  1  0  0  0  0
 23 14  1  0  0  0  0
 26  9  1  0  0  0  0
 27  5  1  0  0  0  0
 27  2  2  0  0  0  0
 28  6  1  0  0  0  0
 30 31  1  0  0  0  0
 30 29  1  0  0  0  0
 32 30  2  0  0  0  0
M  END
>  <MODEL>
1

>  <REMARK>
 VINA RESULT:     -10.3      0.000      0.000
  Name = 
  2 active torsions:
  status: ('A' for Active; 'I' for Inactive)
    1  A    between atoms: C_20  and  C_29
    2  A    between atoms: C_29  and  C_30
                            x       y       z     vdW  Elec       q    Type
                         _______ _______ _______ _____ _____    ______ ____

>  <TORSDO>
F 2

$$$$
=
 OpenBabel11122412543D

 32 38  0  0  1  0  0  0  0  0999 V2000
  161.7660  213.4590  148.8390 C   0  0  1  0  0  3  0  0  0  0  0  0
  161.5610  208.2410  149.7120 C   0  0  0  0  0  0  0  0  0  0  0  0
  160.9230  208.0940  154.5400 C   0  0  0  0  0  3  0  0  0  0  0  0
  160.7810  206.7080  154.4870 C   0  0  0  0  0  3  0  0  0  0  0  0
  161.5130  206.0960  148.3300 C   0  0  0  0  0  0  0  0  0  0  0  0
  161.3840  204.6460  148.3430 C   0  0  0  0  0  0  0  0  0  0  0  0
  161.3450  210.4960  148.6170 C   0  0  1  0  0  3  0  0  0  0  0  0
  161.6000  210.3250  151.0350 N   0  0  0  0  0  2  0  0  0  0  0  0
  161.1000  202.6280  149.1080 C   0  0  0  0  0  0  0  0  0  0  0  0
  161.5950  212.6010  150.0950 C   0  0  2  0  0  3  0  0  0  0  0  0
  161.1560  208.8150  153.3700 C   0  0  0  0  0  3  0  0  0  0  0  0
  161.4850  208.8950  150.9640 C   0  0  0  0  0  0  0  0  0  0  0  0
  161.2490  208.1610  152.1310 C   0  0  0  0  0  0  0  0  0  0  0  0
  161.1930  206.0830  150.8350 C   0  0  0  0  0  0  0  0  0  0  0  0
  161.2660  202.5360  147.8060 O   0  0  0  0  0  0  0  0  0  0  0  0
  162.2620  212.6780  147.6010 C   0  0  0  0  0  2  0  0  0  0  0  0
  161.9600  211.1220  149.8700 C   0  0  2  0  0  3  0  0  0  0  0  0
  161.4420  203.7430  147.2970 C   0  0  0  0  0  3  0  0  0  0  0  0
  161.6260  211.3010  147.3470 C   0  0  0  0  0  2  0  0  0  0  0  0
  160.3720  213.0690  149.3110 C   0  0  1  0  0  3  0  0  0  0  0  0
  160.8710  206.0440  153.2630 C   0  0  0  0  0  3  0  0  0  0  0  0
  161.1040  206.7560  152.0710 C   0  0  0  0  0  0  0  0  0  0  0  0
  161.0290  204.5640  150.8370 C   0  0  0  0  0  2  0  0  0  0  0  0
  161.8560  209.0690  148.4800 C   0  0  0  0  0  2  0  0  0  0  0  0
  161.6900  206.6890  147.2310 O   0  0  0  0  0  0  0  0  0  0  0  0
  160.8710  201.4640  150.0080 C   0  0  0  0  0  1  0  0  0  0  0  0
  161.4250  206.8280  149.6360 C   0  0  0  0  0  0  0  0  0  0  0  0
  161.1700  203.9470  149.4860 C   0  0  0  0  0  0  0  0  0  0  0  0
  159.7390  214.2420  150.0300 C   0  0  0  0  0  2  0  0  0  0  0  0
  158.6950  213.7540  150.9710 C   0  0  0  0  0  0  0  0  0  0  0  0
  158.9720  213.6610  152.3290 O   0  0  0  0  0  1  0  0  0  0  0  0
  157.5720  213.3930  150.5330 O   0  0  0  0  0  0  0  0  0  0  0  0
  1 16  1  6  0  0  0
  1 20  1  0  0  0  0
  1 10  1  0  0  0  0
  2 12  1  0  0  0  0
  4  3  1  0  0  0  0
  5  6  1  0  0  0  0
  5 27  1  0  0  0  0
  6 28  1  0  0  0  0
  7 19  1  6  0  0  0
  7 17  1  0  0  0  0
  9 28  2  0  0  0  0
  9 26  1  0  0  0  0
 11  3  2  0  0  0  0
 12  8  1  0  0  0  0
 12 13  2  0  0  0  0
 13 11  1  0  0  0  0
 14 23  1  0  0  0  0
 14 22  2  0  0  0  0
 15  9  1  0  0  0  0
 17 10  1  0  0  0  0
 17  8  1  0  0  0  0
 18 15  1  0  0  0  0
 18  6  2  0  0  0  0
 19 16  1  0  0  0  0
 20 29  1  0  0  0  0
 20 10  1  0  0  0  0
 21  4  2  0  0  0  0
 22 13  1  0  0  0  0
 22 21  1  0  0  0  0
 24  7  1  0  0  0  0
 24  2  1  0  0  0  0
 25  5  2  0  0  0  0
 27  2  2  0  0  0  0
 27 14  1  0  0  0  0
 28 23  1  0  0  0  0
 29 30  1  0  0  0  0
 30 31  1  0  0  0  0
 32 30  2  0  0  0  0
M  END
>  <MODEL>
2

>  <REMARK>
 VINA RESULT:      -9.4      2.550      5.680
  Name = 
  2 active torsions:
  status: ('A' for Active; 'I' for Inactive)
    1  A    between atoms: C_20  and  C_29
    2  A    between atoms: C_29  and  C_30
                            x       y       z     vdW  Elec       q    Type
                         _______ _______ _______ _____ _____    ______ ____

>  <TORSDO>
F 2

$$$$
=
 OpenBabel11122412543D

 32 38  0  0  1  0  0  0  0  0999 V2000
  161.7100  202.9760  146.8650 C   0  0  1  0  0  3  0  0  0  0  0  0
  161.4330  206.4550  150.8460 C   0  0  0  0  0  0  0  0  0  0  0  0
  162.2840  210.6530  148.5220 C   0  0  0  0  0  3  0  0  0  0  0  0
  162.0410  211.3610  149.6980 C   0  0  0  0  0  3  0  0  0  0  0  0
  160.8260  206.4440  153.3250 C   0  0  0  0  0  0  0  0  0  0  0  0
  160.6100  207.2380  154.5260 C   0  0  0  0  0  0  0  0  0  0  0  0
  161.0450  204.4300  149.4050 C   0  0  1  0  0  3  0  0  0  0  0  0
  162.0100  206.4520  148.4460 N   0  0  0  0  0  2  0  0  0  0  0  0
  160.4380  208.9820  155.8170 C   0  0  0  0  0  0  0  0  0  0  0  0
  161.8710  204.4950  146.9570 C   0  0  2  0  0  3  0  0  0  0  0  0
  162.1970  209.2610  148.5190 C   0  0  0  0  0  3  0  0  0  0  0  0
  161.7850  207.1630  149.6740 C   0  0  0  0  0  0  0  0  0  0  0  0
  161.8660  208.5600  149.6890 C   0  0  0  0  0  0  0  0  0  0  0  0
  161.2810  208.5860  152.0680 C   0  0  0  0  0  0  0  0  0  0  0  0
  160.1950  207.9200  156.5550 O   0  0  0  0  0  0  0  0  0  0  0  0
  161.7520  202.2510  148.2290 C   0  0  0  0  0  2  0  0  0  0  0  0
  162.0520  204.9970  148.4030 C   0  0  2  0  0  3  0  0  0  0  0  0
  160.2880  206.8330  155.8090 C   0  0  0  0  0  3  0  0  0  0  0  0
  160.9800  202.9020  149.3880 C   0  0  0  0  0  2  0  0  0  0  0  0
  160.5020  203.8840  146.6750 C   0  0  1  0  0  3  0  0  0  0  0  0
  161.7100  210.6780  150.8680 C   0  0  0  0  0  3  0  0  0  0  0  0
  161.6180  209.2740  150.8830 C   0  0  0  0  0  0  0  0  0  0  0  0
  161.0250  209.4150  153.3260 C   0  0  0  0  0  2  0  0  0  0  0  0
  161.3950  204.9430  150.7950 C   0  0  0  0  0  2  0  0  0  0  0  0
  160.6990  205.1900  153.3840 O   0  0  0  0  0  0  0  0  0  0  0  0
  160.4170  210.3800  156.3280 C   0  0  0  0  0  1  0  0  0  0  0  0
  161.1870  207.1580  152.0570 C   0  0  0  0  0  0  0  0  0  0  0  0
  160.7080  208.5920  154.5280 C   0  0  0  0  0  0  0  0  0  0  0  0
  160.1970  204.0090  145.1960 C   0  0  0  0  0  2  0  0  0  0  0  0
  160.5920  205.3600  144.7120 C   0  0  0  0  0  0  0  0  0  0  0  0
  161.5370  205.4870  143.7020 O   0  0  0  0  0  0  0  0  0  0  0  0
  160.0950  206.3880  145.2410 O   0  0  0  0  0  1  0  0  0  0  0  0
  1 10  1  0  0  0  0
  1 16  1  1  0  0  0
  2 27  1  0  0  0  0
  3  4  1  0  0  0  0
  4 21  2  0  0  0  0
  5 25  2  0  0  0  0
  5  6  1  0  0  0  0
  6 28  1  0  0  0  0
  6 18  2  0  0  0  0
  7 19  1  1  0  0  0
  7 24  1  0  0  0  0
  8 12  1  0  0  0  0
  9 26  1  0  0  0  0
  9 15  1  0  0  0  0
 10 17  1  0  0  0  0
 11  3  2  0  0  0  0
 11 13  1  0  0  0  0
 12 13  1  0  0  0  0
 12  2  2  0  0  0  0
 13 22  2  0  0  0  0
 14 23  1  0  0  0  0
 16 19  1  0  0  0  0
 17  8  1  0  0  0  0
 17  7  1  0  0  0  0
 18 15  1  0  0  0  0
 20  1  1  0  0  0  0
 20 10  1  0  0  0  0
 21 22  1  0  0  0  0
 22 14  1  0  0  0  0
 23 28  1  0  0  0  0
 24  2  1  0  0  0  0
 27 14  2  0  0  0  0
 27  5  1  0  0  0  0
 28  9  2  0  0  0  0
 29 20  1  0  0  0  0
 30 29  1  0  0  0  0
 30 32  1  0  0  0  0
 31 30  2  0  0  0  0
M  END
>  <MODEL>
3

>  <REMARK>
 VINA RESULT:      -9.2      2.262      7.866
  Name = 
  2 active torsions:
  status: ('A' for Active; 'I' for Inactive)
    1  A    between atoms: C_20  and  C_29
    2  A    between atoms: C_29  and  C_30
                            x       y       z     vdW  Elec       q    Type
                         _______ _______ _______ _____ _____    ______ ____

>  <TORSDO>
F 2

$$$$
=
 OpenBabel11122412543D

 32 38  0  0  1  0  0  0  0  0999 V2000
  161.4860  209.9650  154.4350 C   0  0  1  0  0  3  0  0  0  0  0  0
  161.3090  206.6810  150.2860 C   0  0  0  0  0  0  0  0  0  0  0  0
  160.9850  202.3500  152.4950 C   0  0  0  0  0  3  0  0  0  0  0  0
  160.8320  201.7230  151.2590 C   0  0  0  0  0  3  0  0  0  0  0  0
  161.1600  206.8570  147.7440 C   0  0  0  0  0  0  0  0  0  0  0  0
  161.0240  206.1420  146.4840 C   0  0  0  0  0  0  0  0  0  0  0  0
  161.0350  208.7120  151.7460 C   0  0  1  0  0  3  0  0  0  0  0  0
  161.4450  206.5280  152.7460 N   0  0  0  0  0  2  0  0  0  0  0  0
  160.7790  204.4860  145.0910 C   0  0  0  0  0  0  0  0  0  0  0  0
  161.3920  208.4440  154.2910 C   0  0  2  0  0  3  0  0  0  0  0  0
  161.1450  203.7340  152.5570 C   0  0  0  0  0  3  0  0  0  0  0  0
  161.3180  205.8960  151.4620 C   0  0  0  0  0  0  0  0  0  0  0  0
  161.1540  204.5090  151.3860 C   0  0  0  0  0  0  0  0  0  0  0  0
  161.0030  204.6400  148.9450 C   0  0  0  0  0  0  0  0  0  0  0  0
  160.8600  205.5900  144.3810 O   0  0  0  0  0  0  0  0  0  0  0  0
  161.8960  210.7000  153.1390 C   0  0  0  0  0  2  0  0  0  0  0  0
  161.7330  207.9500  152.8730 C   0  0  2  0  0  3  0  0  0  0  0  0
  161.0100  206.6260  145.1880 C   0  0  0  0  0  3  0  0  0  0  0  0
  161.2370  210.2260  151.8330 C   0  0  0  0  0  2  0  0  0  0  0  0
  160.1230  209.2890  154.3700 C   0  0  1  0  0  3  0  0  0  0  0  0
  160.8380  202.4800  150.0870 C   0  0  0  0  0  3  0  0  0  0  0  0
  160.9980  203.8780  150.1310 C   0  0  0  0  0  0  0  0  0  0  0  0
  160.8310  203.9000  147.6200 C   0  0  0  0  0  2  0  0  0  0  0  0
  161.5280  208.1730  150.4110 C   0  0  0  0  0  2  0  0  0  0  0  0
  161.2680  208.1130  147.7310 O   0  0  0  0  0  0  0  0  0  0  0  0
  160.6020  203.1260  144.5110 C   0  0  0  0  0  1  0  0  0  0  0  0
  161.1610  206.0610  149.0150 C   0  0  0  0  0  0  0  0  0  0  0  0
  160.8810  204.7930  146.4270 C   0  0  0  0  0  0  0  0  0  0  0  0
  159.5440  209.1900  155.7660 C   0  0  0  0  0  2  0  0  0  0  0  0
  158.8830  210.4720  156.1300 C   0  0  0  0  0  0  0  0  0  0  0  0
  159.3950  211.2500  157.1600 O   0  0  0  0  0  1  0  0  0  0  0  0
  157.8390  210.8350  155.5270 O   0  0  0  0  0  0  0  0  0  0  0  0
  1 16  1  6  0  0  0
  2 24  1  0  0  0  0
  2 12  1  0  0  0  0
  3 11  2  0  0  0  0
  4  3  1  0  0  0  0
  5 27  1  0  0  0  0
  6  5  1  0  0  0  0
  7 24  1  6  0  0  0
  7 19  1  0  0  0  0
  7 17  1  0  0  0  0
  8 17  1  0  0  0  0
  9 28  2  0  0  0  0
 10 20  1  0  0  0  0
 10  1  1  0  0  0  0
 12  8  1  0  0  0  0
 13 12  2  0  0  0  0
 13 11  1  0  0  0  0
 14 27  1  0  0  0  0
 14 22  2  0  0  0  0
 15  9  1  0  0  0  0
 15 18  1  0  0  0  0
 17 10  1  0  0  0  0
 18  6  2  0  0  0  0
 19 16  1  0  0  0  0
 20  1  1  0  0  0  0
 20 29  1  0  0  0  0
 21 22  1  0  0  0  0
 21  4  2  0  0  0  0
 22 13  1  0  0  0  0
 23 14  1  0  0  0  0
 25  5  2  0  0  0  0
 26  9  1  0  0  0  0
 27  2  2  0  0  0  0
 28  6  1  0  0  0  0
 28 23  1  0  0  0  0
 29 30  1  0  0  0  0
 30 31  1  0  0  0  0
 32 30  2  0  0  0  0
M  END
>  <MODEL>
4

>  <REMARK>
 VINA RESULT:      -7.9      2.530      4.735
  Name = 
  2 active torsions:
  status: ('A' for Active; 'I' for Inactive)
    1  A    between atoms: C_20  and  C_29
    2  A    between atoms: C_29  and  C_30
                            x       y       z     vdW  Elec       q    Type
                         _______ _______ _______ _____ _____    ______ ____

>  <TORSDO>
F 2

$$$$
=
 OpenBabel11122412543D

 32 38  0  0  1  0  0  0  0  0999 V2000
  161.8350  204.8240  146.7130 C   0  0  1  0  0  3  0  0  0  0  0  0
  161.2880  207.5780  151.2010 C   0  0  0  0  0  0  0  0  0  0  0  0
  161.4930  212.1590  149.5550 C   0  0  0  0  0  3  0  0  0  0  0  0
  161.2120  212.6390  150.8340 C   0  0  0  0  0  3  0  0  0  0  0  0
  160.7950  207.1020  153.6600 C   0  0  0  0  0  0  0  0  0  0  0  0
  160.5320  207.6650  154.9760 C   0  0  0  0  0  0  0  0  0  0  0  0
  161.1010  205.7660  149.4660 C   0  0  1  0  0  3  0  0  0  0  0  0
  161.7560  208.0220  148.8180 N   0  0  0  0  0  2  0  0  0  0  0  0
  160.1940  209.1500  156.5320 C   0  0  0  0  0  0  0  0  0  0  0  0
  161.8050  206.3180  147.0410 C   0  0  2  0  0  3  0  0  0  0  0  0
  161.5850  210.7860  149.3330 C   0  0  0  0  0  3  0  0  0  0  0  0
  161.4950  208.4990  150.1490 C   0  0  0  0  0  0  0  0  0  0  0  0
  161.3970  209.8750  150.3840 C   0  0  0  0  0  0  0  0  0  0  0  0
  160.9180  209.4550  152.7490 C   0  0  0  0  0  0  0  0  0  0  0  0
  160.1210  207.9640  157.0960 O   0  0  0  0  0  0  0  0  0  0  0  0
  162.0300  203.9090  147.9420 C   0  0  0  0  0  2  0  0  0  0  0  0
  161.9820  206.6100  148.5430 C   0  0  2  0  0  3  0  0  0  0  0  0
  160.3200  207.0270  156.1860 C   0  0  0  0  0  3  0  0  0  0  0  0
  161.2310  204.2640  149.2070 C   0  0  0  0  0  2  0  0  0  0  0  0
  160.5140  205.5810  146.6960 C   0  0  1  0  0  3  0  0  0  0  0  0
  161.0220  211.7450  151.8880 C   0  0  0  0  0  3  0  0  0  0  0  0
  161.1110  210.3560  151.6820 C   0  0  0  0  0  0  0  0  0  0  0  0
  160.6120  210.0370  154.1280 C   0  0  0  0  0  2  0  0  0  0  0  0
  161.4410  206.1000  150.9110 C   0  0  0  0  0  2  0  0  0  0  0  0
  160.8330  205.8490  153.5220 O   0  0  0  0  0  0  0  0  0  0  0  0
  160.0160  210.4370  157.2590 C   0  0  0  0  0  1  0  0  0  0  0  0
  161.0070  208.0460  152.5140 C   0  0  0  0  0  0  0  0  0  0  0  0
  160.4550  209.0030  155.1910 C   0  0  0  0  0  0  0  0  0  0  0  0
  160.1310  205.8920  145.2640 C   0  0  0  0  0  2  0  0  0  0  0  0
  160.7530  204.8960  144.3480 C   0  0  0  0  0  0  0  0  0  0  0  0
  160.4580  203.5460  144.4860 O   0  0  0  0  0  1  0  0  0  0  0  0
  161.5720  205.2740  143.4700 O   0  0  0  0  0  0  0  0  0  0  0  0
  1 10  1  0  0  0  0
  1 16  1  1  0  0  0
  2 27  1  0  0  0  0
  3  4  1  0  0  0  0
  4 21  2  0  0  0  0
  5  6  1  0  0  0  0
  6 28  1  0  0  0  0
  6 18  2  0  0  0  0
  7 19  1  1  0  0  0
  7 24  1  0  0  0  0
  8 12  1  0  0  0  0
  9 15  1  0  0  0  0
  9 26  1  0  0  0  0
 10 17  1  0  0  0  0
 11  3  2  0  0  0  0
 11 13  1  0  0  0  0
 12 13  1  0  0  0  0
 12  2  2  0  0  0  0
 13 22  2  0  0  0  0
 14 23  1  0  0  0  0
 16 19  1  0  0  0  0
 17  8  1  0  0  0  0
 17  7  1  0  0  0  0
 18 15  1  0  0  0  0
 20  1  1  0  0  0  0
 20 10  1  0  0  0  0
 22 21  1  0  0  0  0
 22 14  1  0  0  0  0
 23 28  1  0  0  0  0
 24  2  1  0  0  0  0
 25  5  2  0  0  0  0
 27 14  2  0  0  0  0
 27  5  1  0  0  0  0
 28  9  2  0  0  0  0
 29 20  1  0  0  0  0
 30 31  1  0  0  0  0
 30 29  1  0  0  0  0
 32 30  2  0  0  0  0
M  END
>  <MODEL>
5

>  <REMARK>
 VINA RESULT:      -7.9      2.255      7.993
  Name = 
  2 active torsions:
  status: ('A' for Active; 'I' for Inactive)
    1  A    between atoms: C_20  and  C_29
    2  A    between atoms: C_29  and  C_30
                            x       y       z     vdW  Elec       q    Type
                         _______ _______ _______ _____ _____    ______ ____

>  <TORSDO>
F 2

$$$$
=
 OpenBabel11122412543D

 32 38  0  0  1  0  0  0  0  0999 V2000
  161.2000  201.5600  149.0240 C   0  0  1  0  0  3  0  0  0  0  0  0
  161.2910  206.0770  151.7830 C   0  0  0  0  0  0  0  0  0  0  0  0
  162.1000  209.3450  148.2590 C   0  0  0  0  0  3  0  0  0  0  0  0
  161.9560  210.3830  149.1790 C   0  0  0  0  0  3  0  0  0  0  0  0
  160.8530  206.8350  154.1800 C   0  0  0  0  0  0  0  0  0  0  0  0
  160.7420  207.9610  155.0970 C   0  0  0  0  0  0  0  0  0  0  0  0
  160.7500  203.7350  151.0420 C   0  0  1  0  0  3  0  0  0  0  0  0
  161.7040  205.3300  149.4660 N   0  0  0  0  0  2  0  0  0  0  0  0
  160.7060  210.0170  155.8110 C   0  0  0  0  0  0  0  0  0  0  0  0
  161.4100  203.0270  148.6450 C   0  0  2  0  0  3  0  0  0  0  0  0
  161.9740  208.0210  148.6800 C   0  0  0  0  0  3  0  0  0  0  0  0
  161.5820  206.3860  150.4330 C   0  0  0  0  0  0  0  0  0  0  0  0
  161.7030  207.7180  150.0230 C   0  0  0  0  0  0  0  0  0  0  0  0
  161.2820  208.4810  152.3120 C   0  0  0  0  0  0  0  0  0  0  0  0
  160.4830  209.2360  156.8460 O   0  0  0  0  0  0  0  0  0  0  0  0
  161.3150  201.2730  150.5380 C   0  0  0  0  0  2  0  0  0  0  0  0
  161.7020  203.9280  149.8600 C   0  0  2  0  0  3  0  0  0  0  0  0
  160.4950  207.9730  156.4580 C   0  0  0  0  0  3  0  0  0  0  0  0
  160.6410  202.2760  151.4890 C   0  0  0  0  0  2  0  0  0  0  0  0
  160.0080  202.4250  148.6370 C   0  0  1  0  0  3  0  0  0  0  0  0
  161.6870  210.0960  150.5170 C   0  0  0  0  0  3  0  0  0  0  0  0
  161.5560  208.7670  150.9590 C   0  0  0  0  0  0  0  0  0  0  0  0
  161.1350  209.6580  153.2750 C   0  0  0  0  0  2  0  0  0  0  0  0
  161.2070  204.6230  152.1900 C   0  0  0  0  0  2  0  0  0  0  0  0
  160.6950  205.6640  154.6200 O   0  0  0  0  0  0  0  0  0  0  0  0
  160.7580  211.5030  155.8770 C   0  0  0  0  0  1  0  0  0  0  0  0
  161.1470  207.1200  152.7380 C   0  0  0  0  0  0  0  0  0  0  0  0
  160.8760  209.2470  154.6850 C   0  0  0  0  0  0  0  0  0  0  0  0
  159.6070  202.1170  147.2090 C   0  0  0  0  0  2  0  0  0  0  0  0
  160.8230  201.9000  146.3790 C   0  0  0  0  0  0  0  0  0  0  0  0
  161.5150  202.9880  145.8620 O   0  0  0  0  0  0  0  0  0  0  0  0
  161.2070  200.7300  146.1190 O   0  0  0  0  0  1  0  0  0  0  0  0
  1 16  1  1  0  0  0
  2 24  1  0  0  0  0
  2 27  1  0  0  0  0
  3 11  2  0  0  0  0
  3  4  1  0  0  0  0
  4 21  2  0  0  0  0
  5 25  2  0  0  0  0
  5  6  1  0  0  0  0
  6 18  2  0  0  0  0
  7 19  1  1  0  0  0
  7 24  1  0  0  0  0
  8 17  1  0  0  0  0
  8 12  1  0  0  0  0
  9 26  1  0  0  0  0
  9 15  1  0  0  0  0
 10  1  1  0  0  0  0
 10 17  1  0  0  0  0
 11 13  1  0  0  0  0
 12  2  2  0  0  0  0
 13 12  1  0  0  0  0
 13 22  2  0  0  0  0
 14 27  2  0  0  0  0
 14 23  1  0  0  0  0
 16 19  1  0  0  0  0
 17  7  1  0  0  0  0
 18 15  1  0  0  0  0
 20 10  1  0  0  0  0
 20  1  1  0  0  0  0
 21 22  1  0  0  0  0
 22 14  1  0  0  0  0
 23 28  1  0  0  0  0
 27  5  1  0  0  0  0
 28  6  1  0  0  0  0
 28  9  2  0  0  0  0
 29 20  1  0  0  0  0
 30 29  1  0  0  0  0
 31 30  2  0  0  0  0
 32 30  1  0  0  0  0
M  END
>  <MODEL>
6

>  <REMARK>
 VINA RESULT:      -7.8      2.029      7.909
  Name = 
  2 active torsions:
  status: ('A' for Active; 'I' for Inactive)
    1  A    between atoms: C_20  and  C_29
    2  A    between atoms: C_29  and  C_30
                            x       y       z     vdW  Elec       q    Type
                         _______ _______ _______ _____ _____    ______ ____

>  <TORSDO>
F 2

$$$$
