=
 OpenBabel11122413523D

 37 44  0  0  1  0  0  0  0  0999 V2000
  161.4100  209.8130  148.4260 C   0  0  0  0  0  2  0  0  0  0  0  0
  161.7020  205.8680  146.4540 C   0  0  0  0  0  0  0  0  0  0  0  0
  161.2490  205.7140  150.6580 C   0  0  0  0  0  0  0  0  0  0  0  0
  162.0180  211.1220  147.9110 C   0  0  2  0  0  3  0  0  0  0  0  0
  160.6860  208.9590  152.3710 C   0  0  0  0  0  3  0  0  0  0  0  0
  161.2510  204.5230  148.5180 C   0  0  1  0  0  3  0  0  0  0  0  0
  161.3800  207.0190  150.9530 C   0  0  2  0  0  3  0  0  0  0  0  0
  161.2760  212.0060  150.1350 C   0  0  0  0  0  0  0  0  0  0  0  0
  161.5810  205.5500  149.2740 C   0  0  0  0  0  0  0  0  0  0  0  0
  160.9700  207.6440  152.2710 C   0  0  0  0  0  0  0  0  0  0  0  0
  160.5300  203.3560  149.1390 C   0  0  0  0  0  2  0  0  0  0  0  0
  162.2690  212.1420  149.0230 C   0  0  0  0  0  2  0  0  0  0  0  0
  162.0300  206.7900  148.7500 C   0  0  0  0  0  0  0  0  0  0  0  0
  160.3570  206.4420  146.0460 C   0  0  0  0  0  1  0  0  0  0  0  0
  161.2100  204.3710  152.8280 C   0  0  0  0  0  2  0  0  0  0  0  0
  160.7640  203.2570  150.6660 C   0  0  0  0  0  2  0  0  0  0  0  0
  162.4490  206.9140  147.3200 C   0  0  0  0  0  2  0  0  0  0  0  0
  161.5600  211.0800  151.2800 C   0  0  1  0  0  3  0  0  0  0  0  0
  160.7990  209.8450  151.1930 C   0  0  1  0  0  3  0  0  0  0  0  0
  160.6050  204.5910  151.4360 C   0  0  2  0  0  3  0  0  0  0  0  0
  161.9230  207.7020  149.7130 C   0  0  0  0  0  0  0  0  0  0  0  0
  161.4880  204.6100  147.1360 O   0  0  0  0  0  0  0  0  0  0  0  0
  160.7620  206.7620  153.4930 C   0  0  1  0  0  3  0  0  0  0  0  0
  162.5090  205.6140  145.1980 C   0  0  0  0  0  1  0  0  0  0  0  0
  162.2410  209.8240  150.8650 N   0  0  1  0  0  0  0  0  0  0  0  0
  160.2360  212.6450  150.1070 O   0  0  0  0  0  0  0  0  0  0  0  0
  162.2580  209.1710  149.5390 C   0  0  2  0  0  3  0  0  0  0  0  0
  161.7590  205.6120  153.5220 C   0  0  0  0  0  2  0  0  0  0  0  0
  160.0490  207.0220  155.8810 C   0  0  0  0  0  3  0  0  0  0  0  0
  160.8050  207.4990  154.8050 C   0  0  0  0  0  0  0  0  0  0  0  0
  161.5810  208.6580  154.9640 C   0  0  0  0  0  3  0  0  0  0  0  0
  162.5640  210.7760  156.3810 Cl  0  0  0  0  0  0  0  0  0  0  0  0
  160.8400  208.8490  157.2600 C   0  0  0  0  0  3  0  0  0  0  0  0
  161.5960  209.3300  156.1890 C   0  0  0  0  0  0  0  0  0  0  0  0
  160.0650  207.6950  157.1060 C   0  0  0  0  0  3  0  0  0  0  0  0
  161.5520  213.1520  146.5380 C   0  0  0  0  0  1  0  0  0  0  0  0
  161.1160  211.7330  146.8510 C   0  0  0  0  0  2  0  0  0  0  0  0
  1 27  1  0  0  0  0
  2 22  1  0  0  0  0
  2 17  1  0  0  0  0
  3  7  1  0  0  0  0
  3 20  1  0  0  0  0
  4 37  1  6  0  0  0
  4  1  1  0  0  0  0
  4 12  1  0  0  0  0
  6 11  1  6  0  0  0
  6  9  1  0  0  0  0
  7 21  1  6  0  0  0
  7 10  1  0  0  0  0
  9  3  2  0  0  0  0
 10  5  2  0  0  0  0
 10 23  1  0  0  0  0
 11 16  1  0  0  0  0
 12  8  1  0  0  0  0
 13  9  1  0  0  0  0
 13 21  2  0  0  0  0
 14  2  1  0  0  0  0
 15 28  1  0  0  0  0
 17 13  1  0  0  0  0
 18  8  1  6  0  0  0
 19 18  1  0  0  0  0
 19  5  1  1  0  0  0
 20 16  1  6  0  0  0
 20 15  1  0  0  0  0
 22  6  1  0  0  0  0
 23 28  1  0  0  0  0
 23 30  1  1  0  0  0
 24  2  1  0  0  0  0
 25 19  1  0  0  0  0
 25 18  1  0  0  0  0
 26  8  2  0  0  0  0
 27 21  1  0  0  0  0
 27 25  1  0  0  0  0
 29 35  1  0  0  0  0
 30 31  1  0  0  0  0
 30 29  2  0  0  0  0
 31 34  2  0  0  0  0
 34 32  1  0  0  0  0
 34 33  1  0  0  0  0
 35 33  2  0  0  0  0
 36 37  1  0  0  0  0
M  END
>  <MODEL>
1

>  <REMARK>
 VINA RESULT:      -9.6      0.000      0.000
  Name = 
  2 active torsions:
  status: ('A' for Active; 'I' for Inactive)
    1  A    between atoms: C_4  and  C_37
    2  A    between atoms: C_23  and  C_30
                            x       y       z     vdW  Elec       q    Type
                         _______ _______ _______ _____ _____    ______ ____

>  <TORSDO>
F 2

$$$$
=
 OpenBabel11122413523D

 37 44  0  0  1  0  0  0  0  0999 V2000
  161.2160  210.2520  148.3700 C   0  0  0  0  0  2  0  0  0  0  0  0
  161.7230  206.0870  146.9770 C   0  0  0  0  0  0  0  0  0  0  0  0
  161.2620  206.5080  151.1610 C   0  0  0  0  0  0  0  0  0  0  0  0
  161.7560  211.5040  147.6720 C   0  0  2  0  0  3  0  0  0  0  0  0
  160.5220  209.9280  152.3990 C   0  0  0  0  0  3  0  0  0  0  0  0
  161.3360  205.0280  149.2120 C   0  0  1  0  0  3  0  0  0  0  0  0
  161.3230  207.8460  151.2680 C   0  0  2  0  0  3  0  0  0  0  0  0
  160.9590  212.6540  149.7520 C   0  0  0  0  0  0  0  0  0  0  0  0
  161.6080  206.1670  149.8140 C   0  0  0  0  0  0  0  0  0  0  0  0
  160.8760  208.6290  152.4850 C   0  0  0  0  0  0  0  0  0  0  0  0
  160.6750  203.9230  149.9950 C   0  0  0  0  0  2  0  0  0  0  0  0
  161.9480  212.6840  148.6280 C   0  0  0  0  0  2  0  0  0  0  0  0
  161.9930  207.3420  149.1180 C   0  0  0  0  0  0  0  0  0  0  0  0
  160.3510  206.5260  146.4960 C   0  0  0  0  0  1  0  0  0  0  0  0
  161.2860  205.4860  153.5000 C   0  0  0  0  0  2  0  0  0  0  0  0
  160.9080  204.0540  151.5190 C   0  0  0  0  0  2  0  0  0  0  0  0
  162.4100  207.2840  147.6830 C   0  0  0  0  0  2  0  0  0  0  0  0
  161.2870  211.9170  151.0150 C   0  0  1  0  0  3  0  0  0  0  0  0
  160.5930  210.6430  151.1070 C   0  0  1  0  0  3  0  0  0  0  0  0
  160.6750  205.4740  152.0930 C   0  0  2  0  0  3  0  0  0  0  0  0
  161.8350  208.3740  149.9420 C   0  0  0  0  0  0  0  0  0  0  0  0
  161.5740  204.9290  147.8310 O   0  0  0  0  0  0  0  0  0  0  0  0
  160.7100  207.9200  153.8210 C   0  0  1  0  0  3  0  0  0  0  0  0
  162.5480  205.7010  145.7670 C   0  0  0  0  0  1  0  0  0  0  0  0
  162.0350  210.6520  150.7800 N   0  0  1  0  0  0  0  0  0  0  0  0
  159.8870  213.2270  149.6370 O   0  0  0  0  0  0  0  0  0  0  0  0
  162.0920  209.8200  149.5600 C   0  0  2  0  0  3  0  0  0  0  0  0
  161.7660  206.8400  154.0090 C   0  0  0  0  0  2  0  0  0  0  0  0
  161.8410  208.8890  155.8360 C   0  0  0  0  0  3  0  0  0  0  0  0
  160.7090  208.8370  155.0150 C   0  0  0  0  0  0  0  0  0  0  0  0
  159.5910  209.6280  155.3250 C   0  0  0  0  0  3  0  0  0  0  0  0
  158.2150  211.4470  156.8270 Cl  0  0  0  0  0  0  0  0  0  0  0  0
  160.7450  210.5130  157.2600 C   0  0  0  0  0  3  0  0  0  0  0  0
  159.6110  210.4630  156.4450 C   0  0  0  0  0  0  0  0  0  0  0  0
  161.8600  209.7260  156.9560 C   0  0  0  0  0  3  0  0  0  0  0  0
  161.3650  213.1370  145.8260 C   0  0  0  0  0  1  0  0  0  0  0  0
  160.8260  211.9110  146.5400 C   0  0  0  0  0  2  0  0  0  0  0  0
  1 27  1  0  0  0  0
  2 17  1  0  0  0  0
  2 22  1  0  0  0  0
  3  7  1  0  0  0  0
  3 20  1  0  0  0  0
  4 37  1  6  0  0  0
  4  1  1  0  0  0  0
  4 12  1  0  0  0  0
  5 10  2  0  0  0  0
  6  9  1  0  0  0  0
  6 11  1  6  0  0  0
  7 21  1  6  0  0  0
  7 10  1  0  0  0  0
  9  3  2  0  0  0  0
 10 23  1  0  0  0  0
 11 16  1  0  0  0  0
 12  8  1  0  0  0  0
 13  9  1  0  0  0  0
 13 21  2  0  0  0  0
 14  2  1  0  0  0  0
 15 28  1  0  0  0  0
 17 13  1  0  0  0  0
 18  8  1  6  0  0  0
 18 19  1  0  0  0  0
 19  5  1  1  0  0  0
 20 16  1  6  0  0  0
 20 15  1  0  0  0  0
 22  6  1  0  0  0  0
 23 28  1  0  0  0  0
 23 30  1  1  0  0  0
 24  2  1  0  0  0  0
 25 18  1  0  0  0  0
 25 19  1  0  0  0  0
 26  8  2  0  0  0  0
 27 21  1  0  0  0  0
 27 25  1  0  0  0  0
 29 35  1  0  0  0  0
 30 31  1  0  0  0  0
 30 29  2  0  0  0  0
 31 34  2  0  0  0  0
 34 32  1  0  0  0  0
 34 33  1  0  0  0  0
 35 33  2  0  0  0  0
 36 37  1  0  0  0  0
M  END
>  <MODEL>
2

>  <REMARK>
 VINA RESULT:      -8.6      1.185      1.383
  Name = 
  2 active torsions:
  status: ('A' for Active; 'I' for Inactive)
    1  A    between atoms: C_4  and  C_37
    2  A    between atoms: C_23  and  C_30
                            x       y       z     vdW  Elec       q    Type
                         _______ _______ _______ _____ _____    ______ ____

>  <TORSDO>
F 2

$$$$
