=
 OpenBabel11122414353D

 34 41  0  0  1  0  0  0  0  0999 V2000
  161.1550  208.3510  152.4090 C   0  0  2  0  0  3  0  0  0  0  0  0
  161.4750  205.9370  152.9960 C   0  0  0  0  0  2  0  0  0  0  0  0
  162.0710  213.6930  148.6820 C   0  0  1  0  0  3  0  0  0  0  0  0
  160.6970  210.6770  151.6320 C   0  0  1  0  0  3  0  0  0  0  0  0
  162.0300  211.4280  149.5160 C   0  0  2  0  0  3  0  0  0  0  0  0
  162.8510  212.5180  147.2820 C   0  0  0  0  0  2  0  0  0  0  0  0
  162.8990  213.8980  147.5700 O   0  0  0  0  0  0  0  0  0  0  0  0
  160.0740  214.1280  150.0590 C   0  0  0  0  0  2  0  0  0  0  0  0
  162.3000  206.7070  150.8390 N   0  0  2  0  0  0  0  0  0  0  0  0
  160.8260  205.0750  148.4380 C   0  0  0  0  0  2  0  0  0  0  0  0
  161.9160  209.9710  149.1570 C   0  0  0  0  0  3  0  0  0  0  0  0
  159.8160  212.6240  150.2930 C   0  0  0  0  0  2  0  0  0  0  0  0
  161.6610  207.5610  149.7990 C   0  0  1  0  0  3  0  0  0  0  0  0
  161.8540  204.7440  152.1730 C   0  0  0  0  0  2  0  0  0  0  0  0
  161.0890  211.8410  150.7050 C   0  0  1  0  0  3  0  0  0  0  0  0
  160.7640  214.4530  148.7220 C   0  0  0  0  0  2  0  0  0  0  0  0
  160.6280  204.9990  149.9610 C   0  0  2  0  0  3  0  0  0  0  0  0
  161.6720  209.4920  151.5410 C   0  0  2  0  0  3  0  0  0  0  0  0
  161.7650  212.2860  148.2960 C   0  0  2  0  0  3  0  0  0  0  0  0
  161.8070  209.0380  150.1170 C   0  0  0  0  0  0  0  0  0  0  0  0
  160.1510  210.0130  153.9880 C   0  0  0  0  0  2  0  0  0  0  0  0
  162.1280  205.7540  148.0110 C   0  0  0  0  0  2  0  0  0  0  0  0
  160.6020  211.1560  153.0800 C   0  0  0  0  0  2  0  0  0  0  0  0
  162.1810  207.2350  148.3850 C   0  0  0  0  0  2  0  0  0  0  0  0
  161.9340  205.2720  150.7550 C   0  0  1  0  0  3  0  0  0  0  0  0
  161.0960  208.8190  153.8640 C   0  0  0  0  0  2  0  0  0  0  0  0
  162.0540  207.1190  152.2450 C   0  0  1  0  0  3  0  0  0  0  0  0
  160.0880  203.7500  150.2840 O   0  0  0  0  0  0  0  0  0  0  0  0
  161.0760  202.8290  149.9260 C   0  0  0  0  0  2  0  0  0  0  0  0
  160.7960  201.4840  146.9680 O   0  0  0  0  0  0  0  0  0  0  0  0
  161.4880  200.5630  149.0260 C   0  0  0  0  0  2  0  0  0  0  0  0
  160.4370  201.5970  149.3070 C   0  0  2  0  0  3  0  0  0  0  0  0
  161.4020  200.3540  147.5340 C   0  0  0  0  0  2  0  0  0  0  0  0
  159.8950  201.9430  147.9400 C   0  0  0  0  0  2  0  0  0  0  0  0
  1 26  1  1  0  0  0
  3 16  1  6  0  0  0
  4 23  1  1  0  0  0
  5 11  1  6  0  0  0
  5 15  1  0  0  0  0
  6  7  1  0  0  0  0
  6 19  1  0  0  0  0
  7  3  1  0  0  0  0
  8 12  1  0  0  0  0
  9 27  1  0  0  0  0
 10 17  1  0  0  0  0
 11 20  2  0  0  0  0
 12 15  1  0  0  0  0
 13 20  1  0  0  0  0
 13  9  1  0  0  0  0
 14  2  1  0  0  0  0
 15  4  1  0  0  0  0
 16  8  1  0  0  0  0
 17 28  1  0  0  0  0
 17 25  1  0  0  0  0
 18  4  1  0  0  0  0
 18  1  1  0  0  0  0
 19  3  1  0  0  0  0
 19  5  1  0  0  0  0
 20 18  1  0  0  0  0
 22 24  1  0  0  0  0
 22 10  1  0  0  0  0
 23 21  1  0  0  0  0
 24 13  1  0  0  0  0
 25  9  1  0  0  0  0
 25 14  1  0  0  0  0
 26 21  1  0  0  0  0
 27  1  1  0  0  0  0
 27  2  1  0  0  0  0
 29 28  1  0  0  0  0
 30 33  1  0  0  0  0
 30 34  1  0  0  0  0
 31 32  1  0  0  0  0
 32 29  1  0  0  0  0
 33 31  1  0  0  0  0
 34 32  1  0  0  0  0
M  END
>  <MODEL>
1

>  <REMARK>
 VINA RESULT:      -8.3      0.000      0.000
  Name = 
  3 active torsions:
  status: ('A' for Active; 'I' for Inactive)
    1  A    between atoms: C_17  and  O_28
    2  A    between atoms: O_28  and  C_29
    3  A    between atoms: C_29  and  C_32
                            x       y       z     vdW  Elec       q    Type
                         _______ _______ _______ _____ _____    ______ ____

>  <TORSDO>
F 3

$$$$
=
 OpenBabel11122414353D

 34 41  0  0  1  0  0  0  0  0999 V2000
  161.6920  209.2870  152.0510 C   0  0  2  0  0  3  0  0  0  0  0  0
  161.7800  211.0970  153.7800 C   0  0  0  0  0  2  0  0  0  0  0  0
  161.6460  203.0180  150.0610 C   0  0  1  0  0  3  0  0  0  0  0  0
  161.3760  207.4320  150.4130 C   0  0  1  0  0  3  0  0  0  0  0  0
  161.5830  205.0250  151.4010 C   0  0  2  0  0  3  0  0  0  0  0  0
  161.3670  202.4750  151.9520 C   0  0  0  0  0  2  0  0  0  0  0  0
  161.8250  201.8300  150.7830 O   0  0  0  0  0  0  0  0  0  0  0  0
  160.7430  204.3560  148.1980 C   0  0  0  0  0  2  0  0  0  0  0  0
  161.5430  208.7970  154.5440 N   0  0  2  0  0  0  0  0  0  0  0  0
  158.7740  208.4630  156.2230 C   0  0  0  0  0  2  0  0  0  0  0  0
  161.0190  205.6830  152.6310 C   0  0  0  0  0  3  0  0  0  0  0  0
  160.3460  205.5210  149.1290 C   0  0  0  0  0  2  0  0  0  0  0  0
  160.6510  207.7010  154.0730 C   0  0  1  0  0  3  0  0  0  0  0  0
  161.4500  211.1070  155.2420 C   0  0  0  0  0  2  0  0  0  0  0  0
  161.4690  205.9250  150.1180 C   0  0  1  0  0  3  0  0  0  0  0  0
  160.7160  202.9710  148.8690 C   0  0  0  0  0  2  0  0  0  0  0  0
  159.3570  209.6880  155.4990 C   0  0  2  0  0  3  0  0  0  0  0  0
  161.9170  207.8000  151.8040 C   0  0  2  0  0  3  0  0  0  0  0  0
  160.9170  203.6830  151.1780 C   0  0  2  0  0  3  0  0  0  0  0  0
  161.2260  206.9900  152.8610 C   0  0  0  0  0  0  0  0  0  0  0  0
  161.9680  209.7320  149.6030 C   0  0  0  0  0  2  0  0  0  0  0  0
  159.7890  207.3500  156.4850 C   0  0  0  0  0  2  0  0  0  0  0  0
  162.1180  208.2330  149.3430 C   0  0  0  0  0  2  0  0  0  0  0  0
  160.3150  206.7060  155.2020 C   0  0  0  0  0  2  0  0  0  0  0  0
  160.9090  209.7190  155.5180 C   0  0  1  0  0  3  0  0  0  0  0  0
  162.4660  210.0890  151.0030 C   0  0  0  0  0  2  0  0  0  0  0  0
  162.1230  209.6530  153.4770 C   0  0  1  0  0  3  0  0  0  0  0  0
  158.8180  210.8470  156.0670 O   0  0  0  0  0  0  0  0  0  0  0  0
  157.5400  210.9560  155.5120 C   0  0  0  0  0  2  0  0  0  0  0  0
  156.1460  213.8900  155.2220 O   0  0  0  0  0  0  0  0  0  0  0  0
  158.3900  213.2120  154.9650 C   0  0  0  0  0  2  0  0  0  0  0  0
  157.5080  212.0900  154.5020 C   0  0  2  0  0  3  0  0  0  0  0  0
  157.4490  214.3860  155.0890 C   0  0  0  0  0  2  0  0  0  0  0  0
  156.1270  212.7020  154.4750 C   0  0  0  0  0  2  0  0  0  0  0  0
  1 26  1  6  0  0  0
  1 27  1  0  0  0  0
  2 14  1  0  0  0  0
  3 16  1  6  0  0  0
  3  7  1  0  0  0  0
  3 19  1  0  0  0  0
  4 23  1  6  0  0  0
  4 18  1  0  0  0  0
  5 11  1  1  0  0  0
  7  6  1  0  0  0  0
  8 16  1  0  0  0  0
  8 12  1  0  0  0  0
  9 25  1  0  0  0  0
 10 22  1  0  0  0  0
 11 20  2  0  0  0  0
 12 15  1  0  0  0  0
 13  9  1  0  0  0  0
 13 24  1  0  0  0  0
 14 25  1  0  0  0  0
 15  4  1  0  0  0  0
 15  5  1  0  0  0  0
 17 25  1  0  0  0  0
 17 28  1  0  0  0  0
 17 10  1  0  0  0  0
 18  1  1  0  0  0  0
 18 20  1  0  0  0  0
 19  5  1  0  0  0  0
 19  6  1  0  0  0  0
 20 13  1  0  0  0  0
 21 26  1  0  0  0  0
 23 21  1  0  0  0  0
 24 22  1  0  0  0  0
 27  2  1  0  0  0  0
 27  9  1  0  0  0  0
 29 28  1  0  0  0  0
 31 33  1  0  0  0  0
 32 31  1  0  0  0  0
 32 29  1  0  0  0  0
 33 30  1  0  0  0  0
 34 32  1  0  0  0  0
 34 30  1  0  0  0  0
M  END
>  <MODEL>
2

>  <REMARK>
 VINA RESULT:      -8.1      3.240      8.783
  Name = 
  3 active torsions:
  status: ('A' for Active; 'I' for Inactive)
    1  A    between atoms: C_17  and  O_28
    2  A    between atoms: O_28  and  C_29
    3  A    between atoms: C_29  and  C_32
                            x       y       z     vdW  Elec       q    Type
                         _______ _______ _______ _____ _____    ______ ____

>  <TORSDO>
F 3

$$$$
=
 OpenBabel11122414353D

 34 41  0  0  1  0  0  0  0  0999 V2000
  160.8280  207.3010  153.8470 C   0  0  2  0  0  3  0  0  0  0  0  0
  161.8260  205.0480  153.3980 C   0  0  0  0  0  2  0  0  0  0  0  0
  159.6740  213.6290  152.4740 C   0  0  1  0  0  3  0  0  0  0  0  0
  159.6820  209.5020  154.1020 C   0  0  1  0  0  3  0  0  0  0  0  0
  160.3440  211.3140  152.3420 C   0  0  2  0  0  3  0  0  0  0  0  0
  160.4140  213.3150  150.6570 C   0  0  0  0  0  2  0  0  0  0  0  0
  160.1880  214.4520  151.4620 O   0  0  0  0  0  0  0  0  0  0  0  0
  157.9500  212.9330  154.0920 C   0  0  0  0  0  2  0  0  0  0  0  0
  161.9930  206.7400  151.6540 N   0  0  2  0  0  0  0  0  0  0  0  0
  160.4980  205.7050  148.9540 C   0  0  0  0  0  2  0  0  0  0  0  0
  160.5110  210.1150  151.4480 C   0  0  0  0  0  3  0  0  0  0  0  0
  158.1110  211.4400  153.7340 C   0  0  0  0  0  2  0  0  0  0  0  0
  160.9730  207.6750  151.1030 C   0  0  1  0  0  3  0  0  0  0  0  0
  162.3060  204.3940  152.1370 C   0  0  0  0  0  2  0  0  0  0  0  0
  159.5900  210.9790  153.6800 C   0  0  1  0  0  3  0  0  0  0  0  0
  158.2600  213.9000  152.9350 C   0  0  0  0  0  2  0  0  0  0  0  0
  160.6350  205.0390  150.3330 C   0  0  2  0  0  3  0  0  0  0  0  0
  160.8730  208.7740  153.4580 C   0  0  2  0  0  3  0  0  0  0  0  0
  159.6420  212.4280  151.5930 C   0  0  2  0  0  3  0  0  0  0  0  0
  160.8230  208.9160  151.9650 C   0  0  0  0  0  0  0  0  0  0  0  0
  159.7960  207.9160  156.0430 C   0  0  0  0  0  2  0  0  0  0  0  0
  161.4880  206.8450  148.7100 C   0  0  0  0  0  2  0  0  0  0  0  0
  159.7690  209.3860  155.6240 C   0  0  0  0  0  2  0  0  0  0  0  0
  161.2610  208.0410  149.6340 C   0  0  0  0  0  2  0  0  0  0  0  0
  161.9700  205.3890  151.0440 C   0  0  1  0  0  3  0  0  0  0  0  0
  160.9540  207.1830  155.3670 C   0  0  0  0  0  2  0  0  0  0  0  0
  161.9430  206.5340  153.1250 C   0  0  1  0  0  3  0  0  0  0  0  0
  160.4850  203.6570  150.1840 O   0  0  0  0  0  0  0  0  0  0  0  0
  160.8390  203.3990  148.8570 C   0  0  0  0  0  2  0  0  0  0  0  0
  161.5790  201.0290  146.7420 O   0  0  0  0  0  0  0  0  0  0  0  0
  161.0350  200.9410  149.0360 C   0  0  0  0  0  2  0  0  0  0  0  0
  160.2600  202.0660  148.4150 C   0  0  2  0  0  3  0  0  0  0  0  0
  161.5710  200.1740  147.8510 C   0  0  0  0  0  2  0  0  0  0  0  0
  160.4840  201.8860  146.9320 C   0  0  0  0  0  2  0  0  0  0  0  0
  1 26  1  1  0  0  0
  3 16  1  6  0  0  0
  4 23  1  1  0  0  0
  5 11  1  6  0  0  0
  5 15  1  0  0  0  0
  6  7  1  0  0  0  0
  6 19  1  0  0  0  0
  7  3  1  0  0  0  0
  9 27  1  0  0  0  0
 10 17  1  0  0  0  0
 11 20  2  0  0  0  0
 12  8  1  0  0  0  0
 13  9  1  0  0  0  0
 13 20  1  0  0  0  0
 14  2  1  0  0  0  0
 15 12  1  0  0  0  0
 15  4  1  0  0  0  0
 16  8  1  0  0  0  0
 17 25  1  0  0  0  0
 18  1  1  0  0  0  0
 18  4  1  0  0  0  0
 19  5  1  0  0  0  0
 19  3  1  0  0  0  0
 20 18  1  0  0  0  0
 22 10  1  0  0  0  0
 22 24  1  0  0  0  0
 23 21  1  0  0  0  0
 24 13  1  0  0  0  0
 25  9  1  0  0  0  0
 25 14  1  0  0  0  0
 26 21  1  0  0  0  0
 27  2  1  0  0  0  0
 27  1  1  0  0  0  0
 28 17  1  0  0  0  0
 29 28  1  0  0  0  0
 30 34  1  0  0  0  0
 30 33  1  0  0  0  0
 32 29  1  0  0  0  0
 32 31  1  0  0  0  0
 33 31  1  0  0  0  0
 34 32  1  0  0  0  0
M  END
>  <MODEL>
3

>  <REMARK>
 VINA RESULT:      -7.6      1.665      2.607
  Name = 
  3 active torsions:
  status: ('A' for Active; 'I' for Inactive)
    1  A    between atoms: C_17  and  O_28
    2  A    between atoms: O_28  and  C_29
    3  A    between atoms: C_29  and  C_32
                            x       y       z     vdW  Elec       q    Type
                         _______ _______ _______ _____ _____    ______ ____

>  <TORSDO>
F 3

$$$$
=
 OpenBabel11122414353D

 34 41  0  0  1  0  0  0  0  0999 V2000
  160.8270  207.0650  154.1080 C   0  0  2  0  0  3  0  0  0  0  0  0
  162.0660  205.1050  153.1600 C   0  0  0  0  0  2  0  0  0  0  0  0
  158.9450  213.3660  154.2230 C   0  0  1  0  0  3  0  0  0  0  0  0
  159.4440  209.0030  154.8520 C   0  0  1  0  0  3  0  0  0  0  0  0
  159.8690  211.2350  153.5670 C   0  0  2  0  0  3  0  0  0  0  0  0
  159.6860  213.5670  152.3900 C   0  0  0  0  0  2  0  0  0  0  0  0
  159.3470  214.4530  153.4340 O   0  0  0  0  0  0  0  0  0  0  0  0
  157.3360  212.1250  155.6170 C   0  0  0  0  0  2  0  0  0  0  0  0
  162.0130  207.1620  151.8580 N   0  0  2  0  0  0  0  0  0  0  0  0
  160.6030  206.6150  148.9740 C   0  0  0  0  0  2  0  0  0  0  0  0
  160.1560  210.3030  152.4210 C   0  0  0  0  0  3  0  0  0  0  0  0
  157.6590  210.7830  154.9250 C   0  0  0  0  0  2  0  0  0  0  0  0
  160.8850  208.0770  151.5270 C   0  0  1  0  0  3  0  0  0  0  0  0
  162.5960  204.8190  151.7880 C   0  0  0  0  0  2  0  0  0  0  0  0
  159.1790  210.5180  154.7830 C   0  0  1  0  0  3  0  0  0  0  0  0
  157.5160  213.3610  154.7180 C   0  0  0  0  0  2  0  0  0  0  0  0
  160.8360  205.6690  150.1640 C   0  0  2  0  0  3  0  0  0  0  0  0
  160.6990  208.5830  154.0710 C   0  0  2  0  0  3  0  0  0  0  0  0
  159.0340  212.4050  153.0880 C   0  0  2  0  0  3  0  0  0  0  0  0
  160.6100  209.0600  152.6500 C   0  0  0  0  0  0  0  0  0  0  0  0
  159.7660  207.0350  156.3750 C   0  0  0  0  0  2  0  0  0  0  0  0
  161.4530  207.8860  149.0120 C   0  0  0  0  0  2  0  0  0  0  0  0
  159.5680  208.5490  156.3070 C   0  0  0  0  0  2  0  0  0  0  0  0
  161.1070  208.8030  150.1850 C   0  0  0  0  0  2  0  0  0  0  0  0
  162.1330  205.9940  150.9510 C   0  0  1  0  0  3  0  0  0  0  0  0
  160.9890  206.6140  155.5600 C   0  0  0  0  0  2  0  0  0  0  0  0
  162.0100  206.6170  153.2400 C   0  0  1  0  0  3  0  0  0  0  0  0
  160.8400  204.3510  149.6980 O   0  0  0  0  0  0  0  0  0  0  0  0
  160.8070  204.4640  148.3050 C   0  0  0  0  0  2  0  0  0  0  0  0
  160.1610  201.6480  146.7910 O   0  0  0  0  0  0  0  0  0  0  0  0
  161.5550  203.4490  146.1780 C   0  0  0  0  0  2  0  0  0  0  0  0
  161.5860  203.3220  147.6730 C   0  0  2  0  0  3  0  0  0  0  0  0
  160.8980  202.1700  145.7200 C   0  0  0  0  0  2  0  0  0  0  0  0
  160.8750  202.0170  147.9410 C   0  0  0  0  0  2  0  0  0  0  0  0
  1 26  1  1  0  0  0
  2 27  1  0  0  0  0
  3 16  1  6  0  0  0
  4 23  1  1  0  0  0
  5 11  1  6  0  0  0
  5 15  1  0  0  0  0
  6 19  1  0  0  0  0
  6  7  1  0  0  0  0
  7  3  1  0  0  0  0
  9 27  1  0  0  0  0
 10 22  1  0  0  0  0
 10 17  1  0  0  0  0
 11 20  2  0  0  0  0
 12  8  1  0  0  0  0
 13  9  1  0  0  0  0
 13 20  1  0  0  0  0
 14  2  1  0  0  0  0
 15  4  1  0  0  0  0
 15 12  1  0  0  0  0
 16  8  1  0  0  0  0
 17 25  1  0  0  0  0
 18  1  1  0  0  0  0
 18  4  1  0  0  0  0
 19  5  1  0  0  0  0
 19  3  1  0  0  0  0
 20 18  1  0  0  0  0
 22 24  1  0  0  0  0
 23 21  1  0  0  0  0
 24 13  1  0  0  0  0
 25 14  1  0  0  0  0
 25  9  1  0  0  0  0
 26 21  1  0  0  0  0
 27  1  1  0  0  0  0
 28 17  1  0  0  0  0
 29 28  1  0  0  0  0
 30 34  1  0  0  0  0
 31 32  1  0  0  0  0
 32 34  1  0  0  0  0
 32 29  1  0  0  0  0
 33 31  1  0  0  0  0
 33 30  1  0  0  0  0
M  END
>  <MODEL>
4

>  <REMARK>
 VINA RESULT:      -7.1      2.349      3.724
  Name = 
  3 active torsions:
  status: ('A' for Active; 'I' for Inactive)
    1  A    between atoms: C_17  and  O_28
    2  A    between atoms: O_28  and  C_29
    3  A    between atoms: C_29  and  C_32
                            x       y       z     vdW  Elec       q    Type
                         _______ _______ _______ _____ _____    ______ ____

>  <TORSDO>
F 3

$$$$
