=
 OpenBabel11122412453D

 30 35  0  0  1  0  0  0  0  0999 V2000
  161.4770  205.7600  149.7670 C   0  0  2  0  0  3  0  0  0  0  0  0
  160.9310  203.3230  149.3900 C   0  0  0  0  0  0  0  0  0  0  0  0
  161.1620  205.2130  153.8490 O   0  0  0  0  0  0  0  0  0  0  0  0
  161.4400  206.9100  150.7760 C   0  0  2  0  0  3  0  0  0  0  0  0
  160.7580  206.1650  148.6240 O   0  0  0  0  0  0  0  0  0  0  0  0
  162.3500  209.3720  148.1070 O   0  0  0  0  0  1  0  0  0  0  0  0
  160.8680  209.6420  151.8790 C   0  0  1  0  0  3  0  0  0  0  0  0
  161.5450  208.4410  148.7670 C   0  0  1  0  0  3  0  0  0  0  0  0
  160.3520  208.4950  152.7760 C   0  0  2  0  0  3  0  0  0  0  0  0
  160.9450  206.5130  154.2430 C   0  0  0  0  0  0  0  0  0  0  0  0
  161.5280  207.1360  147.9580 C   0  0  2  0  0  3  0  0  0  0  0  0
  162.1240  208.1400  150.1600 C   0  0  1  0  0  3  0  0  0  0  0  0
  160.9650  202.0270  149.9090 O   0  0  0  0  0  0  0  0  0  0  0  0
  159.5870  209.1490  153.9110 C   0  0  0  0  0  2  0  0  0  0  0  0
  161.0360  211.1580  152.8900 S   0  0  0  0  0  0  0  0  0  0  0  0
  160.9760  203.4870  148.1410 O   0  0  0  0  0  0  0  0  0  0  0  0
  161.9180  205.1510  152.6560 C   0  0  2  0  0  3  0  0  0  0  0  0
  160.6770  201.7860  151.2830 C   0  0  0  0  0  2  0  0  0  0  0  0
  160.8090  204.5040  150.3360 C   0  0  1  0  0  3  0  0  0  0  0  0
  162.0470  206.6070  152.1540 C   0  0  2  0  0  3  0  0  0  0  0  0
  160.4220  206.7990  155.3510 O   0  0  0  0  0  0  0  0  0  0  0  0
  161.4590  207.5190  153.2740 C   0  0  1  0  0  3  0  0  0  0  0  0
  160.3920  210.3370  154.3710 C   0  0  0  0  0  2  0  0  0  0  0  0
  162.6770  210.4880  150.5010 O   0  0  0  0  0  1  0  0  0  0  0  0
  161.2900  202.8580  152.1340 C   0  0  0  0  0  3  0  0  0  0  0  0
  161.3430  204.1330  151.7090 C   0  0  0  0  0  0  0  0  0  0  0  0
  162.1780  209.3440  151.1290 C   0  0  1  0  0  3  0  0  0  0  0  0
  160.9390  207.3800  146.5780 C   0  0  0  0  0  2  0  0  0  0  0  0
  162.2060  205.8150  145.5700 O   0  0  0  0  0  1  0  0  0  0  0  0
  160.9170  206.1390  145.8250 N   0  0  0  0  0  2  0  0  0  0  0  0
  1  5  1  6  0  0  0
  1 19  1  0  0  0  0
  1  4  1  0  0  0  0
  2 13  1  0  0  0  0
  2 19  1  0  0  0  0
  3 10  1  0  0  0  0
  4 20  1  0  0  0  0
  6  8  1  0  0  0  0
  7  9  1  0  0  0  0
  7 15  1  0  0  0  0
  8 12  1  0  0  0  0
  9 22  1  0  0  0  0
  9 14  1  0  0  0  0
 10 21  2  0  0  0  0
 11  5  1  0  0  0  0
 11  8  1  0  0  0  0
 12  4  1  0  0  0  0
 12 27  1  0  0  0  0
 13 18  1  0  0  0  0
 14 23  1  0  0  0  0
 15 23  1  0  0  0  0
 16  2  2  0  0  0  0
 17  3  1  0  0  0  0
 18 25  1  0  0  0  0
 19 26  1  0  0  0  0
 20 17  1  0  0  0  0
 20 22  1  0  0  0  0
 22 10  1  0  0  0  0
 24 27  1  0  0  0  0
 26 25  2  0  0  0  0
 26 17  1  0  0  0  0
 27  7  1  0  0  0  0
 28 11  1  0  0  0  0
 29 30  1  0  0  0  0
 30 28  1  0  0  0  0
M  END
>  <MODEL>
1

>  <REMARK>
 VINA RESULT:      -7.3      0.000      0.000
  Name = 
  2 active torsions:
  status: ('A' for Active; 'I' for Inactive)
    1  A    between atoms: C_11  and  C_28
    2  A    between atoms: C_28  and  N_30
                            x       y       z     vdW  Elec       q    Type
                         _______ _______ _______ _____ _____    ______ ____

>  <TORSDO>
F 2

$$$$
=
 OpenBabel11122412453D

 30 35  0  0  1  0  0  0  0  0999 V2000
  160.7040  210.6740  152.3930 C   0  0  2  0  0  3  0  0  0  0  0  0
  160.0740  212.9740  151.5640 C   0  0  0  0  0  0  0  0  0  0  0  0
  161.9680  209.6370  148.5990 O   0  0  0  0  0  0  0  0  0  0  0  0
  161.0450  209.2420  151.9750 C   0  0  2  0  0  3  0  0  0  0  0  0
  159.6030  210.6160  153.2700 O   0  0  0  0  0  0  0  0  0  0  0  0
  160.8570  208.0840  155.5300 O   0  0  0  0  0  1  0  0  0  0  0  0
  160.9160  206.2430  151.9100 C   0  0  1  0  0  3  0  0  0  0  0  0
  160.3690  208.5840  154.3200 C   0  0  1  0  0  3  0  0  0  0  0  0
  160.7870  206.8960  150.5150 C   0  0  2  0  0  3  0  0  0  0  0  0
  161.9070  208.2670  148.6990 C   0  0  0  0  0  0  0  0  0  0  0  0
  160.0550  210.0770  154.4880 C   0  0  2  0  0  3  0  0  0  0  0  0
  161.4360  208.4330  153.2220 C   0  0  1  0  0  3  0  0  0  0  0  0
  160.3110  213.9800  150.6260 O   0  0  0  0  0  0  0  0  0  0  0  0
  160.5060  205.7700  149.5380 C   0  0  0  0  0  2  0  0  0  0  0  0
  161.4460  204.5040  151.7050 S   0  0  0  0  0  0  0  0  0  0  0  0
  159.6400  213.2870  152.7050 O   0  0  0  0  0  0  0  0  0  0  0  0
  162.2140  210.2400  149.8550 C   0  0  2  0  0  3  0  0  0  0  0  0
  160.5690  213.6580  149.2630 C   0  0  0  0  0  2  0  0  0  0  0  0
  160.3110  211.5250  151.1810 C   0  0  1  0  0  3  0  0  0  0  0  0
  162.1330  209.1020  150.8980 C   0  0  2  0  0  3  0  0  0  0  0  0
  161.8420  207.5230  147.6860 O   0  0  0  0  0  0  0  0  0  0  0  0
  162.0080  207.7700  150.0980 C   0  0  1  0  0  3  0  0  0  0  0  0
  161.4180  204.6240  149.8980 C   0  0  0  0  0  2  0  0  0  0  0  0
  162.0610  206.2290  154.0490 O   0  0  0  0  0  1  0  0  0  0  0  0
  161.4520  212.4490  149.1760 C   0  0  0  0  0  3  0  0  0  0  0  0
  161.3300  211.4400  150.0570 C   0  0  0  0  0  0  0  0  0  0  0  0
  161.8450  206.9800  152.8900 C   0  0  1  0  0  3  0  0  0  0  0  0
  158.9850  210.2730  155.5500 C   0  0  0  0  0  2  0  0  0  0  0  0
  156.8430  210.9180  155.2900 O   0  0  0  0  0  1  0  0  0  0  0  0
  158.1130  211.3720  155.1730 N   0  0  0  0  0  2  0  0  0  0  0  0
  1  5  1  1  0  0  0
  2 16  2  0  0  0  0
  3 10  1  0  0  0  0
  3 17  1  0  0  0  0
  4  1  1  0  0  0  0
  4 12  1  0  0  0  0
  5 11  1  0  0  0  0
  7 27  1  0  0  0  0
  8 11  1  0  0  0  0
  8  6  1  0  0  0  0
  9  7  1  0  0  0  0
 10 22  1  0  0  0  0
 11 28  1  0  0  0  0
 12  8  1  0  0  0  0
 13  2  1  0  0  0  0
 14 23  1  0  0  0  0
 14  9  1  0  0  0  0
 15  7  1  0  0  0  0
 17 26  1  0  0  0  0
 17 20  1  0  0  0  0
 18 13  1  0  0  0  0
 19  2  1  0  0  0  0
 19  1  1  0  0  0  0
 20  4  1  0  0  0  0
 21 10  2  0  0  0  0
 22  9  1  0  0  0  0
 22 20  1  0  0  0  0
 23 15  1  0  0  0  0
 25 18  1  0  0  0  0
 25 26  2  0  0  0  0
 26 19  1  0  0  0  0
 27 12  1  0  0  0  0
 27 24  1  0  0  0  0
 30 29  1  0  0  0  0
 30 28  1  0  0  0  0
M  END
>  <MODEL>
2

>  <REMARK>
 VINA RESULT:      -6.9      3.350      7.528
  Name = 
  2 active torsions:
  status: ('A' for Active; 'I' for Inactive)
    1  A    between atoms: C_11  and  C_28
    2  A    between atoms: C_28  and  N_30
                            x       y       z     vdW  Elec       q    Type
                         _______ _______ _______ _____ _____    ______ ____

>  <TORSDO>
F 2

$$$$
=
 OpenBabel11122412453D

 30 35  0  0  1  0  0  0  0  0999 V2000
  160.4100  211.7790  152.1020 C   0  0  2  0  0  3  0  0  0  0  0  0
  159.8340  213.7250  150.5990 C   0  0  0  0  0  0  0  0  0  0  0  0
  162.1980  209.8370  148.9250 O   0  0  0  0  0  0  0  0  0  0  0  0
  160.8430  210.3120  152.1410 C   0  0  2  0  0  3  0  0  0  0  0  0
  159.2030  211.8920  152.8210 O   0  0  0  0  0  0  0  0  0  0  0  0
  160.2130  210.1500  155.8270 O   0  0  0  0  0  1  0  0  0  0  0  0
  160.8070  207.4060  152.8920 C   0  0  1  0  0  3  0  0  0  0  0  0
  159.8780  210.2720  154.4760 C   0  0  1  0  0  3  0  0  0  0  0  0
  160.8480  207.6480  151.3670 C   0  0  2  0  0  3  0  0  0  0  0  0
  162.1630  208.5430  149.3920 C   0  0  0  0  0  0  0  0  0  0  0  0
  159.5030  211.7320  154.1860 C   0  0  2  0  0  3  0  0  0  0  0  0
  161.0850  209.8980  153.6000 C   0  0  1  0  0  3  0  0  0  0  0  0
  160.1670  214.4530  149.4550 O   0  0  0  0  0  0  0  0  0  0  0  0
  160.7310  206.2830  150.7130 C   0  0  0  0  0  2  0  0  0  0  0  0
  161.4060  205.7130  153.2420 S   0  0  0  0  0  0  0  0  0  0  0  0
  159.2420  214.3070  151.5480 O   0  0  0  0  0  0  0  0  0  0  0  0
  162.2580  210.7710  149.9850 C   0  0  2  0  0  3  0  0  0  0  0  0
  160.6130  213.7900  148.2760 C   0  0  0  0  0  2  0  0  0  0  0  0
  160.1600  212.2440  150.6640 C   0  0  1  0  0  3  0  0  0  0  0  0
  162.0690  209.9560  151.2850 C   0  0  2  0  0  3  0  0  0  0  0  0
  162.2550  207.5510  148.6240 O   0  0  0  0  0  0  0  0  0  0  0  0
  162.0890  208.4520  150.8750 C   0  0  1  0  0  3  0  0  0  0  0  0
  161.6180  205.3380  151.4830 C   0  0  0  0  0  2  0  0  0  0  0  0
  161.6550  208.0440  155.0750 O   0  0  0  0  0  1  0  0  0  0  0  0
  161.5320  212.6610  148.6350 C   0  0  0  0  0  3  0  0  0  0  0  0
  161.3220  211.9230  149.7390 C   0  0  0  0  0  0  0  0  0  0  0  0
  161.5760  208.4370  153.7360 C   0  0  1  0  0  3  0  0  0  0  0  0
  158.2950  212.1400  155.0140 C   0  0  0  0  0  2  0  0  0  0  0  0
  156.4870  210.8910  155.5000 O   0  0  0  0  0  1  0  0  0  0  0  0
  157.0960  211.5260  154.4720 N   0  0  0  0  0  2  0  0  0  0  0  0
  1  4  1  0  0  0  0
  1  5  1  1  0  0  0
  2 19  1  0  0  0  0
  2 16  2  0  0  0  0
  3 10  1  0  0  0  0
  3 17  1  0  0  0  0
  4 12  1  0  0  0  0
  5 11  1  0  0  0  0
  7 15  1  0  0  0  0
  7 27  1  0  0  0  0
  8  6  1  0  0  0  0
  9  7  1  0  0  0  0
 10 22  1  0  0  0  0
 11  8  1  0  0  0  0
 11 28  1  0  0  0  0
 12 27  1  0  0  0  0
 12  8  1  0  0  0  0
 13  2  1  0  0  0  0
 14  9  1  0  0  0  0
 14 23  1  0  0  0  0
 17 20  1  0  0  0  0
 18 25  1  0  0  0  0
 18 13  1  0  0  0  0
 19  1  1  0  0  0  0
 20  4  1  0  0  0  0
 21 10  2  0  0  0  0
 22 20  1  0  0  0  0
 22  9  1  0  0  0  0
 23 15  1  0  0  0  0
 25 26  2  0  0  0  0
 26 17  1  0  0  0  0
 26 19  1  0  0  0  0
 27 24  1  0  0  0  0
 30 28  1  0  0  0  0
 30 29  1  0  0  0  0
M  END
>  <MODEL>
3

>  <REMARK>
 VINA RESULT:      -6.7      3.571      7.672
  Name = 
  2 active torsions:
  status: ('A' for Active; 'I' for Inactive)
    1  A    between atoms: C_11  and  C_28
    2  A    between atoms: C_28  and  N_30
                            x       y       z     vdW  Elec       q    Type
                         _______ _______ _______ _____ _____    ______ ____

>  <TORSDO>
F 2

$$$$
=
 OpenBabel11122412453D

 30 35  0  0  1  0  0  0  0  0999 V2000
  160.8650  203.6390  147.7400 C   0  0  2  0  0  3  0  0  0  0  0  0
  161.2060  203.6940  145.2390 C   0  0  0  0  0  0  0  0  0  0  0  0
  161.0980  207.7610  147.8760 O   0  0  0  0  0  0  0  0  0  0  0  0
  160.9900  204.4380  149.0390 C   0  0  2  0  0  3  0  0  0  0  0  0
  161.6240  202.4610  147.8840 O   0  0  0  0  0  0  0  0  0  0  0  0
  160.3120  201.3710  151.0750 O   0  0  0  0  0  1  0  0  0  0  0  0
  161.7800  205.0750  151.8640 C   0  0  1  0  0  3  0  0  0  0  0  0
  161.0300  202.1980  150.2080 C   0  0  1  0  0  3  0  0  0  0  0  0
  162.1900  206.1650  150.8490 C   0  0  2  0  0  3  0  0  0  0  0  0
  161.4200  207.9330  149.2030 C   0  0  0  0  0  0  0  0  0  0  0  0
  160.9440  201.6220  148.7870 C   0  0  2  0  0  3  0  0  0  0  0  0
  160.4170  203.6080  150.1980 C   0  0  1  0  0  3  0  0  0  0  0  0
  161.0590  204.4240  144.0580 O   0  0  0  0  0  0  0  0  0  0  0  0
  162.9980  207.1900  151.6230 C   0  0  0  0  0  2  0  0  0  0  0  0
  161.7310  205.8100  153.5390 S   0  0  0  0  0  0  0  0  0  0  0  0
  161.1860  202.4340  145.1900 O   0  0  0  0  0  0  0  0  0  0  0  0
  160.3500  206.5780  147.6730 C   0  0  2  0  0  3  0  0  0  0  0  0
  161.3140  205.8250  144.0330 C   0  0  0  0  0  2  0  0  0  0  0  0
  161.4200  204.4270  146.5500 C   0  0  1  0  0  3  0  0  0  0  0  0
  160.3480  205.8340  149.0270 C   0  0  2  0  0  3  0  0  0  0  0  0
  161.9560  208.9880  149.6300 O   0  0  0  0  0  0  0  0  0  0  0  0
  161.0000  206.7960  150.0660 C   0  0  1  0  0  3  0  0  0  0  0  0
  162.2920  207.4230  152.9340 C   0  0  0  0  0  2  0  0  0  0  0  0
  160.0600  203.5330  152.6060 O   0  0  0  0  0  1  0  0  0  0  0  0
  160.7860  206.4680  145.2810 C   0  0  0  0  0  3  0  0  0  0  0  0
  160.8440  205.8310  146.4640 C   0  0  0  0  0  0  0  0  0  0  0  0
  160.4560  204.3570  151.5500 C   0  0  1  0  0  3  0  0  0  0  0  0
  161.5630  200.2340  148.7420 C   0  0  0  0  0  2  0  0  0  0  0  0
  161.2060  199.4540  146.6610 O   0  0  0  0  0  1  0  0  0  0  0  0
  162.1650  200.0040  147.4410 N   0  0  0  0  0  2  0  0  0  0  0  0
  1  5  1  1  0  0  0
  1  4  1  0  0  0  0
  2 19  1  0  0  0  0
  3 10  1  0  0  0  0
  4 12  1  0  0  0  0
  5 11  1  0  0  0  0
  7 15  1  0  0  0  0
  8  6  1  0  0  0  0
  9 14  1  0  0  0  0
  9  7  1  0  0  0  0
 10 21  2  0  0  0  0
 10 22  1  0  0  0  0
 11  8  1  0  0  0  0
 12  8  1  0  0  0  0
 12 27  1  0  0  0  0
 13  2  1  0  0  0  0
 14 23  1  0  0  0  0
 16  2  2  0  0  0  0
 17  3  1  0  0  0  0
 17 20  1  0  0  0  0
 18 13  1  0  0  0  0
 18 25  1  0  0  0  0
 19  1  1  0  0  0  0
 20  4  1  0  0  0  0
 20 22  1  0  0  0  0
 22  9  1  0  0  0  0
 23 15  1  0  0  0  0
 25 26  2  0  0  0  0
 26 19  1  0  0  0  0
 26 17  1  0  0  0  0
 27  7  1  0  0  0  0
 27 24  1  0  0  0  0
 28 11  1  0  0  0  0
 29 30  1  0  0  0  0
 30 28  1  0  0  0  0
M  END
>  <MODEL>
4

>  <REMARK>
 VINA RESULT:      -6.1      2.495      5.594
  Name = 
  2 active torsions:
  status: ('A' for Active; 'I' for Inactive)
    1  A    between atoms: C_11  and  C_28
    2  A    between atoms: C_28  and  N_30
                            x       y       z     vdW  Elec       q    Type
                         _______ _______ _______ _____ _____    ______ ____

>  <TORSDO>
F 2

$$$$
=
 OpenBabel11122412453D

 30 35  0  0  1  0  0  0  0  0999 V2000
  161.2940  208.3400  152.5100 C   0  0  2  0  0  3  0  0  0  0  0  0
  160.8540  206.5810  154.2670 C   0  0  0  0  0  0  0  0  0  0  0  0
  160.0240  211.2830  155.1160 O   0  0  0  0  0  0  0  0  0  0  0  0
  161.0200  209.7850  152.0880 C   0  0  2  0  0  3  0  0  0  0  0  0
  160.8660  207.4970  151.4650 O   0  0  0  0  0  0  0  0  0  0  0  0
  162.5350  209.1640  148.7210 O   0  0  0  0  0  1  0  0  0  0  0  0
  160.2030  212.0760  150.3280 C   0  0  1  0  0  3  0  0  0  0  0  0
  161.5970  209.0250  149.7470 C   0  0  1  0  0  3  0  0  0  0  0  0
  159.4900  212.0660  151.6980 C   0  0  2  0  0  3  0  0  0  0  0  0
  159.7200  212.2770  154.2150 C   0  0  0  0  0  0  0  0  0  0  0  0
  161.7720  207.6460  150.3980 C   0  0  2  0  0  3  0  0  0  0  0  0
  161.8300  210.1010  150.8210 C   0  0  1  0  0  3  0  0  0  0  0  0
  160.7640  206.2920  155.6300 O   0  0  0  0  0  0  0  0  0  0  0  0
  158.4780  213.1970  151.6630 C   0  0  0  0  0  2  0  0  0  0  0  0
  160.1270  213.7650  149.6300 S   0  0  0  0  0  0  0  0  0  0  0  0
  161.1920  205.6690  153.4660 O   0  0  0  0  0  0  0  0  0  0  0  0
  161.0400  210.4310  154.6260 C   0  0  2  0  0  3  0  0  0  0  0  0
  160.1600  207.2150  156.5310 C   0  0  0  0  0  2  0  0  0  0  0  0
  160.5110  207.9750  153.7750 C   0  0  1  0  0  3  0  0  0  0  0  0
  161.2840  210.8540  153.1590 C   0  0  2  0  0  3  0  0  0  0  0  0
  158.9500  213.2290  154.5030 O   0  0  0  0  0  0  0  0  0  0  0  0
  160.4490  212.1490  152.9240 C   0  0  1  0  0  3  0  0  0  0  0  0
  159.1520  214.3840  151.0240 C   0  0  0  0  0  2  0  0  0  0  0  0
  162.2870  211.7830  149.1190 O   0  0  0  0  0  1  0  0  0  0  0  0
  160.5540  208.6180  156.1750 C   0  0  0  0  0  3  0  0  0  0  0  0
  160.7060  208.9880  154.8910 C   0  0  0  0  0  0  0  0  0  0  0  0
  161.6530  211.5620  150.3450 C   0  0  1  0  0  3  0  0  0  0  0  0
  161.5250  206.5470  149.3770 C   0  0  0  0  0  2  0  0  0  0  0  0
  160.8530  204.4120  149.1310 O   0  0  0  0  0  1  0  0  0  0  0  0
  160.8050  205.4490  149.9980 N   0  0  0  0  0  2  0  0  0  0  0  0
  1  5  1  6  0  0  0
  1 19  1  0  0  0  0
  2 13  1  0  0  0  0
  4  1  1  0  0  0  0
  4 20  1  0  0  0  0
  6  8  1  0  0  0  0
  7 27  1  0  0  0  0
  7  9  1  0  0  0  0
  8 11  1  0  0  0  0
  8 12  1  0  0  0  0
  9 22  1  0  0  0  0
 10 21  2  0  0  0  0
 10  3  1  0  0  0  0
 11  5  1  0  0  0  0
 12  4  1  0  0  0  0
 13 18  1  0  0  0  0
 14  9  1  0  0  0  0
 15  7  1  0  0  0  0
 15 23  1  0  0  0  0
 16  2  2  0  0  0  0
 17 26  1  0  0  0  0
 17  3  1  0  0  0  0
 19  2  1  0  0  0  0
 19 26  1  0  0  0  0
 20 17  1  0  0  0  0
 22 20  1  0  0  0  0
 22 10  1  0  0  0  0
 23 14  1  0  0  0  0
 24 27  1  0  0  0  0
 25 18  1  0  0  0  0
 26 25  2  0  0  0  0
 27 12  1  0  0  0  0
 28 30  1  0  0  0  0
 28 11  1  0  0  0  0
 29 30  1  0  0  0  0
M  END
>  <MODEL>
5

>  <REMARK>
 VINA RESULT:      -5.5      2.649      4.727
  Name = 
  2 active torsions:
  status: ('A' for Active; 'I' for Inactive)
    1  A    between atoms: C_11  and  C_28
    2  A    between atoms: C_28  and  N_30
                            x       y       z     vdW  Elec       q    Type
                         _______ _______ _______ _____ _____    ______ ____

>  <TORSDO>
F 2

$$$$
=
 OpenBabel11122412453D

 30 35  0  0  1  0  0  0  0  0999 V2000
  161.0660  209.2390  153.0910 C   0  0  2  0  0  3  0  0  0  0  0  0
  161.1560  207.1800  154.5510 C   0  0  0  0  0  0  0  0  0  0  0  0
  158.8150  211.1880  155.9540 O   0  0  0  0  0  0  0  0  0  0  0  0
  160.3530  210.5710  152.8470 C   0  0  2  0  0  3  0  0  0  0  0  0
  160.9730  208.4780  151.9090 O   0  0  0  0  0  0  0  0  0  0  0  0
  162.1110  210.9920  149.5690 O   0  0  0  0  0  1  0  0  0  0  0  0
  158.9030  212.7320  151.3510 C   0  0  1  0  0  3  0  0  0  0  0  0
  161.2310  210.4060  150.4830 C   0  0  1  0  0  3  0  0  0  0  0  0
  158.1810  212.2850  152.6420 C   0  0  2  0  0  3  0  0  0  0  0  0
  158.2380  212.1630  155.1740 C   0  0  0  0  0  0  0  0  0  0  0  0
  161.8200  209.0690  150.9530 C   0  0  2  0  0  3  0  0  0  0  0  0
  161.0630  211.3200  151.7080 C   0  0  1  0  0  3  0  0  0  0  0  0
  161.1150  206.6700  155.8490 O   0  0  0  0  0  0  0  0  0  0  0  0
  156.8590  213.0300  152.6740 C   0  0  0  0  0  2  0  0  0  0  0  0
  158.3090  214.3990  150.8850 S   0  0  0  0  0  0  0  0  0  0  0  0
  161.8010  206.5580  153.6650 O   0  0  0  0  0  0  0  0  0  0  0  0
  160.0700  210.7870  155.4420 C   0  0  2  0  0  3  0  0  0  0  0  0
  160.2110  207.2030  156.8120 C   0  0  0  0  0  2  0  0  0  0  0  0
  160.3980  208.4540  154.2240 C   0  0  1  0  0  3  0  0  0  0  0  0
  160.2170  211.4890  154.0720 C   0  0  2  0  0  3  0  0  0  0  0  0
  157.1900  212.7670  155.5230 O   0  0  0  0  0  0  0  0  0  0  0  0
  159.0160  212.4740  153.9450 C   0  0  1  0  0  3  0  0  0  0  0  0
  157.1340  214.4530  152.2620 C   0  0  0  0  0  2  0  0  0  0  0  0
  161.0120  213.3040  150.2950 O   0  0  0  0  0  1  0  0  0  0  0  0
  160.1410  208.6960  156.6840 C   0  0  0  0  0  3  0  0  0  0  0  0
  160.2120  209.2900  155.4800 C   0  0  0  0  0  0  0  0  0  0  0  0
  160.4390  212.7060  151.4220 C   0  0  1  0  0  3  0  0  0  0  0  0
  161.9820  208.1210  149.7760 C   0  0  0  0  0  2  0  0  0  0  0  0
  160.7520  206.8260  148.4060 O   0  0  0  0  0  1  0  0  0  0  0  0
  160.8320  207.2380  149.6920 N   0  0  0  0  0  2  0  0  0  0  0  0
  1  5  1  6  0  0  0
  1 19  1  0  0  0  0
  2 13  1  0  0  0  0
  4  1  1  0  0  0  0
  4 20  1  0  0  0  0
  6  8  1  0  0  0  0
  7 27  1  0  0  0  0
  7  9  1  0  0  0  0
  8 11  1  0  0  0  0
  8 12  1  0  0  0  0
  9 14  1  0  0  0  0
  9 22  1  0  0  0  0
 10 21  2  0  0  0  0
 10  3  1  0  0  0  0
 11  5  1  0  0  0  0
 12  4  1  0  0  0  0
 13 18  1  0  0  0  0
 15  7  1  0  0  0  0
 15 23  1  0  0  0  0
 16  2  2  0  0  0  0
 17 26  1  0  0  0  0
 17  3  1  0  0  0  0
 19  2  1  0  0  0  0
 19 26  1  0  0  0  0
 20 17  1  0  0  0  0
 22 20  1  0  0  0  0
 22 10  1  0  0  0  0
 23 14  1  0  0  0  0
 24 27  1  0  0  0  0
 25 18  1  0  0  0  0
 26 25  2  0  0  0  0
 27 12  1  0  0  0  0
 28 11  1  0  0  0  0
 29 30  1  0  0  0  0
 30 28  1  0  0  0  0
M  END
>  <MODEL>
6

>  <REMARK>
 VINA RESULT:      -4.7      2.988      5.281
  Name = 
  2 active torsions:
  status: ('A' for Active; 'I' for Inactive)
    1  A    between atoms: C_11  and  C_28
    2  A    between atoms: C_28  and  N_30
                            x       y       z     vdW  Elec       q    Type
                         _______ _______ _______ _____ _____    ______ ____

>  <TORSDO>
F 2

$$$$
=
 OpenBabel11122412453D

 30 35  0  0  1  0  0  0  0  0999 V2000
  161.5730  204.9360  149.5750 C   0  0  2  0  0  3  0  0  0  0  0  0
  161.5910  207.3580  150.2890 C   0  0  0  0  0  0  0  0  0  0  0  0
  161.8720  206.0850  145.6190 O   0  0  0  0  0  0  0  0  0  0  0  0
  161.3770  203.9790  148.3970 C   0  0  2  0  0  3  0  0  0  0  0  0
  160.6510  204.5780  150.5790 O   0  0  0  0  0  0  0  0  0  0  0  0
  161.3530  201.0310  150.7050 O   0  0  0  0  0  1  0  0  0  0  0  0
  160.2950  201.6560  146.8340 C   0  0  1  0  0  3  0  0  0  0  0  0
  160.8780  202.2170  150.1400 C   0  0  1  0  0  3  0  0  0  0  0  0
  160.1770  203.0060  146.0920 C   0  0  2  0  0  3  0  0  0  0  0  0
  161.3960  204.9480  145.0080 C   0  0  0  0  0  0  0  0  0  0  0  0
  161.0820  203.3620  151.1410 C   0  0  2  0  0  3  0  0  0  0  0  0
  161.6680  202.5430  148.8610 C   0  0  1  0  0  3  0  0  0  0  0  0
  161.9950  208.6590  149.9860 O   0  0  0  0  0  0  0  0  0  0  0  0
  159.4130  202.7270  144.8110 C   0  0  0  0  0  2  0  0  0  0  0  0
  160.2090  200.2970  145.6110 S   0  0  0  0  0  0  0  0  0  0  0  0
  161.4500  207.0220  151.4960 O   0  0  0  0  0  0  0  0  0  0  0  0
  162.4780  205.7920  146.8630 C   0  0  2  0  0  3  0  0  0  0  0  0
  161.9340  209.1470  148.6500 C   0  0  0  0  0  2  0  0  0  0  0  0
  161.2970  206.3850  149.1620 C   0  0  1  0  0  3  0  0  0  0  0  0
  162.1940  204.2980  147.1360 C   0  0  2  0  0  3  0  0  0  0  0  0
  160.9510  204.9570  143.8320 O   0  0  0  0  0  0  0  0  0  0  0  0
  161.5380  203.7250  145.8430 C   0  0  1  0  0  3  0  0  0  0  0  0
  159.9570  201.4450  144.2330 C   0  0  0  0  0  2  0  0  0  0  0  0
  161.6760  200.2000  148.1980 O   0  0  0  0  0  1  0  0  0  0  0  0
  162.3650  208.0780  147.6900 C   0  0  0  0  0  3  0  0  0  0  0  0
  162.0600  206.7870  147.9110 C   0  0  0  0  0  0  0  0  0  0  0  0
  161.5430  201.5070  147.7210 C   0  0  1  0  0  3  0  0  0  0  0  0
  160.2970  203.0950  152.4150 C   0  0  0  0  0  2  0  0  0  0  0  0
  161.3680  204.7690  153.4710 O   0  0  0  0  0  1  0  0  0  0  0  0
  160.1270  204.3300  153.1590 N   0  0  0  0  0  2  0  0  0  0  0  0
  1  5  1  1  0  0  0
  2 16  2  0  0  0  0
  3 17  1  0  0  0  0
  4 12  1  0  0  0  0
  4  1  1  0  0  0  0
  5 11  1  0  0  0  0
  7 27  1  0  0  0  0
  8  6  1  0  0  0  0
  8 11  1  0  0  0  0
  9  7  1  0  0  0  0
 10  3  1  0  0  0  0
 10 22  1  0  0  0  0
 11 28  1  0  0  0  0
 12  8  1  0  0  0  0
 13  2  1  0  0  0  0
 14  9  1  0  0  0  0
 15  7  1  0  0  0  0
 17 20  1  0  0  0  0
 17 26  1  0  0  0  0
 18 13  1  0  0  0  0
 19  1  1  0  0  0  0
 19  2  1  0  0  0  0
 20  4  1  0  0  0  0
 21 10  2  0  0  0  0
 22  9  1  0  0  0  0
 22 20  1  0  0  0  0
 23 14  1  0  0  0  0
 23 15  1  0  0  0  0
 25 26  2  0  0  0  0
 25 18  1  0  0  0  0
 26 19  1  0  0  0  0
 27 24  1  0  0  0  0
 27 12  1  0  0  0  0
 28 30  1  0  0  0  0
 30 29  1  0  0  0  0
M  END
>  <MODEL>
7

>  <REMARK>
 VINA RESULT:      -4.6      3.606      7.858
  Name = 
  2 active torsions:
  status: ('A' for Active; 'I' for Inactive)
    1  A    between atoms: C_11  and  C_28
    2  A    between atoms: C_28  and  N_30
                            x       y       z     vdW  Elec       q    Type
                         _______ _______ _______ _____ _____    ______ ____

>  <TORSDO>
F 2

$$$$
=
 OpenBabel11122412453D

 30 35  0  0  1  0  0  0  0  0999 V2000
  161.0500  204.3790  148.9190 C   0  0  2  0  0  3  0  0  0  0  0  0
  161.4350  203.4490  146.6030 C   0  0  0  0  0  0  0  0  0  0  0  0
  161.2840  208.2240  147.4290 O   0  0  0  0  0  0  0  0  0  0  0  0
  161.1540  205.6250  149.8020 C   0  0  2  0  0  3  0  0  0  0  0  0
  161.8060  203.3560  149.5270 O   0  0  0  0  0  0  0  0  0  0  0  0
  160.4390  203.5990  152.8680 O   0  0  0  0  0  1  0  0  0  0  0  0
  161.8960  207.3240  152.1620 C   0  0  1  0  0  3  0  0  0  0  0  0
  161.1730  204.0230  151.7570 C   0  0  1  0  0  3  0  0  0  0  0  0
  162.3240  207.9300  150.8070 C   0  0  2  0  0  3  0  0  0  0  0  0
  161.5840  208.9060  148.5860 C   0  0  0  0  0  0  0  0  0  0  0  0
  161.1100  202.9360  150.6750 C   0  0  2  0  0  3  0  0  0  0  0  0
  160.5600  205.3130  151.1840 C   0  0  1  0  0  3  0  0  0  0  0  0
  161.3080  203.6560  145.2280 O   0  0  0  0  0  0  0  0  0  0  0  0
  163.1200  209.1820  151.1290 C   0  0  0  0  0  2  0  0  0  0  0  0
  161.8190  208.6580  153.4120 S   0  0  0  0  0  0  0  0  0  0  0  0
  161.4140  202.2710  147.0520 O   0  0  0  0  0  0  0  0  0  0  0  0
  160.5380  207.0530  147.6940 C   0  0  2  0  0  3  0  0  0  0  0  0
  161.5650  204.9360  144.6590 C   0  0  0  0  0  2  0  0  0  0  0  0
  161.6260  204.6400  147.5240 C   0  0  1  0  0  3  0  0  0  0  0  0
  160.5130  206.9000  149.2320 C   0  0  2  0  0  3  0  0  0  0  0  0
  162.1130  210.0470  148.5740 O   0  0  0  0  0  0  0  0  0  0  0  0
  161.1480  208.1970  149.8200 C   0  0  1  0  0  3  0  0  0  0  0  0
  162.3910  209.9070  152.2320 C   0  0  0  0  0  2  0  0  0  0  0  0
  160.1620  206.1870  153.4230 O   0  0  0  0  0  1  0  0  0  0  0  0
  161.0160  206.0150  145.5460 C   0  0  0  0  0  3  0  0  0  0  0  0
  161.0530  205.8940  146.8840 C   0  0  0  0  0  0  0  0  0  0  0  0
  160.5770  206.5330  152.1330 C   0  0  1  0  0  3  0  0  0  0  0  0
  161.7290  201.6460  151.1890 C   0  0  0  0  0  2  0  0  0  0  0  0
  160.0940  200.9480  149.8080 O   0  0  0  0  0  1  0  0  0  0  0  0
  161.2110  200.5170  150.4380 N   0  0  0  0  0  2  0  0  0  0  0  0
  1  5  1  1  0  0  0
  1  4  1  0  0  0  0
  2 16  2  0  0  0  0
  2 19  1  0  0  0  0
  3 17  1  0  0  0  0
  3 10  1  0  0  0  0
  4 12  1  0  0  0  0
  5 11  1  0  0  0  0
  7 15  1  0  0  0  0
  8  6  1  0  0  0  0
  9 14  1  0  0  0  0
  9  7  1  0  0  0  0
 10 22  1  0  0  0  0
 11 28  1  0  0  0  0
 11  8  1  0  0  0  0
 12  8  1  0  0  0  0
 12 27  1  0  0  0  0
 13  2  1  0  0  0  0
 14 23  1  0  0  0  0
 17 20  1  0  0  0  0
 18 13  1  0  0  0  0
 18 25  1  0  0  0  0
 19  1  1  0  0  0  0
 20  4  1  0  0  0  0
 20 22  1  0  0  0  0
 21 10  2  0  0  0  0
 22  9  1  0  0  0  0
 23 15  1  0  0  0  0
 25 26  2  0  0  0  0
 26 19  1  0  0  0  0
 26 17  1  0  0  0  0
 27  7  1  0  0  0  0
 27 24  1  0  0  0  0
 29 30  1  0  0  0  0
 30 28  1  0  0  0  0
M  END
>  <MODEL>
8

>  <REMARK>
 VINA RESULT:      -4.4      2.119      5.065
  Name = 
  2 active torsions:
  status: ('A' for Active; 'I' for Inactive)
    1  A    between atoms: C_11  and  C_28
    2  A    between atoms: C_28  and  N_30
                            x       y       z     vdW  Elec       q    Type
                         _______ _______ _______ _____ _____    ______ ____

>  <TORSDO>
F 2

$$$$
