=
 OpenBabel11122413083D

 31 35  0  0  1  0  0  0  0  0999 V2000
  160.4260  207.7840  156.0760 C   0  0  0  0  0  0  0  0  0  0  0  0
  161.3320  208.6010  152.4300 C   0  0  2  0  0  3  0  0  0  0  0  0
  161.2170  207.2600  151.7100 C   0  0  0  0  0  0  0  0  0  0  0  0
  161.2030  204.8240  151.6920 C   0  0  0  0  0  0  0  0  0  0  0  0
  160.8390  208.7110  153.8630 C   0  0  0  0  0  0  0  0  0  0  0  0
  160.1890  209.0650  156.5770 C   0  0  0  0  0  3  0  0  0  0  0  0
  161.2440  206.0330  152.3910 C   0  0  0  0  0  3  0  0  0  0  0  0
  160.8240  211.0850  152.2450 C   0  0  0  0  0  0  0  0  0  0  0  0
  160.3340  206.6820  156.9150 O   0  0  0  0  0  1  0  0  0  0  0  0
  161.2630  208.4480  149.5770 O   0  0  0  0  0  0  0  0  0  0  0  0
  161.2080  203.6220  152.3840 O   0  0  0  0  0  1  0  0  0  0  0  0
  160.7210  211.1540  153.5380 N   0  0  0  0  0  0  0  0  0  0  0  0
  160.7560  209.7340  151.5540 C   0  0  1  0  0  3  0  0  0  0  0  0
  160.8080  212.3170  151.5090 N   0  0  0  0  0  2  0  0  0  0  0  0
  160.7640  207.6120  154.7320 C   0  0  0  0  0  3  0  0  0  0  0  0
  161.1610  204.8260  150.2970 C   0  0  0  0  0  3  0  0  0  0  0  0
  160.6190  210.0020  154.3840 C   0  0  0  0  0  0  0  0  0  0  0  0
  160.2910  210.1720  155.7330 C   0  0  0  0  0  3  0  0  0  0  0  0
  161.4950  209.6990  150.2200 C   0  0  0  0  0  2  0  0  0  0  0  0
  161.2220  207.2480  150.2960 C   0  0  0  0  0  0  0  0  0  0  0  0
  161.1740  206.0370  149.6000 C   0  0  0  0  0  3  0  0  0  0  0  0
  158.9680  212.8520  150.0270 C   0  0  0  0  0  1  0  0  0  0  0  0
  160.4300  212.4350  150.1070 C   0  0  1  0  0  3  0  0  0  0  0  0
  160.3450  212.8000  146.8040 C   0  0  0  0  0  0  0  0  0  0  0  0
  160.4950  214.4530  148.5790 C   0  0  0  0  0  2  0  0  0  0  0  0
  163.1110  211.8370  148.9770 F   0  0  0  0  0  0  0  0  0  0  0  0
  159.6160  212.2020  145.6570 C   0  0  0  0  0  1  0  0  0  0  0  0
  159.8320  213.8130  147.4380 N   0  0  0  0  0  0  0  0  0  0  0  0
  162.2930  212.7820  148.3830 C   0  0  2  0  0  3  0  0  0  0  0  0
  161.3340  213.4460  149.3810 C   0  0  2  0  0  3  0  0  0  0  0  0
  161.5520  212.1900  147.2740 N   0  0  0  0  0  2  0  0  0  0  0  0
  1  6  1  0  0  0  0
  1  9  1  0  0  0  0
  2  3  1  6  0  0  0
  2  5  1  0  0  0  0
  3  7  1  0  0  0  0
  4 11  1  0  0  0  0
  4  7  2  0  0  0  0
  5 17  2  0  0  0  0
  5 15  1  0  0  0  0
  8 12  2  0  0  0  0
 10 19  1  0  0  0  0
 10 20  1  0  0  0  0
 12 17  1  0  0  0  0
 13 19  1  6  0  0  0
 13  8  1  0  0  0  0
 13  2  1  0  0  0  0
 14  8  1  0  0  0  0
 15  1  2  0  0  0  0
 16  4  1  0  0  0  0
 17 18  1  0  0  0  0
 18  6  2  0  0  0  0
 20  3  2  0  0  0  0
 21 20  1  0  0  0  0
 21 16  2  0  0  0  0
 23 22  1  1  0  0  0
 23 14  1  0  0  0  0
 24 31  1  0  0  0  0
 24 28  2  0  0  0  0
 25 30  1  0  0  0  0
 27 24  1  0  0  0  0
 28 25  1  0  0  0  0
 29 26  1  1  0  0  0
 29 30  1  0  0  0  0
 30 23  1  6  0  0  0
 31 29  1  0  0  0  0
M  END
>  <MODEL>
1

>  <REMARK>
 VINA RESULT:      -6.8      0.000      0.000
  Name = 
  2 active torsions:
  status: ('A' for Active; 'I' for Inactive)
    1  A    between atoms: C_5  and  N_16
    2  A    between atoms: C_5  and  C_30
                            x       y       z     vdW  Elec       q    Type
                         _______ _______ _______ _____ _____    ______ ____

>  <TORSDO>
F 2

$$$$
=
 OpenBabel11122413083D

 31 35  0  0  1  0  0  0  0  0999 V2000
  161.0520  204.5300  151.0020 C   0  0  0  0  0  0  0  0  0  0  0  0
  160.9530  208.3440  151.4710 C   0  0  2  0  0  3  0  0  0  0  0  0
  161.0790  208.5350  152.9800 C   0  0  0  0  0  0  0  0  0  0  0  0
  160.8670  207.7400  155.2730 C   0  0  0  0  0  0  0  0  0  0  0  0
  161.1660  206.9590  150.8850 C   0  0  0  0  0  0  0  0  0  0  0  0
  161.3060  204.4440  149.6330 C   0  0  0  0  0  3  0  0  0  0  0  0
  160.8050  207.5080  153.8970 C   0  0  0  0  0  3  0  0  0  0  0  0
  161.7200  209.2300  149.2150 C   0  0  0  0  0  0  0  0  0  0  0  0
  160.8740  203.3740  151.7500 O   0  0  0  0  0  1  0  0  0  0  0  0
  161.5620  210.8990  152.5990 O   0  0  0  0  0  0  0  0  0  0  0  0
  160.6130  206.7060  156.1630 O   0  0  0  0  0  1  0  0  0  0  0  0
  161.5750  208.0430  148.7070 N   0  0  0  0  0  0  0  0  0  0  0  0
  161.7930  209.4010  150.7230 C   0  0  1  0  0  3  0  0  0  0  0  0
  161.9950  210.3120  148.3130 N   0  0  0  0  0  2  0  0  0  0  0  0
  160.9660  205.7800  151.6190 C   0  0  0  0  0  3  0  0  0  0  0  0
  161.1800  209.0130  155.7530 C   0  0  0  0  0  3  0  0  0  0  0  0
  161.4020  206.8610  149.4990 C   0  0  0  0  0  0  0  0  0  0  0  0
  161.4750  205.6080  148.8820 C   0  0  0  0  0  3  0  0  0  0  0  0
  161.3280  210.7740  151.1990 C   0  0  0  0  0  2  0  0  0  0  0  0
  161.3480  209.8310  153.4790 C   0  0  0  0  0  0  0  0  0  0  0  0
  161.4170  210.0570  154.8560 C   0  0  0  0  0  3  0  0  0  0  0  0
  163.7240  211.8800  147.6660 C   0  0  0  0  0  1  0  0  0  0  0  0
  162.6490  211.5570  148.6940 C   0  0  1  0  0  3  0  0  0  0  0  0
  161.3350  212.9820  145.9940 C   0  0  0  0  0  0  0  0  0  0  0  0
  160.3110  212.3260  148.0970 C   0  0  0  0  0  2  0  0  0  0  0  0
  163.3060  214.4530  148.6860 F   0  0  0  0  0  0  0  0  0  0  0  0
  161.4530  212.8470  144.5190 C   0  0  0  0  0  1  0  0  0  0  0  0
  160.4810  212.2460  146.6430 N   0  0  0  0  0  0  0  0  0  0  0  0
  162.1140  214.0020  148.1480 C   0  0  2  0  0  3  0  0  0  0  0  0
  161.6250  212.7000  148.8000 C   0  0  2  0  0  3  0  0  0  0  0  0
  162.2360  213.8390  146.7030 N   0  0  0  0  0  2  0  0  0  0  0  0
  1 15  1  0  0  0  0
  1  9  1  0  0  0  0
  2  5  1  1  0  0  0
  2  3  1  0  0  0  0
  3 20  2  0  0  0  0
  3  7  1  0  0  0  0
  4 16  1  0  0  0  0
  4 11  1  0  0  0  0
  5 15  2  0  0  0  0
  6  1  2  0  0  0  0
  7  4  2  0  0  0  0
  8 13  1  0  0  0  0
 10 20  1  0  0  0  0
 12  8  2  0  0  0  0
 12 17  1  0  0  0  0
 13 19  1  6  0  0  0
 13  2  1  0  0  0  0
 14 23  1  0  0  0  0
 14  8  1  0  0  0  0
 17  5  1  0  0  0  0
 18 17  2  0  0  0  0
 18  6  1  0  0  0  0
 19 10  1  0  0  0  0
 20 21  1  0  0  0  0
 21 16  2  0  0  0  0
 23 22  1  6  0  0  0
 24 28  2  0  0  0  0
 24 31  1  0  0  0  0
 25 30  1  0  0  0  0
 27 24  1  0  0  0  0
 28 25  1  0  0  0  0
 29 26  1  1  0  0  0
 29 30  1  0  0  0  0
 30 23  1  6  0  0  0
 31 29  1  0  0  0  0
M  END
>  <MODEL>
2

>  <REMARK>
 VINA RESULT:      -6.6      1.858      4.339
  Name = 
  2 active torsions:
  status: ('A' for Active; 'I' for Inactive)
    1  A    between atoms: C_5  and  N_16
    2  A    between atoms: C_5  and  C_30
                            x       y       z     vdW  Elec       q    Type
                         _______ _______ _______ _____ _____    ______ ____

>  <TORSDO>
F 2

$$$$
=
 OpenBabel11122413083D

 31 35  0  0  1  0  0  0  0  0999 V2000
  160.8070  207.5350  154.2750 C   0  0  0  0  0  0  0  0  0  0  0  0
  161.9970  207.7490  150.6260 C   0  0  2  0  0  3  0  0  0  0  0  0
  161.6080  206.3980  150.0300 C   0  0  0  0  0  0  0  0  0  0  0  0
  161.0480  204.0370  150.2400 C   0  0  0  0  0  0  0  0  0  0  0  0
  161.4930  208.1130  152.0130 C   0  0  0  0  0  0  0  0  0  0  0  0
  160.8480  208.8810  154.6400 C   0  0  0  0  0  3  0  0  0  0  0  0
  161.3350  205.2730  150.8230 C   0  0  0  0  0  3  0  0  0  0  0  0
  162.0670  210.2510  150.1800 C   0  0  0  0  0  0  0  0  0  0  0  0
  160.4410  206.5730  155.2080 O   0  0  0  0  0  1  0  0  0  0  0  0
  161.9920  207.3190  147.8010 O   0  0  0  0  0  0  0  0  0  0  0  0
  160.7590  202.9420  151.0410 O   0  0  0  0  0  1  0  0  0  0  0  0
  161.9380  210.4740  151.4540 N   0  0  0  0  0  0  0  0  0  0  0  0
  161.7200  208.8830  149.6160 C   0  0  1  0  0  3  0  0  0  0  0  0
  162.3530  211.3720  149.3320 N   0  0  0  0  0  2  0  0  0  0  0  0
  161.1440  207.1530  152.9750 C   0  0  0  0  0  3  0  0  0  0  0  0
  161.0540  203.9030  148.8500 C   0  0  0  0  0  3  0  0  0  0  0  0
  161.5510  209.4680  152.3970 C   0  0  0  0  0  0  0  0  0  0  0  0
  161.2240  209.8450  153.7030 C   0  0  0  0  0  3  0  0  0  0  0  0
  162.4780  208.5470  148.3350 C   0  0  0  0  0  2  0  0  0  0  0  0
  161.6580  206.2380  148.6260 C   0  0  0  0  0  0  0  0  0  0  0  0
  161.3630  205.0020  148.0450 C   0  0  0  0  0  3  0  0  0  0  0  0
  160.5730  211.1650  147.7020 C   0  0  0  0  0  1  0  0  0  0  0  0
  162.0590  211.4240  147.9060 C   0  0  1  0  0  3  0  0  0  0  0  0
  160.1280  214.1130  148.1990 C   0  0  0  0  0  0  0  0  0  0  0  0
  162.5360  213.8590  148.4070 C   0  0  0  0  0  2  0  0  0  0  0  0
  161.3190  212.4090  145.2040 F   0  0  0  0  0  0  0  0  0  0  0  0
  158.8110  214.4530  148.7960 C   0  0  0  0  0  1  0  0  0  0  0  0
  161.2030  214.1810  148.9280 N   0  0  0  0  0  0  0  0  0  0  0  0
  161.4820  213.2950  146.2530 C   0  0  2  0  0  3  0  0  0  0  0  0
  162.4690  212.7830  147.3130 C   0  0  2  0  0  3  0  0  0  0  0  0
  160.1920  213.6080  146.8620 N   0  0  0  0  0  2  0  0  0  0  0  0
  1  6  1  0  0  0  0
  1  9  1  0  0  0  0
  2  3  1  6  0  0  0
  2  5  1  0  0  0  0
  3  7  1  0  0  0  0
  4  7  2  0  0  0  0
  4 11  1  0  0  0  0
  5 17  2  0  0  0  0
  5 15  1  0  0  0  0
  8 12  2  0  0  0  0
 10 19  1  0  0  0  0
 10 20  1  0  0  0  0
 12 17  1  0  0  0  0
 13 19  1  6  0  0  0
 13  8  1  0  0  0  0
 13  2  1  0  0  0  0
 14  8  1  0  0  0  0
 15  1  2  0  0  0  0
 16  4  1  0  0  0  0
 17 18  1  0  0  0  0
 18  6  2  0  0  0  0
 20  3  2  0  0  0  0
 21 20  1  0  0  0  0
 21 16  2  0  0  0  0
 23 22  1  1  0  0  0
 23 14  1  0  0  0  0
 24 27  1  0  0  0  0
 24 28  2  0  0  0  0
 25 28  1  0  0  0  0
 29 26  1  6  0  0  0
 29 31  1  0  0  0  0
 29 30  1  0  0  0  0
 30 23  1  1  0  0  0
 30 25  1  0  0  0  0
 31 24  1  0  0  0  0
M  END
>  <MODEL>
3

>  <REMARK>
 VINA RESULT:      -6.5      1.694      2.363
  Name = 
  2 active torsions:
  status: ('A' for Active; 'I' for Inactive)
    1  A    between atoms: C_5  and  N_16
    2  A    between atoms: C_5  and  C_30
                            x       y       z     vdW  Elec       q    Type
                         _______ _______ _______ _____ _____    ______ ____

>  <TORSDO>
F 2

$$$$
=
 OpenBabel11122413083D

 31 35  0  0  1  0  0  0  0  0999 V2000
  160.7810  207.2950  154.4760 C   0  0  0  0  0  0  0  0  0  0  0  0
  161.7710  208.1740  150.8670 C   0  0  2  0  0  3  0  0  0  0  0  0
  161.4650  206.9020  150.0790 C   0  0  0  0  0  0  0  0  0  0  0  0
  161.1120  204.4960  149.9340 C   0  0  0  0  0  0  0  0  0  0  0  0
  161.3070  208.2740  152.3100 C   0  0  0  0  0  0  0  0  0  0  0  0
  160.7290  208.5680  155.0470 C   0  0  0  0  0  3  0  0  0  0  0  0
  161.3250  205.6480  150.6940 C   0  0  0  0  0  3  0  0  0  0  0  0
  161.6120  210.7110  150.8190 C   0  0  0  0  0  0  0  0  0  0  0  0
  160.5420  206.1730  155.2580 O   0  0  0  0  0  1  0  0  0  0  0  0
  161.6630  208.1850  148.0110 O   0  0  0  0  0  0  0  0  0  0  0  0
  160.9540  203.2690  150.5620 O   0  0  0  0  0  1  0  0  0  0  0  0
  161.5270  210.7230  152.1150 N   0  0  0  0  0  0  0  0  0  0  0  0
  161.3520  209.4200  150.0590 C   0  0  1  0  0  3  0  0  0  0  0  0
  161.7630  211.9700  150.1480 N   0  0  0  0  0  2  0  0  0  0  0  0
  161.0850  207.1500  153.1210 C   0  0  0  0  0  3  0  0  0  0  0  0
  161.0620  204.5790  148.5410 C   0  0  0  0  0  3  0  0  0  0  0  0
  161.2710  209.5530  152.9010 C   0  0  0  0  0  0  0  0  0  0  0  0
  160.9780  209.6940  154.2610 C   0  0  0  0  0  3  0  0  0  0  0  0
  162.0710  209.3550  148.7150 C   0  0  0  0  0  2  0  0  0  0  0  0
  161.4600  206.9650  148.6670 C   0  0  0  0  0  0  0  0  0  0  0  0
  161.2390  205.8120  147.9090 C   0  0  0  0  0  3  0  0  0  0  0  0
  159.8900  212.4240  148.6800 C   0  0  0  0  0  1  0  0  0  0  0  0
  161.3960  212.2150  148.7590 C   0  0  1  0  0  3  0  0  0  0  0  0
  161.1510  213.1140  145.5690 C   0  0  0  0  0  0  0  0  0  0  0  0
  161.1780  214.4530  147.5960 C   0  0  0  0  0  2  0  0  0  0  0  0
  164.0840  212.1310  147.4990 F   0  0  0  0  0  0  0  0  0  0  0  0
  160.4520  212.6350  144.3490 C   0  0  0  0  0  1  0  0  0  0  0  0
  160.5500  213.9400  146.3750 N   0  0  0  0  0  0  0  0  0  0  0  0
  163.1450  213.0600  147.0890 C   0  0  2  0  0  3  0  0  0  0  0  0
  162.1530  213.4320  148.2020 C   0  0  2  0  0  3  0  0  0  0  0  0
  162.4340  212.5790  145.9080 N   0  0  0  0  0  2  0  0  0  0  0  0
  1  6  1  0  0  0  0
  1  9  1  0  0  0  0
  2  3  1  6  0  0  0
  2  5  1  0  0  0  0
  3  7  1  0  0  0  0
  4 11  1  0  0  0  0
  4  7  2  0  0  0  0
  5 17  2  0  0  0  0
  5 15  1  0  0  0  0
  8 12  2  0  0  0  0
 10 20  1  0  0  0  0
 10 19  1  0  0  0  0
 12 17  1  0  0  0  0
 13 19  1  6  0  0  0
 13  8  1  0  0  0  0
 13  2  1  0  0  0  0
 14  8  1  0  0  0  0
 15  1  2  0  0  0  0
 16  4  1  0  0  0  0
 17 18  1  0  0  0  0
 18  6  2  0  0  0  0
 20  3  2  0  0  0  0
 21 16  2  0  0  0  0
 21 20  1  0  0  0  0
 23 22  1  1  0  0  0
 23 14  1  0  0  0  0
 24 31  1  0  0  0  0
 24 28  2  0  0  0  0
 25 30  1  0  0  0  0
 27 24  1  0  0  0  0
 28 25  1  0  0  0  0
 29 26  1  1  0  0  0
 29 30  1  0  0  0  0
 30 23  1  6  0  0  0
 31 29  1  0  0  0  0
M  END
>  <MODEL>
4

>  <REMARK>
 VINA RESULT:      -6.5      1.358      1.659
  Name = 
  2 active torsions:
  status: ('A' for Active; 'I' for Inactive)
    1  A    between atoms: C_5  and  N_16
    2  A    between atoms: C_5  and  C_30
                            x       y       z     vdW  Elec       q    Type
                         _______ _______ _______ _____ _____    ______ ____

>  <TORSDO>
F 2

$$$$
=
 OpenBabel11122413083D

 31 35  0  0  1  0  0  0  0  0999 V2000
  161.0110  201.3710  149.7180 C   0  0  0  0  0  0  0  0  0  0  0  0
  161.6170  205.1210  149.1220 C   0  0  2  0  0  3  0  0  0  0  0  0
  161.2180  205.3330  147.6640 C   0  0  0  0  0  0  0  0  0  0  0  0
  160.8280  204.5200  145.4010 C   0  0  0  0  0  0  0  0  0  0  0  0
  161.3110  203.7860  149.7820 C   0  0  0  0  0  0  0  0  0  0  0  0
  161.0310  201.3250  151.1120 C   0  0  0  0  0  3  0  0  0  0  0  0
  161.1320  204.2780  146.7430 C   0  0  0  0  0  3  0  0  0  0  0  0
  161.4780  206.1130  151.4590 C   0  0  0  0  0  0  0  0  0  0  0  0
  160.8450  200.2030  148.9860 O   0  0  0  0  0  1  0  0  0  0  0  0
  161.2060  207.7430  148.0630 O   0  0  0  0  0  0  0  0  0  0  0  0
  160.7270  203.4610  144.5110 O   0  0  0  0  0  1  0  0  0  0  0  0
  161.5330  204.9170  151.9630 N   0  0  0  0  0  0  0  0  0  0  0  0
  161.1270  206.2980  149.9920 C   0  0  1  0  0  3  0  0  0  0  0  0
  161.5690  207.2230  152.3640 N   0  0  0  0  0  2  0  0  0  0  0  0
  161.1660  202.5920  149.0580 C   0  0  0  0  0  3  0  0  0  0  0  0
  160.6310  205.8280  144.9560 C   0  0  0  0  0  3  0  0  0  0  0  0
  161.3510  203.7250  151.1890 C   0  0  0  0  0  0  0  0  0  0  0  0
  161.2060  202.4990  151.8460 C   0  0  0  0  0  3  0  0  0  0  0  0
  161.6980  207.5780  149.3900 C   0  0  0  0  0  2  0  0  0  0  0  0
  161.0620  206.6570  147.1910 C   0  0  0  0  0  0  0  0  0  0  0  0
  160.7510  206.8950  145.8490 C   0  0  0  0  0  3  0  0  0  0  0  0
  159.8690  208.8280  152.9950 C   0  0  0  0  0  1  0  0  0  0  0  0
  161.0590  208.5590  152.0850 C   0  0  1  0  0  3  0  0  0  0  0  0
  160.3370  211.7770  152.4930 C   0  0  0  0  0  0  0  0  0  0  0  0
  161.9650  210.3630  153.6120 C   0  0  0  0  0  2  0  0  0  0  0  0
  162.3300  210.1400  149.9160 F   0  0  0  0  0  0  0  0  0  0  0  0
  159.1190  212.6270  152.5380 C   0  0  0  0  0  1  0  0  0  0  0  0
  160.7710  211.2150  153.5820 N   0  0  0  0  0  0  0  0  0  0  0  0
  162.1700  210.6820  151.1790 C   0  0  2  0  0  3  0  0  0  0  0  0
  162.1580  209.6150  152.2840 C   0  0  2  0  0  3  0  0  0  0  0  0
  160.9580  211.4930  151.2350 N   0  0  0  0  0  2  0  0  0  0  0  0
  1  6  1  0  0  0  0
  2  3  1  6  0  0  0
  2  5  1  0  0  0  0
  2 13  1  0  0  0  0
  4  7  1  0  0  0  0
  5 17  2  0  0  0  0
  6 18  2  0  0  0  0
  7  3  2  0  0  0  0
  8 12  2  0  0  0  0
  8 14  1  0  0  0  0
  9  1  1  0  0  0  0
 10 19  1  0  0  0  0
 11  4  1  0  0  0  0
 13 19  1  6  0  0  0
 13  8  1  0  0  0  0
 15  1  2  0  0  0  0
 15  5  1  0  0  0  0
 16  4  2  0  0  0  0
 16 21  1  0  0  0  0
 17 18  1  0  0  0  0
 17 12  1  0  0  0  0
 20  3  1  0  0  0  0
 20 10  1  0  0  0  0
 21 20  2  0  0  0  0
 23 14  1  0  0  0  0
 23 22  1  1  0  0  0
 24 27  1  0  0  0  0
 24 28  2  0  0  0  0
 28 25  1  0  0  0  0
 29 26  1  6  0  0  0
 29 31  1  0  0  0  0
 29 30  1  0  0  0  0
 30 23  1  6  0  0  0
 30 25  1  0  0  0  0
 31 24  1  0  0  0  0
M  END
>  <MODEL>
5

>  <REMARK>
 VINA RESULT:      -6.4      3.188      6.028
  Name = 
  2 active torsions:
  status: ('A' for Active; 'I' for Inactive)
    1  A    between atoms: C_5  and  N_16
    2  A    between atoms: C_5  and  C_30
                            x       y       z     vdW  Elec       q    Type
                         _______ _______ _______ _____ _____    ______ ____

>  <TORSDO>
F 2

$$$$
=
 OpenBabel11122413083D

 31 35  0  0  1  0  0  0  0  0999 V2000
  161.7930  204.7180  145.8620 C   0  0  0  0  0  0  0  0  0  0  0  0
  160.8690  205.2020  149.5620 C   0  0  2  0  0  3  0  0  0  0  0  0
  161.0540  203.8160  150.1750 C   0  0  0  0  0  0  0  0  0  0  0  0
  161.1890  201.3900  150.0030 C   0  0  0  0  0  0  0  0  0  0  0  0
  161.3470  205.4480  148.1410 C   0  0  0  0  0  0  0  0  0  0  0  0
  161.9630  206.0440  145.4630 C   0  0  0  0  0  3  0  0  0  0  0  0
  161.0840  202.6460  149.4000 C   0  0  0  0  0  3  0  0  0  0  0  0
  161.2550  207.6870  149.9400 C   0  0  0  0  0  0  0  0  0  0  0  0
  161.9350  203.6900  144.9400 O   0  0  0  0  0  1  0  0  0  0  0  0
  160.9620  204.8310  152.3940 O   0  0  0  0  0  0  0  0  0  0  0  0
  161.2390  200.2470  149.2180 O   0  0  0  0  0  1  0  0  0  0  0  0
  161.3470  207.8610  148.6560 N   0  0  0  0  0  0  0  0  0  0  0  0
  161.3930  206.2900  150.5230 C   0  0  1  0  0  3  0  0  0  0  0  0
  161.2140  208.8560  150.7700 N   0  0  0  0  0  2  0  0  0  0  0  0
  161.4720  204.4250  147.1890 C   0  0  0  0  0  3  0  0  0  0  0  0
  161.2390  201.2860  151.3940 C   0  0  0  0  0  3  0  0  0  0  0  0
  161.5010  206.7850  147.7220 C   0  0  0  0  0  0  0  0  0  0  0  0
  161.8120  207.0760  146.3900 C   0  0  0  0  0  3  0  0  0  0  0  0
  160.6650  206.1150  151.8520 C   0  0  0  0  0  2  0  0  0  0  0  0
  161.0580  203.6940  151.5840 C   0  0  0  0  0  0  0  0  0  0  0  0
  161.1700  202.4360  152.1830 C   0  0  0  0  0  3  0  0  0  0  0  0
  162.7300  209.8800  152.3580 C   0  0  0  0  0  1  0  0  0  0  0  0
  161.5940  208.8830  152.1770 C   0  0  1  0  0  3  0  0  0  0  0  0
  161.9820  210.3090  155.1540 C   0  0  0  0  0  0  0  0  0  0  0  0
  160.3830  210.7540  153.3790 C   0  0  0  0  0  2  0  0  0  0  0  0
  160.4080  207.1410  154.2690 F   0  0  0  0  0  0  0  0  0  0  0  0
  163.1080  210.7510  156.0160 C   0  0  0  0  0  1  0  0  0  0  0  0
  161.4930  211.1220  154.2640 N   0  0  0  0  0  0  0  0  0  0  0  0
  160.3930  208.5170  154.4100 C   0  0  2  0  0  3  0  0  0  0  0  0
  160.3900  209.2510  153.0600 C   0  0  2  0  0  3  0  0  0  0  0  0
  161.5160  208.9580  155.2310 N   0  0  0  0  0  2  0  0  0  0  0  0
  1 15  1  0  0  0  0
  2  5  1  6  0  0  0
  2  3  1  0  0  0  0
  2 13  1  0  0  0  0
  3 20  1  0  0  0  0
  4 16  2  0  0  0  0
  6  1  2  0  0  0  0
  6 18  1  0  0  0  0
  7  4  1  0  0  0  0
  7  3  2  0  0  0  0
  8 13  1  0  0  0  0
  8 14  1  0  0  0  0
  9  1  1  0  0  0  0
 11  4  1  0  0  0  0
 12  8  2  0  0  0  0
 13 19  1  1  0  0  0
 14 23  1  0  0  0  0
 15  5  2  0  0  0  0
 16 21  1  0  0  0  0
 17  5  1  0  0  0  0
 17 12  1  0  0  0  0
 18 17  2  0  0  0  0
 19 10  1  0  0  0  0
 20 21  2  0  0  0  0
 20 10  1  0  0  0  0
 23 22  1  6  0  0  0
 24 31  1  0  0  0  0
 24 27  1  0  0  0  0
 25 28  1  0  0  0  0
 28 24  2  0  0  0  0
 29 26  1  6  0  0  0
 29 31  1  0  0  0  0
 30 23  1  1  0  0  0
 30 25  1  0  0  0  0
 30 29  1  0  0  0  0
M  END
>  <MODEL>
6

>  <REMARK>
 VINA RESULT:      -6.2      3.519      6.927
  Name = 
  2 active torsions:
  status: ('A' for Active; 'I' for Inactive)
    1  A    between atoms: C_5  and  N_16
    2  A    between atoms: C_5  and  C_30
                            x       y       z     vdW  Elec       q    Type
                         _______ _______ _______ _____ _____    ______ ____

>  <TORSDO>
F 2

$$$$
=
 OpenBabel11122413083D

 31 35  0  0  1  0  0  0  0  0999 V2000
  160.8790  202.5920  150.0450 C   0  0  0  0  0  0  0  0  0  0  0  0
  161.7800  206.1960  151.0340 C   0  0  2  0  0  3  0  0  0  0  0  0
  161.7150  206.9680  149.7180 C   0  0  0  0  0  0  0  0  0  0  0  0
  161.7840  207.0810  147.2860 C   0  0  0  0  0  0  0  0  0  0  0  0
  161.2750  204.7630  151.0710 C   0  0  0  0  0  0  0  0  0  0  0  0
  160.5970  202.0430  151.2960 C   0  0  0  0  0  3  0  0  0  0  0  0
  161.7790  206.3350  148.4670 C   0  0  0  0  0  3  0  0  0  0  0  0
  161.1890  206.2890  153.5050 C   0  0  0  0  0  0  0  0  0  0  0  0
  160.8200  201.7970  148.9080 O   0  0  0  0  0  1  0  0  0  0  0  0
  161.7340  209.0530  150.9900 O   0  0  0  0  0  0  0  0  0  0  0  0
  161.8250  206.4360  146.0590 O   0  0  0  0  0  1  0  0  0  0  0  0
  161.0760  204.9940  153.5190 N   0  0  0  0  0  0  0  0  0  0  0  0
  161.1710  207.0320  152.1790 C   0  0  1  0  0  3  0  0  0  0  0  0
  161.1360  206.9770  154.7620 N   0  0  0  0  0  2  0  0  0  0  0  0
  161.2320  203.9390  149.9370 C   0  0  0  0  0  3  0  0  0  0  0  0
  161.7500  208.4750  147.3410 C   0  0  0  0  0  3  0  0  0  0  0  0
  161.0080  204.1950  152.3320 C   0  0  0  0  0  0  0  0  0  0  0  0
  160.6660  202.8420  152.4380 C   0  0  0  0  0  3  0  0  0  0  0  0
  161.9190  208.3610  152.2210 C   0  0  0  0  0  2  0  0  0  0  0  0
  161.7290  208.3810  149.7620 C   0  0  0  0  0  0  0  0  0  0  0  0
  161.7260  209.1240  148.5780 C   0  0  0  0  0  3  0  0  0  0  0  0
  159.3030  208.4480  155.3480 C   0  0  0  0  0  1  0  0  0  0  0  0
  160.7620  208.3760  154.9220 C   0  0  1  0  0  3  0  0  0  0  0  0
  159.9900  211.3330  156.2270 C   0  0  0  0  0  0  0  0  0  0  0  0
  160.9160  209.3380  157.2590 C   0  0  0  0  0  2  0  0  0  0  0  0
  162.9010  210.3320  154.2730 F   0  0  0  0  0  0  0  0  0  0  0  0
  158.8970  212.3320  156.1010 C   0  0  0  0  0  1  0  0  0  0  0  0
  159.8780  210.3590  157.0820 N   0  0  0  0  0  0  0  0  0  0  0  0
  162.1990  210.4280  155.4620 C   0  0  2  0  0  3  0  0  0  0  0  0
  161.6730  209.0700  155.9500 C   0  0  2  0  0  3  0  0  0  0  0  0
  161.1050  211.3860  155.3320 N   0  0  0  0  0  2  0  0  0  0  0  0
  1  6  1  0  0  0  0
  2  3  1  6  0  0  0
  2  5  1  0  0  0  0
  2 13  1  0  0  0  0
  3 20  1  0  0  0  0
  4 16  2  0  0  0  0
  4  7  1  0  0  0  0
  5 17  2  0  0  0  0
  6 18  2  0  0  0  0
  7  3  2  0  0  0  0
  8 12  2  0  0  0  0
  8 14  1  0  0  0  0
  9  1  1  0  0  0  0
 10 19  1  0  0  0  0
 11  4  1  0  0  0  0
 13 19  1  1  0  0  0
 13  8  1  0  0  0  0
 14 23  1  0  0  0  0
 15  1  2  0  0  0  0
 15  5  1  0  0  0  0
 16 21  1  0  0  0  0
 17 18  1  0  0  0  0
 17 12  1  0  0  0  0
 20 10  1  0  0  0  0
 21 20  2  0  0  0  0
 23 22  1  1  0  0  0
 24 28  2  0  0  0  0
 27 24  1  0  0  0  0
 28 25  1  0  0  0  0
 29 26  1  6  0  0  0
 29 30  1  0  0  0  0
 30 23  1  6  0  0  0
 30 25  1  0  0  0  0
 31 29  1  0  0  0  0
 31 24  1  0  0  0  0
M  END
>  <MODEL>
7

>  <REMARK>
 VINA RESULT:      -6.0      3.662      6.614
  Name = 
  2 active torsions:
  status: ('A' for Active; 'I' for Inactive)
    1  A    between atoms: C_5  and  N_16
    2  A    between atoms: C_5  and  C_30
                            x       y       z     vdW  Elec       q    Type
                         _______ _______ _______ _____ _____    ______ ____

>  <TORSDO>
F 2

$$$$
=
 OpenBabel11122413083D

 31 35  0  0  1  0  0  0  0  0999 V2000
  161.2550  204.6570  150.4140 C   0  0  0  0  0  0  0  0  0  0  0  0
  160.9930  208.4360  151.0700 C   0  0  2  0  0  3  0  0  0  0  0  0
  161.1450  208.5600  152.5830 C   0  0  0  0  0  0  0  0  0  0  0  0
  161.0230  207.6480  154.8390 C   0  0  0  0  0  0  0  0  0  0  0  0
  161.2550  207.0910  150.4120 C   0  0  0  0  0  0  0  0  0  0  0  0
  161.4810  204.6490  149.0370 C   0  0  0  0  0  3  0  0  0  0  0  0
  160.9400  207.4790  153.4550 C   0  0  0  0  0  3  0  0  0  0  0  0
  161.6660  209.4630  148.8430 C   0  0  0  0  0  0  0  0  0  0  0  0
  161.1480  203.4590  151.1070 O   0  0  0  0  0  1  0  0  0  0  0  0
  161.5100  210.9590  152.3070 O   0  0  0  0  0  0  0  0  0  0  0  0
  160.8380  206.5620  155.6820 O   0  0  0  0  0  1  0  0  0  0  0  0
  161.5630  208.2960  148.2820 N   0  0  0  0  0  0  0  0  0  0  0  0
  161.7660  209.5650  150.3560 C   0  0  1  0  0  3  0  0  0  0  0  0
  161.8700  210.5980  147.9900 N   0  0  0  0  0  2  0  0  0  0  0  0
  161.1270  205.8710  151.0930 C   0  0  0  0  0  3  0  0  0  0  0  0
  161.2890  208.9100  155.3730 C   0  0  0  0  0  3  0  0  0  0  0  0
  161.4630  207.0710  149.0180 C   0  0  0  0  0  0  0  0  0  0  0  0
  161.5790  205.8540  148.3400 C   0  0  0  0  0  3  0  0  0  0  0  0
  161.2500  210.8900  150.9080 C   0  0  0  0  0  2  0  0  0  0  0  0
  161.3670  209.8420  153.1380 C   0  0  0  0  0  0  0  0  0  0  0  0
  161.4570  210.0050  154.5240 C   0  0  0  0  0  3  0  0  0  0  0  0
  163.9870  211.7320  148.3010 C   0  0  0  0  0  1  0  0  0  0  0  0
  162.4750  211.8530  148.4170 C   0  0  1  0  0  3  0  0  0  0  0  0
  160.0930  213.8820  149.5390 C   0  0  0  0  0  0  0  0  0  0  0  0
  162.1350  214.3600  148.3130 C   0  0  0  0  0  2  0  0  0  0  0  0
  160.1350  211.7370  146.5900 F   0  0  0  0  0  0  0  0  0  0  0  0
  159.2610  214.0180  150.7620 C   0  0  0  0  0  1  0  0  0  0  0  0
  161.2600  214.4530  149.4860 N   0  0  0  0  0  0  0  0  0  0  0  0
  160.4500  212.9090  147.2560 C   0  0  2  0  0  3  0  0  0  0  0  0
  161.9480  213.0270  147.5730 C   0  0  2  0  0  3  0  0  0  0  0  0
  159.6550  213.0320  148.4740 N   0  0  0  0  0  2  0  0  0  0  0  0
  1 15  1  0  0  0  0
  1  9  1  0  0  0  0
  2  5  1  6  0  0  0
  2  3  1  0  0  0  0
  3 20  2  0  0  0  0
  3  7  1  0  0  0  0
  4 16  1  0  0  0  0
  4 11  1  0  0  0  0
  5 15  2  0  0  0  0
  6  1  2  0  0  0  0
  7  4  2  0  0  0  0
  8 13  1  0  0  0  0
 10 20  1  0  0  0  0
 12  8  2  0  0  0  0
 12 17  1  0  0  0  0
 13 19  1  1  0  0  0
 13  2  1  0  0  0  0
 14 23  1  0  0  0  0
 14  8  1  0  0  0  0
 17  5  1  0  0  0  0
 18 17  2  0  0  0  0
 18  6  1  0  0  0  0
 19 10  1  0  0  0  0
 20 21  1  0  0  0  0
 21 16  2  0  0  0  0
 23 22  1  6  0  0  0
 24 27  1  0  0  0  0
 25 28  1  0  0  0  0
 28 24  2  0  0  0  0
 29 26  1  1  0  0  0
 29 30  1  0  0  0  0
 29 31  1  0  0  0  0
 30 25  1  0  0  0  0
 30 23  1  1  0  0  0
 31 24  1  0  0  0  0
M  END
>  <MODEL>
8

>  <REMARK>
 VINA RESULT:      -6.0      1.850      4.585
  Name = 
  2 active torsions:
  status: ('A' for Active; 'I' for Inactive)
    1  A    between atoms: C_5  and  N_16
    2  A    between atoms: C_5  and  C_30
                            x       y       z     vdW  Elec       q    Type
                         _______ _______ _______ _____ _____    ______ ____

>  <TORSDO>
F 2

$$$$
=
 OpenBabel11122413083D

 31 35  0  0  1  0  0  0  0  0999 V2000
  161.1810  211.0800  152.1980 C   0  0  0  0  0  0  0  0  0  0  0  0
  161.8330  207.5620  150.7920 C   0  0  2  0  0  3  0  0  0  0  0  0
  161.3950  206.6270  151.9170 C   0  0  0  0  0  0  0  0  0  0  0  0
  160.9260  206.1550  154.2600 C   0  0  0  0  0  0  0  0  0  0  0  0
  161.5230  209.0450  150.9070 C   0  0  0  0  0  0  0  0  0  0  0  0
  161.2410  211.8410  151.0290 C   0  0  0  0  0  3  0  0  0  0  0  0
  161.2650  207.0550  153.2470 C   0  0  0  0  0  3  0  0  0  0  0  0
  161.7790  207.9190  148.2760 C   0  0  0  0  0  0  0  0  0  0  0  0
  160.9740  211.7020  153.4220 O   0  0  0  0  0  1  0  0  0  0  0  0
  161.4350  204.7700  150.3320 O   0  0  0  0  0  0  0  0  0  0  0  0
  160.7810  206.6020  155.5650 O   0  0  0  0  0  1  0  0  0  0  0  0
  161.8280  209.2040  148.4640 N   0  0  0  0  0  0  0  0  0  0  0  0
  161.3880  207.0040  149.4240 C   0  0  1  0  0  3  0  0  0  0  0  0
  161.9150  207.4360  146.9320 N   0  0  0  0  0  2  0  0  0  0  0  0
  161.3370  209.6940  152.1370 C   0  0  0  0  0  3  0  0  0  0  0  0
  160.7370  204.8040  153.9590 C   0  0  0  0  0  3  0  0  0  0  0  0
  161.6030  209.8250  149.7350 C   0  0  0  0  0  0  0  0  0  0  0  0
  161.4570  211.2140  149.8010 C   0  0  0  0  0  3  0  0  0  0  0  0
  161.9630  205.5960  149.2980 C   0  0  0  0  0  2  0  0  0  0  0  0
  161.2480  205.2490  151.6330 C   0  0  0  0  0  0  0  0  0  0  0  0
  160.9020  204.3530  152.6480 C   0  0  0  0  0  3  0  0  0  0  0  0
  159.9500  206.2950  146.0910 C   0  0  0  0  0  1  0  0  0  0  0  0
  161.4190  206.1490  146.4630 C   0  0  1  0  0  3  0  0  0  0  0  0
  161.1020  203.0550  145.2910 C   0  0  0  0  0  0  0  0  0  0  0  0
  161.3290  205.1760  144.1270 C   0  0  0  0  0  2  0  0  0  0  0  0
  164.0310  204.7480  146.6490 F   0  0  0  0  0  0  0  0  0  0  0  0
  160.3110  201.8390  145.6140 C   0  0  0  0  0  1  0  0  0  0  0  0
  160.6070  203.9520  144.4900 N   0  0  0  0  0  0  0  0  0  0  0  0
  163.1520  204.4610  145.6210 C   0  0  2  0  0  3  0  0  0  0  0  0
  162.2450  205.6490  145.2660 C   0  0  2  0  0  3  0  0  0  0  0  0
  162.3520  203.2840  145.9480 N   0  0  0  0  0  2  0  0  0  0  0  0
  1  9  1  0  0  0  0
  2  5  1  1  0  0  0
  2  3  1  0  0  0  0
  3  7  1  0  0  0  0
  4 11  1  0  0  0  0
  5 15  2  0  0  0  0
  6  1  2  0  0  0  0
  7  4  2  0  0  0  0
  8 12  2  0  0  0  0
  8 13  1  0  0  0  0
 10 20  1  0  0  0  0
 12 17  1  0  0  0  0
 13 19  1  6  0  0  0
 13  2  1  0  0  0  0
 14  8  1  0  0  0  0
 15  1  1  0  0  0  0
 16  4  1  0  0  0  0
 17 18  2  0  0  0  0
 17  5  1  0  0  0  0
 18  6  1  0  0  0  0
 19 10  1  0  0  0  0
 20  3  2  0  0  0  0
 20 21  1  0  0  0  0
 21 16  2  0  0  0  0
 23 22  1  6  0  0  0
 23 14  1  0  0  0  0
 24 27  1  0  0  0  0
 24 31  1  0  0  0  0
 25 28  1  0  0  0  0
 25 30  1  0  0  0  0
 28 24  2  0  0  0  0
 29 31  1  0  0  0  0
 29 26  1  1  0  0  0
 30 29  1  0  0  0  0
 30 23  1  1  0  0  0
M  END
>  <MODEL>
9

>  <REMARK>
 VINA RESULT:      -5.9      3.855      6.285
  Name = 
  2 active torsions:
  status: ('A' for Active; 'I' for Inactive)
    1  A    between atoms: C_5  and  N_16
    2  A    between atoms: C_5  and  C_30
                            x       y       z     vdW  Elec       q    Type
                         _______ _______ _______ _____ _____    ______ ____

>  <TORSDO>
F 2

$$$$
