=
 OpenBabel11122414343D

 34 41  0  0  1  0  0  0  0  0999 V2000
  161.8350  207.3680  149.1190 C   0  0  0  0  0  0  0  0  0  0  0  0
  162.0380  209.5150  150.4380 C   0  0  0  0  0  3  0  0  0  0  0  0
  161.0910  200.9480  148.8680 C   0  0  0  0  0  0  0  0  0  0  0  0
  161.2320  205.2920  148.0560 C   0  0  0  0  0  0  0  0  0  0  0  0
  160.6160  203.2970  149.3510 C   0  0  0  0  0  0  0  0  0  0  0  0
  160.4420  201.2630  150.7450 C   0  0  0  0  0  2  0  0  0  0  0  0
  161.2870  200.3000  150.1420 O   0  0  0  0  0  0  0  0  0  0  0  0
  161.1980  201.8060  146.6150 C   0  0  0  0  0  3  0  0  0  0  0  0
  162.2290  207.4950  151.6180 C   0  0  2  0  0  3  0  0  0  0  0  0
  160.5980  207.4850  154.3900 C   0  0  0  0  0  3  0  0  0  0  0  0
  160.4850  204.1980  150.5610 C   0  0  0  0  0  2  0  0  0  0  0  0
  160.9040  203.0980  146.8410 C   0  0  0  0  0  3  0  0  0  0  0  0
  161.3050  206.2710  151.7380 C   0  0  1  0  0  3  0  0  0  0  0  0
  161.9850  209.8610  151.7120 C   0  0  0  0  0  3  0  0  0  0  0  0
  160.9030  203.8460  148.1350 C   0  0  0  0  0  0  0  0  0  0  0  0
  161.5600  200.8210  147.6410 C   0  0  0  0  0  3  0  0  0  0  0  0
  160.5960  208.5280  153.3040 C   0  0  2  0  0  3  0  0  0  0  0  0
  161.5140  206.0120  149.2270 C   0  0  0  0  0  0  0  0  0  0  0  0
  160.1240  201.8810  149.4890 C   0  0  2  0  0  3  0  0  0  0  0  0
  161.5390  205.3060  150.5620 C   0  0  2  0  0  3  0  0  0  0  0  0
  161.5630  207.2610  146.7740 C   0  0  0  0  0  3  0  0  0  0  0  0
  161.0000  206.2100  154.2660 C   0  0  0  0  0  3  0  0  0  0  0  0
  161.2660  205.9360  146.8560 N   0  0  0  0  0  0  0  0  0  0  0  0
  161.6160  205.5640  153.0520 C   0  0  0  0  0  2  0  0  0  0  0  0
  161.9630  208.6510  152.6080 C   0  0  1  0  0  3  0  0  0  0  0  0
  161.8420  207.9690  147.9000 N   0  0  0  0  0  0  0  0  0  0  0  0
  162.1120  208.1090  150.3080 N   0  0  0  0  0  0  0  0  0  0  0  0
  160.2110  209.7510  153.8600 O   0  0  0  0  0  0  0  0  0  0  0  0
  159.9500  209.4680  155.2070 C   0  0  0  0  0  2  0  0  0  0  0  0
  162.7640  209.5520  157.0150 O   0  0  0  0  0  0  0  0  0  0  0  0
  161.8790  211.0340  155.4050 C   0  0  0  0  0  2  0  0  0  0  0  0
  160.7330  210.3960  156.1310 C   0  0  2  0  0  3  0  0  0  0  0  0
  163.0730  210.6950  156.2650 C   0  0  0  0  0  2  0  0  0  0  0  0
  161.3840  209.6280  157.2610 C   0  0  0  0  0  2  0  0  0  0  0  0
  1 18  1  0  0  0  0
  1 27  1  0  0  0  0
  2 14  2  0  0  0  0
  3 19  1  0  0  0  0
  3  7  1  0  0  0  0
  4 15  1  0  0  0  0
  4 18  2  0  0  0  0
  5 19  1  0  0  0  0
  5 11  1  0  0  0  0
  7  6  1  0  0  0  0
  8 12  2  0  0  0  0
  8 16  1  0  0  0  0
  9 27  1  6  0  0  0
  9 13  1  0  0  0  0
  9 25  1  0  0  0  0
 12 15  1  0  0  0  0
 13 24  1  1  0  0  0
 15  5  2  0  0  0  0
 16  3  2  0  0  0  0
 17 28  1  1  0  0  0
 17 10  1  0  0  0  0
 18 20  1  0  0  0  0
 19  6  1  1  0  0  0
 20 11  1  6  0  0  0
 20 13  1  0  0  0  0
 21 23  2  0  0  0  0
 21 26  1  0  0  0  0
 22 10  2  0  0  0  0
 23  4  1  0  0  0  0
 24 22  1  0  0  0  0
 25 14  1  6  0  0  0
 25 17  1  0  0  0  0
 26  1  2  0  0  0  0
 27  2  1  0  0  0  0
 28 29  1  0  0  0  0
 30 34  1  0  0  0  0
 31 32  1  0  0  0  0
 31 33  1  0  0  0  0
 32 29  1  6  0  0  0
 32 34  1  0  0  0  0
 33 30  1  0  0  0  0
M  END
>  <MODEL>
1

>  <REMARK>
 VINA RESULT:      -9.8      0.000      0.000
  Name = 
  3 active torsions:
  status: ('A' for Active; 'I' for Inactive)
    1  A    between atoms: C_17  and  O_28
    2  A    between atoms: O_28  and  C_29
    3  A    between atoms: C_29  and  C_32
                            x       y       z     vdW  Elec       q    Type
                         _______ _______ _______ _____ _____    ______ ____

>  <TORSDO>
F 3

$$$$
=
 OpenBabel11122414343D

 34 41  0  0  1  0  0  0  0  0999 V2000
  161.8310  207.1000  148.3950 C   0  0  0  0  0  0  0  0  0  0  0  0
  162.0590  209.4140  149.3890 C   0  0  0  0  0  3  0  0  0  0  0  0
  161.1530  200.7050  149.0790 C   0  0  0  0  0  0  0  0  0  0  0  0
  161.2130  204.8920  147.6590 C   0  0  0  0  0  0  0  0  0  0  0  0
  160.6690  203.0960  149.2450 C   0  0  0  0  0  0  0  0  0  0  0  0
  160.5720  201.2780  150.9170 C   0  0  0  0  0  2  0  0  0  0  0  0
  161.4050  200.2440  150.4230 O   0  0  0  0  0  0  0  0  0  0  0  0
  161.1650  201.2370  146.7250 C   0  0  0  0  0  3  0  0  0  0  0  0
  162.3180  207.5820  150.8330 C   0  0  2  0  0  3  0  0  0  0  0  0
  160.7920  207.9530  153.6400 C   0  0  0  0  0  3  0  0  0  0  0  0
  160.5730  204.1580  150.3190 C   0  0  0  0  0  2  0  0  0  0  0  0
  160.8660  202.5460  146.7790 C   0  0  0  0  0  3  0  0  0  0  0  0
  161.4130  206.3810  151.1610 C   0  0  1  0  0  3  0  0  0  0  0  0
  162.0490  209.9360  150.6030 C   0  0  0  0  0  3  0  0  0  0  0  0
  160.9040  203.4690  147.9530 C   0  0  0  0  0  0  0  0  0  0  0  0
  161.5770  200.4090  147.8650 C   0  0  0  0  0  3  0  0  0  0  0  0
  160.7370  208.8320  152.4190 C   0  0  2  0  0  3  0  0  0  0  0  0
  161.5300  205.7710  148.7050 C   0  0  0  0  0  0  0  0  0  0  0  0
  160.1990  201.7110  149.6000 C   0  0  2  0  0  3  0  0  0  0  0  0
  161.6130  205.2610  150.1230 C   0  0  2  0  0  3  0  0  0  0  0  0
  161.4720  206.6620  146.1010 C   0  0  0  0  0  3  0  0  0  0  0  0
  161.2040  206.6750  153.6820 C   0  0  0  0  0  3  0  0  0  0  0  0
  161.1950  205.3600  146.3800 N   0  0  0  0  0  0  0  0  0  0  0  0
  161.7810  205.8690  152.5470 C   0  0  0  0  0  2  0  0  0  0  0  0
  162.0760  208.8650  151.6600 C   0  0  1  0  0  3  0  0  0  0  0  0
  161.7850  207.5240  147.1040 N   0  0  0  0  0  0  0  0  0  0  0  0
  162.1450  208.0040  149.4550 N   0  0  0  0  0  0  0  0  0  0  0  0
  160.3590  210.1190  152.8120 O   0  0  0  0  0  0  0  0  0  0  0  0
  160.8420  210.2520  154.1200 C   0  0  0  0  0  2  0  0  0  0  0  0
  157.8310  211.7110  154.1180 O   0  0  0  0  0  0  0  0  0  0  0  0
  159.0250  210.5630  155.7990 C   0  0  0  0  0  2  0  0  0  0  0  0
  160.0170  211.2600  154.9160 C   0  0  2  0  0  3  0  0  0  0  0  0
  157.7080  211.1920  155.4150 C   0  0  0  0  0  2  0  0  0  0  0  0
  159.1680  212.1200  154.0040 C   0  0  0  0  0  2  0  0  0  0  0  0
  1 18  1  0  0  0  0
  1 27  1  0  0  0  0
  2 27  1  0  0  0  0
  2 14  2  0  0  0  0
  3 19  1  0  0  0  0
  3  7  1  0  0  0  0
  4 15  1  0  0  0  0
  4 18  2  0  0  0  0
  5 19  1  0  0  0  0
  5 11  1  0  0  0  0
  7  6  1  0  0  0  0
  8 12  2  0  0  0  0
  8 16  1  0  0  0  0
  9 27  1  6  0  0  0
  9 13  1  0  0  0  0
  9 25  1  0  0  0  0
 10 22  2  0  0  0  0
 12 15  1  0  0  0  0
 13 24  1  1  0  0  0
 15  5  2  0  0  0  0
 16  3  2  0  0  0  0
 17 28  1  1  0  0  0
 17 10  1  0  0  0  0
 18 20  1  0  0  0  0
 19  6  1  1  0  0  0
 20 11  1  6  0  0  0
 20 13  1  0  0  0  0
 21 23  2  0  0  0  0
 21 26  1  0  0  0  0
 23  4  1  0  0  0  0
 24 22  1  0  0  0  0
 25 14  1  6  0  0  0
 25 17  1  0  0  0  0
 26  1  2  0  0  0  0
 28 29  1  0  0  0  0
 30 33  1  0  0  0  0
 32 29  1  6  0  0  0
 32 31  1  0  0  0  0
 33 31  1  0  0  0  0
 34 30  1  0  0  0  0
 34 32  1  0  0  0  0
M  END
>  <MODEL>
2

>  <REMARK>
 VINA RESULT:      -9.8      1.363      1.854
  Name = 
  3 active torsions:
  status: ('A' for Active; 'I' for Inactive)
    1  A    between atoms: C_17  and  O_28
    2  A    between atoms: O_28  and  C_29
    3  A    between atoms: C_29  and  C_32
                            x       y       z     vdW  Elec       q    Type
                         _______ _______ _______ _____ _____    ______ ____

>  <TORSDO>
F 3

$$$$
=
 OpenBabel11122414343D

 34 41  0  0  1  0  0  0  0  0999 V2000
  160.7710  204.8520  151.5970 C   0  0  0  0  0  0  0  0  0  0  0  0
  160.7530  206.4760  153.5340 C   0  0  0  0  0  3  0  0  0  0  0  0
  161.1850  203.6310  145.2590 C   0  0  0  0  0  0  0  0  0  0  0  0
  161.2060  203.4630  149.6780 C   0  0  0  0  0  0  0  0  0  0  0  0
  161.8030  204.4140  147.4920 C   0  0  0  0  0  0  0  0  0  0  0  0
  161.9620  205.4860  145.2700 C   0  0  0  0  0  2  0  0  0  0  0  0
  161.0360  204.8090  144.4400 O   0  0  0  0  0  0  0  0  0  0  0  0
  160.9830  201.5370  146.4420 C   0  0  0  0  0  3  0  0  0  0  0  0
  160.5360  207.3640  151.3730 C   0  0  2  0  0  3  0  0  0  0  0  0
  162.3310  209.9890  150.8920 C   0  0  0  0  0  3  0  0  0  0  0  0
  162.0510  205.7280  148.2000 C   0  0  0  0  0  2  0  0  0  0  0  0
  161.3520  201.9260  147.6740 C   0  0  0  0  0  3  0  0  0  0  0  0
  161.4060  207.2440  150.1080 C   0  0  1  0  0  3  0  0  0  0  0  0
  160.9010  207.7800  153.6880 C   0  0  0  0  0  3  0  0  0  0  0  0
  161.4690  203.3110  148.2230 C   0  0  0  0  0  0  0  0  0  0  0  0
  160.6370  202.4330  145.3320 C   0  0  0  0  0  3  0  0  0  0  0  0
  162.3180  209.0660  152.0820 C   0  0  2  0  0  3  0  0  0  0  0  0
  161.0320  204.7410  150.2280 C   0  0  0  0  0  0  0  0  0  0  0  0
  162.2320  204.3130  146.0530 C   0  0  2  0  0  3  0  0  0  0  0  0
  161.0540  205.9590  149.3360 C   0  0  2  0  0  3  0  0  0  0  0  0
  160.8940  202.5030  151.8240 C   0  0  0  0  0  3  0  0  0  0  0  0
  161.8610  209.7110  149.6650 C   0  0  0  0  0  3  0  0  0  0  0  0
  161.1300  202.3730  150.4910 N   0  0  0  0  0  0  0  0  0  0  0  0
  161.1420  208.4600  149.2300 C   0  0  0  0  0  2  0  0  0  0  0  0
  160.9180  208.4890  152.3600 C   0  0  1  0  0  3  0  0  0  0  0  0
  160.7190  203.7350  152.3710 N   0  0  0  0  0  0  0  0  0  0  0  0
  160.6030  206.1510  152.1670 N   0  0  0  0  0  0  0  0  0  0  0  0
  162.7950  209.7660  153.1940 O   0  0  0  0  0  0  0  0  0  0  0  0
  161.7950  210.7020  153.4870 C   0  0  0  0  0  2  0  0  0  0  0  0
  160.4820  209.7430  156.4120 O   0  0  0  0  0  0  0  0  0  0  0  0
  162.7060  210.1710  155.7460 C   0  0  0  0  0  2  0  0  0  0  0  0
  161.8030  211.0780  154.9660 C   0  0  2  0  0  3  0  0  0  0  0  0
  161.8130  209.6430  156.8420 C   0  0  0  0  0  2  0  0  0  0  0  0
  160.4400  210.8820  155.5930 C   0  0  0  0  0  2  0  0  0  0  0  0
  1 27  1  0  0  0  0
  1 26  1  0  0  0  0
  2 14  2  0  0  0  0
  3 16  2  0  0  0  0
  3 19  1  0  0  0  0
  4 18  1  0  0  0  0
  4 23  2  0  0  0  0
  5 11  1  0  0  0  0
  5 15  2  0  0  0  0
  7  3  1  0  0  0  0
  7  6  1  0  0  0  0
  8 12  2  0  0  0  0
  9 27  1  1  0  0  0
  9 25  1  0  0  0  0
 10 17  1  0  0  0  0
 12 15  1  0  0  0  0
 13 24  1  6  0  0  0
 13  9  1  0  0  0  0
 15  4  1  0  0  0  0
 16  8  1  0  0  0  0
 17 25  1  0  0  0  0
 17 28  1  1  0  0  0
 18  1  2  0  0  0  0
 19  6  1  6  0  0  0
 19  5  1  0  0  0  0
 20 11  1  6  0  0  0
 20 13  1  0  0  0  0
 20 18  1  0  0  0  0
 21 26  2  0  0  0  0
 22 10  2  0  0  0  0
 23 21  1  0  0  0  0
 24 22  1  0  0  0  0
 25 14  1  1  0  0  0
 27  2  1  0  0  0  0
 28 29  1  0  0  0  0
 30 33  1  0  0  0  0
 31 33  1  0  0  0  0
 32 29  1  6  0  0  0
 32 34  1  0  0  0  0
 32 31  1  0  0  0  0
 34 30  1  0  0  0  0
M  END
>  <MODEL>
3

>  <REMARK>
 VINA RESULT:      -9.2      2.208      3.742
  Name = 
  3 active torsions:
  status: ('A' for Active; 'I' for Inactive)
    1  A    between atoms: C_17  and  O_28
    2  A    between atoms: O_28  and  C_29
    3  A    between atoms: C_29  and  C_32
                            x       y       z     vdW  Elec       q    Type
                         _______ _______ _______ _____ _____    ______ ____

>  <TORSDO>
F 3

$$$$
=
 OpenBabel11122414343D

 34 41  0  0  1  0  0  0  0  0999 V2000
  161.8180  207.3820  148.7140 C   0  0  0  0  0  0  0  0  0  0  0  0
  162.0610  209.7090  149.6740 C   0  0  0  0  0  3  0  0  0  0  0  0
  161.1220  201.0000  149.4940 C   0  0  0  0  0  0  0  0  0  0  0  0
  161.1870  205.1660  148.0140 C   0  0  0  0  0  0  0  0  0  0  0  0
  160.6470  203.3950  149.6290 C   0  0  0  0  0  0  0  0  0  0  0  0
  160.5550  201.6010  151.3270 C   0  0  0  0  0  2  0  0  0  0  0  0
  161.3810  200.5580  150.8430 O   0  0  0  0  0  0  0  0  0  0  0  0
  161.1200  201.4990  147.1330 C   0  0  0  0  0  3  0  0  0  0  0  0
  162.3220  207.8970  151.1430 C   0  0  2  0  0  3  0  0  0  0  0  0
  160.8170  208.3130  153.9540 C   0  0  0  0  0  3  0  0  0  0  0  0
  160.5620  204.4720  150.6890 C   0  0  0  0  0  2  0  0  0  0  0  0
  160.8260  202.8090  147.1700 C   0  0  0  0  0  3  0  0  0  0  0  0
  161.4160  206.7040  151.4930 C   0  0  1  0  0  3  0  0  0  0  0  0
  162.0610  210.2480  150.8800 C   0  0  0  0  0  3  0  0  0  0  0  0
  160.8750  203.7490  148.3310 C   0  0  0  0  0  0  0  0  0  0  0  0
  161.5370  200.6850  148.2810 C   0  0  0  0  0  3  0  0  0  0  0  0
  160.7570  209.1750  152.7210 C   0  0  2  0  0  3  0  0  0  0  0  0
  161.5140  206.0590  149.0450 C   0  0  0  0  0  0  0  0  0  0  0  0
  160.1750  202.0160  150.0070 C   0  0  2  0  0  3  0  0  0  0  0  0
  161.6050  205.5690  150.4700 C   0  0  2  0  0  3  0  0  0  0  0  0
  161.4420  206.9130  146.4290 C   0  0  0  0  0  3  0  0  0  0  0  0
  161.2240  207.0350  154.0110 C   0  0  0  0  0  3  0  0  0  0  0  0
  161.1620  205.6160  146.7290 N   0  0  0  0  0  0  0  0  0  0  0  0
  161.7910  206.2100  152.8840 C   0  0  0  0  0  2  0  0  0  0  0  0
  162.0910  209.1920  151.9530 C   0  0  1  0  0  3  0  0  0  0  0  0
  161.7650  207.7880  147.4180 N   0  0  0  0  0  0  0  0  0  0  0  0
  162.1420  208.3000  149.7600 N   0  0  0  0  0  0  0  0  0  0  0  0
  160.3870  210.4690  153.0980 O   0  0  0  0  0  0  0  0  0  0  0  0
  159.3600  210.2920  154.0350 C   0  0  0  0  0  2  0  0  0  0  0  0
  159.0840  213.5910  154.5170 O   0  0  0  0  0  0  0  0  0  0  0  0
  158.5070  212.2110  152.6910 C   0  0  0  0  0  2  0  0  0  0  0  0
  158.3320  211.4160  153.9500 C   0  0  2  0  0  3  0  0  0  0  0  0
  158.6420  213.6300  153.1860 C   0  0  0  0  0  2  0  0  0  0  0  0
  158.5250  212.4250  155.0610 C   0  0  0  0  0  2  0  0  0  0  0  0
  1 18  1  0  0  0  0
  1 27  1  0  0  0  0
  2 27  1  0  0  0  0
  2 14  2  0  0  0  0
  3 19  1  0  0  0  0
  3  7  1  0  0  0  0
  4 15  1  0  0  0  0
  4 18  2  0  0  0  0
  5 19  1  0  0  0  0
  5 11  1  0  0  0  0
  7  6  1  0  0  0  0
  8 12  2  0  0  0  0
  8 16  1  0  0  0  0
  9 27  1  6  0  0  0
  9 13  1  0  0  0  0
  9 25  1  0  0  0  0
 10 22  2  0  0  0  0
 12 15  1  0  0  0  0
 13 24  1  1  0  0  0
 15  5  2  0  0  0  0
 16  3  2  0  0  0  0
 17 28  1  1  0  0  0
 17 10  1  0  0  0  0
 18 20  1  0  0  0  0
 19  6  1  1  0  0  0
 20 11  1  1  0  0  0
 20 13  1  0  0  0  0
 21 23  2  0  0  0  0
 21 26  1  0  0  0  0
 23  4  1  0  0  0  0
 24 22  1  0  0  0  0
 25 14  1  6  0  0  0
 25 17  1  0  0  0  0
 26  1  2  0  0  0  0
 28 29  1  0  0  0  0
 30 34  1  0  0  0  0
 31 33  1  0  0  0  0
 31 32  1  0  0  0  0
 32 29  1  1  0  0  0
 32 34  1  0  0  0  0
 33 30  1  0  0  0  0
M  END
>  <MODEL>
4

>  <REMARK>
 VINA RESULT:      -9.1      1.585      2.029
  Name = 
  3 active torsions:
  status: ('A' for Active; 'I' for Inactive)
    1  A    between atoms: C_17  and  O_28
    2  A    between atoms: O_28  and  C_29
    3  A    between atoms: C_29  and  C_32
                            x       y       z     vdW  Elec       q    Type
                         _______ _______ _______ _____ _____    ______ ____

>  <TORSDO>
F 3

$$$$
=
 OpenBabel11122414343D

 34 41  0  0  1  0  0  0  0  0999 V2000
  161.9060  209.1120  150.9180 C   0  0  0  0  0  0  0  0  0  0  0  0
  161.8750  210.7570  152.8380 C   0  0  0  0  0  3  0  0  0  0  0  0
  161.3670  203.0820  148.6430 C   0  0  0  0  0  0  0  0  0  0  0  0
  161.5060  207.4660  149.2070 C   0  0  0  0  0  0  0  0  0  0  0  0
  160.7710  205.1830  149.7430 C   0  0  0  0  0  0  0  0  0  0  0  0
  160.4620  202.8260  150.4210 C   0  0  0  0  0  2  0  0  0  0  0  0
  161.4060  202.0760  149.6770 O   0  0  0  0  0  0  0  0  0  0  0  0
  161.7550  204.5790  146.7910 C   0  0  0  0  0  3  0  0  0  0  0  0
  161.9560  208.4730  153.3680 C   0  0  2  0  0  3  0  0  0  0  0  0
  159.9660  207.6530  155.7580 C   0  0  0  0  0  3  0  0  0  0  0  0
  160.4550  205.6790  151.1380 C   0  0  0  0  0  2  0  0  0  0  0  0
  161.4010  205.7460  147.3540 C   0  0  0  0  0  3  0  0  0  0  0  0
  161.0560  207.2850  152.9860 C   0  0  1  0  0  3  0  0  0  0  0  0
  161.6410  210.7030  154.1370 C   0  0  0  0  0  3  0  0  0  0  0  0
  161.2060  206.0680  148.8000 C   0  0  0  0  0  0  0  0  0  0  0  0
  162.0000  203.3240  147.5110 C   0  0  0  0  0  3  0  0  0  0  0  0
  160.0840  208.9750  155.0470 C   0  0  2  0  0  3  0  0  0  0  0  0
  161.6080  207.7930  150.5670 C   0  0  0  0  0  0  0  0  0  0  0  0
  160.3010  203.8000  149.3790 C   0  0  2  0  0  3  0  0  0  0  0  0
  161.4710  206.7160  151.6170 C   0  0  2  0  0  3  0  0  0  0  0  0
  161.9560  209.7230  148.6360 C   0  0  0  0  0  3  0  0  0  0  0  0
  160.4140  206.4670  155.3120 C   0  0  0  0  0  3  0  0  0  0  0  0
  161.6850  208.4410  148.2730 N   0  0  0  0  0  0  0  0  0  0  0  0
  161.2040  206.2090  154.0550 C   0  0  0  0  0  2  0  0  0  0  0  0
  161.5300  209.2800  154.6150 C   0  0  1  0  0  3  0  0  0  0  0  0
  162.0620  210.0540  149.9500 N   0  0  0  0  0  0  0  0  0  0  0  0
  162.0020  209.4560  152.3010 N   0  0  0  0  0  0  0  0  0  0  0  0
  159.5970  209.9790  155.8890 O   0  0  0  0  0  0  0  0  0  0  0  0
  158.2650  210.1620  155.4980 C   0  0  0  0  0  2  0  0  0  0  0  0
  159.7060  213.1790  155.3860 O   0  0  0  0  0  0  0  0  0  0  0  0
  158.0380  212.1780  154.0490 C   0  0  0  0  0  2  0  0  0  0  0  0
  157.9020  211.6430  155.4430 C   0  0  2  0  0  3  0  0  0  0  0  0
  158.9560  213.3640  154.2160 C   0  0  0  0  0  2  0  0  0  0  0  0
  158.8640  212.4770  156.2620 C   0  0  0  0  0  2  0  0  0  0  0  0
  1 27  1  0  0  0  0
  2 14  2  0  0  0  0
  3 19  1  0  0  0  0
  3  7  1  0  0  0  0
  4 18  2  0  0  0  0
  5 11  1  0  0  0  0
  7  6  1  0  0  0  0
  8 12  2  0  0  0  0
  8 16  1  0  0  0  0
  9 27  1  6  0  0  0
  9 25  1  0  0  0  0
 12 15  1  0  0  0  0
 13  9  1  0  0  0  0
 13 24  1  1  0  0  0
 15  4  1  0  0  0  0
 15  5  2  0  0  0  0
 16  3  2  0  0  0  0
 17 10  1  0  0  0  0
 17 28  1  1  0  0  0
 18  1  1  0  0  0  0
 18 20  1  0  0  0  0
 19  5  1  0  0  0  0
 19  6  1  1  0  0  0
 20 11  1  6  0  0  0
 20 13  1  0  0  0  0
 21 26  1  0  0  0  0
 22 10  2  0  0  0  0
 23 21  2  0  0  0  0
 23  4  1  0  0  0  0
 24 22  1  0  0  0  0
 25 14  1  6  0  0  0
 25 17  1  0  0  0  0
 26  1  2  0  0  0  0
 27  2  1  0  0  0  0
 29 28  1  0  0  0  0
 30 34  1  0  0  0  0
 31 33  1  0  0  0  0
 31 32  1  0  0  0  0
 32 29  1  6  0  0  0
 32 34  1  0  0  0  0
 33 30  1  0  0  0  0
M  END
>  <MODEL>
5

>  <REMARK>
 VINA RESULT:      -8.8      1.798      2.658
  Name = 
  3 active torsions:
  status: ('A' for Active; 'I' for Inactive)
    1  A    between atoms: C_17  and  O_28
    2  A    between atoms: O_28  and  C_29
    3  A    between atoms: C_29  and  C_32
                            x       y       z     vdW  Elec       q    Type
                         _______ _______ _______ _____ _____    ______ ____

>  <TORSDO>
F 3

$$$$
=
 OpenBabel11122414343D

 34 41  0  0  1  0  0  0  0  0999 V2000
  161.4710  208.5030  149.4530 C   0  0  0  0  0  0  0  0  0  0  0  0
  161.5150  207.1810  147.2980 C   0  0  0  0  0  3  0  0  0  0  0  0
  160.4260  208.8770  155.8250 C   0  0  0  0  0  0  0  0  0  0  0  0
  161.7420  209.4650  151.6440 C   0  0  0  0  0  0  0  0  0  0  0  0
  161.3850  208.1570  153.6930 C   0  0  0  0  0  0  0  0  0  0  0  0
  160.5820  206.8800  155.6520 C   0  0  0  0  0  2  0  0  0  0  0  0
  159.7060  207.7440  156.3530 O   0  0  0  0  0  0  0  0  0  0  0  0
  161.2020  211.0230  155.0380 C   0  0  0  0  0  3  0  0  0  0  0  0
  160.4420  206.2090  149.1460 C   0  0  2  0  0  3  0  0  0  0  0  0
  161.1570  203.0980  149.5370 C   0  0  0  0  0  3  0  0  0  0  0  0
  161.4170  206.9130  152.8320 C   0  0  0  0  0  2  0  0  0  0  0  0
  161.7690  210.6550  153.8760 C   0  0  0  0  0  3  0  0  0  0  0  0
  160.9140  205.9010  150.5780 C   0  0  1  0  0  3  0  0  0  0  0  0
  161.3030  205.9260  146.9440 C   0  0  0  0  0  3  0  0  0  0  0  0
  161.6160  209.3740  153.1220 C   0  0  0  0  0  0  0  0  0  0  0  0
  160.3050  210.1910  155.8490 C   0  0  0  0  0  3  0  0  0  0  0  0
  161.7570  204.0840  148.5700 C   0  0  2  0  0  3  0  0  0  0  0  0
  161.3560  208.3820  150.8410 C   0  0  0  0  0  0  0  0  0  0  0  0
  161.4000  207.9630  155.1860 C   0  0  2  0  0  3  0  0  0  0  0  0
  160.7600  207.1460  151.4710 C   0  0  2  0  0  3  0  0  0  0  0  0
  162.3500  210.6820  149.7010 C   0  0  0  0  0  3  0  0  0  0  0  0
  160.4660  203.3950  150.6490 C   0  0  0  0  0  3  0  0  0  0  0  0
  162.2280  210.5910  151.0530 N   0  0  0  0  0  0  0  0  0  0  0  0
  160.0610  204.7660  151.1290 C   0  0  0  0  0  2  0  0  0  0  0  0
  160.7320  205.1240  148.0840 C   0  0  1  0  0  3  0  0  0  0  0  0
  161.9760  209.6420  148.9100 N   0  0  0  0  0  0  0  0  0  0  0  0
  161.0900  207.4010  148.6280 N   0  0  0  0  0  0  0  0  0  0  0  0
  162.2960  203.3780  147.4900 O   0  0  0  0  0  0  0  0  0  0  0  0
  161.3160  202.4380  147.1490 C   0  0  0  0  0  2  0  0  0  0  0  0
  159.0190  202.0770  144.7420 O   0  0  0  0  0  0  0  0  0  0  0  0
  160.8310  203.5720  144.9820 C   0  0  0  0  0  2  0  0  0  0  0  0
  161.2060  202.2760  145.6360 C   0  0  2  0  0  3  0  0  0  0  0  0
  159.6060  203.2170  144.1740 C   0  0  0  0  0  2  0  0  0  0  0  0
  160.0860  201.3280  145.2630 C   0  0  0  0  0  2  0  0  0  0  0  0
  1 18  1  0  0  0  0
  2 27  1  0  0  0  0
  3 16  2  0  0  0  0
  3  7  1  0  0  0  0
  4 15  1  0  0  0  0
  5 19  1  0  0  0  0
  6  7  1  0  0  0  0
  8 16  1  0  0  0  0
  9 27  1  6  0  0  0
  9 13  1  0  0  0  0
 10 22  2  0  0  0  0
 11  5  1  0  0  0  0
 12  8  2  0  0  0  0
 13 24  1  1  0  0  0
 13 20  1  0  0  0  0
 14  2  2  0  0  0  0
 15  5  2  0  0  0  0
 15 12  1  0  0  0  0
 17 28  1  6  0  0  0
 17 10  1  0  0  0  0
 18 20  1  0  0  0  0
 18  4  2  0  0  0  0
 19  6  1  6  0  0  0
 19  3  1  0  0  0  0
 20 11  1  1  0  0  0
 21 23  2  0  0  0  0
 22 24  1  0  0  0  0
 23  4  1  0  0  0  0
 25 14  1  6  0  0  0
 25 17  1  0  0  0  0
 25  9  1  0  0  0  0
 26  1  2  0  0  0  0
 26 21  1  0  0  0  0
 27  1  1  0  0  0  0
 29 28  1  0  0  0  0
 30 34  1  0  0  0  0
 31 32  1  0  0  0  0
 32 29  1  1  0  0  0
 33 30  1  0  0  0  0
 33 31  1  0  0  0  0
 34 32  1  0  0  0  0
M  END
>  <MODEL>
6

>  <REMARK>
 VINA RESULT:      -8.3      1.880      8.385
  Name = 
  3 active torsions:
  status: ('A' for Active; 'I' for Inactive)
    1  A    between atoms: C_17  and  O_28
    2  A    between atoms: O_28  and  C_29
    3  A    between atoms: C_29  and  C_32
                            x       y       z     vdW  Elec       q    Type
                         _______ _______ _______ _____ _____    ______ ____

>  <TORSDO>
F 3

$$$$
=
 OpenBabel11122414343D

 34 41  0  0  1  0  0  0  0  0999 V2000
  160.8400  207.5240  154.3360 C   0  0  0  0  0  0  0  0  0  0  0  0
  161.7150  205.4120  153.2550 C   0  0  0  0  0  3  0  0  0  0  0  0
  159.2170  213.7760  154.0080 C   0  0  0  0  0  0  0  0  0  0  0  0
  159.6760  209.5050  155.0570 C   0  0  0  0  0  0  0  0  0  0  0  0
  159.2250  211.3780  153.5320 C   0  0  0  0  0  0  0  0  0  0  0  0
  159.2160  213.3510  152.0430 C   0  0  0  0  0  2  0  0  0  0  0  0
  159.7040  214.4310  152.8190 O   0  0  0  0  0  0  0  0  0  0  0  0
  158.7460  212.9670  156.2330 C   0  0  0  0  0  3  0  0  0  0  0  0
  161.9880  207.4250  152.0800 C   0  0  2  0  0  3  0  0  0  0  0  0
  161.2900  207.1730  148.9510 C   0  0  0  0  0  3  0  0  0  0  0  0
  159.5870  210.4540  152.3890 C   0  0  0  0  0  2  0  0  0  0  0  0
  158.7080  211.6440  155.9980 C   0  0  0  0  0  3  0  0  0  0  0  0
  160.9920  208.5050  151.6230 C   0  0  1  0  0  3  0  0  0  0  0  0
  162.0980  205.0480  152.0440 C   0  0  0  0  0  3  0  0  0  0  0  0
  159.1990  210.8890  154.8060 C   0  0  0  0  0  0  0  0  0  0  0  0
  159.2700  213.9820  155.3110 C   0  0  0  0  0  3  0  0  0  0  0  0
  161.0950  206.1530  150.0410 C   0  0  2  0  0  3  0  0  0  0  0  0
  160.3910  208.8200  154.0650 C   0  0  0  0  0  0  0  0  0  0  0  0
  158.6160  212.7080  153.1770 C   0  0  2  0  0  3  0  0  0  0  0  0
  160.7280  209.5070  152.7630 C   0  0  2  0  0  3  0  0  0  0  0  0
  159.8570  207.6180  156.4820 C   0  0  0  0  0  3  0  0  0  0  0  0
  161.4630  208.4940  149.1200 C   0  0  0  0  0  3  0  0  0  0  0  0
  159.4280  208.8860  156.2450 N   0  0  0  0  0  0  0  0  0  0  0  0
  161.5910  209.2340  150.4270 C   0  0  0  0  0  2  0  0  0  0  0  0
  162.1900  206.2320  151.1200 C   0  0  1  0  0  3  0  0  0  0  0  0
  160.5560  206.9430  155.5310 N   0  0  0  0  0  0  0  0  0  0  0  0
  161.5610  206.8160  153.3260 N   0  0  0  0  0  0  0  0  0  0  0  0
  161.0620  204.8820  149.4610 O   0  0  0  0  0  0  0  0  0  0  0  0
  161.2060  205.1080  148.0870 C   0  0  0  0  0  2  0  0  0  0  0  0
  160.4560  202.0810  146.8750 O   0  0  0  0  0  0  0  0  0  0  0  0
  161.5760  203.9270  145.9220 C   0  0  0  0  0  2  0  0  0  0  0  0
  161.8620  203.9170  147.3940 C   0  0  2  0  0  3  0  0  0  0  0  0
  160.9860  202.5620  145.6690 C   0  0  0  0  0  2  0  0  0  0  0  0
  161.2810  202.6080  147.8810 C   0  0  0  0  0  2  0  0  0  0  0  0
  1 26  1  0  0  0  0
  2 27  1  0  0  0  0
  3 16  2  0  0  0  0
  4 23  2  0  0  0  0
  5 15  2  0  0  0  0
  6  7  1  0  0  0  0
  7  3  1  0  0  0  0
  9 27  1  1  0  0  0
 10 22  2  0  0  0  0
 10 17  1  0  0  0  0
 11  5  1  0  0  0  0
 12  8  2  0  0  0  0
 13 24  1  6  0  0  0
 13  9  1  0  0  0  0
 13 20  1  0  0  0  0
 14  2  2  0  0  0  0
 15  4  1  0  0  0  0
 15 12  1  0  0  0  0
 16  8  1  0  0  0  0
 17 28  1  6  0  0  0
 17 25  1  0  0  0  0
 18  1  2  0  0  0  0
 18  4  1  0  0  0  0
 19  6  1  6  0  0  0
 19  5  1  0  0  0  0
 19  3  1  0  0  0  0
 20 11  1  6  0  0  0
 20 18  1  0  0  0  0
 22 24  1  0  0  0  0
 23 21  1  0  0  0  0
 25 14  1  1  0  0  0
 25  9  1  0  0  0  0
 26 21  2  0  0  0  0
 27  1  1  0  0  0  0
 29 28  1  0  0  0  0
 30 34  1  0  0  0  0
 31 32  1  0  0  0  0
 32 34  1  0  0  0  0
 32 29  1  1  0  0  0
 33 31  1  0  0  0  0
 33 30  1  0  0  0  0
M  END
>  <MODEL>
7

>  <REMARK>
 VINA RESULT:      -8.1      2.796      9.355
  Name = 
  3 active torsions:
  status: ('A' for Active; 'I' for Inactive)
    1  A    between atoms: C_17  and  O_28
    2  A    between atoms: O_28  and  C_29
    3  A    between atoms: C_29  and  C_32
                            x       y       z     vdW  Elec       q    Type
                         _______ _______ _______ _____ _____    ______ ____

>  <TORSDO>
F 3

$$$$
