=
 OpenBabel11122413193D

 31 35  0  0  1  0  0  0  0  0999 V2000
  160.9450  207.4470  154.3130 C   0  0  0  0  0  0  0  0  0  0  0  0
  161.3480  207.1190  150.5810 C   0  0  0  0  0  0  0  0  0  0  0  0
  161.2370  205.7230  150.2730 C   0  0  0  0  0  0  0  0  0  0  0  0
  160.9150  203.3880  150.9270 C   0  0  0  0  0  0  0  0  0  0  0  0
  161.2510  207.6650  151.8980 C   0  0  0  0  0  0  0  0  0  0  0  0
  161.0730  208.8260  154.4680 C   0  0  0  0  0  3  0  0  0  0  0  0
  161.0180  204.7410  151.2560 C   0  0  0  0  0  3  0  0  0  0  0  0
  161.6860  209.4030  149.7470 C   0  0  0  0  0  0  0  0  0  0  0  0
  160.7350  206.6610  155.3960 F   0  0  0  0  0  0  0  0  0  0  0  0
  161.5660  206.2040  147.9020 C   0  0  0  0  0  3  0  0  0  0  0  0
  160.6980  202.4460  151.9220 O   0  0  0  0  0  1  0  0  0  0  0  0
  161.5890  209.8780  151.0140 N   0  0  0  0  0  0  0  0  0  0  0  0
  161.5700  208.0260  149.5020 C   0  0  0  0  0  0  0  0  0  0  0  0
  161.9120  210.3140  148.6630 N   0  0  0  0  0  2  0  0  0  0  0  0
  161.0340  206.8770  153.0430 C   0  0  0  0  0  3  0  0  0  0  0  0
  161.0290  202.9840  149.5970 C   0  0  0  0  0  3  0  0  0  0  0  0
  161.3780  209.0670  152.0760 C   0  0  0  0  0  0  0  0  0  0  0  0
  161.2890  209.6330  153.3520 C   0  0  0  0  0  3  0  0  0  0  0  0
  161.6750  207.5560  148.1880 C   0  0  0  0  0  3  0  0  0  0  0  0
  161.3500  205.2890  148.9240 C   0  0  0  0  0  0  0  0  0  0  0  0
  161.2450  203.9330  148.5990 C   0  0  0  0  0  3  0  0  0  0  0  0
  161.0380  212.2200  149.9210 C   0  0  0  0  0  1  0  0  0  0  0  0
  162.0080  211.7570  148.8460 C   0  0  2  0  0  3  0  0  0  0  0  0
  161.2410  213.7940  145.1350 C   0  0  0  0  0  0  0  0  0  0  0  0
  160.5980  212.1510  146.7930 C   0  0  0  0  0  3  0  0  0  0  0  0
  163.7330  213.7670  147.8090 F   0  0  0  0  0  0  0  0  0  0  0  0
  160.9960  214.4530  143.9380 O   0  0  0  0  0  1  0  0  0  0  0  0
  160.3530  212.8160  145.5880 C   0  0  0  0  0  3  0  0  0  0  0  0
  162.6260  213.4480  147.0930 C   0  0  0  0  0  0  0  0  0  0  0  0
  161.7380  212.4630  147.5520 C   0  0  0  0  0  0  0  0  0  0  0  0
  162.3750  214.1100  145.8870 C   0  0  0  0  0  3  0  0  0  0  0  0
  1  6  1  0  0  0  0
  1  9  1  0  0  0  0
  2  5  1  0  0  0  0
  3  2  1  0  0  0  0
  3  7  1  0  0  0  0
  4  7  2  0  0  0  0
  4 11  1  0  0  0  0
  5 17  2  0  0  0  0
  5 15  1  0  0  0  0
  8 12  2  0  0  0  0
 10 19  2  0  0  0  0
 10 20  1  0  0  0  0
 12 17  1  0  0  0  0
 13  8  1  0  0  0  0
 13  2  2  0  0  0  0
 14 23  1  0  0  0  0
 14  8  1  0  0  0  0
 15  1  2  0  0  0  0
 16  4  1  0  0  0  0
 17 18  1  0  0  0  0
 18  6  2  0  0  0  0
 19 13  1  0  0  0  0
 20  3  2  0  0  0  0
 21 20  1  0  0  0  0
 21 16  2  0  0  0  0
 23 22  1  1  0  0  0
 24 28  2  0  0  0  0
 24 31  1  0  0  0  0
 25 30  2  0  0  0  0
 27 24  1  0  0  0  0
 28 25  1  0  0  0  0
 29 30  1  0  0  0  0
 29 26  1  0  0  0  0
 30 23  1  0  0  0  0
 31 29  2  0  0  0  0
M  END
>  <MODEL>
1

>  <REMARK>
 VINA RESULT:     -10.7      0.000      0.000
  Name = 
  2 active torsions:
  status: ('A' for Active; 'I' for Inactive)
    1  A    between atoms: C_5  and  N_16
    2  A    between atoms: C_5  and  C_30
                            x       y       z     vdW  Elec       q    Type
                         _______ _______ _______ _____ _____    ______ ____

>  <TORSDO>
F 2

$$$$
=
 OpenBabel11122413193D

 31 35  0  0  1  0  0  0  0  0999 V2000
  161.2040  205.3830  145.6930 C   0  0  0  0  0  0  0  0  0  0  0  0
  161.0940  204.5760  149.3730 C   0  0  0  0  0  0  0  0  0  0  0  0
  161.1150  203.1460  149.4840 C   0  0  0  0  0  0  0  0  0  0  0  0
  161.1870  200.9060  148.5050 C   0  0  0  0  0  0  0  0  0  0  0  0
  161.1230  205.2890  148.1340 C   0  0  0  0  0  0  0  0  0  0  0  0
  161.1770  206.7750  145.7320 C   0  0  0  0  0  3  0  0  0  0  0  0
  161.1680  202.2950  148.3650 C   0  0  0  0  0  3  0  0  0  0  0  0
  161.0180  206.7420  150.5250 C   0  0  0  0  0  0  0  0  0  0  0  0
  161.2560  204.7390  144.5020 F   0  0  0  0  0  0  0  0  0  0  0  0
  161.0290  203.3200  151.9180 C   0  0  0  0  0  3  0  0  0  0  0  0
  161.2400  200.0960  147.3790 O   0  0  0  0  0  1  0  0  0  0  0  0
  161.0450  207.3780  149.3270 N   0  0  0  0  0  0  0  0  0  0  0  0
  161.0400  205.3390  150.5760 C   0  0  0  0  0  0  0  0  0  0  0  0
  160.9600  207.5100  151.7340 N   0  0  0  0  0  2  0  0  0  0  0  0
  161.1770  204.6510  146.8810 C   0  0  0  0  0  3  0  0  0  0  0  0
  161.1530  200.3320  149.7750 C   0  0  0  0  0  3  0  0  0  0  0  0
  161.0970  206.7070  148.1530 C   0  0  0  0  0  0  0  0  0  0  0  0
  161.1240  207.4350  146.9590 C   0  0  0  0  0  3  0  0  0  0  0  0
  161.0080  204.7030  151.8220 C   0  0  0  0  0  3  0  0  0  0  0  0
  161.0820  202.5400  150.7700 C   0  0  0  0  0  0  0  0  0  0  0  0
  161.1010  201.1480  150.9040 C   0  0  0  0  0  3  0  0  0  0  0  0
  162.3620  209.4910  151.4440 C   0  0  0  0  0  1  0  0  0  0  0  0
  160.9680  208.9670  151.7510 C   0  0  2  0  0  3  0  0  0  0  0  0
  159.6040  210.4340  155.5570 C   0  0  0  0  0  0  0  0  0  0  0  0
  160.6990  208.7200  154.2450 C   0  0  0  0  0  3  0  0  0  0  0  0
  159.6320  211.4610  152.0490 F   0  0  0  0  0  0  0  0  0  0  0  0
  159.1630  210.9100  156.7840 O   0  0  0  0  0  1  0  0  0  0  0  0
  160.2540  209.2000  155.4800 C   0  0  0  0  0  3  0  0  0  0  0  0
  159.8410  210.7130  153.1620 C   0  0  0  0  0  0  0  0  0  0  0  0
  160.4930  209.4730  153.0780 C   0  0  0  0  0  0  0  0  0  0  0  0
  159.3990  211.1890  154.4000 C   0  0  0  0  0  3  0  0  0  0  0  0
  1  6  2  0  0  0  0
  1 15  1  0  0  0  0
  2  3  2  0  0  0  0
  2 13  1  0  0  0  0
  3 20  1  0  0  0  0
  4 16  1  0  0  0  0
  5 17  1  0  0  0  0
  5  2  1  0  0  0  0
  6 18  1  0  0  0  0
  7  4  2  0  0  0  0
  7  3  1  0  0  0  0
  8 13  1  0  0  0  0
  8 14  1  0  0  0  0
  9  1  1  0  0  0  0
 11  4  1  0  0  0  0
 12  8  2  0  0  0  0
 13 19  2  0  0  0  0
 14 23  1  0  0  0  0
 15  5  2  0  0  0  0
 16 21  2  0  0  0  0
 17 12  1  0  0  0  0
 18 17  2  0  0  0  0
 19 10  1  0  0  0  0
 20 21  1  0  0  0  0
 20 10  2  0  0  0  0
 23 22  1  1  0  0  0
 23 30  1  0  0  0  0
 24 27  1  0  0  0  0
 25 28  2  0  0  0  0
 26 29  1  0  0  0  0
 28 24  1  0  0  0  0
 29 31  1  0  0  0  0
 30 29  2  0  0  0  0
 30 25  1  0  0  0  0
 31 24  2  0  0  0  0
M  END
>  <MODEL>
2

>  <REMARK>
 VINA RESULT:     -10.7      4.204      6.563
  Name = 
  2 active torsions:
  status: ('A' for Active; 'I' for Inactive)
    1  A    between atoms: C_5  and  N_16
    2  A    between atoms: C_5  and  C_30
                            x       y       z     vdW  Elec       q    Type
                         _______ _______ _______ _____ _____    ______ ____

>  <TORSDO>
F 2

$$$$
=
 OpenBabel11122413193D

 31 35  0  0  1  0  0  0  0  0999 V2000
  160.8870  201.8030  150.5800 C   0  0  0  0  0  0  0  0  0  0  0  0
  161.2360  205.2910  149.1960 C   0  0  0  0  0  0  0  0  0  0  0  0
  161.2330  205.1720  147.7660 C   0  0  0  0  0  0  0  0  0  0  0  0
  161.1150  203.8510  145.7110 C   0  0  0  0  0  0  0  0  0  0  0  0
  161.1230  204.1870  150.0970 C   0  0  0  0  0  0  0  0  0  0  0  0
  160.9060  202.0640  151.9490 C   0  0  0  0  0  3  0  0  0  0  0  0
  161.1150  203.9360  147.1050 C   0  0  0  0  0  3  0  0  0  0  0  0
  161.3700  206.7700  151.1500 C   0  0  0  0  0  0  0  0  0  0  0  0
  160.7650  200.5290  150.1340 F   0  0  0  0  0  0  0  0  0  0  0  0
  161.4710  207.5920  147.5490 C   0  0  0  0  0  3  0  0  0  0  0  0
  160.9960  202.6150  145.0910 O   0  0  0  0  0  1  0  0  0  0  0  0
  161.2610  205.6940  151.9690 N   0  0  0  0  0  0  0  0  0  0  0  0
  161.3600  206.5960  149.7580 C   0  0  0  0  0  0  0  0  0  0  0  0
  161.4980  208.0810  151.7150 N   0  0  0  0  0  2  0  0  0  0  0  0
  160.9950  202.8540  149.6680 C   0  0  0  0  0  3  0  0  0  0  0  0
  161.2320  205.0080  144.9420 C   0  0  0  0  0  3  0  0  0  0  0  0
  161.1400  204.4330  151.4940 C   0  0  0  0  0  0  0  0  0  0  0  0
  161.0320  203.3750  152.4040 C   0  0  0  0  0  3  0  0  0  0  0  0
  161.4760  207.7180  148.9300 C   0  0  0  0  0  3  0  0  0  0  0  0
  161.3510  206.3390  146.9630 C   0  0  0  0  0  0  0  0  0  0  0  0
  161.3500  206.2480  145.5680 C   0  0  0  0  0  3  0  0  0  0  0  0
  160.7090  207.2390  153.8700 C   0  0  0  0  0  1  0  0  0  0  0  0
  161.4800  208.3330  153.1500 C   0  0  2  0  0  3  0  0  0  0  0  0
  159.7620  212.1880  153.9800 C   0  0  0  0  0  0  0  0  0  0  0  0
  160.0260  210.2880  152.5040 C   0  0  0  0  0  3  0  0  0  0  0  0
  161.9930  209.7600  155.5570 F   0  0  0  0  0  0  0  0  0  0  0  0
  159.2080  213.4320  154.2500 O   0  0  0  0  0  1  0  0  0  0  0  0
  159.4690  211.5400  152.7770 C   0  0  0  0  0  3  0  0  0  0  0  0
  161.1700  210.3310  154.6420 C   0  0  0  0  0  0  0  0  0  0  0  0
  160.8810  209.6760  153.4350 C   0  0  0  0  0  0  0  0  0  0  0  0
  160.6100  211.5840  154.9100 C   0  0  0  0  0  3  0  0  0  0  0  0
  1  6  1  0  0  0  0
  2 13  1  0  0  0  0
  2  5  1  0  0  0  0
  3  2  2  0  0  0  0
  4  7  2  0  0  0  0
  5 17  2  0  0  0  0
  6 18  2  0  0  0  0
  7  3  1  0  0  0  0
  8 14  1  0  0  0  0
  8 12  2  0  0  0  0
  9  1  1  0  0  0  0
 10 19  1  0  0  0  0
 11  4  1  0  0  0  0
 13  8  1  0  0  0  0
 14 23  1  0  0  0  0
 15  5  1  0  0  0  0
 15  1  2  0  0  0  0
 16 21  2  0  0  0  0
 16  4  1  0  0  0  0
 17 12  1  0  0  0  0
 17 18  1  0  0  0  0
 19 13  2  0  0  0  0
 20 10  2  0  0  0  0
 20  3  1  0  0  0  0
 21 20  1  0  0  0  0
 23 30  1  0  0  0  0
 23 22  1  1  0  0  0
 24 27  1  0  0  0  0
 24 31  1  0  0  0  0
 25 28  1  0  0  0  0
 25 30  2  0  0  0  0
 28 24  2  0  0  0  0
 29 31  2  0  0  0  0
 29 26  1  0  0  0  0
 30 29  1  0  0  0  0
M  END
>  <MODEL>
3

>  <REMARK>
 VINA RESULT:     -10.6      4.076      5.960
  Name = 
  2 active torsions:
  status: ('A' for Active; 'I' for Inactive)
    1  A    between atoms: C_5  and  N_16
    2  A    between atoms: C_5  and  C_30
                            x       y       z     vdW  Elec       q    Type
                         _______ _______ _______ _____ _____    ______ ____

>  <TORSDO>
F 2

$$$$
=
 OpenBabel11122413193D

 31 35  0  0  1  0  0  0  0  0999 V2000
  161.9630  209.6670  149.0240 C   0  0  0  0  0  0  0  0  0  0  0  0
  161.3800  206.6140  151.1570 C   0  0  0  0  0  0  0  0  0  0  0  0
  161.2480  205.5020  150.2610 C   0  0  0  0  0  0  0  0  0  0  0  0
  161.2040  204.5330  148.0160 C   0  0  0  0  0  0  0  0  0  0  0  0
  161.6120  207.9620  150.7400 C   0  0  0  0  0  0  0  0  0  0  0  0
  162.0690  210.6520  150.0040 C   0  0  0  0  0  3  0  0  0  0  0  0
  161.3370  205.6340  148.8640 C   0  0  0  0  0  3  0  0  0  0  0  0
  161.3930  207.4140  153.4780 C   0  0  0  0  0  0  0  0  0  0  0  0
  162.0790  209.9980  147.7160 F   0  0  0  0  0  0  0  0  0  0  0  0
  160.9190  203.9970  152.1550 C   0  0  0  0  0  3  0  0  0  0  0  0
  161.2980  204.6990  146.6410 O   0  0  0  0  0  1  0  0  0  0  0  0
  161.6120  208.6790  153.0380 N   0  0  0  0  0  0  0  0  0  0  0  0
  161.2720  206.3620  152.5560 C   0  0  0  0  0  0  0  0  0  0  0  0
  161.2810  207.1620  154.8840 N   0  0  0  0  0  2  0  0  0  0  0  0
  161.7370  208.3390  149.3910 C   0  0  0  0  0  3  0  0  0  0  0  0
  160.9790  203.2650  148.5510 C   0  0  0  0  0  3  0  0  0  0  0  0
  161.7230  208.9790  151.7230 C   0  0  0  0  0  0  0  0  0  0  0  0
  161.9500  210.3080  151.3500 C   0  0  0  0  0  3  0  0  0  0  0  0
  161.0440  205.0650  153.0300 C   0  0  0  0  0  3  0  0  0  0  0  0
  161.0180  204.2010  150.7850 C   0  0  0  0  0  0  0  0  0  0  0  0
  160.8860  203.1010  149.9320 C   0  0  0  0  0  3  0  0  0  0  0  0
  161.0290  207.6770  157.2600 C   0  0  0  0  0  1  0  0  0  0  0  0
  161.4310  208.2030  155.8920 C   0  0  2  0  0  3  0  0  0  0  0  0
  159.0890  211.6550  154.8430 C   0  0  0  0  0  0  0  0  0  0  0  0
  159.2090  209.3360  155.5250 C   0  0  0  0  0  3  0  0  0  0  0  0
  162.6010  210.6960  155.1780 F   0  0  0  0  0  0  0  0  0  0  0  0
  158.3360  212.7710  154.5050 O   0  0  0  0  0  1  0  0  0  0  0  0
  158.4520  210.4600  155.1840 C   0  0  0  0  0  3  0  0  0  0  0  0
  161.2470  210.6060  155.1840 C   0  0  0  0  0  0  0  0  0  0  0  0
  160.6120  209.4020  155.5260 C   0  0  0  0  0  0  0  0  0  0  0  0
  160.4840  211.7280  154.8440 C   0  0  0  0  0  3  0  0  0  0  0  0
  1 15  2  0  0  0  0
  1  6  1  0  0  0  0
  2 13  1  0  0  0  0
  3 20  1  0  0  0  0
  3  2  2  0  0  0  0
  4 16  1  0  0  0  0
  4  7  2  0  0  0  0
  5  2  1  0  0  0  0
  5 17  2  0  0  0  0
  6 18  2  0  0  0  0
  7  3  1  0  0  0  0
  8 14  1  0  0  0  0
  9  1  1  0  0  0  0
 10 19  1  0  0  0  0
 11  4  1  0  0  0  0
 12  8  2  0  0  0  0
 13 19  2  0  0  0  0
 13  8  1  0  0  0  0
 14 23  1  0  0  0  0
 15  5  1  0  0  0  0
 16 21  2  0  0  0  0
 17 12  1  0  0  0  0
 18 17  1  0  0  0  0
 20 10  2  0  0  0  0
 21 20  1  0  0  0  0
 23 22  1  1  0  0  0
 24 31  2  0  0  0  0
 24 28  1  0  0  0  0
 25 30  1  0  0  0  0
 26 29  1  0  0  0  0
 27 24  1  0  0  0  0
 28 25  2  0  0  0  0
 29 30  2  0  0  0  0
 30 23  1  0  0  0  0
 31 29  1  0  0  0  0
M  END
>  <MODEL>
4

>  <REMARK>
 VINA RESULT:     -10.4      3.342      6.231
  Name = 
  2 active torsions:
  status: ('A' for Active; 'I' for Inactive)
    1  A    between atoms: C_5  and  N_16
    2  A    between atoms: C_5  and  C_30
                            x       y       z     vdW  Elec       q    Type
                         _______ _______ _______ _____ _____    ______ ____

>  <TORSDO>
F 2

$$$$
=
 OpenBabel11122413193D

 31 35  0  0  1  0  0  0  0  0999 V2000
  161.9280  207.3830  147.6240 C   0  0  0  0  0  0  0  0  0  0  0  0
  161.3080  205.9110  151.0380 C   0  0  0  0  0  0  0  0  0  0  0  0
  161.1610  204.4960  150.8590 C   0  0  0  0  0  0  0  0  0  0  0  0
  161.1040  202.4930  149.4570 C   0  0  0  0  0  0  0  0  0  0  0  0
  161.5570  206.8370  149.9770 C   0  0  0  0  0  0  0  0  0  0  0  0
  162.0470  208.7340  147.9420 C   0  0  0  0  0  3  0  0  0  0  0  0
  161.2510  203.8740  149.6010 C   0  0  0  0  0  3  0  0  0  0  0  0
  161.3330  207.8100  152.5930 C   0  0  0  0  0  0  0  0  0  0  0  0
  162.0470  206.9760  146.3370 F   0  0  0  0  0  0  0  0  0  0  0  0
  160.8150  204.2130  153.2590 C   0  0  0  0  0  3  0  0  0  0  0  0
  161.1990  201.9120  148.2000 O   0  0  0  0  0  1  0  0  0  0  0  0
  161.5670  208.6540  151.5570 N   0  0  0  0  0  0  0  0  0  0  0  0
  161.1980  206.4330  152.3610 C   0  0  0  0  0  0  0  0  0  0  0  0
  161.2190  208.3350  153.9220 N   0  0  0  0  0  2  0  0  0  0  0  0
  161.6850  206.4480  148.6320 C   0  0  0  0  0  3  0  0  0  0  0  0
  160.8630  201.6970  150.5760 C   0  0  0  0  0  3  0  0  0  0  0  0
  161.6810  208.2170  150.2810 C   0  0  0  0  0  0  0  0  0  0  0  0
  161.9240  209.1500  149.2670 C   0  0  0  0  0  3  0  0  0  0  0  0
  160.9540  205.5800  153.4430 C   0  0  0  0  0  3  0  0  0  0  0  0
  160.9150  203.6660  151.9870 C   0  0  0  0  0  0  0  0  0  0  0  0
  160.7690  202.2830  151.8370 C   0  0  0  0  0  3  0  0  0  0  0  0
  162.1390  209.9180  155.5420 C   0  0  0  0  0  1  0  0  0  0  0  0
  161.3820  209.7490  154.2350 C   0  0  2  0  0  3  0  0  0  0  0  0
  157.5510  211.6930  154.4320 C   0  0  0  0  0  0  0  0  0  0  0  0
  159.2220  210.2570  155.4320 C   0  0  0  0  0  3  0  0  0  0  0  0
  160.3900  211.4090  152.1480 F   0  0  0  0  0  0  0  0  0  0  0  0
  156.3140  212.3220  154.4930 O   0  0  0  0  0  1  0  0  0  0  0  0
  157.9780  210.8900  155.4920 C   0  0  0  0  0  3  0  0  0  0  0  0
  159.6120  211.2320  153.2450 C   0  0  0  0  0  0  0  0  0  0  0  0
  160.0460  210.4230  154.3060 C   0  0  0  0  0  0  0  0  0  0  0  0
  158.3660  211.8640  153.3120 C   0  0  0  0  0  3  0  0  0  0  0  0
  1  6  2  0  0  0  0
  1 15  1  0  0  0  0
  2 13  1  0  0  0  0
  3  2  2  0  0  0  0
  3 20  1  0  0  0  0
  4  7  2  0  0  0  0
  4 16  1  0  0  0  0
  5 17  1  0  0  0  0
  5  2  1  0  0  0  0
  6 18  1  0  0  0  0
  7  3  1  0  0  0  0
  8 14  1  0  0  0  0
  9  1  1  0  0  0  0
 10 19  1  0  0  0  0
 11  4  1  0  0  0  0
 12  8  2  0  0  0  0
 13  8  1  0  0  0  0
 13 19  2  0  0  0  0
 14 23  1  0  0  0  0
 15  5  2  0  0  0  0
 16 21  2  0  0  0  0
 17 12  1  0  0  0  0
 18 17  2  0  0  0  0
 20 10  2  0  0  0  0
 21 20  1  0  0  0  0
 23 30  1  0  0  0  0
 23 22  1  1  0  0  0
 24 27  1  0  0  0  0
 24 28  1  0  0  0  0
 25 28  2  0  0  0  0
 26 29  1  0  0  0  0
 29 31  1  0  0  0  0
 29 30  2  0  0  0  0
 30 25  1  0  0  0  0
 31 24  2  0  0  0  0
M  END
>  <MODEL>
5

>  <REMARK>
 VINA RESULT:     -10.4      3.645      5.985
  Name = 
  2 active torsions:
  status: ('A' for Active; 'I' for Inactive)
    1  A    between atoms: C_5  and  N_16
    2  A    between atoms: C_5  and  C_30
                            x       y       z     vdW  Elec       q    Type
                         _______ _______ _______ _____ _____    ______ ____

>  <TORSDO>
F 2

$$$$
=
 OpenBabel11122413193D

 31 35  0  0  1  0  0  0  0  0999 V2000
  161.1190  201.6310  150.2170 C   0  0  0  0  0  0  0  0  0  0  0  0
  161.2540  205.3110  149.4130 C   0  0  0  0  0  0  0  0  0  0  0  0
  161.2500  205.4230  147.9830 C   0  0  0  0  0  0  0  0  0  0  0  0
  161.1980  204.4450  145.7420 C   0  0  0  0  0  0  0  0  0  0  0  0
  161.2120  204.0710  150.1250 C   0  0  0  0  0  0  0  0  0  0  0  0
  161.1310  201.6690  151.6100 C   0  0  0  0  0  3  0  0  0  0  0  0
  161.2010  204.3040  147.1310 C   0  0  0  0  0  3  0  0  0  0  0  0
  161.3120  206.4610  151.5800 C   0  0  0  0  0  0  0  0  0  0  0  0
  161.0690  200.4400  149.5720 F   0  0  0  0  0  0  0  0  0  0  0  0
  161.3440  207.8560  148.1590 C   0  0  0  0  0  3  0  0  0  0  0  0
  161.1490  203.3200  144.9310 O   0  0  0  0  0  1  0  0  0  0  0  0
  161.2720  205.2630  152.2150 N   0  0  0  0  0  0  0  0  0  0  0  0
  161.3050  206.5130  150.1780 C   0  0  0  0  0  0  0  0  0  0  0  0
  161.3670  207.6700  152.3490 N   0  0  0  0  0  2  0  0  0  0  0  0
  161.1600  202.8200  149.4860 C   0  0  0  0  0  3  0  0  0  0  0  0
  161.2430  205.7150  145.1690 C   0  0  0  0  0  3  0  0  0  0  0  0
  161.2220  204.0900  151.5430 C   0  0  0  0  0  0  0  0  0  0  0  0
  161.1820  202.8950  152.2700 C   0  0  0  0  0  3  0  0  0  0  0  0
  161.3500  207.7590  149.5420 C   0  0  0  0  0  3  0  0  0  0  0  0
  161.2950  206.7080  147.3790 C   0  0  0  0  0  0  0  0  0  0  0  0
  161.2910  206.8440  145.9870 C   0  0  0  0  0  3  0  0  0  0  0  0
  160.3080  206.7030  154.3290 C   0  0  0  0  0  1  0  0  0  0  0  0
  161.3420  207.6860  153.8060 C   0  0  2  0  0  3  0  0  0  0  0  0
  160.5230  211.6630  155.2270 C   0  0  0  0  0  0  0  0  0  0  0  0
  161.4460  209.4560  155.5980 C   0  0  0  0  0  3  0  0  0  0  0  0
  160.0160  209.6430  152.2230 F   0  0  0  0  0  0  0  0  0  0  0  0
  160.2580  212.9470  155.6830 O   0  0  0  0  0  1  0  0  0  0  0  0
  161.1780  210.7490  156.0560 C   0  0  0  0  0  3  0  0  0  0  0  0
  160.4010  209.9920  153.4760 C   0  0  0  0  0  0  0  0  0  0  0  0
  161.0570  209.0700  154.3050 C   0  0  0  0  0  0  0  0  0  0  0  0
  160.1360  211.2850  153.9400 C   0  0  0  0  0  3  0  0  0  0  0  0
  1  6  1  0  0  0  0
  2  5  1  0  0  0  0
  2 13  1  0  0  0  0
  3  2  2  0  0  0  0
  4  7  2  0  0  0  0
  5 17  2  0  0  0  0
  6 18  2  0  0  0  0
  7  3  1  0  0  0  0
  8 12  2  0  0  0  0
  8 14  1  0  0  0  0
  9  1  1  0  0  0  0
 10 19  1  0  0  0  0
 11  4  1  0  0  0  0
 13  8  1  0  0  0  0
 14 23  1  0  0  0  0
 15  5  1  0  0  0  0
 15  1  2  0  0  0  0
 16  4  1  0  0  0  0
 16 21  2  0  0  0  0
 17 12  1  0  0  0  0
 17 18  1  0  0  0  0
 19 13  2  0  0  0  0
 20  3  1  0  0  0  0
 20 10  2  0  0  0  0
 21 20  1  0  0  0  0
 23 30  1  0  0  0  0
 23 22  1  6  0  0  0
 24 27  1  0  0  0  0
 24 28  1  0  0  0  0
 25 28  2  0  0  0  0
 26 29  1  0  0  0  0
 29 31  1  0  0  0  0
 29 30  2  0  0  0  0
 30 25  1  0  0  0  0
 31 24  2  0  0  0  0
M  END
>  <MODEL>
6

>  <REMARK>
 VINA RESULT:      -9.8      4.102      6.471
  Name = 
  2 active torsions:
  status: ('A' for Active; 'I' for Inactive)
    1  A    between atoms: C_5  and  N_16
    2  A    between atoms: C_5  and  C_30
                            x       y       z     vdW  Elec       q    Type
                         _______ _______ _______ _____ _____    ______ ____

>  <TORSDO>
F 2

$$$$
=
 OpenBabel11122413193D

 31 35  0  0  1  0  0  0  0  0999 V2000
  161.6330  204.5270  147.1900 C   0  0  0  0  0  0  0  0  0  0  0  0
  161.5630  207.0390  149.9990 C   0  0  0  0  0  0  0  0  0  0  0  0
  161.3570  206.3000  151.2110 C   0  0  0  0  0  0  0  0  0  0  0  0
  161.0220  204.2070  152.4320 C   0  0  0  0  0  0  0  0  0  0  0  0
  161.6500  206.4490  148.7000 C   0  0  0  0  0  0  0  0  0  0  0  0
  161.8330  205.3670  146.0960 C   0  0  0  0  0  3  0  0  0  0  0  0
  161.2210  204.9000  151.2360 C   0  0  0  0  0  3  0  0  0  0  0  0
  161.8900  209.2290  148.9390 C   0  0  0  0  0  0  0  0  0  0  0  0
  161.5250  203.1890  147.0070 F   0  0  0  0  0  0  0  0  0  0  0  0
  161.4130  208.3710  152.5020 C   0  0  0  0  0  3  0  0  0  0  0  0
  160.8920  202.8260  152.4200 O   0  0  0  0  0  1  0  0  0  0  0  0
  161.9660  208.6280  147.7260 N   0  0  0  0  0  0  0  0  0  0  0  0
  161.6880  208.4560  150.0940 C   0  0  0  0  0  0  0  0  0  0  0  0
  162.0130  210.6540  149.0340 N   0  0  0  0  0  2  0  0  0  0  0  0
  161.5420  205.0650  148.4750 C   0  0  0  0  0  3  0  0  0  0  0  0
  160.9540  204.9030  153.6380 C   0  0  0  0  0  3  0  0  0  0  0  0
  161.8540  207.2880  147.5740 C   0  0  0  0  0  0  0  0  0  0  0  0
  161.9440  206.7430  146.2880 C   0  0  0  0  0  3  0  0  0  0  0  0
  161.6110  209.0960  151.3360 C   0  0  0  0  0  3  0  0  0  0  0  0
  161.2860  206.9900  152.4520 C   0  0  0  0  0  0  0  0  0  0  0  0
  161.0870  206.2910  153.6470 C   0  0  0  0  0  3  0  0  0  0  0  0
  163.4190  212.4490  148.1530 C   0  0  0  0  0  1  0  0  0  0  0  0
  162.2570  211.5080  147.8790 C   0  0  2  0  0  3  0  0  0  0  0  0
  158.7150  213.7340  146.8790 C   0  0  0  0  0  0  0  0  0  0  0  0
  160.0550  212.5570  148.5150 C   0  0  0  0  0  3  0  0  0  0  0  0
  161.7450  212.4890  145.2580 F   0  0  0  0  0  0  0  0  0  0  0  0
  157.5730  214.4530  146.5540 O   0  0  0  0  0  1  0  0  0  0  0  0
  158.9050  213.2810  148.1860 C   0  0  0  0  0  3  0  0  0  0  0  0
  160.8260  212.7410  146.2230 C   0  0  0  0  0  0  0  0  0  0  0  0
  161.0210  212.2810  147.5340 C   0  0  0  0  0  0  0  0  0  0  0  0
  159.6740  213.4650  145.9000 C   0  0  0  0  0  3  0  0  0  0  0  0
  1 15  1  0  0  0  0
  2 13  2  0  0  0  0
  2  3  1  0  0  0  0
  3  7  2  0  0  0  0
  3 20  1  0  0  0  0
  4 16  2  0  0  0  0
  5  2  1  0  0  0  0
  6 18  1  0  0  0  0
  6  1  2  0  0  0  0
  7  4  1  0  0  0  0
  8 14  1  0  0  0  0
  8 13  1  0  0  0  0
  9  1  1  0  0  0  0
 11  4  1  0  0  0  0
 12  8  2  0  0  0  0
 13 19  1  0  0  0  0
 15  5  2  0  0  0  0
 16 21  1  0  0  0  0
 17 12  1  0  0  0  0
 17  5  1  0  0  0  0
 18 17  2  0  0  0  0
 19 10  2  0  0  0  0
 20 10  1  0  0  0  0
 20 21  2  0  0  0  0
 23 22  1  1  0  0  0
 23 14  1  0  0  0  0
 24 28  1  0  0  0  0
 26 29  1  0  0  0  0
 27 24  1  0  0  0  0
 28 25  2  0  0  0  0
 29 30  2  0  0  0  0
 30 23  1  0  0  0  0
 30 25  1  0  0  0  0
 31 29  1  0  0  0  0
 31 24  2  0  0  0  0
M  END
>  <MODEL>
7

>  <REMARK>
 VINA RESULT:      -9.5      2.276      4.185
  Name = 
  2 active torsions:
  status: ('A' for Active; 'I' for Inactive)
    1  A    between atoms: C_5  and  N_16
    2  A    between atoms: C_5  and  C_30
                            x       y       z     vdW  Elec       q    Type
                         _______ _______ _______ _____ _____    ______ ____

>  <TORSDO>
F 2

$$$$
=
 OpenBabel11122413193D

 31 35  0  0  1  0  0  0  0  0999 V2000
  161.2010  208.3550  154.0080 C   0  0  0  0  0  0  0  0  0  0  0  0
  161.4030  207.4870  150.3460 C   0  0  0  0  0  0  0  0  0  0  0  0
  161.2180  206.0680  150.2460 C   0  0  0  0  0  0  0  0  0  0  0  0
  160.8290  203.8670  151.2380 C   0  0  0  0  0  0  0  0  0  0  0  0
  161.3950  208.2170  151.5760 C   0  0  0  0  0  0  0  0  0  0  0  0
  161.3950  209.7340  153.9590 C   0  0  0  0  0  3  0  0  0  0  0  0
  161.0060  205.2460  151.3670 C   0  0  0  0  0  3  0  0  0  0  0  0
  161.7970  209.6120  149.1820 C   0  0  0  0  0  0  0  0  0  0  0  0
  161.0110  207.7390  155.2000 F   0  0  0  0  0  0  0  0  0  0  0  0
  161.4490  206.1950  147.8190 C   0  0  0  0  0  3  0  0  0  0  0  0
  160.6220  203.0860  152.3660 O   0  0  0  0  0  1  0  0  0  0  0  0
  161.7830  210.2640  150.3710 N   0  0  0  0  0  0  0  0  0  0  0  0
  161.6100  208.2220  149.1410 C   0  0  0  0  0  0  0  0  0  0  0  0
  162.0080  210.3500  147.9710 N   0  0  0  0  0  2  0  0  0  0  0  0
  161.2020  207.6080  152.8290 C   0  0  0  0  0  3  0  0  0  0  0  0
  160.8590  203.2750  149.9760 C   0  0  0  0  0  3  0  0  0  0  0  0
  161.5910  209.6210  151.5470 C   0  0  0  0  0  0  0  0  0  0  0  0
  161.5900  210.3640  152.7320 C   0  0  0  0  0  3  0  0  0  0  0  0
  161.6300  207.5670  147.9040 C   0  0  0  0  0  3  0  0  0  0  0  0
  161.2450  205.4450  148.9690 C   0  0  0  0  0  0  0  0  0  0  0  0
  161.0660  204.0630  148.8450 C   0  0  0  0  0  3  0  0  0  0  0  0
  163.2070  212.2320  148.9680 C   0  0  0  0  0  1  0  0  0  0  0  0
  162.1740  211.7970  147.9420 C   0  0  2  0  0  3  0  0  0  0  0  0
  158.4050  213.7470  148.6490 C   0  0  0  0  0  0  0  0  0  0  0  0
  160.6200  213.1350  149.4090 C   0  0  0  0  0  3  0  0  0  0  0  0
  160.0750  211.8310  146.0210 F   0  0  0  0  0  0  0  0  0  0  0  0
  157.1880  214.3760  148.8740 O   0  0  0  0  0  1  0  0  0  0  0  0
  159.3940  213.7680  149.6350 C   0  0  0  0  0  3  0  0  0  0  0  0
  159.8650  212.4600  147.2050 C   0  0  0  0  0  0  0  0  0  0  0  0
  160.8620  212.4760  148.1930 C   0  0  0  0  0  0  0  0  0  0  0  0
  158.6410  213.0950  147.4360 C   0  0  0  0  0  3  0  0  0  0  0  0
  1  9  1  0  0  0  0
  2  5  1  0  0  0  0
  3  2  1  0  0  0  0
  3  7  1  0  0  0  0
  4  7  2  0  0  0  0
  4 11  1  0  0  0  0
  5 15  1  0  0  0  0
  6  1  1  0  0  0  0
  8 12  2  0  0  0  0
 10 19  2  0  0  0  0
 10 20  1  0  0  0  0
 12 17  1  0  0  0  0
 13  8  1  0  0  0  0
 13  2  2  0  0  0  0
 14  8  1  0  0  0  0
 15  1  2  0  0  0  0
 16  4  1  0  0  0  0
 17  5  2  0  0  0  0
 17 18  1  0  0  0  0
 18  6  2  0  0  0  0
 19 13  1  0  0  0  0
 20  3  2  0  0  0  0
 21 20  1  0  0  0  0
 21 16  2  0  0  0  0
 23 14  1  0  0  0  0
 23 30  1  0  0  0  0
 23 22  1  1  0  0  0
 24 27  1  0  0  0  0
 24 28  1  0  0  0  0
 25 28  2  0  0  0  0
 26 29  1  0  0  0  0
 29 31  1  0  0  0  0
 29 30  2  0  0  0  0
 30 25  1  0  0  0  0
 31 24  2  0  0  0  0
M  END
>  <MODEL>
8

>  <REMARK>
 VINA RESULT:      -9.3      1.756      2.193
  Name = 
  2 active torsions:
  status: ('A' for Active; 'I' for Inactive)
    1  A    between atoms: C_5  and  N_16
    2  A    between atoms: C_5  and  C_30
                            x       y       z     vdW  Elec       q    Type
                         _______ _______ _______ _____ _____    ______ ____

>  <TORSDO>
F 2

$$$$
=
 OpenBabel11122413193D

 31 35  0  0  1  0  0  0  0  0999 V2000
  160.8120  203.7990  152.5120 C   0  0  0  0  0  0  0  0  0  0  0  0
  161.4500  206.1360  149.6250 C   0  0  0  0  0  0  0  0  0  0  0  0
  161.4290  205.3380  148.4330 C   0  0  0  0  0  0  0  0  0  0  0  0
  161.1880  203.1990  147.2720 C   0  0  0  0  0  0  0  0  0  0  0  0
  161.2480  205.6220  150.9440 C   0  0  0  0  0  0  0  0  0  0  0  0
  160.8610  204.6890  153.5820 C   0  0  0  0  0  3  0  0  0  0  0  0
  161.2030  203.9500  148.4490 C   0  0  0  0  0  3  0  0  0  0  0  0
  161.7200  208.3630  150.6210 C   0  0  0  0  0  0  0  0  0  0  0  0
  160.5790  202.4830  152.7350 F   0  0  0  0  0  0  0  0  0  0  0  0
  161.8720  207.3210  147.0800 C   0  0  0  0  0  3  0  0  0  0  0  0
  160.9610  201.8310  147.3250 O   0  0  0  0  0  1  0  0  0  0  0  0
  161.5250  207.8320  151.8540 N   0  0  0  0  0  0  0  0  0  0  0  0
  161.6890  207.5350  149.4880 C   0  0  0  0  0  0  0  0  0  0  0  0
  161.9640  209.7690  150.4850 N   0  0  0  0  0  2  0  0  0  0  0  0
  161.0050  204.2630  151.2090 C   0  0  0  0  0  3  0  0  0  0  0  0
  161.4000  203.8230  146.0440 C   0  0  0  0  0  3  0  0  0  0  0  0
  161.2940  206.5130  152.0460 C   0  0  0  0  0  0  0  0  0  0  0  0
  161.1010  206.0420  153.3490 C   0  0  0  0  0  3  0  0  0  0  0  0
  161.8950  208.1020  148.2250 C   0  0  0  0  0  3  0  0  0  0  0  0
  161.6420  205.9550  147.1700 C   0  0  0  0  0  0  0  0  0  0  0  0
  161.6260  205.1980  145.9940 C   0  0  0  0  0  3  0  0  0  0  0  0
  162.2220  209.9280  152.9110 C   0  0  0  0  0  1  0  0  0  0  0  0
  161.9750  210.6870  151.6170 C   0  0  2  0  0  3  0  0  0  0  0  0
  158.2730  212.8680  151.8080 C   0  0  0  0  0  0  0  0  0  0  0  0
  159.7200  211.1240  152.6570 C   0  0  0  0  0  3  0  0  0  0  0  0
  161.3460  212.8100  149.8310 F   0  0  0  0  0  0  0  0  0  0  0  0
  157.0790  213.5730  151.8680 O   0  0  0  0  0  1  0  0  0  0  0  0
  158.5190  211.8350  152.7160 C   0  0  0  0  0  3  0  0  0  0  0  0
  160.4310  212.4830  150.7770 C   0  0  0  0  0  0  0  0  0  0  0  0
  160.6830  211.4430  151.6850 C   0  0  0  0  0  0  0  0  0  0  0  0
  159.2270  213.1910  150.8420 C   0  0  0  0  0  3  0  0  0  0  0  0
  1  9  1  0  0  0  0
  1  6  1  0  0  0  0
  2  5  1  0  0  0  0
  3  7  1  0  0  0  0
  3  2  2  0  0  0  0
  4 11  1  0  0  0  0
  4  7  2  0  0  0  0
  5 15  1  0  0  0  0
  5 17  2  0  0  0  0
  8 12  2  0  0  0  0
 10 20  2  0  0  0  0
 10 19  1  0  0  0  0
 12 17  1  0  0  0  0
 13  2  1  0  0  0  0
 13  8  1  0  0  0  0
 14  8  1  0  0  0  0
 14 23  1  0  0  0  0
 15  1  2  0  0  0  0
 16  4  1  0  0  0  0
 17 18  1  0  0  0  0
 18  6  2  0  0  0  0
 19 13  2  0  0  0  0
 20  3  1  0  0  0  0
 21 16  2  0  0  0  0
 21 20  1  0  0  0  0
 23 30  1  0  0  0  0
 23 22  1  1  0  0  0
 24 27  1  0  0  0  0
 24 28  1  0  0  0  0
 25 28  2  0  0  0  0
 26 29  1  0  0  0  0
 29 31  1  0  0  0  0
 29 30  2  0  0  0  0
 30 25  1  0  0  0  0
 31 24  2  0  0  0  0
M  END
>  <MODEL>
9

>  <REMARK>
 VINA RESULT:      -9.0      3.156      4.076
  Name = 
  2 active torsions:
  status: ('A' for Active; 'I' for Inactive)
    1  A    between atoms: C_5  and  N_16
    2  A    between atoms: C_5  and  C_30
                            x       y       z     vdW  Elec       q    Type
                         _______ _______ _______ _____ _____    ______ ____

>  <TORSDO>
F 2

$$$$
