=
 OpenBabel11122413453D

 37 43  0  0  1  0  0  0  0  0999 V2000
  160.6770  208.0840  152.4080 C   0  0  0  0  0  2  0  0  0  0  0  0
  163.0350  210.8820  156.6070 S   0  0  0  0  0  0  0  0  0  0  0  0
  160.2530  211.4830  153.3310 C   0  0  0  0  0  0  0  0  0  0  0  0
  160.7620  206.6130  152.8380 C   0  0  1  0  0  3  0  0  0  0  0  0
  161.5590  210.6690  149.7920 C   0  0  0  0  0  2  0  0  0  0  0  0
  160.5950  211.7490  155.7020 C   0  0  0  0  0  0  0  0  0  0  0  0
  160.9060  210.9450  152.1880 N   0  0  0  0  0  0  0  0  0  0  0  0
  161.9720  206.2350  150.6650 C   0  0  0  0  0  0  0  0  0  0  0  0
  160.9200  211.1680  154.4760 C   0  0  0  0  0  0  0  0  0  0  0  0
  160.5840  211.3040  150.7940 C   0  0  1  0  0  3  0  0  0  0  0  0
  159.4820  212.6030  155.7600 C   0  0  0  0  0  3  0  0  0  0  0  0
  161.7940  205.7760  152.0750 C   0  0  0  0  0  2  0  0  0  0  0  0
  162.0340  210.2280  154.2000 C   0  0  2  0  0  3  0  0  0  0  0  0
  163.0910  209.5300  157.2600 O   0  0  0  0  0  0  0  0  0  0  0  0
  158.3760  212.6320  152.1130 C   0  0  0  0  0  2  0  0  0  0  0  0
  158.7470  212.8820  154.5900 C   0  0  0  0  0  3  0  0  0  0  0  0
  163.3220  210.7150  154.8480 C   0  0  0  0  0  2  0  0  0  0  0  0
  162.9680  207.3210  150.3810 C   0  0  0  0  0  2  0  0  0  0  0  0
  161.5030  209.1510  149.8340 C   0  0  0  0  0  2  0  0  0  0  0  0
  159.1430  212.3330  153.3550 C   0  0  0  0  0  0  0  0  0  0  0  0
  162.0880  210.1920  152.6570 C   0  0  1  0  0  3  0  0  0  0  0  0
  161.4570  211.5770  156.8290 N   0  0  0  0  0  2  0  0  0  0  0  0
  160.5110  212.8480  150.6500 C   0  0  2  0  0  3  0  0  0  0  0  0
  164.0780  211.7840  157.2010 O   0  0  0  0  0  0  0  0  0  0  0  0
  162.5060  208.6590  150.7750 N   0  0  1  0  0  0  0  0  0  0  0  0
  161.2770  205.7810  149.7710 O   0  0  0  0  0  0  0  0  0  0  0  0
  162.0550  208.7370  152.1770 C   0  0  2  0  0  3  0  0  0  0  0  0
  159.1890  213.4750  151.1340 C   0  0  0  0  0  2  0  0  0  0  0  0
  162.0910  213.9150  148.9870 C   0  0  0  0  0  3  0  0  0  0  0  0
  160.8300  213.3720  149.2790 C   0  0  0  0  0  0  0  0  0  0  0  0
  159.8490  213.3250  148.2830 C   0  0  0  0  0  3  0  0  0  0  0  0
  159.1460  213.7650  146.0180 O   0  0  0  0  0  1  0  0  0  0  0  0
  161.3800  214.3540  146.7150 C   0  0  0  0  0  3  0  0  0  0  0  0
  160.1230  213.8150  147.0030 C   0  0  0  0  0  0  0  0  0  0  0  0
  162.3640  214.4050  147.7060 C   0  0  0  0  0  3  0  0  0  0  0  0
  160.0570  207.3500  154.8030 C   0  0  0  0  0  1  0  0  0  0  0  0
  161.0200  206.5340  154.2080 O   0  0  0  0  0  0  0  0  0  0  0  0
  1  4  1  0  0  0  0
  2 22  1  0  0  0  0
  2 24  2  0  0  0  0
  2 14  2  0  0  0  0
  3 20  2  0  0  0  0
  3  9  1  0  0  0  0
  4 37  1  1  0  0  0
  5 19  1  0  0  0  0
  6 11  1  0  0  0  0
  6 22  1  0  0  0  0
  7  3  1  0  0  0  0
  8 12  1  0  0  0  0
  9  6  2  0  0  0  0
 10  5  1  6  0  0  0
 10  7  1  0  0  0  0
 12  4  1  0  0  0  0
 13  9  1  0  0  0  0
 13 17  1  1  0  0  0
 15 20  1  0  0  0  0
 16 11  2  0  0  0  0
 17  2  1  0  0  0  0
 18  8  1  0  0  0  0
 18 25  1  0  0  0  0
 20 16  1  0  0  0  0
 21  7  1  6  0  0  0
 21 13  1  0  0  0  0
 23 30  1  6  0  0  0
 23 10  1  0  0  0  0
 23 28  1  0  0  0  0
 25 19  1  6  0  0  0
 25 27  1  0  0  0  0
 26  8  2  0  0  0  0
 27  1  1  6  0  0  0
 27 21  1  0  0  0  0
 28 15  1  0  0  0  0
 29 30  1  0  0  0  0
 31 30  2  0  0  0  0
 32 34  1  0  0  0  0
 33 34  2  0  0  0  0
 33 35  1  0  0  0  0
 34 31  1  0  0  0  0
 35 29  2  0  0  0  0
 37 36  1  0  0  0  0
M  END
>  <MODEL>
1

>  <REMARK>
 VINA RESULT:      -4.8      0.000      0.000
  Name = 
  2 active torsions:
  status: ('A' for Active; 'I' for Inactive)
    1  A    between atoms: C_4  and  O_37
    2  A    between atoms: C_23  and  C_30
                            x       y       z     vdW  Elec       q    Type
                         _______ _______ _______ _____ _____    ______ ____

>  <TORSDO>
F 2

$$$$
