=
 OpenBabel11122413133D

 31 35  0  0  1  0  0  0  0  0999 V2000
  162.2860  211.8950  148.7560 C   0  0  0  0  0  0  0  0  0  0  0  0
  161.5360  210.5160  152.2200 C   0  0  2  0  0  3  0  0  0  0  0  0
  160.2120  211.1310  152.6510 C   0  0  0  0  0  0  0  0  0  0  0  0
  158.4910  212.8360  152.4280 C   0  0  0  0  0  0  0  0  0  0  0  0
  161.7600  210.5750  150.7260 C   0  0  0  0  0  0  0  0  0  0  0  0
  162.0900  210.7730  147.9470 C   0  0  0  0  0  3  0  0  0  0  0  0
  159.6850  212.2540  151.9950 C   0  0  0  0  0  3  0  0  0  0  0  0
  160.8480  208.1020  151.9360 C   0  0  2  0  0  3  0  0  0  0  0  0
  162.6630  213.1950  148.1450 C   0  0  0  0  0  1  0  0  0  0  0  0
  160.0540  209.5290  154.4820 O   0  0  0  0  0  0  0  0  0  0  0  0
  157.9740  213.9380  151.7610 O   0  0  0  0  0  1  0  0  0  0  0  0
  161.3320  208.0750  150.4840 C   0  0  0  0  0  2  0  0  0  0  0  0
  161.7070  209.0780  152.7510 C   0  0  2  0  0  3  0  0  0  0  0  0
  162.1240  211.7950  150.1390 C   0  0  0  0  0  3  0  0  0  0  0  0
  157.8200  212.3120  153.5340 C   0  0  0  0  0  3  0  0  0  0  0  0
  161.5680  209.4410  149.9060 C   0  0  0  0  0  0  0  0  0  0  0  0
  161.7430  209.5500  148.5220 C   0  0  0  0  0  3  0  0  0  0  0  0
  161.3700  209.0350  154.2440 C   0  0  0  0  0  2  0  0  0  0  0  0
  159.5420  210.6270  153.7860 C   0  0  0  0  0  0  0  0  0  0  0  0
  158.3470  211.2110  154.2120 C   0  0  0  0  0  3  0  0  0  0  0  0
  160.9370  206.7600  152.4990 N   0  0  0  0  0  2  0  0  0  0  0  0
  163.0230  205.5030  152.4720 C   0  0  0  0  0  1  0  0  0  0  0  0
  161.8270  205.9650  151.6610 C   0  0  1  0  0  3  0  0  0  0  0  0
  160.8490  202.2550  150.2120 C   0  0  0  0  0  0  0  0  0  0  0  0
  160.5690  203.8940  151.9340 O   0  0  0  0  0  0  0  0  0  0  0  0
  161.1760  205.5030  148.8330 O   0  0  0  0  0  0  0  0  0  0  0  0
  160.5860  200.8320  149.8750 C   0  0  0  0  0  1  0  0  0  0  0  0
  161.1810  202.6560  151.6330 C   0  0  0  0  0  2  0  0  0  0  0  0
  161.0300  204.5790  149.6770 C   0  0  0  0  0  0  0  0  0  0  0  0
  161.1210  204.8180  151.0930 N   0  0  0  0  0  0  0  0  0  0  0  0
  160.8100  203.1930  149.2590 C   0  0  0  0  0  3  0  0  0  0  0  0
  1 14  1  0  0  0  0
  2  5  1  6  0  0  0
  2  3  1  0  0  0  0
  2 13  1  0  0  0  0
  3 19  1  0  0  0  0
  4 15  2  0  0  0  0
  6 17  1  0  0  0  0
  6  1  2  0  0  0  0
  7  4  1  0  0  0  0
  7  3  2  0  0  0  0
  8 21  1  1  0  0  0
  8 13  1  0  0  0  0
  9  1  1  0  0  0  0
 11  4  1  0  0  0  0
 12  8  1  0  0  0  0
 13 18  1  1  0  0  0
 14  5  2  0  0  0  0
 15 20  1  0  0  0  0
 16 12  1  0  0  0  0
 16  5  1  0  0  0  0
 17 16  2  0  0  0  0
 18 10  1  0  0  0  0
 19 20  2  0  0  0  0
 19 10  1  0  0  0  0
 23 22  1  1  0  0  0
 23 21  1  0  0  0  0
 24 28  1  0  0  0  0
 26 29  2  0  0  0  0
 27 24  1  0  0  0  0
 28 25  1  0  0  0  0
 29 30  1  0  0  0  0
 30 23  1  0  0  0  0
 30 25  1  0  0  0  0
 31 29  1  0  0  0  0
 31 24  2  0  0  0  0
M  END
>  <MODEL>
1

>  <REMARK>
 VINA RESULT:      -6.6      0.000      0.000
  Name = 
  3 active torsions:
  status: ('A' for Active; 'I' for Inactive)
    1  A    between atoms: C_5  and  N_16
    2  A    between atoms: C_5  and  N_30
    3  A    between atoms: C_10  and  N_16
                            x       y       z     vdW  Elec       q    Type
                         _______ _______ _______ _____ _____    ______ ____

>  <TORSDO>
F 3

$$$$
=
 OpenBabel11122413133D

 31 35  0  0  1  0  0  0  0  0999 V2000
  161.2870  200.9610  148.7590 C   0  0  0  0  0  0  0  0  0  0  0  0
  162.0510  204.6040  147.9780 C   0  0  2  0  0  3  0  0  0  0  0  0
  161.2850  204.9420  146.7070 C   0  0  0  0  0  0  0  0  0  0  0  0
  160.1070  204.2540  144.6930 C   0  0  0  0  0  0  0  0  0  0  0  0
  161.5190  203.3780  148.6850 C   0  0  0  0  0  0  0  0  0  0  0  0
  160.4750  201.0690  149.8900 C   0  0  0  0  0  3  0  0  0  0  0  0
  160.7700  203.9320  145.8800 C   0  0  0  0  0  3  0  0  0  0  0  0
  160.7930  206.0120  149.6570 C   0  0  2  0  0  3  0  0  0  0  0  0
  161.5940  199.6240  148.1900 C   0  0  0  0  0  1  0  0  0  0  0  0
  161.6950  207.3160  147.0810 O   0  0  0  0  0  0  0  0  0  0  0  0
  159.5900  203.2450  143.8920 O   0  0  0  0  0  1  0  0  0  0  0  0
  160.4820  204.7950  150.5310 C   0  0  0  0  0  2  0  0  0  0  0  0
  162.1350  205.8070  148.9410 C   0  0  2  0  0  3  0  0  0  0  0  0
  161.8080  202.1110  148.1620 C   0  0  0  0  0  3  0  0  0  0  0  0
  159.9690  205.5890  144.3100 C   0  0  0  0  0  3  0  0  0  0  0  0
  160.7010  203.4840  149.8320 C   0  0  0  0  0  0  0  0  0  0  0  0
  160.1920  202.3260  150.4290 C   0  0  0  0  0  3  0  0  0  0  0  0
  162.5760  207.0540  148.1710 C   0  0  0  0  0  2  0  0  0  0  0  0
  161.1660  206.2860  146.2980 C   0  0  0  0  0  0  0  0  0  0  0  0
  160.5000  206.6020  145.1100 C   0  0  0  0  0  3  0  0  0  0  0  0
  160.8460  207.2060  150.4930 N   0  0  0  0  0  2  0  0  0  0  0  0
  162.6400  206.4870  151.9750 C   0  0  0  0  0  1  0  0  0  0  0  0
  161.1600  206.8010  151.8580 C   0  0  1  0  0  3  0  0  0  0  0  0
  161.1980  209.9510  154.4840 C   0  0  0  0  0  0  0  0  0  0  0  0
  160.5200  209.1010  152.3500 O   0  0  0  0  0  0  0  0  0  0  0  0
  160.5980  206.4680  154.7230 O   0  0  0  0  0  0  0  0  0  0  0  0
  161.3250  211.2020  155.2750 C   0  0  0  0  0  1  0  0  0  0  0  0
  161.4390  209.9640  152.9890 C   0  0  0  0  0  2  0  0  0  0  0  0
  160.7280  207.6200  154.2320 C   0  0  0  0  0  0  0  0  0  0  0  0
  160.7810  207.8420  152.8110 N   0  0  0  0  0  0  0  0  0  0  0  0
  160.8840  208.8000  155.0860 C   0  0  0  0  0  3  0  0  0  0  0  0
  1  6  1  0  0  0  0
  2  3  1  6  0  0  0
  2  5  1  0  0  0  0
  2 13  1  0  0  0  0
  4  7  1  0  0  0  0
  5 16  2  0  0  0  0
  6 17  2  0  0  0  0
  7  3  2  0  0  0  0
  8 21  1  1  0  0  0
  8 12  1  0  0  0  0
  9  1  1  0  0  0  0
 10 18  1  0  0  0  0
 11  4  1  0  0  0  0
 13 18  1  6  0  0  0
 13  8  1  0  0  0  0
 14  5  1  0  0  0  0
 14  1  2  0  0  0  0
 15  4  2  0  0  0  0
 15 20  1  0  0  0  0
 16 17  1  0  0  0  0
 16 12  1  0  0  0  0
 19  3  1  0  0  0  0
 19 10  1  0  0  0  0
 20 19  2  0  0  0  0
 21 23  1  0  0  0  0
 23 22  1  6  0  0  0
 23 30  1  0  0  0  0
 24 31  2  0  0  0  0
 24 27  1  0  0  0  0
 25 30  1  0  0  0  0
 25 28  1  0  0  0  0
 28 24  1  0  0  0  0
 29 26  2  0  0  0  0
 29 31  1  0  0  0  0
 30 29  1  0  0  0  0
M  END
>  <MODEL>
2

>  <REMARK>
 VINA RESULT:      -6.4      2.808      8.280
  Name = 
  3 active torsions:
  status: ('A' for Active; 'I' for Inactive)
    1  A    between atoms: C_5  and  N_16
    2  A    between atoms: C_5  and  N_30
    3  A    between atoms: C_10  and  N_16
                            x       y       z     vdW  Elec       q    Type
                         _______ _______ _______ _____ _____    ______ ____

>  <TORSDO>
F 3

$$$$
=
 OpenBabel11122413133D

 31 35  0  0  1  0  0  0  0  0999 V2000
  160.7370  209.3670  154.7340 C   0  0  0  0  0  0  0  0  0  0  0  0
  162.0610  210.0200  151.2300 C   0  0  2  0  0  3  0  0  0  0  0  0
  161.6460  208.8250  150.3830 C   0  0  0  0  0  0  0  0  0  0  0  0
  160.8840  206.5230  150.1890 C   0  0  0  0  0  0  0  0  0  0  0  0
  161.2490  210.1620  152.4970 C   0  0  0  0  0  0  0  0  0  0  0  0
  159.7070  210.3050  154.8360 C   0  0  0  0  0  3  0  0  0  0  0  0
  161.2210  207.6270  150.9770 C   0  0  0  0  0  3  0  0  0  0  0  0
  160.6230  211.8270  150.2070 C   0  0  2  0  0  3  0  0  0  0  0  0
  161.0120  208.4410  155.8620 C   0  0  0  0  0  1  0  0  0  0  0  0
  162.2240  210.0500  148.3560 O   0  0  0  0  0  0  0  0  0  0  0  0
  160.4520  205.3490  150.7890 O   0  0  0  0  0  1  0  0  0  0  0  0
  159.9870  212.1650  151.5570 C   0  0  0  0  0  2  0  0  0  0  0  0
  162.0600  211.3330  150.4200 C   0  0  2  0  0  3  0  0  0  0  0  0
  161.5050  209.2980  153.5700 C   0  0  0  0  0  3  0  0  0  0  0  0
  160.9870  206.6000  148.7990 C   0  0  0  0  0  3  0  0  0  0  0  0
  160.2100  211.1130  152.6050 C   0  0  0  0  0  0  0  0  0  0  0  0
  159.4530  211.1810  153.7790 C   0  0  0  0  0  3  0  0  0  0  0  0
  162.8010  211.1240  149.0960 C   0  0  0  0  0  2  0  0  0  0  0  0
  161.7750  208.8840  148.9790 C   0  0  0  0  0  0  0  0  0  0  0  0
  161.4330  207.7770  148.1960 C   0  0  0  0  0  3  0  0  0  0  0  0
  160.6190  213.0150  149.3600 N   0  0  0  0  0  2  0  0  0  0  0  0
  158.7320  214.4530  148.8040 C   0  0  0  0  0  1  0  0  0  0  0  0
  159.3450  213.0730  148.6530 C   0  0  1  0  0  3  0  0  0  0  0  0
  159.9360  213.2670  144.5990 C   0  0  0  0  0  0  0  0  0  0  0  0
  160.7830  212.6090  146.7390 O   0  0  0  0  0  0  0  0  0  0  0  0
  157.2470  212.3660  146.7210 O   0  0  0  0  0  0  0  0  0  0  0  0
  160.3280  213.4650  143.1790 C   0  0  0  0  0  1  0  0  0  0  0  0
  160.9170  213.5700  145.7110 C   0  0  0  0  0  2  0  0  0  0  0  0
  158.4160  212.6130  146.3240 C   0  0  0  0  0  0  0  0  0  0  0  0
  159.5190  212.7430  147.2390 N   0  0  0  0  0  0  0  0  0  0  0  0
  158.7110  212.8320  144.9070 C   0  0  0  0  0  3  0  0  0  0  0  0
  1  6  1  0  0  0  0
  1  9  1  0  0  0  0
  2  3  1  6  0  0  0
  2  5  1  0  0  0  0
  3  7  1  0  0  0  0
  4 11  1  0  0  0  0
  4  7  2  0  0  0  0
  5 16  2  0  0  0  0
  5 14  1  0  0  0  0
  8 21  1  6  0  0  0
  8 13  1  0  0  0  0
  8 12  1  0  0  0  0
 10 19  1  0  0  0  0
 10 18  1  0  0  0  0
 12 16  1  0  0  0  0
 13 18  1  6  0  0  0
 13  2  1  0  0  0  0
 14  1  2  0  0  0  0
 15  4  1  0  0  0  0
 16 17  1  0  0  0  0
 17  6  2  0  0  0  0
 19  3  2  0  0  0  0
 20 15  2  0  0  0  0
 20 19  1  0  0  0  0
 23 22  1  6  0  0  0
 23 21  1  0  0  0  0
 24 31  2  0  0  0  0
 24 28  1  0  0  0  0
 25 30  1  0  0  0  0
 27 24  1  0  0  0  0
 28 25  1  0  0  0  0
 29 26  2  0  0  0  0
 29 30  1  0  0  0  0
 30 23  1  0  0  0  0
 31 29  1  0  0  0  0
M  END
>  <MODEL>
3

>  <REMARK>
 VINA RESULT:      -6.0      3.390      7.802
  Name = 
  3 active torsions:
  status: ('A' for Active; 'I' for Inactive)
    1  A    between atoms: C_5  and  N_16
    2  A    between atoms: C_5  and  N_30
    3  A    between atoms: C_10  and  N_16
                            x       y       z     vdW  Elec       q    Type
                         _______ _______ _______ _____ _____    ______ ____

>  <TORSDO>
F 3

$$$$
=
 OpenBabel11122413133D

 31 35  0  0  1  0  0  0  0  0999 V2000
  162.3360  210.2140  149.0880 C   0  0  0  0  0  0  0  0  0  0  0  0
  162.0700  207.8220  152.0330 C   0  0  2  0  0  3  0  0  0  0  0  0
  161.1510  208.4880  153.0470 C   0  0  0  0  0  0  0  0  0  0  0  0
  160.0460  210.4660  153.9320 C   0  0  0  0  0  0  0  0  0  0  0  0
  161.9270  208.3900  150.6390 C   0  0  0  0  0  0  0  0  0  0  0  0
  161.6090  209.5440  148.1020 C   0  0  0  0  0  3  0  0  0  0  0  0
  160.8550  209.8580  152.9690 C   0  0  0  0  0  3  0  0  0  0  0  0
  160.6180  205.8880  151.3020 C   0  0  2  0  0  3  0  0  0  0  0  0
  162.9360  211.5410  148.7970 C   0  0  0  0  0  1  0  0  0  0  0  0
  160.9580  206.3850  154.2660 O   0  0  0  0  0  0  0  0  0  0  0  0
  159.7500  211.8190  153.8350 O   0  0  0  0  0  1  0  0  0  0  0  0
  160.6980  206.3090  149.8330 C   0  0  0  0  0  2  0  0  0  0  0  0
  161.9110  206.2880  152.0260 C   0  0  2  0  0  3  0  0  0  0  0  0
  162.4950  209.6380  150.3500 C   0  0  0  0  0  3  0  0  0  0  0  0
  159.5390  209.7150  154.9940 C   0  0  0  0  0  3  0  0  0  0  0  0
  161.1970  207.7120  149.6370 C   0  0  0  0  0  0  0  0  0  0  0  0
  161.0510  208.2940  148.3740 C   0  0  0  0  0  3  0  0  0  0  0  0
  161.9550  205.7580  153.4620 C   0  0  0  0  0  2  0  0  0  0  0  0
  160.6580  207.7440  154.1400 C   0  0  0  0  0  0  0  0  0  0  0  0
  159.8470  208.3580  155.0980 C   0  0  0  0  0  3  0  0  0  0  0  0
  160.4210  204.4450  151.3810 N   0  0  0  0  0  2  0  0  0  0  0  0
  162.1490  202.7360  151.5390 C   0  0  0  0  0  1  0  0  0  0  0  0
  161.5050  203.7910  150.6580 C   0  0  1  0  0  3  0  0  0  0  0  0
  160.9750  201.3870  147.3780 C   0  0  0  0  0  0  0  0  0  0  0  0
  160.1310  202.1560  149.4820 O   0  0  0  0  0  0  0  0  0  0  0  0
  161.9920  204.7370  147.9190 O   0  0  0  0  0  0  0  0  0  0  0  0
  160.7880  200.3450  146.3350 C   0  0  0  0  0  1  0  0  0  0  0  0
  160.7440  201.0580  148.8370 C   0  0  0  0  0  2  0  0  0  0  0  0
  161.4770  203.6050  148.1170 C   0  0  0  0  0  0  0  0  0  0  0  0
  161.0180  203.1930  149.4170 N   0  0  0  0  0  0  0  0  0  0  0  0
  161.3630  202.6200  147.0390 C   0  0  0  0  0  3  0  0  0  0  0  0
  1 14  1  0  0  0  0
  2  5  1  6  0  0  0
  2  3  1  0  0  0  0
  3 19  1  0  0  0  0
  4 15  2  0  0  0  0
  6 17  1  0  0  0  0
  6  1  2  0  0  0  0
  7  3  2  0  0  0  0
  7  4  1  0  0  0  0
  8 21  1  6  0  0  0
  8 13  1  0  0  0  0
  9  1  1  0  0  0  0
 11  4  1  0  0  0  0
 12  8  1  0  0  0  0
 13  2  1  0  0  0  0
 13 18  1  1  0  0  0
 14  5  2  0  0  0  0
 15 20  1  0  0  0  0
 16 12  1  0  0  0  0
 16  5  1  0  0  0  0
 17 16  2  0  0  0  0
 18 10  1  0  0  0  0
 19 10  1  0  0  0  0
 19 20  2  0  0  0  0
 23 21  1  0  0  0  0
 23 22  1  1  0  0  0
 24 28  1  0  0  0  0
 26 29  2  0  0  0  0
 27 24  1  0  0  0  0
 28 25  1  0  0  0  0
 29 30  1  0  0  0  0
 30 25  1  0  0  0  0
 30 23  1  0  0  0  0
 31 24  2  0  0  0  0
 31 29  1  0  0  0  0
M  END
>  <MODEL>
4

>  <REMARK>
 VINA RESULT:      -6.0      1.763      2.674
  Name = 
  3 active torsions:
  status: ('A' for Active; 'I' for Inactive)
    1  A    between atoms: C_5  and  N_16
    2  A    between atoms: C_5  and  N_30
    3  A    between atoms: C_10  and  N_16
                            x       y       z     vdW  Elec       q    Type
                         _______ _______ _______ _____ _____    ______ ____

>  <TORSDO>
F 3

$$$$
=
 OpenBabel11122413133D

 31 35  0  0  1  0  0  0  0  0999 V2000
  160.5310  207.7300  156.2680 C   0  0  0  0  0  0  0  0  0  0  0  0
  161.8630  208.9170  152.9100 C   0  0  2  0  0  3  0  0  0  0  0  0
  161.5010  207.8400  151.8980 C   0  0  0  0  0  0  0  0  0  0  0  0
  160.8280  205.5620  151.3710 C   0  0  0  0  0  0  0  0  0  0  0  0
  161.0340  208.8500  154.1720 C   0  0  0  0  0  0  0  0  0  0  0  0
  159.4660  208.6070  156.4860 C   0  0  0  0  0  3  0  0  0  0  0  0
  161.1150  206.5550  152.3110 C   0  0  0  0  0  3  0  0  0  0  0  0
  160.3690  210.7980  152.1300 C   0  0  2  0  0  3  0  0  0  0  0  0
  160.8300  206.6640  157.2590 C   0  0  0  0  0  1  0  0  0  0  0  0
  162.0530  209.3580  150.0720 O   0  0  0  0  0  0  0  0  0  0  0  0
  160.4340  204.3000  151.7940 O   0  0  0  0  0  1  0  0  0  0  0  0
  159.7070  210.9200  153.5050 C   0  0  0  0  0  2  0  0  0  0  0  0
  161.8210  210.3300  152.2930 C   0  0  2  0  0  3  0  0  0  0  0  0
  161.3120  207.8530  155.1180 C   0  0  0  0  0  3  0  0  0  0  0  0
  160.9410  205.8380  150.0080 C   0  0  0  0  0  3  0  0  0  0  0  0
  159.9600  209.7380  154.3980 C   0  0  0  0  0  0  0  0  0  0  0  0
  159.1890  209.6130  155.5590 C   0  0  0  0  0  3  0  0  0  0  0  0
  162.5820  210.3360  150.9640 C   0  0  0  0  0  2  0  0  0  0  0  0
  161.6410  208.1000  150.5190 C   0  0  0  0  0  0  0  0  0  0  0  0
  161.3490  207.1030  149.5830 C   0  0  0  0  0  3  0  0  0  0  0  0
  160.3280  212.0930  151.4590 N   0  0  0  0  0  2  0  0  0  0  0  0
  158.9930  213.5990  152.8320 C   0  0  0  0  0  1  0  0  0  0  0  0
  158.9980  212.6630  151.6370 C   0  0  1  0  0  3  0  0  0  0  0  0
  157.6650  213.5980  147.8730 C   0  0  0  0  0  0  0  0  0  0  0  0
  157.2360  213.5890  150.2280 O   0  0  0  0  0  0  0  0  0  0  0  0
  160.7110  213.9730  149.6410 O   0  0  0  0  0  0  0  0  0  0  0  0
  157.0150  213.7920  146.5510 C   0  0  0  0  0  1  0  0  0  0  0  0
  156.9040  212.9530  149.0110 C   0  0  0  0  0  2  0  0  0  0  0  0
  159.4860  213.8000  149.4090 C   0  0  0  0  0  0  0  0  0  0  0  0
  158.5690  213.3710  150.4320 N   0  0  0  0  0  0  0  0  0  0  0  0
  158.9310  213.9780  148.0650 C   0  0  0  0  0  3  0  0  0  0  0  0
  1  6  1  0  0  0  0
  1  9  1  0  0  0  0
  2  3  1  6  0  0  0
  2  5  1  0  0  0  0
  3  7  1  0  0  0  0
  4 11  1  0  0  0  0
  4  7  2  0  0  0  0
  5 16  2  0  0  0  0
  5 14  1  0  0  0  0
  8 21  1  1  0  0  0
  8 13  1  0  0  0  0
  8 12  1  0  0  0  0
 10 19  1  0  0  0  0
 10 18  1  0  0  0  0
 12 16  1  0  0  0  0
 13 18  1  6  0  0  0
 13  2  1  0  0  0  0
 14  1  2  0  0  0  0
 15  4  1  0  0  0  0
 16 17  1  0  0  0  0
 17  6  2  0  0  0  0
 19  3  2  0  0  0  0
 20 15  2  0  0  0  0
 20 19  1  0  0  0  0
 21 23  1  0  0  0  0
 23 22  1  1  0  0  0
 24 31  2  0  0  0  0
 24 28  1  0  0  0  0
 25 30  1  0  0  0  0
 27 24  1  0  0  0  0
 28 25  1  0  0  0  0
 29 26  2  0  0  0  0
 29 30  1  0  0  0  0
 30 23  1  0  0  0  0
 31 29  1  0  0  0  0
M  END
>  <MODEL>
5

>  <REMARK>
 VINA RESULT:      -5.9      2.889      7.902
  Name = 
  3 active torsions:
  status: ('A' for Active; 'I' for Inactive)
    1  A    between atoms: C_5  and  N_16
    2  A    between atoms: C_5  and  N_30
    3  A    between atoms: C_10  and  N_16
                            x       y       z     vdW  Elec       q    Type
                         _______ _______ _______ _____ _____    ______ ____

>  <TORSDO>
F 3

$$$$
=
 OpenBabel11122413133D

 31 35  0  0  1  0  0  0  0  0999 V2000
  161.0060  206.3430  146.5390 C   0  0  0  0  0  0  0  0  0  0  0  0
  160.3430  204.9240  150.0040 C   0  0  2  0  0  3  0  0  0  0  0  0
  160.7590  203.4610  149.9580 C   0  0  0  0  0  0  0  0  0  0  0  0
  161.2900  201.4440  148.7050 C   0  0  0  0  0  0  0  0  0  0  0  0
  160.9500  205.7500  148.8940 C   0  0  0  0  0  0  0  0  0  0  0  0
  162.1000  207.1790  146.7700 C   0  0  0  0  0  3  0  0  0  0  0  0
  160.9510  202.7990  148.7350 C   0  0  0  0  0  3  0  0  0  0  0  0
  162.1130  205.8540  151.5480 C   0  0  2  0  0  3  0  0  0  0  0  0
  160.4540  206.2040  145.1660 C   0  0  0  0  0  1  0  0  0  0  0  0
  160.6500  203.3440  152.3900 O   0  0  0  0  0  0  0  0  0  0  0  0
  161.4920  200.8060  147.4890 O   0  0  0  0  0  1  0  0  0  0  0  0
  162.5550  206.8890  150.5120 C   0  0  0  0  0  2  0  0  0  0  0  0
  160.6150  205.5610  151.3830 C   0  0  2  0  0  3  0  0  0  0  0  0
  160.4330  205.6340  147.5960 C   0  0  0  0  0  3  0  0  0  0  0  0
  161.4220  200.7310  149.8980 C   0  0  0  0  0  3  0  0  0  0  0  0
  162.0540  206.6010  149.1260 C   0  0  0  0  0  0  0  0  0  0  0  0
  162.6140  207.3150  148.0610 C   0  0  0  0  0  3  0  0  0  0  0  0
  160.0800  204.6470  152.4880 C   0  0  0  0  0  2  0  0  0  0  0  0
  160.8660  202.7250  151.1560 C   0  0  0  0  0  0  0  0  0  0  0  0
  161.2080  201.3700  151.1200 C   0  0  0  0  0  3  0  0  0  0  0  0
  162.3810  206.3660  152.8870 N   0  0  0  0  0  2  0  0  0  0  0  0
  160.8170  206.2540  154.7520 C   0  0  0  0  0  1  0  0  0  0  0  0
  161.1450  206.9180  153.4270 C   0  0  1  0  0  3  0  0  0  0  0  0
  160.4080  210.8520  154.3240 C   0  0  0  0  0  0  0  0  0  0  0  0
  161.6640  208.8690  154.7950 O   0  0  0  0  0  0  0  0  0  0  0  0
  160.8310  208.9730  151.3500 O   0  0  0  0  0  0  0  0  0  0  0  0
  160.0820  212.2020  154.8520 C   0  0  0  0  0  1  0  0  0  0  0  0
  160.6180  209.6910  155.2720 C   0  0  0  0  0  2  0  0  0  0  0  0
  160.8770  209.3020  152.5650 C   0  0  0  0  0  0  0  0  0  0  0  0
  161.2500  208.3670  153.5940 N   0  0  0  0  0  0  0  0  0  0  0  0
  160.5040  210.6470  153.0070 C   0  0  0  0  0  3  0  0  0  0  0  0
  1  6  2  0  0  0  0
  1 14  1  0  0  0  0
  2  5  1  6  0  0  0
  2 13  1  0  0  0  0
  3  2  1  0  0  0  0
  3 19  1  0  0  0  0
  4  7  1  0  0  0  0
  4 15  2  0  0  0  0
  5 16  1  0  0  0  0
  6 17  1  0  0  0  0
  7  3  2  0  0  0  0
  8 21  1  1  0  0  0
  9  1  1  0  0  0  0
 10 18  1  0  0  0  0
 11  4  1  0  0  0  0
 12  8  1  0  0  0  0
 13  8  1  0  0  0  0
 13 18  1  1  0  0  0
 14  5  2  0  0  0  0
 15 20  1  0  0  0  0
 16 12  1  0  0  0  0
 17 16  2  0  0  0  0
 19 10  1  0  0  0  0
 20 19  2  0  0  0  0
 21 23  1  0  0  0  0
 23 30  1  0  0  0  0
 23 22  1  1  0  0  0
 24 27  1  0  0  0  0
 24 28  1  0  0  0  0
 25 28  1  0  0  0  0
 26 29  2  0  0  0  0
 29 31  1  0  0  0  0
 29 30  1  0  0  0  0
 30 25  1  0  0  0  0
 31 24  2  0  0  0  0
M  END
>  <MODEL>
6

>  <REMARK>
 VINA RESULT:      -5.8      2.565      7.405
  Name = 
  3 active torsions:
  status: ('A' for Active; 'I' for Inactive)
    1  A    between atoms: C_5  and  N_16
    2  A    between atoms: C_5  and  N_30
    3  A    between atoms: C_10  and  N_16
                            x       y       z     vdW  Elec       q    Type
                         _______ _______ _______ _____ _____    ______ ____

>  <TORSDO>
F 3

$$$$
=
 OpenBabel11122413133D

 31 35  0  0  1  0  0  0  0  0999 V2000
  161.2870  208.6610  138.1450 C   0  0  0  0  0  0  0  0  0  0  0  0
  159.8100  212.0680  138.9670 C   0  0  2  0  0  3  0  0  0  0  0  0
  158.3090  211.8630  139.1120 C   0  0  0  0  0  0  0  0  0  0  0  0
  156.3000  210.5470  138.7270 C   0  0  0  0  0  0  0  0  0  0  0  0
  160.6010  210.7860  139.1010 C   0  0  0  0  0  0  0  0  0  0  0  0
  161.9630  208.3440  139.3250 C   0  0  0  0  0  3  0  0  0  0  0  0
  157.6850  210.7030  138.6280 C   0  0  0  0  0  3  0  0  0  0  0  0
  160.4320  212.6000  141.3560 C   0  0  2  0  0  3  0  0  0  0  0  0
  161.2830  207.7020  137.0110 C   0  0  0  0  0  1  0  0  0  0  0  0
  158.0970  214.0720  140.1200 O   0  0  0  0  0  0  0  0  0  0  0  0
  155.6970  209.3880  138.2580 O   0  0  0  0  0  1  0  0  0  0  0  0
  161.4480  211.4570  141.4080 C   0  0  0  0  0  2  0  0  0  0  0  0
  160.3430  213.1510  139.9270 C   0  0  2  0  0  3  0  0  0  0  0  0
  160.6110  209.8780  138.0330 C   0  0  0  0  0  3  0  0  0  0  0  0
  155.5220  211.5580  139.2950 C   0  0  0  0  0  3  0  0  0  0  0  0
  161.2900  210.4650  140.2910 C   0  0  0  0  0  0  0  0  0  0  0  0
  161.9730  209.2480  140.3890 C   0  0  0  0  0  3  0  0  0  0  0  0
  159.4570  214.3970  139.8420 C   0  0  0  0  0  2  0  0  0  0  0  0
  157.5120  212.8910  139.6570 C   0  0  0  0  0  0  0  0  0  0  0  0
  156.1270  212.7280  139.7570 C   0  0  0  0  0  3  0  0  0  0  0  0
  160.8440  213.6530  142.2780 N   0  0  0  0  0  2  0  0  0  0  0  0
  163.1430  213.6910  143.0830 C   0  0  0  0  0  1  0  0  0  0  0  0
  161.7640  213.0800  143.2530 C   0  0  1  0  0  3  0  0  0  0  0  0
  161.2510  212.9740  147.3200 C   0  0  0  0  0  0  0  0  0  0  0  0
  161.8610  214.2510  145.3890 O   0  0  0  0  0  0  0  0  0  0  0  0
  159.4170  211.8380  144.5100 O   0  0  0  0  0  0  0  0  0  0  0  0
  161.2850  212.9820  148.8060 C   0  0  0  0  0  1  0  0  0  0  0  0
  162.3820  213.5930  146.5270 C   0  0  0  0  0  2  0  0  0  0  0  0
  160.2440  212.4830  145.2090 C   0  0  0  0  0  0  0  0  0  0  0  0
  161.2770  213.2890  144.6150 N   0  0  0  0  0  0  0  0  0  0  0  0
  160.2300  212.4070  146.6710 C   0  0  0  0  0  3  0  0  0  0  0  0
  1  6  1  0  0  0  0
  2  5  1  1  0  0  0
  2  3  1  0  0  0  0
  2 13  1  0  0  0  0
  3 19  1  0  0  0  0
  4 15  2  0  0  0  0
  5 16  2  0  0  0  0
  6 17  2  0  0  0  0
  7  4  1  0  0  0  0
  7  3  2  0  0  0  0
  8 12  1  0  0  0  0
  8 21  1  1  0  0  0
  9  1  1  0  0  0  0
 11  4  1  0  0  0  0
 13 18  1  1  0  0  0
 13  8  1  0  0  0  0
 14  1  2  0  0  0  0
 14  5  1  0  0  0  0
 15 20  1  0  0  0  0
 16 17  1  0  0  0  0
 16 12  1  0  0  0  0
 18 10  1  0  0  0  0
 19 20  2  0  0  0  0
 19 10  1  0  0  0  0
 21 23  1  0  0  0  0
 23 22  1  1  0  0  0
 23 30  1  0  0  0  0
 24 27  1  0  0  0  0
 25 28  1  0  0  0  0
 26 29  2  0  0  0  0
 28 24  1  0  0  0  0
 29 31  1  0  0  0  0
 30 29  1  0  0  0  0
 30 25  1  0  0  0  0
 31 24  2  0  0  0  0
M  END
>  <MODEL>
7

>  <REMARK>
 VINA RESULT:      -5.6      8.666     12.225
  Name = 
  3 active torsions:
  status: ('A' for Active; 'I' for Inactive)
    1  A    between atoms: C_5  and  N_16
    2  A    between atoms: C_5  and  N_30
    3  A    between atoms: C_10  and  N_16
                            x       y       z     vdW  Elec       q    Type
                         _______ _______ _______ _____ _____    ______ ____

>  <TORSDO>
F 3

$$$$
=
 OpenBabel11122413133D

 31 35  0  0  1  0  0  0  0  0999 V2000
  161.2690  201.1690  148.9950 C   0  0  0  0  0  0  0  0  0  0  0  0
  162.0870  204.7990  148.2140 C   0  0  2  0  0  3  0  0  0  0  0  0
  161.3530  205.1390  146.9250 C   0  0  0  0  0  0  0  0  0  0  0  0
  160.2130  204.4520  144.8880 C   0  0  0  0  0  0  0  0  0  0  0  0
  161.5270  203.5830  148.9150 C   0  0  0  0  0  0  0  0  0  0  0  0
  160.4330  201.2900  150.1070 C   0  0  0  0  0  3  0  0  0  0  0  0
  160.8460  204.1300  146.0910 C   0  0  0  0  0  3  0  0  0  0  0  0
  160.8070  206.2290  149.8570 C   0  0  2  0  0  3  0  0  0  0  0  0
  161.5750  199.8250  148.4400 C   0  0  0  0  0  1  0  0  0  0  0  0
  161.7790  207.5100  147.2960 O   0  0  0  0  0  0  0  0  0  0  0  0
  159.7030  203.4450  144.0800 O   0  0  0  0  0  1  0  0  0  0  0  0
  160.4630  205.0190  150.7300 C   0  0  0  0  0  2  0  0  0  0  0  0
  162.1620  206.0060  149.1730 C   0  0  2  0  0  3  0  0  0  0  0  0
  161.8150  202.3100  148.4040 C   0  0  0  0  0  3  0  0  0  0  0  0
  160.0970  205.7870  144.4960 C   0  0  0  0  0  3  0  0  0  0  0  0
  160.6850  203.7020  150.0420 C   0  0  0  0  0  0  0  0  0  0  0  0
  160.1510  202.5520  150.6340 C   0  0  0  0  0  3  0  0  0  0  0  0
  162.6320  207.2450  148.4060 C   0  0  0  0  0  2  0  0  0  0  0  0
  161.2570  206.4820  146.5060 C   0  0  0  0  0  0  0  0  0  0  0  0
  160.6200  206.7990  145.3030 C   0  0  0  0  0  3  0  0  0  0  0  0
  160.8530  207.4260  150.6890 N   0  0  0  0  0  2  0  0  0  0  0  0
  162.5370  206.2410  151.9890 C   0  0  0  0  0  1  0  0  0  0  0  0
  161.2460  207.0370  152.0380 C   0  0  1  0  0  3  0  0  0  0  0  0
  160.5680  210.3900  154.3000 C   0  0  0  0  0  0  0  0  0  0  0  0
  161.2050  208.0830  154.2400 O   0  0  0  0  0  0  0  0  0  0  0  0
  162.2330  209.6910  151.2520 O   0  0  0  0  0  0  0  0  0  0  0  0
  160.1610  211.4840  155.2200 C   0  0  0  0  0  1  0  0  0  0  0  0
  160.1520  208.9620  154.5800 C   0  0  0  0  0  2  0  0  0  0  0  0
  161.6960  209.5230  152.3790 C   0  0  0  0  0  0  0  0  0  0  0  0
  161.4020  208.2110  152.8940 N   0  0  0  0  0  0  0  0  0  0  0  0
  161.2910  210.6590  153.2090 C   0  0  0  0  0  3  0  0  0  0  0  0
  1  6  1  0  0  0  0
  2  3  1  6  0  0  0
  2  5  1  0  0  0  0
  2 13  1  0  0  0  0
  4  7  1  0  0  0  0
  5 16  2  0  0  0  0
  6 17  2  0  0  0  0
  7  3  2  0  0  0  0
  8 21  1  1  0  0  0
  8 12  1  0  0  0  0
  9  1  1  0  0  0  0
 10 18  1  0  0  0  0
 11  4  1  0  0  0  0
 13 18  1  6  0  0  0
 13  8  1  0  0  0  0
 14  5  1  0  0  0  0
 14  1  2  0  0  0  0
 15  4  2  0  0  0  0
 15 20  1  0  0  0  0
 16 17  1  0  0  0  0
 16 12  1  0  0  0  0
 19  3  1  0  0  0  0
 19 10  1  0  0  0  0
 20 19  2  0  0  0  0
 21 23  1  0  0  0  0
 23 22  1  6  0  0  0
 23 30  1  0  0  0  0
 24 28  1  0  0  0  0
 24 27  1  0  0  0  0
 25 28  1  0  0  0  0
 26 29  2  0  0  0  0
 29 30  1  0  0  0  0
 29 31  1  0  0  0  0
 30 25  1  0  0  0  0
 31 24  2  0  0  0  0
M  END
>  <MODEL>
8

>  <REMARK>
 VINA RESULT:      -4.9      2.665      8.120
  Name = 
  3 active torsions:
  status: ('A' for Active; 'I' for Inactive)
    1  A    between atoms: C_5  and  N_16
    2  A    between atoms: C_5  and  N_30
    3  A    between atoms: C_10  and  N_16
                            x       y       z     vdW  Elec       q    Type
                         _______ _______ _______ _____ _____    ______ ____

>  <TORSDO>
F 3

$$$$
=
 OpenBabel11122413133D

 31 35  0  0  1  0  0  0  0  0999 V2000
  160.9380  204.6800  145.6480 C   0  0  0  0  0  0  0  0  0  0  0  0
  160.5020  205.9380  149.2100 C   0  0  2  0  0  3  0  0  0  0  0  0
  160.8020  204.7580  150.1230 C   0  0  0  0  0  0  0  0  0  0  0  0
  161.0590  202.3660  150.4850 C   0  0  0  0  0  0  0  0  0  0  0  0
  161.0620  205.7680  147.8160 C   0  0  0  0  0  0  0  0  0  0  0  0
  162.1090  205.3290  145.2500 C   0  0  0  0  0  3  0  0  0  0  0  0
  160.8270  203.4450  149.6280 C   0  0  0  0  0  3  0  0  0  0  0  0
  162.4750  207.4280  149.7270 C   0  0  2  0  0  3  0  0  0  0  0  0
  160.2500  203.7510  144.7140 C   0  0  0  0  0  1  0  0  0  0  0  0
  160.9150  206.2600  152.0400 O   0  0  0  0  0  0  0  0  0  0  0  0
  161.0960  201.0740  149.9800 O   0  0  0  0  0  1  0  0  0  0  0  0
  162.8930  207.4830  148.2560 C   0  0  0  0  0  2  0  0  0  0  0  0
  160.9510  207.2780  149.8280 C   0  0  2  0  0  3  0  0  0  0  0  0
  160.4170  204.9010  146.9240 C   0  0  0  0  0  3  0  0  0  0  0  0
  161.2500  202.5880  151.8500 C   0  0  0  0  0  3  0  0  0  0  0  0
  162.2430  206.4270  147.4090 C   0  0  0  0  0  0  0  0  0  0  0  0
  162.7520  206.2070  146.1250 C   0  0  0  0  0  3  0  0  0  0  0  0
  160.4560  207.3710  151.2740 C   0  0  0  0  0  2  0  0  0  0  0  0
  160.9660  204.9690  151.5080 C   0  0  0  0  0  0  0  0  0  0  0  0
  161.2010  203.8860  152.3600 C   0  0  0  0  0  3  0  0  0  0  0  0
  162.9070  208.6500  150.3970 N   0  0  0  0  0  2  0  0  0  0  0  0
  161.8410  209.9600  152.1530 C   0  0  0  0  0  1  0  0  0  0  0  0
  161.7250  209.4350  150.7340 C   0  0  1  0  0  3  0  0  0  0  0  0
  162.2930  212.7530  148.3920 C   0  0  0  0  0  0  0  0  0  0  0  0
  161.9630  210.3840  148.5010 O   0  0  0  0  0  0  0  0  0  0  0  0
  160.2900  211.9560  151.2030 O   0  0  0  0  0  0  0  0  0  0  0  0
  162.6870  213.8540  147.4750 C   0  0  0  0  0  1  0  0  0  0  0  0
  162.9310  211.3870  148.2630 C   0  0  0  0  0  2  0  0  0  0  0  0
  161.0100  211.8170  150.1790 C   0  0  0  0  0  0  0  0  0  0  0  0
  161.5480  210.5390  149.7930 N   0  0  0  0  0  0  0  0  0  0  0  0
  161.3830  212.9630  149.3470 C   0  0  0  0  0  3  0  0  0  0  0  0
  1 14  1  0  0  0  0
  2  5  1  6  0  0  0
  2 13  1  0  0  0  0
  2  3  1  0  0  0  0
  3 19  1  0  0  0  0
  4 15  2  0  0  0  0
  6  1  2  0  0  0  0
  6 17  1  0  0  0  0
  7  3  2  0  0  0  0
  7  4  1  0  0  0  0
  8 13  1  0  0  0  0
  8 21  1  1  0  0  0
  9  1  1  0  0  0  0
 11  4  1  0  0  0  0
 12  8  1  0  0  0  0
 13 18  1  1  0  0  0
 14  5  2  0  0  0  0
 15 20  1  0  0  0  0
 16  5  1  0  0  0  0
 16 12  1  0  0  0  0
 17 16  2  0  0  0  0
 18 10  1  0  0  0  0
 19 10  1  0  0  0  0
 19 20  2  0  0  0  0
 21 23  1  0  0  0  0
 23 22  1  1  0  0  0
 24 31  2  0  0  0  0
 25 30  1  0  0  0  0
 27 24  1  0  0  0  0
 28 24  1  0  0  0  0
 28 25  1  0  0  0  0
 29 26  2  0  0  0  0
 30 29  1  0  0  0  0
 30 23  1  0  0  0  0
 31 29  1  0  0  0  0
M  END
>  <MODEL>
9

>  <REMARK>
 VINA RESULT:      -4.7      2.594      7.590
  Name = 
  3 active torsions:
  status: ('A' for Active; 'I' for Inactive)
    1  A    between atoms: C_5  and  N_16
    2  A    between atoms: C_5  and  N_30
    3  A    between atoms: C_10  and  N_16
                            x       y       z     vdW  Elec       q    Type
                         _______ _______ _______ _____ _____    ______ ____

>  <TORSDO>
F 3

$$$$
