=
 OpenBabel11122414063D

 28 32  0  0  1  0  0  0  0  0999 V2000
  160.8050  208.5680  155.4060 C   0  0  0  0  0  0  0  0  0  0  0  0
  158.2930  211.5000  155.1440 O   0  0  0  0  0  0  0  0  0  0  0  0
  162.4110  208.6570  149.4260 O   0  0  0  0  0  0  0  0  0  0  0  0
  162.7530  210.0530  156.7690 C   0  0  0  0  0  3  0  0  0  0  0  0
  161.9540  210.7740  150.3700 N   0  0  0  0  0  0  0  0  0  0  0  0
  159.7930  207.7300  154.6880 C   0  0  0  0  0  2  0  0  0  0  0  0
  159.2600  213.7610  155.0640 O   0  0  0  0  0  0  0  0  0  0  0  0
  158.9570  212.5240  154.2670 S   0  0  0  0  0  0  0  0  0  0  0  0
  158.2930  212.6210  151.6110 C   0  0  0  0  0  0  0  0  0  0  0  0
  160.4680  211.8830  153.5890 C   0  0  2  0  0  3  0  0  0  0  0  0
  161.5520  205.7210  152.1680 O   0  0  0  0  0  0  0  0  0  0  0  0
  161.4900  210.1020  152.4870 C   0  0  2  0  0  3  0  0  0  0  0  0
  159.5050  212.2830  151.2820 N   0  0  0  0  0  0  0  0  0  0  0  0
  157.9250  212.9260  152.9530 N   0  0  0  0  0  2  0  0  0  0  0  0
  160.9080  206.6910  152.6460 C   0  0  0  0  0  0  0  0  0  0  0  0
  161.1920  209.8320  154.9180 C   0  0  0  0  0  0  0  0  0  0  0  0
  162.1030  209.3600  150.4260 C   0  0  0  0  0  0  0  0  0  0  0  0
  157.2430  212.6380  150.5610 C   0  0  0  0  0  1  0  0  0  0  0  0
  160.6430  207.8820  151.7810 C   0  0  0  0  0  2  0  0  0  0  0  0
  162.1790  210.5600  155.6010 C   0  0  0  0  0  3  0  0  0  0  0  0
  161.3860  208.0680  156.5780 C   0  0  0  0  0  3  0  0  0  0  0  0
  162.3540  208.8090  157.2590 C   0  0  0  0  0  3  0  0  0  0  0  0
  160.4480  206.6270  153.9990 N   0  0  0  0  0  2  0  0  0  0  0  0
  161.5600  211.1350  151.6840 C   0  0  2  0  0  3  0  0  0  0  0  0
  161.8430  208.8170  151.7990 C   0  0  2  0  0  3  0  0  0  0  0  0
  160.7140  212.2800  152.1180 C   0  0  2  0  0  3  0  0  0  0  0  0
  161.7560  211.5620  149.1650 C   0  0  0  0  0  1  0  0  0  0  0  0
  160.5970  210.3570  153.6410 C   0  0  1  0  0  3  0  0  0  0  0  0
  1 21  1  0  0  0  0
  3 17  2  0  0  0  0
  4 22  1  0  0  0  0
  5 17  1  0  0  0  0
  5 24  1  0  0  0  0
  6  1  1  0  0  0  0
  8  7  2  0  0  0  0
  8  2  2  0  0  0  0
  9 14  1  0  0  0  0
 10 28  1  0  0  0  0
 10  8  1  6  0  0  0
 11 15  2  0  0  0  0
 12 28  1  0  0  0  0
 13  9  2  0  0  0  0
 13 26  1  0  0  0  0
 14  8  1  0  0  0  0
 15 23  1  0  0  0  0
 16  1  2  0  0  0  0
 16 20  1  0  0  0  0
 17 25  1  0  0  0  0
 18  9  1  0  0  0  0
 19 25  1  0  0  0  0
 19 15  1  0  0  0  0
 20  4  2  0  0  0  0
 21 22  2  0  0  0  0
 23  6  1  0  0  0  0
 24 26  1  0  0  0  0
 24 12  1  0  0  0  0
 25 12  1  0  0  0  0
 26 10  1  0  0  0  0
 27  5  1  0  0  0  0
 28 16  1  0  0  0  0
M  END
>  <MODEL>
1

>  <REMARK>
 VINA RESULT:      -4.1      0.000      0.000
  Name = 
  0 active torsions:
  status: ('A' for Active; 'I' for Inactive)
                            x       y       z     vdW  Elec       q    Type
                         _______ _______ _______ _____ _____    ______ ____

>  <TORSDO>
F 0

$$$$
=
 OpenBabel11122414063D

 28 32  0  0  1  0  0  0  0  0999 V2000
  158.9790  213.7270  151.8960 C   0  0  0  0  0  0  0  0  0  0  0  0
  160.0040  214.1680  155.6020 O   0  0  0  0  0  0  0  0  0  0  0  0
  161.5330  208.1220  151.2620 O   0  0  0  0  0  0  0  0  0  0  0  0
  156.2650  213.2990  152.4560 C   0  0  0  0  0  3  0  0  0  0  0  0
  160.5980  208.5590  153.3870 N   0  0  0  0  0  0  0  0  0  0  0  0
  160.4160  213.9590  151.5450 C   0  0  0  0  0  2  0  0  0  0  0  0
  158.6440  212.9630  157.2610 O   0  0  0  0  0  0  0  0  0  0  0  0
  159.7510  212.8370  156.2530 S   0  0  0  0  0  0  0  0  0  0  0  0
  161.8510  211.1110  156.5930 C   0  0  0  0  0  0  0  0  0  0  0  0
  159.2980  211.6220  155.0390 C   0  0  2  0  0  3  0  0  0  0  0  0
  161.3690  211.5250  148.9670 O   0  0  0  0  0  0  0  0  0  0  0  0
  159.8220  210.6540  152.9860 C   0  0  2  0  0  3  0  0  0  0  0  0
  161.2980  210.2580  155.7810 N   0  0  0  0  0  0  0  0  0  0  0  0
  161.1800  212.2880  157.0340 N   0  0  0  0  0  2  0  0  0  0  0  0
  161.2230  212.0060  150.1210 C   0  0  0  0  0  0  0  0  0  0  0  0
  158.6050  212.7930  152.8830 C   0  0  0  0  0  0  0  0  0  0  0  0
  160.9070  208.8920  152.0380 C   0  0  0  0  0  0  0  0  0  0  0  0
  163.2510  210.8800  157.0320 C   0  0  0  0  0  1  0  0  0  0  0  0
  161.5730  211.1660  151.3070 C   0  0  0  0  0  2  0  0  0  0  0  0
  157.2430  212.5770  153.1440 C   0  0  0  0  0  3  0  0  0  0  0  0
  157.9920  214.4460  151.2110 C   0  0  0  0  0  3  0  0  0  0  0  0
  156.6400  214.2360  151.4920 C   0  0  0  0  0  3  0  0  0  0  0  0
  160.7280  213.3410  150.2640 N   0  0  0  0  0  2  0  0  0  0  0  0
  159.9450  209.7140  153.8900 C   0  0  2  0  0  3  0  0  0  0  0  0
  160.4080  210.2550  151.6630 C   0  0  2  0  0  3  0  0  0  0  0  0
  159.9140  210.2290  155.2860 C   0  0  2  0  0  3  0  0  0  0  0  0
  161.2400  207.5220  154.1760 C   0  0  0  0  0  1  0  0  0  0  0  0
  159.6590  211.9940  153.5960 C   0  0  1  0  0  3  0  0  0  0  0  0
  1 16  1  0  0  0  0
  2  8  2  0  0  0  0
  3 17  2  0  0  0  0
  4 20  1  0  0  0  0
  5 24  1  0  0  0  0
  5 27  1  0  0  0  0
  6  1  1  0  0  0  0
  8 14  1  0  0  0  0
  8  7  2  0  0  0  0
  9 18  1  0  0  0  0
  9 14  1  0  0  0  0
 10 26  1  0  0  0  0
 10  8  1  1  0  0  0
 11 15  2  0  0  0  0
 12 28  1  0  0  0  0
 12 24  1  0  0  0  0
 13  9  2  0  0  0  0
 15 23  1  0  0  0  0
 15 19  1  0  0  0  0
 16 20  2  0  0  0  0
 16 28  1  0  0  0  0
 17  5  1  0  0  0  0
 19 25  1  0  0  0  0
 21 22  1  0  0  0  0
 21  1  2  0  0  0  0
 22  4  2  0  0  0  0
 23  6  1  0  0  0  0
 24 26  1  0  0  0  0
 25 17  1  0  0  0  0
 25 12  1  0  0  0  0
 26 13  1  0  0  0  0
 28 10  1  0  0  0  0
M  END
>  <MODEL>
2

>  <REMARK>
 VINA RESULT:      -1.8      2.052      5.493
  Name = 
  0 active torsions:
  status: ('A' for Active; 'I' for Inactive)
                            x       y       z     vdW  Elec       q    Type
                         _______ _______ _______ _____ _____    ______ ____

>  <TORSDO>
F 0

$$$$
