=
 OpenBabel11122413243D

 31 35  0  0  1  0  0  0  0  0999 V2000
  160.7000  205.5970  145.5520 C   0  0  0  0  0  0  0  0  0  0  0  0
  160.4540  206.5570  149.2500 C   0  0  2  0  0  3  0  0  0  0  0  0
  160.7420  205.3960  150.1910 C   0  0  0  0  0  0  0  0  0  0  0  0
  160.7620  203.0040  150.6630 C   0  0  0  0  0  0  0  0  0  0  0  0
  160.9770  206.3040  147.8620 C   0  0  0  0  0  0  0  0  0  0  0  0
  162.1770  205.6870  145.2750 C   0  0  0  0  0  2  0  0  0  0  0  0
  160.5950  204.1380  149.7470 C   0  0  0  0  0  3  0  0  0  0  0  0
  162.3670  208.3800  149.3040 C   0  0  2  0  0  3  0  0  0  0  0  0
  159.9150  205.2580  144.6300 O   0  0  0  0  0  0  0  0  0  0  0  0
  161.5580  206.9680  151.9950 C   0  0  0  0  0  2  0  0  0  0  0  0
  160.5030  201.8350  150.2790 O   0  0  0  0  0  0  0  0  0  0  0  0
  163.1920  207.2510  148.6660 C   0  0  0  0  0  2  0  0  0  0  0  0
  160.9670  207.9280  149.7770 C   0  0  2  0  0  3  0  0  0  0  0  0
  160.1720  205.8530  146.9000 C   0  0  0  0  0  3  0  0  0  0  0  0
  161.1850  203.2380  151.9720 O   0  0  0  0  0  0  0  0  0  0  0  0
  162.3980  206.5910  147.5880 C   0  0  0  0  0  0  0  0  0  0  0  0
  162.9460  206.3380  146.3970 C   0  0  0  0  0  3  0  0  0  0  0  0
  160.8160  208.0870  151.2860 C   0  0  0  0  0  2  0  0  0  0  0  0
  160.8980  205.6340  151.6860 C   0  0  2  0  0  3  0  0  0  0  0  0
  161.7030  204.5120  152.3470 C   0  0  0  0  0  2  0  0  0  0  0  0
  161.9570  211.1530  149.9540 O   0  0  0  0  0  0  0  0  0  0  0  0
  162.1070  210.8420  148.7420 C   0  0  0  0  0  0  0  0  0  0  0  0
  162.2090  209.4700  148.3520 N   0  0  0  0  0  2  0  0  0  0  0  0
  160.9300  214.4230  148.6850 C   0  0  1  0  0  3  0  0  0  0  0  0
  163.0600  213.0910  148.2810 C   0  0  0  0  0  2  0  0  0  0  0  0
  160.0080  211.2240  146.6750 C   0  0  0  0  0  1  0  0  0  0  0  0
  160.9200  214.4530  150.2030 C   0  0  0  0  0  1  0  0  0  0  0  0
  162.3690  214.4530  148.1520 C   0  0  0  0  0  2  0  0  0  0  0  0
  160.8650  212.3810  147.1640 C   0  0  2  0  0  3  0  0  0  0  0  0
  162.2320  211.9250  147.7110 C   0  0  2  0  0  3  0  0  0  0  0  0
  160.1060  213.2270  148.1840 C   0  0  0  0  0  2  0  0  0  0  0  0
  1 14  1  0  0  0  0
  2  5  1  6  0  0  0
  2 13  1  0  0  0  0
  2  3  1  0  0  0  0
  3 19  1  0  0  0  0
  4 15  1  0  0  0  0
  6  1  1  0  0  0  0
  6 17  1  0  0  0  0
  7  3  2  0  0  0  0
  7  4  1  0  0  0  0
  8 23  1  6  0  0  0
  8 13  1  0  0  0  0
  9  1  2  0  0  0  0
 11  4  2  0  0  0  0
 12  8  1  0  0  0  0
 13 18  1  1  0  0  0
 14  5  2  0  0  0  0
 15 20  1  0  0  0  0
 16  5  1  0  0  0  0
 16 12  1  0  0  0  0
 17 16  2  0  0  0  0
 18 10  1  0  0  0  0
 19 10  1  6  0  0  0
 19 20  1  0  0  0  0
 22 21  2  0  0  0  0
 23 22  1  0  0  0  0
 24 27  1  1  0  0  0
 28 25  1  0  0  0  0
 28 24  1  0  0  0  0
 29 26  1  1  0  0  0
 29 30  1  0  0  0  0
 29 31  1  0  0  0  0
 30 25  1  0  0  0  0
 30 22  1  1  0  0  0
 31 24  1  0  0  0  0
M  END
>  <MODEL>
1

>  <REMARK>
 VINA RESULT:      -6.8      0.000      0.000
  Name = 
  2 active torsions:
  status: ('A' for Active; 'I' for Inactive)
    1  A    between atoms: C_5  and  C_30
    2  A    between atoms: C_10  and  N_16
                            x       y       z     vdW  Elec       q    Type
                         _______ _______ _______ _____ _____    ______ ____

>  <TORSDO>
F 2

$$$$
=
 OpenBabel11122413243D

 31 35  0  0  1  0  0  0  0  0999 V2000
  160.1900  207.7170  156.7210 C   0  0  0  0  0  0  0  0  0  0  0  0
  159.1790  210.1680  153.9600 C   0  0  2  0  0  3  0  0  0  0  0  0
  158.5010  211.4230  154.4910 C   0  0  0  0  0  0  0  0  0  0  0  0
  157.1630  212.5540  156.1860 C   0  0  0  0  0  0  0  0  0  0  0  0
  159.9540  209.4470  155.0290 C   0  0  0  0  0  0  0  0  0  0  0  0
  161.5050  208.2700  157.2030 C   0  0  0  0  0  2  0  0  0  0  0  0
  157.9140  211.3930  155.6970 C   0  0  0  0  0  3  0  0  0  0  0  0
  161.5860  210.6710  152.9900 C   0  0  2  0  0  3  0  0  0  0  0  0
  159.7200  206.6790  157.2550 O   0  0  0  0  0  0  0  0  0  0  0  0
  159.3010  212.7780  152.5120 C   0  0  0  0  0  2  0  0  0  0  0  0
  156.5100  212.4820  157.2590 O   0  0  0  0  0  0  0  0  0  0  0  0
  161.9030  210.9750  154.4630 C   0  0  0  0  0  2  0  0  0  0  0  0
  160.0830  210.4260  152.7200 C   0  0  2  0  0  3  0  0  0  0  0  0
  159.4270  208.4030  155.6690 C   0  0  0  0  0  3  0  0  0  0  0  0
  157.1580  213.7310  155.4370 O   0  0  0  0  0  0  0  0  0  0  0  0
  161.3210  209.9110  155.3340 C   0  0  0  0  0  0  0  0  0  0  0  0
  162.0470  209.3570  156.3090 C   0  0  0  0  0  3  0  0  0  0  0  0
  159.5160  211.4720  151.7690 C   0  0  0  0  0  2  0  0  0  0  0  0
  158.2210  212.6000  153.5670 C   0  0  2  0  0  3  0  0  0  0  0  0
  158.0720  213.9030  154.3560 C   0  0  0  0  0  2  0  0  0  0  0  0
  160.5070  208.3710  151.6390 O   0  0  0  0  0  0  0  0  0  0  0  0
  161.7550  208.4340  151.8020 C   0  0  0  0  0  0  0  0  0  0  0  0
  162.3350  209.5010  152.5570 N   0  0  0  0  0  2  0  0  0  0  0  0
  161.0650  205.7850  149.2090 C   0  0  1  0  0  3  0  0  0  0  0  0
  162.7140  207.6760  149.6380 C   0  0  0  0  0  2  0  0  0  0  0  0
  162.0520  205.7190  152.9710 C   0  0  0  0  0  1  0  0  0  0  0  0
  159.8770  206.5800  148.7010 C   0  0  0  0  0  1  0  0  0  0  0  0
  162.3830  206.4480  148.7820 C   0  0  0  0  0  2  0  0  0  0  0  0
  162.2080  205.9660  151.4790 C   0  0  2  0  0  3  0  0  0  0  0  0
  162.6380  207.4100  151.1520 C   0  0  2  0  0  3  0  0  0  0  0  0
  160.9380  205.5740  150.7260 C   0  0  0  0  0  2  0  0  0  0  0  0
  1  6  1  0  0  0  0
  1  9  2  0  0  0  0
  2  3  1  1  0  0  0
  2  5  1  0  0  0  0
  3  7  2  0  0  0  0
  4 11  2  0  0  0  0
  5 16  1  0  0  0  0
  5 14  2  0  0  0  0
  7  4  1  0  0  0  0
  8 23  1  1  0  0  0
  8 12  1  0  0  0  0
 12 16  1  0  0  0  0
 13 18  1  1  0  0  0
 13  8  1  0  0  0  0
 13  2  1  0  0  0  0
 14  1  1  0  0  0  0
 15  4  1  0  0  0  0
 16 17  2  0  0  0  0
 17  6  1  0  0  0  0
 18 10  1  0  0  0  0
 19 10  1  6  0  0  0
 19 20  1  0  0  0  0
 19  3  1  0  0  0  0
 20 15  1  0  0  0  0
 21 22  2  0  0  0  0
 22 23  1  0  0  0  0
 24 27  1  1  0  0  0
 24 31  1  0  0  0  0
 25 30  1  0  0  0  0
 28 24  1  0  0  0  0
 28 25  1  0  0  0  0
 29 26  1  1  0  0  0
 30 29  1  0  0  0  0
 30 22  1  1  0  0  0
 31 29  1  0  0  0  0
M  END
>  <MODEL>
2

>  <REMARK>
 VINA RESULT:      -4.6      4.419      8.475
  Name = 
  2 active torsions:
  status: ('A' for Active; 'I' for Inactive)
    1  A    between atoms: C_5  and  C_30
    2  A    between atoms: C_10  and  N_16
                            x       y       z     vdW  Elec       q    Type
                         _______ _______ _______ _____ _____    ______ ____

>  <TORSDO>
F 2

$$$$
=
 OpenBabel11122413243D

 31 35  0  0  1  0  0  0  0  0999 V2000
  162.0540  206.1960  145.5890 C   0  0  0  0  0  0  0  0  0  0  0  0
  162.5470  206.8990  149.3190 C   0  0  2  0  0  3  0  0  0  0  0  0
  162.2320  208.3380  149.7050 C   0  0  0  0  0  0  0  0  0  0  0  0
  162.0790  210.7020  149.1310 C   0  0  0  0  0  0  0  0  0  0  0  0
  161.9390  206.5210  147.9960 C   0  0  0  0  0  0  0  0  0  0  0  0
  160.5740  205.9410  145.4840 C   0  0  0  0  0  2  0  0  0  0  0  0
  162.2740  209.2940  148.7650 C   0  0  0  0  0  3  0  0  0  0  0  0
  160.7620  205.1980  150.2720 C   0  0  2  0  0  3  0  0  0  0  0  0
  162.7680  206.1430  144.5540 O   0  0  0  0  0  0  0  0  0  0  0  0
  161.6110  207.6450  152.0570 C   0  0  0  0  0  2  0  0  0  0  0  0
  162.2410  211.6080  148.2740 O   0  0  0  0  0  0  0  0  0  0  0  0
  159.8340  205.9200  149.2820 C   0  0  0  0  0  2  0  0  0  0  0  0
  162.1520  205.8610  150.4090 C   0  0  2  0  0  3  0  0  0  0  0  0
  162.6650  206.5540  146.8770 C   0  0  0  0  0  3  0  0  0  0  0  0
  161.7370  211.0270  150.4440 O   0  0  0  0  0  0  0  0  0  0  0  0
  160.5280  206.0920  147.9720 C   0  0  0  0  0  0  0  0  0  0  0  0
  159.9060  205.7960  146.8280 C   0  0  0  0  0  3  0  0  0  0  0  0
  162.3880  206.3610  151.8290 C   0  0  0  0  0  2  0  0  0  0  0  0
  162.1660  208.7480  151.1690 C   0  0  2  0  0  3  0  0  0  0  0  0
  161.3240  210.0120  151.3550 C   0  0  0  0  0  2  0  0  0  0  0  0
  160.3400  202.8680  151.9060 O   0  0  0  0  0  0  0  0  0  0  0  0
  160.6210  202.6980  150.6890 C   0  0  0  0  0  0  0  0  0  0  0  0
  160.9430  203.8150  149.8570 N   0  0  0  0  0  2  0  0  0  0  0  0
  161.0250  201.4360  147.1600 C   0  0  1  0  0  3  0  0  0  0  0  0
  161.9290  200.9570  149.4910 C   0  0  0  0  0  2  0  0  0  0  0  0
  158.0620  201.5820  149.6750 C   0  0  0  0  0  1  0  0  0  0  0  0
  161.8430  202.6630  146.8050 C   0  0  0  0  0  1  0  0  0  0  0  0
  161.8410  200.4750  148.0380 C   0  0  0  0  0  2  0  0  0  0  0  0
  159.4020  201.1490  149.1030 C   0  0  2  0  0  3  0  0  0  0  0  0
  160.5640  201.3190  150.1030 C   0  0  2  0  0  3  0  0  0  0  0  0
  159.6890  201.8650  147.7840 C   0  0  0  0  0  2  0  0  0  0  0  0
  1 14  1  0  0  0  0
  2  5  1  6  0  0  0
  2  3  1  0  0  0  0
  2 13  1  0  0  0  0
  3 19  1  0  0  0  0
  4 15  1  0  0  0  0
  6  1  1  0  0  0  0
  6 17  1  0  0  0  0
  7  4  1  0  0  0  0
  7  3  2  0  0  0  0
  8 23  1  6  0  0  0
  8 13  1  0  0  0  0
  9  1  2  0  0  0  0
 11  4  2  0  0  0  0
 12  8  1  0  0  0  0
 13 18  1  1  0  0  0
 14  5  2  0  0  0  0
 15 20  1  0  0  0  0
 16  5  1  0  0  0  0
 16 12  1  0  0  0  0
 17 16  2  0  0  0  0
 18 10  1  0  0  0  0
 19 20  1  6  0  0  0
 19 10  1  0  0  0  0
 22 21  2  0  0  0  0
 23 22  1  0  0  0  0
 24 27  1  1  0  0  0
 24 31  1  0  0  0  0
 24 28  1  0  0  0  0
 25 30  1  0  0  0  0
 28 25  1  0  0  0  0
 29 26  1  1  0  0  0
 29 30  1  0  0  0  0
 30 22  1  6  0  0  0
 31 29  1  0  0  0  0
M  END
>  <MODEL>
3

>  <REMARK>
 VINA RESULT:      -4.3      2.221      7.475
  Name = 
  2 active torsions:
  status: ('A' for Active; 'I' for Inactive)
    1  A    between atoms: C_5  and  C_30
    2  A    between atoms: C_10  and  N_16
                            x       y       z     vdW  Elec       q    Type
                         _______ _______ _______ _____ _____    ______ ____

>  <TORSDO>
F 2

$$$$
