=
 OpenBabel11122413403D

 37 42  0  0  1  0  0  0  0  0999 V2000
  160.4490  208.5230  154.9740 C   0  0  0  0  0  0  0  0  0  0  0  0
  161.7050  206.6060  151.4810 C   0  0  0  0  0  0  0  0  0  0  0  0
  159.6860  206.8730  149.3090 C   0  0  0  0  0  1  0  0  0  0  0  0
  160.9560  206.3450  153.7380 C   0  0  0  0  0  0  0  0  0  0  0  0
  161.8070  207.6930  150.4590 C   0  0  1  0  0  3  0  0  0  0  0  0
  161.2940  207.1370  152.6550 C   0  0  0  0  0  0  0  0  0  0  0  0
  161.1390  207.3120  149.1340 C   0  0  1  0  0  3  0  0  0  0  0  0
  161.0630  204.9900  153.6080 N   0  0  0  0  0  0  0  0  0  0  0  0
  161.0360  208.5140  152.5760 N   0  0  0  0  0  0  0  0  0  0  0  0
  161.8310  208.8930  155.4850 C   0  0  0  0  0  1  0  0  0  0  0  0
  161.9810  204.6030  149.9640 C   0  0  0  0  0  2  0  0  0  0  0  0
  161.4690  204.4160  152.4300 C   0  0  0  0  0  3  0  0  0  0  0  0
  160.2180  209.1720  153.5910 C   0  0  0  0  0  2  0  0  0  0  0  0
  161.7960  205.2190  151.3190 C   0  0  0  0  0  0  0  0  0  0  0  0
  161.1810  208.9280  151.1790 C   0  0  1  0  0  3  0  0  0  0  0  0
  160.3060  206.9810  154.9370 C   0  0  0  0  0  2  0  0  0  0  0  0
  162.0020  206.2760  148.3730 C   0  0  1  0  0  3  0  0  0  0  0  0
  159.4240  209.0770  155.9410 C   0  0  0  0  0  1  0  0  0  0  0  0
  162.8050  205.4010  149.1480 O   0  0  0  0  0  0  0  0  0  0  0  0
  162.5360  210.5830  149.6930 C   0  0  0  0  0  2  0  0  0  0  0  0
  162.1590  211.9470  149.3320 N   0  0  0  0  0  0  0  0  0  0  0  0
  160.1100  212.5840  150.4340 C   0  0  0  0  0  0  0  0  0  0  0  0
  160.7110  211.9910  149.1980 C   0  0  0  0  0  2  0  0  0  0  0  0
  160.2940  211.9630  151.7910 C   0  0  1  0  0  3  0  0  0  0  0  0
  159.2530  211.0850  152.0910 O   0  0  0  0  0  1  0  0  0  0  0  0
  161.6660  211.3260  152.0500 C   0  0  0  0  0  2  0  0  0  0  0  0
  159.4170  213.5830  150.3310 O   0  0  0  0  0  0  0  0  0  0  0  0
  162.0630  210.1830  151.1030 C   0  0  1  0  0  3  0  0  0  0  0  0
  162.6260  213.6790  147.6930 C   0  0  0  0  0  1  0  0  0  0  0  0
  162.7070  212.1990  148.0100 C   0  0  0  0  0  2  0  0  0  0  0  0
  160.6930  206.4520  146.2140 C   0  0  0  0  0  3  0  0  0  0  0  0
  161.4250  205.6760  147.1240 C   0  0  0  0  0  0  0  0  0  0  0  0
  161.6470  204.3210  146.8550 C   0  0  0  0  0  3  0  0  0  0  0  0
  161.3510  202.4300  145.4360 F   0  0  0  0  0  0  0  0  0  0  0  0
  160.4020  204.5180  144.7880 C   0  0  0  0  0  3  0  0  0  0  0  0
  161.1350  203.7420  145.6900 C   0  0  0  0  0  0  0  0  0  0  0  0
  160.1820  205.8730  145.0490 C   0  0  0  0  0  3  0  0  0  0  0  0
  1 10  1  0  0  0  0
  1 18  1  0  0  0  0
  2  6  1  0  0  0  0
  4 16  1  0  0  0  0
  5 15  1  0  0  0  0
  5  2  1  1  0  0  0
  6  4  2  0  0  0  0
  7  3  1  1  0  0  0
  7  5  1  0  0  0  0
  8  4  1  0  0  0  0
  9  6  1  0  0  0  0
  9 13  1  0  0  0  0
 11 14  1  0  0  0  0
 12  8  2  0  0  0  0
 13  1  1  0  0  0  0
 14  2  2  0  0  0  0
 14 12  1  0  0  0  0
 15  9  1  1  0  0  0
 16  1  1  0  0  0  0
 17 32  1  1  0  0  0
 17  7  1  0  0  0  0
 17 19  1  0  0  0  0
 19 11  1  0  0  0  0
 21 20  1  0  0  0  0
 22 24  1  0  0  0  0
 23 21  1  0  0  0  0
 23 22  1  0  0  0  0
 24 26  1  0  0  0  0
 24 25  1  6  0  0  0
 27 22  2  0  0  0  0
 28 20  1  6  0  0  0
 28 15  1  0  0  0  0
 28 26  1  0  0  0  0
 29 30  1  0  0  0  0
 30 21  1  0  0  0  0
 31 32  1  0  0  0  0
 33 32  2  0  0  0  0
 34 36  1  0  0  0  0
 35 37  1  0  0  0  0
 35 36  2  0  0  0  0
 36 33  1  0  0  0  0
 37 31  2  0  0  0  0
M  END
>  <MODEL>
1

>  <REMARK>
 VINA RESULT:      -4.2      0.000      0.000
  Name = 
  3 active torsions:
  status: ('A' for Active; 'I' for Inactive)
    1  A    between atoms: N_4  and  C_37
    2  A    between atoms: C_21  and  C_27
    3  A    between atoms: C_23  and  C_30
                            x       y       z     vdW  Elec       q    Type
                         _______ _______ _______ _____ _____    ______ ____

>  <TORSDO>
F 3

$$$$
=
 OpenBabel11122413403D

 37 42  0  0  1  0  0  0  0  0999 V2000
  159.5950  210.7500  155.0090 C   0  0  0  0  0  0  0  0  0  0  0  0
  161.6260  208.1720  152.4230 C   0  0  0  0  0  0  0  0  0  0  0  0
  159.9380  207.4260  150.0860 C   0  0  0  0  0  1  0  0  0  0  0  0
  160.5920  208.4390  154.5640 C   0  0  0  0  0  0  0  0  0  0  0  0
  161.7210  208.9180  151.1300 C   0  0  1  0  0  3  0  0  0  0  0  0
  160.9700  208.9340  153.3290 C   0  0  0  0  0  0  0  0  0  0  0  0
  161.3210  208.0550  149.9290 C   0  0  1  0  0  3  0  0  0  0  0  0
  160.9120  207.1480  154.8710 N   0  0  0  0  0  0  0  0  0  0  0  0
  160.5300  210.1590  152.8020 N   0  0  0  0  0  0  0  0  0  0  0  0
  160.8160  211.4980  155.5150 C   0  0  0  0  0  1  0  0  0  0  0  0
  162.4130  205.9030  151.6350 C   0  0  0  0  0  2  0  0  0  0  0  0
  161.5700  206.3440  153.9740 C   0  0  0  0  0  3  0  0  0  0  0  0
  159.4830  210.9190  153.4780 C   0  0  0  0  0  2  0  0  0  0  0  0
  161.9390  206.8390  152.7080 C   0  0  0  0  0  0  0  0  0  0  0  0
  160.8220  210.1710  151.3670 C   0  0  1  0  0  3  0  0  0  0  0  0
  159.6840  209.2640  155.4370 C   0  0  0  0  0  2  0  0  0  0  0  0
  162.4290  207.0210  149.6150 C   0  0  1  0  0  3  0  0  0  0  0  0
  158.3670  211.3610  155.6500 C   0  0  0  0  0  1  0  0  0  0  0  0
  163.2260  206.5690  150.6990 O   0  0  0  0  0  0  0  0  0  0  0  0
  162.2410  211.5040  149.6370 C   0  0  0  0  0  2  0  0  0  0  0  0
  161.7730  212.5660  148.7510 N   0  0  0  0  0  0  0  0  0  0  0  0
  159.4560  213.0760  149.1850 C   0  0  0  0  0  0  0  0  0  0  0  0
  160.4040  212.2570  148.3670 C   0  0  0  0  0  2  0  0  0  0  0  0
  159.4030  212.9810  150.6850 C   0  0  1  0  0  3  0  0  0  0  0  0
  158.4540  212.0480  151.0990 O   0  0  0  0  0  1  0  0  0  0  0  0
  160.7520  212.7670  151.3840 C   0  0  0  0  0  2  0  0  0  0  0  0
  158.6740  213.8170  148.6130 O   0  0  0  0  0  0  0  0  0  0  0  0
  161.5140  211.4900  150.9940 C   0  0  1  0  0  3  0  0  0  0  0  0
  162.1180  213.5430  146.5530 C   0  0  0  0  0  1  0  0  0  0  0  0
  162.5720  212.4860  147.5400 C   0  0  0  0  0  2  0  0  0  0  0  0
  161.6540  204.7190  148.9020 C   0  0  0  0  0  3  0  0  0  0  0  0
  162.1390  205.9910  148.5630 C   0  0  0  0  0  0  0  0  0  0  0  0
  162.3340  206.3200  147.2170 C   0  0  0  0  0  3  0  0  0  0  0  0
  162.2470  205.7070  144.9160 F   0  0  0  0  0  0  0  0  0  0  0  0
  161.5760  204.1160  146.5590 C   0  0  0  0  0  3  0  0  0  0  0  0
  162.0540  205.3840  146.2170 C   0  0  0  0  0  0  0  0  0  0  0  0
  161.3750  203.7840  147.9020 C   0  0  0  0  0  3  0  0  0  0  0  0
  1 16  1  0  0  0  0
  1 10  1  0  0  0  0
  1 18  1  0  0  0  0
  2 14  2  0  0  0  0
  2  6  1  0  0  0  0
  4  8  1  0  0  0  0
  4 16  1  0  0  0  0
  5 15  1  0  0  0  0
  5  2  1  1  0  0  0
  6  4  2  0  0  0  0
  7  3  1  1  0  0  0
  7  5  1  0  0  0  0
  9  6  1  0  0  0  0
  9 13  1  0  0  0  0
 11 14  1  0  0  0  0
 12  8  2  0  0  0  0
 13  1  1  0  0  0  0
 14 12  1  0  0  0  0
 15  9  1  1  0  0  0
 17 32  1  1  0  0  0
 17  7  1  0  0  0  0
 17 19  1  0  0  0  0
 19 11  1  0  0  0  0
 21 20  1  0  0  0  0
 22 24  1  0  0  0  0
 23 21  1  0  0  0  0
 23 22  1  0  0  0  0
 24 25  1  6  0  0  0
 24 26  1  0  0  0  0
 27 22  2  0  0  0  0
 28 20  1  6  0  0  0
 28 15  1  0  0  0  0
 28 26  1  0  0  0  0
 29 30  1  0  0  0  0
 30 21  1  0  0  0  0
 32 31  1  0  0  0  0
 33 32  2  0  0  0  0
 34 36  1  0  0  0  0
 35 37  1  0  0  0  0
 36 35  2  0  0  0  0
 36 33  1  0  0  0  0
 37 31  2  0  0  0  0
M  END
>  <MODEL>
2

>  <REMARK>
 VINA RESULT:      -4.1      1.446      2.030
  Name = 
  3 active torsions:
  status: ('A' for Active; 'I' for Inactive)
    1  A    between atoms: N_4  and  C_37
    2  A    between atoms: C_21  and  C_27
    3  A    between atoms: C_23  and  C_30
                            x       y       z     vdW  Elec       q    Type
                         _______ _______ _______ _____ _____    ______ ____

>  <TORSDO>
F 3

$$$$
=
 OpenBabel11122413403D

 37 42  0  0  1  0  0  0  0  0999 V2000
  158.3460  213.0250  156.5430 C   0  0  0  0  0  0  0  0  0  0  0  0
  160.8360  210.6850  154.1400 C   0  0  0  0  0  0  0  0  0  0  0  0
  159.2590  209.0120  152.2480 C   0  0  0  0  0  1  0  0  0  0  0  0
  159.9800  211.0710  156.3400 C   0  0  0  0  0  0  0  0  0  0  0  0
  160.5650  211.1430  152.7420 C   0  0  1  0  0  3  0  0  0  0  0  0
  160.0620  211.3900  154.9960 C   0  0  0  0  0  0  0  0  0  0  0  0
  160.3490  209.9740  151.7760 C   0  0  1  0  0  3  0  0  0  0  0  0
  160.7220  210.0230  156.8040 N   0  0  0  0  0  0  0  0  0  0  0  0
  159.2070  212.2950  154.3480 N   0  0  0  0  0  0  0  0  0  0  0  0
  159.3080  214.1870  156.7240 C   0  0  0  0  0  1  0  0  0  0  0  0
  162.2260  208.6370  153.6270 C   0  0  0  0  0  2  0  0  0  0  0  0
  161.5130  209.2820  155.9630 C   0  0  0  0  0  3  0  0  0  0  0  0
  158.0410  212.8360  155.0410 C   0  0  0  0  0  2  0  0  0  0  0  0
  161.5840  209.5920  154.5900 C   0  0  0  0  0  0  0  0  0  0  0  0
  159.3410  212.0980  152.9040 C   0  0  1  0  0  3  0  0  0  0  0  0
  158.9440  211.7530  157.1940 C   0  0  0  0  0  2  0  0  0  0  0  0
  161.6930  209.2700  151.4720 C   0  0  1  0  0  3  0  0  0  0  0  0
  157.0550  213.3670  157.2560 C   0  0  0  0  0  1  0  0  0  0  0  0
  162.6920  209.3060  152.4790 O   0  0  0  0  0  0  0  0  0  0  0  0
  160.2290  213.4140  150.8390 C   0  0  0  0  0  2  0  0  0  0  0  0
  159.4320  214.0300  149.7820 N   0  0  0  0  0  0  0  0  0  0  0  0
  157.0770  213.8070  150.2540 C   0  0  0  0  0  0  0  0  0  0  0  0
  158.2570  213.1990  149.5650 C   0  0  0  0  0  2  0  0  0  0  0  0
  157.0460  214.0350  151.7410 C   0  0  1  0  0  3  0  0  0  0  0  0
  156.4730  212.9520  152.4060 O   0  0  0  0  0  1  0  0  0  0  0  0
  158.3790  214.4510  152.3760 C   0  0  0  0  0  2  0  0  0  0  0  0
  156.0930  214.0940  149.5930 O   0  0  0  0  0  0  0  0  0  0  0  0
  159.5380  213.4550  152.2150 C   0  0  1  0  0  3  0  0  0  0  0  0
  161.0610  212.6970  148.5680 C   0  0  0  0  0  1  0  0  0  0  0  0
  160.2210  213.9590  148.5650 C   0  0  0  0  0  2  0  0  0  0  0  0
  161.6060  206.7480  151.2790 C   0  0  0  0  0  3  0  0  0  0  0  0
  161.6480  208.0070  150.6620 C   0  0  0  0  0  0  0  0  0  0  0  0
  161.6200  208.0940  149.2660 C   0  0  0  0  0  3  0  0  0  0  0  0
  161.5360  207.0230  147.1390 F   0  0  0  0  0  0  0  0  0  0  0  0
  161.5230  205.6790  149.1080 C   0  0  0  0  0  3  0  0  0  0  0  0
  161.5600  206.9330  148.4900 C   0  0  0  0  0  0  0  0  0  0  0  0
  161.5460  205.5870  150.5030 C   0  0  0  0  0  3  0  0  0  0  0  0
  1 10  1  0  0  0  0
  1 16  1  0  0  0  0
  1 18  1  0  0  0  0
  2 14  2  0  0  0  0
  2  6  1  0  0  0  0
  4  8  1  0  0  0  0
  4 16  1  0  0  0  0
  5 15  1  0  0  0  0
  5  2  1  1  0  0  0
  6  4  2  0  0  0  0
  7  3  1  1  0  0  0
  7  5  1  0  0  0  0
  9  6  1  0  0  0  0
  9 13  1  0  0  0  0
 11 14  1  0  0  0  0
 12  8  2  0  0  0  0
 13  1  1  0  0  0  0
 14 12  1  0  0  0  0
 15  9  1  1  0  0  0
 17 32  1  1  0  0  0
 17  7  1  0  0  0  0
 17 19  1  0  0  0  0
 19 11  1  0  0  0  0
 21 20  1  0  0  0  0
 22 24  1  0  0  0  0
 23 21  1  0  0  0  0
 23 22  1  0  0  0  0
 24 26  1  0  0  0  0
 24 25  1  1  0  0  0
 27 22  2  0  0  0  0
 28 20  1  6  0  0  0
 28 26  1  0  0  0  0
 28 15  1  0  0  0  0
 30 29  1  0  0  0  0
 30 21  1  0  0  0  0
 32 31  1  0  0  0  0
 33 32  2  0  0  0  0
 34 36  1  0  0  0  0
 35 37  1  0  0  0  0
 36 35  2  0  0  0  0
 36 33  1  0  0  0  0
 37 31  2  0  0  0  0
M  END
>  <MODEL>
3

>  <REMARK>
 VINA RESULT:      -2.6      2.804      4.575
  Name = 
  3 active torsions:
  status: ('A' for Active; 'I' for Inactive)
    1  A    between atoms: N_4  and  C_37
    2  A    between atoms: C_21  and  C_27
    3  A    between atoms: C_23  and  C_30
                            x       y       z     vdW  Elec       q    Type
                         _______ _______ _______ _____ _____    ______ ____

>  <TORSDO>
F 3

$$$$
