=
 OpenBabel11122413423D

 37 43  0  0  1  0  0  0  0  0999 V2000
  161.1150  209.6830  148.2590 C   0  0  0  0  0  2  0  0  0  0  0  0
  161.6010  205.3120  145.9370 C   0  0  0  0  0  0  0  0  0  0  0  0
  161.2060  205.3830  150.1700 C   0  0  0  0  0  0  0  0  0  0  0  0
  161.6530  211.0640  147.8480 C   0  0  2  0  0  3  0  0  0  0  0  0
  161.7430  208.6630  151.9930 O   0  0  0  0  0  0  0  0  0  0  0  0
  161.4330  204.0170  148.1500 C   0  0  0  0  0  0  0  0  0  0  0  0
  161.3410  206.6960  150.4460 C   0  0  0  0  0  0  0  0  0  0  0  0
  161.5230  211.9260  150.2420 C   0  0  0  0  0  0  0  0  0  0  0  0
  161.3770  205.1900  148.7630 C   0  0  0  0  0  0  0  0  0  0  0  0
  161.2920  207.3460  151.8170 C   0  0  0  0  0  0  0  0  0  0  0  0
  161.2540  202.7500  148.9590 C   0  0  0  0  0  2  0  0  0  0  0  0
  162.3340  211.8590  148.9770 C   0  0  0  0  0  2  0  0  0  0  0  0
  161.6490  206.4490  148.1630 C   0  0  0  0  0  0  0  0  0  0  0  0
  160.1230  205.4580  145.6150 C   0  0  0  0  0  1  0  0  0  0  0  0
  160.9150  204.3010  152.5030 C   0  0  0  0  0  2  0  0  0  0  0  0
  161.0910  202.9790  150.4600 C   0  0  0  0  0  3  0  0  0  0  0  0
  162.0810  206.5510  146.7320 C   0  0  0  0  0  2  0  0  0  0  0  0
  161.8650  211.0340  151.4010 C   0  0  0  0  0  2  0  0  0  0  0  0
  161.7580  209.5950  150.9360 C   0  0  1  0  0  3  0  0  0  0  0  0
  161.0540  204.1960  151.0300 C   0  0  0  0  0  0  0  0  0  0  0  0
  161.6780  207.3610  149.1300 C   0  0  0  0  0  0  0  0  0  0  0  0
  161.8360  203.9750  146.6930 C   0  0  0  0  0  2  0  0  0  0  0  0
  160.7840  206.7300  152.9170 C   0  0  0  0  0  0  0  0  0  0  0  0
  162.3630  205.2600  144.6310 C   0  0  0  0  0  1  0  0  0  0  0  0
  162.7890  209.2890  150.0440 O   0  0  0  0  0  0  0  0  0  0  0  0
  160.5780  212.6930  150.3240 O   0  0  0  0  0  0  0  0  0  0  0  0
  162.1800  208.7610  148.8930 C   0  0  2  0  0  3  0  0  0  0  0  0
  160.0000  205.4560  152.8270 C   0  0  0  0  0  2  0  0  0  0  0  0
  160.3300  206.6870  155.3820 C   0  0  0  0  0  3  0  0  0  0  0  0
  160.8810  207.3430  154.2680 C   0  0  0  0  0  0  0  0  0  0  0  0
  161.5650  208.5540  154.4680 C   0  0  0  0  0  3  0  0  0  0  0  0
  162.3640  210.3370  155.9320 N   0  0  0  0  0  1  0  0  0  0  0  0
  161.1120  208.4500  156.8430 C   0  0  0  0  0  3  0  0  0  0  0  0
  161.6750  209.1070  155.7470 C   0  0  0  0  0  0  0  0  0  0  0  0
  160.4410  207.2390  156.6610 C   0  0  0  0  0  3  0  0  0  0  0  0
  161.2610  212.8810  146.6460 C   0  0  0  0  0  1  0  0  0  0  0  0
  160.6210  211.8200  147.2880 O   0  0  0  0  0  0  0  0  0  0  0  0
  2 22  1  0  0  0  0
  2 17  1  0  0  0  0
  3  7  2  0  0  0  0
  3 20  1  0  0  0  0
  4 37  1  1  0  0  0
  4  1  1  0  0  0  0
  4 12  1  0  0  0  0
  6  9  2  0  0  0  0
  6 11  1  0  0  0  0
  7 10  1  0  0  0  0
  8 26  2  0  0  0  0
  8 18  1  0  0  0  0
  9  3  1  0  0  0  0
 10  5  1  0  0  0  0
 10 23  2  0  0  0  0
 11 16  1  0  0  0  0
 12  8  1  0  0  0  0
 13  9  1  0  0  0  0
 13 21  2  0  0  0  0
 14  2  1  0  0  0  0
 15 28  1  0  0  0  0
 16 20  2  0  0  0  0
 17 13  1  0  0  0  0
 19 18  1  1  0  0  0
 19  5  1  0  0  0  0
 20 15  1  0  0  0  0
 21  7  1  0  0  0  0
 22  6  1  0  0  0  0
 23 30  1  0  0  0  0
 24  2  1  0  0  0  0
 25 19  1  0  0  0  0
 27  1  1  1  0  0  0
 27 21  1  0  0  0  0
 27 25  1  0  0  0  0
 28 23  1  0  0  0  0
 29 35  1  0  0  0  0
 30 31  1  0  0  0  0
 30 29  2  0  0  0  0
 31 34  2  0  0  0  0
 34 32  1  0  0  0  0
 34 33  1  0  0  0  0
 35 33  2  0  0  0  0
 36 37  1  0  0  0  0
M  END
>  <MODEL>
1

>  <REMARK>
 VINA RESULT:      -8.1      0.000      0.000
  Name = 
  2 active torsions:
  status: ('A' for Active; 'I' for Inactive)
    1  A    between atoms: C_4  and  O_37
    2  A    between atoms: C_23  and  C_30
                            x       y       z     vdW  Elec       q    Type
                         _______ _______ _______ _____ _____    ______ ____

>  <TORSDO>
F 2

$$$$
=
 OpenBabel11122413423D

 37 43  0  0  1  0  0  0  0  0999 V2000
  160.8260  210.5580  147.9070 C   0  0  0  0  0  2  0  0  0  0  0  0
  161.6720  205.7810  146.8130 C   0  0  0  0  0  0  0  0  0  0  0  0
  161.3210  206.9490  150.8860 C   0  0  0  0  0  0  0  0  0  0  0  0
  161.2350  211.8180  147.1250 C   0  0  2  0  0  3  0  0  0  0  0  0
  161.5860  210.6300  151.7540 O   0  0  0  0  0  0  0  0  0  0  0  0
  161.6460  205.1160  149.2950 C   0  0  0  0  0  0  0  0  0  0  0  0
  161.3430  208.2940  150.7990 C   0  0  0  0  0  0  0  0  0  0  0  0
  161.0560  213.2760  149.2080 C   0  0  0  0  0  0  0  0  0  0  0  0
  161.4920  206.4020  149.5760 C   0  0  0  0  0  0  0  0  0  0  0  0
  161.2530  209.2810  151.9500 C   0  0  0  0  0  0  0  0  0  0  0  0
  161.5890  204.1010  150.4170 C   0  0  0  0  0  2  0  0  0  0  0  0
  161.8550  212.9400  147.9790 C   0  0  0  0  0  2  0  0  0  0  0  0
  161.6440  207.4720  148.6540 C   0  0  0  0  0  0  0  0  0  0  0  0
  160.1830  205.7130  146.5160 C   0  0  0  0  0  1  0  0  0  0  0  0
  161.1560  206.5100  153.4320 C   0  0  0  0  0  2  0  0  0  0  0  0
  161.4240  204.7090  151.8090 C   0  0  0  0  0  3  0  0  0  0  0  0
  162.0490  207.2220  147.2330 C   0  0  0  0  0  2  0  0  0  0  0  0
  161.4900  212.7580  150.5490 C   0  0  0  0  0  2  0  0  0  0  0  0
  161.5060  211.2430  150.4880 C   0  0  1  0  0  3  0  0  0  0  0  0
  161.2860  206.0270  152.0360 C   0  0  0  0  0  0  0  0  0  0  0  0
  161.6030  208.6090  149.3430 C   0  0  0  0  0  0  0  0  0  0  0  0
  162.0330  204.7190  147.8880 C   0  0  0  0  0  2  0  0  0  0  0  0
  160.8140  208.9410  153.1910 C   0  0  0  0  0  0  0  0  0  0  0  0
  162.4200  205.4450  145.5410 C   0  0  0  0  0  1  0  0  0  0  0  0
  162.5500  210.7960  149.6730 O   0  0  0  0  0  0  0  0  0  0  0  0
  160.0470  213.9560  149.1170 O   0  0  0  0  0  0  0  0  0  0  0  0
  161.9760  209.9310  148.7260 C   0  0  2  0  0  3  0  0  0  0  0  0
  160.1450  207.6300  153.4700 C   0  0  0  0  0  2  0  0  0  0  0  0
  159.7470  210.6770  154.6510 C   0  0  0  0  0  3  0  0  0  0  0  0
  160.8720  209.9000  154.3260 C   0  0  0  0  0  0  0  0  0  0  0  0
  162.0240  210.0110  155.1250 C   0  0  0  0  0  3  0  0  0  0  0  0
  163.2320  211.0010  157.0010 N   0  0  0  0  0  1  0  0  0  0  0  0
  160.9350  211.6700  156.5110 C   0  0  0  0  0  3  0  0  0  0  0  0
  162.0560  210.8950  156.2070 C   0  0  0  0  0  0  0  0  0  0  0  0
  159.7800  211.5600  155.7340 C   0  0  0  0  0  3  0  0  0  0  0  0
  160.6750  212.9460  145.3040 C   0  0  0  0  0  1  0  0  0  0  0  0
  160.1320  212.3100  146.4220 O   0  0  0  0  0  0  0  0  0  0  0  0
  2 17  1  0  0  0  0
  2 22  1  0  0  0  0
  3 20  1  0  0  0  0
  4 37  1  1  0  0  0
  4  1  1  0  0  0  0
  4 12  1  0  0  0  0
  5 10  1  0  0  0  0
  6  9  2  0  0  0  0
  6 11  1  0  0  0  0
  7  3  2  0  0  0  0
  7 10  1  0  0  0  0
  8 18  1  0  0  0  0
  9  3  1  0  0  0  0
 10 23  2  0  0  0  0
 11 16  1  0  0  0  0
 12  8  1  0  0  0  0
 13 21  2  0  0  0  0
 13  9  1  0  0  0  0
 14  2  1  0  0  0  0
 15 28  1  0  0  0  0
 16 20  2  0  0  0  0
 17 13  1  0  0  0  0
 19 18  1  1  0  0  0
 19  5  1  0  0  0  0
 20 15  1  0  0  0  0
 21  7  1  0  0  0  0
 22  6  1  0  0  0  0
 23 28  1  0  0  0  0
 23 30  1  0  0  0  0
 24  2  1  0  0  0  0
 25 19  1  0  0  0  0
 26  8  2  0  0  0  0
 27  1  1  1  0  0  0
 27 21  1  0  0  0  0
 27 25  1  0  0  0  0
 29 35  1  0  0  0  0
 30 29  2  0  0  0  0
 30 31  1  0  0  0  0
 31 34  2  0  0  0  0
 34 33  1  0  0  0  0
 34 32  1  0  0  0  0
 35 33  2  0  0  0  0
 36 37  1  0  0  0  0
M  END
>  <MODEL>
2

>  <REMARK>
 VINA RESULT:      -7.2      1.414      1.969
  Name = 
  2 active torsions:
  status: ('A' for Active; 'I' for Inactive)
    1  A    between atoms: C_4  and  O_37
    2  A    between atoms: C_23  and  C_30
                            x       y       z     vdW  Elec       q    Type
                         _______ _______ _______ _____ _____    ______ ____

>  <TORSDO>
F 2

$$$$
=
 OpenBabel11122413423D

 37 43  0  0  1  0  0  0  0  0999 V2000
  160.9850  207.0290  151.4030 C   0  0  0  0  0  2  0  0  0  0  0  0
  160.3680  207.8620  156.2660 C   0  0  0  0  0  0  0  0  0  0  0  0
  160.1020  211.1220  153.5500 C   0  0  0  0  0  0  0  0  0  0  0  0
  161.8250  205.9450  150.7040 C   0  0  2  0  0  3  0  0  0  0  0  0
  161.4450  210.6740  150.0320 O   0  0  0  0  0  0  0  0  0  0  0  0
  159.9520  210.3670  155.8750 C   0  0  0  0  0  0  0  0  0  0  0  0
  160.5510  210.5730  152.4030 C   0  0  0  0  0  0  0  0  0  0  0  0
  161.9600  207.3100  148.5560 C   0  0  0  0  0  0  0  0  0  0  0  0
  160.1890  210.1450  154.5900 C   0  0  0  0  0  0  0  0  0  0  0  0
  160.6910  211.2650  151.0590 C   0  0  0  0  0  0  0  0  0  0  0  0
  159.4970  211.7420  156.3160 C   0  0  0  0  0  2  0  0  0  0  0  0
  162.7020  206.4510  149.5430 C   0  0  0  0  0  2  0  0  0  0  0  0
  160.7360  208.9510  154.0470 C   0  0  0  0  0  0  0  0  0  0  0  0
  158.9590  207.3340  156.0520 C   0  0  0  0  0  1  0  0  0  0  0  0
  159.6210  213.5800  152.8970 C   0  0  0  0  0  2  0  0  0  0  0  0
  159.4290  212.7740  155.1920 C   0  0  0  0  0  3  0  0  0  0  0  0
  161.1460  207.8120  154.9290 C   0  0  0  0  0  2  0  0  0  0  0  0
  162.1100  208.8040  148.6020 C   0  0  0  0  0  2  0  0  0  0  0  0
  161.6540  209.2830  149.9660 C   0  0  1  0  0  3  0  0  0  0  0  0
  159.6950  212.4940  153.9040 C   0  0  0  0  0  0  0  0  0  0  0  0
  161.0040  209.1760  152.7640 C   0  0  0  0  0  0  0  0  0  0  0  0
  160.2970  209.2890  156.8770 C   0  0  0  0  0  2  0  0  0  0  0  0
  160.0780  212.4410  150.7570 C   0  0  0  0  0  0  0  0  0  0  0  0
  161.0640  206.9540  157.2570 C   0  0  0  0  0  1  0  0  0  0  0  0
  162.5620  208.8880  150.9530 O   0  0  0  0  0  0  0  0  0  0  0  0
  161.2260  206.7980  147.7280 O   0  0  0  0  0  0  0  0  0  0  0  0
  161.8170  208.2160  151.9370 C   0  0  2  0  0  3  0  0  0  0  0  0
  159.0120  213.0320  151.6300 C   0  0  0  0  0  2  0  0  0  0  0  0
  161.6380  213.6490  149.2130 C   0  0  0  0  0  3  0  0  0  0  0  0
  160.3500  213.1560  149.4820 C   0  0  0  0  0  0  0  0  0  0  0  0
  159.3510  213.3080  148.5070 C   0  0  0  0  0  3  0  0  0  0  0  0
  158.6020  214.1090  146.3260 N   0  0  0  0  0  1  0  0  0  0  0  0
  160.9080  214.4530  147.0500 C   0  0  0  0  0  3  0  0  0  0  0  0
  159.6260  213.9570  147.3000 C   0  0  0  0  0  0  0  0  0  0  0  0
  161.9140  214.2980  148.0060 C   0  0  0  0  0  3  0  0  0  0  0  0
  160.9220  204.0220  151.3230 C   0  0  0  0  0  1  0  0  0  0  0  0
  160.9880  204.9210  150.2570 O   0  0  0  0  0  0  0  0  0  0  0  0
  2 22  1  0  0  0  0
  2 24  1  0  0  0  0
  3 20  1  0  0  0  0
  3  9  1  0  0  0  0
  4 37  1  6  0  0  0
  4  1  1  0  0  0  0
  5 10  1  0  0  0  0
  6 11  1  0  0  0  0
  6 22  1  0  0  0  0
  7 21  1  0  0  0  0
  7  3  2  0  0  0  0
  8 18  1  0  0  0  0
  8 12  1  0  0  0  0
  9  6  2  0  0  0  0
 10  7  1  0  0  0  0
 12  4  1  0  0  0  0
 13  9  1  0  0  0  0
 13 17  1  0  0  0  0
 14  2  1  0  0  0  0
 15 20  1  0  0  0  0
 16 11  1  0  0  0  0
 17  2  1  0  0  0  0
 19 18  1  6  0  0  0
 19  5  1  0  0  0  0
 19 25  1  0  0  0  0
 20 16  2  0  0  0  0
 21 13  2  0  0  0  0
 23 10  2  0  0  0  0
 23 28  1  0  0  0  0
 25 27  1  0  0  0  0
 26  8  2  0  0  0  0
 27  1  1  6  0  0  0
 27 21  1  0  0  0  0
 28 15  1  0  0  0  0
 29 30  1  0  0  0  0
 30 23  1  0  0  0  0
 31 30  2  0  0  0  0
 32 34  1  0  0  0  0
 33 34  2  0  0  0  0
 33 35  1  0  0  0  0
 34 31  1  0  0  0  0
 35 29  2  0  0  0  0
 37 36  1  0  0  0  0
M  END
>  <MODEL>
3

>  <REMARK>
 VINA RESULT:      -6.9      2.800      8.131
  Name = 
  2 active torsions:
  status: ('A' for Active; 'I' for Inactive)
    1  A    between atoms: C_4  and  O_37
    2  A    between atoms: C_23  and  C_30
                            x       y       z     vdW  Elec       q    Type
                         _______ _______ _______ _____ _____    ______ ____

>  <TORSDO>
F 2

$$$$
=
 OpenBabel11122413423D

 37 43  0  0  1  0  0  0  0  0999 V2000
  160.8580  207.7440  151.7130 C   0  0  0  0  0  2  0  0  0  0  0  0
  159.6150  210.0300  155.9510 C   0  0  0  0  0  0  0  0  0  0  0  0
  159.8960  212.3030  152.3700 C   0  0  0  0  0  0  0  0  0  0  0  0
  161.7300  206.4930  151.5060 C   0  0  2  0  0  3  0  0  0  0  0  0
  161.6890  210.7920  149.3900 O   0  0  0  0  0  0  0  0  0  0  0  0
  159.3860  212.2980  154.7650 C   0  0  0  0  0  0  0  0  0  0  0  0
  160.4720  211.4270  151.5210 C   0  0  0  0  0  0  0  0  0  0  0  0
  162.2320  207.1350  149.0910 C   0  0  0  0  0  0  0  0  0  0  0  0
  159.7880  211.6910  153.6570 C   0  0  0  0  0  0  0  0  0  0  0  0
  160.8320  211.6730  150.0670 C   0  0  0  0  0  0  0  0  0  0  0  0
  158.9460  213.7440  154.6970 C   0  0  0  0  0  2  0  0  0  0  0  0
  162.7850  206.6130  150.3900 C   0  0  0  0  0  2  0  0  0  0  0  0
  160.3430  210.3850  153.5870 C   0  0  0  0  0  0  0  0  0  0  0  0
  158.2240  209.4710  155.7010 C   0  0  0  0  0  1  0  0  0  0  0  0
  159.6370  214.4470  150.9410 C   0  0  0  0  0  2  0  0  0  0  0  0
  159.0880  214.3830  153.3170 C   0  0  0  0  0  3  0  0  0  0  0  0
  160.5670  209.5680  154.8220 C   0  0  0  0  0  2  0  0  0  0  0  0
  162.4500  208.5690  148.7060 C   0  0  0  0  0  2  0  0  0  0  0  0
  161.8350  209.4460  149.7790 C   0  0  1  0  0  3  0  0  0  0  0  0
  159.5140  213.7200  152.2290 C   0  0  0  0  0  0  0  0  0  0  0  0
  160.7980  210.2050  152.3500 C   0  0  0  0  0  0  0  0  0  0  0  0
  159.5330  211.5760  156.0850 C   0  0  0  0  0  2  0  0  0  0  0  0
  160.3280  212.7040  149.3380 C   0  0  0  0  0  0  0  0  0  0  0  0
  160.1190  209.4640  157.2610 C   0  0  0  0  0  1  0  0  0  0  0  0
  162.5750  209.3670  150.9620 O   0  0  0  0  0  0  0  0  0  0  0  0
  161.5940  206.3980  148.3570 O   0  0  0  0  0  0  0  0  0  0  0  0
  161.6670  209.0320  151.9810 C   0  0  2  0  0  3  0  0  0  0  0  0
  159.1830  213.5410  149.8240 C   0  0  0  0  0  2  0  0  0  0  0  0
  162.0400  213.6470  147.7690 C   0  0  0  0  0  3  0  0  0  0  0  0
  160.8110  212.9940  147.9610 C   0  0  0  0  0  0  0  0  0  0  0  0
  160.0830  212.5770  146.8340 C   0  0  0  0  0  3  0  0  0  0  0  0
  159.8090  212.4090  144.4130 N   0  0  0  0  0  1  0  0  0  0  0  0
  161.7780  213.4910  145.3680 C   0  0  0  0  0  3  0  0  0  0  0  0
  160.5610  212.8300  145.5450 C   0  0  0  0  0  0  0  0  0  0  0  0
  162.5180  213.8990  146.4800 C   0  0  0  0  0  3  0  0  0  0  0  0
  161.4340  204.3760  152.0810 C   0  0  0  0  0  1  0  0  0  0  0  0
  160.9120  205.3870  151.2710 O   0  0  0  0  0  0  0  0  0  0  0  0
  2 22  1  0  0  0  0
  2 24  1  0  0  0  0
  3  9  1  0  0  0  0
  4 37  1  6  0  0  0
  4  1  1  0  0  0  0
  5 19  1  0  0  0  0
  5 10  1  0  0  0  0
  6 22  1  0  0  0  0
  7 21  1  0  0  0  0
  7  3  2  0  0  0  0
  8 12  1  0  0  0  0
  9  6  2  0  0  0  0
 10  7  1  0  0  0  0
 11  6  1  0  0  0  0
 12  4  1  0  0  0  0
 13  9  1  0  0  0  0
 13 17  1  0  0  0  0
 14  2  1  0  0  0  0
 15 20  1  0  0  0  0
 16 11  1  0  0  0  0
 17  2  1  0  0  0  0
 18  8  1  0  0  0  0
 19 18  1  6  0  0  0
 19 25  1  0  0  0  0
 20  3  1  0  0  0  0
 20 16  2  0  0  0  0
 21 13  2  0  0  0  0
 23 28  1  0  0  0  0
 23 10  2  0  0  0  0
 25 27  1  0  0  0  0
 26  8  2  0  0  0  0
 27  1  1  6  0  0  0
 27 21  1  0  0  0  0
 28 15  1  0  0  0  0
 29 30  1  0  0  0  0
 30 23  1  0  0  0  0
 31 30  2  0  0  0  0
 32 34  1  0  0  0  0
 33 34  2  0  0  0  0
 33 35  1  0  0  0  0
 34 31  1  0  0  0  0
 35 29  2  0  0  0  0
 37 36  1  0  0  0  0
M  END
>  <MODEL>
4

>  <REMARK>
 VINA RESULT:      -6.6      3.067      8.719
  Name = 
  2 active torsions:
  status: ('A' for Active; 'I' for Inactive)
    1  A    between atoms: C_4  and  O_37
    2  A    between atoms: C_23  and  C_30
                            x       y       z     vdW  Elec       q    Type
                         _______ _______ _______ _____ _____    ______ ____

>  <TORSDO>
F 2

$$$$
=
 OpenBabel11122413423D

 37 43  0  0  1  0  0  0  0  0999 V2000
  161.6770  207.3100  153.8070 C   0  0  0  0  0  2  0  0  0  0  0  0
  160.8820  202.8990  151.6530 C   0  0  0  0  0  0  0  0  0  0  0  0
  161.4980  206.3230  149.2100 C   0  0  0  0  0  0  0  0  0  0  0  0
  161.1790  207.8280  155.1680 C   0  0  2  0  0  3  0  0  0  0  0  0
  161.1980  209.7600  150.7830 O   0  0  0  0  0  0  0  0  0  0  0  0
  161.1070  203.9070  149.3000 C   0  0  0  0  0  0  0  0  0  0  0  0
  161.4340  207.3280  150.1070 C   0  0  1  0  0  3  0  0  0  0  0  0
  161.4700  210.2560  154.4490 C   0  0  0  0  0  0  0  0  0  0  0  0
  161.2460  205.0880  149.8850 C   0  0  0  0  0  0  0  0  0  0  0  0
  161.5810  208.8120  149.8210 C   0  0  0  0  0  0  0  0  0  0  0  0
  161.2720  203.8010  147.7990 C   0  0  0  0  0  3  0  0  0  0  0  0
  160.5920  209.2520  155.1460 C   0  0  0  0  0  2  0  0  0  0  0  0
  160.9990  205.3640  151.2570 C   0  0  0  0  0  0  0  0  0  0  0  0
  162.3460  202.6260  151.9530 C   0  0  0  0  0  1  0  0  0  0  0  0
  161.8600  207.5460  146.9570 C   0  0  0  0  0  2  0  0  0  0  0  0
  161.5220  205.1340  147.0970 C   0  0  0  0  0  3  0  0  0  0  0  0
  160.4980  204.3000  152.1860 C   0  0  0  0  0  2  0  0  0  0  0  0
  161.1490  210.6870  153.0470 C   0  0  0  0  0  2  0  0  0  0  0  0
  161.1690  209.4580  152.1590 C   0  0  1  0  0  3  0  0  0  0  0  0
  161.6420  206.3070  147.7430 C   0  0  0  0  0  0  0  0  0  0  0  0
  161.0590  206.6820  151.4220 C   0  0  0  0  0  0  0  0  0  0  0  0
  160.6290  202.7360  150.1280 C   0  0  0  0  0  2  0  0  0  0  0  0
  162.1180  209.3000  148.6720 C   0  0  0  0  0  0  0  0  0  0  0  0
  160.0520  201.8670  152.3860 C   0  0  0  0  0  1  0  0  0  0  0  0
  160.0810  208.6280  152.4440 O   0  0  0  0  0  0  0  0  0  0  0  0
  162.4510  210.7090  155.0150 O   0  0  0  0  0  0  0  0  0  0  0  0
  160.6070  207.3500  152.6940 C   0  0  2  0  0  3  0  0  0  0  0  0
  162.8410  208.4250  147.6930 C   0  0  0  0  0  2  0  0  0  0  0  0
  163.2960  211.5070  148.5180 C   0  0  0  0  0  3  0  0  0  0  0  0
  162.1170  210.7570  148.3700 C   0  0  0  0  0  0  0  0  0  0  0  0
  160.9640  211.3970  147.8850 C   0  0  0  0  0  3  0  0  0  0  0  0
  159.8070  213.3950  147.0940 N   0  0  0  0  0  1  0  0  0  0  0  0
  162.1590  213.4970  147.7410 C   0  0  0  0  0  3  0  0  0  0  0  0
  160.9840  212.7600  147.5770 C   0  0  0  0  0  0  0  0  0  0  0  0
  163.3150  212.8700  148.2090 C   0  0  0  0  0  3  0  0  0  0  0  0
  161.6930  208.3360  157.2600 C   0  0  0  0  0  1  0  0  0  0  0  0
  162.2130  207.7530  156.1030 O   0  0  0  0  0  0  0  0  0  0  0  0
  1  4  1  0  0  0  0
  2 14  1  0  0  0  0
  2 17  1  0  0  0  0
  2 24  1  0  0  0  0
  3  9  2  0  0  0  0
  4 37  1  1  0  0  0
  5 19  1  0  0  0  0
  6  9  1  0  0  0  0
  6 22  1  0  0  0  0
  7  3  1  6  0  0  0
  7 21  1  0  0  0  0
  8 26  2  0  0  0  0
  8 12  1  0  0  0  0
  9 13  1  0  0  0  0
 10  7  1  0  0  0  0
 10  5  1  0  0  0  0
 11  6  2  0  0  0  0
 12  4  1  0  0  0  0
 13 21  2  0  0  0  0
 13 17  1  0  0  0  0
 15 28  1  0  0  0  0
 15 20  1  0  0  0  0
 16 20  2  0  0  0  0
 16 11  1  0  0  0  0
 18  8  1  0  0  0  0
 19 25  1  0  0  0  0
 19 18  1  1  0  0  0
 20  3  1  0  0  0  0
 21 27  1  0  0  0  0
 22  2  1  0  0  0  0
 23 10  2  0  0  0  0
 25 27  1  0  0  0  0
 27  1  1  1  0  0  0
 28 23  1  0  0  0  0
 30 29  1  0  0  0  0
 30 23  1  0  0  0  0
 31 30  2  0  0  0  0
 32 34  1  0  0  0  0
 33 35  1  0  0  0  0
 34 33  2  0  0  0  0
 34 31  1  0  0  0  0
 35 29  2  0  0  0  0
 37 36  1  0  0  0  0
M  END
>  <MODEL>
5

>  <REMARK>
 VINA RESULT:      -6.2      2.183      6.238
  Name = 
  2 active torsions:
  status: ('A' for Active; 'I' for Inactive)
    1  A    between atoms: C_4  and  O_37
    2  A    between atoms: C_23  and  C_30
                            x       y       z     vdW  Elec       q    Type
                         _______ _______ _______ _____ _____    ______ ____

>  <TORSDO>
F 2

$$$$
