=
 OpenBabel11122414113D

 28 32  0  0  1  0  0  0  0  0999 V2000
  161.0560  208.7750  155.2040 C   0  0  0  0  0  0  0  0  0  0  0  0
  158.2840  210.2000  155.0520 O   0  0  0  0  0  0  0  0  0  0  0  0
  161.9810  211.1810  149.8280 O   0  0  0  0  0  0  0  0  0  0  0  0
  162.7350  209.8900  157.1560 C   0  0  0  0  0  3  0  0  0  0  0  0
  160.0680  212.0070  150.9680 C   0  0  1  0  0  3  0  0  0  0  0  0
  160.2480  208.0700  154.1670 C   0  0  0  0  0  2  0  0  0  0  0  0
  158.9830  211.5850  156.9620 O   0  0  0  0  0  0  0  0  0  0  0  0
  158.6620  211.5850  155.4940 S   0  0  0  0  0  0  0  0  0  0  0  0
  157.3720  213.5290  154.0690 C   0  0  0  0  0  0  0  0  0  0  0  0
  160.0650  212.2240  154.5780 C   0  0  2  0  0  3  0  0  0  0  0  0
  162.6510  207.1300  151.5960 O   0  0  0  0  0  0  0  0  0  0  0  0
  160.3100  210.5850  152.8570 N   0  0  1  0  0  0  0  0  0  0  0  0
  158.3830  213.5880  153.2540 N   0  0  0  0  0  0  0  0  0  0  0  0
  157.3460  212.6430  155.1850 N   0  0  0  0  0  2  0  0  0  0  0  0
  161.6510  207.7070  152.0940 C   0  0  0  0  0  0  0  0  0  0  0  0
  161.4380  210.1390  155.1060 C   0  0  0  0  0  0  0  0  0  0  0  0
  161.2260  211.1380  150.7880 C   0  0  0  0  0  0  0  0  0  0  0  0
  156.2240  214.4500  153.8600 C   0  0  0  0  0  1  0  0  0  0  0  0
  160.9930  208.8080  151.3340 C   0  0  0  0  0  2  0  0  0  0  0  0
  162.2820  210.6720  156.0930 C   0  0  0  0  0  3  0  0  0  0  0  0
  161.5160  208.0020  156.2780 C   0  0  0  0  0  3  0  0  0  0  0  0
  162.3470  208.5550  157.2520 C   0  0  0  0  0  3  0  0  0  0  0  0
  161.1360  207.2610  153.3480 N   0  0  0  0  0  2  0  0  0  0  0  0
  159.5290  211.6550  152.3040 N   0  0  1  0  0  0  0  0  0  0  0  0
  161.3390  210.1830  151.8890 C   0  0  2  0  0  3  0  0  0  0  0  0
  159.6070  212.7740  153.2540 C   0  0  2  0  0  3  0  0  0  0  0  0
  160.4660  213.4070  150.8430 N   0  0  0  0  0  1  0  0  0  0  0  0
  160.9620  211.1250  154.0540 C   0  0  2  0  0  3  0  0  0  0  0  0
  1 21  1  0  0  0  0
  2  8  2  0  0  0  0
  3 17  2  0  0  0  0
  4 22  1  0  0  0  0
  5 27  1  1  0  0  0
  5 24  1  0  0  0  0
  6  1  1  0  0  0  0
  8  7  2  0  0  0  0
  9 14  1  0  0  0  0
 10  8  1  1  0  0  0
 11 15  2  0  0  0  0
 12 28  1  0  0  0  0
 13  9  2  0  0  0  0
 14  8  1  0  0  0  0
 15 23  1  0  0  0  0
 16  1  2  0  0  0  0
 16 20  1  0  0  0  0
 17  5  1  0  0  0  0
 17 25  1  0  0  0  0
 18  9  1  0  0  0  0
 19 25  1  0  0  0  0
 19 15  1  0  0  0  0
 20  4  2  0  0  0  0
 21 22  2  0  0  0  0
 23  6  1  0  0  0  0
 24 12  1  0  0  0  0
 24 26  1  0  0  0  0
 25 12  1  0  0  0  0
 26 13  1  0  0  0  0
 26 10  1  0  0  0  0
 28 10  1  0  0  0  0
 28 16  1  0  0  0  0
M  END
>  <MODEL>
1

>  <REMARK>
 VINA RESULT:      -4.8      0.000      0.000
  Name = 
  0 active torsions:
  status: ('A' for Active; 'I' for Inactive)
                            x       y       z     vdW  Elec       q    Type
                         _______ _______ _______ _____ _____    ______ ____

>  <TORSDO>
F 0

$$$$
=
 OpenBabel11122414113D

 28 32  0  0  1  0  0  0  0  0999 V2000
  161.1220  208.6860  155.1080 C   0  0  0  0  0  0  0  0  0  0  0  0
  158.6630  210.4330  154.3110 O   0  0  0  0  0  0  0  0  0  0  0  0
  162.7400  209.3230  149.4050 O   0  0  0  0  0  0  0  0  0  0  0  0
  162.8710  210.0200  156.8510 C   0  0  0  0  0  3  0  0  0  0  0  0
  160.9510  210.7250  150.0910 C   0  0  1  0  0  3  0  0  0  0  0  0
  160.2560  207.8580  154.2200 C   0  0  0  0  0  2  0  0  0  0  0  0
  159.4990  212.1660  155.8440 O   0  0  0  0  0  0  0  0  0  0  0  0
  159.2600  211.8080  154.4050 S   0  0  0  0  0  0  0  0  0  0  0  0
  158.4150  213.4580  152.3950 C   0  0  0  0  0  0  0  0  0  0  0  0
  160.8000  211.9360  153.4950 C   0  0  2  0  0  3  0  0  0  0  0  0
  162.5800  205.8710  152.2420 O   0  0  0  0  0  0  0  0  0  0  0  0
  160.8360  209.8660  152.3030 N   0  0  1  0  0  0  0  0  0  0  0  0
  159.4610  213.1270  151.6970 N   0  0  0  0  0  0  0  0  0  0  0  0
  158.1730  212.9330  153.6970 N   0  0  0  0  0  2  0  0  0  0  0  0
  161.6760  206.7150  152.4670 C   0  0  0  0  0  0  0  0  0  0  0  0
  161.7470  209.8900  154.6900 C   0  0  0  0  0  0  0  0  0  0  0  0
  161.9410  209.6690  150.2630 C   0  0  0  0  0  0  0  0  0  0  0  0
  157.4630  214.4530  151.8360 C   0  0  0  0  0  1  0  0  0  0  0  0
  161.2660  207.6500  151.3810 C   0  0  0  0  0  2  0  0  0  0  0  0
  162.6210  210.5360  155.5790 C   0  0  0  0  0  3  0  0  0  0  0  0
  161.3800  208.1800  156.3890 C   0  0  0  0  0  3  0  0  0  0  0  0
  162.2450  208.8430  157.2580 C   0  0  0  0  0  3  0  0  0  0  0  0
  161.0250  206.7220  153.7380 N   0  0  0  0  0  2  0  0  0  0  0  0
  160.2890  210.8490  151.4130 N   0  0  1  0  0  0  0  0  0  0  0  0
  161.8240  209.0530  151.5830 C   0  0  2  0  0  3  0  0  0  0  0  0
  160.5170  212.1610  152.0340 C   0  0  2  0  0  3  0  0  0  0  0  0
  161.5990  211.9540  149.6390 N   0  0  0  0  0  1  0  0  0  0  0  0
  161.5120  210.6070  153.3730 C   0  0  2  0  0  3  0  0  0  0  0  0
  1 21  1  0  0  0  0
  2  8  2  0  0  0  0
  3 17  2  0  0  0  0
  4 22  1  0  0  0  0
  5 27  1  1  0  0  0
  5 17  1  0  0  0  0
  5 24  1  0  0  0  0
  6  1  1  0  0  0  0
  8  7  2  0  0  0  0
  9 14  1  0  0  0  0
 10  8  1  1  0  0  0
 11 15  2  0  0  0  0
 12 28  1  0  0  0  0
 13 26  1  0  0  0  0
 13  9  2  0  0  0  0
 14  8  1  0  0  0  0
 15 23  1  0  0  0  0
 16  1  2  0  0  0  0
 16 20  1  0  0  0  0
 17 25  1  0  0  0  0
 18  9  1  0  0  0  0
 19 25  1  0  0  0  0
 19 15  1  0  0  0  0
 20  4  2  0  0  0  0
 21 22  2  0  0  0  0
 23  6  1  0  0  0  0
 24 26  1  0  0  0  0
 24 12  1  0  0  0  0
 25 12  1  0  0  0  0
 26 10  1  0  0  0  0
 28 10  1  0  0  0  0
 28 16  1  0  0  0  0
M  END
>  <MODEL>
2

>  <REMARK>
 VINA RESULT:      -3.0      1.198      1.363
  Name = 
  0 active torsions:
  status: ('A' for Active; 'I' for Inactive)
                            x       y       z     vdW  Elec       q    Type
                         _______ _______ _______ _____ _____    ______ ____

>  <TORSDO>
F 0

$$$$
