=
 OpenBabel11122412313D

 30 35  0  0  1  0  0  0  0  0999 V2000
  161.3610  207.6450  151.5990 C   0  0  1  0  0  3  0  0  0  0  0  0
  162.2410  209.9830  151.0150 C   0  0  0  0  0  0  0  0  0  0  0  0
  161.4830  206.7230  147.5150 N   0  0  0  0  0  2  0  0  0  0  0  0
  161.6320  206.2500  151.0220 C   0  0  1  0  0  3  0  0  0  0  0  0
  162.0350  207.7770  152.8320 O   0  0  0  0  0  0  0  0  0  0  0  0
  160.9950  204.7090  154.2950 O   0  0  0  0  0  0  0  0  0  0  0  0
  160.3330  203.2790  150.7680 C   0  0  1  0  0  3  0  0  0  0  0  0
  161.2150  205.5800  153.4100 C   0  0  0  0  0  0  0  0  0  0  0  0
  160.4850  203.6290  149.2800 C   0  0  2  0  0  3  0  0  0  0  0  0
  161.3280  205.2780  147.5430 C   0  0  1  0  0  3  0  0  0  0  0  0
  161.3440  207.0230  153.8090 C   0  0  2  0  0  3  0  0  0  0  0  0
  161.3300  205.2080  152.0260 N   0  0  0  0  0  0  0  0  0  0  0  0
  162.5450  210.9590  150.0630 C   0  0  0  0  0  3  0  0  0  0  0  0
  161.0310  202.3770  148.6270 C   0  0  0  0  0  2  0  0  0  0  0  0
  160.2410  201.7620  150.8380 C   0  0  0  0  0  2  0  0  0  0  0  0
  162.4170  210.2970  152.3580 O   0  0  0  0  0  1  0  0  0  0  0  0
  160.8680  207.2100  148.7450 C   0  0  1  0  0  3  0  0  0  0  0  0
  162.3400  210.7100  148.7070 C   0  0  0  0  0  3  0  0  0  0  0  0
  161.7550  208.7180  150.6080 C   0  0  0  0  0  0  0  0  0  0  0  0
  160.8100  206.0500  149.7490 C   0  0  1  0  0  3  0  0  0  0  0  0
  162.4770  204.6340  146.7940 C   0  0  0  0  0  1  0  0  0  0  0  0
  161.3480  204.8590  148.9980 C   0  0  1  0  0  3  0  0  0  0  0  0
  160.4370  201.2380  149.4260 C   0  0  0  0  0  2  0  0  0  0  0  0
  162.8640  203.4020  151.2890 C   0  0  0  0  0  1  0  0  0  0  0  0
  161.8210  209.4840  148.2970 C   0  0  0  0  0  3  0  0  0  0  0  0
  161.5300  208.4810  149.2310 C   0  0  0  0  0  0  0  0  0  0  0  0
  161.4460  203.7780  151.7120 C   0  0  2  0  0  3  0  0  0  0  0  0
  159.9860  207.6320  154.1670 C   0  0  0  0  0  2  0  0  0  0  0  0
  159.9930  207.1530  156.6150 C   0  0  0  0  0  1  0  0  0  0  0  0
  160.0080  208.2420  155.5590 C   0  0  0  0  0  2  0  0  0  0  0  0
  1 19  1  6  0  0  0
  1  5  1  0  0  0  0
  2 16  1  0  0  0  0
  3 10  1  0  0  0  0
  4  1  1  0  0  0  0
  4 12  1  1  0  0  0
  5 11  1  0  0  0  0
  7 15  1  6  0  0  0
  7 27  1  0  0  0  0
  8 11  1  0  0  0  0
  8  6  2  0  0  0  0
  9 14  1  6  0  0  0
  9  7  1  0  0  0  0
 10 21  1  6  0  0  0
 10 22  1  0  0  0  0
 11 28  1  6  0  0  0
 12  8  1  0  0  0  0
 13  2  2  0  0  0  0
 14 23  1  0  0  0  0
 17  3  1  6  0  0  0
 17 26  1  0  0  0  0
 17 20  1  0  0  0  0
 18 13  1  0  0  0  0
 19  2  1  0  0  0  0
 20  4  1  0  0  0  0
 22  9  1  0  0  0  0
 22 20  1  0  0  0  0
 23 15  1  0  0  0  0
 24 27  1  0  0  0  0
 25 18  2  0  0  0  0
 25 26  1  0  0  0  0
 26 19  2  0  0  0  0
 27 12  1  0  0  0  0
 28 30  1  0  0  0  0
 30 29  1  0  0  0  0
M  END
>  <MODEL>
1

>  <REMARK>
 VINA RESULT:      -5.9      0.000      0.000
  Name = 
  2 active torsions:
  status: ('A' for Active; 'I' for Inactive)
    1  A    between atoms: C_11  and  C_28
    2  A    between atoms: C_28  and  C_30
                            x       y       z     vdW  Elec       q    Type
                         _______ _______ _______ _____ _____    ______ ____

>  <TORSDO>
F 2

$$$$
=
 OpenBabel11122412313D

 30 35  0  0  1  0  0  0  0  0999 V2000
  160.9940  209.0480  153.6210 C   0  0  1  0  0  3  0  0  0  0  0  0
  161.9090  207.7190  151.6270 C   0  0  0  0  0  0  0  0  0  0  0  0
  160.2220  212.2130  150.9880 N   0  0  0  0  0  2  0  0  0  0  0  0
  159.8460  210.0540  153.7710 C   0  0  1  0  0  3  0  0  0  0  0  0
  160.6040  207.8110  154.1750 O   0  0  0  0  0  0  0  0  0  0  0  0
  159.3280  209.0320  157.2610 O   0  0  0  0  0  0  0  0  0  0  0  0
  158.8020  212.5000  155.6430 C   0  0  1  0  0  3  0  0  0  0  0  0
  159.7390  209.0370  156.0690 C   0  0  0  0  0  0  0  0  0  0  0  0
  158.9030  213.2260  154.2930 C   0  0  2  0  0  3  0  0  0  0  0  0
  159.3640  213.0590  151.8020 C   0  0  1  0  0  3  0  0  0  0  0  0
  160.6210  207.9210  155.5860 C   0  0  2  0  0  3  0  0  0  0  0  0
  159.3830  210.1050  155.1730 N   0  0  0  0  0  0  0  0  0  0  0  0
  162.3270  207.6690  150.2950 C   0  0  0  0  0  3  0  0  0  0  0  0
  157.6470  214.0650  154.1930 C   0  0  0  0  0  2  0  0  0  0  0  0
  157.8500  213.3250  156.4950 C   0  0  0  0  0  2  0  0  0  0  0  0
  162.0110  206.5630  152.3920 O   0  0  0  0  0  1  0  0  0  0  0  0
  161.0230  211.4400  151.9320 C   0  0  1  0  0  3  0  0  0  0  0  0
  162.2910  208.8130  149.5000 C   0  0  0  0  0  3  0  0  0  0  0  0
  161.4100  208.9260  152.1720 C   0  0  0  0  0  0  0  0  0  0  0  0
  160.3000  211.4310  153.2860 C   0  0  1  0  0  3  0  0  0  0  0  0
  158.0700  213.3240  151.0590 C   0  0  0  0  0  1  0  0  0  0  0  0
  159.0890  212.3060  153.0860 C   0  0  1  0  0  3  0  0  0  0  0  0
  157.3310  214.4530  155.6200 C   0  0  0  0  0  2  0  0  0  0  0  0
  157.0220  210.7980  154.8520 C   0  0  0  0  0  1  0  0  0  0  0  0
  161.8430  210.0180  150.0390 C   0  0  0  0  0  3  0  0  0  0  0  0
  161.3970  210.0880  151.3640 C   0  0  0  0  0  0  0  0  0  0  0  0
  158.3290  211.0320  155.6040 C   0  0  2  0  0  3  0  0  0  0  0  0
  162.0410  208.0420  156.1460 C   0  0  0  0  0  2  0  0  0  0  0  0
  162.9350  210.3440  156.4950 C   0  0  0  0  0  1  0  0  0  0  0  0
  162.1490  209.2050  157.1170 C   0  0  0  0  0  2  0  0  0  0  0  0
  1 19  1  6  0  0  0
  1  4  1  0  0  0  0
  1  5  1  0  0  0  0
  2 19  1  0  0  0  0
  2 16  1  0  0  0  0
  3 10  1  0  0  0  0
  4 12  1  1  0  0  0
  5 11  1  0  0  0  0
  7 15  1  1  0  0  0
  8  6  2  0  0  0  0
  9 14  1  6  0  0  0
  9  7  1  0  0  0  0
 10 21  1  6  0  0  0
 10 22  1  0  0  0  0
 11  8  1  0  0  0  0
 11 28  1  6  0  0  0
 12 27  1  0  0  0  0
 12  8  1  0  0  0  0
 13  2  2  0  0  0  0
 14 23  1  0  0  0  0
 17  3  1  6  0  0  0
 17 20  1  0  0  0  0
 18 25  2  0  0  0  0
 18 13  1  0  0  0  0
 20  4  1  0  0  0  0
 22 20  1  0  0  0  0
 22  9  1  0  0  0  0
 23 15  1  0  0  0  0
 24 27  1  0  0  0  0
 25 26  1  0  0  0  0
 26 17  1  0  0  0  0
 26 19  2  0  0  0  0
 27  7  1  0  0  0  0
 28 30  1  0  0  0  0
 29 30  1  0  0  0  0
M  END
>  <MODEL>
2

>  <REMARK>
 VINA RESULT:      -4.7      3.789      7.261
  Name = 
  2 active torsions:
  status: ('A' for Active; 'I' for Inactive)
    1  A    between atoms: C_11  and  C_28
    2  A    between atoms: C_28  and  C_30
                            x       y       z     vdW  Elec       q    Type
                         _______ _______ _______ _____ _____    ______ ____

>  <TORSDO>
F 2

$$$$
=
 OpenBabel11122412313D

 30 35  0  0  1  0  0  0  0  0999 V2000
  161.1510  204.8270  148.2460 C   0  0  1  0  0  3  0  0  0  0  0  0
  161.4150  202.3560  147.6070 C   0  0  0  0  0  0  0  0  0  0  0  0
  160.4620  203.5980  152.1900 N   0  0  0  0  0  2  0  0  0  0  0  0
  161.5310  205.6320  149.4950 C   0  0  1  0  0  3  0  0  0  0  0  0
  162.0640  205.1180  147.2100 O   0  0  0  0  0  0  0  0  0  0  0  0
  161.9950  208.6630  147.4720 O   0  0  0  0  0  0  0  0  0  0  0  0
  160.7860  208.3450  151.1270 C   0  0  1  0  0  3  0  0  0  0  0  0
  161.8300  207.4530  147.7850 C   0  0  0  0  0  0  0  0  0  0  0  0
  160.5100  207.2970  152.2160 C   0  0  2  0  0  3  0  0  0  0  0  0
  160.5890  204.8550  152.9080 C   0  0  1  0  0  3  0  0  0  0  0  0
  161.7800  206.4100  146.7050 C   0  0  2  0  0  3  0  0  0  0  0  0
  161.6780  207.0640  149.1620 N   0  0  0  0  0  0  0  0  0  0  0  0
  161.2940  201.0030  147.9320 C   0  0  0  0  0  3  0  0  0  0  0  0
  161.1060  207.8690  153.4840 C   0  0  0  0  0  2  0  0  0  0  0  0
  160.9980  209.6640  151.8550 C   0  0  0  0  0  2  0  0  0  0  0  0
  161.8450  202.6900  146.3280 O   0  0  0  0  0  1  0  0  0  0  0  0
  160.0790  203.9580  150.8290 C   0  0  1  0  0  3  0  0  0  0  0  0
  160.8210  200.6170  149.1840 C   0  0  0  0  0  3  0  0  0  0  0  0
  161.0900  203.3490  148.5620 C   0  0  0  0  0  0  0  0  0  0  0  0
  160.4800  205.4200  150.5850 C   0  0  1  0  0  3  0  0  0  0  0  0
  161.6260  204.7050  154.0040 C   0  0  0  0  0  1  0  0  0  0  0  0
  161.0350  205.8960  151.9030 C   0  0  1  0  0  3  0  0  0  0  0  0
  160.9440  209.3660  153.3430 C   0  0  0  0  0  2  0  0  0  0  0  0
  163.2990  207.7760  150.9000 C   0  0  0  0  0  1  0  0  0  0  0  0
  160.4560  201.5850  150.1170 C   0  0  0  0  0  3  0  0  0  0  0  0
  160.5900  202.9480  149.8240 C   0  0  0  0  0  0  0  0  0  0  0  0
  161.9800  208.0680  150.1910 C   0  0  2  0  0  3  0  0  0  0  0  0
  160.4580  206.4600  145.9350 C   0  0  0  0  0  2  0  0  0  0  0  0
  161.5810  205.4530  143.9480 C   0  0  0  0  0  1  0  0  0  0  0  0
  160.3930  205.3610  144.8870 C   0  0  0  0  0  2  0  0  0  0  0  0
  1  5  1  6  0  0  0
  1 19  1  0  0  0  0
  1  4  1  0  0  0  0
  2 13  2  0  0  0  0
  2 19  1  0  0  0  0
  3 10  1  0  0  0  0
  4 12  1  6  0  0  0
  4 20  1  0  0  0  0
  6  8  2  0  0  0  0
  7 15  1  1  0  0  0
  7  9  1  0  0  0  0
  8 12  1  0  0  0  0
  9 14  1  1  0  0  0
 10 21  1  1  0  0  0
 11 28  1  1  0  0  0
 11  5  1  0  0  0  0
 11  8  1  0  0  0  0
 12 27  1  0  0  0  0
 13 18  1  0  0  0  0
 15 23  1  0  0  0  0
 16  2  1  0  0  0  0
 17 26  1  6  0  0  0
 17  3  1  0  0  0  0
 18 25  2  0  0  0  0
 19 26  2  0  0  0  0
 20 17  1  0  0  0  0
 20 22  1  0  0  0  0
 22  9  1  0  0  0  0
 22 10  1  0  0  0  0
 23 14  1  0  0  0  0
 26 25  1  0  0  0  0
 27 24  1  0  0  0  0
 27  7  1  0  0  0  0
 29 30  1  0  0  0  0
 30 28  1  0  0  0  0
M  END
>  <MODEL>
3

>  <REMARK>
 VINA RESULT:      -4.5      2.541      7.110
  Name = 
  2 active torsions:
  status: ('A' for Active; 'I' for Inactive)
    1  A    between atoms: C_11  and  C_28
    2  A    between atoms: C_28  and  C_30
                            x       y       z     vdW  Elec       q    Type
                         _______ _______ _______ _____ _____    ______ ____

>  <TORSDO>
F 2

$$$$
=
 OpenBabel11122412313D

 30 35  0  0  1  0  0  0  0  0999 V2000
  160.1760  211.4440  153.3300 C   0  0  1  0  0  3  0  0  0  0  0  0
  161.5500  210.8290  151.2530 C   0  0  0  0  0  0  0  0  0  0  0  0
  158.0130  214.1230  150.9440 N   0  0  0  0  0  2  0  0  0  0  0  0
  158.7020  211.8120  153.5390 C   0  0  1  0  0  3  0  0  0  0  0  0
  160.3940  210.1240  153.7770 O   0  0  0  0  0  0  0  0  0  0  0  0
  158.7680  210.3940  156.9270 O   0  0  0  0  0  0  0  0  0  0  0  0
  156.7090  213.3730  155.5820 C   0  0  1  0  0  3  0  0  0  0  0  0
  159.1090  210.6770  155.7460 C   0  0  0  0  0  0  0  0  0  0  0  0
  156.4470  214.1710  154.2950 C   0  0  2  0  0  3  0  0  0  0  0  0
  156.8840  214.4270  151.8070 C   0  0  1  0  0  3  0  0  0  0  0  0
  160.3880  210.1170  155.1920 C   0  0  2  0  0  3  0  0  0  0  0  0
  158.2940  211.5390  154.9330 N   0  0  0  0  0  0  0  0  0  0  0  0
  161.9190  211.0780  149.9280 C   0  0  0  0  0  3  0  0  0  0  0  0
  154.9460  214.3620  154.2410 C   0  0  0  0  0  2  0  0  0  0  0  0
  155.5050  213.6130  156.4800 C   0  0  0  0  0  2  0  0  0  0  0  0
  162.1750  209.7850  151.9240 O   0  0  0  0  0  1  0  0  0  0  0  0
  159.0950  213.7200  151.8370 C   0  0  1  0  0  3  0  0  0  0  0  0
  161.3580  212.1430  149.2270 C   0  0  0  0  0  3  0  0  0  0  0  0
  160.5740  211.6360  151.8830 C   0  0  0  0  0  0  0  0  0  0  0  0
  158.4800  213.2800  153.1730 C   0  0  1  0  0  3  0  0  0  0  0  0
  155.5930  214.1400  151.0660 C   0  0  0  0  0  1  0  0  0  0  0  0
  157.0020  213.5310  153.0220 C   0  0  1  0  0  3  0  0  0  0  0  0
  154.5180  214.4530  155.6880 C   0  0  0  0  0  2  0  0  0  0  0  0
  155.8670  211.1220  154.6270 C   0  0  0  0  0  1  0  0  0  0  0  0
  160.4280  212.9710  149.8510 C   0  0  0  0  0  3  0  0  0  0  0  0
  160.0240  212.7290  151.1700 C   0  0  0  0  0  0  0  0  0  0  0  0
  156.9450  211.8570  155.4180 C   0  0  2  0  0  3  0  0  0  0  0  0
  161.6130  210.8180  155.7850 C   0  0  0  0  0  2  0  0  0  0  0  0
  163.5970  210.4840  157.2610 C   0  0  0  0  0  1  0  0  0  0  0  0
  162.1820  210.0310  156.9540 C   0  0  0  0  0  2  0  0  0  0  0  0
  1 19  1  6  0  0  0
  1  4  1  0  0  0  0
  1  5  1  0  0  0  0
  2 19  1  0  0  0  0
  2 16  1  0  0  0  0
  3 10  1  0  0  0  0
  4 12  1  1  0  0  0
  5 11  1  0  0  0  0
  7 15  1  1  0  0  0
  8  6  2  0  0  0  0
  9 14  1  6  0  0  0
  9  7  1  0  0  0  0
 10 21  1  6  0  0  0
 10 22  1  0  0  0  0
 11  8  1  0  0  0  0
 11 28  1  1  0  0  0
 12 27  1  0  0  0  0
 12  8  1  0  0  0  0
 13  2  2  0  0  0  0
 14 23  1  0  0  0  0
 17  3  1  6  0  0  0
 17 20  1  0  0  0  0
 18 25  2  0  0  0  0
 18 13  1  0  0  0  0
 20  4  1  0  0  0  0
 22 20  1  0  0  0  0
 22  9  1  0  0  0  0
 23 15  1  0  0  0  0
 24 27  1  0  0  0  0
 25 26  1  0  0  0  0
 26 17  1  0  0  0  0
 26 19  2  0  0  0  0
 27  7  1  0  0  0  0
 28 30  1  0  0  0  0
 30 29  1  0  0  0  0
M  END
>  <MODEL>
4

>  <REMARK>
 VINA RESULT:      -4.5      5.593      8.342
  Name = 
  2 active torsions:
  status: ('A' for Active; 'I' for Inactive)
    1  A    between atoms: C_11  and  C_28
    2  A    between atoms: C_28  and  C_30
                            x       y       z     vdW  Elec       q    Type
                         _______ _______ _______ _____ _____    ______ ____

>  <TORSDO>
F 2

$$$$
=
 OpenBabel11122412313D

 30 35  0  0  1  0  0  0  0  0999 V2000
  161.1800  203.6680  147.8330 C   0  0  1  0  0  3  0  0  0  0  0  0
  161.1640  201.1760  148.4460 C   0  0  0  0  0  0  0  0  0  0  0  0
  160.8560  204.5390  151.9180 N   0  0  0  0  0  2  0  0  0  0  0  0
  161.7670  204.9090  148.5150 C   0  0  1  0  0  3  0  0  0  0  0  0
  161.9860  203.3180  146.7300 O   0  0  0  0  0  0  0  0  0  0  0  0
  162.2380  206.5450  145.2590 O   0  0  0  0  0  0  0  0  0  0  0  0
  161.4410  208.1410  148.6860 C   0  0  1  0  0  3  0  0  0  0  0  0
  162.0130  205.6560  146.1260 C   0  0  0  0  0  0  0  0  0  0  0  0
  161.2090  207.7740  150.1590 C   0  0  2  0  0  3  0  0  0  0  0  0
  161.1690  205.9580  151.9330 C   0  0  1  0  0  3  0  0  0  0  0  0
  161.7520  204.2440  145.6860 C   0  0  2  0  0  3  0  0  0  0  0  0
  161.9900  205.9850  147.5260 N   0  0  0  0  0  0  0  0  0  0  0  0
  160.9720  200.1630  149.3880 C   0  0  0  0  0  3  0  0  0  0  0  0
  161.9940  208.7940  150.9550 C   0  0  0  0  0  2  0  0  0  0  0  0
  161.8440  209.6080  148.6750 C   0  0  0  0  0  2  0  0  0  0  0  0
  161.4680  200.8110  147.1400 O   0  0  0  0  0  1  0  0  0  0  0  0
  160.3480  204.2610  150.5780 C   0  0  1  0  0  3  0  0  0  0  0  0
  160.6180  200.4750  150.6990 C   0  0  0  0  0  3  0  0  0  0  0  0
  161.0350  202.5340  148.8240 C   0  0  0  0  0  0  0  0  0  0  0  0
  160.8360  205.3710  149.6370 C   0  0  1  0  0  3  0  0  0  0  0  0
  162.3100  206.2110  152.8980 C   0  0  0  0  0  1  0  0  0  0  0  0
  161.5780  206.3370  150.5250 C   0  0  1  0  0  3  0  0  0  0  0  0
  161.9390  210.0560  150.1230 C   0  0  0  0  0  2  0  0  0  0  0  0
  163.8560  207.2180  148.6010 C   0  0  0  0  0  1  0  0  0  0  0  0
  160.4450  201.8060  151.0720 C   0  0  0  0  0  3  0  0  0  0  0  0
  160.6540  202.8410  150.1520 C   0  0  0  0  0  0  0  0  0  0  0  0
  162.4920  207.3070  147.9240 C   0  0  2  0  0  3  0  0  0  0  0  0
  160.3580  204.0940  145.0720 C   0  0  0  0  0  2  0  0  0  0  0  0
  159.0870  201.9500  145.1970 C   0  0  0  0  0  1  0  0  0  0  0  0
  160.1730  202.7140  144.4620 C   0  0  0  0  0  2  0  0  0  0  0  0
  1  5  1  6  0  0  0
  1  4  1  0  0  0  0
  1 19  1  0  0  0  0
  2 19  2  0  0  0  0
  2 13  1  0  0  0  0
  3 10  1  0  0  0  0
  4 12  1  6  0  0  0
  4 20  1  0  0  0  0
  6  8  2  0  0  0  0
  7 15  1  1  0  0  0
  7  9  1  0  0  0  0
  8 12  1  0  0  0  0
  9 22  1  0  0  0  0
  9 14  1  1  0  0  0
 10 21  1  1  0  0  0
 11 28  1  1  0  0  0
 11  8  1  0  0  0  0
 11  5  1  0  0  0  0
 12 27  1  0  0  0  0
 13 18  2  0  0  0  0
 15 23  1  0  0  0  0
 16  2  1  0  0  0  0
 17 26  1  6  0  0  0
 17  3  1  0  0  0  0
 18 25  1  0  0  0  0
 19 26  1  0  0  0  0
 20 22  1  0  0  0  0
 20 17  1  0  0  0  0
 22 10  1  0  0  0  0
 23 14  1  0  0  0  0
 26 25  2  0  0  0  0
 27 24  1  0  0  0  0
 27  7  1  0  0  0  0
 30 28  1  0  0  0  0
 30 29  1  0  0  0  0
M  END
>  <MODEL>
5

>  <REMARK>
 VINA RESULT:      -4.4      2.931      7.557
  Name = 
  2 active torsions:
  status: ('A' for Active; 'I' for Inactive)
    1  A    between atoms: C_11  and  C_28
    2  A    between atoms: C_28  and  C_30
                            x       y       z     vdW  Elec       q    Type
                         _______ _______ _______ _____ _____    ______ ____

>  <TORSDO>
F 2

$$$$
=
 OpenBabel11122412313D

 30 35  0  0  1  0  0  0  0  0999 V2000
  161.1450  205.9450  149.7550 C   0  0  1  0  0  3  0  0  0  0  0  0
  161.6100  203.4230  149.6820 C   0  0  0  0  0  0  0  0  0  0  0  0
  160.6540  205.6010  153.9010 N   0  0  0  0  0  2  0  0  0  0  0  0
  161.4810  207.0420  150.7720 C   0  0  1  0  0  3  0  0  0  0  0  0
  162.0060  206.0630  148.6430 O   0  0  0  0  0  0  0  0  0  0  0  0
  161.6320  209.5560  148.0980 O   0  0  0  0  0  0  0  0  0  0  0  0
  160.5370  209.9890  151.7770 C   0  0  1  0  0  3  0  0  0  0  0  0
  161.5810  208.4410  148.6840 C   0  0  0  0  0  0  0  0  0  0  0  0
  160.3790  209.1990  153.0860 C   0  0  2  0  0  3  0  0  0  0  0  0
  160.6870  206.9960  154.3090 C   0  0  1  0  0  3  0  0  0  0  0  0
  161.5990  207.1780  147.8710 C   0  0  2  0  0  3  0  0  0  0  0  0
  161.4940  208.3670  150.1180 N   0  0  0  0  0  0  0  0  0  0  0  0
  161.6160  202.1750  150.3090 C   0  0  0  0  0  3  0  0  0  0  0  0
  160.9510  210.0930  154.1650 C   0  0  0  0  0  2  0  0  0  0  0  0
  160.6490  211.4520  152.1780 C   0  0  0  0  0  2  0  0  0  0  0  0
  161.9810  203.4880  148.3440 O   0  0  0  0  0  1  0  0  0  0  0  0
  160.2120  205.6080  152.5100 C   0  0  1  0  0  3  0  0  0  0  0  0
  161.2060  202.0490  151.6350 C   0  0  0  0  0  3  0  0  0  0  0  0
  161.2210  204.5790  150.4000 C   0  0  0  0  0  0  0  0  0  0  0  0
  160.4770  207.0020  151.9250 C   0  0  1  0  0  3  0  0  0  0  0  0
  161.7570  207.1850  155.3660 C   0  0  0  0  0  1  0  0  0  0  0  0
  161.0170  207.8110  153.0760 C   0  0  1  0  0  3  0  0  0  0  0  0
  160.6540  211.5000  153.6960 C   0  0  0  0  0  2  0  0  0  0  0  0
  163.0850  209.5870  151.5800 C   0  0  0  0  0  1  0  0  0  0  0  0
  160.7790  203.1730  152.3390 C   0  0  0  0  0  3  0  0  0  0  0  0
  160.7860  204.4390  151.7390 C   0  0  0  0  0  0  0  0  0  0  0  0
  161.7300  209.6010  150.8790 C   0  0  2  0  0  3  0  0  0  0  0  0
  160.2610  206.9430  147.1650 C   0  0  0  0  0  2  0  0  0  0  0  0
  161.9140  205.8280  145.6670 C   0  0  0  0  0  1  0  0  0  0  0  0
  160.4560  206.2080  145.8500 C   0  0  0  0  0  2  0  0  0  0  0  0
  1  5  1  6  0  0  0
  1 19  1  0  0  0  0
  1  4  1  0  0  0  0
  2 13  2  0  0  0  0
  2 19  1  0  0  0  0
  3 10  1  0  0  0  0
  4 12  1  6  0  0  0
  4 20  1  0  0  0  0
  6  8  2  0  0  0  0
  7 15  1  1  0  0  0
  7  9  1  0  0  0  0
  8 12  1  0  0  0  0
  9 14  1  1  0  0  0
 10 21  1  1  0  0  0
 11 28  1  1  0  0  0
 11  5  1  0  0  0  0
 11  8  1  0  0  0  0
 12 27  1  0  0  0  0
 13 18  1  0  0  0  0
 15 23  1  0  0  0  0
 16  2  1  0  0  0  0
 17 26  1  6  0  0  0
 17  3  1  0  0  0  0
 18 25  2  0  0  0  0
 19 26  2  0  0  0  0
 20 17  1  0  0  0  0
 20 22  1  0  0  0  0
 22  9  1  0  0  0  0
 22 10  1  0  0  0  0
 23 14  1  0  0  0  0
 26 25  1  0  0  0  0
 27 24  1  0  0  0  0
 27  7  1  0  0  0  0
 29 30  1  0  0  0  0
 30 28  1  0  0  0  0
M  END
>  <MODEL>
6

>  <REMARK>
 VINA RESULT:      -4.3      2.270      7.087
  Name = 
  2 active torsions:
  status: ('A' for Active; 'I' for Inactive)
    1  A    between atoms: C_11  and  C_28
    2  A    between atoms: C_28  and  C_30
                            x       y       z     vdW  Elec       q    Type
                         _______ _______ _______ _____ _____    ______ ____

>  <TORSDO>
F 2

$$$$
=
 OpenBabel11122412313D

 30 35  0  0  1  0  0  0  0  0999 V2000
  161.4990  208.6320  151.4530 C   0  0  1  0  0  3  0  0  0  0  0  0
  160.8350  209.4420  153.7940 C   0  0  0  0  0  0  0  0  0  0  0  0
  161.2270  204.7030  152.8790 N   0  0  0  0  0  2  0  0  0  0  0  0
  161.0890  207.4190  150.6090 C   0  0  1  0  0  3  0  0  0  0  0  0
  160.8600  209.7850  150.9500 O   0  0  0  0  0  0  0  0  0  0  0  0
  161.6280  209.3180  147.5110 O   0  0  0  0  0  0  0  0  0  0  0  0
  162.0980  205.5380  148.1550 C   0  0  1  0  0  3  0  0  0  0  0  0
  161.4780  209.0500  148.7340 C   0  0  0  0  0  0  0  0  0  0  0  0
  161.9560  204.4790  149.2580 C   0  0  2  0  0  3  0  0  0  0  0  0
  161.2470  203.9460  151.6370 C   0  0  1  0  0  3  0  0  0  0  0  0
  161.4920  210.1640  149.7420 C   0  0  2  0  0  3  0  0  0  0  0  0
  161.3070  207.6910  149.1730 N   0  0  0  0  0  0  0  0  0  0  0  0
  160.6090  209.1780  155.1470 C   0  0  0  0  0  3  0  0  0  0  0  0
  161.2850  203.2950  148.5950 C   0  0  0  0  0  2  0  0  0  0  0  0
  162.0470  204.7820  146.8360 C   0  0  0  0  0  2  0  0  0  0  0  0
  160.7100  210.7530  153.3500 O   0  0  0  0  0  1  0  0  0  0  0  0
  161.9050  205.9620  152.5830 C   0  0  1  0  0  3  0  0  0  0  0  0
  160.7690  207.8890  155.6520 C   0  0  0  0  0  3  0  0  0  0  0  0
  161.1920  208.3930  152.9150 C   0  0  0  0  0  0  0  0  0  0  0  0
  161.8690  206.1860  151.0660 C   0  0  1  0  0  3  0  0  0  0  0  0
  160.0300  203.0440  151.5800 C   0  0  0  0  0  1  0  0  0  0  0  0
  161.2100  204.9510  150.5060 C   0  0  1  0  0  3  0  0  0  0  0  0
  161.7820  203.3240  147.1670 C   0  0  0  0  0  2  0  0  0  0  0  0
  159.5980  206.2040  148.1590 C   0  0  0  0  0  1  0  0  0  0  0  0
  161.1640  206.8570  154.8040 C   0  0  0  0  0  3  0  0  0  0  0  0
  161.3730  207.0910  153.4390 C   0  0  0  0  0  0  0  0  0  0  0  0
  161.0510  206.6710  148.1470 C   0  0  2  0  0  3  0  0  0  0  0  0
  162.9060  210.7040  149.9650 C   0  0  0  0  0  2  0  0  0  0  0  0
  161.9780  212.6000  148.6350 C   0  0  0  0  0  1  0  0  0  0  0  0
  163.2300  211.8150  148.9810 C   0  0  0  0  0  2  0  0  0  0  0  0
  1  5  1  6  0  0  0
  1 19  1  0  0  0  0
  2 13  1  0  0  0  0
  4 12  1  6  0  0  0
  4 20  1  0  0  0  0
  4  1  1  0  0  0  0
  6  8  2  0  0  0  0
  7 15  1  6  0  0  0
  7  9  1  0  0  0  0
  8 12  1  0  0  0  0
  8 11  1  0  0  0  0
  9 14  1  6  0  0  0
  9 22  1  0  0  0  0
 10 21  1  1  0  0  0
 10  3  1  0  0  0  0
 11 28  1  1  0  0  0
 11  5  1  0  0  0  0
 13 18  2  0  0  0  0
 15 23  1  0  0  0  0
 16  2  1  0  0  0  0
 17  3  1  6  0  0  0
 17 26  1  0  0  0  0
 19 26  1  0  0  0  0
 19  2  2  0  0  0  0
 20 17  1  0  0  0  0
 22 20  1  0  0  0  0
 22 10  1  0  0  0  0
 23 14  1  0  0  0  0
 25 18  1  0  0  0  0
 26 25  2  0  0  0  0
 27  7  1  0  0  0  0
 27 24  1  0  0  0  0
 27 12  1  0  0  0  0
 29 30  1  0  0  0  0
 30 28  1  0  0  0  0
M  END
>  <MODEL>
7

>  <REMARK>
 VINA RESULT:      -3.5      1.702      4.992
  Name = 
  2 active torsions:
  status: ('A' for Active; 'I' for Inactive)
    1  A    between atoms: C_11  and  C_28
    2  A    between atoms: C_28  and  C_30
                            x       y       z     vdW  Elec       q    Type
                         _______ _______ _______ _____ _____    ______ ____

>  <TORSDO>
F 2

$$$$
=
 OpenBabel11122412313D

 30 35  0  0  1  0  0  0  0  0999 V2000
  161.1600  203.2370  147.5180 C   0  0  1  0  0  3  0  0  0  0  0  0
  160.8220  203.5780  144.9970 C   0  0  0  0  0  0  0  0  0  0  0  0
  162.2690  207.2680  147.7800 N   0  0  0  0  0  2  0  0  0  0  0  0
  160.9200  204.1350  148.7370 C   0  0  1  0  0  3  0  0  0  0  0  0
  160.1420  202.2630  147.4500 O   0  0  0  0  0  0  0  0  0  0  0  0
  160.2490  201.1990  150.8400 O   0  0  0  0  0  0  0  0  0  0  0  0
  161.8460  204.5770  151.8240 C   0  0  1  0  0  3  0  0  0  0  0  0
  160.4430  201.9160  149.8210 C   0  0  0  0  0  0  0  0  0  0  0  0
  162.2350  205.9410  151.2330 C   0  0  2  0  0  3  0  0  0  0  0  0
  162.2230  207.4840  149.2170 C   0  0  1  0  0  3  0  0  0  0  0  0
  160.3730  201.2940  148.4560 C   0  0  2  0  0  3  0  0  0  0  0  0
  160.7430  203.3170  149.9550 N   0  0  0  0  0  0  0  0  0  0  0  0
  160.9720  204.3620  143.8510 C   0  0  0  0  0  3  0  0  0  0  0  0
  161.7810  206.9630  152.2530 C   0  0  0  0  0  2  0  0  0  0  0  0
  161.7180  204.7880  153.3250 C   0  0  0  0  0  2  0  0  0  0  0  0
  160.2560  202.3150  144.8610 O   0  0  0  0  0  1  0  0  0  0  0  0
  162.5030  205.8380  147.6040 C   0  0  1  0  0  3  0  0  0  0  0  0
  161.5770  205.6150  143.9270 C   0  0  0  0  0  3  0  0  0  0  0  0
  161.2510  204.0650  146.2550 C   0  0  0  0  0  0  0  0  0  0  0  0
  162.0820  205.1170  148.8920 C   0  0  1  0  0  3  0  0  0  0  0  0
  161.3110  208.6560  149.5210 C   0  0  0  0  0  1  0  0  0  0  0  0
  161.6750  206.2170  149.8380 C   0  0  1  0  0  3  0  0  0  0  0  0
  161.9320  206.2680  153.5870 C   0  0  0  0  0  2  0  0  0  0  0  0
  159.3210  204.8250  151.3190 C   0  0  0  0  0  1  0  0  0  0  0  0
  162.0430  206.0870  145.1530 C   0  0  0  0  0  3  0  0  0  0  0  0
  161.8830  205.3290  146.3200 C   0  0  0  0  0  0  0  0  0  0  0  0
  160.5570  203.9310  151.2760 C   0  0  2  0  0  3  0  0  0  0  0  0
  161.6040  200.4320  148.1650 C   0  0  0  0  0  2  0  0  0  0  0  0
  161.5700  198.7070  146.3630 C   0  0  0  0  0  1  0  0  0  0  0  0
  161.7580  200.1800  146.6750 C   0  0  0  0  0  2  0  0  0  0  0  0
  1 19  1  6  0  0  0
  1  4  1  0  0  0  0
  2 19  1  0  0  0  0
  3 10  1  0  0  0  0
  4 20  1  0  0  0  0
  4 12  1  1  0  0  0
  5  1  1  0  0  0  0
  5 11  1  0  0  0  0
  7 15  1  1  0  0  0
  8 12  1  0  0  0  0
  8  6  2  0  0  0  0
  9  7  1  0  0  0  0
  9 14  1  1  0  0  0
 10 21  1  6  0  0  0
 10 22  1  0  0  0  0
 11 28  1  6  0  0  0
 11  8  1  0  0  0  0
 12 27  1  0  0  0  0
 13 18  1  0  0  0  0
 13  2  2  0  0  0  0
 14 23  1  0  0  0  0
 15 23  1  0  0  0  0
 16  2  1  0  0  0  0
 17 26  1  6  0  0  0
 17  3  1  0  0  0  0
 17 20  1  0  0  0  0
 18 25  2  0  0  0  0
 19 26  2  0  0  0  0
 20 22  1  0  0  0  0
 22  9  1  0  0  0  0
 25 26  1  0  0  0  0
 27 24  1  0  0  0  0
 27  7  1  0  0  0  0
 29 30  1  0  0  0  0
 30 28  1  0  0  0  0
M  END
>  <MODEL>
8

>  <REMARK>
 VINA RESULT:      -3.4      2.981      6.436
  Name = 
  2 active torsions:
  status: ('A' for Active; 'I' for Inactive)
    1  A    between atoms: C_11  and  C_28
    2  A    between atoms: C_28  and  C_30
                            x       y       z     vdW  Elec       q    Type
                         _______ _______ _______ _____ _____    ______ ____

>  <TORSDO>
F 2

$$$$
=
 OpenBabel11122412313D

 30 35  0  0  1  0  0  0  0  0999 V2000
  160.3490  210.5780  153.6530 C   0  0  1  0  0  3  0  0  0  0  0  0
  160.1610  208.3020  154.8210 C   0  0  0  0  0  0  0  0  0  0  0  0
  162.2710  208.6410  150.4750 N   0  0  0  0  0  2  0  0  0  0  0  0
  160.2680  211.0110  152.1840 C   0  0  1  0  0  3  0  0  0  0  0  0
  159.1510  210.9330  154.3080 O   0  0  0  0  0  0  0  0  0  0  0  0
  158.9370  214.2920  153.1620 O   0  0  0  0  0  0  0  0  0  0  0  0
  161.1790  213.3810  150.1510 C   0  0  1  0  0  3  0  0  0  0  0  0
  159.3060  213.0880  153.2270 C   0  0  0  0  0  0  0  0  0  0  0  0
  161.8620  212.1800  149.4790 C   0  0  2  0  0  3  0  0  0  0  0  0
  162.2320  209.6690  149.4480 C   0  0  1  0  0  3  0  0  0  0  0  0
  159.1450  212.3330  154.5160 C   0  0  2  0  0  3  0  0  0  0  0  0
  159.8890  212.4360  152.0840 N   0  0  0  0  0  0  0  0  0  0  0  0
  160.5050  206.9500  154.9010 C   0  0  0  0  0  3  0  0  0  0  0  0
  161.6040  212.3490  147.9970 C   0  0  0  0  0  2  0  0  0  0  0  0
  161.0550  214.4510  149.0760 C   0  0  0  0  0  2  0  0  0  0  0  0
  159.3470  208.8330  155.8150 O   0  0  0  0  0  1  0  0  0  0  0  0
  162.2050  209.3530  151.7480 C   0  0  1  0  0  3  0  0  0  0  0  0
  161.3580  206.3820  153.9560 C   0  0  0  0  0  3  0  0  0  0  0  0
  160.6470  209.0990  153.7570 C   0  0  0  0  0  0  0  0  0  0  0  0
  161.6060  210.7430  151.4930 C   0  0  1  0  0  3  0  0  0  0  0  0
  161.5780  209.1070  148.2010 C   0  0  0  0  0  1  0  0  0  0  0  0
  161.4120  210.8150  150.0000 C   0  0  1  0  0  3  0  0  0  0  0  0
  161.5680  213.8450  147.7820 C   0  0  0  0  0  2  0  0  0  0  0  0
  158.7770  212.4620  149.8660 C   0  0  0  0  0  1  0  0  0  0  0  0
  161.8780  207.1670  152.9290 C   0  0  0  0  0  3  0  0  0  0  0  0
  161.5290  208.5190  152.8150 C   0  0  0  0  0  0  0  0  0  0  0  0
  159.7980  213.1210  150.7890 C   0  0  2  0  0  3  0  0  0  0  0  0
  160.1760  212.7740  155.5590 C   0  0  0  0  0  2  0  0  0  0  0  0
  161.4070  211.4130  157.2480 C   0  0  0  0  0  1  0  0  0  0  0  0
  160.0520  211.9540  156.8320 C   0  0  0  0  0  2  0  0  0  0  0  0
  1 19  1  6  0  0  0
  1  5  1  0  0  0  0
  2 13  1  0  0  0  0
  2 16  1  0  0  0  0
  4 12  1  1  0  0  0
  4  1  1  0  0  0  0
  5 11  1  0  0  0  0
  6  8  2  0  0  0  0
  7 15  1  6  0  0  0
  7 27  1  0  0  0  0
  8 11  1  0  0  0  0
  9 14  1  6  0  0  0
  9 22  1  0  0  0  0
  9  7  1  0  0  0  0
 10 21  1  6  0  0  0
 10 22  1  0  0  0  0
 10  3  1  0  0  0  0
 11 28  1  1  0  0  0
 12  8  1  0  0  0  0
 17  3  1  6  0  0  0
 17 26  1  0  0  0  0
 18 13  2  0  0  0  0
 19  2  2  0  0  0  0
 20 17  1  0  0  0  0
 20  4  1  0  0  0  0
 22 20  1  0  0  0  0
 23 14  1  0  0  0  0
 23 15  1  0  0  0  0
 24 27  1  0  0  0  0
 25 18  1  0  0  0  0
 26 25  2  0  0  0  0
 26 19  1  0  0  0  0
 27 12  1  0  0  0  0
 28 30  1  0  0  0  0
 30 29  1  0  0  0  0
M  END
>  <MODEL>
9

>  <REMARK>
 VINA RESULT:      -3.4      3.543      7.051
  Name = 
  2 active torsions:
  status: ('A' for Active; 'I' for Inactive)
    1  A    between atoms: C_11  and  C_28
    2  A    between atoms: C_28  and  C_30
                            x       y       z     vdW  Elec       q    Type
                         _______ _______ _______ _____ _____    ______ ____

>  <TORSDO>
F 2

$$$$
